=
 OpenBabel11112416373D

 32 37  0  0  1  0  0  0  0  0999 V2000
  184.3810  178.4230  142.9510 C   0  0  0  0  0  2  0  0  0  0  0  0
  189.0330  175.3070  142.9490 C   0  0  0  0  0  0  0  0  0  0  0  0
  192.1130  176.4560  146.6260 C   0  0  0  0  0  2  0  0  0  0  0  0
  192.5740  175.0130  146.6390 C   0  0  0  0  0  2  0  0  0  0  0  0
  189.4820  173.3860  141.3610 C   0  0  0  0  0  0  0  0  0  0  0  0
  190.2940  172.3640  141.0770 C   0  0  0  0  0  0  0  0  0  0  0  0
  187.0940  176.7630  142.5550 C   0  0  0  0  0  0  0  0  0  0  0  0
  188.5150  177.1340  144.4800 C   0  0  0  0  0  3  0  0  0  0  0  0
  192.1160  170.9060  141.3840 C   0  0  1  0  0  3  0  0  0  0  0  0
  186.5520  178.6140  144.2290 C   0  0  0  0  0  2  0  0  0  0  0  0
  190.6590  176.5150  146.1840 C   0  0  0  0  0  2  0  0  0  0  0  0
  189.3500  176.0630  144.1170 C   0  0  0  0  0  0  0  0  0  0  0  0
  190.4250  175.7700  144.8890 C   0  0  0  0  0  0  0  0  0  0  0  0
  190.9790  173.8790  143.3870 C   0  0  0  0  0  0  0  0  0  0  0  0
  191.3050  170.4290  140.1690 C   0  0  0  0  0  3  0  0  0  0  0  0
  185.2920  178.2900  141.7320 C   0  0  0  0  0  2  0  0  0  0  0  0
  187.3980  177.4890  143.7250 C   0  0  0  0  0  0  0  0  0  0  0  0
  190.1390  171.4080  139.9610 C   0  0  0  0  0  3  0  0  0  0  0  0
  185.9970  177.0510  141.7280 O   0  0  0  0  0  0  0  0  0  0  0  0
  185.0910  178.1820  144.2830 C   0  0  1  0  0  3  0  0  0  0  0  0
  192.5920  174.4940  145.2090 C   0  0  0  0  0  2  0  0  0  0  0  0
  191.2930  174.6680  144.5450 N   0  0  0  0  0  0  0  0  0  0  0  0
  191.7460  172.8340  143.0380 C   0  0  0  0  0  3  0  0  0  0  0  0
  187.9050  175.6850  142.2000 C   0  0  0  0  0  3  0  0  0  0  0  0
  188.3810  173.6220  140.5410 O   0  0  0  0  0  1  0  0  0  0  0  0
  193.5160  171.2810  140.9360 C   0  0  0  0  0  1  0  0  0  0  0  0
  189.7850  174.2400  142.5650 C   0  0  0  0  0  0  0  0  0  0  0  0
  191.4200  172.0780  141.8710 N   0  0  0  0  0  0  0  0  0  0  0  0
  184.3510  178.9260  145.3840 C   0  0  0  0  0  2  0  0  0  0  0  0
  184.5230  178.2300  146.7260 C   0  0  0  0  0  3  0  0  0  0  0  0
  184.9560  176.7900  146.5280 C   0  0  0  0  0  1  0  0  0  0  0  0
  185.5800  178.9570  147.5310 C   0  0  0  0  0  1  0  0  0  0  0  0
  1 20  1  0  0  0  0
  2 12  1  0  0  0  0
  3  4  1  0  0  0  0
  5 27  1  0  0  0  0
  6  5  2  0  0  0  0
  6 28  1  0  0  0  0
  7 17  1  0  0  0  0
  9 26  1  6  0  0  0
  9 28  1  0  0  0  0
 10 20  1  0  0  0  0
 11  3  1  0  0  0  0
 12  8  1  0  0  0  0
 12 13  2  0  0  0  0
 13 11  1  0  0  0  0
 14 22  1  0  0  0  0
 15  9  1  0  0  0  0
 16  1  1  0  0  0  0
 17 10  1  0  0  0  0
 17  8  2  0  0  0  0
 18 15  2  0  0  0  0
 18  6  1  0  0  0  0
 19 16  1  0  0  0  0
 19  7  1  0  0  0  0
 20 29  1  1  0  0  0
 21  4  1  0  0  0  0
 22 13  1  0  0  0  0
 22 21  1  0  0  0  0
 23 14  2  0  0  0  0
 24  7  2  0  0  0  0
 24  2  1  0  0  0  0
 25  5  1  0  0  0  0
 27  2  2  0  0  0  0
 27 14  1  0  0  0  0
 28 23  1  0  0  0  0
 29 30  1  0  0  0  0
 30 32  1  0  0  0  0
 31 30  1  0  0  0  0
M  END
>  <MODEL>
1

>  <REMARK>
 VINA RESULT:      -9.2      0.000      0.000
  Name = 
  2 active torsions:
  status: ('A' for Active; 'I' for Inactive)
    1  A    between atoms: C_20  and  C_29
    2  A    between atoms: C_29  and  C_30
                            x       y       z     vdW  Elec       q    Type
                         _______ _______ _______ _____ _____    ______ ____

>  <TORSDO>
F 2

$$$$
=
 OpenBabel11112416373D

 32 37  0  0  1  0  0  0  0  0999 V2000
  185.5480  178.9000  147.1440 C   0  0  0  0  0  2  0  0  0  0  0  0
  189.7030  175.7960  145.0330 C   0  0  0  0  0  0  0  0  0  0  0  0
  188.3030  173.1090  141.1400 C   0  0  0  0  0  2  0  0  0  0  0  0
  189.7150  173.2250  140.6020 C   0  0  0  0  0  2  0  0  0  0  0  0
  192.1020  175.8550  145.8410 C   0  0  0  0  0  0  0  0  0  0  0  0
  193.3510  175.4480  145.6010 C   0  0  0  0  0  0  0  0  0  0  0  0
  187.9720  176.9710  146.3210 C   0  0  0  0  0  0  0  0  0  0  0  0
  187.3850  175.8260  144.2690 C   0  0  0  0  0  3  0  0  0  0  0  0
  195.0790  174.3680  144.4230 C   0  0  1  0  0  3  0  0  0  0  0  0
  185.5760  177.0350  145.4380 C   0  0  0  0  0  2  0  0  0  0  0  0
  187.9710  174.3510  141.9520 C   0  0  0  0  0  2  0  0  0  0  0  0
  188.7130  175.4030  144.0820 C   0  0  0  0  0  0  0  0  0  0  0  0
  189.0210  174.6450  143.0010 C   0  0  0  0  0  0  0  0  0  0  0  0
  191.3950  174.6100  143.7110 C   0  0  0  0  0  0  0  0  0  0  0  0
  195.6900  175.1020  145.6280 C   0  0  0  0  0  3  0  0  0  0  0  0
  186.3710  177.9280  147.9880 C   0  0  0  0  0  2  0  0  0  0  0  0
  187.0050  176.6010  145.3630 C   0  0  0  0  0  0  0  0  0  0  0  0
  194.5470  175.7740  146.4040 C   0  0  0  0  0  3  0  0  0  0  0  0
  187.6810  177.7420  147.4560 O   0  0  0  0  0  0  0  0  0  0  0  0
  185.5010  178.5420  145.6580 C   0  0  1  0  0  3  0  0  0  0  0  0
  190.6870  173.1830  141.7710 C   0  0  0  0  0  2  0  0  0  0  0  0
  190.3800  174.2070  142.7790 N   0  0  0  0  0  0  0  0  0  0  0  0
  192.6740  174.2430  143.5350 C   0  0  0  0  0  3  0  0  0  0  0  0
  189.2950  176.5740  146.1300 C   0  0  0  0  0  3  0  0  0  0  0  0
  191.8530  176.6510  146.9570 O   0  0  0  0  0  1  0  0  0  0  0  0
  195.3270  172.8770  144.5680 C   0  0  0  0  0  1  0  0  0  0  0  0
  191.0090  175.4450  144.8880 C   0  0  0  0  0  0  0  0  0  0  0  0
  193.6600  174.6440  144.4880 N   0  0  0  0  0  0  0  0  0  0  0  0
  184.2300  179.1120  145.0480 C   0  0  0  0  0  2  0  0  0  0  0  0
  184.4250  179.4330  143.5730 C   0  0  0  0  0  3  0  0  0  0  0  0
  185.9030  179.5000  143.2350 C   0  0  0  0  0  1  0  0  0  0  0  0
  183.7770  178.3500  142.7380 C   0  0  0  0  0  1  0  0  0  0  0  0
  1 16  1  0  0  0  0
  2 24  1  0  0  0  0
  3 11  1  0  0  0  0
  4  3  1  0  0  0  0
  4 21  1  0  0  0  0
  5 25  1  0  0  0  0
  6  5  2  0  0  0  0
  6 18  1  0  0  0  0
  7 19  1  0  0  0  0
  8 17  2  0  0  0  0
  9 28  1  0  0  0  0
  9 26  1  1  0  0  0
  9 15  1  0  0  0  0
 10 20  1  0  0  0  0
 11 13  1  0  0  0  0
 12  8  1  0  0  0  0
 12  2  1  0  0  0  0
 13 12  2  0  0  0  0
 14 27  1  0  0  0  0
 15 18  2  0  0  0  0
 17 10  1  0  0  0  0
 17  7  1  0  0  0  0
 19 16  1  0  0  0  0
 20 29  1  1  0  0  0
 20  1  1  0  0  0  0
 21 22  1  0  0  0  0
 22 13  1  0  0  0  0
 22 14  1  0  0  0  0
 23 14  2  0  0  0  0
 23 28  1  0  0  0  0
 24  7  2  0  0  0  0
 27  2  2  0  0  0  0
 27  5  1  0  0  0  0
 28  6  1  0  0  0  0
 30 29  1  0  0  0  0
 31 30  1  0  0  0  0
 32 30  1  0  0  0  0
M  END
>  <MODEL>
2

>  <REMARK>
 VINA RESULT:      -9.0      2.379      4.785
  Name = 
  2 active torsions:
  status: ('A' for Active; 'I' for Inactive)
    1  A    between atoms: C_20  and  C_29
    2  A    between atoms: C_29  and  C_30
                            x       y       z     vdW  Elec       q    Type
                         _______ _______ _______ _____ _____    ______ ____

>  <TORSDO>
F 2

$$$$
=
 OpenBabel11112416373D

 32 37  0  0  1  0  0  0  0  0999 V2000
  185.5200  178.9370  145.5050 C   0  0  0  0  0  2  0  0  0  0  0  0
  189.8690  175.6390  144.2530 C   0  0  0  0  0  0  0  0  0  0  0  0
  188.9960  172.6980  140.3910 C   0  0  0  0  0  2  0  0  0  0  0  0
  190.4740  172.7570  140.0610 C   0  0  0  0  0  2  0  0  0  0  0  0
  192.1240  175.7270  145.4020 C   0  0  0  0  0  0  0  0  0  0  0  0
  193.3850  175.2880  145.3780 C   0  0  0  0  0  0  0  0  0  0  0  0
  187.9950  176.9250  145.1850 C   0  0  0  0  0  0  0  0  0  0  0  0
  187.6900  175.6430  143.1540 C   0  0  0  0  0  3  0  0  0  0  0  0
  195.2430  174.1050  144.5470 C   0  0  1  0  0  3  0  0  0  0  0  0
  185.7560  176.9550  143.9550 C   0  0  0  0  0  2  0  0  0  0  0  0
  188.5770  173.9990  141.0570 C   0  0  0  0  0  2  0  0  0  0  0  0
  189.0210  175.1920  143.1950 C   0  0  0  0  0  0  0  0  0  0  0  0
  189.4670  174.3540  142.2270 C   0  0  0  0  0  0  0  0  0  0  0  0
  191.7100  174.3410  143.2810 C   0  0  0  0  0  0  0  0  0  0  0  0
  195.6860  174.9170  145.7750 C   0  0  0  0  0  3  0  0  0  0  0  0
  186.1890  178.0180  146.5270 C   0  0  0  0  0  2  0  0  0  0  0  0
  187.1710  176.4990  144.1220 C   0  0  0  0  0  0  0  0  0  0  0  0
  194.4570  175.6560  146.3260 C   0  0  0  0  0  3  0  0  0  0  0  0
  187.5580  177.7780  146.2090 O   0  0  0  0  0  0  0  0  0  0  0  0
  185.6840  178.4750  144.0570 C   0  0  1  0  0  3  0  0  0  0  0  0
  191.2620  172.7870  141.3610 C   0  0  0  0  0  2  0  0  0  0  0  0
  190.8340  173.8840  142.2400 N   0  0  0  0  0  0  0  0  0  0  0  0
  192.9920  173.9460  143.3230 C   0  0  0  0  0  3  0  0  0  0  0  0
  189.3230  176.4990  145.2210 C   0  0  0  0  0  3  0  0  0  0  0  0
  191.7320  176.6040  146.4110 O   0  0  0  0  0  1  0  0  0  0  0  0
  195.4320  172.6260  144.8290 C   0  0  0  0  0  1  0  0  0  0  0  0
  191.1740  175.2630  144.3280 C   0  0  0  0  0  0  0  0  0  0  0  0
  193.8360  174.4030  144.3810 N   0  0  0  0  0  0  0  0  0  0  0  0
  184.5300  179.0140  143.2270 C   0  0  0  0  0  2  0  0  0  0  0  0
  184.1720  178.0590  142.0990 C   0  0  0  0  0  3  0  0  0  0  0  0
  182.7460  178.2910  141.6380 C   0  0  0  0  0  1  0  0  0  0  0  0
  185.1110  178.2900  140.9340 C   0  0  0  0  0  1  0  0  0  0  0  0
  1 16  1  0  0  0  0
  2 27  2  0  0  0  0
  2 24  1  0  0  0  0
  3 11  1  0  0  0  0
  4  3  1  0  0  0  0
  4 21  1  0  0  0  0
  5 25  1  0  0  0  0
  6  5  2  0  0  0  0
  6 18  1  0  0  0  0
  7 24  2  0  0  0  0
  7 19  1  0  0  0  0
  8 12  1  0  0  0  0
  8 17  2  0  0  0  0
  9 26  1  1  0  0  0
  9 15  1  0  0  0  0
 10 20  1  0  0  0  0
 10 17  1  0  0  0  0
 11 13  1  0  0  0  0
 12  2  1  0  0  0  0
 13 22  1  0  0  0  0
 13 12  2  0  0  0  0
 14 23  2  0  0  0  0
 14 27  1  0  0  0  0
 15 18  2  0  0  0  0
 17  7  1  0  0  0  0
 19 16  1  0  0  0  0
 20 29  1  6  0  0  0
 20  1  1  0  0  0  0
 21 22  1  0  0  0  0
 22 14  1  0  0  0  0
 23 28  1  0  0  0  0
 27  5  1  0  0  0  0
 28  9  1  0  0  0  0
 28  6  1  0  0  0  0
 30 29  1  0  0  0  0
 31 30  1  0  0  0  0
 32 30  1  0  0  0  0
M  END
>  <MODEL>
3

>  <REMARK>
 VINA RESULT:      -8.7      2.182      4.757
  Name = 
  2 active torsions:
  status: ('A' for Active; 'I' for Inactive)
    1  A    between atoms: C_20  and  C_29
    2  A    between atoms: C_29  and  C_30
                            x       y       z     vdW  Elec       q    Type
                         _______ _______ _______ _____ _____    ______ ____

>  <TORSDO>
F 2

$$$$
=
 OpenBabel11112416373D

 32 37  0  0  1  0  0  0  0  0999 V2000
  185.5770  177.5460  143.2840 C   0  0  0  0  0  2  0  0  0  0  0  0
  190.2360  174.4450  143.4640 C   0  0  0  0  0  0  0  0  0  0  0  0
  193.9910  176.7520  145.6780 C   0  0  0  0  0  2  0  0  0  0  0  0
  194.5000  175.4000  146.1380 C   0  0  0  0  0  2  0  0  0  0  0  0
  190.4050  172.0480  142.6650 C   0  0  0  0  0  0  0  0  0  0  0  0
  191.1750  170.9580  142.6230 C   0  0  0  0  0  0  0  0  0  0  0  0
  188.2020  175.7340  142.9740 C   0  0  0  0  0  0  0  0  0  0  0  0
  189.9900  176.7380  144.2620 C   0  0  0  0  0  3  0  0  0  0  0  0
  193.0750  169.6400  143.0610 C   0  0  1  0  0  3  0  0  0  0  0  0
  187.9650  178.1040  143.8970 C   0  0  0  0  0  2  0  0  0  0  0  0
  192.4750  176.7080  145.5710 C   0  0  0  0  0  2  0  0  0  0  0  0
  190.7680  175.5710  144.1620 C   0  0  0  0  0  0  0  0  0  0  0  0
  191.9950  175.5410  144.7370 C   0  0  0  0  0  0  0  0  0  0  0  0
  192.2840  173.1990  143.9810 C   0  0  0  0  0  0  0  0  0  0  0  0
  192.0390  168.7770  142.3210 C   0  0  0  0  0  3  0  0  0  0  0  0
  186.2080  176.9200  142.0410 C   0  0  0  0  0  2  0  0  0  0  0  0
  188.7250  176.8330  143.6880 C   0  0  0  0  0  0  0  0  0  0  0  0
  190.8200  169.6590  142.0130 C   0  0  0  0  0  3  0  0  0  0  0  0
  186.9430  175.7400  142.3560 O   0  0  0  0  0  0  0  0  0  0  0  0
  186.5670  177.7930  144.4220 C   0  0  1  0  0  3  0  0  0  0  0  0
  194.2280  174.3800  145.0430 C   0  0  0  0  0  2  0  0  0  0  0  0
  192.8100  174.3500  144.6580 N   0  0  0  0  0  0  0  0  0  0  0  0
  192.9980  172.0650  143.8990 C   0  0  0  0  0  3  0  0  0  0  0  0
  188.9590  174.5650  142.8890 C   0  0  0  0  0  3  0  0  0  0  0  0
  189.1440  172.0090  142.0740 O   0  0  0  0  0  1  0  0  0  0  0  0
  194.3300  169.7510  142.2140 C   0  0  0  0  0  1  0  0  0  0  0  0
  190.9280  173.2780  143.3610 C   0  0  0  0  0  0  0  0  0  0  0  0
  192.4570  170.9400  143.2040 N   0  0  0  0  0  0  0  0  0  0  0  0
  186.0550  178.9310  145.2900 C   0  0  0  0  0  2  0  0  0  0  0  0
  185.5780  178.4190  146.6420 C   0  0  0  0  0  3  0  0  0  0  0  0
  184.0660  178.2910  146.6580 C   0  0  0  0  0  1  0  0  0  0  0  0
  186.1910  177.0600  146.9030 C   0  0  0  0  0  1  0  0  0  0  0  0
  1 20  1  0  0  0  0
  2 12  1  0  0  0  0
  3  4  1  0  0  0  0
  5 27  1  0  0  0  0
  6  5  2  0  0  0  0
  6 28  1  0  0  0  0
  7 17  1  0  0  0  0
  9 26  1  6  0  0  0
  9 28  1  0  0  0  0
 10 20  1  0  0  0  0
 11  3  1  0  0  0  0
 12  8  1  0  0  0  0
 12 13  2  0  0  0  0
 13 11  1  0  0  0  0
 14 22  1  0  0  0  0
 15  9  1  0  0  0  0
 16 19  1  0  0  0  0
 16  1  1  0  0  0  0
 17 10  1  0  0  0  0
 17  8  2  0  0  0  0
 18 15  2  0  0  0  0
 18  6  1  0  0  0  0
 19  7  1  0  0  0  0
 20 29  1  6  0  0  0
 21  4  1  0  0  0  0
 22 13  1  0  0  0  0
 22 21  1  0  0  0  0
 23 14  2  0  0  0  0
 24  7  2  0  0  0  0
 24  2  1  0  0  0  0
 25  5  1  0  0  0  0
 27  2  2  0  0  0  0
 27 14  1  0  0  0  0
 28 23  1  0  0  0  0
 29 30  1  0  0  0  0
 30 31  1  0  0  0  0
 30 32  1  0  0  0  0
M  END
>  <MODEL>
4

>  <REMARK>
 VINA RESULT:      -8.4      1.497      1.871
  Name = 
  2 active torsions:
  status: ('A' for Active; 'I' for Inactive)
    1  A    between atoms: C_20  and  C_29
    2  A    between atoms: C_29  and  C_30
                            x       y       z     vdW  Elec       q    Type
                         _______ _______ _______ _____ _____    ______ ____

>  <TORSDO>
F 2

$$$$
=
 OpenBabel11112416373D

 32 37  0  0  1  0  0  0  0  0999 V2000
  195.2210  175.2900  146.1360 C   0  0  0  0  0  2  0  0  0  0  0  0
  190.4080  175.9230  143.3450 C   0  0  0  0  0  0  0  0  0  0  0  0
  190.2440  173.2840  139.1810 C   0  0  0  0  0  2  0  0  0  0  0  0
  188.7440  173.1660  139.3610 C   0  0  0  0  0  2  0  0  0  0  0  0
  188.4290  177.2710  144.1690 C   0  0  0  0  0  0  0  0  0  0  0  0
  187.1480  177.5820  143.9540 C   0  0  0  0  0  0  0  0  0  0  0  0
  192.5430  176.0620  144.5530 C   0  0  0  0  0  0  0  0  0  0  0  0
  192.3310  174.6000  142.6340 C   0  0  0  0  0  3  0  0  0  0  0  0
  185.0590  177.4990  142.8730 C   0  0  1  0  0  3  0  0  0  0  0  0
  194.5020  174.6000  143.8140 C   0  0  0  0  0  2  0  0  0  0  0  0
  190.9080  173.3750  140.5460 C   0  0  0  0  0  2  0  0  0  0  0  0
  190.9930  174.9870  142.4410 C   0  0  0  0  0  0  0  0  0  0  0  0
  190.2930  174.4540  141.4090 C   0  0  0  0  0  0  0  0  0  0  0  0
  188.2980  175.7480  142.1070 C   0  0  0  0  0  0  0  0  0  0  0  0
  184.9370  178.4060  144.1080 C   0  0  0  0  0  3  0  0  0  0  0  0
  194.6680  176.6560  145.7310 C   0  0  0  0  0  2  0  0  0  0  0  0
  193.1060  175.1160  143.6710 C   0  0  0  0  0  0  0  0  0  0  0  0
  186.3150  178.4770  144.7840 C   0  0  0  0  0  3  0  0  0  0  0  0
  193.2470  176.6410  145.6200 O   0  0  0  0  0  0  0  0  0  0  0  0
  194.7430  174.1420  145.2480 C   0  0  1  0  0  3  0  0  0  0  0  0
  188.2200  174.4670  139.9490 C   0  0  0  0  0  2  0  0  0  0  0  0
  188.9130  174.8260  141.1940 N   0  0  0  0  0  0  0  0  0  0  0  0
  187.0140  176.1080  141.9580 C   0  0  0  0  0  3  0  0  0  0  0  0
  191.2090  176.4340  144.3810 C   0  0  0  0  0  3  0  0  0  0  0  0
  189.0880  177.8340  145.2590 O   0  0  0  0  0  1  0  0  0  0  0  0
  184.7800  178.3140  141.6230 C   0  0  0  0  0  1  0  0  0  0  0  0
  189.1090  176.3110  143.2280 C   0  0  0  0  0  0  0  0  0  0  0  0
  186.4320  177.0420  142.8700 N   0  0  0  0  0  0  0  0  0  0  0  0
  195.7690  173.0200  145.2880 C   0  0  0  0  0  2  0  0  0  0  0  0
  195.1460  171.7240  145.7860 C   0  0  0  0  0  3  0  0  0  0  0  0
  194.0630  171.2550  144.8330 C   0  0  0  0  0  1  0  0  0  0  0  0
  196.2180  170.6590  145.8770 C   0  0  0  0  0  1  0  0  0  0  0  0
  2 24  1  0  0  0  0
  3  4  1  0  0  0  0
  3 11  1  0  0  0  0
  4 21  1  0  0  0  0
  5 25  1  0  0  0  0
  6  5  2  0  0  0  0
  6 18  1  0  0  0  0
  7 19  1  0  0  0  0
  8 17  2  0  0  0  0
  9 26  1  6  0  0  0
  9 15  1  0  0  0  0
 10 20  1  0  0  0  0
 11 13  1  0  0  0  0
 12  8  1  0  0  0  0
 12  2  1  0  0  0  0
 13 12  2  0  0  0  0
 14 27  1  0  0  0  0
 15 18  2  0  0  0  0
 16  1  1  0  0  0  0
 17 10  1  0  0  0  0
 17  7  1  0  0  0  0
 19 16  1  0  0  0  0
 20 29  1  6  0  0  0
 20  1  1  0  0  0  0
 21 22  1  0  0  0  0
 22 13  1  0  0  0  0
 22 14  1  0  0  0  0
 23 14  2  0  0  0  0
 23 28  1  0  0  0  0
 24  7  2  0  0  0  0
 27  2  2  0  0  0  0
 27  5  1  0  0  0  0
 28  9  1  0  0  0  0
 28  6  1  0  0  0  0
 29 30  1  0  0  0  0
 30 32  1  0  0  0  0
 31 30  1  0  0  0  0
M  END
>  <MODEL>
5

>  <REMARK>
 VINA RESULT:      -8.3      2.816      8.192
  Name = 
  2 active torsions:
  status: ('A' for Active; 'I' for Inactive)
    1  A    between atoms: C_20  and  C_29
    2  A    between atoms: C_29  and  C_30
                            x       y       z     vdW  Elec       q    Type
                         _______ _______ _______ _____ _____    ______ ____

>  <TORSDO>
F 2

$$$$
=
 OpenBabel11112416373D

 32 37  0  0  1  0  0  0  0  0999 V2000
  189.9610  172.9610  138.3000 C   0  0  0  0  0  2  0  0  0  0  0  0
  188.7000  175.4380  143.1620 C   0  0  0  0  0  0  0  0  0  0  0  0
  192.2810  174.9960  146.5260 C   0  0  0  0  0  2  0  0  0  0  0  0
  191.8520  176.3300  147.1010 C   0  0  0  0  0  2  0  0  0  0  0  0
  186.6070  176.7980  143.5870 C   0  0  0  0  0  0  0  0  0  0  0  0
  185.9820  177.6110  144.4430 C   0  0  0  0  0  0  0  0  0  0  0  0
  188.8920  174.1490  141.0790 C   0  0  0  0  0  0  0  0  0  0  0  0
  190.7190  174.1580  142.6690 C   0  0  0  0  0  3  0  0  0  0  0  0
  185.7170  178.8920  146.4000 C   0  0  1  0  0  3  0  0  0  0  0  0
  191.0560  172.8880  140.5770 C   0  0  0  0  0  2  0  0  0  0  0  0
  191.9970  174.9780  145.0320 C   0  0  0  0  0  2  0  0  0  0  0  0
  190.0030  174.9950  143.5430 C   0  0  0  0  0  0  0  0  0  0  0  0
  190.5690  175.3660  144.7170 C   0  0  0  0  0  0  0  0  0  0  0  0
  188.5570  176.7100  145.2540 C   0  0  0  0  0  0  0  0  0  0  0  0
  184.4890  179.1080  145.5010 C   0  0  0  0  0  3  0  0  0  0  0  0
  188.6820  172.6610  139.0800 C   0  0  0  0  0  2  0  0  0  0  0  0
  190.1890  173.7370  141.4510 C   0  0  0  0  0  0  0  0  0  0  0  0
  184.6610  178.2410  144.2440 C   0  0  0  0  0  3  0  0  0  0  0  0
  188.2740  173.7680  139.8790 O   0  0  0  0  0  0  0  0  0  0  0  0
  191.1090  173.4740  139.1700 C   0  0  1  0  0  3  0  0  0  0  0  0
  190.3370  176.4380  147.0030 C   0  0  0  0  0  2  0  0  0  0  0  0
  189.8590  176.2340  145.6290 N   0  0  0  0  0  0  0  0  0  0  0  0
  187.8680  177.5330  146.0600 C   0  0  0  0  0  3  0  0  0  0  0  0
  188.1840  174.9960  141.9310 C   0  0  0  0  0  3  0  0  0  0  0  0
  185.9810  176.4700  142.3860 O   0  0  0  0  0  1  0  0  0  0  0  0
  185.2750  178.2600  147.7080 C   0  0  0  0  0  1  0  0  0  0  0  0
  187.9720  176.2730  143.9510 C   0  0  0  0  0  0  0  0  0  0  0  0
  186.5680  177.9770  145.6700 N   0  0  0  0  0  0  0  0  0  0  0  0
  192.4320  173.1400  138.4990 C   0  0  0  0  0  2  0  0  0  0  0  0
  193.6080  173.5050  139.3920 C   0  0  0  0  0  3  0  0  0  0  0  0
  194.7450  172.5180  139.2040 C   0  0  0  0  0  1  0  0  0  0  0  0
  194.0950  174.8920  139.0320 C   0  0  0  0  0  1  0  0  0  0  0  0
  1 16  1  0  0  0  0
  1 20  1  0  0  0  0
  2 12  1  0  0  0  0
  2 27  2  0  0  0  0
  3  4  1  0  0  0  0
  5 27  1  0  0  0  0
  5  6  2  0  0  0  0
  6 28  1  0  0  0  0
  7 17  1  0  0  0  0
  7 24  2  0  0  0  0
  8 12  1  0  0  0  0
  9 26  1  1  0  0  0
 10 17  1  0  0  0  0
 11  3  1  0  0  0  0
 12 13  2  0  0  0  0
 13 11  1  0  0  0  0
 13 22  1  0  0  0  0
 14 22  1  0  0  0  0
 14 23  2  0  0  0  0
 15  9  1  0  0  0  0
 16 19  1  0  0  0  0
 17  8  2  0  0  0  0
 18  6  1  0  0  0  0
 18 15  2  0  0  0  0
 19  7  1  0  0  0  0
 20 29  1  6  0  0  0
 20 10  1  0  0  0  0
 21  4  1  0  0  0  0
 22 21  1  0  0  0  0
 24  2  1  0  0  0  0
 25  5  1  0  0  0  0
 27 14  1  0  0  0  0
 28 23  1  0  0  0  0
 28  9  1  0  0  0  0
 29 30  1  0  0  0  0
 31 30  1  0  0  0  0
 32 30  1  0  0  0  0
M  END
>  <MODEL>
6

>  <REMARK>
 VINA RESULT:      -8.2      1.893      7.514
  Name = 
  2 active torsions:
  status: ('A' for Active; 'I' for Inactive)
    1  A    between atoms: C_20  and  C_29
    2  A    between atoms: C_29  and  C_30
                            x       y       z     vdW  Elec       q    Type
                         _______ _______ _______ _____ _____    ______ ____

>  <TORSDO>
F 2

$$$$
=
 OpenBabel11112416373D

 32 37  0  0  1  0  0  0  0  0999 V2000
  185.6260  176.8990  143.4820 C   0  0  0  0  0  2  0  0  0  0  0  0
  190.9230  175.2330  142.7610 C   0  0  0  0  0  0  0  0  0  0  0  0
  193.9190  176.7480  146.3750 C   0  0  0  0  0  2  0  0  0  0  0  0
  194.7510  175.5010  146.1560 C   0  0  0  0  0  2  0  0  0  0  0  0
  191.7180  173.7210  140.8930 C   0  0  0  0  0  0  0  0  0  0  0  0
  192.7440  173.0080  140.4190 C   0  0  0  0  0  0  0  0  0  0  0  0
  188.6350  176.1240  142.6940 C   0  0  0  0  0  0  0  0  0  0  0  0
  190.0820  176.6440  144.5650 C   0  0  0  0  0  3  0  0  0  0  0  0
  194.9130  172.0930  140.4080 C   0  0  1  0  0  3  0  0  0  0  0  0
  187.7780  177.5350  144.6440 C   0  0  0  0  0  2  0  0  0  0  0  0
  192.4670  176.4510  146.0340 C   0  0  0  0  0  2  0  0  0  0  0  0
  191.1350  175.9010  144.0050 C   0  0  0  0  0  0  0  0  0  0  0  0
  192.3190  175.8310  144.6620 C   0  0  0  0  0  0  0  0  0  0  0  0
  193.2150  174.3660  142.8760 C   0  0  0  0  0  0  0  0  0  0  0  0
  194.1470  171.5570  139.1870 C   0  0  0  0  0  3  0  0  0  0  0  0
  186.4180  177.1740  142.2040 C   0  0  0  0  0  2  0  0  0  0  0  0
  188.8440  176.7610  143.9360 C   0  0  0  0  0  0  0  0  0  0  0  0
  192.7460  172.1890  139.1890 C   0  0  0  0  0  3  0  0  0  0  0  0
  187.4270  176.1920  141.9830 O   0  0  0  0  0  0  0  0  0  0  0  0
  186.4990  176.7080  144.7210 C   0  0  1  0  0  3  0  0  0  0  0  0
  194.7700  175.1840  144.6680 C   0  0  0  0  0  2  0  0  0  0  0  0
  193.4150  175.0650  144.1130 N   0  0  0  0  0  0  0  0  0  0  0  0
  194.1980  173.6270  142.3380 C   0  0  0  0  0  3  0  0  0  0  0  0
  189.6690  175.3680  142.1420 C   0  0  0  0  0  3  0  0  0  0  0  0
  190.5200  173.7360  140.1810 O   0  0  0  0  0  1  0  0  0  0  0  0
  196.1100  172.8950  139.9350 C   0  0  0  0  0  1  0  0  0  0  0  0
  191.8940  174.4730  142.1860 C   0  0  0  0  0  0  0  0  0  0  0  0
  193.9770  172.9560  141.0960 N   0  0  0  0  0  0  0  0  0  0  0  0
  185.6960  177.0770  145.9590 C   0  0  0  0  0  2  0  0  0  0  0  0
  185.5120  178.5830  146.0640 C   0  0  0  0  0  3  0  0  0  0  0  0
  184.0590  178.9580  145.8390 C   0  0  0  0  0  1  0  0  0  0  0  0
  185.9300  179.0410  147.4450 C   0  0  0  0  0  1  0  0  0  0  0  0
  1 20  1  0  0  0  0
  2 12  1  0  0  0  0
  4  3  1  0  0  0  0
  5 27  1  0  0  0  0
  6  5  2  0  0  0  0
  6 28  1  0  0  0  0
  7 17  1  0  0  0  0
  9 26  1  6  0  0  0
  9 28  1  0  0  0  0
 10 20  1  0  0  0  0
 11  3  1  0  0  0  0
 12  8  1  0  0  0  0
 12 13  2  0  0  0  0
 13 11  1  0  0  0  0
 14 22  1  0  0  0  0
 15 18  2  0  0  0  0
 15  9  1  0  0  0  0
 16  1  1  0  0  0  0
 17  8  2  0  0  0  0
 17 10  1  0  0  0  0
 18  6  1  0  0  0  0
 19 16  1  0  0  0  0
 19  7  1  0  0  0  0
 20 29  1  1  0  0  0
 21  4  1  0  0  0  0
 22 13  1  0  0  0  0
 22 21  1  0  0  0  0
 23 14  2  0  0  0  0
 24  7  2  0  0  0  0
 24  2  1  0  0  0  0
 25  5  1  0  0  0  0
 27  2  2  0  0  0  0
 27 14  1  0  0  0  0
 28 23  1  0  0  0  0
 29 30  1  0  0  0  0
 30 32  1  0  0  0  0
 31 30  1  0  0  0  0
M  END
>  <MODEL>
7

>  <REMARK>
 VINA RESULT:      -8.2      1.739      2.202
  Name = 
  2 active torsions:
  status: ('A' for Active; 'I' for Inactive)
    1  A    between atoms: C_20  and  C_29
    2  A    between atoms: C_29  and  C_30
                            x       y       z     vdW  Elec       q    Type
                         _______ _______ _______ _____ _____    ______ ____

>  <TORSDO>
F 2

$$$$
=
 OpenBabel11112416373D

 32 37  0  0  1  0  0  0  0  0999 V2000
  195.5110  175.1900  146.0970 C   0  0  0  0  0  2  0  0  0  0  0  0
  190.1600  176.3480  144.9210 C   0  0  0  0  0  0  0  0  0  0  0  0
  188.7460  174.6190  140.5230 C   0  0  0  0  0  2  0  0  0  0  0  0
  187.3460  174.4560  141.0810 C   0  0  0  0  0  2  0  0  0  0  0  0
  188.5470  177.4820  146.5090 C   0  0  0  0  0  0  0  0  0  0  0  0
  187.2730  177.8220  146.7210 C   0  0  0  0  0  0  0  0  0  0  0  0
  192.5460  176.2500  145.4980 C   0  0  0  0  0  0  0  0  0  0  0  0
  191.7520  175.2130  143.4600 C   0  0  0  0  0  3  0  0  0  0  0  0
  184.9680  177.9480  146.2610 C   0  0  1  0  0  3  0  0  0  0  0  0
  194.1580  174.9860  143.9720 C   0  0  0  0  0  2  0  0  0  0  0  0
  189.7580  174.4330  141.6420 C   0  0  0  0  0  2  0  0  0  0  0  0
  190.4320  175.6210  143.7220 C   0  0  0  0  0  0  0  0  0  0  0  0
  189.4530  175.3080  142.8380 C   0  0  0  0  0  0  0  0  0  0  0  0
  187.7880  176.4160  144.3010 C   0  0  0  0  0  0  0  0  0  0  0  0
  185.2290  178.5800  147.6380 C   0  0  0  0  0  3  0  0  0  0  0  0
  194.9370  176.6050  146.1410 C   0  0  0  0  0  2  0  0  0  0  0  0
  192.8020  175.5110  144.3250 C   0  0  0  0  0  0  0  0  0  0  0  0
  186.7400  178.5210  147.9090 C   0  0  0  0  0  3  0  0  0  0  0  0
  193.5400  176.6040  146.4230 O   0  0  0  0  0  0  0  0  0  0  0  0
  194.7550  174.2450  145.1640 C   0  0  1  0  0  3  0  0  0  0  0  0
  187.0660  175.6050  142.0380 C   0  0  0  0  0  2  0  0  0  0  0  0
  188.0870  175.7050  143.0900 N   0  0  0  0  0  0  0  0  0  0  0  0
  186.5310  176.7890  144.5860 C   0  0  0  0  0  3  0  0  0  0  0  0
  191.2360  176.6400  145.7770 C   0  0  0  0  0  3  0  0  0  0  0  0
  189.5040  177.8150  147.4660 O   0  0  0  0  0  1  0  0  0  0  0  0
  184.4020  179.0000  145.3260 C   0  0  0  0  0  1  0  0  0  0  0  0
  188.8990  176.7420  145.2450 C   0  0  0  0  0  0  0  0  0  0  0  0
  186.2650  177.5110  145.7900 N   0  0  0  0  0  0  0  0  0  0  0  0
  195.6960  173.1460  144.6960 C   0  0  0  0  0  2  0  0  0  0  0  0
  195.8630  172.0750  145.7630 C   0  0  0  0  0  3  0  0  0  0  0  0
  194.6770  171.1290  145.7560 C   0  0  0  0  0  1  0  0  0  0  0  0
  197.1250  171.2860  145.4840 C   0  0  0  0  0  1  0  0  0  0  0  0
  1 16  1  0  0  0  0
  2 27  2  0  0  0  0
  2 24  1  0  0  0  0
  3  4  1  0  0  0  0
  3 11  1  0  0  0  0
  4 21  1  0  0  0  0
  5  6  2  0  0  0  0
  5 25  1  0  0  0  0
  6 18  1  0  0  0  0
  7 24  2  0  0  0  0
  7 19  1  0  0  0  0
  8 12  1  0  0  0  0
  8 17  2  0  0  0  0
  9 26  1  6  0  0  0
  9 15  1  0  0  0  0
 10 17  1  0  0  0  0
 10 20  1  0  0  0  0
 11 13  1  0  0  0  0
 12  2  1  0  0  0  0
 13 22  1  0  0  0  0
 13 12  2  0  0  0  0
 14 23  2  0  0  0  0
 14 27  1  0  0  0  0
 15 18  2  0  0  0  0
 16 19  1  0  0  0  0
 17  7  1  0  0  0  0
 20 29  1  6  0  0  0
 20  1  1  0  0  0  0
 21 22  1  0  0  0  0
 22 14  1  0  0  0  0
 23 28  1  0  0  0  0
 27  5  1  0  0  0  0
 28  9  1  0  0  0  0
 28  6  1  0  0  0  0
 29 30  1  0  0  0  0
 31 30  1  0  0  0  0
 32 30  1  0  0  0  0
M  END
>  <MODEL>
8

>  <REMARK>
 VINA RESULT:      -8.0      3.047      8.643
  Name = 
  2 active torsions:
  status: ('A' for Active; 'I' for Inactive)
    1  A    between atoms: C_20  and  C_29
    2  A    between atoms: C_29  and  C_30
                            x       y       z     vdW  Elec       q    Type
                         _______ _______ _______ _____ _____    ______ ____

>  <TORSDO>
F 2

$$$$
=
 OpenBabel11112416373D

 32 37  0  0  1  0  0  0  0  0999 V2000
  186.6670  178.3160  146.3080 C   0  0  0  0  0  2  0  0  0  0  0  0
  190.8720  175.7780  143.6180 C   0  0  0  0  0  0  0  0  0  0  0  0
  189.3120  172.6640  140.1240 C   0  0  0  0  0  2  0  0  0  0  0  0
  190.5760  172.9670  139.3450 C   0  0  0  0  0  2  0  0  0  0  0  0
  193.3280  176.2650  143.9940 C   0  0  0  0  0  0  0  0  0  0  0  0
  194.5690  176.0450  143.5550 C   0  0  0  0  0  0  0  0  0  0  0  0
  189.2070  176.7450  145.1440 C   0  0  0  0  0  0  0  0  0  0  0  0
  188.4870  175.3940  143.2680 C   0  0  0  0  0  3  0  0  0  0  0  0
  196.2340  175.1780  142.1340 C   0  0  1  0  0  3  0  0  0  0  0  0
  186.7210  176.3750  144.6900 C   0  0  0  0  0  2  0  0  0  0  0  0
  188.9180  173.8870  140.9370 C   0  0  0  0  0  2  0  0  0  0  0  0
  189.8170  175.1750  142.8670 C   0  0  0  0  0  0  0  0  0  0  0  0
  190.0630  174.4080  141.7770 C   0  0  0  0  0  0  0  0  0  0  0  0
  192.4940  174.7920  142.0640 C   0  0  0  0  0  0  0  0  0  0  0  0
  196.9050  176.0740  143.1870 C   0  0  0  0  0  3  0  0  0  0  0  0
  187.7690  177.5410  147.0290 C   0  0  0  0  0  2  0  0  0  0  0  0
  188.1700  176.1670  144.3820 C   0  0  0  0  0  0  0  0  0  0  0  0
  195.8120  176.6050  144.1260 C   0  0  0  0  0  3  0  0  0  0  0  0
  188.9850  177.5300  146.2850 O   0  0  0  0  0  0  0  0  0  0  0  0
  186.4350  177.8620  144.8660 C   0  0  1  0  0  3  0  0  0  0  0  0
  191.7210  173.1520  140.3280 C   0  0  0  0  0  2  0  0  0  0  0  0
  191.4200  174.1760  141.3380 N   0  0  0  0  0  0  0  0  0  0  0  0
  193.7690  174.6200  141.6820 C   0  0  0  0  0  3  0  0  0  0  0  0
  190.5280  176.5500  144.7410 C   0  0  0  0  0  3  0  0  0  0  0  0
  193.1390  177.0810  145.1080 O   0  0  0  0  0  1  0  0  0  0  0  0
  196.7460  173.7580  142.2850 C   0  0  0  0  0  1  0  0  0  0  0  0
  192.1760  175.6280  143.2600 C   0  0  0  0  0  0  0  0  0  0  0  0
  194.8190  175.2310  142.4340 N   0  0  0  0  0  0  0  0  0  0  0  0
  185.0040  178.1850  144.4660 C   0  0  0  0  0  2  0  0  0  0  0  0
  184.9550  178.8810  143.1140 C   0  0  0  0  0  3  0  0  0  0  0  0
  186.2560  178.6710  142.3620 C   0  0  0  0  0  1  0  0  0  0  0  0
  183.8160  178.3070  142.2990 C   0  0  0  0  0  1  0  0  0  0  0  0
  1 16  1  0  0  0  0
  2 24  1  0  0  0  0
  3 11  1  0  0  0  0
  4  3  1  0  0  0  0
  4 21  1  0  0  0  0
  5 25  1  0  0  0  0
  6  5  2  0  0  0  0
  6 18  1  0  0  0  0
  7 19  1  0  0  0  0
  8 17  2  0  0  0  0
  9 26  1  1  0  0  0
  9 28  1  0  0  0  0
  9 15  1  0  0  0  0
 10 20  1  0  0  0  0
 11 13  1  0  0  0  0
 12  8  1  0  0  0  0
 12  2  1  0  0  0  0
 13 12  2  0  0  0  0
 14 27  1  0  0  0  0
 15 18  2  0  0  0  0
 17 10  1  0  0  0  0
 17  7  1  0  0  0  0
 19 16  1  0  0  0  0
 20 29  1  1  0  0  0
 20  1  1  0  0  0  0
 21 22  1  0  0  0  0
 22 13  1  0  0  0  0
 22 14  1  0  0  0  0
 23 14  2  0  0  0  0
 23 28  1  0  0  0  0
 24  7  2  0  0  0  0
 27  2  2  0  0  0  0
 27  5  1  0  0  0  0
 28  6  1  0  0  0  0
 30 29  1  0  0  0  0
 31 30  1  0  0  0  0
 32 30  1  0  0  0  0
M  END
>  <MODEL>
9

>  <REMARK>
 VINA RESULT:      -8.0      2.821      4.934
  Name = 
  2 active torsions:
  status: ('A' for Active; 'I' for Inactive)
    1  A    between atoms: C_20  and  C_29
    2  A    between atoms: C_29  and  C_30
                            x       y       z     vdW  Elec       q    Type
                         _______ _______ _______ _____ _____    ______ ____

>  <TORSDO>
F 2

$$$$
