=
 OpenBabel11112417103D

 37 43  0  0  1  0  0  0  0  0999 V2000
  192.1570  175.2930  145.3020 C   0  0  0  0  0  2  0  0  0  0  0  0
  191.6960  171.1710  142.3840 C   0  0  0  0  0  0  0  0  0  0  0  0
  189.3490  174.6490  142.3540 C   0  0  0  0  0  0  0  0  0  0  0  0
  192.8650  175.8180  146.5500 C   0  0  2  0  0  3  0  0  0  0  0  0
  187.9860  175.3230  145.5710 O   0  0  0  0  0  0  0  0  0  0  0  0
  190.0720  172.7040  141.1410 C   0  0  0  0  0  0  0  0  0  0  0  0
  189.5780  175.2290  143.7230 C   0  0  1  0  0  3  0  0  0  0  0  0
  190.6040  177.0910  146.8640 C   0  0  2  0  0  3  0  0  0  0  0  0
  190.0780  173.4990  142.2730 C   0  0  0  0  0  0  0  0  0  0  0  0
  188.4390  175.9910  144.4250 C   0  0  1  0  0  3  0  0  0  0  0  0
  189.3350  173.1080  140.0680 N   0  0  0  0  0  0  0  0  0  0  0  0
  192.0570  176.8800  147.3180 C   0  0  0  0  0  2  0  0  0  0  0  0
  190.6780  173.1240  143.4890 N   0  0  0  0  0  0  0  0  0  0  0  0
  193.0240  171.8410  142.0770 C   0  0  0  0  0  1  0  0  0  0  0  0
  187.6090  176.2190  141.3120 C   0  0  0  0  0  2  0  0  0  0  0  0
  188.6010  174.2650  140.1020 C   0  0  0  0  0  3  0  0  0  0  0  0
  191.1160  171.7460  143.6940 C   0  0  0  0  0  2  0  0  0  0  0  0
  189.7190  175.9390  147.1230 N   0  0  1  0  0  0  0  0  0  0  0  0
  188.3390  176.1500  146.6510 C   0  0  0  0  0  2  0  0  0  0  0  0
  188.5850  175.0770  141.2530 C   0  0  0  0  0  0  0  0  0  0  0  0
  190.0950  173.9960  144.5020 C   0  0  1  0  0  3  0  0  0  0  0  0
  190.7340  171.3510  141.1850 C   0  0  0  0  0  2  0  0  0  0  0  0
  187.3060  176.4560  143.5100 C   0  0  2  0  0  3  0  0  0  0  0  0
  191.9460  169.6900  142.5800 C   0  0  0  0  0  1  0  0  0  0  0  0
  190.2670  174.5780  146.9610 C   0  0  0  0  0  2  0  0  0  0  0  0
  190.5380  177.5350  145.5530 F   0  0  0  0  0  0  0  0  0  0  0  0
  191.0410  174.3060  145.6560 C   0  0  2  0  0  3  0  0  0  0  0  0
  187.8580  177.0840  142.3850 O   0  0  0  0  0  0  0  0  0  0  0  0
  185.5230  176.9420  145.2300 C   0  0  0  0  0  3  0  0  0  0  0  0
  186.3840  177.3980  144.2210 C   0  0  0  0  0  0  0  0  0  0  0  0
  186.3660  178.7470  143.8520 C   0  0  0  0  0  3  0  0  0  0  0  0
  185.4850  180.9440  144.1330 F   0  0  0  0  0  0  0  0  0  0  0  0
  184.6440  179.1810  145.4990 C   0  0  0  0  0  3  0  0  0  0  0  0
  185.4980  179.6380  144.4910 C   0  0  0  0  0  0  0  0  0  0  0  0
  184.6560  177.8320  145.8680 C   0  0  0  0  0  3  0  0  0  0  0  0
  195.2060  175.3380  146.0860 N   0  0  0  0  0  1  0  0  0  0  0  0
  194.2170  176.3980  146.1810 C   0  0  0  0  0  2  0  0  0  0  0  0
  1  4  1  0  0  0  0
  2 24  1  0  0  0  0
  2 17  1  0  0  0  0
  4 37  1  6  0  0  0
  4 12  1  0  0  0  0
  5 19  1  0  0  0  0
  6 22  1  0  0  0  0
  6  9  2  0  0  0  0
  7  3  1  6  0  0  0
  7 10  1  0  0  0  0
  7 21  1  0  0  0  0
  8 26  1  6  0  0  0
  8 18  1  0  0  0  0
  8 12  1  0  0  0  0
  9  3  1  0  0  0  0
  9 13  1  0  0  0  0
 10  5  1  1  0  0  0
 11 16  2  0  0  0  0
 11  6  1  0  0  0  0
 13 17  1  0  0  0  0
 14  2  1  0  0  0  0
 15 28  1  0  0  0  0
 16 20  1  0  0  0  0
 18 19  1  6  0  0  0
 20 15  1  0  0  0  0
 20  3  2  0  0  0  0
 21 13  1  6  0  0  0
 21 27  1  0  0  0  0
 22  2  1  0  0  0  0
 23 30  1  1  0  0  0
 23 10  1  0  0  0  0
 25 18  1  0  0  0  0
 27  1  1  6  0  0  0
 27 25  1  0  0  0  0
 28 23  1  0  0  0  0
 29 35  1  0  0  0  0
 30 29  2  0  0  0  0
 31 30  1  0  0  0  0
 31 34  2  0  0  0  0
 32 34  1  0  0  0  0
 33 35  2  0  0  0  0
 34 33  1  0  0  0  0
 36 37  1  0  0  0  0
M  END
>  <MODEL>
1

>  <REMARK>
 VINA RESULT:      -9.6      0.000      0.000
  Name = 
  2 active torsions:
  status: ('A' for Active; 'I' for Inactive)
    1  A    between atoms: C_4  and  C_37
    2  A    between atoms: C_23  and  C_30
                            x       y       z     vdW  Elec       q    Type
                         _______ _______ _______ _____ _____    ______ ____

>  <TORSDO>
F 2

$$$$
=
 OpenBabel11112417103D

 37 43  0  0  1  0  0  0  0  0999 V2000
  192.2330  175.4470  144.5540 C   0  0  0  0  0  2  0  0  0  0  0  0
  191.0720  172.3480  140.7120 C   0  0  0  0  0  0  0  0  0  0  0  0
  188.8090  175.5240  142.2610 C   0  0  0  0  0  0  0  0  0  0  0  0
  193.2160  175.6250  145.7100 C   0  0  2  0  0  3  0  0  0  0  0  0
  188.2400  175.1310  145.7510 O   0  0  0  0  0  0  0  0  0  0  0  0
  189.2140  174.0720  140.3870 C   0  0  0  0  0  0  0  0  0  0  0  0
  189.3550  175.6880  143.6520 C   0  0  1  0  0  3  0  0  0  0  0  0
  191.1000  176.6020  146.8920 C   0  0  2  0  0  3  0  0  0  0  0  0
  189.4890  174.4980  141.6750 C   0  0  0  0  0  0  0  0  0  0  0  0
  188.4180  176.1350  144.7890 C   0  0  1  0  0  3  0  0  0  0  0  0
  188.2490  174.7270  139.6800 N   0  0  0  0  0  0  0  0  0  0  0  0
  192.6180  176.3600  146.9230 C   0  0  0  0  0  2  0  0  0  0  0  0
  190.3540  173.8190  142.5540 N   0  0  0  0  0  0  0  0  0  0  0  0
  192.2960  173.1620  140.3300 C   0  0  0  0  0  1  0  0  0  0  0  0
  186.8850  177.2160  142.1600 C   0  0  0  0  0  2  0  0  0  0  0  0
  187.5520  175.7740  140.2260 C   0  0  0  0  0  3  0  0  0  0  0  0
  190.8180  172.4730  142.2290 C   0  0  0  0  0  2  0  0  0  0  0  0
  190.2930  175.3710  146.9850 N   0  0  1  0  0  0  0  0  0  0  0  0
  188.8420  175.6240  146.9210 C   0  0  0  0  0  2  0  0  0  0  0  0
  187.8110  176.2070  141.5410 C   0  0  0  0  0  0  0  0  0  0  0  0
  190.0310  174.3150  143.8860 C   0  0  1  0  0  3  0  0  0  0  0  0
  189.8570  172.8110  139.8720 C   0  0  0  0  0  2  0  0  0  0  0  0
  187.1060  176.7760  144.3360 C   0  0  2  0  0  3  0  0  0  0  0  0
  191.3500  170.8940  140.3900 C   0  0  0  0  0  1  0  0  0  0  0  0
  190.7770  174.1570  146.3010 C   0  0  0  0  0  2  0  0  0  0  0  0
  190.7330  177.4080  145.8270 F   0  0  0  0  0  0  0  0  0  0  0  0
  191.2220  174.3310  144.8350 C   0  0  2  0  0  3  0  0  0  0  0  0
  187.3840  177.7410  143.3580 O   0  0  0  0  0  0  0  0  0  0  0  0
  184.9840  177.3620  145.5710 C   0  0  0  0  0  3  0  0  0  0  0  0
  186.3830  177.4060  145.4860 C   0  0  0  0  0  0  0  0  0  0  0  0
  187.1170  178.0690  146.4750 C   0  0  0  0  0  3  0  0  0  0  0  0
  187.1720  179.3220  148.5030 F   0  0  0  0  0  0  0  0  0  0  0  0
  185.0640  178.6320  147.6300 C   0  0  0  0  0  3  0  0  0  0  0  0
  186.4580  178.6810  147.5460 C   0  0  0  0  0  0  0  0  0  0  0  0
  184.3260  177.9730  146.6420 C   0  0  0  0  0  3  0  0  0  0  0  0
  194.7200  177.4950  146.1200 N   0  0  0  0  0  1  0  0  0  0  0  0
  194.4490  176.3730  145.2390 C   0  0  0  0  0  2  0  0  0  0  0  0
  1  4  1  0  0  0  0
  2 17  1  0  0  0  0
  4 37  1  6  0  0  0
  4 12  1  0  0  0  0
  5 19  1  0  0  0  0
  6  9  2  0  0  0  0
  7  3  1  6  0  0  0
  7 21  1  0  0  0  0
  7 10  1  0  0  0  0
  8 26  1  6  0  0  0
  8 12  1  0  0  0  0
  8 18  1  0  0  0  0
  9  3  1  0  0  0  0
  9 13  1  0  0  0  0
 10  5  1  6  0  0  0
 11 16  2  0  0  0  0
 11  6  1  0  0  0  0
 14  2  1  0  0  0  0
 15 28  1  0  0  0  0
 16 20  1  0  0  0  0
 17 13  1  0  0  0  0
 18 25  1  6  0  0  0
 19 18  1  0  0  0  0
 20 15  1  0  0  0  0
 20  3  2  0  0  0  0
 21 13  1  6  0  0  0
 21 27  1  0  0  0  0
 22  6  1  0  0  0  0
 22  2  1  0  0  0  0
 23 10  1  0  0  0  0
 23 30  1  1  0  0  0
 24  2  1  0  0  0  0
 27  1  1  1  0  0  0
 27 25  1  0  0  0  0
 28 23  1  0  0  0  0
 29 35  1  0  0  0  0
 30 29  2  0  0  0  0
 30 31  1  0  0  0  0
 31 34  2  0  0  0  0
 34 33  1  0  0  0  0
 34 32  1  0  0  0  0
 35 33  2  0  0  0  0
 37 36  1  0  0  0  0
M  END
>  <MODEL>
2

>  <REMARK>
 VINA RESULT:      -9.5      1.506      1.719
  Name = 
  2 active torsions:
  status: ('A' for Active; 'I' for Inactive)
    1  A    between atoms: C_4  and  C_37
    2  A    between atoms: C_23  and  C_30
                            x       y       z     vdW  Elec       q    Type
                         _______ _______ _______ _____ _____    ______ ____

>  <TORSDO>
F 2

$$$$
=
 OpenBabel11112417103D

 37 43  0  0  1  0  0  0  0  0999 V2000
  191.2940  172.7440  142.5420 C   0  0  0  0  0  2  0  0  0  0  0  0
  195.7480  175.1220  143.0030 C   0  0  0  0  0  0  0  0  0  0  0  0
  192.2120  175.7930  145.1590 C   0  0  0  0  0  0  0  0  0  0  0  0
  190.5240  171.7830  141.6370 C   0  0  2  0  0  3  0  0  0  0  0  0
  189.4800  176.4830  142.9870 O   0  0  0  0  0  0  0  0  0  0  0  0
  194.6010  176.0510  145.0890 C   0  0  0  0  0  0  0  0  0  0  0  0
  191.1480  175.2330  144.2560 C   0  0  1  0  0  3  0  0  0  0  0  0
  188.5050  173.2710  142.3720 C   0  0  2  0  0  3  0  0  0  0  0  0
  193.4100  175.6220  144.5310 C   0  0  0  0  0  0  0  0  0  0  0  0
  189.7550  175.8870  144.2250 C   0  0  1  0  0  3  0  0  0  0  0  0
  194.5660  176.6360  146.3200 N   0  0  0  0  0  0  0  0  0  0  0  0
  189.0010  172.0070  141.6510 C   0  0  0  0  0  2  0  0  0  0  0  0
  193.2940  175.1370  143.2150 N   0  0  0  0  0  0  0  0  0  0  0  0
  195.9300  173.6660  143.3940 C   0  0  0  0  0  1  0  0  0  0  0  0
  190.8850  176.7960  147.1110 C   0  0  0  0  0  2  0  0  0  0  0  0
  193.3850  176.8140  146.9930 C   0  0  0  0  0  3  0  0  0  0  0  0
  194.4000  175.3000  142.2750 C   0  0  0  0  0  2  0  0  0  0  0  0
  188.8880  174.5310  141.7090 N   0  0  1  0  0  0  0  0  0  0  0  0
  188.4300  175.7300  142.4340 C   0  0  0  0  0  2  0  0  0  0  0  0
  192.1640  176.3960  146.4290 C   0  0  0  0  0  0  0  0  0  0  0  0
  191.8750  175.2170  142.8890 C   0  0  1  0  0  3  0  0  0  0  0  0
  195.8600  176.0150  144.2630 C   0  0  0  0  0  2  0  0  0  0  0  0
  189.4350  176.7920  145.4150 C   0  0  2  0  0  3  0  0  0  0  0  0
  196.8620  175.4990  142.0490 C   0  0  0  0  0  1  0  0  0  0  0  0
  190.2160  174.6180  141.0720 C   0  0  0  0  0  2  0  0  0  0  0  0
  188.8300  173.2510  143.7190 F   0  0  0  0  0  0  0  0  0  0  0  0
  191.4110  174.1380  141.9190 C   0  0  2  0  0  3  0  0  0  0  0  0
  189.7690  176.1210  146.6000 O   0  0  0  0  0  0  0  0  0  0  0  0
  187.0490  176.4160  146.1490 C   0  0  0  0  0  3  0  0  0  0  0  0
  187.9870  177.1740  145.4340 C   0  0  0  0  0  0  0  0  0  0  0  0
  187.5640  178.2890  144.7030 C   0  0  0  0  0  3  0  0  0  0  0  0
  185.8080  179.7320  143.9850 F   0  0  0  0  0  0  0  0  0  0  0  0
  185.2810  177.8950  145.4100 C   0  0  0  0  0  3  0  0  0  0  0  0
  186.2130  178.6510  144.6920 C   0  0  0  0  0  0  0  0  0  0  0  0
  185.6990  176.7770  146.1380 C   0  0  0  0  0  3  0  0  0  0  0  0
  190.8160  169.4960  140.8520 N   0  0  0  0  0  1  0  0  0  0  0  0
  190.8150  170.3470  142.0310 C   0  0  0  0  0  2  0  0  0  0  0  0
  2 14  1  0  0  0  0
  2 22  1  0  0  0  0
  3 20  1  0  0  0  0
  4 12  1  0  0  0  0
  4 37  1  1  0  0  0
  4  1  1  0  0  0  0
  6 11  2  0  0  0  0
  7  3  1  1  0  0  0
  8 26  1  1  0  0  0
  9  6  1  0  0  0  0
  9  3  2  0  0  0  0
 10  5  1  6  0  0  0
 10  7  1  0  0  0  0
 10 23  1  0  0  0  0
 11 16  1  0  0  0  0
 12  8  1  0  0  0  0
 13  9  1  0  0  0  0
 17  2  1  0  0  0  0
 17 13  1  0  0  0  0
 18 25  1  1  0  0  0
 18  8  1  0  0  0  0
 18 19  1  0  0  0  0
 19  5  1  0  0  0  0
 20 16  2  0  0  0  0
 20 15  1  0  0  0  0
 21 13  1  1  0  0  0
 21  7  1  0  0  0  0
 22  6  1  0  0  0  0
 23 30  1  1  0  0  0
 23 28  1  0  0  0  0
 24  2  1  0  0  0  0
 27 25  1  1  0  0  0
 27  1  1  0  0  0  0
 27 21  1  0  0  0  0
 28 15  1  0  0  0  0
 30 29  2  0  0  0  0
 31 30  1  0  0  0  0
 32 34  1  0  0  0  0
 33 35  2  0  0  0  0
 34 31  2  0  0  0  0
 34 33  1  0  0  0  0
 35 29  1  0  0  0  0
 36 37  1  0  0  0  0
M  END
>  <MODEL>
3

>  <REMARK>
 VINA RESULT:      -9.1      2.227      5.276
  Name = 
  2 active torsions:
  status: ('A' for Active; 'I' for Inactive)
    1  A    between atoms: C_4  and  C_37
    2  A    between atoms: C_23  and  C_30
                            x       y       z     vdW  Elec       q    Type
                         _______ _______ _______ _____ _____    ______ ____

>  <TORSDO>
F 2

$$$$
=
 OpenBabel11112417103D

 37 43  0  0  1  0  0  0  0  0999 V2000
  192.7740  171.7790  141.4520 C   0  0  0  0  0  2  0  0  0  0  0  0
  196.2890  174.8720  139.5060 C   0  0  0  0  0  0  0  0  0  0  0  0
  194.2190  175.2520  143.1360 C   0  0  0  0  0  0  0  0  0  0  0  0
  191.8710  170.5970  141.0980 C   0  0  2  0  0  3  0  0  0  0  0  0
  190.6970  175.2090  142.6320 O   0  0  0  0  0  0  0  0  0  0  0  0
  196.1550  175.8730  141.8540 C   0  0  0  0  0  0  0  0  0  0  0  0
  192.9880  174.4160  142.9180 C   0  0  1  0  0  3  0  0  0  0  0  0
  190.2220  171.8300  142.7060 C   0  0  2  0  0  3  0  0  0  0  0  0
  194.9590  175.1910  141.9930 C   0  0  0  0  0  0  0  0  0  0  0  0
  191.6600  174.8320  143.5780 C   0  0  1  0  0  3  0  0  0  0  0  0
  196.6130  176.6020  142.9110 N   0  0  0  0  0  0  0  0  0  0  0  0
  190.5430  170.5770  141.8750 C   0  0  0  0  0  2  0  0  0  0  0  0
  194.3120  174.5250  140.9350 N   0  0  0  0  0  0  0  0  0  0  0  0
  196.9300  173.5260  139.7990 C   0  0  0  0  0  1  0  0  0  0  0  0
  193.8520  176.2800  145.4570 C   0  0  0  0  0  2  0  0  0  0  0  0
  195.9080  176.6770  144.0840 C   0  0  0  0  0  3  0  0  0  0  0  0
  194.7530  174.7370  139.5590 C   0  0  0  0  0  2  0  0  0  0  0  0
  189.9640  173.0370  141.8980 N   0  0  1  0  0  0  0  0  0  0  0  0
  189.6890  174.2330  142.7150 C   0  0  0  0  0  2  0  0  0  0  0  0
  194.6810  176.0010  144.2340 C   0  0  0  0  0  0  0  0  0  0  0  0
  192.9340  174.3360  141.3740 C   0  0  1  0  0  3  0  0  0  0  0  0
  196.8220  175.9290  140.5040 C   0  0  0  0  0  2  0  0  0  0  0  0
  191.7910  175.8230  144.7350 C   0  0  2  0  0  3  0  0  0  0  0  0
  196.6860  175.2910  138.1060 C   0  0  0  0  0  1  0  0  0  0  0  0
  190.7570  173.2480  140.6720 C   0  0  0  0  0  2  0  0  0  0  0  0
  191.1630  172.0390  143.7000 F   0  0  0  0  0  0  0  0  0  0  0  0
  192.2830  173.0790  140.8100 C   0  0  2  0  0  3  0  0  0  0  0  0
  192.7930  175.3760  145.6070 O   0  0  0  0  0  0  0  0  0  0  0  0
  189.6730  177.0870  145.2710 C   0  0  0  0  0  3  0  0  0  0  0  0
  190.4970  175.9700  145.4740 C   0  0  0  0  0  0  0  0  0  0  0  0
  190.1220  174.9910  146.3990 C   0  0  0  0  0  3  0  0  0  0  0  0
  188.5660  174.1690  148.0080 F   0  0  0  0  0  0  0  0  0  0  0  0
  188.1050  176.2320  146.9060 C   0  0  0  0  0  3  0  0  0  0  0  0
  188.9270  175.1200  147.1130 C   0  0  0  0  0  0  0  0  0  0  0  0
  188.4790  177.2160  145.9850 C   0  0  0  0  0  3  0  0  0  0  0  0
  192.9970  169.1840  142.7310 N   0  0  0  0  0  1  0  0  0  0  0  0
  192.6030  169.2890  141.3360 C   0  0  0  0  0  2  0  0  0  0  0  0
  2 17  1  0  0  0  0
  2 14  1  0  0  0  0
  2 22  1  0  0  0  0
  3 20  1  0  0  0  0
  4 37  1  1  0  0  0
  4  1  1  0  0  0  0
  4 12  1  0  0  0  0
  5 19  1  0  0  0  0
  6  9  1  0  0  0  0
  6 11  2  0  0  0  0
  7  3  1  6  0  0  0
  7 10  1  0  0  0  0
  8 26  1  1  0  0  0
  9  3  2  0  0  0  0
 10  5  1  6  0  0  0
 10 23  1  0  0  0  0
 11 16  1  0  0  0  0
 12  8  1  0  0  0  0
 13  9  1  0  0  0  0
 15 28  1  0  0  0  0
 16 20  2  0  0  0  0
 17 13  1  0  0  0  0
 18 25  1  1  0  0  0
 18  8  1  0  0  0  0
 18 19  1  0  0  0  0
 20 15  1  0  0  0  0
 21 13  1  6  0  0  0
 21  7  1  0  0  0  0
 22  6  1  0  0  0  0
 23 30  1  1  0  0  0
 23 28  1  0  0  0  0
 24  2  1  0  0  0  0
 27 25  1  1  0  0  0
 27 21  1  0  0  0  0
 27  1  1  0  0  0  0
 29 30  2  0  0  0  0
 29 35  1  0  0  0  0
 30 31  1  0  0  0  0
 31 34  2  0  0  0  0
 33 34  1  0  0  0  0
 34 32  1  0  0  0  0
 35 33  2  0  0  0  0
 37 36  1  0  0  0  0
M  END
>  <MODEL>
4

>  <REMARK>
 VINA RESULT:      -8.6      3.254      6.239
  Name = 
  2 active torsions:
  status: ('A' for Active; 'I' for Inactive)
    1  A    between atoms: C_4  and  C_37
    2  A    between atoms: C_23  and  C_30
                            x       y       z     vdW  Elec       q    Type
                         _______ _______ _______ _____ _____    ______ ____

>  <TORSDO>
F 2

$$$$
=
 OpenBabel11112417103D

 37 43  0  0  1  0  0  0  0  0999 V2000
  191.4590  172.7090  142.4690 C   0  0  0  0  0  2  0  0  0  0  0  0
  195.8770  175.1950  142.5440 C   0  0  0  0  0  0  0  0  0  0  0  0
  192.5190  175.7950  144.9860 C   0  0  0  0  0  0  0  0  0  0  0  0
  190.6390  171.7240  141.6370 C   0  0  2  0  0  3  0  0  0  0  0  0
  189.5980  176.4070  143.0480 O   0  0  0  0  0  0  0  0  0  0  0  0
  194.8870  176.1100  144.7150 C   0  0  0  0  0  0  0  0  0  0  0  0
  191.3970  175.2040  144.1780 C   0  0  1  0  0  3  0  0  0  0  0  0
  188.6530  173.1680  142.5320 C   0  0  2  0  0  3  0  0  0  0  0  0
  193.6640  175.6480  144.2610 C   0  0  0  0  0  0  0  0  0  0  0  0
  189.9900  175.8250  144.2620 C   0  0  1  0  0  3  0  0  0  0  0  0
  194.9420  176.7010  145.9420 N   0  0  0  0  0  0  0  0  0  0  0  0
  189.1180  171.9120  141.7770 C   0  0  0  0  0  2  0  0  0  0  0  0
  193.4490  175.1530  142.9610 N   0  0  0  0  0  0  0  0  0  0  0  0
  196.1260  173.7450  142.9240 C   0  0  0  0  0  1  0  0  0  0  0  0
  191.3370  176.7790  147.0380 C   0  0  0  0  0  2  0  0  0  0  0  0
  193.8170  176.8550  146.7100 C   0  0  0  0  0  3  0  0  0  0  0  0
  194.4690  175.3360  141.9310 C   0  0  0  0  0  2  0  0  0  0  0  0
  188.9490  174.4330  141.8330 N   0  0  1  0  0  0  0  0  0  0  0  0
  188.5240  175.6250  142.5890 C   0  0  0  0  0  2  0  0  0  0  0  0
  192.5630  176.4050  146.2540 C   0  0  0  0  0  0  0  0  0  0  0  0
  192.0070  175.1970  142.7560 C   0  0  1  0  0  3  0  0  0  0  0  0
  196.0730  176.0980  143.7860 C   0  0  0  0  0  2  0  0  0  0  0  0
  189.7500  176.7290  145.4710 C   0  0  2  0  0  3  0  0  0  0  0  0
  196.8980  175.5920  141.4980 C   0  0  0  0  0  1  0  0  0  0  0  0
  190.2160  174.5470  141.0870 C   0  0  0  0  0  2  0  0  0  0  0  0
  189.0900  173.1640  143.8460 F   0  0  0  0  0  0  0  0  0  0  0  0
  191.4900  174.1010  141.8320 C   0  0  2  0  0  3  0  0  0  0  0  0
  190.1980  176.0750  146.6260 O   0  0  0  0  0  0  0  0  0  0  0  0
  187.6690  177.9260  144.6880 C   0  0  0  0  0  3  0  0  0  0  0  0
  188.3000  177.0770  145.6090 C   0  0  0  0  0  0  0  0  0  0  0  0
  187.5740  176.5670  146.6910 C   0  0  0  0  0  3  0  0  0  0  0  0
  185.5240  176.3990  147.8960 F   0  0  0  0  0  0  0  0  0  0  0  0
  185.5980  177.7390  145.9260 C   0  0  0  0  0  3  0  0  0  0  0  0
  186.2240  176.8960  146.8480 C   0  0  0  0  0  0  0  0  0  0  0  0
  186.3210  178.2550  144.8460 C   0  0  0  0  0  3  0  0  0  0  0  0
  192.1180  170.2890  142.9350 N   0  0  0  0  0  1  0  0  0  0  0  0
  190.9960  170.2970  142.0100 C   0  0  0  0  0  2  0  0  0  0  0  0
  2 14  1  0  0  0  0
  2 22  1  0  0  0  0
  3 20  1  0  0  0  0
  4 12  1  0  0  0  0
  4 37  1  1  0  0  0
  4  1  1  0  0  0  0
  6 11  2  0  0  0  0
  7 10  1  0  0  0  0
  7  3  1  1  0  0  0
  8 26  1  1  0  0  0
  9  6  1  0  0  0  0
  9  3  2  0  0  0  0
 10  5  1  6  0  0  0
 10 23  1  0  0  0  0
 11 16  1  0  0  0  0
 12  8  1  0  0  0  0
 13  9  1  0  0  0  0
 17  2  1  0  0  0  0
 17 13  1  0  0  0  0
 18 25  1  1  0  0  0
 18  8  1  0  0  0  0
 18 19  1  0  0  0  0
 19  5  1  0  0  0  0
 20 16  2  0  0  0  0
 20 15  1  0  0  0  0
 21 13  1  1  0  0  0
 21  7  1  0  0  0  0
 22  6  1  0  0  0  0
 23 30  1  1  0  0  0
 23 28  1  0  0  0  0
 24  2  1  0  0  0  0
 27 25  1  1  0  0  0
 27  1  1  0  0  0  0
 27 21  1  0  0  0  0
 28 15  1  0  0  0  0
 29 35  2  0  0  0  0
 29 30  1  0  0  0  0
 30 31  2  0  0  0  0
 31 34  1  0  0  0  0
 33 34  2  0  0  0  0
 34 32  1  0  0  0  0
 35 33  1  0  0  0  0
 37 36  1  0  0  0  0
M  END
>  <MODEL>
5

>  <REMARK>
 VINA RESULT:      -8.6      2.470      5.385
  Name = 
  2 active torsions:
  status: ('A' for Active; 'I' for Inactive)
    1  A    between atoms: C_4  and  C_37
    2  A    between atoms: C_23  and  C_30
                            x       y       z     vdW  Elec       q    Type
                         _______ _______ _______ _____ _____    ______ ____

>  <TORSDO>
F 2

$$$$
=
 OpenBabel11112417103D

 37 43  0  0  1  0  0  0  0  0999 V2000
  194.7170  174.6490  144.1700 C   0  0  0  0  0  2  0  0  0  0  0  0
  194.1300  169.6140  144.0700 C   0  0  0  0  0  0  0  0  0  0  0  0
  191.3390  172.5740  143.0420 C   0  0  0  0  0  0  0  0  0  0  0  0
  195.6510  175.7490  144.6750 C   0  0  2  0  0  3  0  0  0  0  0  0
  190.8390  174.8690  145.7140 O   0  0  0  0  0  0  0  0  0  0  0  0
  191.9980  170.2720  142.8220 C   0  0  0  0  0  0  0  0  0  0  0  0
  191.8440  173.7890  143.7700 C   0  0  1  0  0  3  0  0  0  0  0  0
  193.3930  177.0210  145.0100 C   0  0  2  0  0  3  0  0  0  0  0  0
  192.1920  171.5470  143.3240 C   0  0  0  0  0  0  0  0  0  0  0  0
  190.8400  174.8220  144.3130 C   0  0  1  0  0  3  0  0  0  0  0  0
  190.9360  170.0540  141.9960 N   0  0  0  0  0  0  0  0  0  0  0  0
  194.9300  177.0660  145.0120 C   0  0  0  0  0  2  0  0  0  0  0  0
  193.1600  171.8680  144.2940 N   0  0  0  0  0  0  0  0  0  0  0  0
  195.1930  170.0020  143.0560 C   0  0  0  0  0  1  0  0  0  0  0  0
  189.1480  173.3720  141.9750 C   0  0  0  0  0  2  0  0  0  0  0  0
  190.0640  171.0620  141.6750 C   0  0  0  0  0  3  0  0  0  0  0  0
  193.8540  170.8030  145.0130 C   0  0  0  0  0  2  0  0  0  0  0  0
  192.8140  176.1940  146.0860 N   0  0  1  0  0  0  0  0  0  0  0  0
  191.3410  176.1390  146.0450 C   0  0  0  0  0  2  0  0  0  0  0  0
  190.2390  172.3610  142.1910 C   0  0  0  0  0  0  0  0  0  0  0  0
  192.7510  173.1520  144.8500 C   0  0  1  0  0  3  0  0  0  0  0  0
  192.8550  169.1410  143.3290 C   0  0  0  0  0  2  0  0  0  0  0  0
  189.4370  174.7440  143.7110 C   0  0  2  0  0  3  0  0  0  0  0  0
  194.6600  168.4600  144.8940 C   0  0  0  0  0  1  0  0  0  0  0  0
  193.5060  174.9480  146.4670 C   0  0  0  0  0  2  0  0  0  0  0  0
  192.8930  176.7030  143.7580 F   0  0  0  0  0  0  0  0  0  0  0  0
  193.9180  174.0150  145.3120 C   0  0  2  0  0  3  0  0  0  0  0  0
  189.5440  174.6720  142.3150 O   0  0  0  0  0  0  0  0  0  0  0  0
  188.6800  177.1290  143.3740 C   0  0  0  0  0  3  0  0  0  0  0  0
  188.6120  175.9310  144.1000 C   0  0  0  0  0  0  0  0  0  0  0  0
  187.7810  175.8480  145.2220 C   0  0  0  0  0  3  0  0  0  0  0  0
  186.2120  176.8680  146.7000 F   0  0  0  0  0  0  0  0  0  0  0  0
  187.0850  178.1430  144.8850 C   0  0  0  0  0  3  0  0  0  0  0  0
  187.0170  176.9520  145.6140 C   0  0  0  0  0  0  0  0  0  0  0  0
  187.9180  178.2320  143.7650 C   0  0  0  0  0  3  0  0  0  0  0  0
  196.1880  176.7890  142.5400 N   0  0  0  0  0  1  0  0  0  0  0  0
  196.7340  176.0270  143.6500 C   0  0  0  0  0  2  0  0  0  0  0  0
  1  4  1  0  0  0  0
  2 24  1  0  0  0  0
  2 17  1  0  0  0  0
  3  9  1  0  0  0  0
  4 37  1  6  0  0  0
  4 12  1  0  0  0  0
  5 19  1  0  0  0  0
  6  9  2  0  0  0  0
  6 22  1  0  0  0  0
  7  3  1  1  0  0  0
  7 10  1  0  0  0  0
  7 21  1  0  0  0  0
  8 26  1  6  0  0  0
  8 12  1  0  0  0  0
  8 18  1  0  0  0  0
  9 13  1  0  0  0  0
 10  5  1  1  0  0  0
 11  6  1  0  0  0  0
 13 17  1  0  0  0  0
 14  2  1  0  0  0  0
 15 20  1  0  0  0  0
 15 28  1  0  0  0  0
 16 11  2  0  0  0  0
 16 20  1  0  0  0  0
 18 19  1  6  0  0  0
 18 25  1  0  0  0  0
 20  3  2  0  0  0  0
 21 13  1  6  0  0  0
 21 27  1  0  0  0  0
 22  2  1  0  0  0  0
 23 30  1  6  0  0  0
 23 10  1  0  0  0  0
 27  1  1  6  0  0  0
 27 25  1  0  0  0  0
 28 23  1  0  0  0  0
 29 35  2  0  0  0  0
 29 30  1  0  0  0  0
 30 31  2  0  0  0  0
 31 34  1  0  0  0  0
 33 34  2  0  0  0  0
 34 32  1  0  0  0  0
 35 33  1  0  0  0  0
 36 37  1  0  0  0  0
M  END
>  <MODEL>
6

>  <REMARK>
 VINA RESULT:      -8.2      2.295      3.323
  Name = 
  2 active torsions:
  status: ('A' for Active; 'I' for Inactive)
    1  A    between atoms: C_4  and  C_37
    2  A    between atoms: C_23  and  C_30
                            x       y       z     vdW  Elec       q    Type
                         _______ _______ _______ _____ _____    ______ ____

>  <TORSDO>
F 2

$$$$
=
 OpenBabel11112417103D

 37 43  0  0  1  0  0  0  0  0999 V2000
  191.0810  175.7410  145.5160 C   0  0  0  0  0  2  0  0  0  0  0  0
  187.3450  177.3050  142.4660 C   0  0  0  0  0  0  0  0  0  0  0  0
  190.4140  174.5720  141.6210 C   0  0  0  0  0  0  0  0  0  0  0  0
  191.7640  176.0470  146.8490 C   0  0  2  0  0  3  0  0  0  0  0  0
  193.6200  175.9990  142.2060 O   0  0  0  0  0  0  0  0  0  0  0  0
  188.2270  175.3810  141.0340 C   0  0  0  0  0  0  0  0  0  0  0  0
  191.4720  174.9210  142.6310 C   0  0  1  0  0  3  0  0  0  0  0  0
  193.8870  175.2820  145.5320 C   0  0  2  0  0  3  0  0  0  0  0  0
  189.3660  175.4220  141.8190 C   0  0  0  0  0  0  0  0  0  0  0  0
  192.9580  174.7650  142.2600 C   0  0  1  0  0  3  0  0  0  0  0  0
  188.1480  174.4360  140.0550 N   0  0  0  0  0  0  0  0  0  0  0  0
  193.2580  175.6810  146.8770 C   0  0  0  0  0  2  0  0  0  0  0  0
  189.6310  176.4340  142.7610 N   0  0  0  0  0  0  0  0  0  0  0  0
  186.7370  176.5460  143.6330 C   0  0  0  0  0  1  0  0  0  0  0  0
  191.5120  172.7430  140.1980 C   0  0  0  0  0  2  0  0  0  0  0  0
  189.1720  173.5520  139.8320 C   0  0  0  0  0  3  0  0  0  0  0  0
  188.8160  177.6470  142.7790 C   0  0  0  0  0  2  0  0  0  0  0  0
  193.9690  176.3850  144.5560 N   0  0  1  0  0  0  0  0  0  0  0  0
  194.5460  175.9730  143.2640 C   0  0  0  0  0  2  0  0  0  0  0  0
  190.3440  173.5930  140.6130 C   0  0  0  0  0  0  0  0  0  0  0  0
  191.0620  176.3590  143.0290 C   0  0  1  0  0  3  0  0  0  0  0  0
  187.1960  176.4710  141.1700 C   0  0  0  0  0  2  0  0  0  0  0  0
  193.2360  173.8780  141.0460 C   0  0  2  0  0  3  0  0  0  0  0  0
  186.5790  178.6000  142.2930 C   0  0  0  0  0  1  0  0  0  0  0  0
  192.8630  177.3610  144.5000 C   0  0  0  0  0  2  0  0  0  0  0  0
  193.2960  174.1440  145.0090 F   0  0  0  0  0  0  0  0  0  0  0  0
  191.4390  176.7750  144.4450 C   0  0  2  0  0  3  0  0  0  0  0  0
  192.5110  172.6850  141.1780 O   0  0  0  0  0  0  0  0  0  0  0  0
  195.3340  172.6930  141.7990 C   0  0  0  0  0  3  0  0  0  0  0  0
  194.6970  173.5770  140.9160 C   0  0  0  0  0  0  0  0  0  0  0  0
  195.4390  174.2100  139.9130 C   0  0  0  0  0  3  0  0  0  0  0  0
  197.5240  174.5710  138.8140 F   0  0  0  0  0  0  0  0  0  0  0  0
  197.4400  173.0720  140.6670 C   0  0  0  0  0  3  0  0  0  0  0  0
  196.8080  173.9570  139.7870 C   0  0  0  0  0  0  0  0  0  0  0  0
  196.7030  172.4410  141.6730 C   0  0  0  0  0  3  0  0  0  0  0  0
  189.7180  174.9360  147.5640 N   0  0  0  0  0  1  0  0  0  0  0  0
  191.0560  175.3230  147.9790 C   0  0  0  0  0  2  0  0  0  0  0  0
  1  4  1  0  0  0  0
  2 17  1  0  0  0  0
  2 14  1  0  0  0  0
  3  9  1  0  0  0  0
  4 12  1  0  0  0  0
  4 37  1  1  0  0  0
  5 19  1  0  0  0  0
  6 22  1  0  0  0  0
  6  9  2  0  0  0  0
  7  3  1  6  0  0  0
  7 21  1  0  0  0  0
  8 26  1  6  0  0  0
  8 12  1  0  0  0  0
  9 13  1  0  0  0  0
 10  5  1  6  0  0  0
 10  7  1  0  0  0  0
 11  6  1  0  0  0  0
 13 17  1  0  0  0  0
 15 20  1  0  0  0  0
 15 28  1  0  0  0  0
 16 11  2  0  0  0  0
 16 20  1  0  0  0  0
 18 19  1  6  0  0  0
 18  8  1  0  0  0  0
 20  3  2  0  0  0  0
 21 13  1  1  0  0  0
 21 27  1  0  0  0  0
 22  2  1  0  0  0  0
 23 30  1  1  0  0  0
 23 28  1  0  0  0  0
 23 10  1  0  0  0  0
 24  2  1  0  0  0  0
 25 18  1  0  0  0  0
 27 25  1  6  0  0  0
 27  1  1  0  0  0  0
 30 29  2  0  0  0  0
 31 30  1  0  0  0  0
 32 34  1  0  0  0  0
 33 35  2  0  0  0  0
 34 31  2  0  0  0  0
 34 33  1  0  0  0  0
 35 29  1  0  0  0  0
 36 37  1  0  0  0  0
M  END
>  <MODEL>
7

>  <REMARK>
 VINA RESULT:      -8.2      3.183      7.152
  Name = 
  2 active torsions:
  status: ('A' for Active; 'I' for Inactive)
    1  A    between atoms: C_4  and  C_37
    2  A    between atoms: C_23  and  C_30
                            x       y       z     vdW  Elec       q    Type
                         _______ _______ _______ _____ _____    ______ ____

>  <TORSDO>
F 2

$$$$
=
 OpenBabel11112417103D

 37 43  0  0  1  0  0  0  0  0999 V2000
  195.8990  174.3530  143.3050 C   0  0  0  0  0  2  0  0  0  0  0  0
  196.1610  169.2900  143.2610 C   0  0  0  0  0  0  0  0  0  0  0  0
  192.7350  171.7120  143.3120 C   0  0  0  0  0  0  0  0  0  0  0  0
  196.7500  175.6070  143.5010 C   0  0  2  0  0  3  0  0  0  0  0  0
  192.7810  173.9670  146.0630 O   0  0  0  0  0  0  0  0  0  0  0  0
  193.6570  169.5470  142.8180 C   0  0  0  0  0  0  0  0  0  0  0  0
  193.2440  173.0150  143.8640 C   0  0  1  0  0  3  0  0  0  0  0  0
  194.5560  176.4940  144.6090 C   0  0  2  0  0  3  0  0  0  0  0  0
  193.7910  170.8510  143.2630 C   0  0  0  0  0  0  0  0  0  0  0  0
  192.3220  173.8810  144.7420 C   0  0  1  0  0  3  0  0  0  0  0  0
  192.4310  169.1320  142.3890 N   0  0  0  0  0  0  0  0  0  0  0  0
  195.9740  176.7950  144.0990 C   0  0  0  0  0  2  0  0  0  0  0  0
  194.9600  171.3560  143.8620 N   0  0  0  0  0  0  0  0  0  0  0  0
  196.7430  169.8210  141.9620 C   0  0  0  0  0  1  0  0  0  0  0  0
  190.2120  172.1020  143.0630 C   0  0  0  0  0  2  0  0  0  0  0  0
  191.3470  169.9700  142.4060 C   0  0  0  0  0  3  0  0  0  0  0  0
  196.0220  170.4430  144.2760 C   0  0  0  0  0  2  0  0  0  0  0  0
  194.5170  175.6130  145.7920 N   0  0  1  0  0  0  0  0  0  0  0  0
  193.1470  175.3130  146.2450 C   0  0  0  0  0  2  0  0  0  0  0  0
  191.4650  171.2940  142.8720 C   0  0  0  0  0  0  0  0  0  0  0  0
  194.5520  172.5690  144.5600 C   0  0  1  0  0  3  0  0  0  0  0  0
  194.8090  168.5900  142.9760 C   0  0  0  0  0  2  0  0  0  0  0  0
  190.8320  173.5530  144.6410 C   0  0  2  0  0  3  0  0  0  0  0  0
  197.1210  168.2650  143.8260 C   0  0  0  0  0  1  0  0  0  0  0  0
  195.4940  174.5120  145.8830 C   0  0  0  0  0  2  0  0  0  0  0  0
  193.7260  176.0610  143.5880 F   0  0  0  0  0  0  0  0  0  0  0  0
  195.6460  173.6280  144.6300 C   0  0  2  0  0  3  0  0  0  0  0  0
  190.4770  173.4590  143.2890 O   0  0  0  0  0  0  0  0  0  0  0  0
  189.4150  174.3530  146.5710 C   0  0  0  0  0  3  0  0  0  0  0  0
  189.9990  174.5960  145.3190 C   0  0  0  0  0  0  0  0  0  0  0  0
  189.7800  175.8190  144.6780 C   0  0  0  0  0  3  0  0  0  0  0  0
  188.7790  177.9830  144.6630 F   0  0  0  0  0  0  0  0  0  0  0  0
  188.4110  176.5550  146.5360 C   0  0  0  0  0  3  0  0  0  0  0  0
  188.9880  176.7990  145.2860 C   0  0  0  0  0  0  0  0  0  0  0  0
  188.6230  175.3320  147.1780 C   0  0  0  0  0  3  0  0  0  0  0  0
  196.3730  176.7050  141.3610 N   0  0  0  0  0  1  0  0  0  0  0  0
  197.3660  176.0340  142.1820 C   0  0  0  0  0  2  0  0  0  0  0  0
  1  4  1  0  0  0  0
  2 24  1  0  0  0  0
  2 17  1  0  0  0  0
  4 37  1  6  0  0  0
  4 12  1  0  0  0  0
  5 19  1  0  0  0  0
  6 22  1  0  0  0  0
  6  9  2  0  0  0  0
  7  3  1  1  0  0  0
  7 21  1  0  0  0  0
  7 10  1  0  0  0  0
  8 26  1  6  0  0  0
  8 18  1  0  0  0  0
  9  3  1  0  0  0  0
  9 13  1  0  0  0  0
 10  5  1  1  0  0  0
 11 16  2  0  0  0  0
 11  6  1  0  0  0  0
 12  8  1  0  0  0  0
 13 17  1  0  0  0  0
 14  2  1  0  0  0  0
 15 28  1  0  0  0  0
 16 20  1  0  0  0  0
 18 25  1  6  0  0  0
 18 19  1  0  0  0  0
 20 15  1  0  0  0  0
 20  3  2  0  0  0  0
 21 13  1  6  0  0  0
 21 27  1  0  0  0  0
 22  2  1  0  0  0  0
 23 10  1  0  0  0  0
 23 30  1  6  0  0  0
 27  1  1  6  0  0  0
 27 25  1  0  0  0  0
 28 23  1  0  0  0  0
 29 35  1  0  0  0  0
 30 29  2  0  0  0  0
 31 34  2  0  0  0  0
 31 30  1  0  0  0  0
 32 34  1  0  0  0  0
 33 35  2  0  0  0  0
 34 33  1  0  0  0  0
 36 37  1  0  0  0  0
M  END
>  <MODEL>
8

>  <REMARK>
 VINA RESULT:      -8.1      3.010      4.847
  Name = 
  2 active torsions:
  status: ('A' for Active; 'I' for Inactive)
    1  A    between atoms: C_4  and  C_37
    2  A    between atoms: C_23  and  C_30
                            x       y       z     vdW  Elec       q    Type
                         _______ _______ _______ _____ _____    ______ ____

>  <TORSDO>
F 2

$$$$
=
 OpenBabel11112417103D

 37 43  0  0  1  0  0  0  0  0999 V2000
  190.8980  173.5260  142.1370 C   0  0  0  0  0  2  0  0  0  0  0  0
  189.1910  176.1700  146.1120 C   0  0  0  0  0  0  0  0  0  0  0  0
  193.1080  174.8770  145.3430 C   0  0  0  0  0  0  0  0  0  0  0  0
  190.4270  172.7130  140.9310 C   0  0  2  0  0  3  0  0  0  0  0  0
  193.2370  171.3570  144.8390 O   0  0  0  0  0  0  0  0  0  0  0  0
  191.6980  176.4160  146.5380 C   0  0  0  0  0  0  0  0  0  0  0  0
  192.9100  173.7340  144.3860 C   0  0  1  0  0  3  0  0  0  0  0  0
  192.5550  171.3050  141.4960 C   0  0  2  0  0  3  0  0  0  0  0  0
  191.8730  175.3640  145.6560 C   0  0  0  0  0  0  0  0  0  0  0  0
  193.8750  172.5350  144.4250 C   0  0  1  0  0  3  0  0  0  0  0  0
  192.8060  176.9970  147.0810 N   0  0  0  0  0  0  0  0  0  0  0  0
  191.3970  171.5890  140.5250 C   0  0  0  0  0  2  0  0  0  0  0  0
  190.8140  174.5910  145.1430 N   0  0  0  0  0  0  0  0  0  0  0  0
  189.0240  177.0110  144.8570 C   0  0  0  0  0  1  0  0  0  0  0  0
  195.6380  174.8880  145.7620 C   0  0  0  0  0  2  0  0  0  0  0  0
  194.0660  176.5490  146.7810 C   0  0  0  0  0  3  0  0  0  0  0  0
  189.4780  174.7060  145.7200 C   0  0  0  0  0  2  0  0  0  0  0  0
  192.1290  170.7450  142.7920 N   0  0  1  0  0  0  0  0  0  0  0  0
  193.2520  170.5100  143.7180 C   0  0  0  0  0  2  0  0  0  0  0  0
  194.2580  175.4680  145.8980 C   0  0  0  0  0  0  0  0  0  0  0  0
  191.4280  173.3670  144.6400 C   0  0  1  0  0  3  0  0  0  0  0  0
  190.3090  176.7740  146.9960 C   0  0  0  0  0  2  0  0  0  0  0  0
  195.1990  172.7890  145.1460 C   0  0  2  0  0  3  0  0  0  0  0  0
  187.8910  176.2130  146.8870 C   0  0  0  0  0  1  0  0  0  0  0  0
  190.8740  171.2340  143.3930 C   0  0  0  0  0  2  0  0  0  0  0  0
  193.3880  172.4030  141.6320 F   0  0  0  0  0  0  0  0  0  0  0  0
  190.6940  172.7630  143.4490 C   0  0  2  0  0  3  0  0  0  0  0  0
  195.7430  173.9960  144.6880 O   0  0  0  0  0  0  0  0  0  0  0  0
  196.7320  171.4540  143.6500 C   0  0  0  0  0  3  0  0  0  0  0  0
  196.1670  171.6700  144.9150 C   0  0  0  0  0  0  0  0  0  0  0  0
  196.4900  170.8140  145.9730 C   0  0  0  0  0  3  0  0  0  0  0  0
  197.6880  168.9260  146.8000 F   0  0  0  0  0  0  0  0  0  0  0  0
  197.9410  169.5420  144.5110 C   0  0  0  0  0  3  0  0  0  0  0  0
  197.3770  169.7520  145.7720 C   0  0  0  0  0  0  0  0  0  0  0  0
  197.6180  170.3920  143.4490 C   0  0  0  0  0  3  0  0  0  0  0  0
  188.7890  173.6660  139.4010 N   0  0  0  0  0  1  0  0  0  0  0  0
  190.2020  173.6260  139.7400 C   0  0  0  0  0  2  0  0  0  0  0  0
  2 24  1  0  0  0  0
  2 22  1  0  0  0  0
  3  9  2  0  0  0  0
  3 20  1  0  0  0  0
  4 37  1  6  0  0  0
  4  1  1  0  0  0  0
  6 22  1  0  0  0  0
  6 11  2  0  0  0  0
  7 10  1  0  0  0  0
  7 21  1  0  0  0  0
  7  3  1  1  0  0  0
  8 26  1  1  0  0  0
  8 18  1  0  0  0  0
  9  6  1  0  0  0  0
 10  5  1  1  0  0  0
 10 23  1  0  0  0  0
 12  4  1  0  0  0  0
 12  8  1  0  0  0  0
 13  9  1  0  0  0  0
 13 17  1  0  0  0  0
 14  2  1  0  0  0  0
 15 20  1  0  0  0  0
 16 11  1  0  0  0  0
 17  2  1  0  0  0  0
 18 25  1  1  0  0  0
 18 19  1  0  0  0  0
 19  5  1  0  0  0  0
 20 16  2  0  0  0  0
 21 13  1  6  0  0  0
 23 30  1  6  0  0  0
 25 27  1  0  0  0  0
 27  1  1  6  0  0  0
 27 21  1  0  0  0  0
 28 23  1  0  0  0  0
 28 15  1  0  0  0  0
 29 30  1  0  0  0  0
 30 31  2  0  0  0  0
 33 34  2  0  0  0  0
 34 31  1  0  0  0  0
 34 32  1  0  0  0  0
 35 29  2  0  0  0  0
 35 33  1  0  0  0  0
 36 37  1  0  0  0  0
M  END
>  <MODEL>
9

>  <REMARK>
 VINA RESULT:      -8.1      3.744      8.927
  Name = 
  2 active torsions:
  status: ('A' for Active; 'I' for Inactive)
    1  A    between atoms: C_4  and  C_37
    2  A    between atoms: C_23  and  C_30
                            x       y       z     vdW  Elec       q    Type
                         _______ _______ _______ _____ _____    ______ ____

>  <TORSDO>
F 2

$$$$
