=
 OpenBabel11112418073D

 34 41  0  0  1  0  0  0  0  0999 V2000
  189.2550  176.3610  142.5570 C   0  0  2  0  0  3  0  0  0  0  0  0
  191.6390  175.9850  142.4450 O   0  0  0  0  0  0  0  0  0  0  0  0
  184.5700  178.2210  146.5980 C   0  0  2  0  0  3  0  0  0  0  0  0
  187.1390  177.5100  143.1180 C   0  0  1  0  0  3  0  0  0  0  0  0
  186.8670  177.8600  145.6830 C   0  0  2  0  0  3  0  0  0  0  0  0
  186.4860  178.1410  148.0280 O   0  0  0  0  0  1  0  0  0  0  0  0
  184.3530  176.8410  146.6410 O   0  0  0  0  0  1  0  0  0  0  0  0
  184.8760  178.4780  144.0360 C   0  0  1  0  0  3  0  0  0  0  0  0
  190.6450  175.4600  144.5630 C   0  0  2  0  0  3  0  0  0  0  0  0
  192.1520  175.1630  147.1630 C   0  0  0  0  0  2  0  0  0  0  0  0
  188.2730  178.2820  145.7140 N   0  0  0  0  0  2  0  0  0  0  0  0
  185.9590  179.3830  144.0000 O   0  0  0  0  0  0  0  0  0  0  0  0
  190.2510  176.7360  145.3610 C   0  0  1  0  0  3  0  0  0  0  0  0
  192.6770  175.7740  143.3760 C   0  0  0  0  0  2  0  0  0  0  0  0
  186.2880  178.0420  144.2670 C   0  0  2  0  0  0  0  0  0  0  0  0
  184.0390  178.7990  145.2860 C   0  0  0  0  0  2  0  0  0  0  0  0
  192.8700  175.6060  145.8910 C   0  0  2  0  0  3  0  0  0  0  0  0
  188.3240  176.7350  143.6930 C   0  0  2  0  0  3  0  0  0  0  0  0
  186.0500  178.5530  146.7680 C   0  0  2  0  0  3  0  0  0  0  0  0
  189.1050  177.5540  144.7240 C   0  0  1  0  0  3  0  0  0  0  0  0
  187.2060  176.4380  141.1270 C   0  0  0  0  0  2  0  0  0  0  0  0
  191.2050  176.2550  147.6420 C   0  0  0  0  0  2  0  0  0  0  0  0
  186.4060  176.6570  142.2700 O   0  0  0  0  0  0  0  0  0  0  0  0
  189.9390  176.3220  146.7970 C   0  0  0  0  0  2  0  0  0  0  0  0
  192.1190  175.1400  144.6360 C   0  0  1  0  0  3  0  0  0  0  0  0
  188.4620  175.6200  141.4810 C   0  0  0  0  0  2  0  0  0  0  0  0
  190.4500  175.5360  143.0460 C   0  0  1  0  0  3  0  0  0  0  0  0
  194.2790  175.0330  145.8890 C   0  0  0  0  0  2  0  0  0  0  0  0
  194.2310  173.6510  145.6970 O   0  0  0  0  0  0  0  0  0  0  0  0
  195.1290  173.0810  142.8390 N   0  0  0  0  0  2  0  0  0  0  0  0
  196.2880  174.7970  144.5290 S   0  0  0  0  0  0  0  0  0  0  0  0
  195.4930  173.3150  145.2040 C   0  0  2  0  0  3  0  0  0  0  0  0
  196.1220  174.1410  142.8430 C   0  0  0  0  0  2  0  0  0  0  0  0
  195.3450  172.3320  144.0640 C   0  0  0  0  0  2  0  0  0  0  0  0
  1 26  1  6  0  0  0
  1 27  1  0  0  0  0
  1 18  1  0  0  0  0
  2 27  1  0  0  0  0
  2 14  1  0  0  0  0
  3  7  1  6  0  0  0
  3 19  1  0  0  0  0
  4 23  1  6  0  0  0
  4 18  1  0  0  0  0
  4 15  1  0  0  0  0
  5 11  1  6  0  0  0
  5 19  1  0  0  0  0
  8 15  1  0  0  0  0
  8 16  1  1  0  0  0
  9 25  1  0  0  0  0
  9 13  1  0  0  0  0
 10 22  1  0  0  0  0
 12  8  1  0  0  0  0
 12 15  1  0  0  0  0
 13 24  1  0  0  0  0
 14 25  1  0  0  0  0
 15  5  1  0  0  0  0
 16  3  1  0  0  0  0
 17 10  1  0  0  0  0
 18 20  1  0  0  0  0
 19  6  1  0  0  0  0
 20 13  1  0  0  0  0
 20 11  1  0  0  0  0
 21 26  1  0  0  0  0
 21 23  1  0  0  0  0
 24 22  1  0  0  0  0
 25 17  1  0  0  0  0
 27  9  1  0  0  0  0
 28 17  1  0  0  0  0
 29 28  1  0  0  0  0
 30 33  1  0  0  0  0
 30 34  1  0  0  0  0
 31 32  1  0  0  0  0
 32 29  1  0  0  0  0
 33 31  1  0  0  0  0
 34 32  1  0  0  0  0
M  END
>  <MODEL>
1

>  <REMARK>
 VINA RESULT:      -8.6      0.000      0.000
  Name = 
  3 active torsions:
  status: ('A' for Active; 'I' for Inactive)
    1  A    between atoms: C_17  and  C_28
    2  A    between atoms: C_28  and  O_29
    3  A    between atoms: O_29  and  C_32
                            x       y       z     vdW  Elec       q    Type
                         _______ _______ _______ _____ _____    ______ ____

>  <TORSDO>
F 3

$$$$
=
 OpenBabel11112418073D

 34 41  0  0  1  0  0  0  0  0999 V2000
  192.1860  176.7720  145.3650 C   0  0  2  0  0  3  0  0  0  0  0  0
  189.9610  177.6980  145.2100 O   0  0  0  0  0  0  0  0  0  0  0  0
  196.5030  173.2910  142.0500 C   0  0  2  0  0  3  0  0  0  0  0  0
  194.4780  176.1800  144.6520 C   0  0  1  0  0  3  0  0  0  0  0  0
  194.4840  174.6850  142.5210 C   0  0  2  0  0  3  0  0  0  0  0  0
  194.5850  173.2330  140.6220 O   0  0  0  0  0  1  0  0  0  0  0  0
  196.0270  172.2870  142.8990 O   0  0  0  0  0  1  0  0  0  0  0  0
  196.7560  175.1850  143.8030 C   0  0  1  0  0  3  0  0  0  0  0  0
  190.2440  175.5930  144.0970 C   0  0  2  0  0  3  0  0  0  0  0  0
  188.3950  174.4840  141.9830 C   0  0  0  0  0  2  0  0  0  0  0  0
  193.4620  175.5800  141.9630 N   0  0  0  0  0  2  0  0  0  0  0  0
  196.2550  176.2790  143.0660 O   0  0  0  0  0  0  0  0  0  0  0  0
  191.0690  175.7270  142.7850 C   0  0  1  0  0  3  0  0  0  0  0  0
  188.8170  177.4630  144.4190 C   0  0  0  0  0  2  0  0  0  0  0  0
  195.2910  175.4140  143.6120 C   0  0  2  0  0  0  0  0  0  0  0  0
  197.4400  174.2280  142.8110 C   0  0  0  0  0  2  0  0  0  0  0  0
  188.1810  175.8840  142.5500 C   0  0  2  0  0  3  0  0  0  0  0  0
  192.9950  175.8750  144.4470 C   0  0  2  0  0  3  0  0  0  0  0  0
  195.3530  174.0770  141.4250 C   0  0  2  0  0  3  0  0  0  0  0  0
  192.5490  176.1150  143.0020 C   0  0  1  0  0  3  0  0  0  0  0  0
  194.2180  176.7650  146.8210 C   0  0  0  0  0  2  0  0  0  0  0  0
  189.6600  174.4440  141.1370 C   0  0  0  0  0  2  0  0  0  0  0  0
  194.8380  175.8270  145.9660 O   0  0  0  0  0  0  0  0  0  0  0  0
  190.9200  174.4290  141.9950 C   0  0  0  0  0  2  0  0  0  0  0  0
  188.8040  176.0220  143.9460 C   0  0  1  0  0  3  0  0  0  0  0  0
  192.6870  176.6030  146.7990 C   0  0  0  0  0  2  0  0  0  0  0  0
  190.6830  176.4930  145.2560 C   0  0  1  0  0  3  0  0  0  0  0  0
  186.6890  176.1690  142.6220 C   0  0  0  0  0  2  0  0  0  0  0  0
  186.2500  176.7190  141.4170 O   0  0  0  0  0  0  0  0  0  0  0  0
  183.5400  178.0820  141.1080 N   0  0  0  0  0  2  0  0  0  0  0  0
  185.0090  178.0120  143.3400 S   0  0  0  0  0  0  0  0  0  0  0  0
  185.8580  178.0200  141.7390 C   0  0  2  0  0  3  0  0  0  0  0  0
  183.4290  178.3860  142.5240 C   0  0  0  0  0  2  0  0  0  0  0  0
  184.8670  178.5180  140.7110 C   0  0  0  0  0  2  0  0  0  0  0  0
  1 26  1  1  0  0  0
  2 27  1  0  0  0  0
  3 16  1  0  0  0  0
  3  7  1  1  0  0  0
  4 23  1  1  0  0  0
  5 11  1  6  0  0  0
  5 15  1  0  0  0  0
  6 19  1  0  0  0  0
  8 16  1  6  0  0  0
  9 27  1  0  0  0  0
 10 17  1  0  0  0  0
 11 20  1  0  0  0  0
 12 15  1  0  0  0  0
 12  8  1  0  0  0  0
 13 20  1  0  0  0  0
 13  9  1  0  0  0  0
 14  2  1  0  0  0  0
 15  8  1  0  0  0  0
 15  4  1  0  0  0  0
 17 28  1  0  0  0  0
 17 25  1  0  0  0  0
 18  4  1  0  0  0  0
 18  1  1  0  0  0  0
 19  3  1  0  0  0  0
 19  5  1  0  0  0  0
 20 18  1  0  0  0  0
 22 10  1  0  0  0  0
 22 24  1  0  0  0  0
 23 21  1  0  0  0  0
 24 13  1  0  0  0  0
 25  9  1  0  0  0  0
 25 14  1  0  0  0  0
 26 21  1  0  0  0  0
 27  1  1  0  0  0  0
 29 32  1  0  0  0  0
 29 28  1  0  0  0  0
 30 33  1  0  0  0  0
 32 31  1  0  0  0  0
 33 31  1  0  0  0  0
 34 30  1  0  0  0  0
 34 32  1  0  0  0  0
M  END
>  <MODEL>
2

>  <REMARK>
 VINA RESULT:      -7.7      3.311      9.065
  Name = 
  3 active torsions:
  status: ('A' for Active; 'I' for Inactive)
    1  A    between atoms: C_17  and  C_28
    2  A    between atoms: C_28  and  O_29
    3  A    between atoms: O_29  and  C_32
                            x       y       z     vdW  Elec       q    Type
                         _______ _______ _______ _____ _____    ______ ____

>  <TORSDO>
F 3

$$$$
=
 OpenBabel11112418073D

 34 41  0  0  1  0  0  0  0  0999 V2000
  190.8440  172.7810  142.5300 C   0  0  2  0  0  3  0  0  0  0  0  0
  188.5790  173.5290  142.1530 O   0  0  0  0  0  0  0  0  0  0  0  0
  196.2760  174.3460  145.6590 C   0  0  2  0  0  3  0  0  0  0  0  0
  192.9060  172.2560  143.7910 C   0  0  1  0  0  3  0  0  0  0  0  0
  193.8620  174.3460  145.0130 C   0  0  2  0  0  3  0  0  0  0  0  0
  194.8660  176.2290  146.0940 O   0  0  0  0  0  1  0  0  0  0  0  0
  196.6340  174.7810  144.3790 O   0  0  0  0  0  1  0  0  0  0  0  0
  195.2270  172.0660  145.0060 C   0  0  1  0  0  3  0  0  0  0  0  0
  190.1830  175.2930  142.3950 C   0  0  2  0  0  3  0  0  0  0  0  0
  189.5190  178.1690  143.0330 C   0  0  0  0  0  2  0  0  0  0  0  0
  192.4880  174.6580  145.4270 N   0  0  0  0  0  2  0  0  0  0  0  0
  194.0940  172.0600  145.8480 O   0  0  0  0  0  0  0  0  0  0  0  0
  190.6590  175.4590  143.8670 C   0  0  1  0  0  3  0  0  0  0  0  0
  187.8760  174.7440  142.2850 C   0  0  0  0  0  2  0  0  0  0  0  0
  193.9910  172.8460  144.6860 C   0  0  2  0  0  0  0  0  0  0  0  0
  196.3490  172.8220  145.7390 C   0  0  0  0  0  2  0  0  0  0  0  0
  188.4280  177.1030  143.0080 C   0  0  2  0  0  3  0  0  0  0  0  0
  192.0190  173.3880  143.2730 C   0  0  2  0  0  3  0  0  0  0  0  0
  194.8810  174.8350  146.0380 C   0  0  2  0  0  3  0  0  0  0  0  0
  191.4860  174.2710  144.4050 C   0  0  1  0  0  3  0  0  0  0  0  0
  192.3810  170.8590  142.0910 C   0  0  0  0  0  2  0  0  0  0  0  0
  190.4490  177.9450  144.2180 C   0  0  0  0  0  2  0  0  0  0  0  0
  193.4480  171.5630  142.6920 O   0  0  0  0  0  0  0  0  0  0  0  0
  191.4080  176.7850  143.9790 C   0  0  0  0  0  2  0  0  0  0  0  0
  188.8310  175.9120  142.1290 C   0  0  1  0  0  3  0  0  0  0  0  0
  191.3680  171.8290  141.4560 C   0  0  0  0  0  2  0  0  0  0  0  0
  189.9290  173.8550  141.9350 C   0  0  1  0  0  3  0  0  0  0  0  0
  187.1420  177.7190  142.4780 C   0  0  0  0  0  2  0  0  0  0  0  0
  186.0720  177.3750  143.3070 O   0  0  0  0  0  0  0  0  0  0  0  0
  184.1580  179.0240  145.0140 N   0  0  0  0  0  2  0  0  0  0  0  0
  185.7460  177.0640  145.8960 S   0  0  0  0  0  0  0  0  0  0  0  0
  186.3030  178.0700  144.4960 C   0  0  2  0  0  3  0  0  0  0  0  0
  184.3720  178.2120  146.2000 C   0  0  0  0  0  2  0  0  0  0  0  0
  185.4810  179.3400  144.5060 C   0  0  0  0  0  2  0  0  0  0  0  0
  1 26  1  6  0  0  0
  1 18  1  0  0  0  0
  2 14  1  0  0  0  0
  3  7  1  6  0  0  0
  3 16  1  0  0  0  0
  3 19  1  0  0  0  0
  4 23  1  6  0  0  0
  4 15  1  0  0  0  0
  5 11  1  1  0  0  0
  5 19  1  0  0  0  0
  8 16  1  1  0  0  0
  8 12  1  0  0  0  0
  9 13  1  0  0  0  0
 10 22  1  0  0  0  0
 13 24  1  0  0  0  0
 13 20  1  0  0  0  0
 15  8  1  0  0  0  0
 15  5  1  0  0  0  0
 15 12  1  0  0  0  0
 17 10  1  0  0  0  0
 18  4  1  0  0  0  0
 18 20  1  0  0  0  0
 19  6  1  0  0  0  0
 20 11  1  0  0  0  0
 21 23  1  0  0  0  0
 24 22  1  0  0  0  0
 25 14  1  0  0  0  0
 25  9  1  0  0  0  0
 25 17  1  0  0  0  0
 26 21  1  0  0  0  0
 27  2  1  0  0  0  0
 27  9  1  0  0  0  0
 27  1  1  0  0  0  0
 28 17  1  0  0  0  0
 28 29  1  0  0  0  0
 29 32  1  0  0  0  0
 30 33  1  0  0  0  0
 31 33  1  0  0  0  0
 32 34  1  0  0  0  0
 32 31  1  0  0  0  0
 34 30  1  0  0  0  0
M  END
>  <MODEL>
3

>  <REMARK>
 VINA RESULT:      -7.6      2.887      8.424
  Name = 
  3 active torsions:
  status: ('A' for Active; 'I' for Inactive)
    1  A    between atoms: C_17  and  C_28
    2  A    between atoms: C_28  and  O_29
    3  A    between atoms: O_29  and  C_32
                            x       y       z     vdW  Elec       q    Type
                         _______ _______ _______ _____ _____    ______ ____

>  <TORSDO>
F 3

$$$$
=
 OpenBabel11112418073D

 34 41  0  0  1  0  0  0  0  0999 V2000
  192.1600  176.7850  145.3150 C   0  0  2  0  0  3  0  0  0  0  0  0
  190.0340  177.9160  145.1210 O   0  0  0  0  0  0  0  0  0  0  0  0
  196.0880  172.7360  142.1660 C   0  0  2  0  0  3  0  0  0  0  0  0
  194.3770  175.9360  144.6250 C   0  0  1  0  0  3  0  0  0  0  0  0
  194.2190  174.3430  142.5720 C   0  0  2  0  0  3  0  0  0  0  0  0
  194.1610  172.7950  140.7490 O   0  0  0  0  0  1  0  0  0  0  0  0
  195.5230  171.8280  143.0670 O   0  0  0  0  0  1  0  0  0  0  0  0
  196.5400  174.6810  143.8200 C   0  0  1  0  0  3  0  0  0  0  0  0
  190.1010  175.7410  144.1150 C   0  0  2  0  0  3  0  0  0  0  0  0
  188.1350  174.7140  142.0650 C   0  0  0  0  0  2  0  0  0  0  0  0
  193.2850  175.3060  141.9740 N   0  0  0  0  0  2  0  0  0  0  0  0
  196.1420  175.7810  143.0310 O   0  0  0  0  0  0  0  0  0  0  0  0
  190.9240  175.7270  142.7950 C   0  0  1  0  0  3  0  0  0  0  0  0
  188.8670  177.7550  144.3460 C   0  0  0  0  0  2  0  0  0  0  0  0
  195.1020  175.0430  143.6230 C   0  0  2  0  0  0  0  0  0  0  0  0
  197.1180  173.6130  142.8750 C   0  0  0  0  0  2  0  0  0  0  0  0
  188.0640  176.1550  142.5620 C   0  0  2  0  0  3  0  0  0  0  0  0
  192.8700  175.7690  144.4410 C   0  0  2  0  0  3  0  0  0  0  0  0
  195.0150  173.5980  141.5060 C   0  0  2  0  0  3  0  0  0  0  0  0
  192.4370  175.9780  142.9870 C   0  0  1  0  0  3  0  0  0  0  0  0
  194.1930  176.6520  146.7630 C   0  0  0  0  0  2  0  0  0  0  0  0
  189.3840  174.5080  141.2190 C   0  0  0  0  0  2  0  0  0  0  0  0
  194.7120  175.6160  145.9550 O   0  0  0  0  0  0  0  0  0  0  0  0
  190.6420  174.4120  142.0720 C   0  0  0  0  0  2  0  0  0  0  0  0
  188.7090  176.3010  143.9470 C   0  0  1  0  0  3  0  0  0  0  0  0
  192.6540  176.6400  146.7540 C   0  0  0  0  0  2  0  0  0  0  0  0
  190.6360  176.6500  145.2250 C   0  0  1  0  0  3  0  0  0  0  0  0
  186.6080  176.5880  142.6250 C   0  0  0  0  0  2  0  0  0  0  0  0
  186.1150  176.4140  143.9190 O   0  0  0  0  0  0  0  0  0  0  0  0
  185.8600  179.0440  145.4420 N   0  0  0  0  0  2  0  0  0  0  0  0
  185.2850  178.6720  142.8580 S   0  0  0  0  0  0  0  0  0  0  0  0
  185.0360  177.2970  144.0120 C   0  0  2  0  0  3  0  0  0  0  0  0
  185.5560  179.8120  144.2470 C   0  0  0  0  0  2  0  0  0  0  0  0
  184.9850  177.8870  145.4040 C   0  0  0  0  0  2  0  0  0  0  0  0
  1 26  1  1  0  0  0
  2 27  1  0  0  0  0
  3 16  1  0  0  0  0
  3  7  1  1  0  0  0
  4 23  1  1  0  0  0
  5 11  1  6  0  0  0
  5 15  1  0  0  0  0
  6 19  1  0  0  0  0
  8 16  1  6  0  0  0
  9 27  1  0  0  0  0
 10 17  1  0  0  0  0
 11 20  1  0  0  0  0
 12 15  1  0  0  0  0
 12  8  1  0  0  0  0
 13 20  1  0  0  0  0
 13  9  1  0  0  0  0
 14  2  1  0  0  0  0
 15  8  1  0  0  0  0
 15  4  1  0  0  0  0
 17 28  1  0  0  0  0
 17 25  1  0  0  0  0
 18  4  1  0  0  0  0
 18  1  1  0  0  0  0
 19  3  1  0  0  0  0
 19  5  1  0  0  0  0
 20 18  1  0  0  0  0
 22 10  1  0  0  0  0
 22 24  1  0  0  0  0
 23 21  1  0  0  0  0
 24 13  1  0  0  0  0
 25  9  1  0  0  0  0
 25 14  1  0  0  0  0
 26 21  1  0  0  0  0
 27  1  1  0  0  0  0
 28 29  1  0  0  0  0
 29 32  1  0  0  0  0
 31 32  1  0  0  0  0
 31 33  1  0  0  0  0
 32 34  1  0  0  0  0
 33 30  1  0  0  0  0
 34 30  1  0  0  0  0
M  END
>  <MODEL>
4

>  <REMARK>
 VINA RESULT:      -7.6      2.781      8.852
  Name = 
  3 active torsions:
  status: ('A' for Active; 'I' for Inactive)
    1  A    between atoms: C_17  and  C_28
    2  A    between atoms: C_28  and  O_29
    3  A    between atoms: O_29  and  C_32
                            x       y       z     vdW  Elec       q    Type
                         _______ _______ _______ _____ _____    ______ ____

>  <TORSDO>
F 3

$$$$
=
 OpenBabel11112418073D

 34 41  0  0  1  0  0  0  0  0999 V2000
  186.3490  177.4070  145.7260 C   0  0  2  0  0  3  0  0  0  0  0  0
  184.5590  178.7430  144.8060 O   0  0  0  0  0  0  0  0  0  0  0  0
  191.9620  174.6220  144.1500 C   0  0  2  0  0  3  0  0  0  0  0  0
  188.6680  176.6820  146.1810 C   0  0  1  0  0  3  0  0  0  0  0  0
  189.9610  176.1110  143.9950 C   0  0  2  0  0  3  0  0  0  0  0  0
  191.1980  175.4750  142.0480 O   0  0  0  0  0  1  0  0  0  0  0  0
  191.1420  173.4900  144.1030 O   0  0  0  0  0  1  0  0  0  0  0  0
  191.0750  175.6440  146.3610 C   0  0  1  0  0  3  0  0  0  0  0  0
  185.5340  177.1870  143.2650 C   0  0  2  0  0  3  0  0  0  0  0  0
  185.2740  177.3240  140.2590 C   0  0  0  0  0  2  0  0  0  0  0  0
  189.3900  177.3310  143.4100 N   0  0  0  0  0  2  0  0  0  0  0  0
  191.0230  177.0090  146.0050 O   0  0  0  0  0  0  0  0  0  0  0  0
  186.9490  177.6310  142.7960 C   0  0  1  0  0  3  0  0  0  0  0  0
  184.0800  179.0470  143.5150 C   0  0  0  0  0  2  0  0  0  0  0  0
  189.9670  176.2110  145.5320 C   0  0  2  0  0  0  0  0  0  0  0  0
  192.2500  175.0080  145.5990 C   0  0  0  0  0  2  0  0  0  0  0  0
  184.7020  178.4280  141.1440 C   0  0  2  0  0  3  0  0  0  0  0  0
  187.5820  176.7730  145.1110 C   0  0  2  0  0  3  0  0  0  0  0  0
  191.3290  175.7930  143.4010 C   0  0  2  0  0  3  0  0  0  0  0  0
  188.0220  177.6120  143.9080 C   0  0  1  0  0  3  0  0  0  0  0  0
  187.1930  176.4630  147.8810 C   0  0  0  0  0  2  0  0  0  0  0  0
  186.7950  177.3520  140.2970 C   0  0  0  0  0  2  0  0  0  0  0  0
  188.2370  175.8060  147.1950 O   0  0  0  0  0  0  0  0  0  0  0  0
  187.3440  176.7740  141.5950 C   0  0  0  0  0  2  0  0  0  0  0  0
  184.4140  177.9160  142.5610 C   0  0  1  0  0  3  0  0  0  0  0  0
  185.9560  176.6250  146.9790 C   0  0  0  0  0  2  0  0  0  0  0  0
  185.1900  177.4890  144.7260 C   0  0  1  0  0  3  0  0  0  0  0  0
  183.4190  178.9540  140.5180 C   0  0  0  0  0  2  0  0  0  0  0  0
  182.3360  178.1720  140.9230 O   0  0  0  0  0  0  0  0  0  0  0  0
  179.3590  177.5410  141.1210 N   0  0  0  0  0  2  0  0  0  0  0  0
  180.6560  179.4160  142.5160 S   0  0  0  0  0  0  0  0  0  0  0  0
  181.2310  179.0230  140.8430 C   0  0  2  0  0  3  0  0  0  0  0  0
  179.1530  178.4300  142.2510 C   0  0  0  0  0  2  0  0  0  0  0  0
  180.0970  178.3130  140.1380 C   0  0  0  0  0  2  0  0  0  0  0  0
  1 26  1  1  0  0  0
  3  7  1  1  0  0  0
  3 16  1  0  0  0  0
  4 23  1  1  0  0  0
  5 11  1  6  0  0  0
  5 15  1  0  0  0  0
  6 19  1  0  0  0  0
  8 16  1  6  0  0  0
  9 27  1  0  0  0  0
 10 22  1  0  0  0  0
 10 17  1  0  0  0  0
 11 20  1  0  0  0  0
 12  8  1  0  0  0  0
 13  9  1  0  0  0  0
 13 20  1  0  0  0  0
 14  2  1  0  0  0  0
 15 12  1  0  0  0  0
 15  4  1  0  0  0  0
 15  8  1  0  0  0  0
 17 25  1  0  0  0  0
 18  1  1  0  0  0  0
 18  4  1  0  0  0  0
 19  5  1  0  0  0  0
 19  3  1  0  0  0  0
 20 18  1  0  0  0  0
 22 24  1  0  0  0  0
 23 21  1  0  0  0  0
 24 13  1  0  0  0  0
 25  9  1  0  0  0  0
 25 14  1  0  0  0  0
 26 21  1  0  0  0  0
 27  2  1  0  0  0  0
 27  1  1  0  0  0  0
 28 29  1  0  0  0  0
 28 17  1  0  0  0  0
 30 33  1  0  0  0  0
 32 29  1  0  0  0  0
 32 31  1  0  0  0  0
 33 31  1  0  0  0  0
 34 32  1  0  0  0  0
 34 30  1  0  0  0  0
M  END
>  <MODEL>
5

>  <REMARK>
 VINA RESULT:      -7.4      4.168      9.314
  Name = 
  3 active torsions:
  status: ('A' for Active; 'I' for Inactive)
    1  A    between atoms: C_17  and  C_28
    2  A    between atoms: C_28  and  O_29
    3  A    between atoms: O_29  and  C_32
                            x       y       z     vdW  Elec       q    Type
                         _______ _______ _______ _____ _____    ______ ____

>  <TORSDO>
F 3

$$$$
=
 OpenBabel11112418073D

 34 41  0  0  1  0  0  0  0  0999 V2000
  195.0650  174.9610  145.2710 C   0  0  2  0  0  3  0  0  0  0  0  0
  193.4380  175.7290  146.8830 O   0  0  0  0  0  0  0  0  0  0  0  0
  196.0020  174.2390  138.9190 C   0  0  2  0  0  3  0  0  0  0  0  0
  196.4420  174.9770  143.2180 C   0  0  1  0  0  3  0  0  0  0  0  0
  194.9840  175.0230  141.0620 C   0  0  2  0  0  3  0  0  0  0  0  0
  193.7260  174.9700  139.0280 O   0  0  0  0  0  1  0  0  0  0  0  0
  195.6970  172.9130  139.2420 O   0  0  0  0  0  1  0  0  0  0  0  0
  197.6190  174.7460  140.8810 C   0  0  1  0  0  3  0  0  0  0  0  0
  192.4990  174.6910  144.9360 C   0  0  2  0  0  3  0  0  0  0  0  0
  189.6340  174.9780  144.0260 C   0  0  0  0  0  2  0  0  0  0  0  0
  194.1530  176.0410  141.7180 N   0  0  0  0  0  2  0  0  0  0  0  0
  197.1970  176.0480  141.2270 O   0  0  0  0  0  0  0  0  0  0  0  0
  192.6060  175.5980  143.6770 C   0  0  1  0  0  3  0  0  0  0  0  0
  192.0480  175.9670  146.8870 C   0  0  0  0  0  2  0  0  0  0  0  0
  196.3890  174.9960  141.6930 C   0  0  2  0  0  0  0  0  0  0  0  0
  197.4230  174.5790  139.3640 C   0  0  0  0  0  2  0  0  0  0  0  0
  190.1560  175.7690  145.2220 C   0  0  2  0  0  3  0  0  0  0  0  0
  195.0260  174.8030  143.7630 C   0  0  2  0  0  3  0  0  0  0  0  0
  194.9990  175.2040  139.5480 C   0  0  2  0  0  3  0  0  0  0  0  0
  194.0510  175.8320  143.1830 C   0  0  1  0  0  3  0  0  0  0  0  0
  197.4270  174.1660  145.0850 C   0  0  0  0  0  2  0  0  0  0  0  0
  190.2700  175.4850  142.7390 C   0  0  0  0  0  2  0  0  0  0  0  0
  197.2490  173.9310  143.7040 O   0  0  0  0  0  0  0  0  0  0  0  0
  191.7100  175.0090  142.5890 C   0  0  0  0  0  2  0  0  0  0  0  0
  191.3700  175.0800  145.8600 C   0  0  1  0  0  3  0  0  0  0  0  0
  196.1010  173.9990  145.8490 C   0  0  0  0  0  2  0  0  0  0  0  0
  193.6850  174.7510  145.9030 C   0  0  1  0  0  3  0  0  0  0  0  0
  189.0450  175.9090  146.2500 C   0  0  0  0  0  2  0  0  0  0  0  0
  188.4960  177.1910  146.1880 O   0  0  0  0  0  0  0  0  0  0  0  0
  186.0800  178.5930  147.4120 N   0  0  0  0  0  2  0  0  0  0  0  0
  186.5200  178.2300  144.8010 S   0  0  0  0  0  0  0  0  0  0  0  0
  187.1320  176.9850  145.9670 C   0  0  2  0  0  3  0  0  0  0  0  0
  185.5660  179.0290  146.1250 C   0  0  0  0  0  2  0  0  0  0  0  0
  186.3760  177.1790  147.2620 C   0  0  0  0  0  2  0  0  0  0  0  0
  1 26  1  1  0  0  0
  1 27  1  0  0  0  0
  2 14  1  0  0  0  0
  3  7  1  1  0  0  0
  3 16  1  0  0  0  0
  3 19  1  0  0  0  0
  4 23  1  6  0  0  0
  4 18  1  0  0  0  0
  5 15  1  0  0  0  0
  5 11  1  1  0  0  0
  6 19  1  0  0  0  0
  8 16  1  6  0  0  0
  8 12  1  0  0  0  0
  8 15  1  0  0  0  0
  9 25  1  0  0  0  0
  9 27  1  0  0  0  0
 10 17  1  0  0  0  0
 11 20  1  0  0  0  0
 12 15  1  0  0  0  0
 13  9  1  0  0  0  0
 15  4  1  0  0  0  0
 17 25  1  0  0  0  0
 17 28  1  0  0  0  0
 18  1  1  0  0  0  0
 19  5  1  0  0  0  0
 20 13  1  0  0  0  0
 20 18  1  0  0  0  0
 21 26  1  0  0  0  0
 22 10  1  0  0  0  0
 23 21  1  0  0  0  0
 24 22  1  0  0  0  0
 24 13  1  0  0  0  0
 25 14  1  0  0  0  0
 27  2  1  0  0  0  0
 29 28  1  0  0  0  0
 31 32  1  0  0  0  0
 31 33  1  0  0  0  0
 32 29  1  0  0  0  0
 32 34  1  0  0  0  0
 33 30  1  0  0  0  0
 34 30  1  0  0  0  0
M  END
>  <MODEL>
6

>  <REMARK>
 VINA RESULT:      -7.2      3.076      9.191
  Name = 
  3 active torsions:
  status: ('A' for Active; 'I' for Inactive)
    1  A    between atoms: C_17  and  C_28
    2  A    between atoms: C_28  and  O_29
    3  A    between atoms: O_29  and  C_32
                            x       y       z     vdW  Elec       q    Type
                         _______ _______ _______ _____ _____    ______ ____

>  <TORSDO>
F 3

$$$$
=
 OpenBabel11112418073D

 34 41  0  0  1  0  0  0  0  0999 V2000
  192.9490  175.9850  144.7930 C   0  0  2  0  0  3  0  0  0  0  0  0
  191.6900  177.9770  144.2630 O   0  0  0  0  0  0  0  0  0  0  0  0
  193.3570  169.6890  143.4030 C   0  0  2  0  0  3  0  0  0  0  0  0
  194.1810  173.8780  144.3990 C   0  0  1  0  0  3  0  0  0  0  0  0
  192.7080  172.0940  143.2060 C   0  0  2  0  0  3  0  0  0  0  0  0
  191.4030  170.3600  142.1970 O   0  0  0  0  0  1  0  0  0  0  0  0
  192.6920  169.5940  144.6290 O   0  0  0  0  0  1  0  0  0  0  0  0
  195.1360  171.4530  144.0720 C   0  0  1  0  0  3  0  0  0  0  0  0
  190.4050  175.9530  144.2500 C   0  0  2  0  0  3  0  0  0  0  0  0
  187.7140  175.6120  142.9230 C   0  0  0  0  0  2  0  0  0  0  0  0
  192.2420  173.1630  142.3130 N   0  0  0  0  0  2  0  0  0  0  0  0
  195.1290  172.2680  142.9190 O   0  0  0  0  0  0  0  0  0  0  0  0
  190.7190  175.0640  143.0130 C   0  0  1  0  0  3  0  0  0  0  0  0
  190.4330  178.2600  143.6900 C   0  0  0  0  0  2  0  0  0  0  0  0
  194.0690  172.4700  143.8200 C   0  0  2  0  0  0  0  0  0  0  0  0
  194.8340  170.0120  143.6260 C   0  0  0  0  0  2  0  0  0  0  0  0
  188.4960  176.9140  142.7790 C   0  0  2  0  0  3  0  0  0  0  0  0
  192.8000  174.5330  144.3830 C   0  0  2  0  0  3  0  0  0  0  0  0
  192.7100  170.7400  142.5040 C   0  0  2  0  0  3  0  0  0  0  0  0
  192.1460  174.4730  143.0000 C   0  0  1  0  0  3  0  0  0  0  0  0
  194.9640  175.2080  146.0520 C   0  0  0  0  0  2  0  0  0  0  0  0
  188.4150  174.4890  142.1720 C   0  0  0  0  0  2  0  0  0  0  0  0
  194.6650  173.8680  145.7200 O   0  0  0  0  0  0  0  0  0  0  0  0
  189.6430  173.9840  142.9180 C   0  0  0  0  0  2  0  0  0  0  0  0
  189.4800  177.1060  143.9410 C   0  0  1  0  0  3  0  0  0  0  0  0
  193.6810  176.0550  146.1330 C   0  0  0  0  0  2  0  0  0  0  0  0
  191.5970  176.7040  144.8510 C   0  0  1  0  0  3  0  0  0  0  0  0
  187.5200  178.0800  142.7350 C   0  0  0  0  0  2  0  0  0  0  0  0
  186.3580  177.7550  143.4380 O   0  0  0  0  0  0  0  0  0  0  0  0
  183.9640  179.0390  144.8220 N   0  0  0  0  0  2  0  0  0  0  0  0
  185.9770  177.7720  146.0390 S   0  0  0  0  0  0  0  0  0  0  0  0
  186.3150  178.6640  144.4980 C   0  0  2  0  0  3  0  0  0  0  0  0
  184.3230  178.5170  146.1290 C   0  0  0  0  0  2  0  0  0  0  0  0
  185.1750  179.6340  144.2860 C   0  0  0  0  0  2  0  0  0  0  0  0
  1 27  1  0  0  0  0
  1 26  1  1  0  0  0
  2 27  1  0  0  0  0
  3 16  1  0  0  0  0
  3  7  1  1  0  0  0
  4 23  1  1  0  0  0
  5 11  1  6  0  0  0
  5 15  1  0  0  0  0
  6 19  1  0  0  0  0
  8 16  1  6  0  0  0
  9 27  1  0  0  0  0
 11 20  1  0  0  0  0
 12 15  1  0  0  0  0
 12  8  1  0  0  0  0
 13  9  1  0  0  0  0
 14 25  1  0  0  0  0
 14  2  1  0  0  0  0
 15  8  1  0  0  0  0
 15  4  1  0  0  0  0
 17 10  1  0  0  0  0
 17 25  1  0  0  0  0
 18  4  1  0  0  0  0
 18  1  1  0  0  0  0
 19  5  1  0  0  0  0
 19  3  1  0  0  0  0
 20 13  1  0  0  0  0
 20 18  1  0  0  0  0
 21 26  1  0  0  0  0
 22 24  1  0  0  0  0
 22 10  1  0  0  0  0
 23 21  1  0  0  0  0
 24 13  1  0  0  0  0
 25  9  1  0  0  0  0
 28 17  1  0  0  0  0
 28 29  1  0  0  0  0
 29 32  1  0  0  0  0
 30 33  1  0  0  0  0
 31 33  1  0  0  0  0
 32 31  1  0  0  0  0
 34 32  1  0  0  0  0
 34 30  1  0  0  0  0
M  END
>  <MODEL>
7

>  <REMARK>
 VINA RESULT:      -7.2      2.887      8.798
  Name = 
  3 active torsions:
  status: ('A' for Active; 'I' for Inactive)
    1  A    between atoms: C_17  and  C_28
    2  A    between atoms: C_28  and  O_29
    3  A    between atoms: O_29  and  C_32
                            x       y       z     vdW  Elec       q    Type
                         _______ _______ _______ _____ _____    ______ ____

>  <TORSDO>
F 3

$$$$
=
 OpenBabel11112418073D

 34 41  0  0  1  0  0  0  0  0999 V2000
  189.1210  177.0450  146.9500 C   0  0  2  0  0  3  0  0  0  0  0  0
  191.1250  176.0060  147.8120 O   0  0  0  0  0  0  0  0  0  0  0  0
  185.6970  177.7960  141.5230 C   0  0  2  0  0  3  0  0  0  0  0  0
  187.0180  177.2570  145.6680 C   0  0  1  0  0  3  0  0  0  0  0  0
  187.3830  176.8730  143.1200 C   0  0  2  0  0  3  0  0  0  0  0  0
  187.6390  176.6290  140.7530 O   0  0  0  0  0  1  0  0  0  0  0  0
  186.3310  179.0420  141.5490 O   0  0  0  0  0  1  0  0  0  0  0  0
  185.0130  177.6650  144.0210 C   0  0  1  0  0  3  0  0  0  0  0  0
  191.3020  176.7920  145.5540 C   0  0  2  0  0  3  0  0  0  0  0  0
  193.4070  175.9200  143.5720 C   0  0  0  0  0  2  0  0  0  0  0  0
  188.2280  175.7260  143.4750 N   0  0  0  0  0  2  0  0  0  0  0  0
  185.3140  176.3130  144.2950 O   0  0  0  0  0  0  0  0  0  0  0  0
  190.5140  175.8960  144.5550 C   0  0  1  0  0  3  0  0  0  0  0  0
  192.3200  175.4960  147.2640 C   0  0  0  0  0  2  0  0  0  0  0  0
  186.4100  177.1940  144.2700 C   0  0  2  0  0  0  0  0  0  0  0  0
  184.5670  177.7550  142.5510 C   0  0  0  0  0  2  0  0  0  0  0  0
  193.3200  175.2760  144.9520 C   0  0  2  0  0  3  0  0  0  0  0  0
  188.5390  177.1580  145.5550 C   0  0  2  0  0  3  0  0  0  0  0  0
  186.6910  176.6650  141.7770 C   0  0  2  0  0  3  0  0  0  0  0  0
  188.9800  175.9430  144.7340 C   0  0  1  0  0  3  0  0  0  0  0  0
  187.0810  178.2900  147.6800 C   0  0  0  0  0  2  0  0  0  0  0  0
  192.2060  175.5210  142.7270 C   0  0  0  0  0  2  0  0  0  0  0  0
  186.6880  178.4530  146.3330 O   0  0  0  0  0  0  0  0  0  0  0  0
  190.9450  176.2700  143.1390 C   0  0  0  0  0  2  0  0  0  0  0  0
  192.6340  176.2070  145.9610 C   0  0  1  0  0  3  0  0  0  0  0  0
  188.6130  178.2080  147.8010 C   0  0  0  0  0  2  0  0  0  0  0  0
  190.6530  176.9910  146.9260 C   0  0  1  0  0  3  0  0  0  0  0  0
  194.7230  174.9420  145.4350 C   0  0  0  0  0  2  0  0  0  0  0  0
  194.8540  173.5610  145.6010 O   0  0  0  0  0  0  0  0  0  0  0  0
  196.7760  171.7180  144.1160 N   0  0  0  0  0  2  0  0  0  0  0  0
  197.1500  174.3240  144.5740 S   0  0  0  0  0  0  0  0  0  0  0  0
  196.2220  173.3520  145.7890 C   0  0  2  0  0  3  0  0  0  0  0  0
  197.6530  172.8050  143.7140 C   0  0  0  0  0  2  0  0  0  0  0  0
  196.5490  171.8970  145.5380 C   0  0  0  0  0  2  0  0  0  0  0  0
  1 26  1  1  0  0  0
  3  7  1  1  0  0  0
  3 19  1  0  0  0  0
  3 16  1  0  0  0  0
  4 23  1  6  0  0  0
  5 11  1  1  0  0  0
  5 15  1  0  0  0  0
  6 19  1  0  0  0  0
  8 16  1  6  0  0  0
  8 15  1  0  0  0  0
  8 12  1  0  0  0  0
  9 25  1  0  0  0  0
  9 27  1  0  0  0  0
 10 17  1  0  0  0  0
 11 20  1  0  0  0  0
 13 20  1  0  0  0  0
 13  9  1  0  0  0  0
 14  2  1  0  0  0  0
 15 12  1  0  0  0  0
 15  4  1  0  0  0  0
 17 28  1  0  0  0  0
 17 25  1  0  0  0  0
 18  4  1  0  0  0  0
 18  1  1  0  0  0  0
 19  5  1  0  0  0  0
 20 18  1  0  0  0  0
 21 26  1  0  0  0  0
 22 24  1  0  0  0  0
 22 10  1  0  0  0  0
 23 21  1  0  0  0  0
 24 13  1  0  0  0  0
 25 14  1  0  0  0  0
 27  1  1  0  0  0  0
 27  2  1  0  0  0  0
 28 29  1  0  0  0  0
 29 32  1  0  0  0  0
 30 34  1  0  0  0  0
 31 32  1  0  0  0  0
 33 30  1  0  0  0  0
 33 31  1  0  0  0  0
 34 32  1  0  0  0  0
M  END
>  <MODEL>
8

>  <REMARK>
 VINA RESULT:      -7.1      1.726      3.740
  Name = 
  3 active torsions:
  status: ('A' for Active; 'I' for Inactive)
    1  A    between atoms: C_17  and  C_28
    2  A    between atoms: C_28  and  O_29
    3  A    between atoms: O_29  and  C_32
                            x       y       z     vdW  Elec       q    Type
                         _______ _______ _______ _____ _____    ______ ____

>  <TORSDO>
F 3

$$$$
=
 OpenBabel11112418073D

 34 41  0  0  1  0  0  0  0  0999 V2000
  189.8750  177.0650  147.2450 C   0  0  2  0  0  3  0  0  0  0  0  0
  191.8710  175.7040  147.2470 O   0  0  0  0  0  0  0  0  0  0  0  0
  184.6880  178.5030  143.6720 C   0  0  2  0  0  3  0  0  0  0  0  0
  187.4900  177.6370  146.9300 C   0  0  1  0  0  3  0  0  0  0  0  0
  186.7180  177.2830  144.4690 C   0  0  2  0  0  3  0  0  0  0  0  0
  185.9420  177.0790  142.2150 O   0  0  0  0  0  1  0  0  0  0  0  0
  185.4590  179.6360  143.3940 O   0  0  0  0  0  1  0  0  0  0  0  0
  185.0750  178.3990  146.2340 C   0  0  1  0  0  3  0  0  0  0  0  0
  191.2270  176.5250  145.0890 C   0  0  2  0  0  3  0  0  0  0  0  0
  192.1770  175.4060  142.4500 C   0  0  0  0  0  2  0  0  0  0  0  0
  187.4470  176.0090  144.4860 N   0  0  0  0  0  2  0  0  0  0  0  0
  185.2520  177.0090  146.4060 O   0  0  0  0  0  0  0  0  0  0  0  0
  189.9720  175.7930  144.5310 C   0  0  1  0  0  3  0  0  0  0  0  0
  192.6440  175.0360  146.2750 C   0  0  0  0  0  2  0  0  0  0  0  0
  186.3620  177.7120  145.9050 C   0  0  2  0  0  0  0  0  0  0  0  0
  184.0860  178.6030  145.0730 C   0  0  0  0  0  2  0  0  0  0  0  0
  192.5650  174.7390  143.7660 C   0  0  2  0  0  3  0  0  0  0  0  0
  188.7970  177.3100  146.2070 C   0  0  2  0  0  3  0  0  0  0  0  0
  185.5140  177.2270  143.5350 C   0  0  2  0  0  3  0  0  0  0  0  0
  188.6730  176.0690  145.3190 C   0  0  1  0  0  3  0  0  0  0  0  0
  188.5270  178.5830  148.7030 C   0  0  0  0  0  2  0  0  0  0  0  0
  190.6890  175.2230  142.1840 C   0  0  0  0  0  2  0  0  0  0  0  0
  187.6480  178.8480  147.6300 O   0  0  0  0  0  0  0  0  0  0  0  0
  189.8370  176.1420  143.0500 C   0  0  0  0  0  2  0  0  0  0  0  0
  192.5020  175.7310  144.9350 C   0  0  1  0  0  3  0  0  0  0  0  0
  189.9430  178.2630  148.1900 C   0  0  0  0  0  2  0  0  0  0  0  0
  191.2350  176.7770  146.5990 C   0  0  1  0  0  3  0  0  0  0  0  0
  193.9740  174.1780  143.6440 C   0  0  0  0  0  2  0  0  0  0  0  0
  194.4640  174.4000  142.3550 O   0  0  0  0  0  0  0  0  0  0  0  0
  196.3510  176.7350  141.8240 N   0  0  0  0  0  2  0  0  0  0  0  0
  196.2260  175.3100  144.0810 S   0  0  0  0  0  0  0  0  0  0  0  0
  195.8490  174.4870  142.5100 C   0  0  2  0  0  3  0  0  0  0  0  0
  196.8420  176.7690  143.1900 C   0  0  0  0  0  2  0  0  0  0  0  0
  196.4280  175.3460  141.4080 C   0  0  0  0  0  2  0  0  0  0  0  0
  1 26  1  1  0  0  0
  3  7  1  1  0  0  0
  3 16  1  0  0  0  0
  4 23  1  6  0  0  0
  5 11  1  1  0  0  0
  5 15  1  0  0  0  0
  6 19  1  0  0  0  0
  8 16  1  6  0  0  0
  8 12  1  0  0  0  0
  9 27  1  0  0  0  0
 10 17  1  0  0  0  0
 11 20  1  0  0  0  0
 13  9  1  0  0  0  0
 13 20  1  0  0  0  0
 14  2  1  0  0  0  0
 15  8  1  0  0  0  0
 15 12  1  0  0  0  0
 15  4  1  0  0  0  0
 17 25  1  0  0  0  0
 18  4  1  0  0  0  0
 18  1  1  0  0  0  0
 19  3  1  0  0  0  0
 19  5  1  0  0  0  0
 20 18  1  0  0  0  0
 22 10  1  0  0  0  0
 22 24  1  0  0  0  0
 23 21  1  0  0  0  0
 24 13  1  0  0  0  0
 25  9  1  0  0  0  0
 25 14  1  0  0  0  0
 26 21  1  0  0  0  0
 27  1  1  0  0  0  0
 27  2  1  0  0  0  0
 28 17  1  0  0  0  0
 29 32  1  0  0  0  0
 29 28  1  0  0  0  0
 30 33  1  0  0  0  0
 32 31  1  0  0  0  0
 33 31  1  0  0  0  0
 34 30  1  0  0  0  0
 34 32  1  0  0  0  0
M  END
>  <MODEL>
9

>  <REMARK>
 VINA RESULT:      -7.0      1.725      3.821
  Name = 
  3 active torsions:
  status: ('A' for Active; 'I' for Inactive)
    1  A    between atoms: C_17  and  C_28
    2  A    between atoms: C_28  and  O_29
    3  A    between atoms: O_29  and  C_32
                            x       y       z     vdW  Elec       q    Type
                         _______ _______ _______ _____ _____    ______ ____

>  <TORSDO>
F 3

$$$$
