=
 OpenBabel11112416523D

 31 35  0  0  1  0  0  0  0  0999 V2000
  185.0300  178.0120  146.9340 C   0  0  0  0  0  0  0  0  0  0  0  0
  187.5830  175.6810  145.3400 C   0  0  2  0  0  3  0  0  0  0  0  0
  187.5790  176.0070  143.8490 C   0  0  0  0  0  0  0  0  0  0  0  0
  186.6430  177.2210  141.9050 N   0  0  0  0  0  0  0  0  0  0  0  0
  186.9820  176.7890  146.1680 C   0  0  0  0  0  0  0  0  0  0  0  0
  185.8540  178.9010  147.6270 C   0  0  0  0  0  3  0  0  0  0  0  0
  186.3750  176.6990  143.2460 C   0  0  0  0  0  2  0  0  0  0  0  0
  189.8070  176.5830  145.9160 N   0  0  0  0  0  0  0  0  0  0  0  0
  183.6860  178.1730  146.9600 F   0  0  0  0  0  0  0  0  0  0  0  0
  189.6090  174.7250  143.5720 N   0  0  0  0  0  2  0  0  0  0  0  0
  185.7110  178.1670  141.3230 C   0  0  0  0  0  1  0  0  0  0  0  0
  189.2860  177.4320  146.9930 C   0  0  0  0  0  2  0  0  0  0  0  0
  188.9990  175.3490  145.8620 C   0  0  2  0  0  3  0  0  0  0  0  0
  185.5920  176.9580  146.2080 C   0  0  0  0  0  3  0  0  0  0  0  0
  187.6570  176.6490  141.0760 C   0  0  0  0  0  3  0  0  0  0  0  0
  187.8110  177.6850  146.8730 C   0  0  0  0  0  0  0  0  0  0  0  0
  187.2410  178.7300  147.6060 C   0  0  0  0  0  3  0  0  0  0  0  0
  189.6130  174.2760  144.9580 C   0  0  0  0  0  2  0  0  0  0  0  0
  188.5410  175.5120  143.0390 C   0  0  0  0  0  0  0  0  0  0  0  0
  188.5600  175.8270  141.6020 C   0  0  0  0  0  3  0  0  0  0  0  0
  191.1780  176.2550  146.3090 C   0  0  0  0  0  2  0  0  0  0  0  0
  191.5340  177.2010  144.1400 O   0  0  0  0  0  1  0  0  0  0  0  0
  192.1890  176.8600  145.3300 C   0  0  2  0  0  3  0  0  0  0  0  0
  196.0860  175.3520  144.6740 N   0  0  0  0  0  0  0  0  0  0  0  0
  193.9890  176.2860  143.8330 C   0  0  0  0  0  2  0  0  0  0  0  0
  194.7520  177.2620  146.3920 O   0  0  0  0  0  1  0  0  0  0  0  0
  197.0670  174.3140  144.4230 C   0  0  0  0  0  1  0  0  0  0  0  0
  195.1220  175.2950  143.5760 C   0  0  0  0  0  2  0  0  0  0  0  0
  194.2540  175.9670  146.1930 C   0  0  1  0  0  3  0  0  0  0  0  0
  193.2940  175.9240  145.0740 N   0  0  0  0  0  0  0  0  0  0  0  0
  195.4090  174.9990  145.9220 C   0  0  0  0  0  2  0  0  0  0  0  0
  1  9  1  0  0  0  0
  1  6  1  0  0  0  0
  2  3  1  6  0  0  0
  2 13  1  0  0  0  0
  2  5  1  0  0  0  0
  4  7  1  0  0  0  0
  5 14  1  0  0  0  0
  5 16  2  0  0  0  0
  7  3  1  0  0  0  0
  8 21  1  0  0  0  0
  8 12  1  0  0  0  0
 10 18  1  0  0  0  0
 11  4  1  0  0  0  0
 13 18  1  6  0  0  0
 13  8  1  0  0  0  0
 14  1  2  0  0  0  0
 15 20  2  0  0  0  0
 15  4  1  0  0  0  0
 16 12  1  0  0  0  0
 16 17  1  0  0  0  0
 17  6  2  0  0  0  0
 19 10  1  0  0  0  0
 19  3  2  0  0  0  0
 20 19  1  0  0  0  0
 23 22  1  6  0  0  0
 23 21  1  0  0  0  0
 24 31  1  0  0  0  0
 25 30  1  0  0  0  0
 27 24  1  0  0  0  0
 28 25  1  0  0  0  0
 28 24  1  0  0  0  0
 29 26  1  6  0  0  0
 30 23  1  0  0  0  0
 30 29  1  0  0  0  0
 31 29  1  0  0  0  0
M  END
>  <MODEL>
1

>  <REMARK>
 VINA RESULT:      -8.2      0.000      0.000
  Name = 
  3 active torsions:
  status: ('A' for Active; 'I' for Inactive)
    1  A    between atoms: C_5  and  C_16
    2  A    between atoms: C_5  and  N_30
    3  A    between atoms: N_10  and  C_16
                            x       y       z     vdW  Elec       q    Type
                         _______ _______ _______ _____ _____    ______ ____

>  <TORSDO>
F 3

$$$$
=
 OpenBabel11112416523D

 31 35  0  0  1  0  0  0  0  0999 V2000
  195.5410  174.7780  144.3370 C   0  0  0  0  0  0  0  0  0  0  0  0
  192.2710  176.4650  143.3600 C   0  0  2  0  0  3  0  0  0  0  0  0
  191.4520  175.4050  142.6290 C   0  0  0  0  0  0  0  0  0  0  0  0
  191.2320  173.1470  141.6390 N   0  0  0  0  0  0  0  0  0  0  0  0
  193.3720  175.8590  144.1940 C   0  0  0  0  0  0  0  0  0  0  0  0
  195.3890  174.6470  145.7190 C   0  0  0  0  0  3  0  0  0  0  0  0
  192.1590  174.2130  142.0190 C   0  0  0  0  0  2  0  0  0  0  0  0
  190.9250  176.6240  145.4220 N   0  0  0  0  0  0  0  0  0  0  0  0
  196.6600  174.3130  143.7320 F   0  0  0  0  0  0  0  0  0  0  0  0
  189.4960  176.8150  142.7950 N   0  0  0  0  0  2  0  0  0  0  0  0
  191.7640  171.8330  141.3330 C   0  0  0  0  0  1  0  0  0  0  0  0
  192.0740  176.3810  146.3020 C   0  0  0  0  0  2  0  0  0  0  0  0
  191.3910  177.3780  144.2420 C   0  0  2  0  0  3  0  0  0  0  0  0
  194.5370  175.3840  143.5770 C   0  0  0  0  0  3  0  0  0  0  0  0
  189.8640  173.4270  141.3350 C   0  0  0  0  0  3  0  0  0  0  0  0
  193.2240  175.7300  145.5900 C   0  0  0  0  0  0  0  0  0  0  0  0
  194.2380  175.1330  146.3460 C   0  0  0  0  0  3  0  0  0  0  0  0
  190.2400  177.9180  143.3890 C   0  0  0  0  0  2  0  0  0  0  0  0
  190.1470  175.6200  142.3550 C   0  0  0  0  0  0  0  0  0  0  0  0
  189.3380  174.6040  141.6630 C   0  0  0  0  0  3  0  0  0  0  0  0
  190.0070  177.4530  146.2040 C   0  0  0  0  0  2  0  0  0  0  0  0
  188.6950  175.5000  145.7710 O   0  0  0  0  0  1  0  0  0  0  0  0
  188.6810  176.7260  146.4470 C   0  0  2  0  0  3  0  0  0  0  0  0
  184.7180  178.0240  145.7380 N   0  0  0  0  0  0  0  0  0  0  0  0
  186.7300  176.8260  145.0340 C   0  0  0  0  0  2  0  0  0  0  0  0
  186.2460  176.7390  147.8350 O   0  0  0  0  0  1  0  0  0  0  0  0
  183.7030  178.9470  145.2670 C   0  0  0  0  0  1  0  0  0  0  0  0
  185.5640  177.7050  144.5890 C   0  0  0  0  0  2  0  0  0  0  0  0
  186.7040  177.8910  147.1820 C   0  0  1  0  0  3  0  0  0  0  0  0
  187.5430  177.5520  146.0170 N   0  0  0  0  0  0  0  0  0  0  0  0
  185.5150  178.7450  146.7320 C   0  0  0  0  0  2  0  0  0  0  0  0
  1  6  1  0  0  0  0
  2  3  1  1  0  0  0
  2  5  1  0  0  0  0
  2 13  1  0  0  0  0
  4  7  1  0  0  0  0
  5 16  2  0  0  0  0
  6 17  2  0  0  0  0
  7  3  1  0  0  0  0
  8 21  1  0  0  0  0
  8 12  1  0  0  0  0
  9  1  1  0  0  0  0
 10 18  1  0  0  0  0
 11  4  1  0  0  0  0
 13 18  1  6  0  0  0
 13  8  1  0  0  0  0
 14  5  1  0  0  0  0
 14  1  2  0  0  0  0
 15  4  1  0  0  0  0
 15 20  2  0  0  0  0
 16 12  1  0  0  0  0
 16 17  1  0  0  0  0
 19  3  2  0  0  0  0
 19 10  1  0  0  0  0
 20 19  1  0  0  0  0
 21 23  1  0  0  0  0
 23 22  1  6  0  0  0
 24 31  1  0  0  0  0
 25 30  1  0  0  0  0
 27 24  1  0  0  0  0
 28 25  1  0  0  0  0
 28 24  1  0  0  0  0
 29 26  1  6  0  0  0
 30 23  1  0  0  0  0
 30 29  1  0  0  0  0
 31 29  1  0  0  0  0
M  END
>  <MODEL>
2

>  <REMARK>
 VINA RESULT:      -7.7      3.497      7.487
  Name = 
  3 active torsions:
  status: ('A' for Active; 'I' for Inactive)
    1  A    between atoms: C_5  and  C_16
    2  A    between atoms: C_5  and  N_30
    3  A    between atoms: N_10  and  C_16
                            x       y       z     vdW  Elec       q    Type
                         _______ _______ _______ _____ _____    ______ ____

>  <TORSDO>
F 3

$$$$
=
 OpenBabel11112416523D

 31 35  0  0  1  0  0  0  0  0999 V2000
  187.3980  177.4140  140.8890 C   0  0  0  0  0  0  0  0  0  0  0  0
  188.9150  177.4680  144.3800 C   0  0  2  0  0  3  0  0  0  0  0  0
  187.7630  177.7650  145.3360 C   0  0  0  0  0  0  0  0  0  0  0  0
  185.3960  178.3600  145.7470 N   0  0  0  0  0  0  0  0  0  0  0  0
  188.4300  176.9710  143.0400 C   0  0  0  0  0  0  0  0  0  0  0  0
  187.4410  176.0520  140.5830 C   0  0  0  0  0  3  0  0  0  0  0  0
  186.5110  178.4280  144.8030 C   0  0  0  0  0  2  0  0  0  0  0  0
  189.3210  175.1140  145.0010 N   0  0  0  0  0  0  0  0  0  0  0  0
  186.8710  178.2910  140.0010 F   0  0  0  0  0  0  0  0  0  0  0  0
  189.1640  177.1400  147.2030 N   0  0  0  0  0  2  0  0  0  0  0  0
  184.0590  178.6660  145.2760 C   0  0  0  0  0  1  0  0  0  0  0  0
  189.2020  174.6320  143.6200 C   0  0  0  0  0  2  0  0  0  0  0  0
  189.9240  176.4610  144.9750 C   0  0  2  0  0  3  0  0  0  0  0  0
  187.8930  177.8730  142.1120 C   0  0  0  0  0  3  0  0  0  0  0  0
  185.6220  178.2340  147.1530 C   0  0  0  0  0  3  0  0  0  0  0  0
  188.4780  175.5980  142.7270 C   0  0  0  0  0  0  0  0  0  0  0  0
  187.9920  175.1480  141.4960 C   0  0  0  0  0  3  0  0  0  0  0  0
  190.3410  176.9520  146.3650 C   0  0  0  0  0  2  0  0  0  0  0  0
  187.9290  177.6250  146.6690 C   0  0  0  0  0  0  0  0  0  0  0  0
  186.8260  177.8940  147.6050 C   0  0  0  0  0  3  0  0  0  0  0  0
  190.2330  174.1800  145.6600 C   0  0  0  0  0  2  0  0  0  0  0  0
  191.0750  172.1870  144.6380 O   0  0  0  0  0  1  0  0  0  0  0  0
  191.2240  173.5790  144.6570 C   0  0  2  0  0  3  0  0  0  0  0  0
  195.4110  174.1060  144.3740 N   0  0  0  0  0  0  0  0  0  0  0  0
  193.4660  172.7700  145.0140 C   0  0  0  0  0  2  0  0  0  0  0  0
  193.0660  174.3700  142.6980 O   0  0  0  0  0  1  0  0  0  0  0  0
  196.7140  174.5410  144.8400 C   0  0  0  0  0  1  0  0  0  0  0  0
  194.8910  173.1810  145.3800 C   0  0  0  0  0  2  0  0  0  0  0  0
  193.1190  174.9090  143.9900 C   0  0  1  0  0  3  0  0  0  0  0  0
  192.6040  173.9580  144.9930 N   0  0  0  0  0  0  0  0  0  0  0  0
  194.5600  175.2960  144.3360 C   0  0  0  0  0  2  0  0  0  0  0  0
  1 14  1  0  0  0  0
  2  5  1  6  0  0  0
  2 13  1  0  0  0  0
  2  3  1  0  0  0  0
  3 19  2  0  0  0  0
  4 15  1  0  0  0  0
  6  1  2  0  0  0  0
  6 17  1  0  0  0  0
  7  3  1  0  0  0  0
  7  4  1  0  0  0  0
  8 21  1  0  0  0  0
  9  1  1  0  0  0  0
 11  4  1  0  0  0  0
 12  8  1  0  0  0  0
 13  8  1  0  0  0  0
 13 18  1  1  0  0  0
 14  5  2  0  0  0  0
 15 20  2  0  0  0  0
 16  5  1  0  0  0  0
 16 12  1  0  0  0  0
 17 16  2  0  0  0  0
 18 10  1  0  0  0  0
 19 10  1  0  0  0  0
 19 20  1  0  0  0  0
 23 22  1  1  0  0  0
 23 30  1  0  0  0  0
 23 21  1  0  0  0  0
 24 27  1  0  0  0  0
 24 28  1  0  0  0  0
 25 28  1  0  0  0  0
 29 26  1  6  0  0  0
 29 31  1  0  0  0  0
 29 30  1  0  0  0  0
 30 25  1  0  0  0  0
 31 24  1  0  0  0  0
M  END
>  <MODEL>
3

>  <REMARK>
 VINA RESULT:      -7.6      2.384      4.356
  Name = 
  3 active torsions:
  status: ('A' for Active; 'I' for Inactive)
    1  A    between atoms: C_5  and  C_16
    2  A    between atoms: C_5  and  N_30
    3  A    between atoms: N_10  and  C_16
                            x       y       z     vdW  Elec       q    Type
                         _______ _______ _______ _____ _____    ______ ____

>  <TORSDO>
F 3

$$$$
=
 OpenBabel11112416523D

 31 35  0  0  1  0  0  0  0  0999 V2000
  190.3910  171.2280  142.3690 C   0  0  0  0  0  0  0  0  0  0  0  0
  190.6360  174.1390  144.8110 C   0  0  2  0  0  3  0  0  0  0  0  0
  192.1180  174.2810  145.1500 C   0  0  0  0  0  0  0  0  0  0  0  0
  194.4540  173.4790  145.0020 N   0  0  0  0  0  0  0  0  0  0  0  0
  190.4150  173.3540  143.5420 C   0  0  0  0  0  0  0  0  0  0  0  0
  190.0970  171.8870  141.1740 C   0  0  0  0  0  3  0  0  0  0  0  0
  193.0420  173.1020  144.9370 C   0  0  0  0  0  2  0  0  0  0  0  0
  190.3570  176.1960  143.4750 N   0  0  0  0  0  0  0  0  0  0  0  0
  190.5300  169.8820  142.3840 F   0  0  0  0  0  0  0  0  0  0  0  0
  191.6700  176.4320  146.1590 N   0  0  0  0  0  2  0  0  0  0  0  0
  195.4520  172.5450  144.5190 C   0  0  0  0  0  1  0  0  0  0  0  0
  189.7930  175.4820  142.3230 C   0  0  0  0  0  2  0  0  0  0  0  0
  189.9260  175.5070  144.7080 C   0  0  2  0  0  3  0  0  0  0  0  0
  190.5470  171.9590  143.5510 C   0  0  0  0  0  3  0  0  0  0  0  0
  194.8810  174.6280  145.7370 C   0  0  0  0  0  3  0  0  0  0  0  0
  190.1130  174.0150  142.3350 C   0  0  0  0  0  0  0  0  0  0  0  0
  189.9460  173.2770  141.1590 C   0  0  0  0  0  3  0  0  0  0  0  0
  190.2300  176.3110  145.9750 C   0  0  0  0  0  2  0  0  0  0  0  0
  192.5640  175.3700  145.8140 C   0  0  0  0  0  0  0  0  0  0  0  0
  193.9900  175.5300  146.1380 C   0  0  0  0  0  3  0  0  0  0  0  0
  189.7670  177.5340  143.4280 C   0  0  0  0  0  2  0  0  0  0  0  0
  188.2820  178.2920  141.7130 O   0  0  0  0  0  1  0  0  0  0  0  0
  188.3460  177.4890  142.8570 C   0  0  2  0  0  3  0  0  0  0  0  0
  184.6580  178.1910  144.8050 N   0  0  0  0  0  0  0  0  0  0  0  0
  186.4320  178.8920  143.2760 C   0  0  0  0  0  2  0  0  0  0  0  0
  185.9580  176.0890  143.2980 O   0  0  0  0  0  1  0  0  0  0  0  0
  183.8130  178.6660  145.8830 C   0  0  0  0  0  1  0  0  0  0  0  0
  185.4300  179.3410  144.3370 C   0  0  0  0  0  2  0  0  0  0  0  0
  186.6020  176.7560  144.3490 C   0  0  1  0  0  3  0  0  0  0  0  0
  187.3640  177.9210  143.8620 N   0  0  0  0  0  0  0  0  0  0  0  0
  185.5730  177.2080  145.3890 C   0  0  0  0  0  2  0  0  0  0  0  0
  1  9  1  0  0  0  0
  1 14  1  0  0  0  0
  2  5  1  6  0  0  0
  2  3  1  0  0  0  0
  3 19  2  0  0  0  0
  4 15  1  0  0  0  0
  5 14  2  0  0  0  0
  6  1  2  0  0  0  0
  7  4  1  0  0  0  0
  7  3  1  0  0  0  0
  8 13  1  0  0  0  0
 11  4  1  0  0  0  0
 12 16  1  0  0  0  0
 12  8  1  0  0  0  0
 13  2  1  0  0  0  0
 13 18  1  1  0  0  0
 15 20  2  0  0  0  0
 16  5  1  0  0  0  0
 17  6  1  0  0  0  0
 17 16  2  0  0  0  0
 18 10  1  0  0  0  0
 19 20  1  0  0  0  0
 19 10  1  0  0  0  0
 21  8  1  0  0  0  0
 23 22  1  6  0  0  0
 23 21  1  0  0  0  0
 23 30  1  0  0  0  0
 24 31  1  0  0  0  0
 24 27  1  0  0  0  0
 25 30  1  0  0  0  0
 25 28  1  0  0  0  0
 28 24  1  0  0  0  0
 29 26  1  6  0  0  0
 29 31  1  0  0  0  0
 30 29  1  0  0  0  0
M  END
>  <MODEL>
4

>  <REMARK>
 VINA RESULT:      -7.5      3.299      7.881
  Name = 
  3 active torsions:
  status: ('A' for Active; 'I' for Inactive)
    1  A    between atoms: C_5  and  C_16
    2  A    between atoms: C_5  and  N_30
    3  A    between atoms: N_10  and  C_16
                            x       y       z     vdW  Elec       q    Type
                         _______ _______ _______ _____ _____    ______ ____

>  <TORSDO>
F 3

$$$$
=
 OpenBabel11112416523D

 31 35  0  0  1  0  0  0  0  0999 V2000
  193.6190  170.7710  144.6020 C   0  0  0  0  0  0  0  0  0  0  0  0
  194.3400  174.3650  145.6270 C   0  0  2  0  0  3  0  0  0  0  0  0
  195.3100  174.9150  144.5840 C   0  0  0  0  0  0  0  0  0  0  0  0
  196.7630  174.5970  142.6050 N   0  0  0  0  0  0  0  0  0  0  0  0
  193.6120  173.1380  145.1370 C   0  0  0  0  0  0  0  0  0  0  0  0
  192.3030  170.8660  144.1450 C   0  0  0  0  0  3  0  0  0  0  0  0
  196.1310  173.9500  143.7550 C   0  0  0  0  0  2  0  0  0  0  0  0
  192.3430  175.6800  145.0140 N   0  0  0  0  0  0  0  0  0  0  0  0
  194.2660  169.5820  144.5590 F   0  0  0  0  0  0  0  0  0  0  0  0
  194.9230  177.1510  145.4170 N   0  0  0  0  0  2  0  0  0  0  0  0
  197.3190  173.7680  141.5540 C   0  0  0  0  0  1  0  0  0  0  0  0
  191.4920  174.4930  144.8690 C   0  0  0  0  0  2  0  0  0  0  0  0
  193.3180  175.4270  146.0920 C   0  0  2  0  0  3  0  0  0  0  0  0
  194.2710  171.9020  145.0990 C   0  0  0  0  0  3  0  0  0  0  0  0
  197.0510  175.9970  142.6090 C   0  0  0  0  0  3  0  0  0  0  0  0
  192.2820  173.2300  144.6810 C   0  0  0  0  0  0  0  0  0  0  0  0
  191.6320  172.0910  144.1960 C   0  0  0  0  0  3  0  0  0  0  0  0
  194.0810  176.6870  146.5120 C   0  0  0  0  0  2  0  0  0  0  0  0
  195.5810  176.2370  144.5350 C   0  0  0  0  0  0  0  0  0  0  0  0
  196.5030  176.7870  143.5280 C   0  0  0  0  0  3  0  0  0  0  0  0
  191.4390  176.7590  145.4120 C   0  0  0  0  0  2  0  0  0  0  0  0
  190.7250  177.6120  143.2940 O   0  0  0  0  0  1  0  0  0  0  0  0
  190.2830  176.9030  144.4170 C   0  0  2  0  0  3  0  0  0  0  0  0
  186.4160  177.5710  145.9930 N   0  0  0  0  0  0  0  0  0  0  0  0
  187.9890  177.5820  144.1220 C   0  0  0  0  0  2  0  0  0  0  0  0
  188.4490  175.5110  146.0150 O   0  0  0  0  0  1  0  0  0  0  0  0
  185.3740  178.3570  146.6270 C   0  0  0  0  0  1  0  0  0  0  0  0
  186.8100  178.2920  144.7840 C   0  0  0  0  0  2  0  0  0  0  0  0
  188.7510  176.8540  146.2750 C   0  0  1  0  0  3  0  0  0  0  0  0
  189.1330  177.5700  145.0430 N   0  0  0  0  0  0  0  0  0  0  0  0
  187.5470  177.5450  146.9230 C   0  0  0  0  0  2  0  0  0  0  0  0
  1 14  1  0  0  0  0
  2  3  1  6  0  0  0
  2 13  1  0  0  0  0
  4 15  1  0  0  0  0
  4  7  1  0  0  0  0
  5  2  1  0  0  0  0
  6 17  1  0  0  0  0
  6  1  2  0  0  0  0
  7  3  1  0  0  0  0
  8 21  1  0  0  0  0
  8 13  1  0  0  0  0
  9  1  1  0  0  0  0
 10 18  1  0  0  0  0
 11  4  1  0  0  0  0
 12  8  1  0  0  0  0
 13 18  1  6  0  0  0
 14  5  2  0  0  0  0
 15 20  2  0  0  0  0
 16 12  1  0  0  0  0
 16  5  1  0  0  0  0
 17 16  2  0  0  0  0
 19  3  2  0  0  0  0
 19 10  1  0  0  0  0
 20 19  1  0  0  0  0
 23 22  1  6  0  0  0
 23 30  1  0  0  0  0
 23 21  1  0  0  0  0
 24 27  1  0  0  0  0
 24 31  1  0  0  0  0
 25 28  1  0  0  0  0
 25 30  1  0  0  0  0
 28 24  1  0  0  0  0
 29 26  1  6  0  0  0
 29 31  1  0  0  0  0
 30 29  1  0  0  0  0
M  END
>  <MODEL>
5

>  <REMARK>
 VINA RESULT:      -7.3      3.390      8.161
  Name = 
  3 active torsions:
  status: ('A' for Active; 'I' for Inactive)
    1  A    between atoms: C_5  and  C_16
    2  A    between atoms: C_5  and  N_30
    3  A    between atoms: N_10  and  C_16
                            x       y       z     vdW  Elec       q    Type
                         _______ _______ _______ _____ _____    ______ ____

>  <TORSDO>
F 3

$$$$
=
 OpenBabel11112416523D

 31 35  0  0  1  0  0  0  0  0999 V2000
  191.1290  171.2150  142.9950 C   0  0  0  0  0  0  0  0  0  0  0  0
  190.4790  174.1140  145.3760 C   0  0  2  0  0  3  0  0  0  0  0  0
  191.8500  174.6920  145.7200 C   0  0  0  0  0  0  0  0  0  0  0  0
  194.3210  174.6100  145.6030 N   0  0  0  0  0  0  0  0  0  0  0  0
  190.5130  173.2750  144.1230 C   0  0  0  0  0  0  0  0  0  0  0  0
  190.6680  171.7370  141.7840 C   0  0  0  0  0  3  0  0  0  0  0  0
  193.0820  173.8330  145.5380 C   0  0  0  0  0  2  0  0  0  0  0  0
  189.6240  175.9730  143.9960 N   0  0  0  0  0  0  0  0  0  0  0  0
  191.6570  169.9690  143.0390 F   0  0  0  0  0  0  0  0  0  0  0  0
  190.7780  176.6340  146.6810 N   0  0  0  0  0  2  0  0  0  0  0  0
  195.5540  174.0010  145.1450 C   0  0  0  0  0  1  0  0  0  0  0  0
  189.3080  175.1040  142.8560 C   0  0  0  0  0  2  0  0  0  0  0  0
  189.4000  175.2110  145.2400 C   0  0  2  0  0  3  0  0  0  0  0  0
  191.0500  171.9810  144.1620 C   0  0  0  0  0  3  0  0  0  0  0  0
  194.3820  175.8470  146.3160 C   0  0  0  0  0  3  0  0  0  0  0  0
  190.0440  173.7960  142.9000 C   0  0  0  0  0  0  0  0  0  0  0  0
  190.1160  173.0190  141.7390 C   0  0  0  0  0  3  0  0  0  0  0  0
  189.4390  176.0920  146.4910 C   0  0  0  0  0  2  0  0  0  0  0  0
  191.9490  175.8760  146.3640 C   0  0  0  0  0  0  0  0  0  0  0  0
  193.2610  176.4550  146.6920 C   0  0  0  0  0  3  0  0  0  0  0  0
  188.6680  177.0770  143.9170 C   0  0  0  0  0  2  0  0  0  0  0  0
  189.3150  178.3320  141.9850 O   0  0  0  0  0  1  0  0  0  0  0  0
  188.3540  177.4300  142.4600 C   0  0  2  0  0  3  0  0  0  0  0  0
  184.1930  177.7180  141.7570 N   0  0  0  0  0  0  0  0  0  0  0  0
  186.5040  177.8160  140.9640 C   0  0  0  0  0  2  0  0  0  0  0  0
  186.0660  175.9170  143.0350 O   0  0  0  0  0  1  0  0  0  0  0  0
  182.9190  178.4070  141.6820 C   0  0  0  0  0  1  0  0  0  0  0  0
  185.1040  178.4150  140.8500 C   0  0  0  0  0  2  0  0  0  0  0  0
  186.0880  177.2990  143.2670 C   0  0  1  0  0  3  0  0  0  0  0  0
  187.0000  177.9880  142.3350 N   0  0  0  0  0  0  0  0  0  0  0  0
  184.6760  177.8750  143.1300 C   0  0  0  0  0  2  0  0  0  0  0  0
  1  9  1  0  0  0  0
  1 14  1  0  0  0  0
  2  5  1  6  0  0  0
  2  3  1  0  0  0  0
  3 19  2  0  0  0  0
  4 15  1  0  0  0  0
  5 14  2  0  0  0  0
  6  1  2  0  0  0  0
  7  4  1  0  0  0  0
  7  3  1  0  0  0  0
  8 13  1  0  0  0  0
 11  4  1  0  0  0  0
 12 16  1  0  0  0  0
 12  8  1  0  0  0  0
 13  2  1  0  0  0  0
 13 18  1  1  0  0  0
 15 20  2  0  0  0  0
 16  5  1  0  0  0  0
 17  6  1  0  0  0  0
 17 16  2  0  0  0  0
 18 10  1  0  0  0  0
 19 10  1  0  0  0  0
 19 20  1  0  0  0  0
 21  8  1  0  0  0  0
 23 22  1  1  0  0  0
 23 21  1  0  0  0  0
 24 31  1  0  0  0  0
 25 30  1  0  0  0  0
 27 24  1  0  0  0  0
 28 25  1  0  0  0  0
 28 24  1  0  0  0  0
 29 26  1  6  0  0  0
 30 23  1  0  0  0  0
 30 29  1  0  0  0  0
 31 29  1  0  0  0  0
M  END
>  <MODEL>
6

>  <REMARK>
 VINA RESULT:      -7.3      3.234      8.042
  Name = 
  3 active torsions:
  status: ('A' for Active; 'I' for Inactive)
    1  A    between atoms: C_5  and  C_16
    2  A    between atoms: C_5  and  N_30
    3  A    between atoms: N_10  and  C_16
                            x       y       z     vdW  Elec       q    Type
                         _______ _______ _______ _____ _____    ______ ____

>  <TORSDO>
F 3

$$$$
=
 OpenBabel11112416523D

 31 35  0  0  1  0  0  0  0  0999 V2000
  186.1630  177.2100  142.2240 C   0  0  0  0  0  0  0  0  0  0  0  0
  188.7530  174.9520  143.8620 C   0  0  2  0  0  3  0  0  0  0  0  0
  189.1140  173.8980  142.8190 C   0  0  0  0  0  0  0  0  0  0  0  0
  188.7640  172.8340  140.6110 N   0  0  0  0  0  0  0  0  0  0  0  0
  188.1000  176.1640  143.2460 C   0  0  0  0  0  0  0  0  0  0  0  0
  186.8990  178.3780  142.0150 C   0  0  0  0  0  3  0  0  0  0  0  0
  188.1530  173.6200  141.6830 C   0  0  0  0  0  2  0  0  0  0  0  0
  190.8740  176.2140  143.8710 N   0  0  0  0  0  0  0  0  0  0  0  0
  184.8700  177.1430  141.8260 F   0  0  0  0  0  0  0  0  0  0  0  0
  191.0130  173.2350  144.1600 N   0  0  0  0  0  2  0  0  0  0  0  0
  188.0870  172.7490  139.3320 C   0  0  0  0  0  1  0  0  0  0  0  0
  190.2160  177.5010  143.6160 C   0  0  0  0  0  2  0  0  0  0  0  0
  189.9750  175.3880  144.7010 C   0  0  2  0  0  3  0  0  0  0  0  0
  186.7610  176.1070  142.8400 C   0  0  0  0  0  3  0  0  0  0  0  0
  189.8730  171.9700  140.8670 C   0  0  0  0  0  3  0  0  0  0  0  0
  188.8390  177.3460  143.0380 C   0  0  0  0  0  0  0  0  0  0  0  0
  188.2310  178.4500  142.4320 C   0  0  0  0  0  3  0  0  0  0  0  0
  190.6620  174.1340  145.2510 C   0  0  0  0  0  2  0  0  0  0  0  0
  190.1760  173.0850  143.0100 C   0  0  0  0  0  0  0  0  0  0  0  0
  190.5470  172.0720  142.0080 C   0  0  0  0  0  3  0  0  0  0  0  0
  192.0820  176.5400  144.6300 C   0  0  0  0  0  2  0  0  0  0  0  0
  192.9840  175.7920  142.5440 O   0  0  0  0  0  1  0  0  0  0  0  0
  193.3420  176.1580  143.8470 C   0  0  2  0  0  3  0  0  0  0  0  0
  196.3630  173.3590  144.8120 N   0  0  0  0  0  0  0  0  0  0  0  0
  194.3490  173.9860  143.5740 C   0  0  0  0  0  2  0  0  0  0  0  0
  196.1370  176.1440  144.0540 O   0  0  0  0  0  1  0  0  0  0  0  0
  196.9550  172.2780  145.5760 C   0  0  0  0  0  1  0  0  0  0  0  0
  195.0890  172.8610  144.2950 C   0  0  0  0  0  2  0  0  0  0  0  0
  195.3420  175.5820  145.0610 C   0  0  1  0  0  3  0  0  0  0  0  0
  194.0680  175.0720  144.5200 N   0  0  0  0  0  0  0  0  0  0  0  0
  196.1010  174.4480  145.7550 C   0  0  0  0  0  2  0  0  0  0  0  0
  1 14  1  0  0  0  0
  2  3  1  6  0  0  0
  2 13  1  0  0  0  0
  3 19  2  0  0  0  0
  4 15  1  0  0  0  0
  4  7  1  0  0  0  0
  5  2  1  0  0  0  0
  6  1  2  0  0  0  0
  6 17  1  0  0  0  0
  7  3  1  0  0  0  0
  8 21  1  0  0  0  0
  8 13  1  0  0  0  0
  9  1  1  0  0  0  0
 10 18  1  0  0  0  0
 11  4  1  0  0  0  0
 12  8  1  0  0  0  0
 13 18  1  6  0  0  0
 14  5  2  0  0  0  0
 15 20  2  0  0  0  0
 16  5  1  0  0  0  0
 16 12  1  0  0  0  0
 17 16  2  0  0  0  0
 19 10  1  0  0  0  0
 20 19  1  0  0  0  0
 23 22  1  6  0  0  0
 23 30  1  0  0  0  0
 23 21  1  0  0  0  0
 24 27  1  0  0  0  0
 24 31  1  0  0  0  0
 25 28  1  0  0  0  0
 25 30  1  0  0  0  0
 28 24  1  0  0  0  0
 29 26  1  6  0  0  0
 29 31  1  0  0  0  0
 30 29  1  0  0  0  0
M  END
>  <MODEL>
7

>  <REMARK>
 VINA RESULT:      -7.0      2.794      3.471
  Name = 
  3 active torsions:
  status: ('A' for Active; 'I' for Inactive)
    1  A    between atoms: C_5  and  C_16
    2  A    between atoms: C_5  and  N_30
    3  A    between atoms: N_10  and  C_16
                            x       y       z     vdW  Elec       q    Type
                         _______ _______ _______ _____ _____    ______ ____

>  <TORSDO>
F 3

$$$$
=
 OpenBabel11112416523D

 31 35  0  0  1  0  0  0  0  0999 V2000
  185.2730  179.3140  143.5950 C   0  0  0  0  0  0  0  0  0  0  0  0
  188.6130  177.4870  143.5720 C   0  0  2  0  0  3  0  0  0  0  0  0
  188.6690  176.6940  144.8740 C   0  0  2  0  0  3  0  0  0  0  0  0
  187.7180  176.0890  147.0780 N   0  0  0  0  0  0  0  0  0  0  0  0
  187.2060  177.8960  143.2130 C   0  0  0  0  0  0  0  0  0  0  0  0
  184.5600  178.6090  142.6230 C   0  0  0  0  0  3  0  0  0  0  0  0
  187.7900  177.1110  146.0340 C   0  0  0  0  0  2  0  0  0  0  0  0
  188.3680  175.6050  141.9940 N   0  0  0  0  0  0  0  0  0  0  0  0
  184.6840  180.3370  144.2590 F   0  0  0  0  0  0  0  0  0  0  0  0
  190.5650  175.4560  144.0280 N   0  0  0  0  0  0  0  0  0  0  0  0
  186.6900  176.1970  148.0950 C   0  0  0  0  0  1  0  0  0  0  0  0
  187.1640  176.1650  141.3690 C   0  0  0  0  0  2  0  0  0  0  0  0
  189.2490  176.7200  142.3920 C   0  0  2  0  0  3  0  0  0  0  0  0
  186.5930  178.9600  143.8880 C   0  0  0  0  0  3  0  0  0  0  0  0
  188.7680  175.1350  147.2540 C   0  0  0  0  0  3  0  0  0  0  0  0
  186.4850  177.1910  142.2290 C   0  0  0  0  0  0  0  0  0  0  0  0
  185.1680  177.5580  141.9330 C   0  0  0  0  0  3  0  0  0  0  0  0
  190.6460  176.2520  142.8100 C   0  0  0  0  0  2  0  0  0  0  0  0
  189.6260  175.7590  145.0630 C   0  0  0  0  0  0  0  0  0  0  0  0
  189.6870  174.9750  146.3070 C   0  0  0  0  0  3  0  0  0  0  0  0
  189.0170  174.8140  140.9490 C   0  0  0  0  0  2  0  0  0  0  0  0
  187.7890  173.0540  142.0060 O   0  0  0  0  0  1  0  0  0  0  0  0
  188.9500  173.3180  141.2700 C   0  0  2  0  0  3  0  0  0  0  0  0
  191.9010  170.8320  143.0020 N   0  0  0  0  0  0  0  0  0  0  0  0
  189.7720  172.0280  143.1320 C   0  0  0  0  0  2  0  0  0  0  0  0
  190.3830  171.0210  140.5440 O   0  0  0  0  0  1  0  0  0  0  0  0
  193.1160  170.5590  143.7460 C   0  0  0  0  0  1  0  0  0  0  0  0
  191.0280  171.6010  143.8890 C   0  0  0  0  0  2  0  0  0  0  0  0
  191.0380  172.1280  141.0990 C   0  0  1  0  0  3  0  0  0  0  0  0
  190.1490  172.8840  142.0010 N   0  0  0  0  0  0  0  0  0  0  0  0
  192.2830  171.6700  141.8650 C   0  0  0  0  0  2  0  0  0  0  0  0
  1 14  1  0  0  0  0
  1  9  1  0  0  0  0
  2  5  1  6  0  0  0
  2  3  1  0  0  0  0
  3 19  1  0  0  0  0
  3  7  1  1  0  0  0
  4 15  1  0  0  0  0
  4 11  1  0  0  0  0
  5 14  2  0  0  0  0
  6  1  2  0  0  0  0
  7  4  1  0  0  0  0
  8 13  1  0  0  0  0
 10 19  2  0  0  0  0
 12  8  1  0  0  0  0
 12 16  1  0  0  0  0
 13 18  1  1  0  0  0
 13  2  1  0  0  0  0
 16  5  1  0  0  0  0
 17 16  2  0  0  0  0
 17  6  1  0  0  0  0
 18 10  1  0  0  0  0
 19 20  1  0  0  0  0
 20 15  2  0  0  0  0
 21 23  1  0  0  0  0
 21  8  1  0  0  0  0
 23 30  1  0  0  0  0
 23 22  1  1  0  0  0
 24 27  1  0  0  0  0
 24 28  1  0  0  0  0
 25 28  1  0  0  0  0
 29 26  1  1  0  0  0
 29 31  1  0  0  0  0
 29 30  1  0  0  0  0
 30 25  1  0  0  0  0
 31 24  1  0  0  0  0
M  END
>  <MODEL>
8

>  <REMARK>
 VINA RESULT:      -6.9      3.407      5.220
  Name = 
  3 active torsions:
  status: ('A' for Active; 'I' for Inactive)
    1  A    between atoms: C_5  and  C_16
    2  A    between atoms: C_5  and  N_30
    3  A    between atoms: N_10  and  C_16
                            x       y       z     vdW  Elec       q    Type
                         _______ _______ _______ _____ _____    ______ ____

>  <TORSDO>
F 3

$$$$
=
 OpenBabel11112416523D

 31 35  0  0  1  0  0  0  0  0999 V2000
  187.6550  177.0040  146.8870 C   0  0  0  0  0  0  0  0  0  0  0  0
  188.5790  175.1920  143.6690 C   0  0  2  0  0  3  0  0  0  0  0  0
  187.8260  175.9080  142.5510 C   0  0  2  0  0  3  0  0  0  0  0  0
  186.1870  177.5990  141.7880 N   0  0  0  0  0  0  0  0  0  0  0  0
  188.6870  176.0360  144.9140 C   0  0  0  0  0  0  0  0  0  0  0  0
  188.8440  177.6750  147.1840 C   0  0  0  0  0  3  0  0  0  0  0  0
  186.6050  176.7350  142.8920 C   0  0  0  0  0  2  0  0  0  0  0  0
  190.8710  175.9100  143.0970 N   0  0  0  0  0  0  0  0  0  0  0  0
  186.5760  177.1500  147.6910 F   0  0  0  0  0  0  0  0  0  0  0  0
  189.1760  174.7510  140.9130 N   0  0  0  0  0  0  0  0  0  0  0  0
  185.2410  178.6660  142.0530 C   0  0  0  0  0  1  0  0  0  0  0  0
  191.1400  176.4370  144.4400 C   0  0  0  0  0  2  0  0  0  0  0  0
  189.9870  174.7350  143.2260 C   0  0  2  0  0  3  0  0  0  0  0  0
  187.5780  176.1850  145.7570 C   0  0  0  0  0  3  0  0  0  0  0  0
  186.5020  177.2730  140.4330 C   0  0  0  0  0  3  0  0  0  0  0  0
  189.8870  176.7100  145.2200 C   0  0  0  0  0  0  0  0  0  0  0  0
  189.9610  177.5180  146.3590 C   0  0  0  0  0  3  0  0  0  0  0  0
  189.8540  173.9450  141.9200 C   0  0  0  0  0  2  0  0  0  0  0  0
  188.1190  175.6510  141.2570 C   0  0  0  0  0  0  0  0  0  0  0  0
  187.4120  176.3420  140.1670 C   0  0  0  0  0  3  0  0  0  0  0  0
  192.1720  175.4910  142.5770 C   0  0  0  0  0  2  0  0  0  0  0  0
  194.2470  176.4160  143.3260 O   0  0  0  0  0  1  0  0  0  0  0  0
  193.2370  175.5130  143.6780 C   0  0  2  0  0  3  0  0  0  0  0  0
  195.2760  172.2700  145.4730 N   0  0  0  0  0  0  0  0  0  0  0  0
  195.2490  174.2270  144.0070 C   0  0  0  0  0  2  0  0  0  0  0  0
  193.5130  174.4310  146.2490 O   0  0  0  0  0  1  0  0  0  0  0  0
  195.7470  170.9010  145.5580 C   0  0  0  0  0  1  0  0  0  0  0  0
  195.8020  172.8200  144.2240 C   0  0  0  0  0  2  0  0  0  0  0  0
  193.2370  173.6060  145.1510 C   0  0  1  0  0  3  0  0  0  0  0  0
  193.7860  174.1680  143.9030 N   0  0  0  0  0  0  0  0  0  0  0  0
  193.8160  172.2080  145.3880 C   0  0  0  0  0  2  0  0  0  0  0  0
  1  6  1  0  0  0  0
  1  9  1  0  0  0  0
  2  5  1  1  0  0  0
  3  7  1  6  0  0  0
  3  2  1  0  0  0  0
  4 11  1  0  0  0  0
  4  7  1  0  0  0  0
  5 16  2  0  0  0  0
  5 14  1  0  0  0  0
  8 13  1  0  0  0  0
  8 12  1  0  0  0  0
 10 19  2  0  0  0  0
 10 18  1  0  0  0  0
 12 16  1  0  0  0  0
 13 18  1  6  0  0  0
 13  2  1  0  0  0  0
 14  1  2  0  0  0  0
 15  4  1  0  0  0  0
 16 17  1  0  0  0  0
 17  6  2  0  0  0  0
 19  3  1  0  0  0  0
 20 15  2  0  0  0  0
 20 19  1  0  0  0  0
 21  8  1  0  0  0  0
 21 23  1  0  0  0  0
 23 22  1  6  0  0  0
 23 30  1  0  0  0  0
 24 27  1  0  0  0  0
 25 28  1  0  0  0  0
 28 24  1  0  0  0  0
 29 31  1  0  0  0  0
 29 26  1  1  0  0  0
 30 25  1  0  0  0  0
 30 29  1  0  0  0  0
 31 24  1  0  0  0  0
M  END
>  <MODEL>
9

>  <REMARK>
 VINA RESULT:      -6.9      1.981      2.660
  Name = 
  3 active torsions:
  status: ('A' for Active; 'I' for Inactive)
    1  A    between atoms: C_5  and  C_16
    2  A    between atoms: C_5  and  N_30
    3  A    between atoms: N_10  and  C_16
                            x       y       z     vdW  Elec       q    Type
                         _______ _______ _______ _____ _____    ______ ____

>  <TORSDO>
F 3

$$$$
