=
 OpenBabel11112416423D

 32 37  0  0  1  0  0  0  0  0999 V2000
  191.6250  176.0810  144.2780 C   0  0  1  0  0  3  0  0  0  0  0  0
  189.2760  173.0650  142.1690 C   0  0  0  0  0  2  0  0  0  0  0  0
  188.0380  173.9350  142.3410 C   0  0  0  0  0  2  0  0  0  0  0  0
  189.7660  176.5090  145.9560 C   0  0  2  0  0  3  0  0  0  0  0  0
  188.4300  177.2090  146.2470 C   0  0  2  0  0  3  0  0  0  0  0  0
  194.1010  175.9060  144.7850 C   0  0  2  0  0  3  0  0  0  0  0  0
  193.2360  175.2090  142.4680 C   0  0  0  0  0  2  0  0  0  0  0  0
  186.2360  177.6830  145.3030 C   0  0  1  0  0  3  0  0  0  0  0  0
  190.4820  173.7570  142.7900 C   0  0  0  0  0  2  0  0  0  0  0  0
  191.8820  175.8700  142.7820 C   0  0  1  0  0  3  0  0  0  0  0  0
  190.7220  175.1260  142.1360 C   0  0  2  0  0  3  0  0  0  0  0  0
  189.2230  176.6600  143.5420 C   0  0  0  0  0  0  0  0  0  0  0  0
  186.0830  176.8710  146.5790 C   0  0  0  0  0  2  0  0  0  0  0  0
  194.0390  174.7970  143.7120 C   0  0  2  0  0  3  0  0  0  0  0  0
  187.4350  176.2570  146.8660 C   0  0  0  0  0  2  0  0  0  0  0  0
  188.2440  175.2720  141.6350 C   0  0  0  0  0  2  0  0  0  0  0  0
  189.4700  176.0140  142.1890 C   0  0  2  0  0  3  0  0  0  0  0  0
  188.0420  177.1090  143.8040 N   0  0  0  0  0  0  0  0  0  0  0  0
  192.8430  176.7800  144.8710 C   0  0  0  0  0  2  0  0  0  0  0  0
  190.7330  176.8520  147.0770 C   0  0  0  0  0  1  0  0  0  0  0  0
  185.6250  179.0560  145.4980 C   0  0  0  0  0  1  0  0  0  0  0  0
  190.3320  176.8690  144.5680 C   0  0  2  0  0  3  0  0  0  0  0  0
  187.7250  177.8150  145.0290 C   0  0  2  0  0  3  0  0  0  0  0  0
  193.7660  172.3460  143.3820 C   0  0  0  0  0  2  0  0  0  0  0  0
  193.4810  173.5110  144.3070 C   0  0  1  0  0  3  0  0  0  0  0  0
  194.6210  172.5600  144.6130 C   0  0  1  0  0  3  0  0  0  0  0  0
  194.1820  171.6100  145.7100 C   0  0  0  0  0  2  0  0  0  0  0  0
  195.1450  170.4800  145.8180 C   0  0  0  0  0  0  0  0  0  0  0  0
  196.4750  170.7280  146.1340 O   0  0  0  0  0  1  0  0  0  0  0  0
  194.7630  169.3040  145.5890 O   0  0  0  0  0  0  0  0  0  0  0  0
  196.3970  176.0420  143.8220 C   0  0  0  0  0  1  0  0  0  0  0  0
  195.3150  176.7940  144.5760 C   0  0  0  0  0  2  0  0  0  0  0  0
  1 22  1  0  0  0  0
  1 19  1  6  0  0  0
  2  3  1  0  0  0  0
  2  9  1  0  0  0  0
  4  5  1  0  0  0  0
  4 20  1  1  0  0  0
  5 15  1  6  0  0  0
  6 32  1  6  0  0  0
  6 19  1  0  0  0  0
  8 21  1  1  0  0  0
  8 13  1  0  0  0  0
 10  7  1  1  0  0  0
 10  1  1  0  0  0  0
 11 17  1  0  0  0  0
 11 10  1  0  0  0  0
 11  9  1  1  0  0  0
 12 18  2  0  0  0  0
 13 15  1  0  0  0  0
 14  7  1  6  0  0  0
 14 25  1  0  0  0  0
 14  6  1  0  0  0  0
 16  3  1  0  0  0  0
 17 16  1  1  0  0  0
 17 12  1  0  0  0  0
 22 12  1  6  0  0  0
 22  4  1  0  0  0  0
 23 18  1  6  0  0  0
 23  8  1  0  0  0  0
 23  5  1  0  0  0  0
 24 26  1  0  0  0  0
 25 24  1  6  0  0  0
 25 26  1  0  0  0  0
 26 27  1  1  0  0  0
 27 28  1  0  0  0  0
 28 29  1  0  0  0  0
 30 28  2  0  0  0  0
 31 32  1  0  0  0  0
M  END
>  <MODEL>
1

>  <REMARK>
 VINA RESULT:      -7.6      0.000      0.000
  Name = 
  4 active torsions:
  status: ('A' for Active; 'I' for Inactive)
    1  A    between atoms: C_7  and  C_19
    2  A    between atoms: C_10  and  C_17
    3  A    between atoms: C_20  and  C_29
    4  A    between atoms: C_29  and  C_30
                            x       y       z     vdW  Elec       q    Type
                         _______ _______ _______ _____ _____    ______ ____

>  <TORSDO>
F 4

$$$$
=
 OpenBabel11112416423D

 32 37  0  0  1  0  0  0  0  0999 V2000
  189.8350  175.4280  142.6410 C   0  0  1  0  0  3  0  0  0  0  0  0
  191.7350  176.5980  146.3940 C   0  0  0  0  0  2  0  0  0  0  0  0
  192.8900  175.6550  146.0820 C   0  0  0  0  0  2  0  0  0  0  0  0
  190.4940  172.9930  142.9430 C   0  0  2  0  0  3  0  0  0  0  0  0
  191.6010  171.9350  142.8230 C   0  0  2  0  0  3  0  0  0  0  0  0
  187.6050  176.2920  141.8060 C   0  0  2  0  0  3  0  0  0  0  0  0
  189.2840  177.9350  142.8480 C   0  0  0  0  0  2  0  0  0  0  0  0
  193.9560  171.5210  143.2820 C   0  0  1  0  0  3  0  0  0  0  0  0
  190.7140  176.5520  145.2640 C   0  0  0  0  0  2  0  0  0  0  0  0
  190.3790  176.8550  142.7710 C   0  0  1  0  0  3  0  0  0  0  0  0
  191.3590  176.9550  143.9290 C   0  0  2  0  0  3  0  0  0  0  0  0
  192.2730  174.7140  143.0810 C   0  0  0  0  0  0  0  0  0  0  0  0
  193.0990  170.5320  144.0560 C   0  0  0  0  0  2  0  0  0  0  0  0
  187.8520  177.3790  142.8760 C   0  0  2  0  0  3  0  0  0  0  0  0
  191.6960  171.0970  144.0750 C   0  0  0  0  0  2  0  0  0  0  0  0
  193.5770  176.0900  144.7920 C   0  0  0  0  0  2  0  0  0  0  0  0
  192.5960  176.1020  143.6110 C   0  0  2  0  0  3  0  0  0  0  0  0
  193.1890  173.8070  143.1310 N   0  0  0  0  0  0  0  0  0  0  0  0
  188.8230  175.4110  141.5010 C   0  0  0  0  0  2  0  0  0  0  0  0
  189.2650  172.4750  142.2160 C   0  0  0  0  0  1  0  0  0  0  0  0
  194.7930  170.7790  142.2610 C   0  0  0  0  0  1  0  0  0  0  0  0
  190.9400  174.3750  142.4230 C   0  0  2  0  0  3  0  0  0  0  0  0
  193.0120  172.4800  142.5780 C   0  0  2  0  0  3  0  0  0  0  0  0
  187.7460  177.9250  145.3010 C   0  0  0  0  0  2  0  0  0  0  0  0
  187.5110  176.8480  144.2620 C   0  0  1  0  0  3  0  0  0  0  0  0
  186.3390  177.6270  144.8270 C   0  0  1  0  0  3  0  0  0  0  0  0
  185.6280  176.7640  145.8500 C   0  0  0  0  0  2  0  0  0  0  0  0
  185.1900  177.6000  147.0020 C   0  0  0  0  0  0  0  0  0  0  0  0
  185.9260  177.5990  148.1800 O   0  0  0  0  0  1  0  0  0  0  0  0
  184.1350  178.2790  146.9210 O   0  0  0  0  0  0  0  0  0  0  0  0
  186.0610  177.9790  140.8110 C   0  0  0  0  0  1  0  0  0  0  0  0
  187.0970  176.9100  140.5150 C   0  0  0  0  0  2  0  0  0  0  0  0
  1 19  1  6  0  0  0
  1 10  1  0  0  0  0
  3  2  1  0  0  0  0
  4 20  1  6  0  0  0
  5  4  1  0  0  0  0
  5 15  1  1  0  0  0
  6 32  1  6  0  0  0
  6 14  1  0  0  0  0
  8 21  1  6  0  0  0
  8 13  1  0  0  0  0
  9  2  1  0  0  0  0
 10  7  1  1  0  0  0
 10 11  1  0  0  0  0
 11  9  1  1  0  0  0
 12 18  2  0  0  0  0
 12 17  1  0  0  0  0
 13 15  1  0  0  0  0
 14  7  1  1  0  0  0
 14 25  1  0  0  0  0
 16  3  1  0  0  0  0
 17 11  1  0  0  0  0
 17 16  1  1  0  0  0
 19  6  1  0  0  0  0
 22  1  1  0  0  0  0
 22  4  1  0  0  0  0
 22 12  1  1  0  0  0
 23  5  1  0  0  0  0
 23 18  1  1  0  0  0
 23  8  1  0  0  0  0
 25 26  1  0  0  0  0
 25 24  1  1  0  0  0
 26 24  1  0  0  0  0
 26 27  1  1  0  0  0
 27 28  1  0  0  0  0
 28 29  1  0  0  0  0
 30 28  2  0  0  0  0
 32 31  1  0  0  0  0
M  END
>  <MODEL>
2

>  <REMARK>
 VINA RESULT:      -7.3      3.753      7.879
  Name = 
  4 active torsions:
  status: ('A' for Active; 'I' for Inactive)
    1  A    between atoms: C_7  and  C_19
    2  A    between atoms: C_10  and  C_17
    3  A    between atoms: C_20  and  C_29
    4  A    between atoms: C_29  and  C_30
                            x       y       z     vdW  Elec       q    Type
                         _______ _______ _______ _____ _____    ______ ____

>  <TORSDO>
F 4

$$$$
=
 OpenBabel11112416423D

 32 37  0  0  1  0  0  0  0  0999 V2000
  191.2600  174.9360  143.2350 C   0  0  1  0  0  3  0  0  0  0  0  0
  193.5270  176.6040  146.5730 C   0  0  0  0  0  2  0  0  0  0  0  0
  194.6900  175.6880  146.2170 C   0  0  0  0  0  2  0  0  0  0  0  0
  192.0950  172.5830  143.7040 C   0  0  2  0  0  3  0  0  0  0  0  0
  193.2410  171.5710  143.5570 C   0  0  2  0  0  3  0  0  0  0  0  0
  188.8970  175.5970  142.6040 C   0  0  2  0  0  3  0  0  0  0  0  0
  190.5880  177.4220  143.2450 C   0  0  0  0  0  2  0  0  0  0  0  0
  195.6550  171.3210  143.7540 C   0  0  1  0  0  3  0  0  0  0  0  0
  192.3810  176.3860  145.5930 C   0  0  0  0  0  2  0  0  0  0  0  0
  191.7280  176.3920  143.1440 C   0  0  1  0  0  3  0  0  0  0  0  0
  192.8340  176.6670  144.1520 C   0  0  2  0  0  3  0  0  0  0  0  0
  193.7710  174.3900  143.4340 C   0  0  0  0  0  0  0  0  0  0  0  0
  194.9590  170.3850  144.7300 C   0  0  0  0  0  2  0  0  0  0  0  0
  189.2060  176.8070  143.5140 C   0  0  2  0  0  3  0  0  0  0  0  0
  193.5370  170.8830  144.8680 C   0  0  0  0  0  2  0  0  0  0  0  0
  195.1880  176.0080  144.8110 C   0  0  0  0  0  2  0  0  0  0  0  0
  194.0720  175.8410  143.7700 C   0  0  2  0  0  3  0  0  0  0  0  0
  194.7400  173.5380  143.4630 N   0  0  0  0  0  0  0  0  0  0  0  0
  190.1200  174.7440  142.2410 C   0  0  0  0  0  2  0  0  0  0  0  0
  190.8200  171.9310  143.1990 C   0  0  0  0  0  1  0  0  0  0  0  0
  196.4050  170.5090  142.7180 C   0  0  0  0  0  1  0  0  0  0  0  0
  192.3910  173.9170  142.9900 C   0  0  2  0  0  3  0  0  0  0  0  0
  194.5760  172.1510  143.0790 C   0  0  2  0  0  3  0  0  0  0  0  0
  189.3520  177.6180  145.8610 C   0  0  0  0  0  2  0  0  0  0  0  0
  189.0680  176.4190  144.9800 C   0  0  1  0  0  3  0  0  0  0  0  0
  187.9220  177.1920  145.6020 C   0  0  1  0  0  3  0  0  0  0  0  0
  187.3970  176.4140  146.7910 C   0  0  0  0  0  2  0  0  0  0  0  0
  186.0810  176.9650  147.2170 C   0  0  0  0  0  0  0  0  0  0  0  0
  184.9280  176.6310  146.5170 O   0  0  0  0  0  0  0  0  0  0  0  0
  186.0160  177.7610  148.1890 O   0  0  0  0  0  1  0  0  0  0  0  0
  187.2030  177.1460  141.6310 C   0  0  0  0  0  1  0  0  0  0  0  0
  188.2000  176.0420  141.3310 C   0  0  0  0  0  2  0  0  0  0  0  0
  1 19  1  6  0  0  0
  3  2  1  0  0  0  0
  4 20  1  6  0  0  0
  5  4  1  0  0  0  0
  5 15  1  1  0  0  0
  6 32  1  6  0  0  0
  6 14  1  0  0  0  0
  8 21  1  6  0  0  0
  8 13  1  0  0  0  0
  9  2  1  0  0  0  0
 10  1  1  0  0  0  0
 10  7  1  1  0  0  0
 10 11  1  0  0  0  0
 11  9  1  1  0  0  0
 12 18  2  0  0  0  0
 12 17  1  0  0  0  0
 13 15  1  0  0  0  0
 14  7  1  1  0  0  0
 14 25  1  0  0  0  0
 16  3  1  0  0  0  0
 17 11  1  0  0  0  0
 17 16  1  1  0  0  0
 19  6  1  0  0  0  0
 22  1  1  0  0  0  0
 22 12  1  1  0  0  0
 22  4  1  0  0  0  0
 23 18  1  1  0  0  0
 23  5  1  0  0  0  0
 23  8  1  0  0  0  0
 25 26  1  0  0  0  0
 25 24  1  1  0  0  0
 26 24  1  0  0  0  0
 26 27  1  1  0  0  0
 27 28  1  0  0  0  0
 28 30  1  0  0  0  0
 29 28  2  0  0  0  0
 32 31  1  0  0  0  0
M  END
>  <MODEL>
3

>  <REMARK>
 VINA RESULT:      -7.3      3.618      7.847
  Name = 
  4 active torsions:
  status: ('A' for Active; 'I' for Inactive)
    1  A    between atoms: C_7  and  C_19
    2  A    between atoms: C_10  and  C_17
    3  A    between atoms: C_20  and  C_29
    4  A    between atoms: C_29  and  C_30
                            x       y       z     vdW  Elec       q    Type
                         _______ _______ _______ _____ _____    ______ ____

>  <TORSDO>
F 4

$$$$
=
 OpenBabel11112416423D

 32 37  0  0  1  0  0  0  0  0999 V2000
  190.3150  175.5790  144.6260 C   0  0  1  0  0  3  0  0  0  0  0  0
  187.8000  176.0350  141.0860 C   0  0  0  0  0  2  0  0  0  0  0  0
  187.0000  177.1070  141.8140 C   0  0  0  0  0  2  0  0  0  0  0  0
  188.3290  175.7920  146.1950 C   0  0  2  0  0  3  0  0  0  0  0  0
  187.3410  176.7330  146.9010 C   0  0  2  0  0  3  0  0  0  0  0  0
  192.2390  173.9460  144.8440 C   0  0  2  0  0  3  0  0  0  0  0  0
  191.9600  175.2810  142.6660 C   0  0  0  0  0  2  0  0  0  0  0  0
  185.9140  178.6750  146.5500 C   0  0  1  0  0  3  0  0  0  0  0  0
  188.9140  175.5210  141.9890 C   0  0  0  0  0  2  0  0  0  0  0  0
  190.9330  176.1920  143.3640 C   0  0  1  0  0  3  0  0  0  0  0  0
  189.8490  176.6650  142.4070 C   0  0  2  0  0  3  0  0  0  0  0  0
  188.6810  177.5700  144.5030 C   0  0  0  0  0  0  0  0  0  0  0  0
  185.0670  177.4820  146.9640 C   0  0  0  0  0  2  0  0  0  0  0  0
  192.1060  173.8910  143.3060 C   0  0  2  0  0  3  0  0  0  0  0  0
  185.9180  176.2500  146.7470 C   0  0  0  0  0  2  0  0  0  0  0  0
  187.9100  178.2760  142.1730 C   0  0  0  0  0  2  0  0  0  0  0  0
  189.0810  177.8240  143.0590 C   0  0  2  0  0  3  0  0  0  0  0  0
  187.7410  178.2890  145.0180 N   0  0  0  0  0  0  0  0  0  0  0  0
  191.4500  175.0800  145.5120 C   0  0  0  0  0  2  0  0  0  0  0  0
  188.9420  174.8790  147.2430 C   0  0  0  0  0  1  0  0  0  0  0  0
  185.8410  179.7460  147.6190 C   0  0  0  0  0  1  0  0  0  0  0  0
  189.3980  176.5560  145.3890 C   0  0  2  0  0  3  0  0  0  0  0  0
  187.3440  178.1840  146.4070 C   0  0  2  0  0  3  0  0  0  0  0  0
  190.8890  172.8600  141.3970 C   0  0  0  0  0  2  0  0  0  0  0  0
  190.9440  172.9930  142.9050 C   0  0  1  0  0  3  0  0  0  0  0  0
  191.4800  171.7440  142.2320 C   0  0  1  0  0  3  0  0  0  0  0  0
  190.4640  170.6310  142.3890 C   0  0  0  0  0  2  0  0  0  0  0  0
  190.8180  169.4920  141.4980 C   0  0  0  0  0  0  0  0  0  0  0  0
  190.9150  169.6870  140.1260 O   0  0  0  0  0  0  0  0  0  0  0  0
  190.9940  168.3440  141.9830 O   0  0  0  0  0  1  0  0  0  0  0  0
  193.9350  175.2890  146.0840 C   0  0  0  0  0  1  0  0  0  0  0  0
  193.6970  174.0390  145.2570 C   0  0  0  0  0  2  0  0  0  0  0  0
  1 22  1  0  0  0  0
  1 19  1  1  0  0  0
  2  3  1  0  0  0  0
  2  9  1  0  0  0  0
  3 16  1  0  0  0  0
  4  5  1  0  0  0  0
  4 20  1  1  0  0  0
  5 15  1  6  0  0  0
  6 32  1  6  0  0  0
  6 19  1  0  0  0  0
  8 13  1  0  0  0  0
  8 21  1  1  0  0  0
 10  7  1  6  0  0  0
 10  1  1  0  0  0  0
 11  9  1  1  0  0  0
 11 17  1  0  0  0  0
 11 10  1  0  0  0  0
 12 18  2  0  0  0  0
 14  7  1  1  0  0  0
 14  6  1  0  0  0  0
 15 13  1  0  0  0  0
 17 16  1  6  0  0  0
 17 12  1  0  0  0  0
 22 12  1  6  0  0  0
 22  4  1  0  0  0  0
 23 18  1  6  0  0  0
 23  8  1  0  0  0  0
 23  5  1  0  0  0  0
 24 26  1  0  0  0  0
 25 24  1  6  0  0  0
 25 14  1  0  0  0  0
 26 27  1  1  0  0  0
 26 25  1  0  0  0  0
 28 30  1  0  0  0  0
 28 27  1  0  0  0  0
 29 28  2  0  0  0  0
 32 31  1  0  0  0  0
M  END
>  <MODEL>
4

>  <REMARK>
 VINA RESULT:      -7.2      2.329      3.168
  Name = 
  4 active torsions:
  status: ('A' for Active; 'I' for Inactive)
    1  A    between atoms: C_7  and  C_19
    2  A    between atoms: C_10  and  C_17
    3  A    between atoms: C_20  and  C_29
    4  A    between atoms: C_29  and  C_30
                            x       y       z     vdW  Elec       q    Type
                         _______ _______ _______ _____ _____    ______ ____

>  <TORSDO>
F 4

$$$$
=
 OpenBabel11112416423D

 32 37  0  0  1  0  0  0  0  0999 V2000
  190.6270  174.1010  143.6260 C   0  0  1  0  0  3  0  0  0  0  0  0
  192.9010  176.4000  146.5590 C   0  0  0  0  0  2  0  0  0  0  0  0
  191.5950  176.7990  147.2330 C   0  0  0  0  0  2  0  0  0  0  0  0
  188.8240  175.8830  143.4680 C   0  0  2  0  0  3  0  0  0  0  0  0
  187.5680  176.5020  144.0990 C   0  0  2  0  0  3  0  0  0  0  0  0
  191.6330  172.8010  141.6980 C   0  0  2  0  0  3  0  0  0  0  0  0
  192.7370  172.6760  144.0150 C   0  0  0  0  0  2  0  0  0  0  0  0
  186.6110  177.2340  146.2150 C   0  0  1  0  0  3  0  0  0  0  0  0
  192.6120  175.4950  145.3690 C   0  0  0  0  0  2  0  0  0  0  0  0
  191.4950  173.3410  144.6350 C   0  0  1  0  0  3  0  0  0  0  0  0
  191.8570  174.2330  145.8140 C   0  0  2  0  0  3  0  0  0  0  0  0
  189.4150  175.0090  145.7120 C   0  0  0  0  0  0  0  0  0  0  0  0
  186.7060  178.4120  145.2580 C   0  0  0  0  0  2  0  0  0  0  0  0
  192.9300  172.9740  142.5190 C   0  0  2  0  0  3  0  0  0  0  0  0
  187.6730  178.0070  144.1680 C   0  0  0  0  0  2  0  0  0  0  0  0
  190.8720  175.5540  147.7370 C   0  0  0  0  0  2  0  0  0  0  0  0
  190.5770  174.5750  146.5900 C   0  0  2  0  0  3  0  0  0  0  0  0
  188.4400  175.6570  146.2550 N   0  0  0  0  0  0  0  0  0  0  0  0
  190.3480  173.1710  142.4510 C   0  0  0  0  0  2  0  0  0  0  0  0
  188.5200  175.5770  142.0120 C   0  0  0  0  0  1  0  0  0  0  0  0
  185.1550  176.9390  146.5140 C   0  0  0  0  0  1  0  0  0  0  0  0
  189.3180  174.6400  144.2350 C   0  0  2  0  0  3  0  0  0  0  0  0
  187.2490  176.0410  145.5250 C   0  0  2  0  0  3  0  0  0  0  0  0
  194.9250  174.4240  142.8410 C   0  0  0  0  0  2  0  0  0  0  0  0
  193.5030  174.3700  142.3210 C   0  0  1  0  0  3  0  0  0  0  0  0
  194.6690  174.3040  141.3540 C   0  0  1  0  0  3  0  0  0  0  0  0
  194.8350  175.6600  140.6960 C   0  0  0  0  0  2  0  0  0  0  0  0
  196.2260  176.1520  140.8920 C   0  0  0  0  0  0  0  0  0  0  0  0
  197.2900  175.4780  140.3070 O   0  0  0  0  0  0  0  0  0  0  0  0
  196.4420  177.1580  141.6150 O   0  0  0  0  0  1  0  0  0  0  0  0
  190.4470  170.6200  141.9320 C   0  0  0  0  0  1  0  0  0  0  0  0
  191.5130  171.3830  141.1680 C   0  0  0  0  0  2  0  0  0  0  0  0
  1 19  1  6  0  0  0
  1 22  1  0  0  0  0
  1 10  1  0  0  0  0
  2  3  1  0  0  0  0
  3 16  1  0  0  0  0
  4 20  1  6  0  0  0
  4  5  1  0  0  0  0
  4 22  1  0  0  0  0
  5 15  1  1  0  0  0
  5 23  1  0  0  0  0
  6 32  1  1  0  0  0
  6 19  1  0  0  0  0
  6 14  1  0  0  0  0
  8 21  1  6  0  0  0
  9  2  1  0  0  0  0
 10  7  1  6  0  0  0
 10 11  1  0  0  0  0
 11  9  1  6  0  0  0
 11 17  1  0  0  0  0
 12 18  2  0  0  0  0
 12 17  1  0  0  0  0
 13  8  1  0  0  0  0
 14  7  1  1  0  0  0
 15 13  1  0  0  0  0
 17 16  1  1  0  0  0
 22 12  1  1  0  0  0
 23  8  1  0  0  0  0
 23 18  1  1  0  0  0
 25 14  1  0  0  0  0
 25 24  1  1  0  0  0
 26 27  1  6  0  0  0
 26 25  1  0  0  0  0
 26 24  1  0  0  0  0
 27 28  1  0  0  0  0
 28 30  1  0  0  0  0
 29 28  2  0  0  0  0
 32 31  1  0  0  0  0
M  END
>  <MODEL>
5

>  <REMARK>
 VINA RESULT:      -7.0      2.626      4.821
  Name = 
  4 active torsions:
  status: ('A' for Active; 'I' for Inactive)
    1  A    between atoms: C_7  and  C_19
    2  A    between atoms: C_10  and  C_17
    3  A    between atoms: C_20  and  C_29
    4  A    between atoms: C_29  and  C_30
                            x       y       z     vdW  Elec       q    Type
                         _______ _______ _______ _____ _____    ______ ____

>  <TORSDO>
F 4

$$$$
=
 OpenBabel11112416423D

 32 37  0  0  1  0  0  0  0  0999 V2000
  189.1360  175.2160  143.0730 C   0  0  1  0  0  3  0  0  0  0  0  0
  191.0780  176.9910  146.5570 C   0  0  0  0  0  2  0  0  0  0  0  0
  189.7310  177.5410  147.0060 C   0  0  0  0  0  2  0  0  0  0  0  0
  187.6540  177.2500  142.7300 C   0  0  2  0  0  3  0  0  0  0  0  0
  186.3930  178.0120  143.1640 C   0  0  2  0  0  3  0  0  0  0  0  0
  190.3160  173.8900  141.2650 C   0  0  2  0  0  3  0  0  0  0  0  0
  190.9190  173.4770  143.7290 C   0  0  0  0  0  2  0  0  0  0  0  0
  185.1460  178.7600  145.1170 C   0  0  1  0  0  3  0  0  0  0  0  0
  190.9090  176.2050  145.2630 C   0  0  0  0  0  2  0  0  0  0  0  0
  189.6800  174.2830  144.1600 C   0  0  1  0  0  3  0  0  0  0  0  0
  189.9200  175.0460  145.4540 C   0  0  2  0  0  3  0  0  0  0  0  0
  187.6710  176.1760  144.9640 C   0  0  0  0  0  0  0  0  0  0  0  0
  185.5840  179.9620  144.2960 C   0  0  0  0  0  2  0  0  0  0  0  0
  191.4380  173.8240  142.3250 C   0  0  2  0  0  3  0  0  0  0  0  0
  186.6830  179.4790  143.3750 C   0  0  0  0  0  2  0  0  0  0  0  0
  188.7630  176.3890  147.2630 C   0  0  0  0  0  2  0  0  0  0  0  0
  188.5700  175.5290  146.0050 C   0  0  2  0  0  3  0  0  0  0  0  0
  186.7050  176.9300  145.3680 N   0  0  0  0  0  0  0  0  0  0  0  0
  188.9700  174.4030  141.7940 C   0  0  0  0  0  2  0  0  0  0  0  0
  187.6030  177.0720  141.2220 C   0  0  0  0  0  1  0  0  0  0  0  0
  183.6340  178.6660  145.1150 C   0  0  0  0  0  1  0  0  0  0  0  0
  187.8160  175.9080  143.4700 C   0  0  2  0  0  3  0  0  0  0  0  0
  185.7420  177.5250  144.4630 C   0  0  2  0  0  3  0  0  0  0  0  0
  193.3990  175.0080  143.2980 C   0  0  0  0  0  2  0  0  0  0  0  0
  192.2210  175.1300  142.3520 C   0  0  1  0  0  3  0  0  0  0  0  0
  193.6150  174.8940  141.8040 C   0  0  1  0  0  3  0  0  0  0  0  0
  194.1550  176.2040  141.2650 C   0  0  0  0  0  2  0  0  0  0  0  0
  195.6430  176.1960  141.3100 C   0  0  0  0  0  0  0  0  0  0  0  0
  196.3090  176.7900  142.3740 O   0  0  0  0  0  1  0  0  0  0  0  0
  196.2990  175.6830  140.3670 O   0  0  0  0  0  0  0  0  0  0  0  0
  191.4510  171.8680  140.3500 C   0  0  0  0  0  1  0  0  0  0  0  0
  190.1140  172.5360  140.6080 C   0  0  0  0  0  2  0  0  0  0  0  0
  1 19  1  6  0  0  0
  1 22  1  0  0  0  0
  1 10  1  0  0  0  0
  2  3  1  0  0  0  0
  3 16  1  0  0  0  0
  4 20  1  6  0  0  0
  4  5  1  0  0  0  0
  4 22  1  0  0  0  0
  5 15  1  1  0  0  0
  5 23  1  0  0  0  0
  6 32  1  1  0  0  0
  6 19  1  0  0  0  0
  6 14  1  0  0  0  0
  8 21  1  6  0  0  0
  9  2  1  0  0  0  0
 10  7  1  6  0  0  0
 10 11  1  0  0  0  0
 11  9  1  6  0  0  0
 11 17  1  0  0  0  0
 12 18  2  0  0  0  0
 12 17  1  0  0  0  0
 13  8  1  0  0  0  0
 14 25  1  0  0  0  0
 14  7  1  1  0  0  0
 15 13  1  0  0  0  0
 17 16  1  1  0  0  0
 22 12  1  1  0  0  0
 23  8  1  0  0  0  0
 23 18  1  1  0  0  0
 25 24  1  1  0  0  0
 26 27  1  6  0  0  0
 26 25  1  0  0  0  0
 26 24  1  0  0  0  0
 27 28  1  0  0  0  0
 28 29  1  0  0  0  0
 30 28  2  0  0  0  0
 31 32  1  0  0  0  0
M  END
>  <MODEL>
6

>  <REMARK>
 VINA RESULT:      -6.9      2.777      4.830
  Name = 
  4 active torsions:
  status: ('A' for Active; 'I' for Inactive)
    1  A    between atoms: C_7  and  C_19
    2  A    between atoms: C_10  and  C_17
    3  A    between atoms: C_20  and  C_29
    4  A    between atoms: C_29  and  C_30
                            x       y       z     vdW  Elec       q    Type
                         _______ _______ _______ _____ _____    ______ ____

>  <TORSDO>
F 4

$$$$
=
 OpenBabel11112416423D

 32 37  0  0  1  0  0  0  0  0999 V2000
  191.1620  175.5230  145.3340 C   0  0  1  0  0  3  0  0  0  0  0  0
  189.0310  172.8360  142.6330 C   0  0  0  0  0  2  0  0  0  0  0  0
  190.3530  172.1580  142.2940 C   0  0  0  0  0  2  0  0  0  0  0  0
  193.1140  175.7650  143.7260 C   0  0  2  0  0  3  0  0  0  0  0  0
  194.4050  175.1480  143.1680 C   0  0  2  0  0  3  0  0  0  0  0  0
  190.0900  177.3750  146.6910 C   0  0  2  0  0  3  0  0  0  0  0  0
  188.9300  175.0870  146.5430 C   0  0  0  0  0  2  0  0  0  0  0  0
  195.3760  173.0670  142.3570 C   0  0  1  0  0  3  0  0  0  0  0  0
  189.2680  173.9460  143.6480 C   0  0  0  0  0  2  0  0  0  0  0  0
  190.2110  174.4840  145.9380 C   0  0  1  0  0  3  0  0  0  0  0  0
  189.9020  173.3870  144.9310 C   0  0  2  0  0  3  0  0  0  0  0  0
  192.4030  173.4790  144.3730 C   0  0  0  0  0  0  0  0  0  0  0  0
  195.4020  174.1120  141.2530 C   0  0  0  0  0  2  0  0  0  0  0  0
  188.7960  176.6060  146.3470 C   0  0  2  0  0  3  0  0  0  0  0  0
  194.4270  175.1950  141.6590 C   0  0  0  0  0  2  0  0  0  0  0  0
  190.9550  171.5420  143.5520 C   0  0  0  0  0  2  0  0  0  0  0  0
  191.1900  172.6030  144.6380 C   0  0  2  0  0  3  0  0  0  0  0  0
  193.4180  172.9590  143.7680 N   0  0  0  0  0  0  0  0  0  0  0  0
  191.3860  176.6170  146.3720 C   0  0  0  0  0  2  0  0  0  0  0  0
  193.4220  177.1850  144.1690 C   0  0  0  0  0  1  0  0  0  0  0  0
  196.7940  172.7070  142.7490 C   0  0  0  0  0  1  0  0  0  0  0  0
  192.5000  174.9200  144.8610 C   0  0  2  0  0  3  0  0  0  0  0  0
  194.6520  173.6830  143.5430 C   0  0  2  0  0  3  0  0  0  0  0  0
  186.9580  176.3720  144.6860 C   0  0  0  0  0  2  0  0  0  0  0  0
  188.3480  176.9250  144.9270 C   0  0  1  0  0  3  0  0  0  0  0  0
  187.1460  177.8470  144.9720 C   0  0  1  0  0  3  0  0  0  0  0  0
  187.0830  178.6300  143.6760 C   0  0  0  0  0  2  0  0  0  0  0  0
  185.7050  179.1520  143.4640 C   0  0  0  0  0  0  0  0  0  0  0  0
  185.2140  180.1670  144.2750 O   0  0  0  0  0  1  0  0  0  0  0  0
  184.9710  178.6490  142.5740 O   0  0  0  0  0  0  0  0  0  0  0  0
  191.4630  177.5380  148.7660 C   0  0  0  0  0  1  0  0  0  0  0  0
  190.1000  177.7940  148.1510 C   0  0  0  0  0  2  0  0  0  0  0  0
  1 10  1  0  0  0  0
  1 19  1  1  0  0  0
  2  9  1  0  0  0  0
  3  2  1  0  0  0  0
  3 16  1  0  0  0  0
  4 20  1  1  0  0  0
  4 22  1  0  0  0  0
  5 15  1  6  0  0  0
  5 23  1  0  0  0  0
  5  4  1  0  0  0  0
  6 32  1  1  0  0  0
  8 21  1  1  0  0  0
  8 23  1  0  0  0  0
 10  7  1  6  0  0  0
 11  9  1  6  0  0  0
 11 10  1  0  0  0  0
 12 17  1  0  0  0  0
 13 15  1  0  0  0  0
 13  8  1  0  0  0  0
 14  7  1  6  0  0  0
 14  6  1  0  0  0  0
 17 16  1  6  0  0  0
 17 11  1  0  0  0  0
 18 12  2  0  0  0  0
 19  6  1  0  0  0  0
 22 12  1  6  0  0  0
 22  1  1  0  0  0  0
 23 18  1  6  0  0  0
 24 26  1  0  0  0  0
 25 24  1  1  0  0  0
 25 26  1  0  0  0  0
 25 14  1  0  0  0  0
 26 27  1  6  0  0  0
 28 27  1  0  0  0  0
 28 29  1  0  0  0  0
 30 28  2  0  0  0  0
 32 31  1  0  0  0  0
M  END
>  <MODEL>
7

>  <REMARK>
 VINA RESULT:      -6.8      4.106      7.621
  Name = 
  4 active torsions:
  status: ('A' for Active; 'I' for Inactive)
    1  A    between atoms: C_7  and  C_19
    2  A    between atoms: C_10  and  C_17
    3  A    between atoms: C_20  and  C_29
    4  A    between atoms: C_29  and  C_30
                            x       y       z     vdW  Elec       q    Type
                         _______ _______ _______ _____ _____    ______ ____

>  <TORSDO>
F 4

$$$$
=
 OpenBabel11112416423D

 32 37  0  0  1  0  0  0  0  0999 V2000
  191.3500  175.4880  145.0430 C   0  0  1  0  0  3  0  0  0  0  0  0
  190.9590  172.4410  141.9400 C   0  0  0  0  0  2  0  0  0  0  0  0
  192.4030  172.0260  142.1910 C   0  0  0  0  0  2  0  0  0  0  0  0
  193.7040  176.0930  144.3020 C   0  0  2  0  0  3  0  0  0  0  0  0
  195.1960  175.7320  144.3350 C   0  0  2  0  0  3  0  0  0  0  0  0
  189.5260  177.1050  145.7340 C   0  0  2  0  0  3  0  0  0  0  0  0
  188.9350  174.6380  145.3240 C   0  0  0  0  0  2  0  0  0  0  0  0
  196.7530  173.8720  144.1240 C   0  0  1  0  0  3  0  0  0  0  0  0
  190.5790  173.5780  142.8810 C   0  0  0  0  0  2  0  0  0  0  0  0
  190.4340  174.2890  145.3090 C   0  0  1  0  0  3  0  0  0  0  0  0
  190.7430  173.1510  144.3470 C   0  0  2  0  0  3  0  0  0  0  0  0
  193.2050  173.7150  144.7950 C   0  0  0  0  0  0  0  0  0  0  0  0
  197.0310  174.9010  143.0390 C   0  0  0  0  0  2  0  0  0  0  0  0
  188.6270  176.1040  144.9760 C   0  0  2  0  0  3  0  0  0  0  0  0
  195.8030  175.7810  142.9530 C   0  0  0  0  0  2  0  0  0  0  0  0
  192.5580  171.5380  143.6280 C   0  0  0  0  0  2  0  0  0  0  0  0
  192.1580  172.6250  144.6360 C   0  0  2  0  0  3  0  0  0  0  0  0
  194.4490  173.3970  144.6710 N   0  0  0  0  0  0  0  0  0  0  0  0
  190.9530  176.6060  146.0000 C   0  0  0  0  0  2  0  0  0  0  0  0
  193.5600  177.5470  144.7190 C   0  0  0  0  0  1  0  0  0  0  0  0
  197.9410  173.7880  145.0600 C   0  0  0  0  0  1  0  0  0  0  0  0
  192.8490  175.1490  145.1710 C   0  0  2  0  0  3  0  0  0  0  0  0
  195.5260  174.3410  144.8860 C   0  0  2  0  0  3  0  0  0  0  0  0
  187.6370  175.5570  142.7600 C   0  0  0  0  0  2  0  0  0  0  0  0
  188.7280  176.3300  143.4740 C   0  0  1  0  0  3  0  0  0  0  0  0
  187.4840  177.0470  142.9860 C   0  0  1  0  0  3  0  0  0  0  0  0
  187.8190  177.7940  141.7110 C   0  0  0  0  0  2  0  0  0  0  0  0
  186.6160  177.8750  140.8390 C   0  0  0  0  0  0  0  0  0  0  0  0
  185.4000  178.2860  141.3690 O   0  0  0  0  0  1  0  0  0  0  0  0
  186.6910  177.5380  139.6290 O   0  0  0  0  0  0  0  0  0  0  0  0
  187.3750  177.5420  146.9160 C   0  0  0  0  0  1  0  0  0  0  0  0
  188.8860  177.5200  147.0470 C   0  0  0  0  0  2  0  0  0  0  0  0
  1 22  1  0  0  0  0
  1 10  1  0  0  0  0
  1 19  1  1  0  0  0
  2  3  1  0  0  0  0
  2  9  1  0  0  0  0
  3 16  1  0  0  0  0
  4  5  1  0  0  0  0
  4 20  1  1  0  0  0
  4 22  1  0  0  0  0
  5 15  1  6  0  0  0
  5 23  1  0  0  0  0
  6 19  1  0  0  0  0
  6 32  1  1  0  0  0
  8 23  1  0  0  0  0
  8 21  1  1  0  0  0
 10  7  1  6  0  0  0
 11  9  1  6  0  0  0
 11 17  1  0  0  0  0
 11 10  1  0  0  0  0
 13  8  1  0  0  0  0
 14  7  1  6  0  0  0
 14  6  1  0  0  0  0
 15 13  1  0  0  0  0
 17 16  1  6  0  0  0
 17 12  1  0  0  0  0
 18 12  2  0  0  0  0
 22 12  1  6  0  0  0
 23 18  1  6  0  0  0
 24 26  1  0  0  0  0
 25 24  1  6  0  0  0
 25 14  1  0  0  0  0
 26 27  1  6  0  0  0
 26 25  1  0  0  0  0
 28 29  1  0  0  0  0
 28 27  1  0  0  0  0
 30 28  2  0  0  0  0
 31 32  1  0  0  0  0
M  END
>  <MODEL>
8

>  <REMARK>
 VINA RESULT:      -6.7      3.915      7.674
  Name = 
  4 active torsions:
  status: ('A' for Active; 'I' for Inactive)
    1  A    between atoms: C_7  and  C_19
    2  A    between atoms: C_10  and  C_17
    3  A    between atoms: C_20  and  C_29
    4  A    between atoms: C_29  and  C_30
                            x       y       z     vdW  Elec       q    Type
                         _______ _______ _______ _____ _____    ______ ____

>  <TORSDO>
F 4

$$$$
=
 OpenBabel11112416423D

 32 37  0  0  1  0  0  0  0  0999 V2000
  190.0680  174.2280  143.5830 C   0  0  1  0  0  3  0  0  0  0  0  0
  192.5200  176.4210  146.4540 C   0  0  0  0  0  2  0  0  0  0  0  0
  191.2500  176.9040  147.1420 C   0  0  0  0  0  2  0  0  0  0  0  0
  188.3710  176.1120  143.4310 C   0  0  2  0  0  3  0  0  0  0  0  0
  187.1630  176.8110  144.0730 C   0  0  2  0  0  3  0  0  0  0  0  0
  190.9650  172.8490  141.6560 C   0  0  2  0  0  3  0  0  0  0  0  0
  192.0960  172.6850  143.9580 C   0  0  0  0  0  2  0  0  0  0  0  0
  186.2840  177.6220  146.1940 C   0  0  1  0  0  3  0  0  0  0  0  0
  192.1580  175.5210  145.2790 C   0  0  0  0  0  2  0  0  0  0  0  0
  190.9050  173.4290  144.5890 C   0  0  1  0  0  3  0  0  0  0  0  0
  191.3370  174.3110  145.7510 C   0  0  2  0  0  3  0  0  0  0  0  0
  188.9440  175.2290  145.6760 C   0  0  0  0  0  0  0  0  0  0  0  0
  186.4340  178.7820  145.2220 C   0  0  0  0  0  2  0  0  0  0  0  0
  192.2820  172.9530  142.4560 C   0  0  2  0  0  3  0  0  0  0  0  0
  187.3590  178.3080  144.1220 C   0  0  0  0  0  2  0  0  0  0  0  0
  190.4630  175.7100  147.6720 C   0  0  0  0  0  2  0  0  0  0  0  0
  190.0920  174.7380  146.5420 C   0  0  2  0  0  3  0  0  0  0  0  0
  188.0180  175.9400  146.2260 N   0  0  0  0  0  0  0  0  0  0  0  0
  189.7160  173.3030  142.4240 C   0  0  0  0  0  2  0  0  0  0  0  0
  188.0270  175.8080  141.9830 C   0  0  0  0  0  1  0  0  0  0  0  0
  184.8190  177.4170  146.5180 C   0  0  0  0  0  1  0  0  0  0  0  0
  188.8020  174.8500  144.2060 C   0  0  2  0  0  3  0  0  0  0  0  0
  186.8410  176.3860  145.5090 C   0  0  2  0  0  3  0  0  0  0  0  0
  194.3630  174.2880  142.7330 C   0  0  0  0  0  2  0  0  0  0  0  0
  192.9340  174.3110  142.2320 C   0  0  1  0  0  3  0  0  0  0  0  0
  194.0810  174.1650  141.2510 C   0  0  1  0  0  3  0  0  0  0  0  0
  194.3160  175.5010  140.5740 C   0  0  0  0  0  2  0  0  0  0  0  0
  194.9710  175.2910  139.2530 C   0  0  0  0  0  0  0  0  0  0  0  0
  196.3570  175.2870  139.1580 O   0  0  0  0  0  1  0  0  0  0  0  0
  194.2700  175.1540  138.2180 O   0  0  0  0  0  0  0  0  0  0  0  0
  191.7390  171.1190  140.0360 C   0  0  0  0  0  1  0  0  0  0  0  0
  190.7530  171.4340  141.1450 C   0  0  0  0  0  2  0  0  0  0  0  0
  1 19  1  6  0  0  0
  1 22  1  0  0  0  0
  1 10  1  0  0  0  0
  2  3  1  0  0  0  0
  3 16  1  0  0  0  0
  4 20  1  6  0  0  0
  4  5  1  0  0  0  0
  4 22  1  0  0  0  0
  5 15  1  1  0  0  0
  5 23  1  0  0  0  0
  6 32  1  1  0  0  0
  6 19  1  0  0  0  0
  6 14  1  0  0  0  0
  8 21  1  6  0  0  0
  9  2  1  0  0  0  0
 10  7  1  6  0  0  0
 10 11  1  0  0  0  0
 11  9  1  6  0  0  0
 11 17  1  0  0  0  0
 12 18  2  0  0  0  0
 12 17  1  0  0  0  0
 13  8  1  0  0  0  0
 14  7  1  1  0  0  0
 15 13  1  0  0  0  0
 17 16  1  1  0  0  0
 22 12  1  1  0  0  0
 23  8  1  0  0  0  0
 23 18  1  1  0  0  0
 25 14  1  0  0  0  0
 25 24  1  1  0  0  0
 26 27  1  6  0  0  0
 26 25  1  0  0  0  0
 26 24  1  0  0  0  0
 28 27  1  0  0  0  0
 29 28  1  0  0  0  0
 30 28  2  0  0  0  0
 31 32  1  0  0  0  0
M  END
>  <MODEL>
9

>  <REMARK>
 VINA RESULT:      -6.7      2.837      4.903
  Name = 
  4 active torsions:
  status: ('A' for Active; 'I' for Inactive)
    1  A    between atoms: C_7  and  C_19
    2  A    between atoms: C_10  and  C_17
    3  A    between atoms: C_20  and  C_29
    4  A    between atoms: C_29  and  C_30
                            x       y       z     vdW  Elec       q    Type
                         _______ _______ _______ _____ _____    ______ ____

>  <TORSDO>
F 4

$$$$
