=
 OpenBabel11112416363D

 32 37  0  0  1  0  0  0  0  0999 V2000
  190.0560  172.6350  138.3920 C   0  0  0  0  0  2  0  0  0  0  0  0
  188.7540  175.4640  143.0130 C   0  0  0  0  0  0  0  0  0  0  0  0
  192.0390  175.0600  146.5820 C   0  0  0  0  0  2  0  0  0  0  0  0
  191.2140  175.9860  147.4310 C   0  0  0  0  0  3  0  0  0  0  0  0
  186.6170  176.7770  143.4060 C   0  0  0  0  0  0  0  0  0  0  0  0
  185.7830  177.5180  144.3440 C   0  0  0  0  0  0  0  0  0  0  0  0
  189.1760  174.0880  141.0080 C   0  0  0  0  0  0  0  0  0  0  0  0
  191.1370  174.6500  142.4480 C   0  0  0  0  0  2  0  0  0  0  0  0
  185.1910  178.4100  146.2680 N   0  0  0  0  0  0  0  0  0  0  0  0
  191.4110  173.0520  140.4840 C   0  0  0  0  0  2  0  0  0  0  0  0
  191.9710  175.4490  145.1050 C   0  0  0  0  0  2  0  0  0  0  0  0
  190.1500  175.2260  143.4320 C   0  0  0  0  0  0  0  0  0  0  0  0
  190.5360  175.5910  144.6640 C   0  0  0  0  0  0  0  0  0  0  0  0
  188.3200  176.5240  145.2330 C   0  0  0  0  0  0  0  0  0  0  0  0
  184.2290  178.6940  145.3650 C   0  0  0  0  0  3  0  0  0  0  0  0
  189.0910  172.3300  139.3670 O   0  0  0  0  0  0  0  0  0  0  0  0
  190.4940  173.9290  141.2930 C   0  0  0  0  0  0  0  0  0  0  0  0
  184.5690  178.1470  144.1300 C   0  0  0  0  0  3  0  0  0  0  0  0
  188.5300  173.5530  139.7560 C   0  0  0  0  0  2  0  0  0  0  0  0
  191.2940  173.3240  138.9860 C   0  0  1  0  0  3  0  0  0  0  0  0
  190.0540  176.4800  146.9910 C   0  0  0  0  0  3  0  0  0  0  0  0
  189.5750  176.2070  145.6160 C   0  0  0  0  0  0  0  0  0  0  0  0
  187.3680  177.1190  146.2610 C   0  0  0  0  0  2  0  0  0  0  0  0
  188.3190  174.9150  141.8740 C   0  0  0  0  0  3  0  0  0  0  0  0
  186.2430  176.6490  142.2090 O   0  0  0  0  0  0  0  0  0  0  0  0
  185.1780  178.8040  147.6670 C   0  0  0  0  0  1  0  0  0  0  0  0
  187.8790  176.2360  143.8740 N   0  0  0  0  0  0  0  0  0  0  0  0
  186.1400  177.7000  145.6420 C   0  0  0  0  0  0  0  0  0  0  0  0
  192.4850  172.8510  138.2960 N   0  0  0  0  0  2  0  0  0  0  0  0
  193.5970  173.7000  138.0100 C   0  0  0  0  0  0  0  0  0  0  0  0
  193.5770  174.9180  138.3300 O   0  0  0  0  0  0  0  0  0  0  0  0
  194.7900  173.1410  137.3210 C   0  0  0  0  0  1  0  0  0  0  0  0
  1 20  1  0  0  0  0
  1 16  1  0  0  0  0
  2 12  1  0  0  0  0
  2 27  1  0  0  0  0
  3  4  1  0  0  0  0
  5 27  1  0  0  0  0
  5  6  1  0  0  0  0
  6 28  2  0  0  0  0
  7 17  2  0  0  0  0
  7 24  1  0  0  0  0
  8 12  1  0  0  0  0
  9 26  1  0  0  0  0
 10 17  1  0  0  0  0
 11  3  1  0  0  0  0
 12 13  2  0  0  0  0
 13 11  1  0  0  0  0
 13 22  1  0  0  0  0
 14 22  2  0  0  0  0
 14 23  1  0  0  0  0
 15  9  1  0  0  0  0
 16 19  1  0  0  0  0
 17  8  1  0  0  0  0
 18  6  1  0  0  0  0
 18 15  2  0  0  0  0
 19  7  1  0  0  0  0
 20 29  1  6  0  0  0
 20 10  1  0  0  0  0
 21  4  2  0  0  0  0
 22 21  1  0  0  0  0
 24  2  2  0  0  0  0
 25  5  2  0  0  0  0
 27 14  1  0  0  0  0
 28 23  1  0  0  0  0
 28  9  1  0  0  0  0
 30 29  1  0  0  0  0
 30 31  2  0  0  0  0
 32 30  1  0  0  0  0
M  END
>  <MODEL>
1

>  <REMARK>
 VINA RESULT:      -8.6      0.000      0.000
  Name = 
  1 active torsions:
  status: ('A' for Active; 'I' for Inactive)
    1  A    between atoms: C_20  and  N_29
                            x       y       z     vdW  Elec       q    Type
                         _______ _______ _______ _____ _____    ______ ____

>  <TORSDO>
F 1

$$$$
=
 OpenBabel11112416363D

 32 37  0  0  1  0  0  0  0  0999 V2000
  194.9450  175.6610  146.1340 C   0  0  0  0  0  2  0  0  0  0  0  0
  190.0720  176.0120  143.4520 C   0  0  0  0  0  0  0  0  0  0  0  0
  189.9520  173.5960  139.2280 C   0  0  0  0  0  2  0  0  0  0  0  0
  188.5170  174.0040  139.0490 C   0  0  0  0  0  3  0  0  0  0  0  0
  188.0610  177.3760  144.1850 C   0  0  0  0  0  0  0  0  0  0  0  0
  186.7340  177.8820  143.8610 C   0  0  0  0  0  0  0  0  0  0  0  0
  192.2570  176.0530  144.6010 C   0  0  0  0  0  0  0  0  0  0  0  0
  191.8420  174.1920  142.9890 C   0  0  0  0  0  2  0  0  0  0  0  0
  184.9200  178.1980  142.6520 N   0  0  0  0  0  0  0  0  0  0  0  0
  194.1370  174.4660  144.0590 C   0  0  0  0  0  2  0  0  0  0  0  0
  190.2810  173.3460  140.6990 C   0  0  0  0  0  2  0  0  0  0  0  0
  190.5740  174.9110  142.6050 C   0  0  0  0  0  0  0  0  0  0  0  0
  189.8540  174.5210  141.5420 C   0  0  0  0  0  0  0  0  0  0  0  0
  188.0450  176.1410  142.0000 C   0  0  0  0  0  0  0  0  0  0  0  0
  184.7560  178.8450  143.8240 C   0  0  0  0  0  3  0  0  0  0  0  0
  194.4080  176.7490  145.4250 O   0  0  0  0  0  0  0  0  0  0  0  0
  192.7260  174.9740  143.9230 C   0  0  0  0  0  0  0  0  0  0  0  0
  185.8850  178.6670  144.6220 C   0  0  0  0  0  3  0  0  0  0  0  0
  193.0330  176.7470  145.6900 C   0  0  0  0  0  2  0  0  0  0  0  0
  194.5530  174.3090  145.5200 C   0  0  1  0  0  3  0  0  0  0  0  0
  187.8990  174.7800  139.9440 C   0  0  0  0  0  3  0  0  0  0  0  0
  188.5760  175.1970  141.1940 C   0  0  0  0  0  0  0  0  0  0  0  0
  186.7530  176.8250  141.5740 C   0  0  0  0  0  2  0  0  0  0  0  0
  190.8830  176.5340  144.3780 C   0  0  0  0  0  3  0  0  0  0  0  0
  188.5760  177.6530  145.3020 O   0  0  0  0  0  0  0  0  0  0  0  0
  183.9590  178.1690  141.5620 C   0  0  0  0  0  1  0  0  0  0  0  0
  188.7400  176.5340  143.2190 N   0  0  0  0  0  0  0  0  0  0  0  0
  186.1230  177.6060  142.6800 C   0  0  0  0  0  0  0  0  0  0  0  0
  195.6770  173.3900  145.6250 N   0  0  0  0  0  2  0  0  0  0  0  0
  195.5070  171.9760  145.7340 C   0  0  0  0  0  0  0  0  0  0  0  0
  194.3560  171.4660  145.7670 O   0  0  0  0  0  0  0  0  0  0  0  0
  196.7030  171.0970  145.8150 C   0  0  0  0  0  1  0  0  0  0  0  0
  2 24  2  0  0  0  0
  3 11  1  0  0  0  0
  4  3  1  0  0  0  0
  4 21  2  0  0  0  0
  5 25  2  0  0  0  0
  6  5  1  0  0  0  0
  6 18  1  0  0  0  0
  7 19  1  0  0  0  0
  8 17  1  0  0  0  0
  9 28  1  0  0  0  0
  9 15  1  0  0  0  0
 10 20  1  0  0  0  0
 11 13  1  0  0  0  0
 12  8  1  0  0  0  0
 12  2  1  0  0  0  0
 13 12  2  0  0  0  0
 14 27  1  0  0  0  0
 15 18  2  0  0  0  0
 16 19  1  0  0  0  0
 16  1  1  0  0  0  0
 17 10  1  0  0  0  0
 17  7  2  0  0  0  0
 20 29  1  6  0  0  0
 20  1  1  0  0  0  0
 21 22  1  0  0  0  0
 22 13  1  0  0  0  0
 22 14  2  0  0  0  0
 23 14  1  0  0  0  0
 23 28  1  0  0  0  0
 24  7  1  0  0  0  0
 26  9  1  0  0  0  0
 27  2  1  0  0  0  0
 27  5  1  0  0  0  0
 28  6  2  0  0  0  0
 29 30  1  0  0  0  0
 30 31  2  0  0  0  0
 30 32  1  0  0  0  0
M  END
>  <MODEL>
2

>  <REMARK>
 VINA RESULT:      -8.5      3.236      5.691
  Name = 
  1 active torsions:
  status: ('A' for Active; 'I' for Inactive)
    1  A    between atoms: C_20  and  N_29
                            x       y       z     vdW  Elec       q    Type
                         _______ _______ _______ _____ _____    ______ ____

>  <TORSDO>
F 1

$$$$
=
 OpenBabel11112416363D

 32 37  0  0  1  0  0  0  0  0999 V2000
  185.9710  176.5530  142.7700 C   0  0  0  0  0  2  0  0  0  0  0  0
  190.7580  173.9540  143.9490 C   0  0  1  0  0  3  0  0  0  0  0  0
  193.9990  176.7280  146.2930 C   0  0  0  0  0  2  0  0  0  0  0  0
  194.9410  175.5590  146.3490 C   0  0  0  0  0  3  0  0  0  0  0  0
  191.3760  171.5870  143.2710 C   0  0  0  0  0  0  0  0  0  0  0  0
  192.4040  170.5560  143.2010 C   0  0  0  0  0  0  0  0  0  0  0  0
  188.6900  175.0960  143.2320 C   0  0  0  0  0  0  0  0  0  0  0  0
  189.9570  176.1020  145.1340 C   0  0  0  0  0  3  0  0  0  0  0  0
  194.3950  169.6520  143.4640 N   0  0  0  0  0  0  0  0  0  0  0  0
  187.9390  177.3140  144.1610 C   0  0  0  0  0  2  0  0  0  0  0  0
  192.5440  176.2780  146.4260 C   0  0  0  0  0  2  0  0  0  0  0  0
  191.0410  175.0950  144.8420 C   0  0  0  0  0  0  0  0  0  0  0  0
  192.2400  175.1800  145.4380 C   0  0  0  0  0  0  0  0  0  0  0  0
  193.0320  173.0560  144.4560 C   0  0  0  0  0  0  0  0  0  0  0  0
  193.5910  168.7290  142.8960 C   0  0  0  0  0  3  0  0  0  0  0  0
  187.0240  176.2120  141.9030 O   0  0  0  0  0  0  0  0  0  0  0  0
  188.8500  176.1160  144.1140 C   0  0  0  0  0  0  0  0  0  0  0  0
  192.3170  169.2630  142.7150 C   0  0  0  0  0  3  0  0  0  0  0  0
  187.4910  174.9630  142.3290 C   0  0  0  0  0  2  0  0  0  0  0  0
  186.4650  176.9150  144.1780 C   0  0  1  0  0  3  0  0  0  0  0  0
  194.6220  174.3830  145.8000 C   0  0  0  0  0  3  0  0  0  0  0  0
  193.2910  174.1580  145.1910 C   0  0  0  0  0  0  0  0  0  0  0  0
  194.1570  172.0610  144.2060 C   0  0  0  0  0  2  0  0  0  0  0  0
  189.6510  173.9800  143.1990 C   0  0  0  0  0  3  0  0  0  0  0  0
  190.2160  171.3370  142.8460 O   0  0  0  0  0  0  0  0  0  0  0  0
  195.7980  169.4630  143.7920 C   0  0  0  0  0  1  0  0  0  0  0  0
  191.7130  172.8670  143.8650 N   0  0  0  0  0  0  0  0  0  0  0  0
  193.6680  170.7620  143.6550 C   0  0  0  0  0  0  0  0  0  0  0  0
  185.6580  178.0060  144.7050 N   0  0  0  0  0  2  0  0  0  0  0  0
  184.8650  177.8760  145.8860 C   0  0  0  0  0  0  0  0  0  0  0  0
  184.8170  176.7850  146.5130 O   0  0  0  0  0  0  0  0  0  0  0  0
  184.0830  179.0410  146.3770 C   0  0  0  0  0  1  0  0  0  0  0  0
  1 20  1  0  0  0  0
  2 24  1  6  0  0  0
  2 12  1  0  0  0  0
  3  4  1  0  0  0  0
  3 11  1  0  0  0  0
  5 27  1  0  0  0  0
  6  5  1  0  0  0  0
  6 28  2  0  0  0  0
  7 17  1  0  0  0  0
  9 28  1  0  0  0  0
  9 26  1  0  0  0  0
 10 20  1  0  0  0  0
 12  8  1  0  0  0  0
 12 13  2  0  0  0  0
 13 11  1  0  0  0  0
 14 22  2  0  0  0  0
 15  9  1  0  0  0  0
 16 19  1  0  0  0  0
 16  1  1  0  0  0  0
 17 10  1  0  0  0  0
 17  8  2  0  0  0  0
 18 15  2  0  0  0  0
 18  6  1  0  0  0  0
 19  7  1  0  0  0  0
 20 29  1  6  0  0  0
 21  4  2  0  0  0  0
 22 13  1  0  0  0  0
 22 21  1  0  0  0  0
 23 14  1  0  0  0  0
 24  7  2  0  0  0  0
 25  5  2  0  0  0  0
 27  2  1  0  0  0  0
 27 14  1  0  0  0  0
 28 23  1  0  0  0  0
 29 30  1  0  0  0  0
 30 32  1  0  0  0  0
 30 31  2  0  0  0  0
M  END
>  <MODEL>
3

>  <REMARK>
 VINA RESULT:      -8.2      3.109      8.127
  Name = 
  1 active torsions:
  status: ('A' for Active; 'I' for Inactive)
    1  A    between atoms: C_20  and  N_29
                            x       y       z     vdW  Elec       q    Type
                         _______ _______ _______ _____ _____    ______ ____

>  <TORSDO>
F 1

$$$$
=
 OpenBabel11112416363D

 32 37  0  0  1  0  0  0  0  0999 V2000
  185.5700  178.1150  144.8870 C   0  0  0  0  0  2  0  0  0  0  0  0
  190.2720  175.6840  143.1440 C   0  0  0  0  0  0  0  0  0  0  0  0
  189.5810  172.1130  139.9090 C   0  0  0  0  0  2  0  0  0  0  0  0
  191.0690  171.9250  139.8160 C   0  0  0  0  0  3  0  0  0  0  0  0
  192.6150  176.2010  143.9730 C   0  0  0  0  0  0  0  0  0  0  0  0
  194.0280  175.8440  143.9700 C   0  0  0  0  0  0  0  0  0  0  0  0
  188.2240  176.6770  144.0970 C   0  0  0  0  0  0  0  0  0  0  0  0
  188.0260  175.5420  141.8810 C   0  0  0  0  0  2  0  0  0  0  0  0
  195.8310  174.6930  143.4450 N   0  0  0  0  0  0  0  0  0  0  0  0
  185.9410  176.4020  143.0660 C   0  0  0  0  0  2  0  0  0  0  0  0
  189.2170  173.5840  140.1090 C   0  0  0  0  0  2  0  0  0  0  0  0
  189.4460  175.0770  142.0810 C   0  0  0  0  0  0  0  0  0  0  0  0
  189.9950  174.1660  141.2630 C   0  0  0  0  0  0  0  0  0  0  0  0
  192.2180  174.3480  142.3260 C   0  0  0  0  0  0  0  0  0  0  0  0
  196.2040  175.6990  144.2630 C   0  0  0  0  0  3  0  0  0  0  0  0
  186.4000  177.2110  145.5730 O   0  0  0  0  0  0  0  0  0  0  0  0
  187.4370  176.2310  143.0830 C   0  0  0  0  0  0  0  0  0  0  0  0
  195.0880  176.4550  144.6170 C   0  0  0  0  0  3  0  0  0  0  0  0
  187.7140  177.5430  145.2200 C   0  0  0  0  0  2  0  0  0  0  0  0
  185.5220  177.8380  143.3770 C   0  0  1  0  0  3  0  0  0  0  0  0
  191.9080  172.6570  140.5540 C   0  0  0  0  0  3  0  0  0  0  0  0
  191.4110  173.7450  141.4270 C   0  0  0  0  0  0  0  0  0  0  0  0
  193.6490  173.8510  142.4760 C   0  0  0  0  0  2  0  0  0  0  0  0
  189.6750  176.4270  144.0810 C   0  0  0  0  0  3  0  0  0  0  0  0
  192.2280  177.2000  144.6380 O   0  0  0  0  0  0  0  0  0  0  0  0
  196.7180  173.6890  142.8830 C   0  0  0  0  0  1  0  0  0  0  0  0
  191.6960  175.4120  143.1750 N   0  0  0  0  0  0  0  0  0  0  0  0
  194.5060  174.7870  143.2630 C   0  0  0  0  0  0  0  0  0  0  0  0
  184.1750  178.0830  142.8860 N   0  0  0  0  0  2  0  0  0  0  0  0
  183.8860  178.2910  141.5020 C   0  0  0  0  0  0  0  0  0  0  0  0
  184.8090  178.2910  140.6450 O   0  0  0  0  0  0  0  0  0  0  0  0
  182.4820  178.5150  141.0710 C   0  0  0  0  0  1  0  0  0  0  0  0
  1 16  1  0  0  0  0
  2 27  1  0  0  0  0
  2 24  2  0  0  0  0
  3 11  1  0  0  0  0
  4  3  1  0  0  0  0
  4 21  2  0  0  0  0
  5 25  2  0  0  0  0
  6  5  1  0  0  0  0
  6 18  1  0  0  0  0
  7 19  1  0  0  0  0
  8 12  1  0  0  0  0
  8 17  1  0  0  0  0
  9 15  1  0  0  0  0
 10 17  1  0  0  0  0
 10 20  1  0  0  0  0
 11 13  1  0  0  0  0
 12  2  1  0  0  0  0
 13 22  1  0  0  0  0
 13 12  2  0  0  0  0
 14 23  1  0  0  0  0
 14 27  1  0  0  0  0
 15 18  2  0  0  0  0
 17  7  2  0  0  0  0
 19 16  1  0  0  0  0
 20 29  1  1  0  0  0
 20  1  1  0  0  0  0
 21 22  1  0  0  0  0
 22 14  2  0  0  0  0
 23 28  1  0  0  0  0
 24  7  1  0  0  0  0
 26  9  1  0  0  0  0
 27  5  1  0  0  0  0
 28  9  1  0  0  0  0
 28  6  2  0  0  0  0
 30 29  1  0  0  0  0
 31 30  2  0  0  0  0
 32 30  1  0  0  0  0
M  END
>  <MODEL>
4

>  <REMARK>
 VINA RESULT:      -8.2      2.873      8.137
  Name = 
  1 active torsions:
  status: ('A' for Active; 'I' for Inactive)
    1  A    between atoms: C_20  and  N_29
                            x       y       z     vdW  Elec       q    Type
                         _______ _______ _______ _____ _____    ______ ____

>  <TORSDO>
F 1

$$$$
=
 OpenBabel11112416363D

 32 37  0  0  1  0  0  0  0  0999 V2000
  195.8020  174.5680  146.1280 C   0  0  0  0  0  2  0  0  0  0  0  0
  190.4790  175.8950  145.1450 C   0  0  0  0  0  0  0  0  0  0  0  0
  188.8700  174.5310  140.7580 C   0  0  0  0  0  2  0  0  0  0  0  0
  187.5120  175.0770  141.0990 C   0  0  0  0  0  3  0  0  0  0  0  0
  188.9570  177.2030  146.6980 C   0  0  0  0  0  0  0  0  0  0  0  0
  187.6750  177.8690  146.8910 C   0  0  0  0  0  0  0  0  0  0  0  0
  192.8780  175.5050  145.5740 C   0  0  0  0  0  0  0  0  0  0  0  0
  191.7830  174.1010  143.8240 C   0  0  0  0  0  2  0  0  0  0  0  0
  185.6620  178.5920  146.3650 N   0  0  0  0  0  0  0  0  0  0  0  0
  194.2980  173.9470  144.1950 C   0  0  0  0  0  2  0  0  0  0  0  0
  189.5510  173.9250  141.9840 C   0  0  0  0  0  2  0  0  0  0  0  0
  190.5710  174.9840  143.9860 C   0  0  0  0  0  0  0  0  0  0  0  0
  189.5400  174.9050  143.1310 C   0  0  0  0  0  0  0  0  0  0  0  0
  188.1700  176.5080  144.4180 C   0  0  0  0  0  0  0  0  0  0  0  0
  185.9180  178.9630  147.6370 C   0  0  0  0  0  3  0  0  0  0  0  0
  195.2480  175.8270  145.8410 O   0  0  0  0  0  0  0  0  0  0  0  0
  192.9890  174.5780  144.5880 C   0  0  0  0  0  0  0  0  0  0  0  0
  187.1860  178.5210  148.0100 C   0  0  0  0  0  3  0  0  0  0  0  0
  194.0120  175.8690  146.4980 C   0  0  0  0  0  2  0  0  0  0  0  0
  195.0720  173.4270  145.4040 C   0  0  1  0  0  3  0  0  0  0  0  0
  187.2780  175.6710  142.2730 C   0  0  0  0  0  3  0  0  0  0  0  0
  188.3230  175.7370  143.3200 C   0  0  0  0  0  0  0  0  0  0  0  0
  186.9200  177.3680  144.5410 C   0  0  0  0  0  2  0  0  0  0  0  0
  191.5770  176.1270  145.8710 C   0  0  0  0  0  3  0  0  0  0  0  0
  189.7910  177.1760  147.6430 O   0  0  0  0  0  0  0  0  0  0  0  0
  184.4450  178.8870  145.6280 C   0  0  0  0  0  1  0  0  0  0  0  0
  189.2210  176.5560  145.4270 N   0  0  0  0  0  0  0  0  0  0  0  0
  186.7310  177.9200  145.9160 C   0  0  0  0  0  0  0  0  0  0  0  0
  196.0420  172.4260  144.9850 N   0  0  0  0  0  2  0  0  0  0  0  0
  195.9200  171.0450  145.3290 C   0  0  0  0  0  0  0  0  0  0  0  0
  194.9630  170.6410  146.0410 O   0  0  0  0  0  0  0  0  0  0  0  0
  196.9380  170.0750  144.8460 C   0  0  0  0  0  1  0  0  0  0  0  0
  2 27  1  0  0  0  0
  2 24  2  0  0  0  0
  3  4  1  0  0  0  0
  3 11  1  0  0  0  0
  4 21  2  0  0  0  0
  5  6  1  0  0  0  0
  5 25  2  0  0  0  0
  6 18  1  0  0  0  0
  7 24  1  0  0  0  0
  7 19  1  0  0  0  0
  8 12  1  0  0  0  0
  8 17  1  0  0  0  0
  9 15  1  0  0  0  0
 10 17  1  0  0  0  0
 10 20  1  0  0  0  0
 11 13  1  0  0  0  0
 12  2  1  0  0  0  0
 13 22  1  0  0  0  0
 13 12  2  0  0  0  0
 14 23  1  0  0  0  0
 14 27  1  0  0  0  0
 15 18  2  0  0  0  0
 16  1  1  0  0  0  0
 16 19  1  0  0  0  0
 17  7  2  0  0  0  0
 20 29  1  6  0  0  0
 20  1  1  0  0  0  0
 21 22  1  0  0  0  0
 22 14  2  0  0  0  0
 23 28  1  0  0  0  0
 26  9  1  0  0  0  0
 27  5  1  0  0  0  0
 28  9  1  0  0  0  0
 28  6  2  0  0  0  0
 29 30  1  0  0  0  0
 30 31  2  0  0  0  0
 32 30  1  0  0  0  0
M  END
>  <MODEL>
5

>  <REMARK>
 VINA RESULT:      -8.1      3.506      5.551
  Name = 
  1 active torsions:
  status: ('A' for Active; 'I' for Inactive)
    1  A    between atoms: C_20  and  N_29
                            x       y       z     vdW  Elec       q    Type
                         _______ _______ _______ _____ _____    ______ ____

>  <TORSDO>
F 1

$$$$
=
 OpenBabel11112416363D

 32 37  0  0  1  0  0  0  0  0999 V2000
  186.2870  177.4020  142.0890 C   0  0  0  0  0  2  0  0  0  0  0  0
  191.0770  174.6930  142.9740 C   0  0  1  0  0  3  0  0  0  0  0  0
  193.8290  176.6240  146.4940 C   0  0  0  0  0  2  0  0  0  0  0  0
  194.8370  175.5290  146.2900 C   0  0  0  0  0  3  0  0  0  0  0  0
  191.9310  172.7020  141.6510 C   0  0  0  0  0  0  0  0  0  0  0  0
  193.0280  171.7820  141.3850 C   0  0  0  0  0  0  0  0  0  0  0  0
  189.0300  175.9500  142.4040 C   0  0  0  0  0  0  0  0  0  0  0  0
  189.9990  176.3050  144.6780 C   0  0  0  0  0  3  0  0  0  0  0  0
  195.0350  170.8980  141.5970 N   0  0  0  0  0  0  0  0  0  0  0  0
  188.0260  177.7130  143.8960 C   0  0  0  0  0  2  0  0  0  0  0  0
  192.4030  176.1150  146.2830 C   0  0  0  0  0  2  0  0  0  0  0  0
  191.1760  175.4820  144.2190 C   0  0  0  0  0  0  0  0  0  0  0  0
  192.2910  175.3980  144.9610 C   0  0  0  0  0  0  0  0  0  0  0  0
  193.3350  173.7410  143.4550 C   0  0  0  0  0  0  0  0  0  0  0  0
  194.3670  170.1930  140.6610 C   0  0  0  0  0  3  0  0  0  0  0  0
  187.4530  177.3960  141.3040 O   0  0  0  0  0  0  0  0  0  0  0  0
  189.0170  176.6240  143.5820 C   0  0  0  0  0  0  0  0  0  0  0  0
  193.0880  170.7210  140.4980 C   0  0  0  0  0  3  0  0  0  0  0  0
  187.9540  176.0900  141.3580 C   0  0  0  0  0  2  0  0  0  0  0  0
  186.5900  177.2910  143.5910 C   0  0  1  0  0  3  0  0  0  0  0  0
  194.6650  174.5930  145.3530 C   0  0  0  0  0  3  0  0  0  0  0  0
  193.4310  174.5450  144.5350 C   0  0  0  0  0  0  0  0  0  0  0  0
  194.5470  172.9180  143.0440 C   0  0  0  0  0  2  0  0  0  0  0  0
  190.0630  174.9350  142.1360 C   0  0  0  0  0  3  0  0  0  0  0  0
  190.8470  172.5750  141.0200 O   0  0  0  0  0  0  0  0  0  0  0  0
  196.4010  170.6500  142.0260 C   0  0  0  0  0  1  0  0  0  0  0  0
  192.1080  173.7230  142.6670 N   0  0  0  0  0  0  0  0  0  0  0  0
  194.2150  171.8610  142.0420 C   0  0  0  0  0  0  0  0  0  0  0  0
  185.6550  178.1230  144.3330 N   0  0  0  0  0  2  0  0  0  0  0  0
  185.0370  177.6920  145.5470 C   0  0  0  0  0  0  0  0  0  0  0  0
  185.2680  176.5460  146.0150 O   0  0  0  0  0  0  0  0  0  0  0  0
  184.1080  178.6050  146.2620 C   0  0  0  0  0  1  0  0  0  0  0  0
  1 20  1  0  0  0  0
  2 24  1  6  0  0  0
  2 12  1  0  0  0  0
  4  3  1  0  0  0  0
  5 27  1  0  0  0  0
  6  5  1  0  0  0  0
  6 28  2  0  0  0  0
  7 17  1  0  0  0  0
  9 26  1  0  0  0  0
  9 28  1  0  0  0  0
 11  3  1  0  0  0  0
 12  8  1  0  0  0  0
 12 13  2  0  0  0  0
 13 11  1  0  0  0  0
 14 22  2  0  0  0  0
 15  9  1  0  0  0  0
 16 19  1  0  0  0  0
 16  1  1  0  0  0  0
 17 10  1  0  0  0  0
 17  8  2  0  0  0  0
 18 15  2  0  0  0  0
 18  6  1  0  0  0  0
 19  7  1  0  0  0  0
 20 10  1  0  0  0  0
 20 29  1  1  0  0  0
 21  4  2  0  0  0  0
 22 13  1  0  0  0  0
 22 21  1  0  0  0  0
 23 14  1  0  0  0  0
 24  7  2  0  0  0  0
 25  5  2  0  0  0  0
 27  2  1  0  0  0  0
 27 14  1  0  0  0  0
 28 23  1  0  0  0  0
 29 30  1  0  0  0  0
 30 31  2  0  0  0  0
 30 32  1  0  0  0  0
M  END
>  <MODEL>
6

>  <REMARK>
 VINA RESULT:      -8.0      2.545      8.085
  Name = 
  1 active torsions:
  status: ('A' for Active; 'I' for Inactive)
    1  A    between atoms: C_20  and  N_29
                            x       y       z     vdW  Elec       q    Type
                         _______ _______ _______ _____ _____    ______ ____

>  <TORSDO>
F 1

$$$$
=
 OpenBabel11112416363D

 32 37  0  0  1  0  0  0  0  0999 V2000
  186.3160  178.4250  142.4990 C   0  0  0  0  0  2  0  0  0  0  0  0
  189.4310  173.8880  141.6210 C   0  0  1  0  0  3  0  0  0  0  0  0
  192.8540  173.1450  145.0010 C   0  0  0  0  0  2  0  0  0  0  0  0
  193.2660  171.8860  144.2900 C   0  0  0  0  0  3  0  0  0  0  0  0
  189.2750  172.3360  139.6180 C   0  0  0  0  0  0  0  0  0  0  0  0
  189.8430  171.2110  138.8870 C   0  0  0  0  0  0  0  0  0  0  0  0
  188.1390  175.9790  141.8470 C   0  0  0  0  0  0  0  0  0  0  0  0
  189.2300  175.0750  143.9040 C   0  0  0  0  0  3  0  0  0  0  0  0
  191.2540  169.5770  138.4480 N   0  0  0  0  0  0  0  0  0  0  0  0
  188.0640  177.3390  143.9660 C   0  0  0  0  0  2  0  0  0  0  0  0
  191.3450  173.3690  144.9070 C   0  0  0  0  0  2  0  0  0  0  0  0
  189.9060  174.0680  143.0080 C   0  0  0  0  0  0  0  0  0  0  0  0
  190.8890  173.2820  143.4720 C   0  0  0  0  0  0  0  0  0  0  0  0
  191.0460  172.0000  141.3660 C   0  0  0  0  0  0  0  0  0  0  0  0
  190.3160  169.5880  137.4790 C   0  0  0  0  0  3  0  0  0  0  0  0
  187.3350  178.2270  141.5510 O   0  0  0  0  0  0  0  0  0  0  0  0
  188.4600  176.1320  143.1570 C   0  0  0  0  0  0  0  0  0  0  0  0
  189.3990  170.6090  137.7220 C   0  0  0  0  0  3  0  0  0  0  0  0
  187.2070  176.9050  141.1090 C   0  0  0  0  0  2  0  0  0  0  0  0
  186.5820  177.6740  143.8120 C   0  0  1  0  0  3  0  0  0  0  0  0
  192.6700  171.5020  143.1580 C   0  0  0  0  0  3  0  0  0  0  0  0
  191.5200  172.2530  142.6040 C   0  0  0  0  0  0  0  0  0  0  0  0
  191.7550  170.9610  140.5090 C   0  0  0  0  0  2  0  0  0  0  0  0
  188.6070  174.8010  141.0970 C   0  0  0  0  0  3  0  0  0  0  0  0
  188.2300  172.8930  139.1870 O   0  0  0  0  0  0  0  0  0  0  0  0
  192.3800  168.6620  138.5240 C   0  0  0  0  0  1  0  0  0  0  0  0
  189.9160  172.7610  140.8480 N   0  0  0  0  0  0  0  0  0  0  0  0
  190.9590  170.5620  139.3090 C   0  0  0  0  0  0  0  0  0  0  0  0
  186.1340  178.4900  144.9310 N   0  0  0  0  0  2  0  0  0  0  0  0
  185.5510  177.9280  146.1080 C   0  0  0  0  0  0  0  0  0  0  0  0
  185.3790  176.6850  146.2110 O   0  0  0  0  0  0  0  0  0  0  0  0
  185.1370  178.8220  147.2210 C   0  0  0  0  0  1  0  0  0  0  0  0
  1 20  1  0  0  0  0
  2 24  1  6  0  0  0
  2 12  1  0  0  0  0
  4  3  1  0  0  0  0
  5 27  1  0  0  0  0
  6 28  2  0  0  0  0
  6  5  1  0  0  0  0
  7 17  1  0  0  0  0
  9 26  1  0  0  0  0
  9 28  1  0  0  0  0
 11  3  1  0  0  0  0
 12 13  2  0  0  0  0
 12  8  1  0  0  0  0
 13 11  1  0  0  0  0
 14 22  2  0  0  0  0
 15 18  2  0  0  0  0
 15  9  1  0  0  0  0
 16  1  1  0  0  0  0
 17  8  2  0  0  0  0
 17 10  1  0  0  0  0
 18  6  1  0  0  0  0
 19 16  1  0  0  0  0
 19  7  1  0  0  0  0
 20 10  1  0  0  0  0
 20 29  1  1  0  0  0
 21  4  2  0  0  0  0
 22 21  1  0  0  0  0
 22 13  1  0  0  0  0
 23 14  1  0  0  0  0
 24  7  2  0  0  0  0
 25  5  2  0  0  0  0
 27 14  1  0  0  0  0
 27  2  1  0  0  0  0
 28 23  1  0  0  0  0
 29 30  1  0  0  0  0
 30 31  2  0  0  0  0
 30 32  1  0  0  0  0
M  END
>  <MODEL>
7

>  <REMARK>
 VINA RESULT:      -7.9      2.382      8.193
  Name = 
  1 active torsions:
  status: ('A' for Active; 'I' for Inactive)
    1  A    between atoms: C_20  and  N_29
                            x       y       z     vdW  Elec       q    Type
                         _______ _______ _______ _____ _____    ______ ____

>  <TORSDO>
F 1

$$$$
=
 OpenBabel11112416363D

 32 37  0  0  1  0  0  0  0  0999 V2000
  178.3000  179.5780  141.3840 C   0  0  0  0  0  2  0  0  0  0  0  0
  183.5230  178.4630  142.9760 C   0  0  0  0  0  0  0  0  0  0  0  0
  186.3540  176.7190  139.4220 C   0  0  0  0  0  2  0  0  0  0  0  0
  187.5100  176.6740  140.3800 C   0  0  0  0  0  3  0  0  0  0  0  0
  184.4410  178.6740  145.3340 C   0  0  0  0  0  0  0  0  0  0  0  0
  185.5500  178.4340  146.2480 C   0  0  0  0  0  0  0  0  0  0  0  0
  181.1500  178.8030  142.3870 C   0  0  0  0  0  0  0  0  0  0  0  0
  182.8070  178.7880  140.5180 C   0  0  0  0  0  2  0  0  0  0  0  0
  187.5420  177.7460  146.8890 N   0  0  0  0  0  0  0  0  0  0  0  0
  180.3130  178.9020  140.0130 C   0  0  0  0  0  2  0  0  0  0  0  0
  185.4450  177.9160  139.7000 C   0  0  0  0  0  2  0  0  0  0  0  0
  183.8330  178.3610  141.5360 C   0  0  0  0  0  0  0  0  0  0  0  0
  185.0540  177.9520  141.1560 C   0  0  0  0  0  0  0  0  0  0  0  0
  185.8630  177.7520  143.4820 C   0  0  0  0  0  0  0  0  0  0  0  0
  186.9260  178.2910  147.9590 C   0  0  0  0  0  3  0  0  0  0  0  0
  178.7730  178.5080  142.1640 O   0  0  0  0  0  0  0  0  0  0  0  0
  181.3990  178.8240  141.0520 C   0  0  0  0  0  0  0  0  0  0  0  0
  185.6590  178.7420  147.5930 C   0  0  0  0  0  3  0  0  0  0  0  0
  179.7830  179.0350  142.9770 C   0  0  0  0  0  2  0  0  0  0  0  0
  179.3100  180.0150  140.3120 C   0  0  1  0  0  3  0  0  0  0  0  0
  187.3660  177.0360  141.6580 C   0  0  0  0  0  3  0  0  0  0  0  0
  186.0840  177.5800  142.1610 C   0  0  0  0  0  0  0  0  0  0  0  0
  186.9400  177.3190  144.4670 C   0  0  0  0  0  2  0  0  0  0  0  0
  182.2550  178.6660  143.3510 C   0  0  0  0  0  3  0  0  0  0  0  0
  183.3970  179.2400  145.7580 O   0  0  0  0  0  0  0  0  0  0  0  0
  188.8700  177.1580  146.8880 C   0  0  0  0  0  1  0  0  0  0  0  0
  184.5870  178.2840  143.9440 N   0  0  0  0  0  0  0  0  0  0  0  0
  186.7040  177.8410  145.8460 C   0  0  0  0  0  0  0  0  0  0  0  0
  178.5950  180.3830  139.1000 N   0  0  0  0  0  2  0  0  0  0  0  0
  178.7800  181.6420  138.4500 C   0  0  0  0  0  0  0  0  0  0  0  0
  179.5660  182.5030  138.9260 O   0  0  0  0  0  0  0  0  0  0  0  0
  178.0310  181.9410  137.2010 C   0  0  0  0  0  1  0  0  0  0  0  0
  1 16  1  0  0  0  0
  2 24  2  0  0  0  0
  2 27  1  0  0  0  0
  3 11  1  0  0  0  0
  3  4  1  0  0  0  0
  4 21  2  0  0  0  0
  5 25  2  0  0  0  0
  5  6  1  0  0  0  0
  6 18  1  0  0  0  0
  7 19  1  0  0  0  0
  7 24  1  0  0  0  0
  8 17  1  0  0  0  0
  8 12  1  0  0  0  0
  9 15  1  0  0  0  0
 10 20  1  0  0  0  0
 10 17  1  0  0  0  0
 11 13  1  0  0  0  0
 12  2  1  0  0  0  0
 13 12  2  0  0  0  0
 13 22  1  0  0  0  0
 14 27  1  0  0  0  0
 14 23  1  0  0  0  0
 16 19  1  0  0  0  0
 17  7  2  0  0  0  0
 18 15  2  0  0  0  0
 20 29  1  6  0  0  0
 20  1  1  0  0  0  0
 21 22  1  0  0  0  0
 22 14  2  0  0  0  0
 23 28  1  0  0  0  0
 26  9  1  0  0  0  0
 27  5  1  0  0  0  0
 28  6  2  0  0  0  0
 28  9  1  0  0  0  0
 30 31  2  0  0  0  0
 30 29  1  0  0  0  0
 32 30  1  0  0  0  0
M  END
>  <MODEL>
8

>  <REMARK>
 VINA RESULT:      -7.4      5.063      9.435
  Name = 
  1 active torsions:
  status: ('A' for Active; 'I' for Inactive)
    1  A    between atoms: C_20  and  N_29
                            x       y       z     vdW  Elec       q    Type
                         _______ _______ _______ _____ _____    ______ ____

>  <TORSDO>
F 1

$$$$
=
 OpenBabel11112416363D

 32 37  0  0  1  0  0  0  0  0999 V2000
  187.1550  177.4570  146.8900 C   0  0  0  0  0  2  0  0  0  0  0  0
  191.3220  174.8890  144.2240 C   0  0  0  0  0  0  0  0  0  0  0  0
  189.9240  172.4080  140.2770 C   0  0  0  0  0  2  0  0  0  0  0  0
  191.3570  172.0330  140.0200 C   0  0  0  0  0  3  0  0  0  0  0  0
  193.7500  174.8270  144.9610 C   0  0  0  0  0  0  0  0  0  0  0  0
  195.0840  174.2790  144.7560 C   0  0  0  0  0  0  0  0  0  0  0  0
  189.5040  175.8960  145.5570 C   0  0  0  0  0  0  0  0  0  0  0  0
  189.0320  175.4080  143.1530 C   0  0  0  0  0  2  0  0  0  0  0  0
  196.6530  173.0480  143.8190 N   0  0  0  0  0  0  0  0  0  0  0  0
  187.1670  176.2330  144.6790 C   0  0  0  0  0  2  0  0  0  0  0  0
  189.8140  173.8150  140.8630 C   0  0  0  0  0  2  0  0  0  0  0  0
  190.3640  174.7030  143.1160 C   0  0  0  0  0  0  0  0  0  0  0  0
  190.7230  173.9610  142.0560 C   0  0  0  0  0  0  0  0  0  0  0  0
  192.9880  173.5370  142.9470 C   0  0  0  0  0  0  0  0  0  0  0  0
  197.2180  173.7460  144.8260 C   0  0  0  0  0  3  0  0  0  0  0  0
  187.8550  176.2960  147.2620 O   0  0  0  0  0  0  0  0  0  0  0  0
  188.6140  175.8450  144.5320 C   0  0  0  0  0  0  0  0  0  0  0  0
  196.2560  174.5410  145.4450 C   0  0  0  0  0  3  0  0  0  0  0  0
  189.1890  176.5100  146.8960 C   0  0  0  0  0  2  0  0  0  0  0  0
  187.0000  177.5860  145.3680 C   0  0  1  0  0  3  0  0  0  0  0  0
  192.3340  172.4200  140.8440 C   0  0  0  0  0  3  0  0  0  0  0  0
  192.0580  173.3090  141.9960 C   0  0  0  0  0  0  0  0  0  0  0  0
  194.3240  172.8120  142.8530 C   0  0  0  0  0  2  0  0  0  0  0  0
  190.8930  175.4470  145.3610 C   0  0  0  0  0  3  0  0  0  0  0  0
  193.5590  175.6680  145.8810 O   0  0  0  0  0  0  0  0  0  0  0  0
  197.3400  172.1030  142.9560 C   0  0  0  0  0  1  0  0  0  0  0  0
  192.6820  174.4120  144.0720 N   0  0  0  0  0  0  0  0  0  0  0  0
  195.3540  173.3800  143.7740 C   0  0  0  0  0  0  0  0  0  0  0  0
  185.6920  178.1450  145.0630 N   0  0  0  0  0  2  0  0  0  0  0  0
  185.4170  178.8420  143.8470 C   0  0  0  0  0  0  0  0  0  0  0  0
  186.3210  179.0210  142.9890 O   0  0  0  0  0  0  0  0  0  0  0  0
  184.0490  179.3670  143.5950 C   0  0  0  0  0  1  0  0  0  0  0  0
  1 16  1  0  0  0  0
  2 24  2  0  0  0  0
  3 11  1  0  0  0  0
  4  3  1  0  0  0  0
  4 21  2  0  0  0  0
  5 25  2  0  0  0  0
  6  5  1  0  0  0  0
  6 18  1  0  0  0  0
  7 19  1  0  0  0  0
  8 17  1  0  0  0  0
  9 15  1  0  0  0  0
 10 20  1  0  0  0  0
 11 13  1  0  0  0  0
 12  8  1  0  0  0  0
 12  2  1  0  0  0  0
 13 12  2  0  0  0  0
 14 27  1  0  0  0  0
 15 18  2  0  0  0  0
 17 10  1  0  0  0  0
 17  7  2  0  0  0  0
 19 16  1  0  0  0  0
 20 29  1  1  0  0  0
 20  1  1  0  0  0  0
 21 22  1  0  0  0  0
 22 13  1  0  0  0  0
 22 14  2  0  0  0  0
 23 14  1  0  0  0  0
 23 28  1  0  0  0  0
 24  7  1  0  0  0  0
 26  9  1  0  0  0  0
 27  2  1  0  0  0  0
 27  5  1  0  0  0  0
 28  9  1  0  0  0  0
 28  6  2  0  0  0  0
 30 29  1  0  0  0  0
 31 30  2  0  0  0  0
 32 30  1  0  0  0  0
M  END
>  <MODEL>
9

>  <REMARK>
 VINA RESULT:      -7.1      3.203      8.685
  Name = 
  1 active torsions:
  status: ('A' for Active; 'I' for Inactive)
    1  A    between atoms: C_20  and  N_29
                            x       y       z     vdW  Elec       q    Type
                         _______ _______ _______ _____ _____    ______ ____

>  <TORSDO>
F 1

$$$$
