=
 OpenBabel11112416203D

 30 35  0  0  1  0  0  0  0  0999 V2000
  187.6760  176.4000  145.2870 C   0  0  0  0  0  0  0  0  0  0  0  0
  185.8360  177.6350  146.4810 C   0  0  0  0  0  0  0  0  0  0  0  0
  185.9480  177.3120  141.5660 N   0  0  0  0  0  2  0  0  0  0  0  0
  188.2270  175.9460  144.0680 C   0  0  0  0  0  0  0  0  0  0  0  0
  188.4010  176.1380  146.4950 N   0  0  0  0  0  0  0  0  0  0  0  0
  189.3110  172.8710  145.5410 Cl  0  0  0  0  0  0  0  0  0  0  0  0
  189.0370  173.8100  142.0890 N   0  0  1  0  0  0  0  0  0  0  0  0
  189.8830  174.5530  145.3670 C   0  0  2  0  0  3  0  0  0  0  0  0
  188.2180  174.5960  141.1420 C   0  0  2  0  0  3  0  0  0  0  0  0
  186.9340  176.7250  140.7220 C   0  0  0  0  0  0  0  0  0  0  0  0
  189.4330  175.3480  146.5600 C   0  0  0  0  0  0  0  0  0  0  0  0
  189.4090  175.1150  144.0980 N   0  0  0  0  0  0  0  0  0  0  0  0
  184.6530  178.3690  146.3920 C   0  0  0  0  0  3  0  0  0  0  0  0
  188.7910  174.3880  139.7600 C   0  0  0  0  0  2  0  0  0  0  0  0
  189.7850  172.8430  141.2890 C   0  0  0  0  0  2  0  0  0  0  0  0
  186.3610  177.3850  147.8550 C   0  0  0  0  0  1  0  0  0  0  0  0
  186.4260  177.0330  142.8720 C   0  0  0  0  0  0  0  0  0  0  0  0
  184.0880  178.6380  145.1500 C   0  0  0  0  0  3  0  0  0  0  0  0
  186.4640  177.1590  145.2980 C   0  0  0  0  0  0  0  0  0  0  0  0
  187.5970  176.3090  142.8720 C   0  0  0  0  0  0  0  0  0  0  0  0
  186.8680  176.7870  139.4660 O   0  0  0  0  0  0  0  0  0  0  0  0
  188.0680  176.0880  141.4720 C   0  0  1  0  0  3  0  0  0  0  0  0
  189.4020  173.0180  139.8330 C   0  0  0  0  0  2  0  0  0  0  0  0
  190.6880  175.5530  142.1540 O   0  0  0  0  0  1  0  0  0  0  0  0
  184.6840  178.1860  144.0180 N   0  0  0  0  0  0  0  0  0  0  0  0
  185.8360  177.4640  144.0560 C   0  0  0  0  0  0  0  0  0  0  0  0
  190.0200  174.5650  142.8880 C   0  0  2  0  0  3  0  0  0  0  0  0
  190.1160  175.1770  147.7660 O   0  0  0  0  0  0  0  0  0  0  0  0
  191.4960  177.0270  148.4120 C   0  0  0  0  0  1  0  0  0  0  0  0
  191.4640  175.5890  147.9400 C   0  0  0  0  0  2  0  0  0  0  0  0
  1 19  1  0  0  0  0
  1  5  1  0  0  0  0
  2 16  1  0  0  0  0
  3 17  1  0  0  0  0
  4 12  1  0  0  0  0
  4  1  2  0  0  0  0
  5 11  2  0  0  0  0
  7 15  1  6  0  0  0
  7 27  1  0  0  0  0
  8  6  1  1  0  0  0
  8 11  1  0  0  0  0
  9 14  1  6  0  0  0
  9 22  1  0  0  0  0
  9  7  1  0  0  0  0
 10  3  1  0  0  0  0
 11 28  1  0  0  0  0
 12  8  1  0  0  0  0
 13  2  1  0  0  0  0
 14 23  1  0  0  0  0
 17 26  1  0  0  0  0
 18 13  2  0  0  0  0
 19  2  2  0  0  0  0
 20 17  2  0  0  0  0
 20  4  1  0  0  0  0
 21 10  2  0  0  0  0
 22 10  1  6  0  0  0
 22 20  1  0  0  0  0
 23 15  1  0  0  0  0
 25 26  2  0  0  0  0
 25 18  1  0  0  0  0
 26 19  1  0  0  0  0
 27 24  1  6  0  0  0
 27 12  1  0  0  0  0
 28 30  1  0  0  0  0
 30 29  1  0  0  0  0
M  END
>  <MODEL>
1

>  <REMARK>
 VINA RESULT:      -8.4      0.000      0.000
  Name = 
  2 active torsions:
  status: ('A' for Active; 'I' for Inactive)
    1  A    between atoms: C_11  and  O_28
    2  A    between atoms: O_28  and  C_30
                            x       y       z     vdW  Elec       q    Type
                         _______ _______ _______ _____ _____    ______ ____

>  <TORSDO>
F 2

$$$$
=
 OpenBabel11112416203D

 30 35  0  0  1  0  0  0  0  0999 V2000
  186.3260  177.2870  143.9660 C   0  0  0  0  0  0  0  0  0  0  0  0
  184.5570  178.3890  145.3780 C   0  0  0  0  0  0  0  0  0  0  0  0
  188.3690  176.0230  147.4140 N   0  0  0  0  0  2  0  0  0  0  0  0
  187.5410  176.5720  143.9020 C   0  0  0  0  0  0  0  0  0  0  0  0
  185.6430  177.5720  142.7380 N   0  0  0  0  0  0  0  0  0  0  0  0
  188.5970  178.3490  140.9820 Cl  0  0  0  0  0  0  0  0  0  0  0  0
  190.4690  176.2570  143.2170 N   0  0  1  0  0  0  0  0  0  0  0  0
  187.5930  176.9350  141.4050 C   0  0  2  0  0  3  0  0  0  0  0  0
  190.5990  175.8680  144.6380 C   0  0  2  0  0  3  0  0  0  0  0  0
  189.4140  175.2880  146.7850 C   0  0  0  0  0  0  0  0  0  0  0  0
  186.1660  177.3790  141.5610 C   0  0  0  0  0  0  0  0  0  0  0  0
  188.1220  176.2870  142.6090 N   0  0  0  0  0  0  0  0  0  0  0  0
  184.0850  178.6990  146.6540 C   0  0  0  0  0  3  0  0  0  0  0  0
  191.7670  174.9160  144.7450 C   0  0  0  0  0  2  0  0  0  0  0  0
  191.7340  175.9140  142.5740 C   0  0  0  0  0  2  0  0  0  0  0  0
  183.7400  178.8800  144.2300 C   0  0  0  0  0  1  0  0  0  0  0  0
  187.6190  176.5270  146.3200 C   0  0  0  0  0  0  0  0  0  0  0  0
  184.7920  178.2900  147.7800 C   0  0  0  0  0  3  0  0  0  0  0  0
  185.7630  177.6520  145.2290 C   0  0  0  0  0  0  0  0  0  0  0  0
  188.1490  176.1740  145.0990 C   0  0  0  0  0  0  0  0  0  0  0  0
  190.2870  174.6630  147.4440 O   0  0  0  0  0  0  0  0  0  0  0  0
  189.3350  175.2870  145.2860 C   0  0  1  0  0  3  0  0  0  0  0  0
  192.6670  175.3320  143.6170 C   0  0  0  0  0  2  0  0  0  0  0  0
  189.2800  174.2250  142.7400 O   0  0  0  0  0  1  0  0  0  0  0  0
  185.9440  177.5870  147.6420 N   0  0  0  0  0  0  0  0  0  0  0  0
  186.4430  177.2650  146.4190 C   0  0  0  0  0  0  0  0  0  0  0  0
  189.3990  175.5900  142.4510 C   0  0  2  0  0  3  0  0  0  0  0  0
  185.4220  177.6380  140.4080 O   0  0  0  0  0  0  0  0  0  0  0  0
  183.0410  177.9020  140.3320 C   0  0  0  0  0  1  0  0  0  0  0  0
  184.3820  178.6050  140.3760 C   0  0  0  0  0  2  0  0  0  0  0  0
  1 19  1  0  0  0  0
  2 13  1  0  0  0  0
  4  1  2  0  0  0  0
  4 20  1  0  0  0  0
  5  1  1  0  0  0  0
  7 15  1  6  0  0  0
  7  9  1  0  0  0  0
  8  6  1  1  0  0  0
  8 11  1  0  0  0  0
  8 12  1  0  0  0  0
  9 14  1  6  0  0  0
  9 22  1  0  0  0  0
 10  3  1  0  0  0  0
 10 21  2  0  0  0  0
 11  5  2  0  0  0  0
 12  4  1  0  0  0  0
 13 18  2  0  0  0  0
 15 23  1  0  0  0  0
 16  2  1  0  0  0  0
 17 26  1  0  0  0  0
 17  3  1  0  0  0  0
 19  2  2  0  0  0  0
 19 26  1  0  0  0  0
 20 17  2  0  0  0  0
 22 20  1  1  0  0  0
 22 10  1  0  0  0  0
 23 14  1  0  0  0  0
 25 18  1  0  0  0  0
 26 25  2  0  0  0  0
 27 12  1  0  0  0  0
 27 24  1  1  0  0  0
 27  7  1  0  0  0  0
 28 11  1  0  0  0  0
 29 30  1  0  0  0  0
 30 28  1  0  0  0  0
M  END
>  <MODEL>
2

>  <REMARK>
 VINA RESULT:      -8.1      2.155      5.353
  Name = 
  2 active torsions:
  status: ('A' for Active; 'I' for Inactive)
    1  A    between atoms: C_11  and  O_28
    2  A    between atoms: O_28  and  C_30
                            x       y       z     vdW  Elec       q    Type
                         _______ _______ _______ _____ _____    ______ ____

>  <TORSDO>
F 2

$$$$
=
 OpenBabel11112416203D

 30 35  0  0  1  0  0  0  0  0999 V2000
  188.1650  177.0490  144.6380 C   0  0  0  0  0  0  0  0  0  0  0  0
  186.1720  178.5800  144.4970 C   0  0  0  0  0  0  0  0  0  0  0  0
  187.3690  175.5710  140.7850 N   0  0  0  0  0  2  0  0  0  0  0  0
  188.9500  176.0380  144.0410 C   0  0  0  0  0  0  0  0  0  0  0  0
  188.5840  177.5710  145.9050 N   0  0  0  0  0  0  0  0  0  0  0  0
  189.5100  174.4210  147.1820 Cl  0  0  0  0  0  0  0  0  0  0  0  0
  190.0700  173.2380  143.8400 N   0  0  1  0  0  0  0  0  0  0  0  0
  190.1950  175.7570  146.2170 C   0  0  2  0  0  3  0  0  0  0  0  0
  189.5280  173.2870  142.4660 C   0  0  2  0  0  3  0  0  0  0  0  0
  188.4870  174.6980  140.6550 C   0  0  0  0  0  0  0  0  0  0  0  0
  189.5320  177.0430  146.6240 C   0  0  0  0  0  0  0  0  0  0  0  0
  190.0490  175.4700  144.7870 N   0  0  0  0  0  0  0  0  0  0  0  0
  185.0800  179.0360  143.7580 C   0  0  0  0  0  3  0  0  0  0  0  0
  190.3860  172.3900  141.6050 C   0  0  0  0  0  2  0  0  0  0  0  0
  190.9260  172.0570  143.9090 C   0  0  0  0  0  2  0  0  0  0  0  0
  186.3600  179.1880  145.8470 C   0  0  0  0  0  1  0  0  0  0  0  0
  187.5260  176.1130  142.0860 C   0  0  0  0  0  0  0  0  0  0  0  0
  184.8240  178.5140  142.4940 C   0  0  0  0  0  3  0  0  0  0  0  0
  187.0240  177.5790  143.9580 C   0  0  0  0  0  0  0  0  0  0  0  0
  188.6260  175.6150  142.7460 C   0  0  0  0  0  0  0  0  0  0  0  0
  188.7080  174.0400  139.6040 O   0  0  0  0  0  0  0  0  0  0  0  0
  189.3880  174.6890  141.8560 C   0  0  1  0  0  3  0  0  0  0  0  0
  190.8900  171.3530  142.5670 C   0  0  0  0  0  2  0  0  0  0  0  0
  191.7550  174.8500  143.2650 O   0  0  0  0  0  1  0  0  0  0  0  0
  185.6340  177.5580  141.9750 N   0  0  0  0  0  0  0  0  0  0  0  0
  186.7080  177.0810  142.6610 C   0  0  0  0  0  0  0  0  0  0  0  0
  190.8880  174.3910  144.2640 C   0  0  2  0  0  3  0  0  0  0  0  0
  189.9160  177.6350  147.8290 O   0  0  0  0  0  0  0  0  0  0  0  0
  191.3090  178.2120  149.6920 C   0  0  0  0  0  1  0  0  0  0  0  0
  191.1920  177.4130  148.4110 C   0  0  0  0  0  2  0  0  0  0  0  0
  1  5  1  0  0  0  0
  2 16  1  0  0  0  0
  3 17  1  0  0  0  0
  4  1  1  0  0  0  0
  4 12  1  0  0  0  0
  5 11  2  0  0  0  0
  7 15  1  6  0  0  0
  7 27  1  0  0  0  0
  8 11  1  0  0  0  0
  8  6  1  1  0  0  0
  9 14  1  6  0  0  0
  9  7  1  0  0  0  0
 10  3  1  0  0  0  0
 11 28  1  0  0  0  0
 12  8  1  0  0  0  0
 13  2  2  0  0  0  0
 14 23  1  0  0  0  0
 17 26  2  0  0  0  0
 17 20  1  0  0  0  0
 18 13  1  0  0  0  0
 19  2  1  0  0  0  0
 19  1  2  0  0  0  0
 20  4  2  0  0  0  0
 21 10  2  0  0  0  0
 22 10  1  6  0  0  0
 22  9  1  0  0  0  0
 22 20  1  0  0  0  0
 23 15  1  0  0  0  0
 25 18  2  0  0  0  0
 25 26  1  0  0  0  0
 26 19  1  0  0  0  0
 27 24  1  6  0  0  0
 27 12  1  0  0  0  0
 28 30  1  0  0  0  0
 30 29  1  0  0  0  0
M  END
>  <MODEL>
3

>  <REMARK>
 VINA RESULT:      -7.7      1.662      2.189
  Name = 
  2 active torsions:
  status: ('A' for Active; 'I' for Inactive)
    1  A    between atoms: C_11  and  O_28
    2  A    between atoms: O_28  and  C_30
                            x       y       z     vdW  Elec       q    Type
                         _______ _______ _______ _____ _____    ______ ____

>  <TORSDO>
F 2

$$$$
=
 OpenBabel11112416203D

 30 35  0  0  1  0  0  0  0  0999 V2000
  188.9460  175.8010  144.7360 C   0  0  0  0  0  0  0  0  0  0  0  0
  190.1620  176.6770  146.7590 C   0  0  0  0  0  0  0  0  0  0  0  0
  192.1490  173.2260  143.8570 N   0  0  0  0  0  2  0  0  0  0  0  0
  188.9460  174.9580  143.6030 C   0  0  0  0  0  0  0  0  0  0  0  0
  187.7600  176.5560  145.0170 N   0  0  0  0  0  0  0  0  0  0  0  0
  187.1670  177.3600  141.6380 Cl  0  0  0  0  0  0  0  0  0  0  0  0
  188.9460  174.4110  140.6300 N   0  0  1  0  0  0  0  0  0  0  0  0
  186.8190  176.0620  142.8130 C   0  0  2  0  0  3  0  0  0  0  0  0
  190.1330  173.5870  140.9390 C   0  0  2  0  0  3  0  0  0  0  0  0
  191.5880  172.5660  142.7270 C   0  0  0  0  0  0  0  0  0  0  0  0
  186.7580  176.6560  144.1920 C   0  0  0  0  0  0  0  0  0  0  0  0
  187.8220  174.9980  142.6960 N   0  0  0  0  0  0  0  0  0  0  0  0
  191.3070  176.6480  147.5550 C   0  0  0  0  0  3  0  0  0  0  0  0
  190.1970  172.4760  139.9180 C   0  0  0  0  0  2  0  0  0  0  0  0
  188.5600  174.0880  139.2590 C   0  0  0  0  0  2  0  0  0  0  0  0
  189.0860  177.6220  147.1770 C   0  0  0  0  0  1  0  0  0  0  0  0
  191.1420  174.1550  144.2260 C   0  0  0  0  0  0  0  0  0  0  0  0
  192.3640  175.8040  147.2290 C   0  0  0  0  0  3  0  0  0  0  0  0
  190.0760  175.8420  145.6110 C   0  0  0  0  0  0  0  0  0  0  0  0
  190.0470  174.1180  143.3930 C   0  0  0  0  0  0  0  0  0  0  0  0
  192.1890  171.6380  142.1230 O   0  0  0  0  0  0  0  0  0  0  0  0
  190.2090  173.0410  142.3730 C   0  0  1  0  0  3  0  0  0  0  0  0
  189.5390  173.0720  138.7060 C   0  0  0  0  0  2  0  0  0  0  0  0
  187.5250  172.8420  141.7650 O   0  0  0  0  0  1  0  0  0  0  0  0
  192.2860  175.0050  146.1360 N   0  0  0  0  0  0  0  0  0  0  0  0
  191.1910  175.0020  145.3290 C   0  0  0  0  0  0  0  0  0  0  0  0
  187.7580  174.1920  141.4770 C   0  0  2  0  0  3  0  0  0  0  0  0
  185.6160  177.3730  144.5550 O   0  0  0  0  0  0  0  0  0  0  0  0
  185.4780  179.6990  143.9930 C   0  0  0  0  0  1  0  0  0  0  0  0
  185.6820  178.6840  145.0980 C   0  0  0  0  0  2  0  0  0  0  0  0
  1  5  1  0  0  0  0
  1 19  1  0  0  0  0
  2 16  1  0  0  0  0
  2 13  1  0  0  0  0
  3 17  1  0  0  0  0
  4  1  2  0  0  0  0
  7 15  1  6  0  0  0
  7  9  1  0  0  0  0
  7 27  1  0  0  0  0
  8  6  1  6  0  0  0
  8 11  1  0  0  0  0
  9 14  1  6  0  0  0
  9 22  1  0  0  0  0
 10  3  1  0  0  0  0
 11 28  1  0  0  0  0
 11  5  2  0  0  0  0
 12  8  1  0  0  0  0
 12  4  1  0  0  0  0
 17 26  1  0  0  0  0
 18 13  2  0  0  0  0
 19  2  2  0  0  0  0
 20  4  1  0  0  0  0
 20 17  2  0  0  0  0
 21 10  2  0  0  0  0
 22 10  1  1  0  0  0
 22 20  1  0  0  0  0
 23 15  1  0  0  0  0
 23 14  1  0  0  0  0
 25 18  1  0  0  0  0
 26 19  1  0  0  0  0
 26 25  2  0  0  0  0
 27 24  1  1  0  0  0
 27 12  1  0  0  0  0
 28 30  1  0  0  0  0
 29 30  1  0  0  0  0
M  END
>  <MODEL>
4

>  <REMARK>
 VINA RESULT:      -7.4      2.505      5.110
  Name = 
  2 active torsions:
  status: ('A' for Active; 'I' for Inactive)
    1  A    between atoms: C_11  and  O_28
    2  A    between atoms: O_28  and  C_30
                            x       y       z     vdW  Elec       q    Type
                         _______ _______ _______ _____ _____    ______ ____

>  <TORSDO>
F 2

$$$$
=
 OpenBabel11112416203D

 30 35  0  0  1  0  0  0  0  0999 V2000
  188.2430  175.8340  141.9110 C   0  0  0  0  0  0  0  0  0  0  0  0
  186.6160  176.9740  140.3650 C   0  0  0  0  0  0  0  0  0  0  0  0
  186.8270  178.0960  145.1570 N   0  0  0  0  0  2  0  0  0  0  0  0
  188.7880  175.7140  143.2080 C   0  0  0  0  0  0  0  0  0  0  0  0
  188.7100  174.9370  140.8960 N   0  0  0  0  0  0  0  0  0  0  0  0
  192.0750  175.1230  141.9250 Cl  0  0  0  0  0  0  0  0  0  0  0  0
  191.0060  175.9510  145.2490 N   0  0  1  0  0  0  0  0  0  0  0  0
  190.5870  174.2050  142.2840 C   0  0  2  0  0  3  0  0  0  0  0  0
  190.0140  176.7440  146.0060 C   0  0  2  0  0  3  0  0  0  0  0  0
  187.6200  177.5140  146.1860 C   0  0  0  0  0  0  0  0  0  0  0  0
  189.7370  174.1500  141.0460 C   0  0  0  0  0  0  0  0  0  0  0  0
  189.8900  174.8060  143.4260 N   0  0  0  0  0  0  0  0  0  0  0  0
  185.6060  177.9220  140.2010 C   0  0  0  0  0  3  0  0  0  0  0  0
  190.3220  176.5800  147.4750 C   0  0  0  0  0  2  0  0  0  0  0  0
  192.1080  175.6770  146.1670 C   0  0  0  0  0  2  0  0  0  0  0  0
  187.0270  176.2230  139.1430 C   0  0  0  0  0  1  0  0  0  0  0  0
  187.2510  177.4120  143.9890 C   0  0  0  0  0  0  0  0  0  0  0  0
  185.1710  178.6760  141.2860 C   0  0  0  0  0  3  0  0  0  0  0  0
  187.2030  176.7790  141.6440 C   0  0  0  0  0  0  0  0  0  0  0  0
  188.2460  176.4950  144.2370 C   0  0  0  0  0  0  0  0  0  0  0  0
  187.5100  177.8530  147.3940 O   0  0  0  0  0  0  0  0  0  0  0  0
  188.5410  176.4330  145.7000 C   0  0  1  0  0  3  0  0  0  0  0  0
  191.8040  176.3320  147.4990 C   0  0  0  0  0  2  0  0  0  0  0  0
  189.7370  173.9470  145.6280 O   0  0  0  0  0  1  0  0  0  0  0  0
  185.7280  178.4920  142.5090 N   0  0  0  0  0  0  0  0  0  0  0  0
  186.7180  177.5830  142.7150 C   0  0  0  0  0  0  0  0  0  0  0  0
  190.5440  174.6510  144.7260 C   0  0  2  0  0  3  0  0  0  0  0  0
  190.1060  173.2700  140.0270 O   0  0  0  0  0  0  0  0  0  0  0  0
  189.9210  173.7340  137.6830 C   0  0  0  0  0  1  0  0  0  0  0  0
  189.2950  173.0520  138.8820 C   0  0  0  0  0  2  0  0  0  0  0  0
  1  4  1  0  0  0  0
  2 19  1  0  0  0  0
  3 10  1  0  0  0  0
  4 12  1  0  0  0  0
  4 20  2  0  0  0  0
  5 11  2  0  0  0  0
  5  1  1  0  0  0  0
  7  9  1  0  0  0  0
  7 15  1  1  0  0  0
  8  6  1  6  0  0  0
  8 12  1  0  0  0  0
  9 14  1  1  0  0  0
 10 21  2  0  0  0  0
 11  8  1  0  0  0  0
 12 27  1  0  0  0  0
 13  2  2  0  0  0  0
 13 18  1  0  0  0  0
 14 23  1  0  0  0  0
 15 23  1  0  0  0  0
 16  2  1  0  0  0  0
 17 20  1  0  0  0  0
 17  3  1  0  0  0  0
 18 25  2  0  0  0  0
 19  1  2  0  0  0  0
 19 26  1  0  0  0  0
 22 20  1  6  0  0  0
 22  9  1  0  0  0  0
 22 10  1  0  0  0  0
 25 26  1  0  0  0  0
 26 17  2  0  0  0  0
 27  7  1  0  0  0  0
 27 24  1  1  0  0  0
 28 11  1  0  0  0  0
 29 30  1  0  0  0  0
 30 28  1  0  0  0  0
M  END
>  <MODEL>
5

>  <REMARK>
 VINA RESULT:      -7.4      2.120      5.693
  Name = 
  2 active torsions:
  status: ('A' for Active; 'I' for Inactive)
    1  A    between atoms: C_11  and  O_28
    2  A    between atoms: O_28  and  C_30
                            x       y       z     vdW  Elec       q    Type
                         _______ _______ _______ _____ _____    ______ ____

>  <TORSDO>
F 2

$$$$
=
 OpenBabel11112416203D

 30 35  0  0  1  0  0  0  0  0999 V2000
  189.2930  174.8330  141.6390 C   0  0  0  0  0  0  0  0  0  0  0  0
  189.3920  172.9130  140.0140 C   0  0  0  0  0  0  0  0  0  0  0  0
  192.7230  173.4130  143.6090 N   0  0  0  0  0  2  0  0  0  0  0  0
  189.8290  175.4750  142.7770 C   0  0  0  0  0  0  0  0  0  0  0  0
  188.1920  175.4570  140.9670 N   0  0  0  0  0  0  0  0  0  0  0  0
  186.5840  176.4160  143.9510 Cl  0  0  0  0  0  0  0  0  0  0  0  0
  189.7470  176.4240  145.6460 N   0  0  1  0  0  0  0  0  0  0  0  0
  187.8290  177.0130  142.8190 C   0  0  2  0  0  3  0  0  0  0  0  0
  191.0240  175.6890  145.7620 C   0  0  2  0  0  3  0  0  0  0  0  0
  192.8690  174.4580  144.5650 C   0  0  0  0  0  0  0  0  0  0  0  0
  187.5380  176.4750  141.4460 C   0  0  0  0  0  0  0  0  0  0  0  0
  189.1630  176.6450  143.3030 N   0  0  0  0  0  0  0  0  0  0  0  0
  190.0350  171.7470  139.5980 C   0  0  0  0  0  3  0  0  0  0  0  0
  191.8460  176.3680  146.8320 C   0  0  0  0  0  2  0  0  0  0  0  0
  189.6150  177.2260  146.8590 C   0  0  0  0  0  2  0  0  0  0  0  0
  188.1910  173.3260  139.2290 C   0  0  0  0  0  1  0  0  0  0  0  0
  191.5560  173.7840  142.8930 C   0  0  0  0  0  0  0  0  0  0  0  0
  191.1540  171.2840  140.2820 C   0  0  0  0  0  3  0  0  0  0  0  0
  189.8830  173.6300  141.1390 C   0  0  0  0  0  0  0  0  0  0  0  0
  190.9850  174.9450  143.3630 C   0  0  0  0  0  0  0  0  0  0  0  0
  193.8260  174.4930  145.3830 O   0  0  0  0  0  0  0  0  0  0  0  0
  191.8180  175.5250  144.4580 C   0  0  1  0  0  3  0  0  0  0  0  0
  190.8140  176.9610  147.7480 C   0  0  0  0  0  2  0  0  0  0  0  0
  190.7920  178.0780  144.2530 O   0  0  0  0  0  1  0  0  0  0  0  0
  191.6260  171.9650  141.3550 N   0  0  0  0  0  0  0  0  0  0  0  0
  191.0300  173.1040  141.7980 C   0  0  0  0  0  0  0  0  0  0  0  0
  189.6240  177.3470  144.5010 C   0  0  2  0  0  3  0  0  0  0  0  0
  186.5040  177.0590  140.7110 O   0  0  0  0  0  0  0  0  0  0  0  0
  184.4480  178.2900  140.6780 C   0  0  0  0  0  1  0  0  0  0  0  0
  185.9060  178.2910  141.0890 C   0  0  0  0  0  2  0  0  0  0  0  0
  1  4  1  0  0  0  0
  2 19  1  0  0  0  0
  3 10  1  0  0  0  0
  4 12  1  0  0  0  0
  4 20  2  0  0  0  0
  5 11  2  0  0  0  0
  5  1  1  0  0  0  0
  7  9  1  0  0  0  0
  7 15  1  1  0  0  0
  8 12  1  0  0  0  0
  8  6  1  1  0  0  0
  9 14  1  1  0  0  0
 10 21  2  0  0  0  0
 11  8  1  0  0  0  0
 12 27  1  0  0  0  0
 13  2  2  0  0  0  0
 13 18  1  0  0  0  0
 14 23  1  0  0  0  0
 15 23  1  0  0  0  0
 16  2  1  0  0  0  0
 17 20  1  0  0  0  0
 17  3  1  0  0  0  0
 18 25  2  0  0  0  0
 19  1  2  0  0  0  0
 19 26  1  0  0  0  0
 22 20  1  6  0  0  0
 22 10  1  0  0  0  0
 22  9  1  0  0  0  0
 25 26  1  0  0  0  0
 26 17  2  0  0  0  0
 27 24  1  6  0  0  0
 27  7  1  0  0  0  0
 28 30  1  0  0  0  0
 28 11  1  0  0  0  0
 29 30  1  0  0  0  0
M  END
>  <MODEL>
6

>  <REMARK>
 VINA RESULT:      -7.2      2.630      7.170
  Name = 
  2 active torsions:
  status: ('A' for Active; 'I' for Inactive)
    1  A    between atoms: C_11  and  O_28
    2  A    between atoms: O_28  and  C_30
                            x       y       z     vdW  Elec       q    Type
                         _______ _______ _______ _____ _____    ______ ____

>  <TORSDO>
F 2

$$$$
=
 OpenBabel11112416203D

 30 35  0  0  1  0  0  0  0  0999 V2000
  188.9280  175.6110  143.1040 C   0  0  0  0  0  0  0  0  0  0  0  0
  187.2720  177.4820  143.4100 C   0  0  0  0  0  0  0  0  0  0  0  0
  187.7840  175.1840  139.0820 N   0  0  0  0  0  2  0  0  0  0  0  0
  189.4880  174.6260  142.2610 C   0  0  0  0  0  0  0  0  0  0  0  0
  189.4660  175.7560  144.4240 N   0  0  0  0  0  0  0  0  0  0  0  0
  189.7790  172.2870  144.9520 Cl  0  0  0  0  0  0  0  0  0  0  0  0
  190.0320  171.7770  141.4090 N   0  0  1  0  0  0  0  0  0  0  0  0
  190.6950  173.6490  144.2500 C   0  0  2  0  0  3  0  0  0  0  0  0
  189.4840  172.2250  140.1110 C   0  0  2  0  0  3  0  0  0  0  0  0
  188.7060  174.1660  138.7050 C   0  0  0  0  0  0  0  0  0  0  0  0
  190.3050  174.9160  144.9570 C   0  0  0  0  0  0  0  0  0  0  0  0
  190.4680  173.7120  142.8030 N   0  0  0  0  0  0  0  0  0  0  0  0
  186.2780  178.2850  142.8510 C   0  0  0  0  0  3  0  0  0  0  0  0
  190.1320  171.3920  139.0300 C   0  0  0  0  0  2  0  0  0  0  0  0
  190.6400  170.4700  141.1760 C   0  0  0  0  0  2  0  0  0  0  0  0
  187.6020  177.7350  144.8430 C   0  0  0  0  0  1  0  0  0  0  0  0
  188.0690  175.3900  140.4570 C   0  0  0  0  0  0  0  0  0  0  0  0
  185.8990  178.1080  141.5240 C   0  0  0  0  0  3  0  0  0  0  0  0
  187.9010  176.4810  142.6210 C   0  0  0  0  0  0  0  0  0  0  0  0
  189.0620  174.5630  140.9290 C   0  0  0  0  0  0  0  0  0  0  0  0
  188.7740  173.7230  137.5270 O   0  0  0  0  0  0  0  0  0  0  0  0
  189.6100  173.7270  139.8190 C   0  0  1  0  0  3  0  0  0  0  0  0
  190.4410  170.0950  139.7210 C   0  0  0  0  0  2  0  0  0  0  0  0
  191.9890  173.1300  141.0840 O   0  0  0  0  0  1  0  0  0  0  0  0
  186.4970  177.1540  140.7670 N   0  0  0  0  0  0  0  0  0  0  0  0
  187.4680  176.3460  141.2710 C   0  0  0  0  0  0  0  0  0  0  0  0
  191.0680  172.6350  142.0140 C   0  0  2  0  0  3  0  0  0  0  0  0
  190.8210  175.1480  146.2340 O   0  0  0  0  0  0  0  0  0  0  0  0
  188.9460  174.5470  147.6000 C   0  0  0  0  0  1  0  0  0  0  0  0
  190.0080  175.5870  147.3130 C   0  0  0  0  0  2  0  0  0  0  0  0
  1  5  1  0  0  0  0
  2 16  1  0  0  0  0
  3 17  1  0  0  0  0
  4 12  1  0  0  0  0
  4  1  2  0  0  0  0
  5 11  2  0  0  0  0
  7 15  1  6  0  0  0
  7 27  1  0  0  0  0
  8  6  1  1  0  0  0
  8 11  1  0  0  0  0
  9 14  1  6  0  0  0
  9  7  1  0  0  0  0
 10  3  1  0  0  0  0
 11 28  1  0  0  0  0
 12  8  1  0  0  0  0
 13  2  1  0  0  0  0
 14 23  1  0  0  0  0
 17 20  2  0  0  0  0
 17 26  1  0  0  0  0
 18 13  2  0  0  0  0
 19  1  1  0  0  0  0
 19  2  2  0  0  0  0
 20  4  1  0  0  0  0
 21 10  2  0  0  0  0
 22 10  1  6  0  0  0
 22  9  1  0  0  0  0
 22 20  1  0  0  0  0
 23 15  1  0  0  0  0
 25 26  2  0  0  0  0
 25 18  1  0  0  0  0
 26 19  1  0  0  0  0
 27 24  1  6  0  0  0
 27 12  1  0  0  0  0
 28 30  1  0  0  0  0
 30 29  1  0  0  0  0
M  END
>  <MODEL>
7

>  <REMARK>
 VINA RESULT:      -7.1      1.972      3.006
  Name = 
  2 active torsions:
  status: ('A' for Active; 'I' for Inactive)
    1  A    between atoms: C_11  and  O_28
    2  A    between atoms: O_28  and  C_30
                            x       y       z     vdW  Elec       q    Type
                         _______ _______ _______ _____ _____    ______ ____

>  <TORSDO>
F 2

$$$$
=
 OpenBabel11112416203D

 30 35  0  0  1  0  0  0  0  0999 V2000
  188.7190  175.6280  143.9770 C   0  0  0  0  0  0  0  0  0  0  0  0
  186.5130  176.8420  143.9910 C   0  0  0  0  0  0  0  0  0  0  0  0
  189.8620  177.5520  147.5340 N   0  0  0  0  0  2  0  0  0  0  0  0
  189.9790  175.4150  144.5770 C   0  0  0  0  0  0  0  0  0  0  0  0
  188.3740  174.8380  142.8320 N   0  0  0  0  0  0  0  0  0  0  0  0
  191.5870  175.0490  141.4030 Cl  0  0  0  0  0  0  0  0  0  0  0  0
  192.9980  175.5500  144.6650 N   0  0  1  0  0  0  0  0  0  0  0  0
  190.6760  174.0530  142.5710 C   0  0  2  0  0  3  0  0  0  0  0  0
  192.7750  176.2400  145.9530 C   0  0  2  0  0  3  0  0  0  0  0  0
  191.1180  176.9100  147.7300 C   0  0  0  0  0  0  0  0  0  0  0  0
  189.2200  174.0760  142.2000 C   0  0  0  0  0  0  0  0  0  0  0  0
  190.9230  174.5290  143.9360 N   0  0  0  0  0  0  0  0  0  0  0  0
  185.6750  177.7650  144.6160 C   0  0  0  0  0  3  0  0  0  0  0  0
  193.9690  175.9610  146.8340 C   0  0  0  0  0  2  0  0  0  0  0  0
  194.4220  175.2350  144.6020 C   0  0  0  0  0  2  0  0  0  0  0  0
  185.9940  176.2130  142.7410 C   0  0  0  0  0  1  0  0  0  0  0  0
  189.3910  176.9860  146.3220 C   0  0  0  0  0  0  0  0  0  0  0  0
  186.0860  178.4070  145.7800 C   0  0  0  0  0  3  0  0  0  0  0  0
  187.7910  176.5560  144.5440 C   0  0  0  0  0  0  0  0  0  0  0  0
  190.2730  176.0850  145.7720 C   0  0  0  0  0  0  0  0  0  0  0  0
  191.8410  177.1400  148.7360 O   0  0  0  0  0  0  0  0  0  0  0  0
  191.4560  175.9070  146.6660 C   0  0  1  0  0  3  0  0  0  0  0  0
  195.0910  175.7620  145.8560 C   0  0  0  0  0  2  0  0  0  0  0  0
  192.2300  173.4790  145.6090 O   0  0  0  0  0  1  0  0  0  0  0  0
  187.3050  178.1380  146.3120 N   0  0  0  0  0  0  0  0  0  0  0  0
  188.1560  177.2480  145.7350 C   0  0  0  0  0  0  0  0  0  0  0  0
  192.2650  174.2850  144.4640 C   0  0  2  0  0  3  0  0  0  0  0  0
  188.7990  173.3010  141.1180 O   0  0  0  0  0  0  0  0  0  0  0  0
  189.5820  173.3820  138.8550 C   0  0  0  0  0  1  0  0  0  0  0  0
  188.5350  173.8600  139.8400 C   0  0  0  0  0  2  0  0  0  0  0  0
  1 19  2  0  0  0  0
  1  4  1  0  0  0  0
  2 19  1  0  0  0  0
  2 13  2  0  0  0  0
  3 10  1  0  0  0  0
  4 20  2  0  0  0  0
  5  1  1  0  0  0  0
  7 15  1  1  0  0  0
  7  9  1  0  0  0  0
  8  6  1  6  0  0  0
  8 12  1  0  0  0  0
  9 22  1  0  0  0  0
  9 14  1  1  0  0  0
 10 21  2  0  0  0  0
 11  8  1  0  0  0  0
 11  5  2  0  0  0  0
 12 27  1  0  0  0  0
 12  4  1  0  0  0  0
 13 18  1  0  0  0  0
 15 23  1  0  0  0  0
 16  2  1  0  0  0  0
 17  3  1  0  0  0  0
 18 25  2  0  0  0  0
 19 26  1  0  0  0  0
 20 17  1  0  0  0  0
 22 20  1  6  0  0  0
 22 10  1  0  0  0  0
 23 14  1  0  0  0  0
 26 25  1  0  0  0  0
 26 17  2  0  0  0  0
 27  7  1  0  0  0  0
 27 24  1  1  0  0  0
 28 11  1  0  0  0  0
 29 30  1  0  0  0  0
 30 28  1  0  0  0  0
M  END
>  <MODEL>
8

>  <REMARK>
 VINA RESULT:      -7.1      2.311      5.710
  Name = 
  2 active torsions:
  status: ('A' for Active; 'I' for Inactive)
    1  A    between atoms: C_11  and  O_28
    2  A    between atoms: O_28  and  C_30
                            x       y       z     vdW  Elec       q    Type
                         _______ _______ _______ _____ _____    ______ ____

>  <TORSDO>
F 2

$$$$
=
 OpenBabel11112416203D

 30 35  0  0  1  0  0  0  0  0999 V2000
  188.5960  175.6870  142.0050 C   0  0  0  0  0  0  0  0  0  0  0  0
  186.8160  177.2840  141.2200 C   0  0  0  0  0  0  0  0  0  0  0  0
  188.6730  177.5420  145.7760 N   0  0  0  0  0  2  0  0  0  0  0  0
  189.4780  175.2770  143.0290 C   0  0  0  0  0  0  0  0  0  0  0  0
  188.5610  174.9190  140.7960 N   0  0  0  0  0  0  0  0  0  0  0  0
  192.0530  174.4670  140.6820 Cl  0  0  0  0  0  0  0  0  0  0  0  0
  192.2140  174.8600  144.2450 N   0  0  1  0  0  0  0  0  0  0  0  0
  190.6020  173.7140  141.3990 C   0  0  2  0  0  3  0  0  0  0  0  0
  191.6620  175.6430  145.3710 C   0  0  2  0  0  3  0  0  0  0  0  0
  189.6210  176.6910  146.4140 C   0  0  0  0  0  0  0  0  0  0  0  0
  189.4210  173.9850  140.5100 C   0  0  0  0  0  0  0  0  0  0  0  0
  190.4080  174.2030  142.7680 N   0  0  0  0  0  0  0  0  0  0  0  0
  185.9950  178.3750  141.5070 C   0  0  0  0  0  3  0  0  0  0  0  0
  192.3670  175.1920  146.6290 C   0  0  0  0  0  2  0  0  0  0  0  0
  193.4730  174.2870  144.7130 C   0  0  0  0  0  2  0  0  0  0  0  0
  186.6910  176.7000  139.8520 C   0  0  0  0  0  1  0  0  0  0  0  0
  188.5900  177.0130  144.4620 C   0  0  0  0  0  0  0  0  0  0  0  0
  186.0560  178.9870  142.7550 C   0  0  0  0  0  3  0  0  0  0  0  0
  187.7170  176.7970  142.2050 C   0  0  0  0  0  0  0  0  0  0  0  0
  189.4270  175.9390  144.2620 C   0  0  0  0  0  0  0  0  0  0  0  0
  189.9470  176.8340  147.6220 O   0  0  0  0  0  0  0  0  0  0  0  0
  190.1360  175.5920  145.5300 C   0  0  1  0  0  3  0  0  0  0  0  0
  193.7140  174.7440  146.1380 C   0  0  0  0  0  2  0  0  0  0  0  0
  190.7750  173.0140  144.7830 O   0  0  0  0  0  1  0  0  0  0  0  0
  186.9150  178.5260  143.6980 N   0  0  0  0  0  0  0  0  0  0  0  0
  187.7360  177.4680  143.4620 C   0  0  0  0  0  0  0  0  0  0  0  0
  191.3850  173.7430  143.7550 C   0  0  2  0  0  3  0  0  0  0  0  0
  189.2950  173.2470  139.3310 O   0  0  0  0  0  0  0  0  0  0  0  0
  188.9310  174.1380  137.1360 C   0  0  0  0  0  1  0  0  0  0  0  0
  188.2920  173.5250  138.3650 C   0  0  0  0  0  2  0  0  0  0  0  0
  1 19  2  0  0  0  0
  1  4  1  0  0  0  0
  2 13  2  0  0  0  0
  2 19  1  0  0  0  0
  3 10  1  0  0  0  0
  4 20  2  0  0  0  0
  5  1  1  0  0  0  0
  7 15  1  1  0  0  0
  7  9  1  0  0  0  0
  8  6  1  6  0  0  0
  8 12  1  0  0  0  0
  9 22  1  0  0  0  0
  9 14  1  1  0  0  0
 10 21  2  0  0  0  0
 11  5  2  0  0  0  0
 11  8  1  0  0  0  0
 12  4  1  0  0  0  0
 12 27  1  0  0  0  0
 13 18  1  0  0  0  0
 15 23  1  0  0  0  0
 16  2  1  0  0  0  0
 17  3  1  0  0  0  0
 18 25  2  0  0  0  0
 19 26  1  0  0  0  0
 20 17  1  0  0  0  0
 22 20  1  6  0  0  0
 22 10  1  0  0  0  0
 23 14  1  0  0  0  0
 26 25  1  0  0  0  0
 26 17  2  0  0  0  0
 27  7  1  0  0  0  0
 27 24  1  1  0  0  0
 28 11  1  0  0  0  0
 29 30  1  0  0  0  0
 30 28  1  0  0  0  0
M  END
>  <MODEL>
9

>  <REMARK>
 VINA RESULT:      -7.1      2.421      5.779
  Name = 
  2 active torsions:
  status: ('A' for Active; 'I' for Inactive)
    1  A    between atoms: C_11  and  O_28
    2  A    between atoms: O_28  and  C_30
                            x       y       z     vdW  Elec       q    Type
                         _______ _______ _______ _____ _____    ______ ____

>  <TORSDO>
F 2

$$$$
