=
 OpenBabel11112418003D

 34 40  0  0  1  0  0  0  0  0999 V2000
  187.2420  177.7480  144.7650 C   0  0  0  0  0  0  0  0  0  0  0  0
  185.2440  179.2390  144.9580 C   0  0  0  0  0  2  0  0  0  0  0  0
  190.5700  172.9070  141.6330 C   0  0  2  0  0  3  0  0  0  0  0  0
  188.5000  175.6640  144.4860 C   0  0  0  0  0  0  0  0  0  0  0  0
  188.9190  174.8280  142.2390 C   0  0  0  0  0  0  0  0  0  0  0  0
  188.9820  173.8280  140.0940 O   0  0  0  0  0  0  0  0  0  0  0  0
  191.3280  172.3860  140.4230 C   0  0  0  0  0  1  0  0  0  0  0  0
  189.2580  172.1810  143.7020 C   0  0  0  0  0  2  0  0  0  0  0  0
  186.1020  178.8150  142.7470 C   0  0  1  0  0  3  0  0  0  0  0  0
  184.6070  178.8820  140.3860 O   0  0  0  0  0  0  0  0  0  0  0  0
  188.2340  175.8950  141.7480 N   0  0  0  0  0  0  0  0  0  0  0  0
  189.7700  173.5010  144.2670 C   0  0  0  0  0  2  0  0  0  0  0  0
  186.9620  177.9450  141.9430 N   0  0  0  0  0  0  0  0  0  0  0  0
  184.0860  178.8240  144.0600 C   0  0  0  0  0  2  0  0  0  0  0  0
  189.0530  174.6750  143.6450 C   0  0  0  0  0  0  0  0  0  0  0  0
  190.0590  171.7380  142.4750 C   0  0  0  0  0  2  0  0  0  0  0  0
  183.8600  178.6180  141.5610 C   0  0  2  0  0  3  0  0  0  0  0  0
  187.7990  176.7600  143.9280 C   0  0  0  0  0  0  0  0  0  0  0  0
  189.4660  173.8570  141.2590 C   0  0  0  0  0  0  0  0  0  0  0  0
  187.6730  176.8490  142.5370 C   0  0  0  0  0  0  0  0  0  0  0  0
  188.1080  176.5710  146.7070 C   0  0  0  0  0  3  0  0  0  0  0  0
  185.4020  177.7660  140.0610 C   0  0  0  0  0  2  0  0  0  0  0  0
  188.6380  175.5810  145.8810 C   0  0  0  0  0  3  0  0  0  0  0  0
  186.8430  178.0270  140.4890 C   0  0  0  0  0  2  0  0  0  0  0  0
  184.6970  178.2530  142.7990 C   0  0  1  0  0  3  0  0  0  0  0  0
  187.4250  177.6500  146.1530 C   0  0  0  0  0  3  0  0  0  0  0  0
  186.5420  178.9660  144.2010 C   0  0  2  0  0  3  0  0  0  0  0  0
  182.7440  177.6060  141.3250 C   0  0  0  0  0  2  0  0  0  0  0  0
  181.7720  178.1600  140.4880 O   0  0  0  0  0  0  0  0  0  0  0  0
  179.0080  179.5900  140.1660 O   0  0  0  0  0  0  0  0  0  0  0  0
  179.7740  178.0020  141.7400 C   0  0  0  0  0  2  0  0  0  0  0  0
  180.9310  178.8720  141.3440 C   0  0  2  0  0  3  0  0  0  0  0  0
  178.5690  178.7060  141.1620 C   0  0  0  0  0  2  0  0  0  0  0  0
  180.2810  180.0060  140.5830 C   0  0  0  0  0  2  0  0  0  0  0  0
  1 26  1  0  0  0  0
  3  7  1  6  0  0  0
  3 16  1  0  0  0  0
  4 23  2  0  0  0  0
  5 15  2  0  0  0  0
  6 19  2  0  0  0  0
  8 12  1  0  0  0  0
  9 13  1  6  0  0  0
  9 25  1  0  0  0  0
  9 27  1  0  0  0  0
 10 17  1  0  0  0  0
 11  5  1  0  0  0  0
 11 20  2  0  0  0  0
 13 20  1  0  0  0  0
 14  2  1  0  0  0  0
 15 12  1  0  0  0  0
 15  4  1  0  0  0  0
 16  8  1  0  0  0  0
 17 28  1  6  0  0  0
 17 25  1  0  0  0  0
 18  4  1  0  0  0  0
 18  1  2  0  0  0  0
 19  3  1  0  0  0  0
 19  5  1  0  0  0  0
 20 18  1  0  0  0  0
 22 10  1  0  0  0  0
 22 24  1  0  0  0  0
 23 21  1  0  0  0  0
 24 13  1  0  0  0  0
 25 14  1  1  0  0  0
 26 21  2  0  0  0  0
 27  1  1  0  0  0  0
 27  2  1  1  0  0  0
 29 28  1  0  0  0  0
 30 34  1  0  0  0  0
 30 33  1  0  0  0  0
 32 29  1  6  0  0  0
 32 31  1  0  0  0  0
 33 31  1  0  0  0  0
 34 32  1  0  0  0  0
M  END
>  <MODEL>
1

>  <REMARK>
 VINA RESULT:      -9.0      0.000      0.000
  Name = 
  3 active torsions:
  status: ('A' for Active; 'I' for Inactive)
    1  A    between atoms: C_17  and  C_28
    2  A    between atoms: C_28  and  O_29
    3  A    between atoms: O_29  and  C_32
                            x       y       z     vdW  Elec       q    Type
                         _______ _______ _______ _____ _____    ______ ____

>  <TORSDO>
F 3

$$$$
=
 OpenBabel11112418003D

 34 40  0  0  1  0  0  0  0  0999 V2000
  192.6550  174.3130  145.1130 C   0  0  0  0  0  0  0  0  0  0  0  0
  192.0400  175.4810  147.2360 C   0  0  0  0  0  2  0  0  0  0  0  0
  191.0620  172.1750  139.0120 C   0  0  2  0  0  3  0  0  0  0  0  0
  192.4340  172.7580  143.2320 C   0  0  0  0  0  0  0  0  0  0  0  0
  191.1140  173.4220  141.2980 C   0  0  0  0  0  0  0  0  0  0  0  0
  189.5240  173.9110  139.6130 O   0  0  0  0  0  0  0  0  0  0  0  0
  190.6920  172.4510  137.5640 C   0  0  0  0  0  1  0  0  0  0  0  0
  190.9490  170.4150  140.8600 C   0  0  0  0  0  2  0  0  0  0  0  0
  191.2340  176.4310  145.1740 C   0  0  1  0  0  3  0  0  0  0  0  0
  188.9200  177.9750  144.8930 O   0  0  0  0  0  0  0  0  0  0  0  0
  190.8490  174.6010  141.9230 N   0  0  0  0  0  0  0  0  0  0  0  0
  192.2190  171.1040  141.3460 C   0  0  0  0  0  2  0  0  0  0  0  0
  190.9980  176.1800  143.7510 N   0  0  0  0  0  0  0  0  0  0  0  0
  190.5460  175.7450  147.3750 C   0  0  0  0  0  2  0  0  0  0  0  0
  191.9100  172.4490  141.9590 C   0  0  0  0  0  0  0  0  0  0  0  0
  190.6350  170.7610  139.4030 C   0  0  0  0  0  2  0  0  0  0  0  0
  188.9210  177.0930  146.0040 C   0  0  2  0  0  3  0  0  0  0  0  0
  192.1350  174.0010  143.8400 C   0  0  0  0  0  0  0  0  0  0  0  0
  190.5160  173.2100  139.9570 C   0  0  0  0  0  0  0  0  0  0  0  0
  191.3250  174.9150  143.1570 C   0  0  0  0  0  0  0  0  0  0  0  0
  193.7920  172.1650  145.1590 C   0  0  0  0  0  3  0  0  0  0  0  0
  188.7900  177.2420  143.6980 C   0  0  0  0  0  2  0  0  0  0  0  0
  193.2590  171.8480  143.9110 C   0  0  0  0  0  3  0  0  0  0  0  0
  190.1540  177.1250  143.0240 C   0  0  0  0  0  2  0  0  0  0  0  0
  190.0210  176.0180  145.9820 C   0  0  1  0  0  3  0  0  0  0  0  0
  193.5010  173.3920  145.7500 C   0  0  0  0  0  3  0  0  0  0  0  0
  192.4090  175.6570  145.7650 C   0  0  2  0  0  3  0  0  0  0  0  0
  187.5490  176.4810  146.2610 C   0  0  0  0  0  2  0  0  0  0  0  0
  186.7090  177.4310  146.8470 O   0  0  0  0  0  0  0  0  0  0  0  0
  184.3000  179.1140  145.7740 O   0  0  0  0  0  0  0  0  0  0  0  0
  185.4300  177.2450  144.8690 C   0  0  0  0  0  2  0  0  0  0  0  0
  185.4360  177.1240  146.3650 C   0  0  2  0  0  3  0  0  0  0  0  0
  184.4600  178.3710  144.5960 C   0  0  0  0  0  2  0  0  0  0  0  0
  184.4580  178.1870  146.8140 C   0  0  0  0  0  2  0  0  0  0  0  0
  1 26  1  0  0  0  0
  1 27  1  0  0  0  0
  2 14  1  0  0  0  0
  3  7  1  6  0  0  0
  3 16  1  0  0  0  0
  3 19  1  0  0  0  0
  4 18  1  0  0  0  0
  4 23  2  0  0  0  0
  5 11  1  0  0  0  0
  5 15  2  0  0  0  0
  6 19  2  0  0  0  0
  8 12  1  0  0  0  0
  9 13  1  6  0  0  0
  9 27  1  0  0  0  0
  9 25  1  0  0  0  0
 10 17  1  0  0  0  0
 11 20  2  0  0  0  0
 12 15  1  0  0  0  0
 15  4  1  0  0  0  0
 16  8  1  0  0  0  0
 17 28  1  6  0  0  0
 18  1  2  0  0  0  0
 19  5  1  0  0  0  0
 20 13  1  0  0  0  0
 20 18  1  0  0  0  0
 21 26  2  0  0  0  0
 22 10  1  0  0  0  0
 23 21  1  0  0  0  0
 24 22  1  0  0  0  0
 24 13  1  0  0  0  0
 25 17  1  0  0  0  0
 25 14  1  1  0  0  0
 27  2  1  1  0  0  0
 28 29  1  0  0  0  0
 30 34  1  0  0  0  0
 31 32  1  0  0  0  0
 32 34  1  0  0  0  0
 32 29  1  1  0  0  0
 33 31  1  0  0  0  0
 33 30  1  0  0  0  0
M  END
>  <MODEL>
2

>  <REMARK>
 VINA RESULT:      -8.1      3.519      5.784
  Name = 
  3 active torsions:
  status: ('A' for Active; 'I' for Inactive)
    1  A    between atoms: C_17  and  C_28
    2  A    between atoms: C_28  and  O_29
    3  A    between atoms: O_29  and  C_32
                            x       y       z     vdW  Elec       q    Type
                         _______ _______ _______ _____ _____    ______ ____

>  <TORSDO>
F 3

$$$$
=
 OpenBabel11112418003D

 34 40  0  0  1  0  0  0  0  0999 V2000
  189.7410  174.2070  145.2610 C   0  0  0  0  0  0  0  0  0  0  0  0
  191.9930  173.1470  145.0280 C   0  0  0  0  0  2  0  0  0  0  0  0
  184.8120  177.9300  142.7780 C   0  0  2  0  0  3  0  0  0  0  0  0
  188.0430  175.9720  145.1750 C   0  0  0  0  0  0  0  0  0  0  0  0
  186.9260  176.4370  143.0640 C   0  0  0  0  0  0  0  0  0  0  0  0
  186.1370  177.1400  140.9450 O   0  0  0  0  0  0  0  0  0  0  0  0
  183.6910  178.1510  141.7750 C   0  0  0  0  0  1  0  0  0  0  0  0
  186.4030  179.1330  144.3760 C   0  0  0  0  0  2  0  0  0  0  0  0
  190.5560  173.1330  143.0940 C   0  0  1  0  0  3  0  0  0  0  0  0
  191.4140  173.0590  140.4340 O   0  0  0  0  0  0  0  0  0  0  0  0
  187.6810  175.4640  142.4860 N   0  0  0  0  0  0  0  0  0  0  0  0
  186.3320  177.8190  145.1450 C   0  0  0  0  0  2  0  0  0  0  0  0
  189.3640  173.7240  142.4840 N   0  0  0  0  0  0  0  0  0  0  0  0
  192.7850  173.6570  143.8310 C   0  0  0  0  0  2  0  0  0  0  0  0
  187.1080  176.7310  144.4410 C   0  0  0  0  0  0  0  0  0  0  0  0
  185.2540  179.2670  143.3730 C   0  0  0  0  0  2  0  0  0  0  0  0
  192.3520  173.5980  141.3520 C   0  0  2  0  0  3  0  0  0  0  0  0
  188.8030  174.9660  144.5310 C   0  0  0  0  0  0  0  0  0  0  0  0
  185.9670  177.1640  142.1950 C   0  0  0  0  0  0  0  0  0  0  0  0
  188.6040  174.7330  143.1660 C   0  0  0  0  0  0  0  0  0  0  0  0
  189.1430  175.4300  147.2740 C   0  0  0  0  0  3  0  0  0  0  0  0
  190.3480  173.9610  140.2520 C   0  0  0  0  0  2  0  0  0  0  0  0
  188.2330  176.1960  146.5480 C   0  0  0  0  0  3  0  0  0  0  0  0
  189.1420  173.4900  141.0590 C   0  0  0  0  0  2  0  0  0  0  0  0
  191.7810  173.9490  142.7370 C   0  0  1  0  0  3  0  0  0  0  0  0
  189.8830  174.4360  146.6370 C   0  0  0  0  0  3  0  0  0  0  0  0
  190.5240  173.0800  144.6190 C   0  0  2  0  0  3  0  0  0  0  0  0
  193.1380  174.7630  140.7620 C   0  0  0  0  0  2  0  0  0  0  0  0
  194.3820  174.3140  140.3100 O   0  0  0  0  0  0  0  0  0  0  0  0
  196.9630  176.0720  140.4940 O   0  0  0  0  0  0  0  0  0  0  0  0
  194.9910  176.0450  141.7990 C   0  0  0  0  0  2  0  0  0  0  0  0
  195.2710  174.6460  141.3330 C   0  0  2  0  0  3  0  0  0  0  0  0
  196.2500  176.8060  141.4550 C   0  0  0  0  0  2  0  0  0  0  0  0
  196.6740  174.7290  140.7730 C   0  0  0  0  0  2  0  0  0  0  0  0
  1 26  1  0  0  0  0
  3  7  1  6  0  0  0
  3 16  1  0  0  0  0
  4 23  2  0  0  0  0
  5 15  2  0  0  0  0
  6 19  2  0  0  0  0
  8 12  1  0  0  0  0
  9 13  1  1  0  0  0
  9 27  1  0  0  0  0
 10 17  1  0  0  0  0
 11  5  1  0  0  0  0
 11 20  2  0  0  0  0
 13 20  1  0  0  0  0
 14  2  1  0  0  0  0
 15 12  1  0  0  0  0
 15  4  1  0  0  0  0
 16  8  1  0  0  0  0
 17 28  1  6  0  0  0
 17 25  1  0  0  0  0
 18  4  1  0  0  0  0
 18  1  2  0  0  0  0
 19  3  1  0  0  0  0
 19  5  1  0  0  0  0
 20 18  1  0  0  0  0
 22 10  1  0  0  0  0
 22 24  1  0  0  0  0
 23 21  1  0  0  0  0
 24 13  1  0  0  0  0
 25  9  1  0  0  0  0
 25 14  1  1  0  0  0
 26 21  2  0  0  0  0
 27  2  1  1  0  0  0
 27  1  1  0  0  0  0
 29 28  1  0  0  0  0
 30 34  1  0  0  0  0
 30 33  1  0  0  0  0
 32 29  1  6  0  0  0
 32 31  1  0  0  0  0
 33 31  1  0  0  0  0
 34 32  1  0  0  0  0
M  END
>  <MODEL>
3

>  <REMARK>
 VINA RESULT:      -8.0      2.972      8.999
  Name = 
  3 active torsions:
  status: ('A' for Active; 'I' for Inactive)
    1  A    between atoms: C_17  and  C_28
    2  A    between atoms: C_28  and  O_29
    3  A    between atoms: O_29  and  C_32
                            x       y       z     vdW  Elec       q    Type
                         _______ _______ _______ _____ _____    ______ ____

>  <TORSDO>
F 3

$$$$
=
 OpenBabel11112418003D

 34 40  0  0  1  0  0  0  0  0999 V2000
  190.3100  176.6670  146.6450 C   0  0  0  0  0  0  0  0  0  0  0  0
  187.8240  176.8690  146.8150 C   0  0  0  0  0  2  0  0  0  0  0  0
  195.8020  175.6900  143.0110 C   0  0  2  0  0  3  0  0  0  0  0  0
  192.4700  175.7090  145.9990 C   0  0  0  0  0  0  0  0  0  0  0  0
  193.3720  176.2060  143.7940 C   0  0  0  0  0  0  0  0  0  0  0  0
  194.0460  176.3720  141.5300 O   0  0  0  0  0  0  0  0  0  0  0  0
  196.7800  176.1390  141.9380 C   0  0  0  0  0  1  0  0  0  0  0  0
  194.9440  173.6460  144.2820 C   0  0  0  0  0  2  0  0  0  0  0  0
  188.8880  177.8690  144.9000 C   0  0  1  0  0  3  0  0  0  0  0  0
  187.6920  178.2750  142.4060 O   0  0  0  0  0  0  0  0  0  0  0  0
  192.2620  176.9520  143.5420 N   0  0  0  0  0  0  0  0  0  0  0  0
  194.6780  174.6680  145.3820 C   0  0  0  0  0  2  0  0  0  0  0  0
  190.1120  177.9140  144.0970 N   0  0  0  0  0  0  0  0  0  0  0  0
  187.0890  176.4160  145.5610 C   0  0  0  0  0  2  0  0  0  0  0  0
  193.4930  175.5400  145.0420 C   0  0  0  0  0  0  0  0  0  0  0  0
  195.9200  174.1820  143.2320 C   0  0  0  0  0  2  0  0  0  0  0  0
  187.1270  177.2290  143.1790 C   0  0  2  0  0  3  0  0  0  0  0  0
  191.3360  176.4990  145.6930 C   0  0  0  0  0  0  0  0  0  0  0  0
  194.3870  176.1080  142.7160 C   0  0  0  0  0  0  0  0  0  0  0  0
  191.2530  177.1130  144.4380 C   0  0  0  0  0  0  0  0  0  0  0  0
  191.5570  175.2910  148.2130 C   0  0  0  0  0  3  0  0  0  0  0  0
  188.9620  177.8910  141.9330 C   0  0  0  0  0  2  0  0  0  0  0  0
  192.5600  175.1050  147.2630 C   0  0  0  0  0  3  0  0  0  0  0  0
  190.0410  178.5520  142.7850 C   0  0  0  0  0  2  0  0  0  0  0  0
  187.9690  176.7810  144.3850 C   0  0  1  0  0  3  0  0  0  0  0  0
  190.4470  176.0740  147.9090 C   0  0  0  0  0  3  0  0  0  0  0  0
  189.1140  177.5570  146.3770 C   0  0  2  0  0  3  0  0  0  0  0  0
  186.7010  176.0410  142.3250 C   0  0  0  0  0  2  0  0  0  0  0  0
  187.3430  174.8830  142.7700 O   0  0  0  0  0  0  0  0  0  0  0  0
  190.0240  173.3420  142.2950 O   0  0  0  0  0  0  0  0  0  0  0  0
  187.8160  172.9010  141.5730 C   0  0  0  0  0  2  0  0  0  0  0  0
  188.0040  174.3890  141.6450 C   0  0  2  0  0  3  0  0  0  0  0  0
  189.2130  172.3470  141.7300 C   0  0  0  0  0  2  0  0  0  0  0  0
  189.4970  174.5520  141.8250 C   0  0  0  0  0  2  0  0  0  0  0  0
  1 26  1  0  0  0  0
  3  7  1  6  0  0  0
  3 16  1  0  0  0  0
  4 23  2  0  0  0  0
  5 15  2  0  0  0  0
  6 19  2  0  0  0  0
  8 12  1  0  0  0  0
  9 13  1  6  0  0  0
  9 27  1  0  0  0  0
 10 17  1  0  0  0  0
 11  5  1  0  0  0  0
 11 20  2  0  0  0  0
 13 20  1  0  0  0  0
 14  2  1  0  0  0  0
 15 12  1  0  0  0  0
 15  4  1  0  0  0  0
 16  8  1  0  0  0  0
 17 28  1  6  0  0  0
 17 25  1  0  0  0  0
 18  4  1  0  0  0  0
 18  1  2  0  0  0  0
 19  3  1  0  0  0  0
 19  5  1  0  0  0  0
 20 18  1  0  0  0  0
 22 10  1  0  0  0  0
 22 24  1  0  0  0  0
 23 21  1  0  0  0  0
 24 13  1  0  0  0  0
 25  9  1  0  0  0  0
 25 14  1  1  0  0  0
 26 21  2  0  0  0  0
 27  1  1  0  0  0  0
 27  2  1  6  0  0  0
 28 29  1  0  0  0  0
 31 32  1  0  0  0  0
 31 33  1  0  0  0  0
 32 34  1  0  0  0  0
 32 29  1  1  0  0  0
 33 30  1  0  0  0  0
 34 30  1  0  0  0  0
M  END
>  <MODEL>
4

>  <REMARK>
 VINA RESULT:      -7.8      3.917      6.047
  Name = 
  3 active torsions:
  status: ('A' for Active; 'I' for Inactive)
    1  A    between atoms: C_17  and  C_28
    2  A    between atoms: C_28  and  O_29
    3  A    between atoms: O_29  and  C_32
                            x       y       z     vdW  Elec       q    Type
                         _______ _______ _______ _____ _____    ______ ____

>  <TORSDO>
F 3

$$$$
=
 OpenBabel11112418003D

 34 40  0  0  1  0  0  0  0  0999 V2000
  188.2530  176.1370  143.0270 C   0  0  0  0  0  0  0  0  0  0  0  0
  189.0530  177.5910  144.8980 C   0  0  0  0  0  2  0  0  0  0  0  0
  189.3810  171.3910  138.4970 C   0  0  2  0  0  3  0  0  0  0  0  0
  188.2740  175.0420  140.8350 C   0  0  0  0  0  0  0  0  0  0  0  0
  189.5300  172.9770  140.5580 C   0  0  0  0  0  0  0  0  0  0  0  0
  191.0570  171.2030  140.1990 O   0  0  0  0  0  0  0  0  0  0  0  0
  189.6910  169.9470  138.1370 C   0  0  0  0  0  1  0  0  0  0  0  0
  189.4800  173.7910  137.6260 C   0  0  0  0  0  2  0  0  0  0  0  0
  189.8080  175.3030  144.8710 C   0  0  1  0  0  3  0  0  0  0  0  0
  192.1970  174.3690  145.9820 O   0  0  0  0  0  0  0  0  0  0  0  0
  189.9020  173.0640  141.8630 N   0  0  0  0  0  0  0  0  0  0  0  0
  188.2830  173.9840  138.5510 C   0  0  0  0  0  2  0  0  0  0  0  0
  189.9510  174.0990  144.0510 N   0  0  0  0  0  0  0  0  0  0  0  0
  190.5650  177.5770  145.0750 C   0  0  0  0  0  2  0  0  0  0  0  0
  188.7100  173.9930  140.0000 C   0  0  0  0  0  0  0  0  0  0  0  0
  189.7380  172.3120  137.3300 C   0  0  0  0  0  2  0  0  0  0  0  0
  192.1980  175.7410  145.6240 C   0  0  2  0  0  3  0  0  0  0  0  0
  188.6840  175.0880  142.1900 C   0  0  0  0  0  0  0  0  0  0  0  0
  190.0420  171.8230  139.7780 C   0  0  0  0  0  0  0  0  0  0  0  0
  189.5140  174.0760  142.6830 C   0  0  0  0  0  0  0  0  0  0  0  0
  186.9850  177.0740  141.1780 C   0  0  0  0  0  3  0  0  0  0  0  0
  192.2160  173.5700  144.8220 C   0  0  0  0  0  2  0  0  0  0  0  0
  187.4300  176.0500  140.3440 C   0  0  0  0  0  3  0  0  0  0  0  0
  190.8140  173.0330  144.5530 C   0  0  0  0  0  2  0  0  0  0  0  0
  191.0320  176.1820  144.7220 C   0  0  1  0  0  3  0  0  0  0  0  0
  187.3850  177.1110  142.5110 C   0  0  0  0  0  3  0  0  0  0  0  0
  188.6180  176.1830  144.4960 C   0  0  2  0  0  3  0  0  0  0  0  0
  193.5400  176.1930  145.0600 C   0  0  0  0  0  2  0  0  0  0  0  0
  193.4440  176.3470  143.6740 O   0  0  0  0  0  0  0  0  0  0  0  0
  195.4550  176.8230  141.3260 O   0  0  0  0  0  0  0  0  0  0  0  0
  195.8050  176.3150  143.6080 C   0  0  0  0  0  2  0  0  0  0  0  0
  194.5370  175.6470  143.1630 C   0  0  2  0  0  3  0  0  0  0  0  0
  196.4410  176.7910  142.3230 C   0  0  0  0  0  2  0  0  0  0  0  0
  194.5670  175.7900  141.6570 C   0  0  0  0  0  2  0  0  0  0  0  0
  1 27  1  0  0  0  0
  2 14  1  0  0  0  0
  3  7  1  6  0  0  0
  3 19  1  0  0  0  0
  4 18  1  0  0  0  0
  5 11  1  0  0  0  0
  8 12  1  0  0  0  0
  9 13  1  6  0  0  0
 11 20  2  0  0  0  0
 12 15  1  0  0  0  0
 13 24  1  0  0  0  0
 15  5  2  0  0  0  0
 15  4  1  0  0  0  0
 16  8  1  0  0  0  0
 16  3  1  0  0  0  0
 17 28  1  6  0  0  0
 17 10  1  0  0  0  0
 18 20  1  0  0  0  0
 18  1  2  0  0  0  0
 19  6  2  0  0  0  0
 19  5  1  0  0  0  0
 20 13  1  0  0  0  0
 21 26  2  0  0  0  0
 22 10  1  0  0  0  0
 23  4  2  0  0  0  0
 23 21  1  0  0  0  0
 24 22  1  0  0  0  0
 25  9  1  0  0  0  0
 25 14  1  1  0  0  0
 25 17  1  0  0  0  0
 26  1  1  0  0  0  0
 27  9  1  0  0  0  0
 27  2  1  6  0  0  0
 29 28  1  0  0  0  0
 30 34  1  0  0  0  0
 30 33  1  0  0  0  0
 32 31  1  0  0  0  0
 32 29  1  1  0  0  0
 33 31  1  0  0  0  0
 34 32  1  0  0  0  0
M  END
>  <MODEL>
5

>  <REMARK>
 VINA RESULT:      -7.8      4.968      8.391
  Name = 
  3 active torsions:
  status: ('A' for Active; 'I' for Inactive)
    1  A    between atoms: C_17  and  C_28
    2  A    between atoms: C_28  and  O_29
    3  A    between atoms: O_29  and  C_32
                            x       y       z     vdW  Elec       q    Type
                         _______ _______ _______ _____ _____    ______ ____

>  <TORSDO>
F 3

$$$$
=
 OpenBabel11112418003D

 34 40  0  0  1  0  0  0  0  0999 V2000
  193.6100  175.0600  144.9620 C   0  0  0  0  0  0  0  0  0  0  0  0
  192.9450  176.3450  147.0000 C   0  0  0  0  0  2  0  0  0  0  0  0
  192.0230  172.0860  139.2200 C   0  0  2  0  0  3  0  0  0  0  0  0
  193.5220  173.3000  143.2580 C   0  0  0  0  0  0  0  0  0  0  0  0
  192.0120  173.5610  141.3670 C   0  0  0  0  0  0  0  0  0  0  0  0
  190.2770  173.6360  139.7580 O   0  0  0  0  0  0  0  0  0  0  0  0
  191.5360  172.1520  137.7820 C   0  0  0  0  0  1  0  0  0  0  0  0
  192.2760  170.5320  141.2330 C   0  0  0  0  0  2  0  0  0  0  0  0
  191.8940  176.9470  144.9180 C   0  0  1  0  0  3  0  0  0  0  0  0
  189.3630  178.1060  144.6530 O   0  0  0  0  0  0  0  0  0  0  0  0
  191.6090  174.7490  141.8920 N   0  0  0  0  0  0  0  0  0  0  0  0
  193.4530  171.4430  141.5590 C   0  0  0  0  0  2  0  0  0  0  0  0
  191.6210  176.5170  143.5460 N   0  0  0  0  0  0  0  0  0  0  0  0
  191.4390  176.4050  147.2170 C   0  0  0  0  0  2  0  0  0  0  0  0
  192.9800  172.7870  142.0610 C   0  0  0  0  0  0  0  0  0  0  0  0
  191.8330  170.6740  139.7740 C   0  0  0  0  0  2  0  0  0  0  0  0
  189.5570  177.3540  145.8400 C   0  0  2  0  0  3  0  0  0  0  0  0
  193.0740  174.5450  143.7630 C   0  0  0  0  0  0  0  0  0  0  0  0
  191.3800  173.1260  140.0970 C   0  0  0  0  0  0  0  0  0  0  0  0
  192.0990  175.2550  143.0540 C   0  0  0  0  0  0  0  0  0  0  0  0
  195.0570  173.1140  145.1340 C   0  0  0  0  0  3  0  0  0  0  0  0
  189.2790  177.2400  143.5450 C   0  0  0  0  0  2  0  0  0  0  0  0
  194.5100  172.5940  143.9620 C   0  0  0  0  0  3  0  0  0  0  0  0
  190.6060  177.2490  142.7920 C   0  0  0  0  0  2  0  0  0  0  0  0
  190.8030  176.4520  145.8450 C   0  0  1  0  0  3  0  0  0  0  0  0
  194.6180  174.3420  145.6230 C   0  0  0  0  0  3  0  0  0  0  0  0
  193.2030  176.4160  145.4970 C   0  0  2  0  0  3  0  0  0  0  0  0
  188.3090  176.5830  146.2500 C   0  0  0  0  0  2  0  0  0  0  0  0
  187.3210  177.4730  146.6780 O   0  0  0  0  0  0  0  0  0  0  0  0
  184.2400  178.0130  146.7250 O   0  0  0  0  0  0  0  0  0  0  0  0
  185.9210  178.6710  145.1990 C   0  0  0  0  0  2  0  0  0  0  0  0
  186.2850  177.3250  145.7550 C   0  0  2  0  0  3  0  0  0  0  0  0
  184.4970  178.8850  145.6570 C   0  0  0  0  0  2  0  0  0  0  0  0
  185.0290  176.8830  146.4730 C   0  0  0  0  0  2  0  0  0  0  0  0
  1 27  1  0  0  0  0
  1 26  1  0  0  0  0
  2 14  1  0  0  0  0
  3  7  1  6  0  0  0
  3 16  1  0  0  0  0
  3 19  1  0  0  0  0
  4 18  1  0  0  0  0
  4 23  2  0  0  0  0
  5 11  1  0  0  0  0
  5 15  2  0  0  0  0
  6 19  2  0  0  0  0
  8 12  1  0  0  0  0
  9 13  1  6  0  0  0
  9 27  1  0  0  0  0
  9 25  1  0  0  0  0
 10 17  1  0  0  0  0
 11 20  2  0  0  0  0
 12 15  1  0  0  0  0
 15  4  1  0  0  0  0
 16  8  1  0  0  0  0
 17 25  1  0  0  0  0
 17 28  1  6  0  0  0
 18  1  2  0  0  0  0
 19  5  1  0  0  0  0
 20 13  1  0  0  0  0
 20 18  1  0  0  0  0
 21 26  2  0  0  0  0
 22 10  1  0  0  0  0
 23 21  1  0  0  0  0
 24 22  1  0  0  0  0
 24 13  1  0  0  0  0
 25 14  1  1  0  0  0
 27  2  1  1  0  0  0
 28 29  1  0  0  0  0
 31 33  1  0  0  0  0
 31 32  1  0  0  0  0
 32 34  1  0  0  0  0
 32 29  1  1  0  0  0
 33 30  1  0  0  0  0
 34 30  1  0  0  0  0
M  END
>  <MODEL>
6

>  <REMARK>
 VINA RESULT:      -7.7      3.999      6.200
  Name = 
  3 active torsions:
  status: ('A' for Active; 'I' for Inactive)
    1  A    between atoms: C_17  and  C_28
    2  A    between atoms: C_28  and  O_29
    3  A    between atoms: O_29  and  C_32
                            x       y       z     vdW  Elec       q    Type
                         _______ _______ _______ _____ _____    ______ ____

>  <TORSDO>
F 3

$$$$
=
 OpenBabel11112418003D

 34 40  0  0  1  0  0  0  0  0999 V2000
  189.8000  175.9090  146.3820 C   0  0  0  0  0  0  0  0  0  0  0  0
  191.5180  176.6840  148.0250 C   0  0  0  0  0  2  0  0  0  0  0  0
  188.1720  173.7280  140.3060 C   0  0  2  0  0  3  0  0  0  0  0  0
  188.5830  175.7850  144.2590 C   0  0  0  0  0  0  0  0  0  0  0  0
  189.4580  174.3810  142.4740 C   0  0  0  0  0  0  0  0  0  0  0  0
  190.5130  173.3370  140.6290 O   0  0  0  0  0  0  0  0  0  0  0  0
  188.2200  172.6650  139.2200 C   0  0  0  0  0  1  0  0  0  0  0  0
  187.7740  176.2170  140.7260 C   0  0  0  0  0  2  0  0  0  0  0  0
  192.1180  174.8590  146.5720 C   0  0  1  0  0  3  0  0  0  0  0  0
  194.7160  174.2160  145.7610 O   0  0  0  0  0  0  0  0  0  0  0  0
  190.4990  174.0530  143.2860 N   0  0  0  0  0  0  0  0  0  0  0  0
  187.3040  175.7260  142.0910 C   0  0  0  0  0  2  0  0  0  0  0  0
  191.7720  174.1430  145.3430 N   0  0  0  0  0  0  0  0  0  0  0  0
  192.8690  176.9910  147.3940 C   0  0  0  0  0  2  0  0  0  0  0  0
  188.4700  175.2870  142.9440 C   0  0  0  0  0  0  0  0  0  0  0  0
  187.8160  175.0850  139.6980 C   0  0  0  0  0  2  0  0  0  0  0  0
  194.5210  175.5710  146.1320 C   0  0  2  0  0  3  0  0  0  0  0  0
  189.6820  175.4100  145.0680 C   0  0  0  0  0  0  0  0  0  0  0  0
  189.4390  173.7880  141.1140 C   0  0  0  0  0  0  0  0  0  0  0  0
  190.6420  174.5350  144.5480 C   0  0  0  0  0  0  0  0  0  0  0  0
  187.7160  177.1250  146.0930 C   0  0  0  0  0  3  0  0  0  0  0  0
  194.0770  173.9580  144.5330 C   0  0  0  0  0  2  0  0  0  0  0  0
  187.6120  176.6510  144.7860 C   0  0  0  0  0  3  0  0  0  0  0  0
  192.7640  173.2250  144.7880 C   0  0  0  0  0  2  0  0  0  0  0  0
  193.0520  176.0090  146.2570 C   0  0  1  0  0  3  0  0  0  0  0  0
  188.7960  176.7480  146.8870 C   0  0  0  0  0  3  0  0  0  0  0  0
  190.9270  175.4780  147.2980 C   0  0  2  0  0  3  0  0  0  0  0  0
  195.3170  176.5320  145.2570 C   0  0  0  0  0  2  0  0  0  0  0  0
  196.1560  175.8120  144.4040 O   0  0  0  0  0  0  0  0  0  0  0  0
  197.8250  175.6290  141.7640 O   0  0  0  0  0  0  0  0  0  0  0  0
  195.6340  176.4130  142.1800 C   0  0  0  0  0  2  0  0  0  0  0  0
  196.4790  176.7080  143.3840 C   0  0  2  0  0  3  0  0  0  0  0  0
  196.6300  175.9920  141.1250 C   0  0  0  0  0  2  0  0  0  0  0  0
  197.8890  176.4400  142.9050 C   0  0  0  0  0  2  0  0  0  0  0  0
  1 26  1  0  0  0  0
  1 27  1  0  0  0  0
  3  7  1  6  0  0  0
  3 19  1  0  0  0  0
  4 23  2  0  0  0  0
  4 18  1  0  0  0  0
  5 15  2  0  0  0  0
  5 11  1  0  0  0  0
  6 19  2  0  0  0  0
  8 12  1  0  0  0  0
  9 13  1  6  0  0  0
  9 27  1  0  0  0  0
 10 17  1  0  0  0  0
 11 20  2  0  0  0  0
 12 15  1  0  0  0  0
 14  2  1  0  0  0  0
 15  4  1  0  0  0  0
 16  3  1  0  0  0  0
 16  8  1  0  0  0  0
 17 28  1  6  0  0  0
 17 25  1  0  0  0  0
 18  1  2  0  0  0  0
 19  5  1  0  0  0  0
 20 18  1  0  0  0  0
 20 13  1  0  0  0  0
 21 26  2  0  0  0  0
 22 24  1  0  0  0  0
 22 10  1  0  0  0  0
 23 21  1  0  0  0  0
 24 13  1  0  0  0  0
 25  9  1  0  0  0  0
 25 14  1  1  0  0  0
 27  2  1  6  0  0  0
 29 28  1  0  0  0  0
 30 34  1  0  0  0  0
 31 32  1  0  0  0  0
 32 29  1  1  0  0  0
 33 30  1  0  0  0  0
 33 31  1  0  0  0  0
 34 32  1  0  0  0  0
M  END
>  <MODEL>
7

>  <REMARK>
 VINA RESULT:      -7.5      4.850      9.333
  Name = 
  3 active torsions:
  status: ('A' for Active; 'I' for Inactive)
    1  A    between atoms: C_17  and  C_28
    2  A    between atoms: C_28  and  O_29
    3  A    between atoms: O_29  and  C_32
                            x       y       z     vdW  Elec       q    Type
                         _______ _______ _______ _____ _____    ______ ____

>  <TORSDO>
F 3

$$$$
=
 OpenBabel11112418003D

 34 40  0  0  1  0  0  0  0  0999 V2000
  188.6020  175.6130  146.6130 C   0  0  0  0  0  0  0  0  0  0  0  0
  190.7250  175.2180  147.8750 C   0  0  0  0  0  2  0  0  0  0  0  0
  185.4250  177.5940  141.1090 C   0  0  2  0  0  3  0  0  0  0  0  0
  186.9710  176.8140  145.2350 C   0  0  0  0  0  0  0  0  0  0  0  0
  187.2180  176.7840  142.8140 C   0  0  0  0  0  0  0  0  0  0  0  0
  187.6860  177.0740  140.5110 O   0  0  0  0  0  0  0  0  0  0  0  0
  185.0740  177.4120  139.6410 C   0  0  0  0  0  1  0  0  0  0  0  0
  185.5360  179.3130  142.9950 C   0  0  0  0  0  2  0  0  0  0  0  0
  190.7050  174.6520  145.5330 C   0  0  1  0  0  3  0  0  0  0  0  0
  192.9390  174.6220  143.8520 O   0  0  0  0  0  0  0  0  0  0  0  0
  188.3360  176.0230  142.9690 N   0  0  0  0  0  0  0  0  0  0  0  0
  185.2820  178.0950  143.8760 C   0  0  0  0  0  2  0  0  0  0  0  0
  190.0010  174.8350  144.2630 N   0  0  0  0  0  0  0  0  0  0  0  0
  191.9490  175.8390  147.2160 C   0  0  0  0  0  2  0  0  0  0  0  0
  186.5110  177.2210  143.9650 C   0  0  0  0  0  0  0  0  0  0  0  0
  185.1790  179.0420  141.5320 C   0  0  0  0  0  2  0  0  0  0  0  0
  193.0500  175.4720  144.9820 C   0  0  2  0  0  3  0  0  0  0  0  0
  188.1370  176.0180  145.3460 C   0  0  0  0  0  0  0  0  0  0  0  0
  186.8230  177.1420  141.4300 C   0  0  0  0  0  0  0  0  0  0  0  0
  188.8120  175.6360  144.1820 C   0  0  0  0  0  0  0  0  0  0  0  0
  186.7320  176.7650  147.6540 C   0  0  0  0  0  3  0  0  0  0  0  0
  192.0280  175.1700  142.9270 C   0  0  0  0  0  2  0  0  0  0  0  0
  186.2850  177.1860  146.4020 C   0  0  0  0  0  3  0  0  0  0  0  0
  190.6930  174.4400  143.0380 C   0  0  0  0  0  2  0  0  0  0  0  0
  191.7300  175.7510  145.7210 C   0  0  1  0  0  3  0  0  0  0  0  0
  187.8750  175.9760  147.7570 C   0  0  0  0  0  3  0  0  0  0  0  0
  189.8070  174.7080  146.7660 C   0  0  2  0  0  3  0  0  0  0  0  0
  193.7960  176.7630  144.6660 C   0  0  0  0  0  2  0  0  0  0  0  0
  195.1640  176.5850  144.8830 O   0  0  0  0  0  0  0  0  0  0  0  0
  197.6900  176.6200  143.0360 O   0  0  0  0  0  0  0  0  0  0  0  0
  196.6690  174.8740  144.2600 C   0  0  0  0  0  2  0  0  0  0  0  0
  195.5980  175.8190  143.8000 C   0  0  2  0  0  3  0  0  0  0  0  0
  197.8980  175.3120  143.4990 C   0  0  0  0  0  2  0  0  0  0  0  0
  196.3100  176.7090  142.8060 C   0  0  0  0  0  2  0  0  0  0  0  0
  1 27  1  0  0  0  0
  1 26  1  0  0  0  0
  3  7  1  6  0  0  0
  3 19  1  0  0  0  0
  3 16  1  0  0  0  0
  4 18  1  0  0  0  0
  4 23  2  0  0  0  0
  5 11  1  0  0  0  0
  5 15  2  0  0  0  0
  6 19  2  0  0  0  0
  8 12  1  0  0  0  0
  9 13  1  6  0  0  0
  9 25  1  0  0  0  0
  9 27  1  0  0  0  0
 10 17  1  0  0  0  0
 11 20  2  0  0  0  0
 12 15  1  0  0  0  0
 14  2  1  0  0  0  0
 15  4  1  0  0  0  0
 16  8  1  0  0  0  0
 17 28  1  6  0  0  0
 17 25  1  0  0  0  0
 18  1  2  0  0  0  0
 19  5  1  0  0  0  0
 20 13  1  0  0  0  0
 20 18  1  0  0  0  0
 21 26  2  0  0  0  0
 22 24  1  0  0  0  0
 22 10  1  0  0  0  0
 23 21  1  0  0  0  0
 24 13  1  0  0  0  0
 25 14  1  1  0  0  0
 27  2  1  1  0  0  0
 28 29  1  0  0  0  0
 30 33  1  0  0  0  0
 32 31  1  0  0  0  0
 32 29  1  1  0  0  0
 33 31  1  0  0  0  0
 34 30  1  0  0  0  0
 34 32  1  0  0  0  0
M  END
>  <MODEL>
8

>  <REMARK>
 VINA RESULT:      -7.5      3.917      9.220
  Name = 
  3 active torsions:
  status: ('A' for Active; 'I' for Inactive)
    1  A    between atoms: C_17  and  C_28
    2  A    between atoms: C_28  and  O_29
    3  A    between atoms: O_29  and  C_32
                            x       y       z     vdW  Elec       q    Type
                         _______ _______ _______ _____ _____    ______ ____

>  <TORSDO>
F 3

$$$$
=
 OpenBabel11112418003D

 34 40  0  0  1  0  0  0  0  0999 V2000
  190.3590  173.3060  141.4490 C   0  0  0  0  0  0  0  0  0  0  0  0
  187.9110  173.7080  141.7620 C   0  0  0  0  0  2  0  0  0  0  0  0
  196.6940  175.0360  142.5400 C   0  0  2  0  0  3  0  0  0  0  0  0
  192.6970  173.8260  140.9330 C   0  0  0  0  0  0  0  0  0  0  0  0
  194.1050  174.7880  142.6690 C   0  0  0  0  0  0  0  0  0  0  0  0
  195.3440  176.0720  144.2260 O   0  0  0  0  0  0  0  0  0  0  0  0
  197.8760  175.2230  143.4770 C   0  0  0  0  0  1  0  0  0  0  0  0
  195.7320  175.7470  140.2830 C   0  0  0  0  0  2  0  0  0  0  0  0
  189.3480  174.0890  143.6570 C   0  0  1  0  0  3  0  0  0  0  0  0
  188.8330  175.8650  145.7540 O   0  0  0  0  0  0  0  0  0  0  0  0
  193.0360  174.7560  143.5100 N   0  0  0  0  0  0  0  0  0  0  0  0
  195.0800  174.3690  140.3310 C   0  0  0  0  0  2  0  0  0  0  0  0
  190.7320  174.2940  144.0890 N   0  0  0  0  0  0  0  0  0  0  0  0
  187.5890  175.0760  142.3470 C   0  0  0  0  0  2  0  0  0  0  0  0
  193.9510  174.3340  141.3320 C   0  0  0  0  0  0  0  0  0  0  0  0
  196.8960  175.8610  141.2690 C   0  0  0  0  0  2  0  0  0  0  0  0
  188.1860  176.1770  144.5310 C   0  0  2  0  0  3  0  0  0  0  0  0
  191.6150  173.8090  141.8460 C   0  0  0  0  0  0  0  0  0  0  0  0
  195.3770  175.3350  143.2020 C   0  0  0  0  0  0  0  0  0  0  0  0
  191.8120  174.2920  143.1440 C   0  0  0  0  0  0  0  0  0  0  0  0
  191.2670  172.8090  139.2500 C   0  0  0  0  0  3  0  0  0  0  0  0
  190.2150  176.1150  145.6450 C   0  0  0  0  0  2  0  0  0  0  0  0
  192.5020  173.3290  139.6350 C   0  0  0  0  0  3  0  0  0  0  0  0
  190.9550  174.7970  145.4420 C   0  0  0  0  0  2  0  0  0  0  0  0
  188.7130  175.4170  143.3020 C   0  0  1  0  0  3  0  0  0  0  0  0
  190.2080  172.7880  140.1540 C   0  0  0  0  0  3  0  0  0  0  0  0
  189.1980  173.2120  142.4170 C   0  0  2  0  0  3  0  0  0  0  0  0
  188.1250  177.6780  144.2740 C   0  0  0  0  0  2  0  0  0  0  0  0
  187.1500  178.2590  145.0890 O   0  0  0  0  0  0  0  0  0  0  0  0
  184.1260  178.8990  145.5670 O   0  0  0  0  0  0  0  0  0  0  0  0
  185.3520  178.5310  143.5800 C   0  0  0  0  0  2  0  0  0  0  0  0
  185.9490  177.6870  144.6690 C   0  0  2  0  0  3  0  0  0  0  0  0
  184.0570  179.0340  144.1730 C   0  0  0  0  0  2  0  0  0  0  0  0
  184.9320  177.7730  145.7850 C   0  0  0  0  0  2  0  0  0  0  0  0
  1 18  1  0  0  0  0
  1 27  1  0  0  0  0
  2 14  1  0  0  0  0
  3 19  1  0  0  0  0
  3  7  1  1  0  0  0
  4 15  2  0  0  0  0
  4 18  1  0  0  0  0
  5 19  1  0  0  0  0
  5 11  2  0  0  0  0
  8 12  1  0  0  0  0
  8 16  1  0  0  0  0
  9 13  1  6  0  0  0
 12 15  1  0  0  0  0
 13 24  1  0  0  0  0
 15  5  1  0  0  0  0
 16  3  1  0  0  0  0
 17 28  1  6  0  0  0
 17 10  1  0  0  0  0
 18 20  2  0  0  0  0
 19  6  2  0  0  0  0
 20 11  1  0  0  0  0
 20 13  1  0  0  0  0
 21 23  2  0  0  0  0
 21 26  1  0  0  0  0
 22 10  1  0  0  0  0
 23  4  1  0  0  0  0
 24 22  1  0  0  0  0
 25 14  1  6  0  0  0
 25  9  1  0  0  0  0
 25 17  1  0  0  0  0
 26  1  2  0  0  0  0
 27  2  1  6  0  0  0
 27  9  1  0  0  0  0
 28 29  1  0  0  0  0
 30 34  1  0  0  0  0
 31 33  1  0  0  0  0
 31 32  1  0  0  0  0
 32 29  1  1  0  0  0
 32 34  1  0  0  0  0
 33 30  1  0  0  0  0
M  END
>  <MODEL>
9

>  <REMARK>
 VINA RESULT:      -7.4      3.795      6.678
  Name = 
  3 active torsions:
  status: ('A' for Active; 'I' for Inactive)
    1  A    between atoms: C_17  and  C_28
    2  A    between atoms: C_28  and  O_29
    3  A    between atoms: O_29  and  C_32
                            x       y       z     vdW  Elec       q    Type
                         _______ _______ _______ _____ _____    ______ ____

>  <TORSDO>
F 3

$$$$
