=
 OpenBabel11112418023D

 34 41  0  0  1  0  0  0  0  0999 V2000
  190.0190  174.8390  143.8040 C   0  0  2  0  0  3  0  0  0  0  0  0
  192.1380  173.6110  144.3290 C   0  0  0  0  0  2  0  0  0  0  0  0
  184.6510  178.2960  145.3850 C   0  0  1  0  0  3  0  0  0  0  0  0
  188.0300  176.2720  143.3430 C   0  0  1  0  0  3  0  0  0  0  0  0
  186.7760  177.1530  145.4560 C   0  0  2  0  0  3  0  0  0  0  0  0
  185.4040  178.5320  147.2080 C   0  0  0  0  0  2  0  0  0  0  0  0
  184.1170  178.6310  146.6370 O   0  0  0  0  0  0  0  0  0  0  0  0
  185.0470  178.6690  142.9810 C   0  0  0  0  0  2  0  0  0  0  0  0
  191.0610  174.8510  146.1270 N   0  0  2  0  0  0  0  0  0  0  0  0
  193.0780  177.1400  147.2620 C   0  0  0  0  0  2  0  0  0  0  0  0
  188.1560  177.1290  146.0550 C   0  0  0  0  0  3  0  0  0  0  0  0
  186.5400  178.2920  143.0920 C   0  0  0  0  0  2  0  0  0  0  0  0
  190.4940  176.2280  146.1570 C   0  0  1  0  0  3  0  0  0  0  0  0
  193.0750  173.6760  145.4970 C   0  0  0  0  0  2  0  0  0  0  0  0
  186.7830  176.9870  143.8930 C   0  0  1  0  0  3  0  0  0  0  0  0
  184.4520  179.2860  144.2590 C   0  0  0  0  0  2  0  0  0  0  0  0
  193.2590  176.1350  146.1120 C   0  0  2  0  0  3  0  0  0  0  0  0
  188.7470  175.4250  144.4060 C   0  0  2  0  0  3  0  0  0  0  0  0
  186.0580  178.4250  145.8590 C   0  0  2  0  0  3  0  0  0  0  0  0
  189.0820  176.2670  145.6020 C   0  0  0  0  0  0  0  0  0  0  0  0
  188.9070  174.7350  141.5640 C   0  0  0  0  0  2  0  0  0  0  0  0
  191.9410  176.7900  148.2240 C   0  0  0  0  0  2  0  0  0  0  0  0
  187.6570  175.3930  142.1490 C   0  0  0  0  0  2  0  0  0  0  0  0
  190.5630  176.8480  147.5670 C   0  0  0  0  0  2  0  0  0  0  0  0
  192.5240  174.7910  146.3620 C   0  0  1  0  0  3  0  0  0  0  0  0
  189.6430  173.9290  142.6330 C   0  0  0  0  0  2  0  0  0  0  0  0
  190.8070  174.0820  144.8800 C   0  0  1  0  0  3  0  0  0  0  0  0
  194.6270  175.9350  145.8990 O   0  0  0  0  0  0  0  0  0  0  0  0
  194.9390  176.7400  144.8000 C   0  0  0  0  0  2  0  0  0  0  0  0
  195.0560  176.4560  141.5530 O   0  0  0  0  0  0  0  0  0  0  0  0
  196.7700  176.7910  143.1390 C   0  0  0  0  0  2  0  0  0  0  0  0
  195.7110  175.9340  143.7690 C   0  0  2  0  0  3  0  0  0  0  0  0
  196.4120  176.7890  141.6730 C   0  0  0  0  0  2  0  0  0  0  0  0
  194.7980  175.5800  142.6190 C   0  0  0  0  0  2  0  0  0  0  0  0
  1 26  1  6  0  0  0
  1 18  1  0  0  0  0
  1 27  1  0  0  0  0
  2 27  1  0  0  0  0
  2 14  1  0  0  0  0
  3 16  1  6  0  0  0
  3 19  1  0  0  0  0
  3  7  1  0  0  0  0
  4 23  1  6  0  0  0
  4 15  1  0  0  0  0
  4 18  1  0  0  0  0
  5 19  1  0  0  0  0
  5 11  1  6  0  0  0
  7  6  1  0  0  0  0
  8 12  1  0  0  0  0
  8 16  1  0  0  0  0
  9 13  1  0  0  0  0
  9 25  1  0  0  0  0
 10 22  1  0  0  0  0
 12 15  1  0  0  0  0
 13 24  1  0  0  0  0
 14 25  1  0  0  0  0
 15  5  1  0  0  0  0
 17 25  1  0  0  0  0
 17 10  1  0  0  0  0
 18 20  1  0  0  0  0
 19  6  1  0  0  0  0
 20 11  2  0  0  0  0
 20 13  1  0  0  0  0
 21 23  1  0  0  0  0
 21 26  1  0  0  0  0
 24 22  1  0  0  0  0
 27  9  1  0  0  0  0
 28 17  1  0  0  0  0
 29 28  1  0  0  0  0
 30 33  1  0  0  0  0
 30 34  1  0  0  0  0
 31 32  1  0  0  0  0
 32 29  1  0  0  0  0
 33 31  1  0  0  0  0
 34 32  1  0  0  0  0
M  END
>  <MODEL>
1

>  <REMARK>
 VINA RESULT:      -9.7      0.000      0.000
  Name = 
  3 active torsions:
  status: ('A' for Active; 'I' for Inactive)
    1  A    between atoms: C_17  and  O_28
    2  A    between atoms: O_28  and  C_29
    3  A    between atoms: C_29  and  C_32
                            x       y       z     vdW  Elec       q    Type
                         _______ _______ _______ _____ _____    ______ ____

>  <TORSDO>
F 3

$$$$
=
 OpenBabel11112418023D

 34 41  0  0  1  0  0  0  0  0999 V2000
  189.7180  174.7680  143.1720 C   0  0  2  0  0  3  0  0  0  0  0  0
  191.7800  173.3470  143.2400 C   0  0  0  0  0  2  0  0  0  0  0  0
  184.8260  178.2100  145.9070 C   0  0  1  0  0  3  0  0  0  0  0  0
  187.8070  176.3720  143.1840 C   0  0  1  0  0  3  0  0  0  0  0  0
  186.8530  176.9510  145.5440 C   0  0  2  0  0  3  0  0  0  0  0  0
  185.7810  178.0880  147.6450 C   0  0  0  0  0  2  0  0  0  0  0  0
  184.4540  178.3570  147.2510 O   0  0  0  0  0  0  0  0  0  0  0  0
  184.9960  178.9640  143.5670 C   0  0  0  0  0  2  0  0  0  0  0  0
  190.9950  174.3220  145.3290 N   0  0  2  0  0  0  0  0  0  0  0  0
  193.2900  176.2640  146.5800 C   0  0  0  0  0  2  0  0  0  0  0  0
  188.2830  176.7450  145.9670 C   0  0  0  0  0  3  0  0  0  0  0  0
  186.4590  178.4870  143.4410 C   0  0  0  0  0  2  0  0  0  0  0  0
  190.5420  175.7050  145.6490 C   0  0  1  0  0  3  0  0  0  0  0  0
  192.8360  173.1570  144.2860 C   0  0  0  0  0  2  0  0  0  0  0  0
  186.6840  177.0540  143.9850 C   0  0  1  0  0  3  0  0  0  0  0  0
  184.5870  179.3880  144.9890 C   0  0  0  0  0  2  0  0  0  0  0  0
  193.2720  175.4600  145.2680 C   0  0  2  0  0  3  0  0  0  0  0  0
  188.5650  175.3150  144.0050 C   0  0  2  0  0  3  0  0  0  0  0  0
  186.2810  178.1750  146.2290 C   0  0  2  0  0  3  0  0  0  0  0  0
  189.0870  175.9200  145.2750 C   0  0  0  0  0  0  0  0  0  0  0  0
  188.3730  175.1120  141.0900 C   0  0  0  0  0  2  0  0  0  0  0  0
  192.2370  175.8220  147.5970 C   0  0  0  0  0  2  0  0  0  0  0  0
  187.2460  175.7320  141.9150 C   0  0  0  0  0  2  0  0  0  0  0  0
  190.8050  176.0710  147.1230 C   0  0  0  0  0  2  0  0  0  0  0  0
  192.4660  174.1390  145.3800 C   0  0  1  0  0  3  0  0  0  0  0  0
  189.1530  174.0940  141.9200 C   0  0  0  0  0  2  0  0  0  0  0  0
  190.5540  173.7940  144.0110 C   0  0  1  0  0  3  0  0  0  0  0  0
  194.5900  175.2210  144.8680 O   0  0  0  0  0  0  0  0  0  0  0  0
  195.2800  174.9480  146.0530 C   0  0  0  0  0  2  0  0  0  0  0  0
  196.1820  172.2420  144.4720 O   0  0  0  0  0  0  0  0  0  0  0  0
  196.9770  174.4570  144.3230 C   0  0  0  0  0  2  0  0  0  0  0  0
  196.5670  174.2030  145.7440 C   0  0  2  0  0  3  0  0  0  0  0  0
  196.9920  173.0830  143.6990 C   0  0  0  0  0  2  0  0  0  0  0  0
  196.3110  172.7150  145.7870 C   0  0  0  0  0  2  0  0  0  0  0  0
  1 26  1  6  0  0  0
  1 18  1  0  0  0  0
  1 27  1  0  0  0  0
  2 27  1  0  0  0  0
  2 14  1  0  0  0  0
  3 16  1  6  0  0  0
  3 19  1  0  0  0  0
  3  7  1  0  0  0  0
  4 23  1  6  0  0  0
  4 15  1  0  0  0  0
  4 18  1  0  0  0  0
  5 11  1  6  0  0  0
  5 19  1  0  0  0  0
  7  6  1  0  0  0  0
  8 16  1  0  0  0  0
  9 25  1  0  0  0  0
  9 13  1  0  0  0  0
 10 22  1  0  0  0  0
 12  8  1  0  0  0  0
 12 15  1  0  0  0  0
 13 24  1  0  0  0  0
 14 25  1  0  0  0  0
 15  5  1  0  0  0  0
 17 25  1  0  0  0  0
 17 10  1  0  0  0  0
 18 20  1  0  0  0  0
 19  6  1  0  0  0  0
 20 13  1  0  0  0  0
 20 11  2  0  0  0  0
 21 23  1  0  0  0  0
 21 26  1  0  0  0  0
 24 22  1  0  0  0  0
 27  9  1  0  0  0  0
 28 17  1  0  0  0  0
 28 29  1  0  0  0  0
 30 34  1  0  0  0  0
 31 32  1  0  0  0  0
 32 34  1  0  0  0  0
 32 29  1  0  0  0  0
 33 31  1  0  0  0  0
 33 30  1  0  0  0  0
M  END
>  <MODEL>
2

>  <REMARK>
 VINA RESULT:      -9.3      1.454      1.755
  Name = 
  3 active torsions:
  status: ('A' for Active; 'I' for Inactive)
    1  A    between atoms: C_17  and  O_28
    2  A    between atoms: O_28  and  C_29
    3  A    between atoms: C_29  and  C_32
                            x       y       z     vdW  Elec       q    Type
                         _______ _______ _______ _____ _____    ______ ____

>  <TORSDO>
F 3

$$$$
=
 OpenBabel11112418023D

 34 41  0  0  1  0  0  0  0  0999 V2000
  190.6160  175.8050  145.1310 C   0  0  2  0  0  3  0  0  0  0  0  0
  192.5010  174.5630  144.0460 C   0  0  0  0  0  2  0  0  0  0  0  0
  184.8110  178.8980  145.1380 C   0  0  1  0  0  3  0  0  0  0  0  0
  188.6000  176.8380  146.1770 C   0  0  1  0  0  3  0  0  0  0  0  0
  186.7400  177.5910  144.5070 C   0  0  2  0  0  3  0  0  0  0  0  0
  184.4930  178.1950  143.3070 C   0  0  0  0  0  2  0  0  0  0  0  0
  183.9640  179.2510  144.0780 O   0  0  0  0  0  0  0  0  0  0  0  0
  185.2830  178.2800  147.4770 C   0  0  0  0  0  2  0  0  0  0  0  0
  190.4960  174.9760  142.7280 N   0  0  2  0  0  0  0  0  0  0  0  0
  189.1810  172.1500  141.7870 C   0  0  0  0  0  2  0  0  0  0  0  0
  187.2420  176.4170  143.7100 C   0  0  0  0  0  3  0  0  0  0  0  0
  186.2600  177.1590  147.0610 C   0  0  0  0  0  2  0  0  0  0  0  0
  189.0540  174.8100  143.0670 C   0  0  1  0  0  3  0  0  0  0  0  0
  192.5790  173.7550  142.7860 C   0  0  0  0  0  2  0  0  0  0  0  0
  187.2800  177.6060  145.9830 C   0  0  1  0  0  3  0  0  0  0  0  0
  184.1610  178.5520  146.4590 C   0  0  0  0  0  2  0  0  0  0  0  0
  190.4120  172.4320  142.6650 C   0  0  2  0  0  3  0  0  0  0  0  0
  189.3820  176.6590  144.8660 C   0  0  2  0  0  3  0  0  0  0  0  0
  185.2250  177.6220  144.4890 C   0  0  2  0  0  3  0  0  0  0  0  0
  188.5150  176.0060  143.8290 C   0  0  0  0  0  0  0  0  0  0  0  0
  190.7620  176.7440  147.4470 C   0  0  0  0  0  2  0  0  0  0  0  0
  188.7150  173.3500  140.9610 C   0  0  0  0  0  2  0  0  0  0  0  0
  189.4810  177.5430  147.2090 C   0  0  0  0  0  2  0  0  0  0  0  0
  188.2000  174.5040  141.8200 C   0  0  0  0  0  2  0  0  0  0  0  0
  191.1570  173.7330  142.2620 C   0  0  1  0  0  3  0  0  0  0  0  0
  191.5150  176.5280  146.1350 C   0  0  0  0  0  2  0  0  0  0  0  0
  191.3500  175.5210  143.8150 C   0  0  1  0  0  3  0  0  0  0  0  0
  191.2630  171.3230  142.6190 O   0  0  0  0  0  0  0  0  0  0  0  0
  190.7050  170.4840  141.6510 C   0  0  0  0  0  2  0  0  0  0  0  0
  192.6370  171.9000  139.4370 O   0  0  0  0  0  0  0  0  0  0  0  0
  193.1330  170.3990  141.1880 C   0  0  0  0  0  2  0  0  0  0  0  0
  191.7710  170.0610  140.6540 C   0  0  2  0  0  3  0  0  0  0  0  0
  193.7020  171.3420  140.1570 C   0  0  0  0  0  2  0  0  0  0  0  0
  191.6530  170.9000  139.4040 C   0  0  0  0  0  2  0  0  0  0  0  0
  1 26  1  1  0  0  0
  3 16  1  1  0  0  0
  4 23  1  1  0  0  0
  5 11  1  1  0  0  0
  5 15  1  0  0  0  0
  6  7  1  0  0  0  0
  6 19  1  0  0  0  0
  7  3  1  0  0  0  0
  9 13  1  0  0  0  0
  9 27  1  0  0  0  0
 10 17  1  0  0  0  0
 11 20  2  0  0  0  0
 12  8  1  0  0  0  0
 13 20  1  0  0  0  0
 14  2  1  0  0  0  0
 15  4  1  0  0  0  0
 15 12  1  0  0  0  0
 16  8  1  0  0  0  0
 18  1  1  0  0  0  0
 18  4  1  0  0  0  0
 19  5  1  0  0  0  0
 19  3  1  0  0  0  0
 20 18  1  0  0  0  0
 22 10  1  0  0  0  0
 22 24  1  0  0  0  0
 23 21  1  0  0  0  0
 24 13  1  0  0  0  0
 25 17  1  0  0  0  0
 25  9  1  0  0  0  0
 25 14  1  0  0  0  0
 26 21  1  0  0  0  0
 27  2  1  0  0  0  0
 27  1  1  0  0  0  0
 28 17  1  0  0  0  0
 29 28  1  0  0  0  0
 30 33  1  0  0  0  0
 32 31  1  0  0  0  0
 32 29  1  0  0  0  0
 33 31  1  0  0  0  0
 34 30  1  0  0  0  0
 34 32  1  0  0  0  0
M  END
>  <MODEL>
3

>  <REMARK>
 VINA RESULT:      -8.9      2.620      4.908
  Name = 
  3 active torsions:
  status: ('A' for Active; 'I' for Inactive)
    1  A    between atoms: C_17  and  O_28
    2  A    between atoms: O_28  and  C_29
    3  A    between atoms: C_29  and  C_32
                            x       y       z     vdW  Elec       q    Type
                         _______ _______ _______ _____ _____    ______ ____

>  <TORSDO>
F 3

$$$$
=
 OpenBabel11112418023D

 34 41  0  0  1  0  0  0  0  0999 V2000
  190.6650  176.0960  144.8770 C   0  0  2  0  0  3  0  0  0  0  0  0
  192.5900  175.0650  143.6500 C   0  0  0  0  0  2  0  0  0  0  0  0
  184.7320  178.9110  145.2590 C   0  0  1  0  0  3  0  0  0  0  0  0
  188.6180  176.9180  146.0420 C   0  0  1  0  0  3  0  0  0  0  0  0
  186.7090  177.7670  144.4770 C   0  0  2  0  0  3  0  0  0  0  0  0
  184.4250  178.3990  143.3630 C   0  0  0  0  0  2  0  0  0  0  0  0
  183.8590  179.3400  144.2490 O   0  0  0  0  0  0  0  0  0  0  0  0
  185.2550  178.0610  147.5120 C   0  0  0  0  0  2  0  0  0  0  0  0
  190.5540  175.5310  142.3970 N   0  0  2  0  0  0  0  0  0  0  0  0
  189.3530  172.7700  141.1590 C   0  0  0  0  0  2  0  0  0  0  0  0
  187.2520  176.7110  143.5520 C   0  0  0  0  0  3  0  0  0  0  0  0
  186.2760  177.0370  146.9700 C   0  0  0  0  0  2  0  0  0  0  0  0
  189.1250  175.2660  142.7250 C   0  0  1  0  0  3  0  0  0  0  0  0
  192.6890  174.4050  142.3080 C   0  0  0  0  0  2  0  0  0  0  0  0
  187.2640  177.6440  145.9420 C   0  0  1  0  0  3  0  0  0  0  0  0
  184.1120  178.3940  146.5370 C   0  0  0  0  0  2  0  0  0  0  0  0
  190.5800  173.0090  142.0550 C   0  0  2  0  0  3  0  0  0  0  0  0
  189.3920  176.9190  144.7140 C   0  0  2  0  0  3  0  0  0  0  0  0
  185.1940  177.7330  144.4710 C   0  0  2  0  0  3  0  0  0  0  0  0
  188.5430  176.3460  143.6170 C   0  0  0  0  0  0  0  0  0  0  0  0
  190.7950  176.7810  147.2810 C   0  0  0  0  0  2  0  0  0  0  0  0
  188.8270  174.0320  140.4730 C   0  0  0  0  0  2  0  0  0  0  0  0
  189.4780  177.5440  147.1400 C   0  0  0  0  0  2  0  0  0  0  0  0
  188.2720  175.0610  141.4570 C   0  0  0  0  0  2  0  0  0  0  0  0
  191.2640  174.3780  141.7940 C   0  0  1  0  0  3  0  0  0  0  0  0
  191.5430  176.7440  145.9490 C   0  0  0  0  0  2  0  0  0  0  0  0
  191.3960  175.9910  143.5330 C   0  0  1  0  0  3  0  0  0  0  0  0
  191.4780  171.9500  141.8820 O   0  0  0  0  0  0  0  0  0  0  0  0
  191.3490  171.1790  143.0410 C   0  0  0  0  0  2  0  0  0  0  0  0
  194.5430  171.6740  142.6050 O   0  0  0  0  0  0  0  0  0  0  0  0
  193.3240  171.0420  144.5220 C   0  0  0  0  0  2  0  0  0  0  0  0
  192.6490  170.4450  143.3220 C   0  0  2  0  0  3  0  0  0  0  0  0
  194.6560  171.5130  143.9920 C   0  0  0  0  0  2  0  0  0  0  0  0
  193.6240  170.6960  142.1950 C   0  0  0  0  0  2  0  0  0  0  0  0
  1 26  1  1  0  0  0
  3 16  1  1  0  0  0
  4 23  1  1  0  0  0
  5 11  1  6  0  0  0
  5 15  1  0  0  0  0
  6  7  1  0  0  0  0
  6 19  1  0  0  0  0
  7  3  1  0  0  0  0
  9 13  1  0  0  0  0
  9 27  1  0  0  0  0
 10 17  1  0  0  0  0
 11 20  2  0  0  0  0
 12  8  1  0  0  0  0
 13 20  1  0  0  0  0
 14  2  1  0  0  0  0
 15  4  1  0  0  0  0
 15 12  1  0  0  0  0
 16  8  1  0  0  0  0
 18  1  1  0  0  0  0
 18  4  1  0  0  0  0
 19  5  1  0  0  0  0
 19  3  1  0  0  0  0
 20 18  1  0  0  0  0
 22 10  1  0  0  0  0
 22 24  1  0  0  0  0
 23 21  1  0  0  0  0
 24 13  1  0  0  0  0
 25 17  1  0  0  0  0
 25 14  1  0  0  0  0
 25  9  1  0  0  0  0
 26 21  1  0  0  0  0
 27  2  1  0  0  0  0
 27  1  1  0  0  0  0
 28 17  1  0  0  0  0
 28 29  1  0  0  0  0
 29 32  1  0  0  0  0
 30 33  1  0  0  0  0
 32 31  1  0  0  0  0
 33 31  1  0  0  0  0
 34 30  1  0  0  0  0
 34 32  1  0  0  0  0
M  END
>  <MODEL>
4

>  <REMARK>
 VINA RESULT:      -8.8      2.340      4.716
  Name = 
  3 active torsions:
  status: ('A' for Active; 'I' for Inactive)
    1  A    between atoms: C_17  and  O_28
    2  A    between atoms: O_28  and  C_29
    3  A    between atoms: C_29  and  C_32
                            x       y       z     vdW  Elec       q    Type
                         _______ _______ _______ _____ _____    ______ ____

>  <TORSDO>
F 3

$$$$
=
 OpenBabel11112418023D

 34 41  0  0  1  0  0  0  0  0999 V2000
  190.5520  174.1380  143.2790 C   0  0  2  0  0  3  0  0  0  0  0  0
  192.6400  172.9020  143.9010 C   0  0  0  0  0  2  0  0  0  0  0  0
  185.2890  177.8660  144.5720 C   0  0  1  0  0  3  0  0  0  0  0  0
  188.6000  175.5800  142.7020 C   0  0  1  0  0  3  0  0  0  0  0  0
  187.3830  176.6760  144.7350 C   0  0  2  0  0  3  0  0  0  0  0  0
  186.0580  178.2380  146.3660 C   0  0  0  0  0  2  0  0  0  0  0  0
  184.7720  178.3230  145.7920 O   0  0  0  0  0  0  0  0  0  0  0  0
  185.6810  178.0180  142.1430 C   0  0  0  0  0  2  0  0  0  0  0  0
  191.6070  174.3220  145.5880 N   0  0  2  0  0  0  0  0  0  0  0  0
  193.6920  176.6450  146.5130 C   0  0  0  0  0  2  0  0  0  0  0  0
  188.7650  176.6650  145.3290 C   0  0  0  0  0  3  0  0  0  0  0  0
  187.1640  177.6110  142.2820 C   0  0  0  0  0  2  0  0  0  0  0  0
  191.0780  175.7120  145.5010 C   0  0  1  0  0  3  0  0  0  0  0  0
  193.5850  173.0420  145.0560 C   0  0  0  0  0  2  0  0  0  0  0  0
  187.3760  176.3740  143.1920 C   0  0  1  0  0  3  0  0  0  0  0  0
  185.1100  178.7600  143.3650 C   0  0  0  0  0  2  0  0  0  0  0  0
  193.8390  175.5390  145.4550 C   0  0  2  0  0  3  0  0  0  0  0  0
  189.3000  174.8090  143.8320 C   0  0  2  0  0  3  0  0  0  0  0  0
  186.7010  177.9970  145.0280 C   0  0  2  0  0  3  0  0  0  0  0  0
  189.6640  175.7420  144.9500 C   0  0  0  0  0  0  0  0  0  0  0  0
  189.4250  173.8720  141.0600 C   0  0  0  0  0  2  0  0  0  0  0  0
  192.5520  176.4110  147.5060 C   0  0  0  0  0  2  0  0  0  0  0  0
  188.1970  174.6120  141.5900 C   0  0  0  0  0  2  0  0  0  0  0  0
  191.1720  176.4500  146.8510 C   0  0  0  0  0  2  0  0  0  0  0  0
  193.0690  174.2430  145.8230 C   0  0  1  0  0  3  0  0  0  0  0  0
  190.1450  173.1410  142.1930 C   0  0  0  0  0  2  0  0  0  0  0  0
  191.3260  173.4560  144.4140 C   0  0  1  0  0  3  0  0  0  0  0  0
  195.1990  175.2840  145.2550 O   0  0  0  0  0  0  0  0  0  0  0  0
  195.5740  176.1360  144.2130 C   0  0  0  0  0  2  0  0  0  0  0  0
  196.9020  176.1800  141.2340 O   0  0  0  0  0  0  0  0  0  0  0  0
  196.4030  174.3830  142.6780 C   0  0  0  0  0  2  0  0  0  0  0  0
  195.3610  175.4450  142.8760 C   0  0  2  0  0  3  0  0  0  0  0  0
  197.1180  174.8080  141.4190 C   0  0  0  0  0  2  0  0  0  0  0  0
  195.6230  176.4230  141.7550 C   0  0  0  0  0  2  0  0  0  0  0  0
  1 26  1  6  0  0  0
  1 18  1  0  0  0  0
  1 27  1  0  0  0  0
  2 27  1  0  0  0  0
  2 14  1  0  0  0  0
  3 16  1  6  0  0  0
  3 19  1  0  0  0  0
  3  7  1  0  0  0  0
  4 23  1  6  0  0  0
  4 15  1  0  0  0  0
  4 18  1  0  0  0  0
  5 19  1  0  0  0  0
  5 11  1  6  0  0  0
  7  6  1  0  0  0  0
  8 12  1  0  0  0  0
  8 16  1  0  0  0  0
  9 25  1  0  0  0  0
 10 22  1  0  0  0  0
 12 15  1  0  0  0  0
 13  9  1  0  0  0  0
 13 24  1  0  0  0  0
 14 25  1  0  0  0  0
 15  5  1  0  0  0  0
 17 25  1  0  0  0  0
 17 10  1  0  0  0  0
 18 20  1  0  0  0  0
 19  6  1  0  0  0  0
 20 11  2  0  0  0  0
 20 13  1  0  0  0  0
 21 23  1  0  0  0  0
 21 26  1  0  0  0  0
 24 22  1  0  0  0  0
 27  9  1  0  0  0  0
 28 17  1  0  0  0  0
 29 28  1  0  0  0  0
 30 33  1  0  0  0  0
 30 34  1  0  0  0  0
 31 32  1  0  0  0  0
 32 29  1  0  0  0  0
 33 31  1  0  0  0  0
 34 32  1  0  0  0  0
M  END
>  <MODEL>
5

>  <REMARK>
 VINA RESULT:      -8.7      1.065      1.219
  Name = 
  3 active torsions:
  status: ('A' for Active; 'I' for Inactive)
    1  A    between atoms: C_17  and  O_28
    2  A    between atoms: O_28  and  C_29
    3  A    between atoms: C_29  and  C_32
                            x       y       z     vdW  Elec       q    Type
                         _______ _______ _______ _____ _____    ______ ____

>  <TORSDO>
F 3

$$$$
=
 OpenBabel11112418023D

 34 41  0  0  1  0  0  0  0  0999 V2000
  192.4840  176.1640  146.1420 C   0  0  2  0  0  3  0  0  0  0  0  0
  194.8920  175.4760  146.0840 C   0  0  0  0  0  2  0  0  0  0  0  0
  186.8750  178.2650  143.4230 C   0  0  1  0  0  3  0  0  0  0  0  0
  190.0350  176.6380  146.0780 C   0  0  1  0  0  3  0  0  0  0  0  0
  189.1130  177.4270  143.7670 C   0  0  2  0  0  3  0  0  0  0  0  0
  187.6720  177.9160  141.6370 C   0  0  0  0  0  2  0  0  0  0  0  0
  186.5990  178.6960  142.1190 O   0  0  0  0  0  0  0  0  0  0  0  0
  186.2730  177.2550  145.5900 C   0  0  0  0  0  2  0  0  0  0  0  0
  193.7560  175.8430  143.9610 N   0  0  2  0  0  0  0  0  0  0  0  0
  193.7860  173.1060  142.1980 C   0  0  0  0  0  2  0  0  0  0  0  0
  190.2030  176.5350  143.2380 C   0  0  0  0  0  3  0  0  0  0  0  0
  187.5630  176.4080  145.6370 C   0  0  0  0  0  2  0  0  0  0  0  0
  192.4210  175.3920  143.4790 C   0  0  1  0  0  3  0  0  0  0  0  0
  195.7660  174.9700  144.9770 C   0  0  0  0  0  2  0  0  0  0  0  0
  188.8410  177.2180  145.3010 C   0  0  1  0  0  3  0  0  0  0  0  0
  185.7650  177.5580  144.1690 C   0  0  0  0  0  2  0  0  0  0  0  0
  194.3220  173.3850  143.6120 C   0  0  2  0  0  3  0  0  0  0  0  0
  191.3760  176.8560  145.3570 C   0  0  2  0  0  3  0  0  0  0  0  0
  187.8430  177.2300  142.9640 C   0  0  2  0  0  3  0  0  0  0  0  0
  191.3110  176.3070  143.9620 C   0  0  0  0  0  0  0  0  0  0  0  0
  191.2500  176.6130  148.2730 C   0  0  0  0  0  2  0  0  0  0  0  0
  193.5140  174.3660  141.3730 C   0  0  0  0  0  2  0  0  0  0  0  0
  190.1020  177.2390  147.4820 C   0  0  0  0  0  2  0  0  0  0  0  0
  192.3870  175.2240  141.9470 C   0  0  0  0  0  2  0  0  0  0  0  0
  194.8340  174.8390  143.7890 C   0  0  1  0  0  3  0  0  0  0  0  0
  192.5760  176.7920  147.5340 C   0  0  0  0  0  2  0  0  0  0  0  0
  193.8120  176.2740  145.3820 C   0  0  1  0  0  3  0  0  0  0  0  0
  195.3210  172.4530  143.9070 O   0  0  0  0  0  0  0  0  0  0  0  0
  194.6430  171.3630  144.4590 C   0  0  0  0  0  2  0  0  0  0  0  0
  196.0940  168.8200  145.8970 O   0  0  0  0  0  0  0  0  0  0  0  0
  196.7250  171.0890  145.7650 C   0  0  0  0  0  2  0  0  0  0  0  0
  195.2270  171.0240  145.8210 C   0  0  2  0  0  3  0  0  0  0  0  0
  197.1630  169.6940  146.1370 C   0  0  0  0  0  2  0  0  0  0  0  0
  194.9390  169.5770  146.1460 C   0  0  0  0  0  2  0  0  0  0  0  0
  1 26  1  1  0  0  0
  3 16  1  6  0  0  0
  4 23  1  1  0  0  0
  5 11  1  6  0  0  0
  5 15  1  0  0  0  0
  6  7  1  0  0  0  0
  6 19  1  0  0  0  0
  7  3  1  0  0  0  0
  8 12  1  0  0  0  0
  9 27  1  0  0  0  0
 10 17  1  0  0  0  0
 11 20  2  0  0  0  0
 13  9  1  0  0  0  0
 13 20  1  0  0  0  0
 14  2  1  0  0  0  0
 15 12  1  0  0  0  0
 15  4  1  0  0  0  0
 16  8  1  0  0  0  0
 17 25  1  0  0  0  0
 17 28  1  0  0  0  0
 18  4  1  0  0  0  0
 18  1  1  0  0  0  0
 19  3  1  0  0  0  0
 19  5  1  0  0  0  0
 20 18  1  0  0  0  0
 22 24  1  0  0  0  0
 22 10  1  0  0  0  0
 23 21  1  0  0  0  0
 24 13  1  0  0  0  0
 25  9  1  0  0  0  0
 25 14  1  0  0  0  0
 26 21  1  0  0  0  0
 27  2  1  0  0  0  0
 27  1  1  0  0  0  0
 28 29  1  0  0  0  0
 29 32  1  0  0  0  0
 30 33  1  0  0  0  0
 30 34  1  0  0  0  0
 31 32  1  0  0  0  0
 31 33  1  0  0  0  0
 32 34  1  0  0  0  0
M  END
>  <MODEL>
6

>  <REMARK>
 VINA RESULT:      -8.5      2.774      4.996
  Name = 
  3 active torsions:
  status: ('A' for Active; 'I' for Inactive)
    1  A    between atoms: C_17  and  O_28
    2  A    between atoms: O_28  and  C_29
    3  A    between atoms: C_29  and  C_32
                            x       y       z     vdW  Elec       q    Type
                         _______ _______ _______ _____ _____    ______ ____

>  <TORSDO>
F 3

$$$$
=
 OpenBabel11112418023D

 34 41  0  0  1  0  0  0  0  0999 V2000
  192.2980  176.1720  145.3430 C   0  0  2  0  0  3  0  0  0  0  0  0
  190.2650  176.3600  146.7930 C   0  0  0  0  0  2  0  0  0  0  0  0
  195.6300  174.0230  140.0940 C   0  0  1  0  0  3  0  0  0  0  0  0
  194.2020  176.1240  143.7310 C   0  0  1  0  0  3  0  0  0  0  0  0
  193.8820  174.5500  141.6730 C   0  0  2  0  0  3  0  0  0  0  0  0
  193.9080  173.4040  139.3190 C   0  0  0  0  0  2  0  0  0  0  0  0
  195.2690  173.1070  139.0960 O   0  0  0  0  0  0  0  0  0  0  0  0
  196.8610  175.9750  140.9590 C   0  0  0  0  0  2  0  0  0  0  0  0
  190.0260  175.2760  144.6260 N   0  0  2  0  0  0  0  0  0  0  0  0
  187.8660  176.8940  142.8050 C   0  0  0  0  0  2  0  0  0  0  0  0
  192.4350  174.9220  141.8500 C   0  0  0  0  0  3  0  0  0  0  0  0
  195.6160  176.5330  141.6830 C   0  0  0  0  0  2  0  0  0  0  0  0
  190.5160  175.6750  143.2770 C   0  0  1  0  0  3  0  0  0  0  0  0
  188.8060  176.1700  146.5080 C   0  0  0  0  0  2  0  0  0  0  0  0
  194.8550  175.4610  142.5050 C   0  0  1  0  0  3  0  0  0  0  0  0
  196.5450  175.1580  139.6940 C   0  0  0  0  0  2  0  0  0  0  0  0
  188.4000  177.1920  144.2160 C   0  0  2  0  0  3  0  0  0  0  0  0
  192.9320  175.3930  144.1960 C   0  0  2  0  0  3  0  0  0  0  0  0
  194.2490  174.5720  140.2030 C   0  0  2  0  0  3  0  0  0  0  0  0
  191.9610  175.2650  143.0590 C   0  0  0  0  0  0  0  0  0  0  0  0
  194.5680  176.9260  146.0800 C   0  0  0  0  0  2  0  0  0  0  0  0
  188.1200  175.4620  142.3310 C   0  0  0  0  0  2  0  0  0  0  0  0
  195.1990  176.2090  144.8860 C   0  0  0  0  0  2  0  0  0  0  0  0
  189.6040  175.1460  142.1520 C   0  0  0  0  0  2  0  0  0  0  0  0
  188.7430  175.9070  145.0170 C   0  0  1  0  0  3  0  0  0  0  0  0
  193.2820  176.2240  146.5130 C   0  0  0  0  0  2  0  0  0  0  0  0
  190.9700  175.5200  145.7470 C   0  0  1  0  0  3  0  0  0  0  0  0
  187.4670  177.9810  144.8950 O   0  0  0  0  0  0  0  0  0  0  0  0
  186.2240  177.5490  144.4250 C   0  0  0  0  0  2  0  0  0  0  0  0
  185.8010  177.2740  147.6480 O   0  0  0  0  0  0  0  0  0  0  0  0
  185.5010  179.1120  146.2000 C   0  0  0  0  0  2  0  0  0  0  0  0
  185.1450  177.8630  145.4480 C   0  0  2  0  0  3  0  0  0  0  0  0
  185.5860  178.6590  147.6370 C   0  0  0  0  0  2  0  0  0  0  0  0
  185.1330  176.7900  146.5130 C   0  0  0  0  0  2  0  0  0  0  0  0
  1 27  1  0  0  0  0
  1 26  1  1  0  0  0
  3 16  1  6  0  0  0
  3 19  1  0  0  0  0
  4 18  1  0  0  0  0
  4 23  1  1  0  0  0
  5 11  1  6  0  0  0
  5 15  1  0  0  0  0
  6 19  1  0  0  0  0
  7  6  1  0  0  0  0
  7  3  1  0  0  0  0
  8 12  1  0  0  0  0
  9 25  1  0  0  0  0
  9 27  1  0  0  0  0
 10 17  1  0  0  0  0
 11 20  2  0  0  0  0
 12 15  1  0  0  0  0
 13  9  1  0  0  0  0
 14  2  1  0  0  0  0
 15  4  1  0  0  0  0
 16  8  1  0  0  0  0
 17 28  1  0  0  0  0
 17 25  1  0  0  0  0
 18  1  1  0  0  0  0
 19  5  1  0  0  0  0
 20 13  1  0  0  0  0
 20 18  1  0  0  0  0
 21 26  1  0  0  0  0
 22 10  1  0  0  0  0
 23 21  1  0  0  0  0
 24 22  1  0  0  0  0
 24 13  1  0  0  0  0
 25 14  1  0  0  0  0
 27  2  1  0  0  0  0
 29 28  1  0  0  0  0
 29 32  1  0  0  0  0
 31 33  1  0  0  0  0
 32 31  1  0  0  0  0
 32 34  1  0  0  0  0
 33 30  1  0  0  0  0
 34 30  1  0  0  0  0
M  END
>  <MODEL>
7

>  <REMARK>
 VINA RESULT:      -8.4      1.971      8.595
  Name = 
  3 active torsions:
  status: ('A' for Active; 'I' for Inactive)
    1  A    between atoms: C_17  and  O_28
    2  A    between atoms: O_28  and  C_29
    3  A    between atoms: C_29  and  C_32
                            x       y       z     vdW  Elec       q    Type
                         _______ _______ _______ _____ _____    ______ ____

>  <TORSDO>
F 3

$$$$
=
 OpenBabel11112418023D

 34 41  0  0  1  0  0  0  0  0999 V2000
  191.5900  175.8740  145.6290 C   0  0  2  0  0  3  0  0  0  0  0  0
  193.6660  174.7590  144.7810 C   0  0  0  0  0  2  0  0  0  0  0  0
  185.7940  178.8980  144.9050 C   0  0  1  0  0  3  0  0  0  0  0  0
  189.3970  176.7840  146.3970 C   0  0  1  0  0  3  0  0  0  0  0  0
  187.8360  177.6750  144.5040 C   0  0  2  0  0  3  0  0  0  0  0  0
  185.8170  178.3700  142.9890 C   0  0  0  0  0  2  0  0  0  0  0  0
  185.1350  179.3430  143.7500 O   0  0  0  0  0  0  0  0  0  0  0  0
  185.8690  178.0640  147.2230 C   0  0  0  0  0  2  0  0  0  0  0  0
  191.9100  175.2770  143.1750 N   0  0  2  0  0  0  0  0  0  0  0  0
  190.8520  172.5420  141.7620 C   0  0  0  0  0  2  0  0  0  0  0  0
  188.4990  176.5880  143.7020 C   0  0  0  0  0  3  0  0  0  0  0  0
  186.9320  176.9970  146.8830 C   0  0  0  0  0  2  0  0  0  0  0  0
  190.4370  175.0660  143.2400 C   0  0  1  0  0  3  0  0  0  0  0  0
  193.9820  174.0760  143.4840 C   0  0  0  0  0  2  0  0  0  0  0  0
  188.1120  177.5540  146.0460 C   0  0  1  0  0  3  0  0  0  0  0  0
  184.9340  178.4220  146.0540 C   0  0  0  0  0  2  0  0  0  0  0  0
  191.9040  172.7500  142.8640 C   0  0  2  0  0  3  0  0  0  0  0  0
  190.3990  176.7380  145.2310 C   0  0  2  0  0  3  0  0  0  0  0  0
  186.3470  177.6940  144.2230 C   0  0  2  0  0  3  0  0  0  0  0  0
  189.7420  176.1790  144.0030 C   0  0  0  0  0  0  0  0  0  0  0  0
  191.3080  176.5890  148.0110 C   0  0  0  0  0  2  0  0  0  0  0  0
  190.5060  173.8110  140.9810 C   0  0  0  0  0  2  0  0  0  0  0  0
  190.0670  177.3950  147.6270 C   0  0  0  0  0  2  0  0  0  0  0  0
  189.8200  174.8720  141.8400 C   0  0  0  0  0  2  0  0  0  0  0  0
  192.6740  174.0910  142.7200 C   0  0  1  0  0  3  0  0  0  0  0  0
  192.2830  176.5070  146.8370 C   0  0  0  0  0  2  0  0  0  0  0  0
  192.5480  175.7240  144.4410 C   0  0  1  0  0  3  0  0  0  0  0  0
  192.7790  171.6590  142.8650 O   0  0  0  0  0  0  0  0  0  0  0  0
  192.3120  170.8280  143.8880 C   0  0  0  0  0  2  0  0  0  0  0  0
  195.5560  170.7010  143.5720 O   0  0  0  0  0  0  0  0  0  0  0  0
  194.1990  171.0420  145.4710 C   0  0  0  0  0  2  0  0  0  0  0  0
  193.4780  170.1080  144.5440 C   0  0  2  0  0  3  0  0  0  0  0  0
  195.6020  171.0920  144.9170 C   0  0  0  0  0  2  0  0  0  0  0  0
  194.5130  169.7660  143.4970 C   0  0  0  0  0  2  0  0  0  0  0  0
  1 26  1  1  0  0  0
  3 16  1  1  0  0  0
  4 23  1  1  0  0  0
  5 11  1  6  0  0  0
  5 15  1  0  0  0  0
  6  7  1  0  0  0  0
  6 19  1  0  0  0  0
  7  3  1  0  0  0  0
  9 13  1  0  0  0  0
  9 27  1  0  0  0  0
 10 17  1  0  0  0  0
 11 20  2  0  0  0  0
 12  8  1  0  0  0  0
 13 20  1  0  0  0  0
 14  2  1  0  0  0  0
 15  4  1  0  0  0  0
 15 12  1  0  0  0  0
 16  8  1  0  0  0  0
 17 28  1  0  0  0  0
 18  1  1  0  0  0  0
 18  4  1  0  0  0  0
 19  5  1  0  0  0  0
 19  3  1  0  0  0  0
 20 18  1  0  0  0  0
 22 10  1  0  0  0  0
 22 24  1  0  0  0  0
 23 21  1  0  0  0  0
 24 13  1  0  0  0  0
 25 17  1  0  0  0  0
 25  9  1  0  0  0  0
 25 14  1  0  0  0  0
 26 21  1  0  0  0  0
 27  2  1  0  0  0  0
 27  1  1  0  0  0  0
 28 29  1  0  0  0  0
 29 32  1  0  0  0  0
 30 33  1  0  0  0  0
 32 31  1  0  0  0  0
 33 31  1  0  0  0  0
 34 30  1  0  0  0  0
 34 32  1  0  0  0  0
M  END
>  <MODEL>
8

>  <REMARK>
 VINA RESULT:      -8.4      2.350      4.661
  Name = 
  3 active torsions:
  status: ('A' for Active; 'I' for Inactive)
    1  A    between atoms: C_17  and  O_28
    2  A    between atoms: O_28  and  C_29
    3  A    between atoms: C_29  and  C_32
                            x       y       z     vdW  Elec       q    Type
                         _______ _______ _______ _____ _____    ______ ____

>  <TORSDO>
F 3

$$$$
=
 OpenBabel11112418023D

 34 41  0  0  1  0  0  0  0  0999 V2000
  192.0470  176.1460  145.5620 C   0  0  2  0  0  3  0  0  0  0  0  0
  189.7580  176.5220  146.5060 C   0  0  0  0  0  2  0  0  0  0  0  0
  196.3260  173.5040  141.3220 C   0  0  1  0  0  3  0  0  0  0  0  0
  194.2540  175.9050  144.4240 C   0  0  1  0  0  3  0  0  0  0  0  0
  194.3060  174.2130  142.4370 C   0  0  2  0  0  3  0  0  0  0  0  0
  194.7850  172.9130  140.2160 C   0  0  0  0  0  2  0  0  0  0  0  0
  196.1410  172.5410  140.3210 O   0  0  0  0  0  0  0  0  0  0  0  0
  197.4470  175.4520  142.3330 C   0  0  0  0  0  2  0  0  0  0  0  0
  189.9410  175.3080  144.4030 N   0  0  2  0  0  0  0  0  0  0  0  0
  188.3370  176.8970  142.0580 C   0  0  0  0  0  2  0  0  0  0  0  0
  192.8800  174.6610  142.2630 C   0  0  0  0  0  3  0  0  0  0  0  0
  196.1080  176.1120  142.7270 C   0  0  0  0  0  2  0  0  0  0  0  0
  190.7400  175.5940  143.1790 C   0  0  1  0  0  3  0  0  0  0  0  0
  188.3890  176.3800  145.9110 C   0  0  0  0  0  2  0  0  0  0  0  0
  195.1220  175.1340  143.4150 C   0  0  1  0  0  3  0  0  0  0  0  0
  197.3720  174.5670  141.0760 C   0  0  0  0  0  2  0  0  0  0  0  0
  188.5630  177.2640  143.5340 C   0  0  2  0  0  3  0  0  0  0  0  0
  192.8720  175.2650  144.6310 C   0  0  2  0  0  3  0  0  0  0  0  0
  194.9900  174.1210  141.0880 C   0  0  2  0  0  3  0  0  0  0  0  0
  192.1710  175.1060  143.3140 C   0  0  0  0  0  0  0  0  0  0  0  0
  194.1370  176.8450  146.7480 C   0  0  0  0  0  2  0  0  0  0  0  0
  188.6050  175.4270  141.7320 C   0  0  0  0  0  2  0  0  0  0  0  0
  194.9740  176.0220  145.7680 C   0  0  0  0  0  2  0  0  0  0  0  0
  190.0710  175.0320  141.9090 C   0  0  0  0  0  2  0  0  0  0  0  0
  188.6430  176.0210  144.4610 C   0  0  1  0  0  3  0  0  0  0  0  0
  192.7480  176.2320  146.9190 C   0  0  0  0  0  2  0  0  0  0  0  0
  190.6260  175.5830  145.6930 C   0  0  1  0  0  3  0  0  0  0  0  0
  187.5500  178.1380  143.9420 O   0  0  0  0  0  0  0  0  0  0  0  0
  186.8990  178.5060  142.7610 C   0  0  0  0  0  2  0  0  0  0  0  0
  184.5080  177.8610  144.8840 O   0  0  0  0  0  0  0  0  0  0  0  0
  185.5490  179.8950  144.2990 C   0  0  0  0  0  2  0  0  0  0  0  0
  185.5060  179.0240  143.0770 C   0  0  2  0  0  3  0  0  0  0  0  0
  184.6250  179.2030  145.2700 C   0  0  0  0  0  2  0  0  0  0  0  0
  184.6190  177.8710  143.4860 C   0  0  0  0  0  2  0  0  0  0  0  0
  1 27  1  0  0  0  0
  1 26  1  1  0  0  0
  3 16  1  6  0  0  0
  4 18  1  0  0  0  0
  4 23  1  1  0  0  0
  5 11  1  6  0  0  0
  5 15  1  0  0  0  0
  6  7  1  0  0  0  0
  6 19  1  0  0  0  0
  7  3  1  0  0  0  0
  8 12  1  0  0  0  0
  9 25  1  0  0  0  0
  9 27  1  0  0  0  0
 10 17  1  0  0  0  0
 11 20  2  0  0  0  0
 12 15  1  0  0  0  0
 13 20  1  0  0  0  0
 13  9  1  0  0  0  0
 14  2  1  0  0  0  0
 15  4  1  0  0  0  0
 16  8  1  0  0  0  0
 17 28  1  0  0  0  0
 17 25  1  0  0  0  0
 18  1  1  0  0  0  0
 19  3  1  0  0  0  0
 19  5  1  0  0  0  0
 20 18  1  0  0  0  0
 21 26  1  0  0  0  0
 22 24  1  0  0  0  0
 22 10  1  0  0  0  0
 23 21  1  0  0  0  0
 24 13  1  0  0  0  0
 25 14  1  0  0  0  0
 27  2  1  0  0  0  0
 29 32  1  0  0  0  0
 29 28  1  0  0  0  0
 30 33  1  0  0  0  0
 31 33  1  0  0  0  0
 32 34  1  0  0  0  0
 32 31  1  0  0  0  0
 34 30  1  0  0  0  0
M  END
>  <MODEL>
9

>  <REMARK>
 VINA RESULT:      -8.3      1.891      8.758
  Name = 
  3 active torsions:
  status: ('A' for Active; 'I' for Inactive)
    1  A    between atoms: C_17  and  O_28
    2  A    between atoms: O_28  and  C_29
    3  A    between atoms: C_29  and  C_32
                            x       y       z     vdW  Elec       q    Type
                         _______ _______ _______ _____ _____    ______ ____

>  <TORSDO>
F 3

$$$$
