=
 OpenBabel11112416553D

 31 35  0  0  1  0  0  0  0  0999 V2000
  184.4970  178.3710  146.1760 C   0  0  0  0  0  0  0  0  0  0  0  0
  187.1820  176.6100  144.0900 C   0  0  0  0  0  0  0  0  0  0  0  0
  186.8300  176.6930  142.7840 C   0  0  2  0  0  3  0  0  0  0  0  0
  185.4860  177.6930  141.0000 C   0  0  0  0  0  0  0  0  0  0  0  0
  186.3970  177.1740  145.2320 C   0  0  0  0  0  0  0  0  0  0  0  0
  184.9830  178.1420  147.4640 C   0  0  0  0  0  3  0  0  0  0  0  0
  185.6520  177.4460  142.3020 C   0  0  0  0  0  3  0  0  0  0  0  0
  188.8620  175.7790  145.6830 C   0  0  0  0  0  0  0  0  0  0  0  0
  183.3430  179.0590  145.9990 F   0  0  0  0  0  0  0  0  0  0  0  0
  188.9620  175.5890  142.1240 N   0  0  0  0  0  0  0  0  0  0  0  0
  184.0950  178.6120  140.4680 Cl  0  0  0  0  0  0  0  0  0  0  0  0
  188.0660  176.2460  146.7400 O   0  0  0  0  0  0  0  0  0  0  0  0
  188.4670  175.9380  144.4100 C   0  0  0  0  0  0  0  0  0  0  0  0
  185.1980  177.8880  145.0690 C   0  0  0  0  0  2  0  0  0  0  0  0
  186.5060  177.2780  140.0170 C   0  0  0  0  0  3  0  0  0  0  0  0
  186.8770  176.9500  146.5360 C   0  0  0  0  0  0  0  0  0  0  0  0
  186.1710  177.4320  147.6430 C   0  0  0  0  0  3  0  0  0  0  0  0
  189.3440  175.5680  143.3400 N   0  0  0  0  0  0  0  0  0  0  0  0
  187.5790  175.8750  141.7460 C   0  0  2  0  0  3  0  0  0  0  0  0
  187.5090  176.4680  140.3660 C   0  0  0  0  0  3  0  0  0  0  0  0
  191.5040  176.9910  145.6120 O   0  0  0  0  0  0  0  0  0  0  0  0
  191.3960  175.7730  145.9150 C   0  0  0  0  0  0  0  0  0  0  0  0
  190.1120  175.1380  145.9580 N   0  0  0  0  0  2  0  0  0  0  0  0
  194.8630  175.4560  144.4000 N   0  0  0  0  0  0  0  0  0  0  0  0
  193.8120  175.9100  146.5720 C   0  0  0  0  0  2  0  0  0  0  0  0
  191.9280  173.2640  144.6780 O   0  0  0  0  0  1  0  0  0  0  0  0
  195.4250  176.1140  143.2360 C   0  0  0  0  0  1  0  0  0  0  0  0
  194.4220  176.5160  145.3060 C   0  0  0  0  0  2  0  0  0  0  0  0
  193.0330  173.9970  145.1150 C   0  0  2  0  0  3  0  0  0  0  0  0
  192.6390  174.9880  146.2240 C   0  0  2  0  0  3  0  0  0  0  0  0
  193.6880  174.7200  143.9390 C   0  0  0  0  0  2  0  0  0  0  0  0
  1  6  2  0  0  0  0
  2 13  1  0  0  0  0
  2  5  2  0  0  0  0
  3  7  1  1  0  0  0
  3  2  1  0  0  0  0
  4  7  2  0  0  0  0
  5 16  1  0  0  0  0
  6 17  1  0  0  0  0
  8 23  1  0  0  0  0
  8 12  1  0  0  0  0
  9  1  1  0  0  0  0
 10 18  2  0  0  0  0
 11  4  1  0  0  0  0
 13  8  2  0  0  0  0
 14  5  1  0  0  0  0
 14  1  1  0  0  0  0
 15 20  2  0  0  0  0
 15  4  1  0  0  0  0
 16 12  1  0  0  0  0
 16 17  2  0  0  0  0
 18 13  1  0  0  0  0
 19 20  1  6  0  0  0
 19 10  1  0  0  0  0
 19  3  1  0  0  0  0
 21 22  2  0  0  0  0
 22 23  1  0  0  0  0
 24 28  1  0  0  0  0
 27 24  1  0  0  0  0
 28 25  1  0  0  0  0
 29 26  1  6  0  0  0
 29 30  1  0  0  0  0
 30 22  1  6  0  0  0
 30 25  1  0  0  0  0
 31 24  1  0  0  0  0
 31 29  1  0  0  0  0
M  END
>  <MODEL>
1

>  <REMARK>
 VINA RESULT:      -9.7      0.000      0.000
  Name = 
  2 active torsions:
  status: ('A' for Active; 'I' for Inactive)
    1  A    between atoms: C_5  and  C_30
    2  A    between atoms: C_10  and  N_16
                            x       y       z     vdW  Elec       q    Type
                         _______ _______ _______ _____ _____    ______ ____

>  <TORSDO>
F 2

$$$$
=
 OpenBabel11112416553D

 31 35  0  0  1  0  0  0  0  0999 V2000
  184.9630  178.1360  147.0330 C   0  0  0  0  0  0  0  0  0  0  0  0
  187.0740  177.7280  143.8650 C   0  0  0  0  0  0  0  0  0  0  0  0
  186.2430  177.7250  142.7950 C   0  0  2  0  0  3  0  0  0  0  0  0
  184.0540  178.1760  141.7990 C   0  0  0  0  0  0  0  0  0  0  0  0
  186.6440  177.8660  145.2920 C   0  0  0  0  0  0  0  0  0  0  0  0
  185.9540  178.0620  148.0130 C   0  0  0  0  0  3  0  0  0  0  0  0
  184.7860  177.9550  142.8940 C   0  0  0  0  0  3  0  0  0  0  0  0
  189.4150  177.5770  144.6080 C   0  0  0  0  0  0  0  0  0  0  0  0
  183.6660  178.3020  147.3920 F   0  0  0  0  0  0  0  0  0  0  0  0
  188.1980  177.6200  141.2570 N   0  0  0  0  0  0  0  0  0  0  0  0
  182.3360  178.4730  141.9540 Cl  0  0  0  0  0  0  0  0  0  0  0  0
  188.9770  177.6270  145.9400 O   0  0  0  0  0  0  0  0  0  0  0  0
  188.5320  177.6240  143.5980 C   0  0  0  0  0  0  0  0  0  0  0  0
  185.3060  178.0360  145.6830 C   0  0  0  0  0  2  0  0  0  0  0  0
  184.6920  178.2620  140.4700 C   0  0  0  0  0  3  0  0  0  0  0  0
  187.6350  177.7930  146.2890 C   0  0  0  0  0  0  0  0  0  0  0  0
  187.2880  177.8900  147.6400 C   0  0  0  0  0  3  0  0  0  0  0  0
  188.9980  177.6960  142.2460 N   0  0  0  0  0  0  0  0  0  0  0  0
  186.7740  177.3350  141.4270 C   0  0  2  0  0  3  0  0  0  0  0  0
  185.9700  177.9160  140.2960 C   0  0  0  0  0  3  0  0  0  0  0  0
  191.2070  175.3840  145.2690 O   0  0  0  0  0  0  0  0  0  0  0  0
  191.6640  176.3860  144.6580 C   0  0  0  0  0  0  0  0  0  0  0  0
  190.8140  177.4890  144.3170 N   0  0  0  0  0  2  0  0  0  0  0  0
  194.4940  173.8580  144.5610 N   0  0  0  0  0  0  0  0  0  0  0  0
  193.4190  175.5100  143.0970 C   0  0  0  0  0  2  0  0  0  0  0  0
  193.6850  176.7890  146.6230 O   0  0  0  0  0  1  0  0  0  0  0  0
  194.4850  172.4490  144.9040 C   0  0  0  0  0  1  0  0  0  0  0  0
  193.4800  174.0410  143.5240 C   0  0  0  0  0  2  0  0  0  0  0  0
  194.0550  176.0850  145.4750 C   0  0  2  0  0  3  0  0  0  0  0  0
  193.1210  176.4150  144.2970 C   0  0  2  0  0  3  0  0  0  0  0  0
  194.0740  174.5840  145.7570 C   0  0  0  0  0  2  0  0  0  0  0  0
  1  9  1  0  0  0  0
  1  6  2  0  0  0  0
  2  5  2  0  0  0  0
  3  7  1  1  0  0  0
  3  2  1  0  0  0  0
  4 11  1  0  0  0  0
  4  7  2  0  0  0  0
  5 14  1  0  0  0  0
  5 16  1  0  0  0  0
  8 12  1  0  0  0  0
 10 19  1  0  0  0  0
 10 18  2  0  0  0  0
 12 16  1  0  0  0  0
 13  2  1  0  0  0  0
 13  8  2  0  0  0  0
 14  1  1  0  0  0  0
 15  4  1  0  0  0  0
 16 17  2  0  0  0  0
 17  6  1  0  0  0  0
 18 13  1  0  0  0  0
 19 20  1  6  0  0  0
 19  3  1  0  0  0  0
 20 15  2  0  0  0  0
 22 21  2  0  0  0  0
 23  8  1  0  0  0  0
 23 22  1  0  0  0  0
 24 27  1  0  0  0  0
 24 31  1  0  0  0  0
 25 28  1  0  0  0  0
 25 30  1  0  0  0  0
 28 24  1  0  0  0  0
 29 31  1  0  0  0  0
 29 26  1  1  0  0  0
 30 22  1  1  0  0  0
 30 29  1  0  0  0  0
M  END
>  <MODEL>
2

>  <REMARK>
 VINA RESULT:      -9.3      1.573      2.169
  Name = 
  2 active torsions:
  status: ('A' for Active; 'I' for Inactive)
    1  A    between atoms: C_5  and  C_30
    2  A    between atoms: C_10  and  N_16
                            x       y       z     vdW  Elec       q    Type
                         _______ _______ _______ _____ _____    ______ ____

>  <TORSDO>
F 2

$$$$
=
 OpenBabel11112416553D

 31 35  0  0  1  0  0  0  0  0999 V2000
  185.1750  177.9610  140.9430 C   0  0  0  0  0  0  0  0  0  0  0  0
  187.5590  176.5640  143.5940 C   0  0  0  0  0  0  0  0  0  0  0  0
  187.0840  176.9050  144.8170 C   0  0  2  0  0  3  0  0  0  0  0  0
  185.2680  177.7030  146.2490 C   0  0  0  0  0  0  0  0  0  0  0  0
  186.9170  176.9200  142.2900 C   0  0  0  0  0  0  0  0  0  0  0  0
  185.8360  177.5740  139.7760 C   0  0  0  0  0  3  0  0  0  0  0  0
  185.7990  177.6030  145.0270 C   0  0  0  0  0  3  0  0  0  0  0  0
  189.3500  175.4020  142.3710 C   0  0  0  0  0  0  0  0  0  0  0  0
  184.0130  178.6540  140.8660 F   0  0  0  0  0  0  0  0  0  0  0  0
  188.9050  175.6000  145.9040 N   0  0  0  0  0  0  0  0  0  0  0  0
  183.7300  178.5120  146.4580 Cl  0  0  0  0  0  0  0  0  0  0  0  0
  188.7710  175.8180  141.1630 O   0  0  0  0  0  0  0  0  0  0  0  0
  188.7950  175.7410  143.5450 C   0  0  0  0  0  0  0  0  0  0  0  0
  185.7150  177.6390  142.1900 C   0  0  0  0  0  3  0  0  0  0  0  0
  185.9180  177.0610  147.4090 C   0  0  0  0  0  3  0  0  0  0  0  0
  187.5740  176.5350  141.1050 C   0  0  1  0  0  3  0  0  0  0  0  0
  187.0340  176.8620  139.8580 C   0  0  0  0  0  3  0  0  0  0  0  0
  189.3240  175.2090  144.7650 N   0  0  0  0  0  0  0  0  0  0  0  0
  187.9490  176.6960  146.0480 C   0  0  2  0  0  3  0  0  0  0  0  0
  187.1480  176.5500  147.3120 C   0  0  0  0  0  3  0  0  0  0  0  0
  192.0970  176.3240  142.6140 O   0  0  0  0  0  0  0  0  0  0  0  0
  191.8730  175.0910  142.4840 C   0  0  0  0  0  0  0  0  0  0  0  0
  190.5340  174.5970  142.3580 N   0  0  0  0  0  2  0  0  0  0  0  0
  195.6300  175.3710  142.9560 N   0  0  0  0  0  0  0  0  0  0  0  0
  193.7350  174.0680  143.8160 C   0  0  0  0  0  2  0  0  0  0  0  0
  193.4030  174.6710  140.1190 O   0  0  0  0  0  1  0  0  0  0  0  0
  196.4410  176.5410  143.2340 C   0  0  0  0  0  1  0  0  0  0  0  0
  194.6410  175.2830  144.0290 C   0  0  0  0  0  2  0  0  0  0  0  0
  194.0490  174.4420  141.3360 C   0  0  2  0  0  3  0  0  0  0  0  0
  193.0360  174.1410  142.4550 C   0  0  2  0  0  3  0  0  0  0  0  0
  194.9320  175.6340  141.6990 C   0  0  0  0  0  2  0  0  0  0  0  0
  1 14  2  0  0  0  0
  2  3  1  0  0  0  0
  3  7  1  6  0  0  0
  3 19  1  0  0  0  0
  4 11  1  0  0  0  0
  4 15  1  0  0  0  0
  5  2  2  0  0  0  0
  6 17  2  0  0  0  0
  6  1  1  0  0  0  0
  7  4  2  0  0  0  0
  8 13  2  0  0  0  0
  9  1  1  0  0  0  0
 10 19  1  0  0  0  0
 12  8  1  0  0  0  0
 13  2  1  0  0  0  0
 13 18  1  0  0  0  0
 14  5  1  0  0  0  0
 16 17  1  6  0  0  0
 16 12  1  0  0  0  0
 16  5  1  0  0  0  0
 18 10  2  0  0  0  0
 19 20  1  1  0  0  0
 20 15  2  0  0  0  0
 22 21  2  0  0  0  0
 23  8  1  0  0  0  0
 23 22  1  0  0  0  0
 24 27  1  0  0  0  0
 24 28  1  0  0  0  0
 25 28  1  0  0  0  0
 29 26  1  6  0  0  0
 29 31  1  0  0  0  0
 29 30  1  0  0  0  0
 30 22  1  1  0  0  0
 30 25  1  0  0  0  0
 31 24  1  0  0  0  0
M  END
>  <MODEL>
3

>  <REMARK>
 VINA RESULT:      -8.4      2.366      4.400
  Name = 
  2 active torsions:
  status: ('A' for Active; 'I' for Inactive)
    1  A    between atoms: C_5  and  C_30
    2  A    between atoms: C_10  and  N_16
                            x       y       z     vdW  Elec       q    Type
                         _______ _______ _______ _____ _____    ______ ____

>  <TORSDO>
F 2

$$$$
=
 OpenBabel11112416553D

 31 35  0  0  1  0  0  0  0  0999 V2000
  190.8600  176.7310  147.5170 C   0  0  0  0  0  0  0  0  0  0  0  0
  188.6540  175.9430  144.4890 C   0  0  0  0  0  0  0  0  0  0  0  0
  187.4870  176.6180  144.6240 C   0  0  2  0  0  3  0  0  0  0  0  0
  186.1560  178.3790  145.6790 C   0  0  0  0  0  0  0  0  0  0  0  0
  189.7900  175.9800  145.4630 C   0  0  0  0  0  0  0  0  0  0  0  0
  191.9670  175.9260  147.2440 C   0  0  0  0  0  3  0  0  0  0  0  0
  187.2170  177.5690  145.7230 C   0  0  0  0  0  3  0  0  0  0  0  0
  189.9470  174.3990  143.0750 C   0  0  0  0  0  0  0  0  0  0  0  0
  190.8330  177.4870  148.6420 F   0  0  0  0  0  0  0  0  0  0  0  0
  186.7450  175.8110  142.3880 N   0  0  0  0  0  0  0  0  0  0  0  0
  185.8830  179.5130  146.9840 Cl  0  0  0  0  0  0  0  0  0  0  0  0
  190.9610  174.3890  144.0430 O   0  0  0  0  0  0  0  0  0  0  0  0
  188.8360  175.1300  143.2580 C   0  0  0  0  0  0  0  0  0  0  0  0
  189.7790  176.7550  146.6340 C   0  0  0  0  0  3  0  0  0  0  0  0
  185.2640  178.3920  144.5020 C   0  0  0  0  0  3  0  0  0  0  0  0
  190.9120  175.1720  145.1980 C   0  0  1  0  0  3  0  0  0  0  0  0
  191.9920  175.1470  146.0860 C   0  0  0  0  0  3  0  0  0  0  0  0
  187.8650  175.2290  142.2110 N   0  0  0  0  0  0  0  0  0  0  0  0
  186.3240  176.3090  143.6970 C   0  0  2  0  0  3  0  0  0  0  0  0
  185.3650  177.4590  143.5530 C   0  0  0  0  0  3  0  0  0  0  0  0
  189.5230  171.5410  142.7490 O   0  0  0  0  0  0  0  0  0  0  0  0
  189.8740  172.2260  141.7520 C   0  0  0  0  0  0  0  0  0  0  0  0
  190.0960  173.6360  141.8720 N   0  0  0  0  0  2  0  0  0  0  0  0
  191.7140  173.0020  138.5240 N   0  0  0  0  0  0  0  0  0  0  0  0
  191.5400  171.2020  140.1830 C   0  0  0  0  0  2  0  0  0  0  0  0
  188.1870  172.7690  139.5240 O   0  0  0  0  0  1  0  0  0  0  0  0
  192.5050  174.1660  138.1680 C   0  0  0  0  0  1  0  0  0  0  0  0
  192.3150  172.4420  139.7330 C   0  0  0  0  0  2  0  0  0  0  0  0
  189.4770  172.3170  139.2410 C   0  0  2  0  0  3  0  0  0  0  0  0
  190.0670  171.5390  140.4300 C   0  0  2  0  0  3  0  0  0  0  0  0
  190.3760  173.4890  138.8510 C   0  0  0  0  0  2  0  0  0  0  0  0
  1  9  1  0  0  0  0
  2  3  1  0  0  0  0
  2  5  2  0  0  0  0
  3  7  1  1  0  0  0
  4  7  2  0  0  0  0
  4 11  1  0  0  0  0
  5 14  1  0  0  0  0
  6  1  1  0  0  0  0
  8 13  2  0  0  0  0
  8 12  1  0  0  0  0
 10 19  1  0  0  0  0
 12 16  1  0  0  0  0
 13  2  1  0  0  0  0
 14  1  2  0  0  0  0
 15  4  1  0  0  0  0
 16  5  1  0  0  0  0
 16 17  1  6  0  0  0
 17  6  2  0  0  0  0
 18 10  2  0  0  0  0
 18 13  1  0  0  0  0
 19 20  1  6  0  0  0
 19  3  1  0  0  0  0
 20 15  2  0  0  0  0
 22 23  1  0  0  0  0
 22 21  2  0  0  0  0
 23  8  1  0  0  0  0
 24 31  1  0  0  0  0
 24 28  1  0  0  0  0
 25 30  1  0  0  0  0
 27 24  1  0  0  0  0
 28 25  1  0  0  0  0
 29 26  1  1  0  0  0
 29 30  1  0  0  0  0
 30 22  1  1  0  0  0
 31 29  1  0  0  0  0
M  END
>  <MODEL>
4

>  <REMARK>
 VINA RESULT:      -8.3      3.639      5.453
  Name = 
  2 active torsions:
  status: ('A' for Active; 'I' for Inactive)
    1  A    between atoms: C_5  and  C_30
    2  A    between atoms: C_10  and  N_16
                            x       y       z     vdW  Elec       q    Type
                         _______ _______ _______ _____ _____    ______ ____

>  <TORSDO>
F 2

$$$$
=
 OpenBabel11112416553D

 31 35  0  0  1  0  0  0  0  0999 V2000
  194.2050  175.4410  145.0850 C   0  0  0  0  0  0  0  0  0  0  0  0
  190.6270  175.5080  143.7250 C   0  0  0  0  0  0  0  0  0  0  0  0
  190.6160  174.8860  142.5210 C   0  0  2  0  0  3  0  0  0  0  0  0
  191.6770  173.4230  140.8710 C   0  0  0  0  0  0  0  0  0  0  0  0
  191.8350  175.6950  144.5880 C   0  0  0  0  0  0  0  0  0  0  0  0
  194.0410  176.1580  146.2720 C   0  0  0  0  0  3  0  0  0  0  0  0
  191.7990  174.2180  141.9370 C   0  0  0  0  0  3  0  0  0  0  0  0
  189.2670  176.6760  145.4100 C   0  0  0  0  0  0  0  0  0  0  0  0
  195.4280  174.9680  144.7430 F   0  0  0  0  0  0  0  0  0  0  0  0
  188.1440  175.1520  142.3880 N   0  0  0  0  0  0  0  0  0  0  0  0
  193.0940  172.6250  140.2230 Cl  0  0  0  0  0  0  0  0  0  0  0  0
  190.4290  176.9090  146.1610 O   0  0  0  0  0  0  0  0  0  0  0  0
  189.3300  176.0110  144.2460 C   0  0  0  0  0  0  0  0  0  0  0  0
  193.1100  175.2150  144.2490 C   0  0  0  0  0  2  0  0  0  0  0  0
  190.3500  173.1390  140.2890 C   0  0  0  0  0  3  0  0  0  0  0  0
  191.6810  176.4160  145.7880 C   0  0  0  0  0  0  0  0  0  0  0  0
  192.7800  176.6440  146.6220 C   0  0  0  0  0  3  0  0  0  0  0  0
  188.1240  175.6730  143.5510 N   0  0  0  0  0  0  0  0  0  0  0  0
  189.3850  174.9740  141.6360 C   0  0  2  0  0  3  0  0  0  0  0  0
  189.2700  173.8250  140.6720 C   0  0  0  0  0  3  0  0  0  0  0  0
  187.7410  175.5970  147.6370 O   0  0  0  0  0  0  0  0  0  0  0  0
  187.2800  176.5790  146.9960 C   0  0  0  0  0  0  0  0  0  0  0  0
  188.0000  177.1370  145.8910 N   0  0  0  0  0  2  0  0  0  0  0  0
  184.8110  179.0480  145.5070 N   0  0  0  0  0  0  0  0  0  0  0  0
  184.8480  176.7680  146.4150 C   0  0  0  0  0  2  0  0  0  0  0  0
  187.0860  179.0540  148.3900 O   0  0  0  0  0  1  0  0  0  0  0  0
  184.8840  179.7910  144.2630 C   0  0  0  0  0  1  0  0  0  0  0  0
  184.9170  177.6330  145.1550 C   0  0  0  0  0  2  0  0  0  0  0  0
  185.9830  178.6770  147.6220 C   0  0  2  0  0  3  0  0  0  0  0  0
  185.9530  177.1540  147.4030 C   0  0  2  0  0  3  0  0  0  0  0  0
  185.9860  179.4230  146.2890 C   0  0  0  0  0  2  0  0  0  0  0  0
  1  6  2  0  0  0  0
  2 13  1  0  0  0  0
  2  5  2  0  0  0  0
  3  7  1  6  0  0  0
  3  2  1  0  0  0  0
  4  7  2  0  0  0  0
  5 16  1  0  0  0  0
  6 17  1  0  0  0  0
  8 23  1  0  0  0  0
  8 12  1  0  0  0  0
  9  1  1  0  0  0  0
 10 18  2  0  0  0  0
 11  4  1  0  0  0  0
 13  8  2  0  0  0  0
 14  5  1  0  0  0  0
 14  1  1  0  0  0  0
 15 20  2  0  0  0  0
 15  4  1  0  0  0  0
 16 12  1  0  0  0  0
 16 17  2  0  0  0  0
 18 13  1  0  0  0  0
 19 20  1  1  0  0  0
 19 10  1  0  0  0  0
 19  3  1  0  0  0  0
 22 21  2  0  0  0  0
 23 22  1  0  0  0  0
 24 31  1  0  0  0  0
 25 30  1  0  0  0  0
 27 24  1  0  0  0  0
 28 24  1  0  0  0  0
 28 25  1  0  0  0  0
 29 26  1  6  0  0  0
 30 22  1  6  0  0  0
 30 29  1  0  0  0  0
 31 29  1  0  0  0  0
M  END
>  <MODEL>
5

>  <REMARK>
 VINA RESULT:      -8.3      3.792      7.150
  Name = 
  2 active torsions:
  status: ('A' for Active; 'I' for Inactive)
    1  A    between atoms: C_5  and  C_30
    2  A    between atoms: C_10  and  N_16
                            x       y       z     vdW  Elec       q    Type
                         _______ _______ _______ _____ _____    ______ ____

>  <TORSDO>
F 2

$$$$
=
 OpenBabel11112416553D

 31 35  0  0  1  0  0  0  0  0999 V2000
  185.2420  178.0350  140.7540 C   0  0  0  0  0  0  0  0  0  0  0  0
  187.3930  176.6220  143.5890 C   0  0  0  0  0  0  0  0  0  0  0  0
  186.8870  177.0600  144.7670 C   0  0  2  0  0  3  0  0  0  0  0  0
  185.0670  178.0570  146.0630 C   0  0  0  0  0  0  0  0  0  0  0  0
  186.8400  176.9510  142.2380 C   0  0  0  0  0  0  0  0  0  0  0  0
  185.9280  177.5410  139.6420 C   0  0  0  0  0  3  0  0  0  0  0  0
  185.6460  177.8560  144.8770 C   0  0  0  0  0  3  0  0  0  0  0  0
  189.1520  175.2750  142.5180 C   0  0  0  0  0  0  0  0  0  0  0  0
  184.1370  178.8000  140.5830 F   0  0  0  0  0  0  0  0  0  0  0  0
  188.5580  175.6930  146.0090 N   0  0  0  0  0  0  0  0  0  0  0  0
  183.5820  178.9790  146.1530 Cl  0  0  0  0  0  0  0  0  0  0  0  0
  188.6620  175.6640  141.2630 O   0  0  0  0  0  0  0  0  0  0  0  0
  188.5690  175.7150  143.6440 C   0  0  0  0  0  0  0  0  0  0  0  0
  185.6980  177.7440  142.0410 C   0  0  0  0  0  3  0  0  0  0  0  0
  185.6150  177.4350  147.2850 C   0  0  0  0  0  3  0  0  0  0  0  0
  187.5230  176.4580  141.1090 C   0  0  1  0  0  3  0  0  0  0  0  0
  187.0670  176.7540  139.8210 C   0  0  0  0  0  3  0  0  0  0  0  0
  189.0000  175.2140  144.9150 N   0  0  0  0  0  0  0  0  0  0  0  0
  187.6760  176.8590  146.0490 C   0  0  2  0  0  3  0  0  0  0  0  0
  186.8080  176.8360  147.2770 C   0  0  0  0  0  3  0  0  0  0  0  0
  191.9650  176.0050  142.4310 O   0  0  0  0  0  0  0  0  0  0  0  0
  191.6510  174.7920  142.5620 C   0  0  0  0  0  0  0  0  0  0  0  0
  190.2750  174.3920  142.6060 N   0  0  0  0  0  2  0  0  0  0  0  0
  191.8670  171.0130  142.2700 N   0  0  0  0  0  0  0  0  0  0  0  0
  192.9330  173.0180  141.3400 C   0  0  0  0  0  2  0  0  0  0  0  0
  192.2120  173.4420  145.0050 O   0  0  0  0  0  1  0  0  0  0  0  0
  190.8170  170.0450  142.0130 C   0  0  0  0  0  1  0  0  0  0  0  0
  191.8500  171.9540  141.1510 C   0  0  0  0  0  2  0  0  0  0  0  0
  192.5490  172.7750  143.8260 C   0  0  2  0  0  3  0  0  0  0  0  0
  192.7410  173.7650  142.6630 C   0  0  2  0  0  3  0  0  0  0  0  0
  191.4880  171.7290  143.4870 C   0  0  0  0  0  2  0  0  0  0  0  0
  1 14  2  0  0  0  0
  2 13  1  0  0  0  0
  2  3  1  0  0  0  0
  3  7  1  6  0  0  0
  3 19  1  0  0  0  0
  4 11  1  0  0  0  0
  4 15  1  0  0  0  0
  5  2  2  0  0  0  0
  6 17  2  0  0  0  0
  6  1  1  0  0  0  0
  7  4  2  0  0  0  0
  8 23  1  0  0  0  0
  8 13  2  0  0  0  0
  9  1  1  0  0  0  0
 10 19  1  0  0  0  0
 12  8  1  0  0  0  0
 13 18  1  0  0  0  0
 14  5  1  0  0  0  0
 16 17  1  1  0  0  0
 16 12  1  0  0  0  0
 16  5  1  0  0  0  0
 18 10  2  0  0  0  0
 19 20  1  1  0  0  0
 20 15  2  0  0  0  0
 21 22  2  0  0  0  0
 22 23  1  0  0  0  0
 24 31  1  0  0  0  0
 25 30  1  0  0  0  0
 27 24  1  0  0  0  0
 28 25  1  0  0  0  0
 28 24  1  0  0  0  0
 29 26  1  1  0  0  0
 30 22  1  6  0  0  0
 30 29  1  0  0  0  0
 31 29  1  0  0  0  0
M  END
>  <MODEL>
6

>  <REMARK>
 VINA RESULT:      -8.1      2.727      4.839
  Name = 
  2 active torsions:
  status: ('A' for Active; 'I' for Inactive)
    1  A    between atoms: C_5  and  C_30
    2  A    between atoms: C_10  and  N_16
                            x       y       z     vdW  Elec       q    Type
                         _______ _______ _______ _____ _____    ______ ____

>  <TORSDO>
F 2

$$$$
=
 OpenBabel11112416553D

 31 35  0  0  1  0  0  0  0  0999 V2000
  185.2290  177.9740  140.9230 C   0  0  0  0  0  0  0  0  0  0  0  0
  187.5020  176.5370  143.6480 C   0  0  0  0  0  0  0  0  0  0  0  0
  187.0160  176.9180  144.8550 C   0  0  2  0  0  3  0  0  0  0  0  0
  185.2020  177.8100  146.2330 C   0  0  0  0  0  0  0  0  0  0  0  0
  186.9020  176.8930  142.3250 C   0  0  0  0  0  0  0  0  0  0  0  0
  185.8980  177.5410  139.7770 C   0  0  0  0  0  3  0  0  0  0  0  0
  185.7540  177.6680  145.0250 C   0  0  0  0  0  3  0  0  0  0  0  0
  189.2720  175.2860  142.4850 C   0  0  0  0  0  0  0  0  0  0  0  0
  184.0960  178.7080  140.8090 F   0  0  0  0  0  0  0  0  0  0  0  0
  188.7630  175.5650  146.0030 N   0  0  0  0  0  0  0  0  0  0  0  0
  183.6910  178.6800  146.3950 Cl  0  0  0  0  0  0  0  0  0  0  0  0
  188.7350  175.7010  141.2570 O   0  0  0  0  0  0  0  0  0  0  0  0
  188.7070  175.6670  143.6410 C   0  0  0  0  0  0  0  0  0  0  0  0
  185.7300  177.6540  142.1870 C   0  0  0  0  0  3  0  0  0  0  0  0
  185.8030  177.1660  147.4180 C   0  0  0  0  0  3  0  0  0  0  0  0
  187.5680  176.4610  141.1620 C   0  0  1  0  0  3  0  0  0  0  0  0
  187.0660  176.7860  139.8980 C   0  0  0  0  0  3  0  0  0  0  0  0
  189.1900  175.1380  144.8810 N   0  0  0  0  0  0  0  0  0  0  0  0
  187.8470  176.7000  146.1070 C   0  0  2  0  0  3  0  0  0  0  0  0
  187.0140  176.6070  147.3560 C   0  0  0  0  0  3  0  0  0  0  0  0
  189.3760  172.4520  141.8410 O   0  0  0  0  0  0  0  0  0  0  0  0
  190.4350  173.0420  142.1840 C   0  0  0  0  0  0  0  0  0  0  0  0
  190.4250  174.4370  142.5120 N   0  0  0  0  0  2  0  0  0  0  0  0
  193.8010  173.4660  143.8880 N   0  0  0  0  0  0  0  0  0  0  0  0
  192.0140  171.7970  143.6810 C   0  0  0  0  0  2  0  0  0  0  0  0
  192.6060  173.5630  140.4160 O   0  0  0  0  0  1  0  0  0  0  0  0
  194.2770  174.5420  144.7380 C   0  0  0  0  0  1  0  0  0  0  0  0
  192.5880  172.9440  144.5150 C   0  0  0  0  0  2  0  0  0  0  0  0
  192.9230  172.9980  141.6530 C   0  0  2  0  0  3  0  0  0  0  0  0
  191.7140  172.2580  142.2520 C   0  0  2  0  0  3  0  0  0  0  0  0
  193.4390  174.0720  142.6080 C   0  0  0  0  0  2  0  0  0  0  0  0
  1 14  2  0  0  0  0
  2  3  1  0  0  0  0
  3  7  1  6  0  0  0
  3 19  1  0  0  0  0
  4 11  1  0  0  0  0
  4 15  1  0  0  0  0
  5  2  2  0  0  0  0
  6 17  2  0  0  0  0
  6  1  1  0  0  0  0
  7  4  2  0  0  0  0
  8 23  1  0  0  0  0
  8 13  2  0  0  0  0
  9  1  1  0  0  0  0
 10 19  1  0  0  0  0
 12  8  1  0  0  0  0
 13  2  1  0  0  0  0
 13 18  1  0  0  0  0
 14  5  1  0  0  0  0
 16 17  1  6  0  0  0
 16 12  1  0  0  0  0
 16  5  1  0  0  0  0
 18 10  2  0  0  0  0
 19 20  1  1  0  0  0
 20 15  2  0  0  0  0
 21 22  2  0  0  0  0
 22 23  1  0  0  0  0
 24 28  1  0  0  0  0
 24 27  1  0  0  0  0
 25 28  1  0  0  0  0
 29 26  1  6  0  0  0
 29 30  1  0  0  0  0
 29 31  1  0  0  0  0
 30 22  1  1  0  0  0
 30 25  1  0  0  0  0
 31 24  1  0  0  0  0
M  END
>  <MODEL>
7

>  <REMARK>
 VINA RESULT:      -8.1      2.533      4.657
  Name = 
  2 active torsions:
  status: ('A' for Active; 'I' for Inactive)
    1  A    between atoms: C_5  and  C_30
    2  A    between atoms: C_10  and  N_16
                            x       y       z     vdW  Elec       q    Type
                         _______ _______ _______ _____ _____    ______ ____

>  <TORSDO>
F 2

$$$$
=
 OpenBabel11112416553D

 31 35  0  0  1  0  0  0  0  0999 V2000
  186.1890  178.6620  144.6390 C   0  0  0  0  0  0  0  0  0  0  0  0
  188.9180  175.9780  144.5350 C   0  0  0  0  0  0  0  0  0  0  0  0
  189.8080  176.2350  145.5240 C   0  0  2  0  0  3  0  0  0  0  0  0
  190.4120  177.3830  147.5980 C   0  0  0  0  0  0  0  0  0  0  0  0
  187.7000  176.7940  144.2360 C   0  0  0  0  0  0  0  0  0  0  0  0
  185.4130  178.2800  143.5430 C   0  0  0  0  0  3  0  0  0  0  0  0
  189.6380  177.3210  146.5120 C   0  0  0  0  0  3  0  0  0  0  0  0
  188.3360  174.4710  142.6780 C   0  0  0  0  0  0  0  0  0  0  0  0
  185.8420  179.7490  145.3690 F   0  0  0  0  0  0  0  0  0  0  0  0
  191.0490  174.1480  144.9700 N   0  0  0  0  0  0  0  0  0  0  0  0
  190.1640  178.6660  148.7630 Cl  0  0  0  0  0  0  0  0  0  0  0  0
  187.2470  175.2990  142.3700 O   0  0  0  0  0  0  0  0  0  0  0  0
  189.1490  174.7670  143.7040 C   0  0  0  0  0  0  0  0  0  0  0  0
  187.3260  177.9250  144.9800 C   0  0  0  0  0  3  0  0  0  0  0  0
  191.4120  176.3320  147.8730 C   0  0  0  0  0  3  0  0  0  0  0  0
  186.9090  176.4190  143.1340 C   0  0  1  0  0  3  0  0  0  0  0  0
  185.7730  177.1600  142.7920 C   0  0  0  0  0  3  0  0  0  0  0  0
  190.1820  173.8510  144.0840 N   0  0  0  0  0  0  0  0  0  0  0  0
  191.1250  175.4790  145.5700 C   0  0  2  0  0  3  0  0  0  0  0  0
  191.7170  175.4150  146.9510 C   0  0  0  0  0  3  0  0  0  0  0  0
  190.2370  174.1650  140.5000 O   0  0  0  0  0  0  0  0  0  0  0  0
  189.5300  173.1790  140.8390 C   0  0  0  0  0  0  0  0  0  0  0  0
  188.5790  173.2900  141.9050 N   0  0  0  0  0  2  0  0  0  0  0  0
  191.7640  171.8910  138.0530 N   0  0  0  0  0  0  0  0  0  0  0  0
  191.0800  171.2760  140.3290 C   0  0  0  0  0  2  0  0  0  0  0  0
  188.1910  172.6820  138.3760 O   0  0  0  0  0  1  0  0  0  0  0  0
  192.8050  172.5780  137.3120 C   0  0  0  0  0  1  0  0  0  0  0  0
  192.1300  171.9800  139.4660 C   0  0  0  0  0  2  0  0  0  0  0  0
  189.3810  171.9850  138.5980 C   0  0  2  0  0  3  0  0  0  0  0  0
  189.6910  171.8820  140.1010 C   0  0  2  0  0  3  0  0  0  0  0  0
  190.5320  172.6470  137.8420 C   0  0  0  0  0  2  0  0  0  0  0  0
  1 14  2  0  0  0  0
  1  9  1  0  0  0  0
  2  3  1  0  0  0  0
  3 19  1  0  0  0  0
  3  7  1  6  0  0  0
  4 15  1  0  0  0  0
  4 11  1  0  0  0  0
  5  2  2  0  0  0  0
  5 14  1  0  0  0  0
  6  1  1  0  0  0  0
  7  4  2  0  0  0  0
  8 13  2  0  0  0  0
 10 19  1  0  0  0  0
 12  8  1  0  0  0  0
 12 16  1  0  0  0  0
 13 18  1  0  0  0  0
 13  2  1  0  0  0  0
 16 17  1  1  0  0  0
 16  5  1  0  0  0  0
 17  6  2  0  0  0  0
 18 10  2  0  0  0  0
 19 20  1  1  0  0  0
 20 15  2  0  0  0  0
 21 22  2  0  0  0  0
 22 23  1  0  0  0  0
 23  8  1  0  0  0  0
 24 28  1  0  0  0  0
 27 24  1  0  0  0  0
 28 25  1  0  0  0  0
 29 26  1  1  0  0  0
 29 30  1  0  0  0  0
 30 25  1  0  0  0  0
 30 22  1  6  0  0  0
 31 24  1  0  0  0  0
 31 29  1  0  0  0  0
M  END
>  <MODEL>
8

>  <REMARK>
 VINA RESULT:      -8.0      3.981      5.922
  Name = 
  2 active torsions:
  status: ('A' for Active; 'I' for Inactive)
    1  A    between atoms: C_5  and  C_30
    2  A    between atoms: C_10  and  N_16
                            x       y       z     vdW  Elec       q    Type
                         _______ _______ _______ _____ _____    ______ ____

>  <TORSDO>
F 2

$$$$
=
 OpenBabel11112416553D

 31 35  0  0  1  0  0  0  0  0999 V2000
  186.4910  176.8200  141.1380 C   0  0  0  0  0  0  0  0  0  0  0  0
  187.8720  176.6540  144.7060 C   0  0  0  0  0  0  0  0  0  0  0  0
  187.0290  177.3330  145.5210 C   0  0  2  0  0  3  0  0  0  0  0  0
  184.8540  178.3690  145.9490 C   0  0  0  0  0  0  0  0  0  0  0  0
  187.6920  176.4820  143.2300 C   0  0  0  0  0  0  0  0  0  0  0  0
  187.4920  176.1360  140.4450 C   0  0  0  0  0  3  0  0  0  0  0  0
  185.7510  177.9220  145.0670 C   0  0  0  0  0  3  0  0  0  0  0  0
  189.9510  175.3450  144.5830 C   0  0  0  0  0  0  0  0  0  0  0  0
  185.4240  177.3190  140.4690 F   0  0  0  0  0  0  0  0  0  0  0  0
  188.3850  176.6690  147.5010 N   0  0  0  0  0  0  0  0  0  0  0  0
  183.3390  179.0340  145.3760 Cl  0  0  0  0  0  0  0  0  0  0  0  0
  189.8000  175.2670  143.1910 O   0  0  0  0  0  0  0  0  0  0  0  0
  189.0490  175.9980  145.3320 C   0  0  0  0  0  0  0  0  0  0  0  0
  186.5930  176.9940  142.5200 C   0  0  0  0  0  3  0  0  0  0  0  0
  185.0860  178.2260  147.4000 C   0  0  0  0  0  3  0  0  0  0  0  0
  188.6940  175.7930  142.5200 C   0  0  1  0  0  3  0  0  0  0  0  0
  188.5910  175.6230  141.1360 C   0  0  0  0  0  3  0  0  0  0  0  0
  189.1470  175.9650  146.7600 N   0  0  0  0  0  0  0  0  0  0  0  0
  187.4450  177.6430  146.9490 C   0  0  2  0  0  3  0  0  0  0  0  0
  186.2750  177.8450  147.8720 C   0  0  0  0  0  3  0  0  0  0  0  0
  192.7420  176.1440  144.4210 O   0  0  0  0  0  0  0  0  0  0  0  0
  192.4310  175.1400  145.1160 C   0  0  0  0  0  0  0  0  0  0  0  0
  191.0670  174.7120  145.2190 N   0  0  0  0  0  2  0  0  0  0  0  0
  196.0360  174.2030  144.3830 N   0  0  0  0  0  0  0  0  0  0  0  0
  194.7140  175.2910  146.1420 C   0  0  0  0  0  2  0  0  0  0  0  0
  192.8710  172.3620  144.6730 O   0  0  0  0  0  1  0  0  0  0  0  0
  196.8430  174.4860  143.2110 C   0  0  0  0  0  1  0  0  0  0  0  0
  195.5790  175.4940  144.8960 C   0  0  0  0  0  2  0  0  0  0  0  0
  193.9680  173.1120  145.1020 C   0  0  2  0  0  3  0  0  0  0  0  0
  193.5160  174.3880  145.8330 C   0  0  2  0  0  3  0  0  0  0  0  0
  194.8740  173.4480  143.9190 C   0  0  0  0  0  2  0  0  0  0  0  0
  1 14  2  0  0  0  0
  2 13  1  0  0  0  0
  2  3  1  0  0  0  0
  3  7  1  6  0  0  0
  3 19  1  0  0  0  0
  4 15  1  0  0  0  0
  5  2  2  0  0  0  0
  6 17  2  0  0  0  0
  6  1  1  0  0  0  0
  7  4  2  0  0  0  0
  8 23  1  0  0  0  0
  8 13  2  0  0  0  0
  9  1  1  0  0  0  0
 11  4  1  0  0  0  0
 12  8  1  0  0  0  0
 13 18  1  0  0  0  0
 14  5  1  0  0  0  0
 15 20  2  0  0  0  0
 16 17  1  1  0  0  0
 16 12  1  0  0  0  0
 16  5  1  0  0  0  0
 18 10  2  0  0  0  0
 19 10  1  0  0  0  0
 19 20  1  1  0  0  0
 21 22  2  0  0  0  0
 22 23  1  0  0  0  0
 24 28  1  0  0  0  0
 27 24  1  0  0  0  0
 28 25  1  0  0  0  0
 29 26  1  6  0  0  0
 29 30  1  0  0  0  0
 30 22  1  6  0  0  0
 30 25  1  0  0  0  0
 31 24  1  0  0  0  0
 31 29  1  0  0  0  0
M  END
>  <MODEL>
9

>  <REMARK>
 VINA RESULT:      -7.9      2.094      4.097
  Name = 
  2 active torsions:
  status: ('A' for Active; 'I' for Inactive)
    1  A    between atoms: C_5  and  C_30
    2  A    between atoms: C_10  and  N_16
                            x       y       z     vdW  Elec       q    Type
                         _______ _______ _______ _____ _____    ______ ____

>  <TORSDO>
F 2

$$$$
