=
 OpenBabel11112417593D

 34 40  0  0  1  0  0  0  0  0999 V2000
  189.8360  177.0280  146.3720 C   0  0  0  0  0  0  0  0  0  0  0  0
  187.2510  177.5460  146.4470 C   0  0  0  0  0  2  0  0  0  0  0  0
  195.5680  176.2440  143.2160 C   0  0  2  0  0  3  0  0  0  0  0  0
  192.2170  176.5230  146.1160 C   0  0  0  0  0  0  0  0  0  0  0  0
  193.0990  176.1050  143.8770 C   0  0  0  0  0  0  0  0  0  0  0  0
  193.7850  176.0610  141.5870 O   0  0  0  0  0  1  0  0  0  0  0  0
  196.4420  176.4200  141.9840 C   0  0  0  0  0  1  0  0  0  0  0  0
  195.4510  174.8830  145.3710 C   0  0  0  0  0  2  0  0  0  0  0  0
  188.3490  177.0590  144.4490 C   0  0  0  0  0  0  0  0  0  0  0  0
  186.8990  177.2540  141.6350 C   0  0  0  0  0  2  0  0  0  0  0  0
  191.8390  176.2790  143.3860 N   0  0  0  0  0  0  0  0  0  0  0  0
  194.6740  176.0630  145.9240 C   0  0  0  0  0  2  0  0  0  0  0  0
  189.4630  176.7700  143.5750 N   0  0  0  0  0  0  0  0  0  0  0  0
  186.2680  177.7860  145.3030 C   0  0  0  0  0  2  0  0  0  0  0  0
  193.3130  176.2020  145.2850 C   0  0  0  0  0  0  0  0  0  0  0  0
  196.3040  175.3170  144.1830 C   0  0  0  0  0  2  0  0  0  0  0  0
  186.8310  178.0770  142.8490 N   0  0  0  0  0  0  0  0  0  0  0  0
  190.9380  176.7080  145.5520 C   0  0  0  0  0  0  0  0  0  0  0  0
  194.1720  175.6920  142.8810 C   0  0  1  0  0  3  0  0  0  0  0  0
  190.7670  176.5800  144.1650 C   0  0  0  0  0  0  0  0  0  0  0  0
  191.2760  176.9810  148.3180 C   0  0  0  0  0  3  0  0  0  0  0  0
  188.0790  176.2750  141.5990 C   0  0  0  0  0  2  0  0  0  0  0  0
  192.3680  176.6630  147.5070 C   0  0  0  0  0  3  0  0  0  0  0  0
  189.3560  176.9120  142.1220 C   0  0  0  0  0  2  0  0  0  0  0  0
  186.9230  177.2060  144.0340 C   0  0  1  0  0  3  0  0  0  0  0  0
  190.0110  177.1630  147.7530 C   0  0  0  0  0  3  0  0  0  0  0  0
  188.5130  177.2030  145.7490 C   0  0  0  0  0  0  0  0  0  0  0  0
  185.5270  178.7280  142.7790 C   0  0  0  0  0  2  0  0  0  0  0  0
  184.8390  178.3480  141.4800 C   0  0  0  0  0  2  0  0  0  0  0  0
  181.4070  179.0030  142.3690 C   0  0  0  0  0  2  0  0  0  0  0  0
  182.5700  178.1020  140.4690 C   0  0  0  0  0  2  0  0  0  0  0  0
  183.3860  177.9880  141.7400 C   0  0  2  0  0  3  0  0  0  0  0  0
  181.2730  178.7490  140.8840 C   0  0  0  0  0  2  0  0  0  0  0  0
  182.8180  178.9100  142.7100 N   0  0  0  0  0  2  0  0  0  0  0  0
  1 26  1  0  0  0  0
  3  7  1  6  0  0  0
  3 16  1  0  0  0  0
  4 23  2  0  0  0  0
  5 15  2  0  0  0  0
  8 12  1  0  0  0  0
  9 27  2  0  0  0  0
 10 17  1  0  0  0  0
 11  5  1  0  0  0  0
 11 20  2  0  0  0  0
 13 20  1  0  0  0  0
 13  9  1  0  0  0  0
 14  2  1  0  0  0  0
 15 12  1  0  0  0  0
 15  4  1  0  0  0  0
 16  8  1  0  0  0  0
 17 25  1  0  0  0  0
 18  4  1  0  0  0  0
 18  1  2  0  0  0  0
 19  6  1  6  0  0  0
 19  3  1  0  0  0  0
 19  5  1  0  0  0  0
 20 18  1  0  0  0  0
 22 10  1  0  0  0  0
 22 24  1  0  0  0  0
 23 21  1  0  0  0  0
 24 13  1  0  0  0  0
 25  9  1  0  0  0  0
 25 14  1  1  0  0  0
 26 21  2  0  0  0  0
 27  1  1  0  0  0  0
 27  2  1  0  0  0  0
 28 17  1  0  0  0  0
 29 28  1  0  0  0  0
 30 34  1  0  0  0  0
 31 33  1  0  0  0  0
 31 32  1  0  0  0  0
 32 29  1  6  0  0  0
 32 34  1  0  0  0  0
 33 30  1  0  0  0  0
M  END
>  <MODEL>
1

>  <REMARK>
 VINA RESULT:      -8.8      0.000      0.000
  Name = 
  3 active torsions:
  status: ('A' for Active; 'I' for Inactive)
    1  A    between atoms: N_17  and  C_28
    2  A    between atoms: C_28  and  C_29
    3  A    between atoms: C_29  and  C_32
                            x       y       z     vdW  Elec       q    Type
                         _______ _______ _______ _____ _____    ______ ____

>  <TORSDO>
F 3

$$$$
=
 OpenBabel11112417593D

 34 40  0  0  1  0  0  0  0  0999 V2000
  190.1940  176.2770  146.1900 C   0  0  0  0  0  0  0  0  0  0  0  0
  187.5650  176.4120  146.3620 C   0  0  0  0  0  2  0  0  0  0  0  0
  195.8540  176.2560  142.8140 C   0  0  2  0  0  3  0  0  0  0  0  0
  192.6110  176.1190  145.8460 C   0  0  0  0  0  0  0  0  0  0  0  0
  193.4590  175.7740  143.5810 C   0  0  0  0  0  0  0  0  0  0  0  0
  194.0560  175.7690  141.2660 O   0  0  0  0  0  1  0  0  0  0  0  0
  196.6450  176.5250  141.5430 C   0  0  0  0  0  1  0  0  0  0  0  0
  196.0210  174.9520  145.0010 C   0  0  0  0  0  2  0  0  0  0  0  0
  188.6460  176.0380  144.3310 C   0  0  0  0  0  0  0  0  0  0  0  0
  187.0770  175.9410  141.5770 C   0  0  0  0  0  2  0  0  0  0  0  0
  192.1690  175.7490  143.1400 N   0  0  0  0  0  0  0  0  0  0  0  0
  195.1010  176.0190  145.5610 C   0  0  0  0  0  2  0  0  0  0  0  0
  189.7560  175.8910  143.4180 N   0  0  0  0  0  0  0  0  0  0  0  0
  186.5150  176.4750  145.2560 C   0  0  0  0  0  2  0  0  0  0  0  0
  193.7100  175.9400  144.9760 C   0  0  0  0  0  0  0  0  0  0  0  0
  196.7550  175.4730  143.7690 C   0  0  0  0  0  2  0  0  0  0  0  0
  186.9340  176.7780  142.7750 N   0  0  0  0  0  0  0  0  0  0  0  0
  191.2990  176.1000  145.3320 C   0  0  0  0  0  0  0  0  0  0  0  0
  194.5420  175.4960  142.5500 C   0  0  1  0  0  3  0  0  0  0  0  0
  191.0960  175.9100  143.9560 C   0  0  0  0  0  0  0  0  0  0  0  0
  191.6980  176.4940  148.0750 C   0  0  0  0  0  3  0  0  0  0  0  0
  188.3850  175.1450  141.5120 C   0  0  0  0  0  2  0  0  0  0  0  0
  192.7940  176.3180  147.2260 C   0  0  0  0  0  3  0  0  0  0  0  0
  189.5730  175.9760  141.9680 C   0  0  0  0  0  2  0  0  0  0  0  0
  187.1990  175.9620  143.9730 C   0  0  1  0  0  3  0  0  0  0  0  0
  190.4000  176.4730  147.5600 C   0  0  0  0  0  3  0  0  0  0  0  0
  188.8360  176.2390  145.6200 C   0  0  0  0  0  0  0  0  0  0  0  0
  185.5470  177.2290  142.7460 C   0  0  0  0  0  2  0  0  0  0  0  0
  185.5050  178.7280  142.5080 C   0  0  0  0  0  2  0  0  0  0  0  0
  183.8540  178.9230  145.7060 C   0  0  0  0  0  2  0  0  0  0  0  0
  185.9170  179.7170  144.7620 C   0  0  0  0  0  2  0  0  0  0  0  0
  184.8770  179.4330  143.6970 C   0  0  2  0  0  3  0  0  0  0  0  0
  185.2420  179.3990  146.0730 C   0  0  0  0  0  2  0  0  0  0  0  0
  183.8610  178.5810  144.2920 N   0  0  0  0  0  2  0  0  0  0  0  0
  1 26  1  0  0  0  0
  3  7  1  6  0  0  0
  3 16  1  0  0  0  0
  4 23  2  0  0  0  0
  5 15  2  0  0  0  0
  8 12  1  0  0  0  0
  9 27  2  0  0  0  0
 10 17  1  0  0  0  0
 11  5  1  0  0  0  0
 11 20  2  0  0  0  0
 13 20  1  0  0  0  0
 13  9  1  0  0  0  0
 14  2  1  0  0  0  0
 15 12  1  0  0  0  0
 15  4  1  0  0  0  0
 16  8  1  0  0  0  0
 17 25  1  0  0  0  0
 18  4  1  0  0  0  0
 18  1  2  0  0  0  0
 19  6  1  6  0  0  0
 19  3  1  0  0  0  0
 19  5  1  0  0  0  0
 20 18  1  0  0  0  0
 22 10  1  0  0  0  0
 22 24  1  0  0  0  0
 23 21  1  0  0  0  0
 24 13  1  0  0  0  0
 25  9  1  0  0  0  0
 25 14  1  1  0  0  0
 26 21  2  0  0  0  0
 27  1  1  0  0  0  0
 27  2  1  0  0  0  0
 28 17  1  0  0  0  0
 29 28  1  0  0  0  0
 30 33  1  0  0  0  0
 31 33  1  0  0  0  0
 32 29  1  6  0  0  0
 32 34  1  0  0  0  0
 32 31  1  0  0  0  0
 34 30  1  0  0  0  0
M  END
>  <MODEL>
2

>  <REMARK>
 VINA RESULT:      -8.8      1.527      1.948
  Name = 
  3 active torsions:
  status: ('A' for Active; 'I' for Inactive)
    1  A    between atoms: N_17  and  C_28
    2  A    between atoms: C_28  and  C_29
    3  A    between atoms: C_29  and  C_32
                            x       y       z     vdW  Elec       q    Type
                         _______ _______ _______ _____ _____    ______ ____

>  <TORSDO>
F 3

$$$$
=
 OpenBabel11112417593D

 34 40  0  0  1  0  0  0  0  0999 V2000
  189.6750  175.2800  142.8050 C   0  0  0  0  0  0  0  0  0  0  0  0
  191.9000  174.1940  141.8960 C   0  0  0  0  0  2  0  0  0  0  0  0
  186.2640  178.9380  147.0970 C   0  0  2  0  0  3  0  0  0  0  0  0
  187.7000  176.3200  143.8100 C   0  0  0  0  0  0  0  0  0  0  0  0
  187.8690  177.2270  146.0720 C   0  0  0  0  0  0  0  0  0  0  0  0
  188.3630  178.3250  148.1380 O   0  0  0  0  0  1  0  0  0  0  0  0
  186.2060  179.9640  148.2180 C   0  0  0  0  0  1  0  0  0  0  0  0
  184.8280  177.1370  145.9990 C   0  0  0  0  0  2  0  0  0  0  0  0
  191.7580  175.0920  144.0430 C   0  0  0  0  0  0  0  0  0  0  0  0
  194.2870  175.3390  145.9400 C   0  0  0  0  0  2  0  0  0  0  0  0
  189.1660  176.8090  146.1050 N   0  0  0  0  0  0  0  0  0  0  0  0
  185.6530  177.4160  144.7560 C   0  0  0  0  0  2  0  0  0  0  0  0
  191.1620  175.7830  145.1630 N   0  0  0  0  0  0  0  0  0  0  0  0
  193.3040  174.1950  142.4960 C   0  0  0  0  0  2  0  0  0  0  0  0
  187.0860  176.9630  144.9070 C   0  0  0  0  0  0  0  0  0  0  0  0
  184.8680  178.3320  146.9450 C   0  0  0  0  0  2  0  0  0  0  0  0
  194.1040  175.5320  144.4960 N   0  0  0  0  0  0  0  0  0  0  0  0
  189.0510  175.9240  143.8930 C   0  0  0  0  0  0  0  0  0  0  0  0
  187.3130  177.8410  147.3480 C   0  0  1  0  0  3  0  0  0  0  0  0
  189.7770  176.1820  145.0670 C   0  0  0  0  0  0  0  0  0  0  0  0
  187.6110  175.4220  141.5460 C   0  0  0  0  0  3  0  0  0  0  0  0
  192.9820  175.2710  146.7410 C   0  0  0  0  0  2  0  0  0  0  0  0
  186.9920  176.0590  142.6240 C   0  0  0  0  0  3  0  0  0  0  0  0
  191.9740  176.3040  146.2640 C   0  0  0  0  0  2  0  0  0  0  0  0
  193.1420  174.5360  143.9900 C   0  0  1  0  0  3  0  0  0  0  0  0
  188.9500  175.0320  141.6350 C   0  0  0  0  0  3  0  0  0  0  0  0
  191.0840  174.8710  142.9320 C   0  0  0  0  0  0  0  0  0  0  0  0
  195.4290  175.3160  143.9250 C   0  0  0  0  0  2  0  0  0  0  0  0
  196.1370  176.6490  143.7660 C   0  0  0  0  0  2  0  0  0  0  0  0
  197.8340  175.2550  140.9070 C   0  0  0  0  0  2  0  0  0  0  0  0
  195.9130  176.6500  141.2810 C   0  0  0  0  0  2  0  0  0  0  0  0
  196.8820  176.6960  142.4440 C   0  0  2  0  0  3  0  0  0  0  0  0
  196.5430  175.7220  140.2730 C   0  0  0  0  0  2  0  0  0  0  0  0
  197.7570  175.5410  142.3320 N   0  0  0  0  0  2  0  0  0  0  0  0
  1 27  1  0  0  0  0
  1 18  1  0  0  0  0
  2 14  1  0  0  0  0
  2 27  1  0  0  0  0
  3 19  1  0  0  0  0
  3  7  1  1  0  0  0
  4 18  2  0  0  0  0
  4 15  1  0  0  0  0
  5 11  1  0  0  0  0
  5 19  1  0  0  0  0
  8 16  1  0  0  0  0
  9 13  1  0  0  0  0
 10 22  1  0  0  0  0
 12 15  1  0  0  0  0
 12  8  1  0  0  0  0
 13 24  1  0  0  0  0
 15  5  2  0  0  0  0
 16  3  1  0  0  0  0
 17 10  1  0  0  0  0
 18 20  1  0  0  0  0
 19  6  1  6  0  0  0
 20 13  1  0  0  0  0
 20 11  2  0  0  0  0
 21 26  1  0  0  0  0
 21 23  2  0  0  0  0
 23  4  1  0  0  0  0
 24 22  1  0  0  0  0
 25 14  1  6  0  0  0
 25  9  1  0  0  0  0
 25 17  1  0  0  0  0
 26  1  2  0  0  0  0
 27  9  2  0  0  0  0
 28 17  1  0  0  0  0
 29 28  1  0  0  0  0
 30 34  1  0  0  0  0
 31 32  1  0  0  0  0
 32 29  1  1  0  0  0
 33 30  1  0  0  0  0
 33 31  1  0  0  0  0
 34 32  1  0  0  0  0
M  END
>  <MODEL>
3

>  <REMARK>
 VINA RESULT:      -8.6      3.099      9.175
  Name = 
  3 active torsions:
  status: ('A' for Active; 'I' for Inactive)
    1  A    between atoms: N_17  and  C_28
    2  A    between atoms: C_28  and  C_29
    3  A    between atoms: C_29  and  C_32
                            x       y       z     vdW  Elec       q    Type
                         _______ _______ _______ _____ _____    ______ ____

>  <TORSDO>
F 3

$$$$
=
 OpenBabel11112417593D

 34 40  0  0  1  0  0  0  0  0999 V2000
  192.2230  176.0230  145.4500 C   0  0  0  0  0  0  0  0  0  0  0  0
  190.0680  177.5370  145.5710 C   0  0  0  0  0  2  0  0  0  0  0  0
  195.9530  171.3440  142.6870 C   0  0  2  0  0  3  0  0  0  0  0  0
  194.1310  174.5080  145.2150 C   0  0  0  0  0  0  0  0  0  0  0  0
  193.9660  172.6380  143.6520 C   0  0  0  0  0  0  0  0  0  0  0  0
  193.6970  171.1000  141.8410 O   0  0  0  0  0  1  0  0  0  0  0  0
  196.3070  170.4490  141.5100 C   0  0  0  0  0  1  0  0  0  0  0  0
  196.3420  171.5390  145.2010 C   0  0  0  0  0  2  0  0  0  0  0  0
  190.1710  175.6550  144.2010 C   0  0  0  0  0  0  0  0  0  0  0  0
  187.8520  174.9170  142.1670 C   0  0  0  0  0  2  0  0  0  0  0  0
  192.6960  173.0400  143.3610 N   0  0  0  0  0  0  0  0  0  0  0  0
  196.1420  173.0280  144.9890 C   0  0  0  0  0  2  0  0  0  0  0  0
  190.7640  174.5060  143.5540 N   0  0  0  0  0  0  0  0  0  0  0  0
  188.8120  177.5230  144.7020 C   0  0  0  0  0  2  0  0  0  0  0  0
  194.7170  173.3670  144.6230 C   0  0  0  0  0  0  0  0  0  0  0  0
  196.7560  170.8650  143.8970 C   0  0  0  0  0  2  0  0  0  0  0  0
  188.4510  176.1950  142.5730 N   0  0  0  0  0  0  0  0  0  0  0  0
  192.8190  174.8860  144.8650 C   0  0  0  0  0  0  0  0  0  0  0  0
  194.4460  171.3530  142.9970 C   0  0  1  0  0  3  0  0  0  0  0  0
  192.1080  174.1270  143.9230 C   0  0  0  0  0  0  0  0  0  0  0  0
  194.2390  176.4110  146.7340 C   0  0  0  0  0  3  0  0  0  0  0  0
  188.6560  173.6800  142.5820 C   0  0  0  0  0  2  0  0  0  0  0  0
  194.8300  175.2850  146.1560 C   0  0  0  0  0  3  0  0  0  0  0  0
  190.1490  173.8850  142.3790 C   0  0  0  0  0  2  0  0  0  0  0  0
  188.7750  176.1460  144.0100 C   0  0  1  0  0  3  0  0  0  0  0  0
  192.9380  176.7810  146.3830 C   0  0  0  0  0  3  0  0  0  0  0  0
  190.8460  176.3810  145.0680 C   0  0  0  0  0  0  0  0  0  0  0  0
  187.4160  177.1880  142.3050 C   0  0  0  0  0  2  0  0  0  0  0  0
  186.0540  176.6070  142.6430 C   0  0  0  0  0  2  0  0  0  0  0  0
  184.9980  178.7780  145.3190 C   0  0  0  0  0  2  0  0  0  0  0  0
  185.7260  179.0480  143.0450 C   0  0  0  0  0  2  0  0  0  0  0  0
  185.1820  177.6590  143.3050 C   0  0  2  0  0  3  0  0  0  0  0  0
  185.5910  179.7820  144.3550 C   0  0  0  0  0  2  0  0  0  0  0  0
  185.1740  177.4530  144.7450 N   0  0  0  0  0  2  0  0  0  0  0  0
  1 26  1  0  0  0  0
  3  7  1  6  0  0  0
  3 19  1  0  0  0  0
  3 16  1  0  0  0  0
  4 23  2  0  0  0  0
  5 15  2  0  0  0  0
  9 27  2  0  0  0  0
 10 17  1  0  0  0  0
 10 22  1  0  0  0  0
 11  5  1  0  0  0  0
 11 20  2  0  0  0  0
 12  8  1  0  0  0  0
 13 20  1  0  0  0  0
 13  9  1  0  0  0  0
 14  2  1  0  0  0  0
 15 12  1  0  0  0  0
 15  4  1  0  0  0  0
 16  8  1  0  0  0  0
 17 25  1  0  0  0  0
 18  4  1  0  0  0  0
 18  1  2  0  0  0  0
 19  6  1  6  0  0  0
 19  5  1  0  0  0  0
 20 18  1  0  0  0  0
 23 21  1  0  0  0  0
 24 22  1  0  0  0  0
 24 13  1  0  0  0  0
 25  9  1  0  0  0  0
 25 14  1  6  0  0  0
 26 21  2  0  0  0  0
 27  1  1  0  0  0  0
 27  2  1  0  0  0  0
 28 17  1  0  0  0  0
 28 29  1  0  0  0  0
 31 32  1  0  0  0  0
 31 33  1  0  0  0  0
 32 29  1  6  0  0  0
 32 34  1  0  0  0  0
 33 30  1  0  0  0  0
 34 30  1  0  0  0  0
M  END
>  <MODEL>
4

>  <REMARK>
 VINA RESULT:      -8.5      2.508      3.499
  Name = 
  3 active torsions:
  status: ('A' for Active; 'I' for Inactive)
    1  A    between atoms: N_17  and  C_28
    2  A    between atoms: C_28  and  C_29
    3  A    between atoms: C_29  and  C_32
                            x       y       z     vdW  Elec       q    Type
                         _______ _______ _______ _____ _____    ______ ____

>  <TORSDO>
F 3

$$$$
=
 OpenBabel11112417593D

 34 40  0  0  1  0  0  0  0  0999 V2000
  189.9700  174.7420  142.3210 C   0  0  0  0  0  0  0  0  0  0  0  0
  187.5200  175.6940  142.5430 C   0  0  0  0  0  2  0  0  0  0  0  0
  195.9000  173.1970  144.7460 C   0  0  2  0  0  3  0  0  0  0  0  0
  192.2820  173.9420  142.2800 C   0  0  0  0  0  0  0  0  0  0  0  0
  193.7360  174.4410  144.1790 C   0  0  0  0  0  0  0  0  0  0  0  0
  194.8530  174.7620  146.2690 O   0  0  0  0  0  1  0  0  0  0  0  0
  196.8300  172.9400  145.9220 C   0  0  0  0  0  1  0  0  0  0  0  0
  195.9780  173.7260  142.2510 C   0  0  0  0  0  2  0  0  0  0  0  0
  189.1340  176.0620  144.1830 C   0  0  0  0  0  0  0  0  0  0  0  0
  188.4520  177.4880  146.9330 C   0  0  0  0  0  2  0  0  0  0  0  0
  192.6980  175.1170  144.7500 N   0  0  0  0  0  0  0  0  0  0  0  0
  194.6220  173.0460  142.1930 C   0  0  0  0  0  2  0  0  0  0  0  0
  190.4120  175.9460  144.8470 N   0  0  0  0  0  0  0  0  0  0  0  0
  186.8320  176.3550  143.7350 C   0  0  0  0  0  2  0  0  0  0  0  0
  193.5510  173.8470  142.8940 C   0  0  0  0  0  0  0  0  0  0  0  0
  196.7540  173.2640  143.4800 C   0  0  0  0  0  2  0  0  0  0  0  0
  187.7190  176.5230  146.1030 N   0  0  0  0  0  0  0  0  0  0  0  0
  191.2400  174.6410  142.9240 C   0  0  0  0  0  0  0  0  0  0  0  0
  195.0660  174.4790  144.9140 C   0  0  1  0  0  3  0  0  0  0  0  0
  191.4720  175.2300  144.1770 C   0  0  0  0  0  0  0  0  0  0  0  0
  190.7680  173.4540  140.4330 C   0  0  0  0  0  3  0  0  0  0  0  0
  189.9320  177.6440  146.5650 C   0  0  0  0  0  2  0  0  0  0  0  0
  192.0280  173.3530  141.0290 C   0  0  0  0  0  3  0  0  0  0  0  0
  190.5800  176.3050  146.2570 C   0  0  0  0  0  2  0  0  0  0  0  0
  187.9540  176.8280  144.6800 C   0  0  1  0  0  3  0  0  0  0  0  0
  189.7400  174.1470  141.0760 C   0  0  0  0  0  3  0  0  0  0  0  0
  188.9090  175.4900  143.0180 C   0  0  0  0  0  0  0  0  0  0  0  0
  186.3180  176.7230  146.4560 C   0  0  0  0  0  2  0  0  0  0  0  0
  186.1620  178.0480  147.1830 C   0  0  0  0  0  2  0  0  0  0  0  0
  185.1250  179.8420  144.2330 C   0  0  0  0  0  2  0  0  0  0  0  0
  184.1410  178.2400  145.7300 C   0  0  0  0  0  2  0  0  0  0  0  0
  185.2870  178.9910  146.3760 C   0  0  2  0  0  3  0  0  0  0  0  0
  184.0270  178.8080  144.3380 C   0  0  0  0  0  2  0  0  0  0  0  0
  186.0710  179.5970  145.3120 N   0  0  0  0  0  2  0  0  0  0  0  0
  1 18  1  0  0  0  0
  1 27  1  0  0  0  0
  2 27  1  0  0  0  0
  2 14  1  0  0  0  0
  3 19  1  0  0  0  0
  3  7  1  1  0  0  0
  4 15  2  0  0  0  0
  4 18  1  0  0  0  0
  5 11  2  0  0  0  0
  5 19  1  0  0  0  0
  8 16  1  0  0  0  0
  9 25  1  0  0  0  0
  9 13  1  0  0  0  0
 12  8  1  0  0  0  0
 12 15  1  0  0  0  0
 13 24  1  0  0  0  0
 15  5  1  0  0  0  0
 16  3  1  0  0  0  0
 17 28  1  0  0  0  0
 17 10  1  0  0  0  0
 18 20  2  0  0  0  0
 19  6  1  1  0  0  0
 20 11  1  0  0  0  0
 20 13  1  0  0  0  0
 21 23  2  0  0  0  0
 21 26  1  0  0  0  0
 22 10  1  0  0  0  0
 23  4  1  0  0  0  0
 24 22  1  0  0  0  0
 25 14  1  6  0  0  0
 25 17  1  0  0  0  0
 26  1  2  0  0  0  0
 27  9  2  0  0  0  0
 28 29  1  0  0  0  0
 30 33  1  0  0  0  0
 30 34  1  0  0  0  0
 31 32  1  0  0  0  0
 32 29  1  6  0  0  0
 33 31  1  0  0  0  0
 34 32  1  0  0  0  0
M  END
>  <MODEL>
5

>  <REMARK>
 VINA RESULT:      -8.5      2.375      4.422
  Name = 
  3 active torsions:
  status: ('A' for Active; 'I' for Inactive)
    1  A    between atoms: N_17  and  C_28
    2  A    between atoms: C_28  and  C_29
    3  A    between atoms: C_29  and  C_32
                            x       y       z     vdW  Elec       q    Type
                         _______ _______ _______ _____ _____    ______ ____

>  <TORSDO>
F 3

$$$$
=
 OpenBabel11112417593D

 34 40  0  0  1  0  0  0  0  0999 V2000
  189.4230  175.4500  142.9200 C   0  0  0  0  0  0  0  0  0  0  0  0
  191.6250  174.3350  141.9900 C   0  0  0  0  0  2  0  0  0  0  0  0
  186.1000  179.1400  147.2530 C   0  0  2  0  0  3  0  0  0  0  0  0
  187.4720  176.5150  143.9440 C   0  0  0  0  0  0  0  0  0  0  0  0
  187.6710  177.4090  146.2090 C   0  0  0  0  0  0  0  0  0  0  0  0
  188.1970  178.4910  148.2750 O   0  0  0  0  0  1  0  0  0  0  0  0
  186.0660  180.1620  148.3780 C   0  0  0  0  0  1  0  0  0  0  0  0
  184.6300  177.3650  146.1580 C   0  0  0  0  0  2  0  0  0  0  0  0
  191.5130  175.2260  144.1410 C   0  0  0  0  0  0  0  0  0  0  0  0
  194.0600  175.4270  146.0200 C   0  0  0  0  0  2  0  0  0  0  0  0
  188.9630  176.9730  146.2290 N   0  0  0  0  0  0  0  0  0  0  0  0
  185.4490  177.6370  144.9100 C   0  0  0  0  0  2  0  0  0  0  0  0
  190.9350  175.9210  145.2690 N   0  0  0  0  0  0  0  0  0  0  0  0
  193.0340  174.3130  142.5790 C   0  0  0  0  0  2  0  0  0  0  0  0
  186.8760  177.1620  145.0490 C   0  0  0  0  0  0  0  0  0  0  0  0
  184.6940  178.5560  147.1080 C   0  0  0  0  0  2  0  0  0  0  0  0
  193.8680  175.6290  144.5780 N   0  0  0  0  0  0  0  0  0  0  0  0
  188.8170  176.0980  144.0160 C   0  0  0  0  0  0  0  0  0  0  0  0
  187.1350  178.0260  147.4910 C   0  0  1  0  0  3  0  0  0  0  0  0
  189.5560  176.3400  145.1840 C   0  0  0  0  0  0  0  0  0  0  0  0
  187.3530  175.6280  141.6770 C   0  0  0  0  0  3  0  0  0  0  0  0
  192.7600  175.3750  146.8310 C   0  0  0  0  0  2  0  0  0  0  0  0
  186.7510  176.2690  142.7620 C   0  0  0  0  0  3  0  0  0  0  0  0
  191.7640  176.4250  146.3660 C   0  0  0  0  0  2  0  0  0  0  0  0
  192.8880  174.6490  144.0760 C   0  0  1  0  0  3  0  0  0  0  0  0
  188.6860  175.2180  141.7540 C   0  0  0  0  0  3  0  0  0  0  0  0
  190.8270  175.0200  143.0350 C   0  0  0  0  0  0  0  0  0  0  0  0
  195.1850  175.3950  143.9960 C   0  0  0  0  0  2  0  0  0  0  0  0
  196.0570  174.6510  144.9920 C   0  0  0  0  0  2  0  0  0  0  0  0
  197.9400  171.6070  144.5690 C   0  0  0  0  0  2  0  0  0  0  0  0
  195.8560  172.2360  145.5880 C   0  0  0  0  0  2  0  0  0  0  0  0
  196.2900  173.2250  144.5260 C   0  0  2  0  0  3  0  0  0  0  0  0
  196.9260  171.1730  145.6040 C   0  0  0  0  0  2  0  0  0  0  0  0
  197.7080  173.0140  144.2830 N   0  0  0  0  0  2  0  0  0  0  0  0
  1 27  1  0  0  0  0
  1 18  1  0  0  0  0
  2 14  1  0  0  0  0
  2 27  1  0  0  0  0
  3 19  1  0  0  0  0
  3  7  1  1  0  0  0
  4 18  2  0  0  0  0
  4 15  1  0  0  0  0
  5 11  1  0  0  0  0
  5 19  1  0  0  0  0
  8 16  1  0  0  0  0
  9 13  1  0  0  0  0
 10 22  1  0  0  0  0
 12 15  1  0  0  0  0
 12  8  1  0  0  0  0
 13 24  1  0  0  0  0
 15  5  2  0  0  0  0
 16  3  1  0  0  0  0
 17 10  1  0  0  0  0
 18 20  1  0  0  0  0
 19  6  1  6  0  0  0
 20 13  1  0  0  0  0
 20 11  2  0  0  0  0
 21 26  1  0  0  0  0
 21 23  2  0  0  0  0
 23  4  1  0  0  0  0
 24 22  1  0  0  0  0
 25 14  1  6  0  0  0
 25  9  1  0  0  0  0
 25 17  1  0  0  0  0
 26  1  2  0  0  0  0
 27  9  2  0  0  0  0
 28 17  1  0  0  0  0
 28 29  1  0  0  0  0
 30 33  1  0  0  0  0
 31 33  1  0  0  0  0
 32 29  1  1  0  0  0
 32 31  1  0  0  0  0
 34 32  1  0  0  0  0
 34 30  1  0  0  0  0
M  END
>  <MODEL>
6

>  <REMARK>
 VINA RESULT:      -8.4      3.084      9.570
  Name = 
  3 active torsions:
  status: ('A' for Active; 'I' for Inactive)
    1  A    between atoms: N_17  and  C_28
    2  A    between atoms: C_28  and  C_29
    3  A    between atoms: C_29  and  C_32
                            x       y       z     vdW  Elec       q    Type
                         _______ _______ _______ _____ _____    ______ ____

>  <TORSDO>
F 3

$$$$
=
 OpenBabel11112417593D

 34 40  0  0  1  0  0  0  0  0999 V2000
  190.0440  175.2520  146.0810 C   0  0  0  0  0  0  0  0  0  0  0  0
  192.3210  174.0240  146.5920 C   0  0  0  0  0  2  0  0  0  0  0  0
  185.6170  177.9340  142.0020 C   0  0  2  0  0  3  0  0  0  0  0  0
  187.9990  176.4300  145.4360 C   0  0  0  0  0  0  0  0  0  0  0  0
  187.8110  177.3050  143.1630 C   0  0  0  0  0  0  0  0  0  0  0  0
  187.7240  177.7730  140.8190 O   0  0  0  0  0  1  0  0  0  0  0  0
  185.0460  178.1370  140.6070 C   0  0  0  0  0  1  0  0  0  0  0  0
  185.5540  178.9800  144.3290 C   0  0  0  0  0  2  0  0  0  0  0  0
  191.8900  175.0000  144.5200 C   0  0  0  0  0  0  0  0  0  0  0  0
  193.8730  174.6940  142.0640 C   0  0  0  0  0  2  0  0  0  0  0  0
  189.0660  176.8340  142.9150 N   0  0  0  0  0  0  0  0  0  0  0  0
  185.8550  177.5790  144.8280 C   0  0  0  0  0  2  0  0  0  0  0  0
  191.1270  175.6790  143.4980 N   0  0  0  0  0  0  0  0  0  0  0  0
  193.4560  173.6350  145.6470 C   0  0  0  0  0  2  0  0  0  0  0  0
  187.2490  177.1290  144.4630 C   0  0  0  0  0  0  0  0  0  0  0  0
  184.9290  178.9270  142.9390 C   0  0  0  0  0  2  0  0  0  0  0  0
  193.4410  173.7650  143.1160 N   0  0  0  0  0  0  0  0  0  0  0  0
  189.2870  175.9510  145.1190 C   0  0  0  0  0  0  0  0  0  0  0  0
  187.1450  178.1020  142.0510 C   0  0  1  0  0  3  0  0  0  0  0  0
  189.8100  176.1670  143.8350 C   0  0  0  0  0  0  0  0  0  0  0  0
  188.2410  175.5040  147.6770 C   0  0  0  0  0  3  0  0  0  0  0  0
  193.0210  175.9640  141.9500 C   0  0  0  0  0  2  0  0  0  0  0  0
  187.4890  176.1970  146.7250 C   0  0  0  0  0  3  0  0  0  0  0  0
  191.5380  175.6610  142.0930 C   0  0  0  0  0  2  0  0  0  0  0  0
  193.2910  174.5020  144.3840 C   0  0  1  0  0  3  0  0  0  0  0  0
  189.5170  175.0320  147.3580 C   0  0  0  0  0  3  0  0  0  0  0  0
  191.3910  174.7770  145.7190 C   0  0  0  0  0  0  0  0  0  0  0  0
  194.5170  172.7850  143.2060 C   0  0  0  0  0  2  0  0  0  0  0  0
  195.8270  173.4290  142.7890 C   0  0  0  0  0  2  0  0  0  0  0  0
  197.2810  173.7050  146.0760 C   0  0  0  0  0  2  0  0  0  0  0  0
  196.6260  171.9180  144.6080 C   0  0  0  0  0  2  0  0  0  0  0  0
  196.8870  173.2050  143.8540 C   0  0  2  0  0  3  0  0  0  0  0  0
  196.8990  172.2410  146.0560 C   0  0  0  0  0  2  0  0  0  0  0  0
  196.8510  174.2940  144.8180 N   0  0  0  0  0  2  0  0  0  0  0  0
  1 26  1  0  0  0  0
  3  7  1  6  0  0  0
  3 19  1  0  0  0  0
  3 16  1  0  0  0  0
  4 23  2  0  0  0  0
  5 15  2  0  0  0  0
  8 12  1  0  0  0  0
  9 27  2  0  0  0  0
 10 17  1  0  0  0  0
 11  5  1  0  0  0  0
 11 20  2  0  0  0  0
 13 20  1  0  0  0  0
 13  9  1  0  0  0  0
 14  2  1  0  0  0  0
 15 12  1  0  0  0  0
 15  4  1  0  0  0  0
 16  8  1  0  0  0  0
 17 28  1  0  0  0  0
 17 25  1  0  0  0  0
 18  4  1  0  0  0  0
 18  1  2  0  0  0  0
 19  6  1  6  0  0  0
 19  5  1  0  0  0  0
 20 18  1  0  0  0  0
 22 10  1  0  0  0  0
 22 24  1  0  0  0  0
 23 21  1  0  0  0  0
 24 13  1  0  0  0  0
 25  9  1  0  0  0  0
 25 14  1  1  0  0  0
 26 21  2  0  0  0  0
 27  1  1  0  0  0  0
 27  2  1  0  0  0  0
 29 28  1  0  0  0  0
 31 33  1  0  0  0  0
 32 29  1  6  0  0  0
 32 31  1  0  0  0  0
 32 34  1  0  0  0  0
 33 30  1  0  0  0  0
 34 30  1  0  0  0  0
M  END
>  <MODEL>
7

>  <REMARK>
 VINA RESULT:      -8.4      2.525      8.933
  Name = 
  3 active torsions:
  status: ('A' for Active; 'I' for Inactive)
    1  A    between atoms: N_17  and  C_28
    2  A    between atoms: C_28  and  C_29
    3  A    between atoms: C_29  and  C_32
                            x       y       z     vdW  Elec       q    Type
                         _______ _______ _______ _____ _____    ______ ____

>  <TORSDO>
F 3

$$$$
=
 OpenBabel11112417593D

 34 40  0  0  1  0  0  0  0  0999 V2000
  187.0690  176.3560  140.7990 C   0  0  0  0  0  0  0  0  0  0  0  0
  188.1810  174.8600  138.9340 C   0  0  0  0  0  2  0  0  0  0  0  0
  186.5100  178.5660  146.9820 C   0  0  2  0  0  3  0  0  0  0  0  0
  186.1230  177.6370  142.6570 C   0  0  0  0  0  0  0  0  0  0  0  0
  186.7530  177.0410  144.9410 C   0  0  0  0  0  0  0  0  0  0  0  0
  187.7620  176.4940  147.0380 O   0  0  0  0  0  1  0  0  0  0  0  0
  187.0650  178.7390  148.3880 C   0  0  0  0  0  1  0  0  0  0  0  0
  184.3010  178.6700  145.7100 C   0  0  0  0  0  2  0  0  0  0  0  0
  188.5640  174.4830  141.2020 C   0  0  0  0  0  0  0  0  0  0  0  0
  190.6610  172.3360  142.2270 C   0  0  0  0  0  2  0  0  0  0  0  0
  187.5190  176.0360  144.4290 N   0  0  0  0  0  0  0  0  0  0  0  0
  185.1560  179.0250  144.5070 C   0  0  0  0  0  2  0  0  0  0  0  0
  188.4890  174.7220  142.6250 N   0  0  0  0  0  0  0  0  0  0  0  0
  189.2740  173.8000  139.0540 C   0  0  0  0  0  2  0  0  0  0  0  0
  186.0050  177.8640  144.0460 C   0  0  0  0  0  0  0  0  0  0  0  0
  185.0420  178.9910  147.0040 C   0  0  0  0  0  2  0  0  0  0  0  0
  190.6730  173.2810  141.1030 N   0  0  0  0  0  0  0  0  0  0  0  0
  186.9430  176.5930  142.1830 C   0  0  0  0  0  0  0  0  0  0  0  0
  186.6580  177.1280  146.4560 C   0  0  1  0  0  3  0  0  0  0  0  0
  187.6430  175.7920  143.0990 C   0  0  0  0  0  0  0  0  0  0  0  0
  185.5610  178.1980  140.3520 C   0  0  0  0  0  3  0  0  0  0  0  0
  189.5690  172.6030  143.2690 C   0  0  0  0  0  2  0  0  0  0  0  0
  185.4350  178.4330  141.7230 C   0  0  0  0  0  3  0  0  0  0  0  0
  189.4200  174.0870  143.5600 C   0  0  0  0  0  2  0  0  0  0  0  0
  189.3160  173.3790  140.5360 C   0  0  1  0  0  3  0  0  0  0  0  0
  186.3750  177.1610  139.8890 C   0  0  0  0  0  3  0  0  0  0  0  0
  187.9260  175.2490  140.3410 C   0  0  0  0  0  0  0  0  0  0  0  0
  191.6000  172.6960  140.1400 C   0  0  0  0  0  2  0  0  0  0  0  0
  191.6880  171.1970  140.3650 C   0  0  0  0  0  2  0  0  0  0  0  0
  189.7650  170.0440  137.5430 C   0  0  0  0  0  2  0  0  0  0  0  0
  191.7560  171.3480  137.8750 C   0  0  0  0  0  2  0  0  0  0  0  0
  191.4590  170.4540  139.0610 C   0  0  2  0  0  3  0  0  0  0  0  0
  190.6590  171.0680  136.8790 C   0  0  0  0  0  2  0  0  0  0  0  0
  190.0670  170.0470  138.9660 N   0  0  0  0  0  2  0  0  0  0  0  0
  1 18  1  0  0  0  0
  2 14  1  0  0  0  0
  2 27  1  0  0  0  0
  3 16  1  0  0  0  0
  3  7  1  1  0  0  0
  4 15  1  0  0  0  0
  5 19  1  0  0  0  0
  8 16  1  0  0  0  0
  9 13  1  0  0  0  0
 10 22  1  0  0  0  0
 11  5  1  0  0  0  0
 12  8  1  0  0  0  0
 13 20  1  0  0  0  0
 13 24  1  0  0  0  0
 15 12  1  0  0  0  0
 15  5  2  0  0  0  0
 17 10  1  0  0  0  0
 18  4  2  0  0  0  0
 18 20  1  0  0  0  0
 19  3  1  0  0  0  0
 19  6  1  1  0  0  0
 20 11  2  0  0  0  0
 21 23  2  0  0  0  0
 22 24  1  0  0  0  0
 23  4  1  0  0  0  0
 25 14  1  6  0  0  0
 25 17  1  0  0  0  0
 25  9  1  0  0  0  0
 26 21  1  0  0  0  0
 26  1  2  0  0  0  0
 27  1  1  0  0  0  0
 27  9  2  0  0  0  0
 28 29  1  0  0  0  0
 28 17  1  0  0  0  0
 30 34  1  0  0  0  0
 31 32  1  0  0  0  0
 32 29  1  1  0  0  0
 33 30  1  0  0  0  0
 33 31  1  0  0  0  0
 34 32  1  0  0  0  0
M  END
>  <MODEL>
8

>  <REMARK>
 VINA RESULT:      -8.3      4.096      8.609
  Name = 
  3 active torsions:
  status: ('A' for Active; 'I' for Inactive)
    1  A    between atoms: N_17  and  C_28
    2  A    between atoms: C_28  and  C_29
    3  A    between atoms: C_29  and  C_32
                            x       y       z     vdW  Elec       q    Type
                         _______ _______ _______ _____ _____    ______ ____

>  <TORSDO>
F 3

$$$$
=
 OpenBabel11112417593D

 34 40  0  0  1  0  0  0  0  0999 V2000
  188.6190  176.2160  146.5190 C   0  0  0  0  0  0  0  0  0  0  0  0
  190.9100  175.3140  147.4640 C   0  0  0  0  0  2  0  0  0  0  0  0
  184.5780  177.9510  141.6110 C   0  0  2  0  0  3  0  0  0  0  0  0
  186.5800  177.0810  145.4780 C   0  0  0  0  0  0  0  0  0  0  0  0
  186.6340  177.6970  143.1150 C   0  0  0  0  0  0  0  0  0  0  0  0
  186.8390  177.9160  140.7430 O   0  0  0  0  0  1  0  0  0  0  0  0
  184.1970  177.9470  140.1380 C   0  0  0  0  0  1  0  0  0  0  0  0
  184.0780  179.2100  143.7730 C   0  0  0  0  0  2  0  0  0  0  0  0
  190.6860  176.0230  145.2550 C   0  0  0  0  0  0  0  0  0  0  0  0
  193.0220  175.7020  143.1340 C   0  0  0  0  0  2  0  0  0  0  0  0
  187.9530  177.3510  143.0910 N   0  0  0  0  0  0  0  0  0  0  0  0
  184.4420  177.9100  144.4650 C   0  0  0  0  0  2  0  0  0  0  0  0
  190.0130  176.5040  144.0700 N   0  0  0  0  0  0  0  0  0  0  0  0
  192.2020  174.9650  146.7280 C   0  0  0  0  0  2  0  0  0  0  0  0
  185.9130  177.5880  144.3420 C   0  0  0  0  0  0  0  0  0  0  0  0
  183.6670  178.9470  142.3280 C   0  0  0  0  0  2  0  0  0  0  0  0
  192.5370  174.8400  144.2190 N   0  0  0  0  0  0  0  0  0  0  0  0
  187.9420  176.7240  145.3920 C   0  0  0  0  0  0  0  0  0  0  0  0
  186.0600  178.2980  141.8410 C   0  0  1  0  0  3  0  0  0  0  0  0
  188.6200  176.8690  144.1720 C   0  0  0  0  0  0  0  0  0  0  0  0
  186.5890  176.4180  147.8240 C   0  0  0  0  0  3  0  0  0  0  0  0
  192.0730  176.8470  142.7630 C   0  0  0  0  0  2  0  0  0  0  0  0
  185.9170  176.9210  146.7070 C   0  0  0  0  0  3  0  0  0  0  0  0
  190.6220  176.3930  142.7430 C   0  0  0  0  0  2  0  0  0  0  0  0
  192.1340  175.6770  145.3630 C   0  0  1  0  0  3  0  0  0  0  0  0
  187.9380  176.0660  147.7320 C   0  0  0  0  0  3  0  0  0  0  0  0
  190.0440  175.8640  146.3950 C   0  0  0  0  0  0  0  0  0  0  0  0
  193.6820  174.0030  144.5620 C   0  0  0  0  0  2  0  0  0  0  0  0
  194.7930  174.2220  143.5510 C   0  0  0  0  0  2  0  0  0  0  0  0
  197.1850  173.6450  146.1850 C   0  0  0  0  0  2  0  0  0  0  0  0
  196.1160  172.3230  144.4860 C   0  0  0  0  0  2  0  0  0  0  0  0
  196.1290  173.7970  144.1350 C   0  0  2  0  0  3  0  0  0  0  0  0
  196.8200  172.2240  145.8160 C   0  0  0  0  0  2  0  0  0  0  0  0
  196.3870  174.5380  145.3590 N   0  0  0  0  0  2  0  0  0  0  0  0
  1 26  1  0  0  0  0
  3  7  1  6  0  0  0
  3 19  1  0  0  0  0
  3 16  1  0  0  0  0
  4 23  2  0  0  0  0
  5 15  2  0  0  0  0
  8 12  1  0  0  0  0
  9 25  1  0  0  0  0
  9 27  2  0  0  0  0
 10 17  1  0  0  0  0
 11  5  1  0  0  0  0
 11 20  2  0  0  0  0
 13 20  1  0  0  0  0
 13  9  1  0  0  0  0
 14  2  1  0  0  0  0
 15 12  1  0  0  0  0
 15  4  1  0  0  0  0
 16  8  1  0  0  0  0
 17 28  1  0  0  0  0
 17 25  1  0  0  0  0
 18  4  1  0  0  0  0
 18  1  2  0  0  0  0
 19  6  1  6  0  0  0
 19  5  1  0  0  0  0
 20 18  1  0  0  0  0
 22 10  1  0  0  0  0
 23 21  1  0  0  0  0
 24 22  1  0  0  0  0
 24 13  1  0  0  0  0
 25 14  1  1  0  0  0
 26 21  2  0  0  0  0
 27  1  1  0  0  0  0
 27  2  1  0  0  0  0
 29 28  1  0  0  0  0
 31 33  1  0  0  0  0
 32 29  1  1  0  0  0
 32 31  1  0  0  0  0
 32 34  1  0  0  0  0
 33 30  1  0  0  0  0
 34 30  1  0  0  0  0
M  END
>  <MODEL>
9

>  <REMARK>
 VINA RESULT:      -8.3      2.217      8.977
  Name = 
  3 active torsions:
  status: ('A' for Active; 'I' for Inactive)
    1  A    between atoms: N_17  and  C_28
    2  A    between atoms: C_28  and  C_29
    3  A    between atoms: C_29  and  C_32
                            x       y       z     vdW  Elec       q    Type
                         _______ _______ _______ _____ _____    ______ ____

>  <TORSDO>
F 3

$$$$
