=
 OpenBabel11112417053D

 31 35  0  0  1  0  0  0  0  0999 V2000
  194.9490  175.8990  144.8500 C   0  0  0  0  0  0  0  0  0  0  0  0
  191.5140  176.2770  143.0890 C   0  0  2  0  0  3  0  0  0  0  0  0
  190.6860  175.1310  142.5480 C   0  0  0  0  0  0  0  0  0  0  0  0
  190.4790  172.7970  141.8980 C   0  0  0  0  0  0  0  0  0  0  0  0
  192.5210  175.8270  144.1610 C   0  0  1  0  0  3  0  0  0  0  0  0
  194.5700  175.8360  146.1400 C   0  0  0  0  0  3  0  0  0  0  0  0
  191.2320  173.8420  142.4380 C   0  0  0  0  0  3  0  0  0  0  0  0
  190.1180  177.2380  145.0640 C   0  0  1  0  0  3  0  0  0  0  0  0
  196.2740  175.9190  144.5580 F   0  0  0  0  0  0  0  0  0  0  0  0
  188.8050  176.6750  142.1330 N   0  0  0  0  0  2  0  0  0  0  0  0
  191.0250  171.5240  141.8060 O   0  0  0  0  0  1  0  0  0  0  0  0
  190.8870  176.3220  145.8290 O   0  0  0  0  0  0  0  0  0  0  0  0
  190.6290  177.4350  143.5980 C   0  0  2  0  0  3  0  0  0  0  0  0
  193.9570  176.1180  143.7300 C   0  0  0  0  0  2  0  0  0  0  0  0
  189.1770  173.0320  141.4480 C   0  0  0  0  0  3  0  0  0  0  0  0
  192.2440  176.4860  145.5140 C   0  0  1  0  0  3  0  0  0  0  0  0
  193.1220  175.8150  146.5630 C   0  0  0  0  0  2  0  0  0  0  0  0
  189.5770  177.8380  142.5610 C   0  0  0  0  0  2  0  0  0  0  0  0
  189.3830  175.3680  142.0580 C   0  0  0  0  0  0  0  0  0  0  0  0
  188.6320  174.3150  141.5280 C   0  0  0  0  0  3  0  0  0  0  0  0
  188.6590  176.7990  145.1150 C   0  0  0  0  0  2  0  0  0  0  0  0
  188.2890  177.7660  147.2810 O   0  0  0  0  0  1  0  0  0  0  0  0
  187.8120  177.7350  145.9690 C   0  0  2  0  0  3  0  0  0  0  0  0
  184.3170  178.5910  144.1130 C   0  0  0  0  0  0  0  0  0  0  0  0
  185.8780  176.5700  144.7170 C   0  0  0  0  0  2  0  0  0  0  0  0
  185.5320  179.1020  147.3780 O   0  0  0  0  0  0  0  0  0  0  0  0
  183.1260  178.9880  143.3180 C   0  0  0  0  0  1  0  0  0  0  0  0
  185.6350  177.6800  143.2990 S   0  0  0  0  0  0  0  0  0  0  0  0
  185.4210  178.5220  146.2660 C   0  0  0  0  0  0  0  0  0  0  0  0
  186.3240  177.3560  145.9550 C   0  0  2  0  0  3  0  0  0  0  0  0
  184.3910  178.9420  145.3610 N   0  0  0  0  0  0  0  0  0  0  0  0
  1  6  2  0  0  0  0
  2  3  1  1  0  0  0
  2 13  1  0  0  0  0
  2  5  1  0  0  0  0
  4  7  2  0  0  0  0
  5 14  1  6  0  0  0
  5 16  1  0  0  0  0
  6 17  1  0  0  0  0
  7  3  1  0  0  0  0
  8 21  1  6  0  0  0
  8 12  1  0  0  0  0
  9  1  1  0  0  0  0
 10 18  1  0  0  0  0
 11  4  1  0  0  0  0
 13 18  1  6  0  0  0
 13  8  1  0  0  0  0
 14  1  1  0  0  0  0
 15 20  2  0  0  0  0
 15  4  1  0  0  0  0
 16 12  1  0  0  0  0
 16 17  1  1  0  0  0
 19 10  1  0  0  0  0
 19  3  2  0  0  0  0
 20 19  1  0  0  0  0
 21 23  1  0  0  0  0
 23 22  1  1  0  0  0
 24 31  2  0  0  0  0
 25 30  1  0  0  0  0
 27 24  1  0  0  0  0
 28 24  1  0  0  0  0
 28 25  1  0  0  0  0
 29 26  2  0  0  0  0
 30 23  1  6  0  0  0
 30 29  1  0  0  0  0
 31 29  1  0  0  0  0
M  END
>  <MODEL>
1

>  <REMARK>
 VINA RESULT:      -8.1      0.000      0.000
  Name = 
  3 active torsions:
  status: ('A' for Active; 'I' for Inactive)
    1  A    between atoms: C_5  and  C_16
    2  A    between atoms: C_5  and  C_30
    3  A    between atoms: C_10  and  C_16
                            x       y       z     vdW  Elec       q    Type
                         _______ _______ _______ _____ _____    ______ ____

>  <TORSDO>
F 3

$$$$
=
 OpenBabel11112417053D

 31 35  0  0  1  0  0  0  0  0999 V2000
  192.2020  170.4700  142.5560 C   0  0  0  0  0  0  0  0  0  0  0  0
  191.3530  173.2630  145.1080 C   0  0  2  0  0  3  0  0  0  0  0  0
  192.3190  174.3290  145.5820 C   0  0  0  0  0  0  0  0  0  0  0  0
  194.5850  175.1920  145.7710 C   0  0  0  0  0  0  0  0  0  0  0  0
  191.7660  172.6450  143.7620 C   0  0  1  0  0  3  0  0  0  0  0  0
  191.8070  171.0460  141.4050 C   0  0  0  0  0  3  0  0  0  0  0  0
  193.6900  174.2300  145.2960 C   0  0  0  0  0  3  0  0  0  0  0  0
  189.5450  174.5540  143.7540 C   0  0  1  0  0  3  0  0  0  0  0  0
  192.6360  169.1850  142.5280 F   0  0  0  0  0  0  0  0  0  0  0  0
  190.4770  175.5020  146.7320 N   0  0  0  0  0  2  0  0  0  0  0  0
  195.9360  175.0910  145.4710 O   0  0  0  0  0  1  0  0  0  0  0  0
  190.4010  174.2630  142.6590 O   0  0  0  0  0  0  0  0  0  0  0  0
  189.9010  173.7830  145.0690 C   0  0  2  0  0  3  0  0  0  0  0  0
  192.0190  171.1440  143.8970 C   0  0  0  0  0  2  0  0  0  0  0  0
  194.1210  176.2550  146.5500 C   0  0  0  0  0  3  0  0  0  0  0  0
  190.7190  172.8960  142.6760 C   0  0  1  0  0  3  0  0  0  0  0  0
  191.3040  172.4670  141.3370 C   0  0  0  0  0  2  0  0  0  0  0  0
  189.5090  174.4660  146.3830 C   0  0  0  0  0  2  0  0  0  0  0  0
  191.8640  175.3850  146.4010 C   0  0  0  0  0  0  0  0  0  0  0  0
  192.7640  176.3500  146.8640 C   0  0  0  0  0  3  0  0  0  0  0  0
  189.5230  176.0660  143.9560 C   0  0  0  0  0  2  0  0  0  0  0  0
  188.6690  177.0670  141.9490 O   0  0  0  0  0  1  0  0  0  0  0  0
  188.3350  176.7170  143.2590 C   0  0  2  0  0  3  0  0  0  0  0  0
  185.2490  177.9660  145.5620 C   0  0  0  0  0  0  0  0  0  0  0  0
  187.8690  177.8230  145.5440 C   0  0  0  0  0  2  0  0  0  0  0  0
  186.3530  178.7760  142.3180 O   0  0  0  0  0  0  0  0  0  0  0  0
  184.0720  178.2630  146.4200 C   0  0  0  0  0  1  0  0  0  0  0  0
  186.4910  176.8160  146.1670 S   0  0  0  0  0  0  0  0  0  0  0  0
  186.4670  178.4090  143.5180 C   0  0  0  0  0  0  0  0  0  0  0  0
  187.8100  177.9440  144.0170 C   0  0  2  0  0  3  0  0  0  0  0  0
  185.3320  178.5150  144.3880 N   0  0  0  0  0  0  0  0  0  0  0  0
  1 14  1  0  0  0  0
  2  3  1  6  0  0  0
  3 19  1  0  0  0  0
  4 15  2  0  0  0  0
  5 14  1  1  0  0  0
  5  2  1  0  0  0  0
  6  1  2  0  0  0  0
  7  3  2  0  0  0  0
  7  4  1  0  0  0  0
  8 21  1  1  0  0  0
  8 13  1  0  0  0  0
  9  1  1  0  0  0  0
 11  4  1  0  0  0  0
 12 16  1  0  0  0  0
 12  8  1  0  0  0  0
 13  2  1  0  0  0  0
 13 18  1  1  0  0  0
 15 20  1  0  0  0  0
 16 17  1  6  0  0  0
 16  5  1  0  0  0  0
 17  6  1  0  0  0  0
 18 10  1  0  0  0  0
 19 10  1  0  0  0  0
 19 20  2  0  0  0  0
 23 22  1  6  0  0  0
 23 21  1  0  0  0  0
 24 28  1  0  0  0  0
 24 27  1  0  0  0  0
 25 28  1  0  0  0  0
 26 29  2  0  0  0  0
 29 30  1  0  0  0  0
 29 31  1  0  0  0  0
 30 23  1  6  0  0  0
 30 25  1  0  0  0  0
 31 24  2  0  0  0  0
M  END
>  <MODEL>
2

>  <REMARK>
 VINA RESULT:      -7.7      2.930      4.856
  Name = 
  3 active torsions:
  status: ('A' for Active; 'I' for Inactive)
    1  A    between atoms: C_5  and  C_16
    2  A    between atoms: C_5  and  C_30
    3  A    between atoms: C_10  and  C_16
                            x       y       z     vdW  Elec       q    Type
                         _______ _______ _______ _____ _____    ______ ____

>  <TORSDO>
F 3

$$$$
=
 OpenBabel11112417053D

 31 35  0  0  1  0  0  0  0  0999 V2000
  185.7910  178.4330  146.8020 C   0  0  0  0  0  0  0  0  0  0  0  0
  189.1460  177.7130  144.9950 C   0  0  2  0  0  3  0  0  0  0  0  0
  190.2490  176.8250  145.5330 C   0  0  0  0  0  0  0  0  0  0  0  0
  191.2630  175.5960  147.3700 C   0  0  0  0  0  0  0  0  0  0  0  0
  187.7780  177.4080  145.6270 C   0  0  1  0  0  3  0  0  0  0  0  0
  185.0030  177.4820  146.2670 C   0  0  0  0  0  3  0  0  0  0  0  0
  190.2230  176.3790  146.8640 C   0  0  0  0  0  3  0  0  0  0  0  0
  188.2490  176.4670  142.8940 C   0  0  1  0  0  3  0  0  0  0  0  0
  185.2390  179.3420  147.6440 F   0  0  0  0  0  0  0  0  0  0  0  0
  191.4350  176.9720  143.3730 N   0  0  0  0  0  2  0  0  0  0  0  0
  191.2210  175.1490  148.6840 O   0  0  0  0  0  1  0  0  0  0  0  0
  187.3390  175.9040  143.8270 O   0  0  0  0  0  0  0  0  0  0  0  0
  189.0770  177.6710  143.4540 C   0  0  2  0  0  3  0  0  0  0  0  0
  187.2270  178.6260  146.3670 C   0  0  0  0  0  2  0  0  0  0  0  0
  192.3480  175.2620  146.5540 C   0  0  0  0  0  3  0  0  0  0  0  0
  186.7630  176.9340  144.5860 C   0  0  1  0  0  3  0  0  0  0  0  0
  185.5240  176.4330  145.3160 C   0  0  0  0  0  2  0  0  0  0  0  0
  190.4530  177.9010  142.8200 C   0  0  0  0  0  2  0  0  0  0  0  0
  191.3650  176.5140  144.7270 C   0  0  0  0  0  0  0  0  0  0  0  0
  192.3980  175.7210  145.2370 C   0  0  0  0  0  3  0  0  0  0  0  0
  189.1390  175.3500  142.3590 C   0  0  0  0  0  2  0  0  0  0  0  0
  187.7380  175.7720  140.4570 O   0  0  0  0  0  1  0  0  0  0  0  0
  188.7690  174.9600  140.9340 C   0  0  2  0  0  3  0  0  0  0  0  0
  190.3170  171.3010  140.1550 C   0  0  0  0  0  0  0  0  0  0  0  0
  188.8960  172.5890  141.9470 C   0  0  0  0  0  2  0  0  0  0  0  0
  188.0810  173.4150  138.4450 O   0  0  0  0  0  0  0  0  0  0  0  0
  191.0360  170.0280  139.8870 C   0  0  0  0  0  1  0  0  0  0  0  0
  190.6470  172.1720  141.6920 S   0  0  0  0  0  0  0  0  0  0  0  0
  188.6550  172.9110  139.4460 C   0  0  0  0  0  0  0  0  0  0  0  0
  188.3770  173.4810  140.8130 C   0  0  2  0  0  3  0  0  0  0  0  0
  189.4980  171.7660  139.2610 N   0  0  0  0  0  0  0  0  0  0  0  0
  1  9  1  0  0  0  0
  2  3  1  1  0  0  0
  2  5  1  0  0  0  0
  3  7  1  0  0  0  0
  4 11  1  0  0  0  0
  5 14  1  6  0  0  0
  6  1  2  0  0  0  0
  7  4  2  0  0  0  0
  8 21  1  1  0  0  0
  8 13  1  0  0  0  0
  8 12  1  0  0  0  0
 10 19  1  0  0  0  0
 12 16  1  0  0  0  0
 13 18  1  6  0  0  0
 13  2  1  0  0  0  0
 14  1  1  0  0  0  0
 15  4  1  0  0  0  0
 16 17  1  1  0  0  0
 16  5  1  0  0  0  0
 17  6  1  0  0  0  0
 18 10  1  0  0  0  0
 19 20  1  0  0  0  0
 19  3  2  0  0  0  0
 20 15  2  0  0  0  0
 23 22  1  1  0  0  0
 23 21  1  0  0  0  0
 24 28  1  0  0  0  0
 26 29  2  0  0  0  0
 27 24  1  0  0  0  0
 28 25  1  0  0  0  0
 29 30  1  0  0  0  0
 30 23  1  6  0  0  0
 30 25  1  0  0  0  0
 31 29  1  0  0  0  0
 31 24  2  0  0  0  0
M  END
>  <MODEL>
3

>  <REMARK>
 VINA RESULT:      -7.7      3.616      7.162
  Name = 
  3 active torsions:
  status: ('A' for Active; 'I' for Inactive)
    1  A    between atoms: C_5  and  C_16
    2  A    between atoms: C_5  and  C_30
    3  A    between atoms: C_10  and  C_16
                            x       y       z     vdW  Elec       q    Type
                         _______ _______ _______ _____ _____    ______ ____

>  <TORSDO>
F 3

$$$$
=
 OpenBabel11112417053D

 31 35  0  0  1  0  0  0  0  0999 V2000
  185.0800  178.9540  144.6270 C   0  0  0  0  0  0  0  0  0  0  0  0
  188.7030  177.6330  144.2170 C   0  0  2  0  0  3  0  0  0  0  0  0
  189.3090  176.4980  145.0160 C   0  0  0  0  0  0  0  0  0  0  0  0
  189.2350  174.9730  146.9090 C   0  0  0  0  0  0  0  0  0  0  0  0
  187.1660  177.5950  144.2040 C   0  0  1  0  0  3  0  0  0  0  0  0
  184.4360  178.2280  143.6940 C   0  0  0  0  0  3  0  0  0  0  0  0
  188.6530  175.9910  146.1500 C   0  0  0  0  0  3  0  0  0  0  0  0
  188.5650  176.7360  141.7790 C   0  0  1  0  0  3  0  0  0  0  0  0
  184.3930  179.9100  145.3010 F   0  0  0  0  0  0  0  0  0  0  0  0
  191.2950  176.5120  143.5500 N   0  0  0  0  0  2  0  0  0  0  0  0
  188.5710  174.4700  148.0200 O   0  0  0  0  0  1  0  0  0  0  0  0
  187.2660  176.3290  142.1830 O   0  0  0  0  0  0  0  0  0  0  0  0
  189.2780  177.6980  142.7870 C   0  0  2  0  0  3  0  0  0  0  0  0
  186.5750  178.8570  144.8300 C   0  0  0  0  0  2  0  0  0  0  0  0
  190.4850  174.4610  146.5520 C   0  0  0  0  0  3  0  0  0  0  0  0
  186.6140  177.4130  142.7900 C   0  0  1  0  0  3  0  0  0  0  0  0
  185.1170  177.1490  142.8890 C   0  0  0  0  0  2  0  0  0  0  0  0
  190.8100  177.6620  142.7910 C   0  0  0  0  0  2  0  0  0  0  0  0
  190.5880  176.0010  144.6840 C   0  0  0  0  0  0  0  0  0  0  0  0
  191.1590  174.9750  145.4430 C   0  0  0  0  0  3  0  0  0  0  0  0
  189.3890  175.4860  141.4880 C   0  0  0  0  0  2  0  0  0  0  0  0
  189.0250  173.5510  142.8590 O   0  0  0  0  0  1  0  0  0  0  0  0
  188.5880  174.2100  141.7080 C   0  0  2  0  0  3  0  0  0  0  0  0
  190.9370  173.1740  138.5780 C   0  0  0  0  0  0  0  0  0  0  0  0
  189.6740  172.1320  140.6280 C   0  0  0  0  0  2  0  0  0  0  0  0
  187.8170  174.7820  138.8560 O   0  0  0  0  0  0  0  0  0  0  0  0
  191.9220  172.8820  137.5040 C   0  0  0  0  0  1  0  0  0  0  0  0
  191.3500  172.7360  140.2710 S   0  0  0  0  0  0  0  0  0  0  0  0
  188.7440  173.9960  139.1870 C   0  0  0  0  0  0  0  0  0  0  0  0
  188.6470  173.2640  140.5010 C   0  0  2  0  0  3  0  0  0  0  0  0
  189.8230  173.7680  138.2720 N   0  0  0  0  0  0  0  0  0  0  0  0
  1 14  1  0  0  0  0
  1  9  1  0  0  0  0
  2  3  1  6  0  0  0
  3  7  1  0  0  0  0
  4 11  1  0  0  0  0
  5  2  1  0  0  0  0
  5 14  1  6  0  0  0
  6  1  2  0  0  0  0
  7  4  2  0  0  0  0
  8 21  1  1  0  0  0
  8 12  1  0  0  0  0
  8 13  1  0  0  0  0
 10 19  1  0  0  0  0
 12 16  1  0  0  0  0
 13 18  1  1  0  0  0
 13  2  1  0  0  0  0
 15  4  1  0  0  0  0
 16 17  1  1  0  0  0
 16  5  1  0  0  0  0
 17  6  1  0  0  0  0
 18 10  1  0  0  0  0
 19  3  2  0  0  0  0
 19 20  1  0  0  0  0
 20 15  2  0  0  0  0
 21 23  1  0  0  0  0
 23 22  1  1  0  0  0
 24 28  1  0  0  0  0
 26 29  2  0  0  0  0
 27 24  1  0  0  0  0
 28 25  1  0  0  0  0
 29 30  1  0  0  0  0
 30 25  1  0  0  0  0
 30 23  1  1  0  0  0
 31 24  2  0  0  0  0
 31 29  1  0  0  0  0
M  END
>  <MODEL>
4

>  <REMARK>
 VINA RESULT:      -7.6      3.782      7.245
  Name = 
  3 active torsions:
  status: ('A' for Active; 'I' for Inactive)
    1  A    between atoms: C_5  and  C_16
    2  A    between atoms: C_5  and  C_30
    3  A    between atoms: C_10  and  C_16
                            x       y       z     vdW  Elec       q    Type
                         _______ _______ _______ _____ _____    ______ ____

>  <TORSDO>
F 3

$$$$
=
 OpenBabel11112417053D

 31 35  0  0  1  0  0  0  0  0999 V2000
  190.5510  171.4640  142.2970 C   0  0  0  0  0  0  0  0  0  0  0  0
  191.0230  173.8380  145.3270 C   0  0  2  0  0  3  0  0  0  0  0  0
  192.2450  174.6970  145.5740 C   0  0  0  0  0  0  0  0  0  0  0  0
  194.5550  175.2750  145.0820 C   0  0  0  0  0  0  0  0  0  0  0  0
  190.8760  173.4260  143.8520 C   0  0  1  0  0  3  0  0  0  0  0  0
  189.9010  172.2710  141.4380 C   0  0  0  0  0  3  0  0  0  0  0  0
  193.4160  174.5090  144.8230 C   0  0  0  0  0  3  0  0  0  0  0  0
  189.1000  175.5270  144.8580 C   0  0  1  0  0  3  0  0  0  0  0  0
  190.7460  170.1650  141.9540 F   0  0  0  0  0  0  0  0  0  0  0  0
  191.0810  175.8350  147.4300 N   0  0  0  0  0  2  0  0  0  0  0  0
  195.7030  175.0890  144.3250 O   0  0  0  0  0  1  0  0  0  0  0  0
  189.4990  175.3450  143.5080 O   0  0  0  0  0  0  0  0  0  0  0  0
  189.7360  174.5040  145.8580 C   0  0  2  0  0  3  0  0  0  0  0  0
  190.9200  171.9070  143.6950 C   0  0  0  0  0  2  0  0  0  0  0  0
  194.5410  176.2260  146.1050 C   0  0  0  0  0  3  0  0  0  0  0  0
  189.5870  173.9720  143.2360 C   0  0  1  0  0  3  0  0  0  0  0  0
  189.6320  173.7260  141.7330 C   0  0  0  0  0  2  0  0  0  0  0  0
  189.9020  174.9820  147.3030 C   0  0  0  0  0  2  0  0  0  0  0  0
  192.2500  175.6350  146.6290 C   0  0  0  0  0  0  0  0  0  0  0  0
  193.3910  176.4050  146.8770 C   0  0  0  0  0  3  0  0  0  0  0  0
  189.3820  176.9730  145.2510 C   0  0  0  0  0  2  0  0  0  0  0  0
  187.9180  177.9040  146.9090 O   0  0  0  0  0  1  0  0  0  0  0  0
  188.1000  177.7470  145.5330 C   0  0  2  0  0  3  0  0  0  0  0  0
  184.4240  178.5960  144.0640 C   0  0  0  0  0  0  0  0  0  0  0  0
  186.6640  177.3900  143.4180 C   0  0  0  0  0  2  0  0  0  0  0  0
  185.5730  176.8570  146.9020 O   0  0  0  0  0  0  0  0  0  0  0  0
  183.1210  179.0690  143.5280 C   0  0  0  0  0  1  0  0  0  0  0  0
  185.9300  179.0370  143.1880 S   0  0  0  0  0  0  0  0  0  0  0  0
  185.6140  177.2930  145.7210 C   0  0  0  0  0  0  0  0  0  0  0  0
  186.8650  177.0850  144.9070 C   0  0  2  0  0  3  0  0  0  0  0  0
  184.4440  177.9090  145.1660 N   0  0  0  0  0  0  0  0  0  0  0  0
  1 14  1  0  0  0  0
  2  3  1  6  0  0  0
  2 13  1  0  0  0  0
  3 19  1  0  0  0  0
  4 15  2  0  0  0  0
  5 14  1  1  0  0  0
  5  2  1  0  0  0  0
  6 17  1  0  0  0  0
  6  1  2  0  0  0  0
  7  4  1  0  0  0  0
  7  3  2  0  0  0  0
  8 21  1  1  0  0  0
  8 13  1  0  0  0  0
  9  1  1  0  0  0  0
 11  4  1  0  0  0  0
 12  8  1  0  0  0  0
 13 18  1  1  0  0  0
 15 20  1  0  0  0  0
 16 17  1  6  0  0  0
 16 12  1  0  0  0  0
 16  5  1  0  0  0  0
 18 10  1  0  0  0  0
 19 20  2  0  0  0  0
 19 10  1  0  0  0  0
 21 23  1  0  0  0  0
 23 22  1  1  0  0  0
 24 31  2  0  0  0  0
 25 30  1  0  0  0  0
 27 24  1  0  0  0  0
 28 25  1  0  0  0  0
 28 24  1  0  0  0  0
 29 26  2  0  0  0  0
 30 23  1  1  0  0  0
 30 29  1  0  0  0  0
 31 29  1  0  0  0  0
M  END
>  <MODEL>
5

>  <REMARK>
 VINA RESULT:      -7.4      2.547      4.497
  Name = 
  3 active torsions:
  status: ('A' for Active; 'I' for Inactive)
    1  A    between atoms: C_5  and  C_16
    2  A    between atoms: C_5  and  C_30
    3  A    between atoms: C_10  and  C_16
                            x       y       z     vdW  Elec       q    Type
                         _______ _______ _______ _____ _____    ______ ____

>  <TORSDO>
F 3

$$$$
=
 OpenBabel11112417053D

 31 35  0  0  1  0  0  0  0  0999 V2000
  184.8850  177.7470  146.8230 C   0  0  0  0  0  0  0  0  0  0  0  0
  186.8170  176.1880  143.8430 C   0  0  2  0  0  3  0  0  0  0  0  0
  186.7050  176.6430  142.4030 C   0  0  0  0  0  0  0  0  0  0  0  0
  185.5660  177.9160  140.6720 C   0  0  0  0  0  0  0  0  0  0  0  0
  186.3790  177.2710  144.8430 C   0  0  1  0  0  3  0  0  0  0  0  0
  185.7770  178.6570  147.2580 C   0  0  0  0  0  3  0  0  0  0  0  0
  185.6920  177.5310  142.0090 C   0  0  0  0  0  3  0  0  0  0  0  0
  189.2500  176.7800  144.5460 C   0  0  1  0  0  3  0  0  0  0  0  0
  183.7370  177.5700  147.5240 F   0  0  0  0  0  0  0  0  0  0  0  0
  188.5920  175.1770  141.7830 N   0  0  0  0  0  2  0  0  0  0  0  0
  184.5680  178.8050  140.2970 O   0  0  0  0  0  1  0  0  0  0  0  0
  188.6500  177.9920  144.9770 O   0  0  0  0  0  0  0  0  0  0  0  0
  188.2280  175.6560  144.1690 C   0  0  2  0  0  3  0  0  0  0  0  0
  185.1920  176.8020  145.6820 C   0  0  0  0  0  2  0  0  0  0  0  0
  186.4420  177.4050  139.7120 C   0  0  0  0  0  3  0  0  0  0  0  0
  187.5260  177.6940  145.7620 C   0  0  1  0  0  3  0  0  0  0  0  0
  187.0830  178.9190  146.5500 C   0  0  0  0  0  2  0  0  0  0  0  0
  188.6980  174.6300  143.1330 C   0  0  0  0  0  2  0  0  0  0  0  0
  187.5630  176.1030  141.4210 C   0  0  0  0  0  0  0  0  0  0  0  0
  187.4380  176.5000  140.0860 C   0  0  0  0  0  3  0  0  0  0  0  0
  190.2080  177.0990  143.4030 C   0  0  0  0  0  2  0  0  0  0  0  0
  192.5240  177.1630  142.7760 O   0  0  0  0  0  1  0  0  0  0  0  0
  191.6570  177.1510  143.8710 C   0  0  2  0  0  3  0  0  0  0  0  0
  194.8070  175.0490  145.3030 C   0  0  0  0  0  0  0  0  0  0  0  0
  192.7170  176.4160  146.1070 C   0  0  0  0  0  2  0  0  0  0  0  0
  192.1160  174.2600  143.1740 O   0  0  0  0  0  0  0  0  0  0  0  0
  196.0620  174.3980  145.7630 C   0  0  0  0  0  1  0  0  0  0  0  0
  194.4790  176.7430  145.8060 S   0  0  0  0  0  0  0  0  0  0  0  0
  192.7100  174.8580  144.1100 C   0  0  0  0  0  0  0  0  0  0  0  0
  192.0110  175.9920  144.8140 C   0  0  2  0  0  3  0  0  0  0  0  0
  194.0020  174.3930  144.5230 N   0  0  0  0  0  0  0  0  0  0  0  0
  1  6  2  0  0  0  0
  1  9  1  0  0  0  0
  2  3  1  6  0  0  0
  2 13  1  0  0  0  0
  2  5  1  0  0  0  0
  4  7  2  0  0  0  0
  5 14  1  1  0  0  0
  5 16  1  0  0  0  0
  7  3  1  0  0  0  0
  8 21  1  6  0  0  0
  8 12  1  0  0  0  0
 10 18  1  0  0  0  0
 11  4  1  0  0  0  0
 12 16  1  0  0  0  0
 13 18  1  6  0  0  0
 13  8  1  0  0  0  0
 14  1  1  0  0  0  0
 15 20  2  0  0  0  0
 15  4  1  0  0  0  0
 16 17  1  6  0  0  0
 17  6  1  0  0  0  0
 19 10  1  0  0  0  0
 19  3  2  0  0  0  0
 20 19  1  0  0  0  0
 21 23  1  0  0  0  0
 23 22  1  6  0  0  0
 24 27  1  0  0  0  0
 24 28  1  0  0  0  0
 26 29  2  0  0  0  0
 28 25  1  0  0  0  0
 29 31  1  0  0  0  0
 29 30  1  0  0  0  0
 30 23  1  6  0  0  0
 30 25  1  0  0  0  0
 31 24  2  0  0  0  0
M  END
>  <MODEL>
6

>  <REMARK>
 VINA RESULT:      -7.4      3.831      7.373
  Name = 
  3 active torsions:
  status: ('A' for Active; 'I' for Inactive)
    1  A    between atoms: C_5  and  C_16
    2  A    between atoms: C_5  and  C_30
    3  A    between atoms: C_10  and  C_16
                            x       y       z     vdW  Elec       q    Type
                         _______ _______ _______ _____ _____    ______ ____

>  <TORSDO>
F 3

$$$$
=
 OpenBabel11112417053D

 31 35  0  0  1  0  0  0  0  0999 V2000
  190.4530  171.2250  141.5060 C   0  0  0  0  0  0  0  0  0  0  0  0
  191.2890  173.3630  144.6330 C   0  0  2  0  0  3  0  0  0  0  0  0
  192.6310  174.0070  144.9100 C   0  0  0  0  0  0  0  0  0  0  0  0
  195.0040  174.2340  144.4320 C   0  0  0  0  0  0  0  0  0  0  0  0
  191.0810  173.0430  143.1430 C   0  0  1  0  0  3  0  0  0  0  0  0
  189.9400  172.1620  140.6860 C   0  0  0  0  0  3  0  0  0  0  0  0
  193.7590  173.6690  144.1460 C   0  0  0  0  0  3  0  0  0  0  0  0
  189.6580  175.3520  144.2470 C   0  0  1  0  0  3  0  0  0  0  0  0
  190.4410  169.9290  141.1070 F   0  0  0  0  0  0  0  0  0  0  0  0
  191.6590  175.2330  146.8200 N   0  0  0  0  0  2  0  0  0  0  0  0
  196.1100  173.9020  143.6600 O   0  0  0  0  0  1  0  0  0  0  0  0
  190.0250  175.1680  142.8880 O   0  0  0  0  0  0  0  0  0  0  0  0
  190.1230  174.2000  145.1990 C   0  0  2  0  0  3  0  0  0  0  0  0
  190.8850  171.5450  142.9200 C   0  0  0  0  0  2  0  0  0  0  0  0
  195.1380  175.1300  145.4940 C   0  0  0  0  0  3  0  0  0  0  0  0
  189.8950  173.8110  142.5570 C   0  0  1  0  0  3  0  0  0  0  0  0
  189.9030  173.6260  141.0450 C   0  0  0  0  0  2  0  0  0  0  0  0
  190.3600  174.5830  146.6630 C   0  0  0  0  0  2  0  0  0  0  0  0
  192.7820  174.8850  146.0050 C   0  0  0  0  0  0  0  0  0  0  0  0
  194.0300  175.4540  146.2790 C   0  0  0  0  0  3  0  0  0  0  0  0
  190.1630  176.7180  144.7000 C   0  0  0  0  0  2  0  0  0  0  0  0
  189.2580  177.9170  146.5720 O   0  0  0  0  0  1  0  0  0  0  0  0
  189.0370  177.5960  145.2310 C   0  0  2  0  0  3  0  0  0  0  0  0
  185.0950  178.2600  145.8730 C   0  0  0  0  0  0  0  0  0  0  0  0
  186.7790  177.5810  143.9790 C   0  0  0  0  0  2  0  0  0  0  0  0
  187.4520  176.0450  147.2650 O   0  0  0  0  0  0  0  0  0  0  0  0
  183.6900  178.6650  146.1370 C   0  0  0  0  0  1  0  0  0  0  0  0
  186.0120  179.1140  144.5850 S   0  0  0  0  0  0  0  0  0  0  0  0
  186.9320  176.7650  146.3720 C   0  0  0  0  0  0  0  0  0  0  0  0
  187.6570  176.9450  145.0630 C   0  0  2  0  0  3  0  0  0  0  0  0
  185.6340  177.3290  146.6010 N   0  0  0  0  0  0  0  0  0  0  0  0
  1 14  1  0  0  0  0
  2  3  1  6  0  0  0
  2 13  1  0  0  0  0
  3 19  1  0  0  0  0
  4 15  2  0  0  0  0
  5 14  1  1  0  0  0
  5  2  1  0  0  0  0
  6 17  1  0  0  0  0
  6  1  2  0  0  0  0
  7  4  1  0  0  0  0
  7  3  2  0  0  0  0
  8 21  1  1  0  0  0
  8 13  1  0  0  0  0
  9  1  1  0  0  0  0
 11  4  1  0  0  0  0
 12  8  1  0  0  0  0
 13 18  1  1  0  0  0
 15 20  1  0  0  0  0
 16 17  1  6  0  0  0
 16 12  1  0  0  0  0
 16  5  1  0  0  0  0
 18 10  1  0  0  0  0
 19 20  2  0  0  0  0
 19 10  1  0  0  0  0
 21 23  1  0  0  0  0
 23 22  1  1  0  0  0
 24 27  1  0  0  0  0
 24 31  2  0  0  0  0
 25 28  1  0  0  0  0
 25 30  1  0  0  0  0
 28 24  1  0  0  0  0
 29 31  1  0  0  0  0
 29 26  2  0  0  0  0
 30 23  1  1  0  0  0
 30 29  1  0  0  0  0
M  END
>  <MODEL>
7

>  <REMARK>
 VINA RESULT:      -7.4      2.759      4.684
  Name = 
  3 active torsions:
  status: ('A' for Active; 'I' for Inactive)
    1  A    between atoms: C_5  and  C_16
    2  A    between atoms: C_5  and  C_30
    3  A    between atoms: C_10  and  C_16
                            x       y       z     vdW  Elec       q    Type
                         _______ _______ _______ _____ _____    ______ ____

>  <TORSDO>
F 3

$$$$
=
 OpenBabel11112417053D

 31 35  0  0  1  0  0  0  0  0999 V2000
  186.7030  177.9070  147.6300 C   0  0  0  0  0  0  0  0  0  0  0  0
  188.3320  175.2390  145.3340 C   0  0  2  0  0  3  0  0  0  0  0  0
  188.4310  175.3360  143.8260 C   0  0  0  0  0  0  0  0  0  0  0  0
  187.7720  176.3750  141.7280 C   0  0  0  0  0  0  0  0  0  0  0  0
  188.1350  176.6100  146.0040 C   0  0  1  0  0  3  0  0  0  0  0  0
  187.7750  178.6540  147.9550 C   0  0  0  0  0  3  0  0  0  0  0  0
  187.7120  176.3160  143.1230 C   0  0  0  0  0  3  0  0  0  0  0  0
  190.7890  175.3840  146.1770 C   0  0  1  0  0  3  0  0  0  0  0  0
  185.5080  178.1910  148.2080 F   0  0  0  0  0  0  0  0  0  0  0  0
  189.9000  173.3520  143.7860 N   0  0  0  0  0  2  0  0  0  0  0  0
  187.0680  177.3560  141.0440 O   0  0  0  0  0  1  0  0  0  0  0  0
  190.5030  176.7730  146.2480 O   0  0  0  0  0  0  0  0  0  0  0  0
  189.5320  174.4820  145.9410 C   0  0  2  0  0  3  0  0  0  0  0  0
  186.8180  176.6640  146.7770 C   0  0  0  0  0  2  0  0  0  0  0  0
  188.5400  175.4460  141.0210 C   0  0  0  0  0  3  0  0  0  0  0  0
  189.2950  176.9580  146.9380 C   0  0  1  0  0  3  0  0  0  0  0  0
  189.1440  178.4110  147.3700 C   0  0  0  0  0  2  0  0  0  0  0  0
  189.7770  173.1490  145.2270 C   0  0  0  0  0  2  0  0  0  0  0  0
  189.1740  174.3790  143.1020 C   0  0  0  0  0  0  0  0  0  0  0  0
  189.2380  174.4510  141.7070 C   0  0  0  0  0  3  0  0  0  0  0  0
  191.8640  175.1700  145.1170 C   0  0  0  0  0  2  0  0  0  0  0  0
  191.9860  176.6060  143.1980 O   0  0  0  0  0  1  0  0  0  0  0  0
  192.3640  176.4870  144.5370 C   0  0  2  0  0  3  0  0  0  0  0  0
  195.7310  174.4120  145.4010 C   0  0  0  0  0  0  0  0  0  0  0  0
  194.7000  175.9780  143.5650 C   0  0  0  0  0  2  0  0  0  0  0  0
  193.9630  176.9800  147.0380 O   0  0  0  0  0  0  0  0  0  0  0  0
  196.8740  173.5110  145.7030 C   0  0  0  0  0  1  0  0  0  0  0  0
  194.8390  174.1890  143.8570 S   0  0  0  0  0  0  0  0  0  0  0  0
  194.3860  176.3150  146.0560 C   0  0  0  0  0  0  0  0  0  0  0  0
  193.8840  176.6500  144.6750 C   0  0  2  0  0  3  0  0  0  0  0  0
  195.3850  175.3100  146.2740 N   0  0  0  0  0  0  0  0  0  0  0  0
  1  6  2  0  0  0  0
  1  9  1  0  0  0  0
  2  3  1  6  0  0  0
  2 13  1  0  0  0  0
  2  5  1  0  0  0  0
  4  7  2  0  0  0  0
  5 14  1  1  0  0  0
  5 16  1  0  0  0  0
  7  3  1  0  0  0  0
  8 21  1  6  0  0  0
  8 12  1  0  0  0  0
 10 18  1  0  0  0  0
 11  4  1  0  0  0  0
 12 16  1  0  0  0  0
 13 18  1  6  0  0  0
 13  8  1  0  0  0  0
 14  1  1  0  0  0  0
 15 20  2  0  0  0  0
 15  4  1  0  0  0  0
 16 17  1  6  0  0  0
 17  6  1  0  0  0  0
 19 10  1  0  0  0  0
 19  3  2  0  0  0  0
 20 19  1  0  0  0  0
 23 22  1  6  0  0  0
 23 21  1  0  0  0  0
 24 27  1  0  0  0  0
 24 31  2  0  0  0  0
 25 28  1  0  0  0  0
 25 30  1  0  0  0  0
 28 24  1  0  0  0  0
 29 31  1  0  0  0  0
 29 26  2  0  0  0  0
 30 23  1  1  0  0  0
 30 29  1  0  0  0  0
M  END
>  <MODEL>
8

>  <REMARK>
 VINA RESULT:      -7.3      3.921      7.073
  Name = 
  3 active torsions:
  status: ('A' for Active; 'I' for Inactive)
    1  A    between atoms: C_5  and  C_16
    2  A    between atoms: C_5  and  C_30
    3  A    between atoms: C_10  and  C_16
                            x       y       z     vdW  Elec       q    Type
                         _______ _______ _______ _____ _____    ______ ____

>  <TORSDO>
F 3

$$$$
=
 OpenBabel11112417053D

 31 35  0  0  1  0  0  0  0  0999 V2000
  186.2580  177.1000  142.8490 C   0  0  0  0  0  0  0  0  0  0  0  0
  188.7090  174.0950  142.7760 C   0  0  2  0  0  3  0  0  0  0  0  0
  189.4100  173.5760  141.5370 C   0  0  0  0  0  0  0  0  0  0  0  0
  189.6450  173.5040  139.1180 C   0  0  0  0  0  0  0  0  0  0  0  0
  188.2410  175.5520  142.6260 C   0  0  1  0  0  3  0  0  0  0  0  0
  187.0970  178.1070  143.1530 C   0  0  0  0  0  3  0  0  0  0  0  0
  189.0260  174.0160  140.2600 C   0  0  0  0  0  3  0  0  0  0  0  0
  190.6120  175.0510  144.2700 C   0  0  1  0  0  3  0  0  0  0  0  0
  184.9290  177.3580  142.7660 F   0  0  0  0  0  0  0  0  0  0  0  0
  190.7920  172.0820  142.9330 N   0  0  0  0  0  2  0  0  0  0  0  0
  189.2670  173.9560  137.8610 O   0  0  0  0  0  1  0  0  0  0  0  0
  190.3060  176.2600  143.5920 O   0  0  0  0  0  0  0  0  0  0  0  0
  189.5700  173.9070  144.0430 C   0  0  2  0  0  3  0  0  0  0  0  0
  186.7240  175.6630  142.7630 C   0  0  0  0  0  2  0  0  0  0  0  0
  190.6440  172.5350  139.2390 C   0  0  0  0  0  3  0  0  0  0  0  0
  188.9200  176.4750  143.6400 C   0  0  1  0  0  3  0  0  0  0  0  0
  188.5890  177.9160  143.2740 C   0  0  0  0  0  2  0  0  0  0  0  0
  190.0990  172.4740  144.1580 C   0  0  0  0  0  2  0  0  0  0  0  0
  190.3940  172.5710  141.6490 C   0  0  0  0  0  0  0  0  0  0  0  0
  191.0170  172.0700  140.5010 C   0  0  0  0  0  3  0  0  0  0  0  0
  192.0270  174.6320  143.8860 C   0  0  0  0  0  2  0  0  0  0  0  0
  192.7360  175.1300  141.6480 O   0  0  0  0  0  1  0  0  0  0  0  0
  192.6850  175.6360  142.9480 C   0  0  2  0  0  3  0  0  0  0  0  0
  195.7560  174.3950  145.2770 C   0  0  0  0  0  0  0  0  0  0  0  0
  195.2250  175.1890  142.8320 C   0  0  0  0  0  2  0  0  0  0  0  0
  193.4670  177.0640  145.4790 O   0  0  0  0  0  0  0  0  0  0  0  0
  196.8050  173.7910  146.1380 C   0  0  0  0  0  1  0  0  0  0  0  0
  195.3600  173.6040  143.7130 S   0  0  0  0  0  0  0  0  0  0  0  0
  194.1880  176.2020  144.9090 C   0  0  0  0  0  0  0  0  0  0  0  0
  194.0910  176.0410  143.4140 C   0  0  2  0  0  3  0  0  0  0  0  0
  195.1290  175.4550  145.6910 N   0  0  0  0  0  0  0  0  0  0  0  0
  1  6  2  0  0  0  0
  2  3  1  6  0  0  0
  2 13  1  0  0  0  0
  3 19  1  0  0  0  0
  4 15  2  0  0  0  0
  4  7  1  0  0  0  0
  5 14  1  1  0  0  0
  5  2  1  0  0  0  0
  5 16  1  0  0  0  0
  6 17  1  0  0  0  0
  7  3  2  0  0  0  0
  8 21  1  6  0  0  0
  9  1  1  0  0  0  0
 10 18  1  0  0  0  0
 11  4  1  0  0  0  0
 12 16  1  0  0  0  0
 12  8  1  0  0  0  0
 13 18  1  6  0  0  0
 13  8  1  0  0  0  0
 14  1  1  0  0  0  0
 15 20  1  0  0  0  0
 16 17  1  6  0  0  0
 19 10  1  0  0  0  0
 20 19  2  0  0  0  0
 23 22  1  6  0  0  0
 23 21  1  0  0  0  0
 24 31  2  0  0  0  0
 24 27  1  0  0  0  0
 25 30  1  0  0  0  0
 25 28  1  0  0  0  0
 28 24  1  0  0  0  0
 29 26  2  0  0  0  0
 29 31  1  0  0  0  0
 30 23  1  1  0  0  0
 30 29  1  0  0  0  0
M  END
>  <MODEL>
9

>  <REMARK>
 VINA RESULT:      -7.3      4.178      7.231
  Name = 
  3 active torsions:
  status: ('A' for Active; 'I' for Inactive)
    1  A    between atoms: C_5  and  C_16
    2  A    between atoms: C_5  and  C_30
    3  A    between atoms: C_10  and  C_16
                            x       y       z     vdW  Elec       q    Type
                         _______ _______ _______ _____ _____    ______ ____

>  <TORSDO>
F 3

$$$$
