=
 OpenBabel11112417303D

 37 43  0  0  1  0  0  0  0  0999 V2000
  189.2620  173.4830  141.0720 C   0  0  2  0  0  3  0  0  0  0  0  0
  188.2100  177.6720  142.7760 C   0  0  1  0  0  0  0  0  0  0  0  0
  190.6510  175.4390  145.2460 C   0  0  0  0  0  0  0  0  0  0  0  0
  193.3030  173.3490  143.2430 C   0  0  0  0  0  2  0  0  0  0  0  0
  188.9540  177.1310  145.1240 C   0  0  0  0  0  0  0  0  0  0  0  0
  191.2550  174.3690  144.3670 C   0  0  2  0  0  3  0  0  0  0  0  0
  191.2730  172.3960  140.1250 N   0  0  0  0  0  0  0  0  0  0  0  0
  189.6350  176.0530  144.5930 C   0  0  0  0  0  0  0  0  0  0  0  0
  192.7980  174.4880  144.1540 C   0  0  1  0  0  3  0  0  0  0  0  0
  189.2600  177.5380  146.3880 N   0  0  0  0  0  0  0  0  0  0  0  0
  190.4240  173.5870  140.0620 C   0  0  0  0  0  2  0  0  0  0  0  0
  189.4540  175.5870  143.2900 N   0  0  0  0  0  0  0  0  0  0  0  0
  189.3060  178.4750  142.4590 O   0  0  0  0  0  1  0  0  0  0  0  0
  192.1210  175.2560  147.2700 C   0  0  0  0  0  2  0  0  0  0  0  0
  190.2510  176.9210  147.1040 C   0  0  0  0  0  3  0  0  0  0  0  0
  188.5110  176.2140  142.3620 C   0  0  0  0  0  2  0  0  0  0  0  0
  191.8960  172.2730  141.4540 C   0  0  1  0  0  3  0  0  0  0  0  0
  192.8330  173.4510  141.8010 C   0  0  0  0  0  2  0  0  0  0  0  0
  190.9760  175.8490  146.5420 C   0  0  0  0  0  0  0  0  0  0  0  0
  190.4670  174.5700  143.0190 C   0  0  2  0  0  3  0  0  0  0  0  0
  187.9000  177.7990  144.2870 C   0  0  0  0  0  2  0  0  0  0  0  0
  193.6230  174.3950  145.4720 C   0  0  2  0  0  3  0  0  0  0  0  0
  187.0080  178.1570  141.9930 C   0  0  0  0  0  1  0  0  0  0  0  0
  190.7950  172.0890  142.5090 C   0  0  0  0  0  2  0  0  0  0  0  0
  192.3020  172.5160  139.1010 C   0  0  0  0  0  1  0  0  0  0  0  0
  189.8180  173.2740  142.4980 C   0  0  2  0  0  3  0  0  0  0  0  0
  193.3770  175.5200  146.4720 C   0  0  0  0  0  2  0  0  0  0  0  0
  195.8470  173.3900  145.8690 C   0  0  0  0  0  3  0  0  0  0  0  0
  195.1060  174.3080  145.2290 C   0  0  0  0  0  0  0  0  0  0  0  0
  195.7180  175.2910  144.2600 C   0  0  0  0  0  2  0  0  0  0  0  0
  197.8260  175.9000  143.3150 O   0  0  0  0  0  0  0  0  0  0  0  0
  197.9400  174.0990  144.8330 C   0  0  0  0  0  3  0  0  0  0  0  0
  197.2050  175.1340  144.0950 C   0  0  0  0  0  0  0  0  0  0  0  0
  197.3000  173.2800  145.6650 C   0  0  0  0  0  3  0  0  0  0  0  0
  188.3290  172.4130  140.6980 N   0  0  0  0  0  0  0  0  0  0  0  0
  187.1760  172.6110  141.3840 O   0  0  0  0  0  1  0  0  0  0  0  0
  187.9870  172.5820  139.2950 C   0  0  0  0  0  1  0  0  0  0  0  0
  1 35  1  6  0  0  0
  1 26  1  0  0  0  0
  2 23  1  6  0  0  0
  2 21  1  0  0  0  0
  3 19  1  0  0  0  0
  5 10  2  0  0  0  0
  6  3  1  1  0  0  0
  7 17  1  0  0  0  0
  8  5  1  0  0  0  0
  8  3  2  0  0  0  0
  9  4  1  6  0  0  0
  9  6  1  0  0  0  0
  9 22  1  0  0  0  0
 10 15  1  0  0  0  0
 11  7  1  0  0  0  0
 11  1  1  0  0  0  0
 12  8  1  0  0  0  0
 13  2  1  0  0  0  0
 16  2  1  0  0  0  0
 16 12  1  0  0  0  0
 17 18  1  1  0  0  0
 17 24  1  0  0  0  0
 18  4  1  0  0  0  0
 19 15  2  0  0  0  0
 19 14  1  0  0  0  0
 20 12  1  1  0  0  0
 20  6  1  0  0  0  0
 21  5  1  0  0  0  0
 22 29  1  6  0  0  0
 22 27  1  0  0  0  0
 25  7  1  0  0  0  0
 26 24  1  6  0  0  0
 26 20  1  0  0  0  0
 27 14  1  0  0  0  0
 29 28  2  0  0  0  0
 30 29  1  0  0  0  0
 31 33  2  0  0  0  0
 32 34  2  0  0  0  0
 33 30  1  0  0  0  0
 33 32  1  0  0  0  0
 34 28  1  0  0  0  0
 35 36  1  0  0  0  0
 37 35  1  0  0  0  0
M  END
>  <MODEL>
1

>  <REMARK>
 VINA RESULT:      -8.4      0.000      0.000
  Name = 
  2 active torsions:
  status: ('A' for Active; 'I' for Inactive)
    1  A    between atoms: C_1  and  N_4
    2  A    between atoms: C_23  and  C_30
                            x       y       z     vdW  Elec       q    Type
                         _______ _______ _______ _____ _____    ______ ____

>  <TORSDO>
F 2

$$$$
=
 OpenBabel11112417303D

 37 43  0  0  1  0  0  0  0  0999 V2000
  195.1220  174.3590  144.3620 C   0  0  2  0  0  3  0  0  0  0  0  0
  194.4800  173.5200  139.8400 C   0  0  1  0  0  0  0  0  0  0  0  0
  191.0470  173.1460  142.1030 C   0  0  0  0  0  0  0  0  0  0  0  0
  190.8210  175.8480  144.9420 C   0  0  0  0  0  2  0  0  0  0  0  0
  192.2380  172.4110  140.1530 C   0  0  0  0  0  0  0  0  0  0  0  0
  191.3210  173.8890  143.3890 C   0  0  2  0  0  3  0  0  0  0  0  0
  194.5140  176.1600  145.9460 N   0  0  0  0  0  0  0  0  0  0  0  0
  192.2010  172.9820  141.4100 C   0  0  0  0  0  0  0  0  0  0  0  0
  190.4560  175.1730  143.6030 C   0  0  1  0  0  3  0  0  0  0  0  0
  191.0830  171.9150  139.6270 N   0  0  0  0  0  0  0  0  0  0  0  0
  195.1060  175.8760  144.6370 C   0  0  0  0  0  2  0  0  0  0  0  0
  193.3030  173.5790  142.0240 N   0  0  0  0  0  0  0  0  0  0  0  0
  193.9790  174.7150  139.3200 O   0  0  0  0  0  1  0  0  0  0  0  0
  188.5610  172.8580  142.2580 C   0  0  0  0  0  2  0  0  0  0  0  0
  189.8990  172.0200  140.3080 C   0  0  0  0  0  3  0  0  0  0  0  0
  194.6130  173.6490  141.3740 C   0  0  0  0  0  2  0  0  0  0  0  0
  193.1080  175.7210  145.9850 C   0  0  1  0  0  3  0  0  0  0  0  0
  192.2100  176.4640  144.9710 C   0  0  0  0  0  2  0  0  0  0  0  0
  189.8560  172.6440  141.5720 C   0  0  0  0  0  0  0  0  0  0  0  0
  192.8490  174.2390  143.2460 C   0  0  2  0  0  3  0  0  0  0  0  0
  193.5530  172.3520  139.4290 C   0  0  0  0  0  2  0  0  0  0  0  0
  188.9230  174.8950  143.6530 C   0  0  2  0  0  3  0  0  0  0  0  0
  195.8560  173.2760  139.2560 C   0  0  0  0  0  1  0  0  0  0  0  0
  193.0520  174.1990  145.7910 C   0  0  0  0  0  2  0  0  0  0  0  0
  194.5970  177.5950  146.1820 C   0  0  0  0  0  1  0  0  0  0  0  0
  193.6890  173.7890  144.4560 C   0  0  2  0  0  3  0  0  0  0  0  0
  188.3210  174.3470  142.3640 C   0  0  0  0  0  2  0  0  0  0  0  0
  187.8290  176.3200  145.3520 C   0  0  0  0  0  3  0  0  0  0  0  0
  188.1240  176.1040  144.0610 C   0  0  0  0  0  0  0  0  0  0  0  0
  187.6620  177.0410  142.9700 C   0  0  0  0  0  2  0  0  0  0  0  0
  186.4170  179.0560  142.6580 O   0  0  0  0  0  0  0  0  0  0  0  0
  186.5840  178.3720  144.9080 C   0  0  0  0  0  3  0  0  0  0  0  0
  186.8590  178.2080  143.4750 C   0  0  0  0  0  0  0  0  0  0  0  0
  187.0420  177.4840  145.7880 C   0  0  0  0  0  3  0  0  0  0  0  0
  196.0370  173.6640  145.2750 N   0  0  0  0  0  0  0  0  0  0  0  0
  196.0180  172.3450  144.9570 O   0  0  0  0  0  1  0  0  0  0  0  0
  197.3890  174.1180  144.9930 C   0  0  0  0  0  1  0  0  0  0  0  0
  1 26  1  0  0  0  0
  1 11  1  0  0  0  0
  1 35  1  1  0  0  0
  2 23  1  6  0  0  0
  2 16  1  0  0  0  0
  4 18  1  0  0  0  0
  5  8  1  0  0  0  0
  6  3  1  6  0  0  0
  6  9  1  0  0  0  0
  7 17  1  0  0  0  0
  7 25  1  0  0  0  0
  8 12  1  0  0  0  0
  8  3  2  0  0  0  0
  9 22  1  0  0  0  0
  9  4  1  1  0  0  0
 10  5  2  0  0  0  0
 10 15  1  0  0  0  0
 11  7  1  0  0  0  0
 13  2  1  0  0  0  0
 14 27  1  0  0  0  0
 15 19  2  0  0  0  0
 16 12  1  0  0  0  0
 17 18  1  6  0  0  0
 19  3  1  0  0  0  0
 19 14  1  0  0  0  0
 20 12  1  6  0  0  0
 20  6  1  0  0  0  0
 20 26  1  0  0  0  0
 21  2  1  0  0  0  0
 21  5  1  0  0  0  0
 22 29  1  6  0  0  0
 24 17  1  0  0  0  0
 26 24  1  1  0  0  0
 27 22  1  0  0  0  0
 28 34  1  0  0  0  0
 29 28  2  0  0  0  0
 30 33  1  0  0  0  0
 30 29  1  0  0  0  0
 31 33  2  0  0  0  0
 32 34  2  0  0  0  0
 33 32  1  0  0  0  0
 36 35  1  0  0  0  0
 37 35  1  0  0  0  0
M  END
>  <MODEL>
2

>  <REMARK>
 VINA RESULT:      -8.0      2.431      7.615
  Name = 
  2 active torsions:
  status: ('A' for Active; 'I' for Inactive)
    1  A    between atoms: C_1  and  N_4
    2  A    between atoms: C_23  and  C_30
                            x       y       z     vdW  Elec       q    Type
                         _______ _______ _______ _____ _____    ______ ____

>  <TORSDO>
F 2

$$$$
=
 OpenBabel11112417303D

 37 43  0  0  1  0  0  0  0  0999 V2000
  193.6410  171.9660  140.2720 C   0  0  2  0  0  3  0  0  0  0  0  0
  196.2320  170.1150  143.6510 C   0  0  1  0  0  0  0  0  0  0  0  0
  194.8310  173.9010  144.5160 C   0  0  0  0  0  0  0  0  0  0  0  0
  191.1750  174.4820  143.2110 C   0  0  0  0  0  2  0  0  0  0  0  0
  196.5860  172.3000  144.8590 C   0  0  0  0  0  0  0  0  0  0  0  0
  193.6740  174.1350  143.5740 C   0  0  2  0  0  3  0  0  0  0  0  0
  191.2430  172.4750  139.9380 N   0  0  0  0  0  0  0  0  0  0  0  0
  195.5240  172.8020  144.1310 C   0  0  0  0  0  0  0  0  0  0  0  0
  192.2770  174.2460  144.2660 C   0  0  1  0  0  3  0  0  0  0  0  0
  197.0050  172.9860  145.9590 N   0  0  0  0  0  0  0  0  0  0  0  0
  192.1930  171.4410  140.3520 C   0  0  0  0  0  2  0  0  0  0  0  0
  194.9670  172.1570  143.0270 N   0  0  0  0  0  0  0  0  0  0  0  0
  195.3140  169.5930  144.5640 O   0  0  0  0  0  1  0  0  0  0  0  0
  194.4870  175.7780  146.1440 C   0  0  0  0  0  2  0  0  0  0  0  0
  196.3620  174.1250  146.3640 C   0  0  0  0  0  3  0  0  0  0  0  0
  195.4710  170.8710  142.5400 C   0  0  0  0  0  2  0  0  0  0  0  0
  191.3100  173.6340  140.8450 C   0  0  1  0  0  3  0  0  0  0  0  0
  190.9190  173.2920  142.3000 C   0  0  0  0  0  2  0  0  0  0  0  0
  195.2500  174.6120  145.6440 C   0  0  0  0  0  0  0  0  0  0  0  0
  193.7560  172.8740  142.6350 C   0  0  2  0  0  3  0  0  0  0  0  0
  197.2350  171.0270  144.3970 C   0  0  0  0  0  2  0  0  0  0  0  0
  192.1720  175.4220  145.2830 C   0  0  2  0  0  3  0  0  0  0  0  0
  196.9950  168.9690  143.0200 C   0  0  0  0  0  1  0  0  0  0  0  0
  192.7100  174.2570  140.7600 C   0  0  0  0  0  2  0  0  0  0  0  0
  189.9050  171.8990  139.9600 C   0  0  0  0  0  1  0  0  0  0  0  0
  193.7920  173.2360  141.1380 C   0  0  2  0  0  3  0  0  0  0  0  0
  193.0910  175.3150  146.4950 C   0  0  0  0  0  2  0  0  0  0  0  0
  190.2310  174.7960  146.6820 C   0  0  0  0  0  3  0  0  0  0  0  0
  190.7680  175.6370  145.7830 C   0  0  0  0  0  0  0  0  0  0  0  0
  189.9970  176.8110  145.2300 C   0  0  0  0  0  2  0  0  0  0  0  0
  187.8630  177.8720  145.3880 O   0  0  0  0  0  0  0  0  0  0  0  0
  188.0920  175.9700  146.7630 C   0  0  0  0  0  3  0  0  0  0  0  0
  188.6020  176.9330  145.7790 C   0  0  0  0  0  0  0  0  0  0  0  0
  188.8600  174.9680  147.1870 C   0  0  0  0  0  3  0  0  0  0  0  0
  194.0380  172.2160  138.8810 N   0  0  0  0  0  0  0  0  0  0  0  0
  195.3130  172.6770  138.8900 O   0  0  0  0  0  1  0  0  0  0  0  0
  194.0850  170.9380  138.1880 C   0  0  0  0  0  1  0  0  0  0  0  0
  1 35  1  6  0  0  0
  1 11  1  0  0  0  0
  1 26  1  0  0  0  0
  2 23  1  6  0  0  0
  2 21  1  0  0  0  0
  2 13  1  0  0  0  0
  3 19  1  0  0  0  0
  5 10  2  0  0  0  0
  6  9  1  0  0  0  0
  6  3  1  1  0  0  0
  7 25  1  0  0  0  0
  7 11  1  0  0  0  0
  7 17  1  0  0  0  0
  8  3  2  0  0  0  0
  8  5  1  0  0  0  0
  9  4  1  6  0  0  0
  9 22  1  0  0  0  0
 10 15  1  0  0  0  0
 12  8  1  0  0  0  0
 14 27  1  0  0  0  0
 16 12  1  0  0  0  0
 16  2  1  0  0  0  0
 17 24  1  1  0  0  0
 17 18  1  0  0  0  0
 18  4  1  0  0  0  0
 19 14  1  0  0  0  0
 19 15  2  0  0  0  0
 20 12  1  1  0  0  0
 20  6  1  0  0  0  0
 21  5  1  0  0  0  0
 22 29  1  1  0  0  0
 22 27  1  0  0  0  0
 26 24  1  1  0  0  0
 26 20  1  0  0  0  0
 28 34  1  0  0  0  0
 29 28  2  0  0  0  0
 30 33  1  0  0  0  0
 30 29  1  0  0  0  0
 31 33  2  0  0  0  0
 32 34  2  0  0  0  0
 33 32  1  0  0  0  0
 35 36  1  0  0  0  0
 37 35  1  0  0  0  0
M  END
>  <MODEL>
3

>  <REMARK>
 VINA RESULT:      -7.2      2.855      6.762
  Name = 
  2 active torsions:
  status: ('A' for Active; 'I' for Inactive)
    1  A    between atoms: C_1  and  N_4
    2  A    between atoms: C_23  and  C_30
                            x       y       z     vdW  Elec       q    Type
                         _______ _______ _______ _____ _____    ______ ____

>  <TORSDO>
F 2

$$$$
=
 OpenBabel11112417303D

 37 43  0  0  1  0  0  0  0  0999 V2000
  192.0370  175.6870  145.9990 C   0  0  2  0  0  3  0  0  0  0  0  0
  195.7460  172.9800  145.3070 C   0  0  1  0  0  0  0  0  0  0  0  0
  192.3090  171.5820  143.4970 C   0  0  0  0  0  0  0  0  0  0  0  0
  190.1120  174.4780  142.0130 C   0  0  0  0  0  2  0  0  0  0  0  0
  194.4080  171.0000  144.5030 C   0  0  0  0  0  0  0  0  0  0  0  0
  191.3760  172.7670  143.4190 C   0  0  2  0  0  3  0  0  0  0  0  0
  190.6770  177.2330  144.6280 N   0  0  0  0  0  0  0  0  0  0  0  0
  193.3520  171.8700  144.3120 C   0  0  0  0  0  0  0  0  0  0  0  0
  191.0690  173.2680  141.9710 C   0  0  1  0  0  3  0  0  0  0  0  0
  194.3550  169.7700  143.9160 N   0  0  0  0  0  0  0  0  0  0  0  0
  192.0430  176.8730  145.0130 C   0  0  0  0  0  2  0  0  0  0  0  0
  193.3230  173.1740  144.8080 N   0  0  0  0  0  0  0  0  0  0  0  0
  196.2300  173.3460  144.0500 O   0  0  0  0  0  1  0  0  0  0  0  0
  191.1610  169.9900  141.9360 C   0  0  0  0  0  2  0  0  0  0  0  0
  193.3000  169.4190  143.1170 C   0  0  0  0  0  3  0  0  0  0  0  0
  194.4290  173.7360  145.5860 C   0  0  0  0  0  2  0  0  0  0  0  0
  190.0260  176.1160  143.9220 C   0  0  1  0  0  3  0  0  0  0  0  0
  190.7270  175.7390  142.5990 C   0  0  0  0  0  2  0  0  0  0  0  0
  192.2440  170.3260  142.8880 C   0  0  0  0  0  0  0  0  0  0  0  0
  192.1540  173.8520  144.2540 C   0  0  2  0  0  3  0  0  0  0  0  0
  195.5610  171.4440  145.3570 C   0  0  0  0  0  2  0  0  0  0  0  0
  190.3870  172.1980  141.0680 C   0  0  2  0  0  3  0  0  0  0  0  0
  196.7630  173.3800  146.3550 C   0  0  0  0  0  1  0  0  0  0  0  0
  189.9170  174.9160  144.8740 C   0  0  0  0  0  2  0  0  0  0  0  0
  190.7420  178.4020  143.7610 C   0  0  0  0  0  1  0  0  0  0  0  0
  191.3020  174.4810  145.3730 C   0  0  2  0  0  3  0  0  0  0  0  0
  191.2290  170.9600  140.7790 C   0  0  0  0  0  2  0  0  0  0  0  0
  188.6110  172.7680  139.4450 C   0  0  0  0  0  3  0  0  0  0  0  0
  189.9170  172.7570  139.7510 C   0  0  0  0  0  0  0  0  0  0  0  0
  190.9640  173.2840  138.7990 C   0  0  0  0  0  2  0  0  0  0  0  0
  191.1760  174.2690  136.6330 O   0  0  0  0  0  0  0  0  0  0  0  0
  188.9530  173.7840  137.2520 C   0  0  0  0  0  3  0  0  0  0  0  0
  190.3990  173.8060  137.5070 C   0  0  0  0  0  0  0  0  0  0  0  0
  188.1150  173.2970  138.1640 C   0  0  0  0  0  3  0  0  0  0  0  0
  191.4420  176.0690  147.2840 N   0  0  0  0  0  0  0  0  0  0  0  0
  191.4860  174.9860  148.1010 O   0  0  0  0  0  1  0  0  0  0  0  0
  192.3020  177.0650  147.9030 C   0  0  0  0  0  1  0  0  0  0  0  0
  1 35  1  1  0  0  0
  2 21  1  0  0  0  0
  2 16  1  0  0  0  0
  2 23  1  1  0  0  0
  3  8  1  0  0  0  0
  4 18  1  0  0  0  0
  5 21  1  0  0  0  0
  6  3  1  6  0  0  0
  6 20  1  0  0  0  0
  7 11  1  0  0  0  0
  8  5  2  0  0  0  0
  8 12  1  0  0  0  0
  9  4  1  1  0  0  0
  9  6  1  0  0  0  0
 10  5  1  0  0  0  0
 11  1  1  0  0  0  0
 12 16  1  0  0  0  0
 13  2  1  0  0  0  0
 14 19  1  0  0  0  0
 15 10  2  0  0  0  0
 17 18  1  6  0  0  0
 17  7  1  0  0  0  0
 17 24  1  0  0  0  0
 19 15  1  0  0  0  0
 19  3  2  0  0  0  0
 20 12  1  1  0  0  0
 20 26  1  0  0  0  0
 22 29  1  6  0  0  0
 22  9  1  0  0  0  0
 25  7  1  0  0  0  0
 26 24  1  6  0  0  0
 26  1  1  0  0  0  0
 27 22  1  0  0  0  0
 27 14  1  0  0  0  0
 28 29  2  0  0  0  0
 30 29  1  0  0  0  0
 31 33  2  0  0  0  0
 32 33  1  0  0  0  0
 32 34  2  0  0  0  0
 33 30  1  0  0  0  0
 34 28  1  0  0  0  0
 35 37  1  0  0  0  0
 35 36  1  0  0  0  0
M  END
>  <MODEL>
4

>  <REMARK>
 VINA RESULT:      -7.1      2.721      7.627
  Name = 
  2 active torsions:
  status: ('A' for Active; 'I' for Inactive)
    1  A    between atoms: C_1  and  N_4
    2  A    between atoms: C_23  and  C_30
                            x       y       z     vdW  Elec       q    Type
                         _______ _______ _______ _____ _____    ______ ____

>  <TORSDO>
F 2

$$$$
=
 OpenBabel11112417303D

 37 43  0  0  1  0  0  0  0  0999 V2000
  193.3870  171.7180  140.4730 C   0  0  2  0  0  3  0  0  0  0  0  0
  195.2880  170.9690  144.6430 C   0  0  1  0  0  0  0  0  0  0  0  0
  193.8510  174.8070  144.1360 C   0  0  0  0  0  0  0  0  0  0  0  0
  190.5010  174.8960  142.0930 C   0  0  0  0  0  2  0  0  0  0  0  0
  195.4760  173.4150  145.2250 C   0  0  0  0  0  0  0  0  0  0  0  0
  192.8870  174.7330  142.9770 C   0  0  2  0  0  3  0  0  0  0  0  0
  191.0990  172.0470  139.5890 N   0  0  0  0  0  0  0  0  0  0  0  0
  194.5740  173.6630  144.2080 C   0  0  0  0  0  0  0  0  0  0  0  0
  191.3920  174.9980  143.3490 C   0  0  1  0  0  3  0  0  0  0  0  0
  195.7100  174.3960  146.1420 N   0  0  0  0  0  0  0  0  0  0  0  0
  191.9350  171.1980  140.4410 C   0  0  0  0  0  2  0  0  0  0  0  0
  194.2060  172.7160  143.2510 N   0  0  0  0  0  0  0  0  0  0  0  0
  194.2100  170.7020  145.4870 O   0  0  0  0  0  1  0  0  0  0  0  0
  193.2700  177.0570  145.0780 C   0  0  0  0  0  2  0  0  0  0  0  0
  195.0350  175.5850  146.0860 C   0  0  0  0  0  3  0  0  0  0  0  0
  194.7560  171.3590  143.2460 C   0  0  0  0  0  2  0  0  0  0  0  0
  191.0330  173.4160  140.1270 C   0  0  1  0  0  3  0  0  0  0  0  0
  190.3820  173.4910  141.5260 C   0  0  0  0  0  2  0  0  0  0  0  0
  194.0810  175.8190  145.0730 C   0  0  0  0  0  0  0  0  0  0  0  0
  193.1030  173.2610  142.4640 C   0  0  2  0  0  3  0  0  0  0  0  0
  196.1650  172.0810  145.2660 C   0  0  0  0  0  2  0  0  0  0  0  0
  191.1370  176.4100  143.9560 C   0  0  2  0  0  3  0  0  0  0  0  0
  196.1220  169.7120  144.5080 C   0  0  0  0  0  1  0  0  0  0  0  0
  192.4420  174.0280  140.1190 C   0  0  0  0  0  2  0  0  0  0  0  0
  189.7650  171.4650  139.5350 C   0  0  0  0  0  1  0  0  0  0  0  0
  193.4130  173.1840  140.9570 C   0  0  2  0  0  3  0  0  0  0  0  0
  191.8230  176.6760  145.2910 C   0  0  0  0  0  2  0  0  0  0  0  0
  188.9700  176.1770  145.1240 C   0  0  0  0  0  3  0  0  0  0  0  0
  189.6730  176.7210  144.1170 C   0  0  0  0  0  0  0  0  0  0  0  0
  189.0350  177.6440  143.1070 C   0  0  0  0  0  2  0  0  0  0  0  0
  186.9270  178.6300  142.5630 O   0  0  0  0  0  0  0  0  0  0  0  0
  186.8740  177.2470  144.4730 C   0  0  0  0  0  3  0  0  0  0  0  0
  187.5680  177.8800  143.3440 C   0  0  0  0  0  0  0  0  0  0  0  0
  187.5350  176.4490  145.3080 C   0  0  0  0  0  3  0  0  0  0  0  0
  194.0310  171.5740  139.1620 N   0  0  0  0  0  0  0  0  0  0  0  0
  195.3020  172.0350  139.2710 O   0  0  0  0  0  1  0  0  0  0  0  0
  194.1500  170.1540  138.8700 C   0  0  0  0  0  1  0  0  0  0  0  0
  1 35  1  6  0  0  0
  1 26  1  0  0  0  0
  2 23  1  6  0  0  0
  2 21  1  0  0  0  0
  2 13  1  0  0  0  0
  3  8  2  0  0  0  0
  3 19  1  0  0  0  0
  5 21  1  0  0  0  0
  5 10  2  0  0  0  0
  6  9  1  0  0  0  0
  6  3  1  1  0  0  0
  7 17  1  0  0  0  0
  7 11  1  0  0  0  0
  8  5  1  0  0  0  0
  9  4  1  6  0  0  0
  9 22  1  0  0  0  0
 11  1  1  0  0  0  0
 12  8  1  0  0  0  0
 14 27  1  0  0  0  0
 15 10  1  0  0  0  0
 16 12  1  0  0  0  0
 16  2  1  0  0  0  0
 17 24  1  1  0  0  0
 17 18  1  0  0  0  0
 18  4  1  0  0  0  0
 19 14  1  0  0  0  0
 19 15  2  0  0  0  0
 20  6  1  0  0  0  0
 20 12  1  1  0  0  0
 22 29  1  1  0  0  0
 22 27  1  0  0  0  0
 25  7  1  0  0  0  0
 26 24  1  6  0  0  0
 26 20  1  0  0  0  0
 28 34  1  0  0  0  0
 29 28  2  0  0  0  0
 30 33  1  0  0  0  0
 30 29  1  0  0  0  0
 31 33  2  0  0  0  0
 32 34  2  0  0  0  0
 33 32  1  0  0  0  0
 35 36  1  0  0  0  0
 37 35  1  0  0  0  0
M  END
>  <MODEL>
5

>  <REMARK>
 VINA RESULT:      -7.0      2.604      6.629
  Name = 
  2 active torsions:
  status: ('A' for Active; 'I' for Inactive)
    1  A    between atoms: C_1  and  N_4
    2  A    between atoms: C_23  and  C_30
                            x       y       z     vdW  Elec       q    Type
                         _______ _______ _______ _____ _____    ______ ____

>  <TORSDO>
F 2

$$$$
=
 OpenBabel11112417303D

 37 43  0  0  1  0  0  0  0  0999 V2000
  194.1110  174.8080  143.9410 C   0  0  2  0  0  3  0  0  0  0  0  0
  190.0590  174.9150  146.2080 C   0  0  1  0  0  0  0  0  0  0  0  0
  189.6690  175.0500  142.0990 C   0  0  0  0  0  0  0  0  0  0  0  0
  192.2760  172.7560  140.2690 C   0  0  0  0  0  2  0  0  0  0  0  0
  188.7280  175.6920  144.2120 C   0  0  0  0  0  0  0  0  0  0  0  0
  190.9790  174.5410  141.5460 C   0  0  2  0  0  3  0  0  0  0  0  0
  195.3360  173.1650  142.5540 N   0  0  0  0  0  0  0  0  0  0  0  0
  189.7940  175.2970  143.4260 C   0  0  0  0  0  0  0  0  0  0  0  0
  190.8850  173.1780  140.7860 C   0  0  1  0  0  3  0  0  0  0  0  0
  187.5260  175.9250  143.6130 N   0  0  0  0  0  0  0  0  0  0  0  0
  194.6220  173.3580  143.8180 C   0  0  0  0  0  2  0  0  0  0  0  0
  191.0520  174.9690  143.9330 N   0  0  0  0  0  0  0  0  0  0  0  0
  189.5990  173.5980  146.1840 O   0  0  0  0  0  1  0  0  0  0  0  0
  188.2360  174.9640  140.0430 C   0  0  0  0  0  2  0  0  0  0  0  0
  187.3630  175.7290  142.2680 C   0  0  0  0  0  3  0  0  0  0  0  0
  191.3510  175.0170  145.3660 C   0  0  0  0  0  2  0  0  0  0  0  0
  194.4320  173.3790  141.4110 C   0  0  1  0  0  3  0  0  0  0  0  0
  193.2590  172.3750  141.3650 C   0  0  0  0  0  2  0  0  0  0  0  0
  188.4410  175.2830  141.4740 C   0  0  0  0  0  0  0  0  0  0  0  0
  191.8570  174.4180  142.8470 C   0  0  2  0  0  3  0  0  0  0  0  0
  188.9470  175.8570  145.6890 C   0  0  0  0  0  2  0  0  0  0  0  0
  189.9460  173.2160  139.5430 C   0  0  2  0  0  3  0  0  0  0  0  0
  190.3850  175.2910  147.6380 C   0  0  0  0  0  1  0  0  0  0  0  0
  193.9390  174.8330  141.4260 C   0  0  0  0  0  2  0  0  0  0  0  0
  195.8600  171.8060  142.5290 C   0  0  0  0  0  1  0  0  0  0  0  0
  193.2070  175.1540  142.7370 C   0  0  2  0  0  3  0  0  0  0  0  0
  188.4760  173.4840  139.8490 C   0  0  0  0  0  2  0  0  0  0  0  0
  189.9810  170.7560  139.2970 C   0  0  0  0  0  3  0  0  0  0  0  0
  190.0260  171.9640  138.7120 C   0  0  0  0  0  0  0  0  0  0  0  0
  190.1730  172.1200  137.2170 C   0  0  0  0  0  2  0  0  0  0  0  0
  190.3870  170.8180  135.2260 O   0  0  0  0  0  0  0  0  0  0  0  0
  190.1990  169.5340  137.1950 C   0  0  0  0  0  3  0  0  0  0  0  0
  190.2600  170.8140  136.4780 C   0  0  0  0  0  0  0  0  0  0  0  0
  190.0660  169.5100  138.5200 C   0  0  0  0  0  3  0  0  0  0  0  0
  195.2250  175.7550  144.0640 N   0  0  0  0  0  0  0  0  0  0  0  0
  194.7460  176.8870  144.6380 O   0  0  0  0  0  1  0  0  0  0  0  0
  196.1820  175.2060  145.0120 C   0  0  0  0  0  1  0  0  0  0  0  0
  1 35  1  6  0  0  0
  2 23  1  1  0  0  0
  3  8  1  0  0  0  0
  4 18  1  0  0  0  0
  5 21  1  0  0  0  0
  6  3  1  1  0  0  0
  6 20  1  0  0  0  0
  7 11  1  0  0  0  0
  8 12  1  0  0  0  0
  8  5  2  0  0  0  0
  9  4  1  6  0  0  0
  9  6  1  0  0  0  0
 10  5  1  0  0  0  0
 11  1  1  0  0  0  0
 12 16  1  0  0  0  0
 13  2  1  0  0  0  0
 14 19  1  0  0  0  0
 15 10  2  0  0  0  0
 16  2  1  0  0  0  0
 17 18  1  1  0  0  0
 17 24  1  0  0  0  0
 17  7  1  0  0  0  0
 19  3  2  0  0  0  0
 19 15  1  0  0  0  0
 20 12  1  1  0  0  0
 21  2  1  0  0  0  0
 22 29  1  1  0  0  0
 22 27  1  0  0  0  0
 22  9  1  0  0  0  0
 25  7  1  0  0  0  0
 26 24  1  6  0  0  0
 26 20  1  0  0  0  0
 26  1  1  0  0  0  0
 27 14  1  0  0  0  0
 29 28  2  0  0  0  0
 30 29  1  0  0  0  0
 31 33  2  0  0  0  0
 32 34  2  0  0  0  0
 33 32  1  0  0  0  0
 33 30  1  0  0  0  0
 34 28  1  0  0  0  0
 35 36  1  0  0  0  0
 35 37  1  0  0  0  0
M  END
>  <MODEL>
6

>  <REMARK>
 VINA RESULT:      -7.0      2.719      6.694
  Name = 
  2 active torsions:
  status: ('A' for Active; 'I' for Inactive)
    1  A    between atoms: C_1  and  N_4
    2  A    between atoms: C_23  and  C_30
                            x       y       z     vdW  Elec       q    Type
                         _______ _______ _______ _____ _____    ______ ____

>  <TORSDO>
F 2

$$$$
=
 OpenBabel11112417303D

 37 43  0  0  1  0  0  0  0  0999 V2000
  189.5140  175.8460  144.2450 C   0  0  2  0  0  3  0  0  0  0  0  0
  194.1320  175.8310  144.7310 C   0  0  1  0  0  0  0  0  0  0  0  0
  192.6160  172.3270  143.1580 C   0  0  0  0  0  0  0  0  0  0  0  0
  189.6390  172.9610  140.6780 C   0  0  0  0  0  2  0  0  0  0  0  0
  194.3580  173.3340  144.4660 C   0  0  0  0  0  0  0  0  0  0  0  0
  191.2390  172.6720  142.6420 C   0  0  2  0  0  3  0  0  0  0  0  0
  187.9190  175.9570  142.3560 N   0  0  0  0  0  0  0  0  0  0  0  0
  193.0850  173.3380  143.9300 C   0  0  0  0  0  0  0  0  0  0  0  0
  191.0790  172.5890  141.0900 C   0  0  1  0  0  3  0  0  0  0  0  0
  195.1400  172.2320  144.2840 N   0  0  0  0  0  0  0  0  0  0  0  0
  189.1100  176.5720  142.9460 C   0  0  0  0  0  2  0  0  0  0  0  0
  192.2190  174.4300  143.9960 N   0  0  0  0  0  0  0  0  0  0  0  0
  194.6280  176.1550  143.4670 O   0  0  0  0  0  1  0  0  0  0  0  0
  192.9690  170.0940  142.0730 C   0  0  0  0  0  2  0  0  0  0  0  0
  194.6930  171.1680  143.5470 C   0  0  0  0  0  3  0  0  0  0  0  0
  192.5960  175.6840  144.6520 C   0  0  0  0  0  2  0  0  0  0  0  0
  188.1920  174.5600  141.9770 C   0  0  1  0  0  3  0  0  0  0  0  0
  189.2880  174.4240  140.8970 C   0  0  0  0  0  2  0  0  0  0  0  0
  193.4090  171.1930  142.9620 C   0  0  0  0  0  0  0  0  0  0  0  0
  191.0530  174.1450  143.1650 C   0  0  2  0  0  3  0  0  0  0  0  0
  194.8180  174.5390  145.2350 C   0  0  0  0  0  2  0  0  0  0  0  0
  191.3500  171.1700  140.5070 C   0  0  2  0  0  3  0  0  0  0  0  0
  194.4600  176.9590  145.6860 C   0  0  0  0  0  1  0  0  0  0  0  0
  188.5300  173.7540  143.2390 C   0  0  0  0  0  2  0  0  0  0  0  0
  187.5420  176.7300  141.1810 C   0  0  0  0  0  1  0  0  0  0  0  0
  189.7490  174.3450  143.9610 C   0  0  2  0  0  3  0  0  0  0  0  0
  192.7760  170.6570  140.6830 C   0  0  0  0  0  2  0  0  0  0  0  0
  190.0660  170.1830  138.6380 C   0  0  0  0  0  3  0  0  0  0  0  0
  190.9960  171.0610  139.0470 C   0  0  0  0  0  0  0  0  0  0  0  0
  191.7310  171.9550  138.0780 C   0  0  0  0  0  2  0  0  0  0  0  0
  191.8640  172.4500  135.7440 O   0  0  0  0  0  0  0  0  0  0  0  0
  190.2880  170.7800  136.2810 C   0  0  0  0  0  3  0  0  0  0  0  0
  191.3180  171.7610  136.6440 C   0  0  0  0  0  0  0  0  0  0  0  0
  189.7000  170.0410  137.2200 C   0  0  0  0  0  3  0  0  0  0  0  0
  188.5090  176.0410  145.2960 N   0  0  0  0  0  0  0  0  0  0  0  0
  188.9410  175.3970  146.4090 O   0  0  0  0  0  1  0  0  0  0  0  0
  188.4850  177.4540  145.6420 C   0  0  0  0  0  1  0  0  0  0  0  0
  1 35  1  1  0  0  0
  2 21  1  0  0  0  0
  2 23  1  1  0  0  0
  3  8  1  0  0  0  0
  4 18  1  0  0  0  0
  5 21  1  0  0  0  0
  6  3  1  6  0  0  0
  6 20  1  0  0  0  0
  7 11  1  0  0  0  0
  8 12  1  0  0  0  0
  8  5  2  0  0  0  0
  9  4  1  1  0  0  0
  9  6  1  0  0  0  0
 10  5  1  0  0  0  0
 11  1  1  0  0  0  0
 12 16  1  0  0  0  0
 13  2  1  0  0  0  0
 14 19  1  0  0  0  0
 15 10  2  0  0  0  0
 16  2  1  0  0  0  0
 17 18  1  6  0  0  0
 17  7  1  0  0  0  0
 17 24  1  0  0  0  0
 19  3  2  0  0  0  0
 19 15  1  0  0  0  0
 20 26  1  0  0  0  0
 20 12  1  1  0  0  0
 22 29  1  6  0  0  0
 22 27  1  0  0  0  0
 22  9  1  0  0  0  0
 25  7  1  0  0  0  0
 26 24  1  6  0  0  0
 26  1  1  0  0  0  0
 27 14  1  0  0  0  0
 28 29  2  0  0  0  0
 30 29  1  0  0  0  0
 31 33  2  0  0  0  0
 32 33  1  0  0  0  0
 32 34  2  0  0  0  0
 33 30  1  0  0  0  0
 34 28  1  0  0  0  0
 35 37  1  0  0  0  0
 35 36  1  0  0  0  0
M  END
>  <MODEL>
7

>  <REMARK>
 VINA RESULT:      -7.0      2.559      6.762
  Name = 
  2 active torsions:
  status: ('A' for Active; 'I' for Inactive)
    1  A    between atoms: C_1  and  N_4
    2  A    between atoms: C_23  and  C_30
                            x       y       z     vdW  Elec       q    Type
                         _______ _______ _______ _____ _____    ______ ____

>  <TORSDO>
F 2

$$$$
=
 OpenBabel11112417303D

 37 43  0  0  1  0  0  0  0  0999 V2000
  189.2150  176.3060  145.0180 C   0  0  2  0  0  3  0  0  0  0  0  0
  193.8250  175.9960  145.4870 C   0  0  1  0  0  0  0  0  0  0  0  0
  192.1770  172.9620  143.2220 C   0  0  0  0  0  0  0  0  0  0  0  0
  189.2490  174.2220  140.9300 C   0  0  0  0  0  2  0  0  0  0  0  0
  193.9500  173.6010  144.7090 C   0  0  0  0  0  0  0  0  0  0  0  0
  190.8200  173.4640  142.7900 C   0  0  2  0  0  3  0  0  0  0  0  0
  187.6420  176.8740  143.1950 N   0  0  0  0  0  0  0  0  0  0  0  0
  192.6820  173.7700  144.1860 C   0  0  0  0  0  0  0  0  0  0  0  0
  190.6690  173.7110  141.2540 C   0  0  1  0  0  3  0  0  0  0  0  0
  194.6860  172.5290  144.3010 N   0  0  0  0  0  0  0  0  0  0  0  0
  188.8520  177.3030  143.8990 C   0  0  0  0  0  2  0  0  0  0  0  0
  191.8610  174.8600  144.4790 N   0  0  0  0  0  0  0  0  0  0  0  0
  194.3440  176.5540  144.3180 O   0  0  0  0  0  1  0  0  0  0  0  0
  192.4460  170.9900  141.6970 C   0  0  0  0  0  2  0  0  0  0  0  0
  194.2010  171.6610  143.3600 C   0  0  0  0  0  3  0  0  0  0  0  0
  192.2850  175.9330  145.3810 C   0  0  0  0  0  2  0  0  0  0  0  0
  187.8590  175.5760  142.5340 C   0  0  1  0  0  3  0  0  0  0  0  0
  188.9570  175.6210  141.4480 C   0  0  0  0  0  2  0  0  0  0  0  0
  192.9240  171.8610  142.7940 C   0  0  0  0  0  0  0  0  0  0  0  0
  190.6910  174.8040  143.6070 C   0  0  2  0  0  3  0  0  0  0  0  0
  194.4530  174.6000  145.7110 C   0  0  0  0  0  2  0  0  0  0  0  0
  190.8860  172.4340  140.3890 C   0  0  2  0  0  3  0  0  0  0  0  0
  194.1920  176.8860  146.6550 C   0  0  0  0  0  1  0  0  0  0  0  0
  188.1540  174.5120  143.6010 C   0  0  0  0  0  2  0  0  0  0  0  0
  187.3060  177.8890  142.2060 C   0  0  0  0  0  1  0  0  0  0  0  0
  189.3900  174.8890  144.4290 C   0  0  2  0  0  3  0  0  0  0  0  0
  192.2880  171.8370  140.4540 C   0  0  0  0  0  2  0  0  0  0  0  0
  189.6740  171.8260  138.3220 C   0  0  0  0  0  3  0  0  0  0  0  0
  190.5390  172.6450  138.9390 C   0  0  0  0  0  0  0  0  0  0  0  0
  191.2080  173.7900  138.2170 C   0  0  0  0  0  2  0  0  0  0  0  0
  191.3030  174.8250  136.0650 O   0  0  0  0  0  0  0  0  0  0  0  0
  189.8500  172.9710  136.1730 C   0  0  0  0  0  3  0  0  0  0  0  0
  190.8090  173.9090  136.7710 C   0  0  0  0  0  0  0  0  0  0  0  0
  189.3180  171.9940  136.9040 C   0  0  0  0  0  3  0  0  0  0  0  0
  188.2110  176.3210  146.0880 N   0  0  0  0  0  0  0  0  0  0  0  0
  188.4950  175.3030  146.9380 O   0  0  0  0  0  1  0  0  0  0  0  0
  188.3900  177.5410  146.8600 C   0  0  0  0  0  1  0  0  0  0  0  0
  1 35  1  1  0  0  0
  2 21  1  0  0  0  0
  2 23  1  1  0  0  0
  3  8  1  0  0  0  0
  4 18  1  0  0  0  0
  5 21  1  0  0  0  0
  6  3  1  6  0  0  0
  6 20  1  0  0  0  0
  7 11  1  0  0  0  0
  8 12  1  0  0  0  0
  8  5  2  0  0  0  0
  9  4  1  1  0  0  0
  9  6  1  0  0  0  0
 10  5  1  0  0  0  0
 11  1  1  0  0  0  0
 12 16  1  0  0  0  0
 13  2  1  0  0  0  0
 14 19  1  0  0  0  0
 15 10  2  0  0  0  0
 16  2  1  0  0  0  0
 17 18  1  6  0  0  0
 17  7  1  0  0  0  0
 17 24  1  0  0  0  0
 19  3  2  0  0  0  0
 19 15  1  0  0  0  0
 20 26  1  0  0  0  0
 20 12  1  1  0  0  0
 22 29  1  6  0  0  0
 22 27  1  0  0  0  0
 22  9  1  0  0  0  0
 25  7  1  0  0  0  0
 26 24  1  6  0  0  0
 26  1  1  0  0  0  0
 27 14  1  0  0  0  0
 28 29  2  0  0  0  0
 30 29  1  0  0  0  0
 31 33  2  0  0  0  0
 32 33  1  0  0  0  0
 32 34  2  0  0  0  0
 33 30  1  0  0  0  0
 34 28  1  0  0  0  0
 35 37  1  0  0  0  0
 35 36  1  0  0  0  0
M  END
>  <MODEL>
8

>  <REMARK>
 VINA RESULT:      -6.9      2.469      6.817
  Name = 
  2 active torsions:
  status: ('A' for Active; 'I' for Inactive)
    1  A    between atoms: C_1  and  N_4
    2  A    between atoms: C_23  and  C_30
                            x       y       z     vdW  Elec       q    Type
                         _______ _______ _______ _____ _____    ______ ____

>  <TORSDO>
F 2

$$$$
=
 OpenBabel11112417303D

 37 43  0  0  1  0  0  0  0  0999 V2000
  190.0320  173.3120  141.4840 C   0  0  2  0  0  3  0  0  0  0  0  0
  191.2910  177.0510  143.9340 C   0  0  1  0  0  0  0  0  0  0  0  0
  194.4630  174.6680  142.7920 C   0  0  0  0  0  0  0  0  0  0  0  0
  194.0030  173.1830  139.1870 C   0  0  0  0  0  2  0  0  0  0  0  0
  193.6110  176.1990  144.4320 C   0  0  0  0  0  0  0  0  0  0  0  0
  193.9480  173.8160  141.6570 C   0  0  2  0  0  3  0  0  0  0  0  0
  190.2100  172.5820  139.1270 N   0  0  0  0  0  0  0  0  0  0  0  0
  193.4280  175.2880  143.4100 C   0  0  0  0  0  0  0  0  0  0  0  0
  194.6040  174.1060  140.2680 C   0  0  1  0  0  3  0  0  0  0  0  0
  194.8740  176.4160  144.8950 N   0  0  0  0  0  0  0  0  0  0  0  0
  189.8140  173.6850  140.0040 C   0  0  0  0  0  2  0  0  0  0  0  0
  192.1940  175.0290  142.8130 N   0  0  0  0  0  0  0  0  0  0  0  0
  191.6850  177.9910  142.9800 O   0  0  0  0  0  1  0  0  0  0  0  0
  196.9320  174.2850  142.5720 C   0  0  0  0  0  2  0  0  0  0  0  0
  195.9480  175.7810  144.3300 C   0  0  0  0  0  3  0  0  0  0  0  0
  190.9690  175.7150  143.2290 C   0  0  0  0  0  2  0  0  0  0  0  0
  191.6480  172.2960  139.2710 C   0  0  1  0  0  3  0  0  0  0  0  0
  192.5490  173.4790  138.8540 C   0  0  0  0  0  2  0  0  0  0  0  0
  195.7640  174.8850  143.2560 C   0  0  0  0  0  0  0  0  0  0  0  0
  192.4130  174.1660  141.6550 C   0  0  2  0  0  3  0  0  0  0  0  0
  192.4070  176.8990  144.9950 C   0  0  0  0  0  2  0  0  0  0  0  0
  196.1440  173.8710  140.2410 C   0  0  2  0  0  3  0  0  0  0  0  0
  190.0360  177.5500  144.6180 C   0  0  0  0  0  1  0  0  0  0  0  0
  191.9290  171.8430  140.7110 C   0  0  0  0  0  2  0  0  0  0  0  0
  189.9100  172.9610  137.7530 C   0  0  0  0  0  1  0  0  0  0  0  0
  191.5080  172.9210  141.7200 C   0  0  2  0  0  3  0  0  0  0  0  0
  196.9570  174.7890  141.1470 C   0  0  0  0  0  2  0  0  0  0  0  0
  197.3530  172.9020  138.3130 C   0  0  0  0  0  3  0  0  0  0  0  0
  196.7240  173.9580  138.8540 C   0  0  0  0  0  0  0  0  0  0  0  0
  196.5820  175.2660  138.1140 C   0  0  0  0  0  2  0  0  0  0  0  0
  197.1530  176.2950  136.0340 O   0  0  0  0  0  0  0  0  0  0  0  0
  197.8740  174.0580  136.2270 C   0  0  0  0  0  3  0  0  0  0  0  0
  197.2050  175.2580  136.7450 C   0  0  0  0  0  0  0  0  0  0  0  0
  197.9410  172.9520  136.9650 C   0  0  0  0  0  3  0  0  0  0  0  0
  189.1210  172.2410  141.9010 N   0  0  0  0  0  0  0  0  0  0  0  0
  189.3630  171.9750  143.2090 O   0  0  0  0  0  1  0  0  0  0  0  0
  187.7620  172.7580  141.8490 C   0  0  0  0  0  1  0  0  0  0  0  0
  1 26  1  0  0  0  0
  1 35  1  6  0  0  0
  2 23  1  1  0  0  0
  2 21  1  0  0  0  0
  3 19  2  0  0  0  0
  3  8  1  0  0  0  0
  5 10  1  0  0  0  0
  5 21  1  0  0  0  0
  6  3  1  1  0  0  0
  7 17  1  0  0  0  0
  7 11  1  0  0  0  0
  8  5  2  0  0  0  0
  9  4  1  6  0  0  0
  9  6  1  0  0  0  0
 11  1  1  0  0  0  0
 12 16  1  0  0  0  0
 12  8  1  0  0  0  0
 13  2  1  0  0  0  0
 14 19  1  0  0  0  0
 15 10  2  0  0  0  0
 16  2  1  0  0  0  0
 17 18  1  1  0  0  0
 17 24  1  0  0  0  0
 18  4  1  0  0  0  0
 19 15  1  0  0  0  0
 20  6  1  0  0  0  0
 20 26  1  0  0  0  0
 20 12  1  1  0  0  0
 22 29  1  6  0  0  0
 22  9  1  0  0  0  0
 22 27  1  0  0  0  0
 25  7  1  0  0  0  0
 26 24  1  6  0  0  0
 27 14  1  0  0  0  0
 28 29  2  0  0  0  0
 30 29  1  0  0  0  0
 31 33  2  0  0  0  0
 32 33  1  0  0  0  0
 32 34  2  0  0  0  0
 33 30  1  0  0  0  0
 34 28  1  0  0  0  0
 35 36  1  0  0  0  0
 37 35  1  0  0  0  0
M  END
>  <MODEL>
9

>  <REMARK>
 VINA RESULT:      -6.8      3.189      4.848
  Name = 
  2 active torsions:
  status: ('A' for Active; 'I' for Inactive)
    1  A    between atoms: C_1  and  N_4
    2  A    between atoms: C_23  and  C_30
                            x       y       z     vdW  Elec       q    Type
                         _______ _______ _______ _____ _____    ______ ____

>  <TORSDO>
F 2

$$$$
