=
 OpenBabel11112416193D

 30 35  0  0  1  0  0  0  0  0999 V2000
  186.5140  177.2290  143.7280 C   0  0  0  0  0  0  0  0  0  0  0  0
  184.8710  178.3510  145.2810 C   0  0  0  0  0  0  0  0  0  0  0  0
  188.7560  175.9070  146.9170 N   0  0  0  0  0  2  0  0  0  0  0  0
  187.6800  176.4190  143.5490 C   0  0  0  0  0  0  0  0  0  0  0  0
  185.8500  177.6510  142.6230 N   0  0  0  0  0  0  0  0  0  0  0  0
  187.6280  176.0850  140.0260 O   0  0  0  0  0  0  0  0  0  0  0  0
  190.3970  175.4180  142.4360 C   0  0  1  0  0  3  0  0  0  0  0  0
  187.3080  176.4460  141.1940 C   0  0  0  0  0  0  0  0  0  0  0  0
  190.7180  175.2580  143.9100 C   0  0  2  0  0  3  0  0  0  0  0  0
  189.7670  175.3720  146.2020 C   0  0  0  0  0  0  0  0  0  0  0  0
  186.2270  177.3090  141.3700 C   0  0  0  0  0  0  0  0  0  0  0  0
  188.0020  175.9850  142.2810 N   0  0  0  0  0  0  0  0  0  0  0  0
  184.4670  178.6170  146.5920 C   0  0  0  0  0  3  0  0  0  0  0  0
  191.3810  173.9030  144.0410 C   0  0  0  0  0  2  0  0  0  0  0  0
  191.4390  174.5860  141.7030 C   0  0  0  0  0  2  0  0  0  0  0  0
  183.8470  179.0510  144.0300 Cl  0  0  0  0  0  0  0  0  0  0  0  0
  187.9170  176.3420  145.9610 C   0  0  0  0  0  0  0  0  0  0  0  0
  185.1870  178.1300  147.6790 C   0  0  0  0  0  3  0  0  0  0  0  0
  186.0390  177.5650  145.0370 C   0  0  0  0  0  0  0  0  0  0  0  0
  188.4000  176.0510  144.7110 C   0  0  0  0  0  0  0  0  0  0  0  0
  190.8000  174.9040  146.7530 O   0  0  0  0  0  0  0  0  0  0  0  0
  189.6020  175.4320  144.8560 N   0  0  0  0  0  0  0  0  0  0  0  0
  192.1290  173.7100  142.7380 C   0  0  0  0  0  2  0  0  0  0  0  0
  188.5690  173.5880  142.5690 C   0  0  0  0  0  1  0  0  0  0  0  0
  186.3290  177.3670  147.4670 C   0  0  0  0  0  3  0  0  0  0  0  0
  186.7560  177.0800  146.1660 C   0  0  0  0  0  0  0  0  0  0  0  0
  189.0050  174.9520  142.0360 C   0  0  2  0  0  3  0  0  0  0  0  0
  185.4980  177.7960  140.2420 N   0  0  0  0  0  2  0  0  0  0  0  0
  183.2100  177.8380  140.2220 C   0  0  0  0  0  1  0  0  0  0  0  0
  184.3990  178.6490  140.4030 N   0  0  0  0  0  2  0  0  0  0  0  0
  1 19  1  0  0  0  0
  2 13  1  0  0  0  0
  4  1  2  0  0  0  0
  4 20  1  0  0  0  0
  5  1  1  0  0  0  0
  6  8  2  0  0  0  0
  7 15  1  6  0  0  0
  7  9  1  0  0  0  0
  8 11  1  0  0  0  0
  8 12  1  0  0  0  0
  9 14  1  6  0  0  0
  9 22  1  0  0  0  0
 10 21  2  0  0  0  0
 10  3  1  0  0  0  0
 11  5  2  0  0  0  0
 12  4  1  0  0  0  0
 13 18  2  0  0  0  0
 15 23  1  0  0  0  0
 16  2  1  0  0  0  0
 17 26  1  0  0  0  0
 17  3  1  0  0  0  0
 19  2  2  0  0  0  0
 19 26  1  0  0  0  0
 20 22  1  0  0  0  0
 20 17  2  0  0  0  0
 22 10  1  0  0  0  0
 23 14  1  0  0  0  0
 25 18  1  0  0  0  0
 26 25  2  0  0  0  0
 27 12  1  0  0  0  0
 27  7  1  0  0  0  0
 27 24  1  1  0  0  0
 28 30  1  0  0  0  0
 28 11  1  0  0  0  0
 29 30  1  0  0  0  0
M  END
>  <MODEL>
1

>  <REMARK>
 VINA RESULT:      -9.3      0.000      0.000
  Name = 
  1 active torsions:
  status: ('A' for Active; 'I' for Inactive)
    1  A    between atoms: N_28  and  N_30
                            x       y       z     vdW  Elec       q    Type
                         _______ _______ _______ _____ _____    ______ ____

>  <TORSDO>
F 1

$$$$
=
 OpenBabel11112416193D

 30 35  0  0  1  0  0  0  0  0999 V2000
  189.3920  175.5750  144.0280 C   0  0  0  0  0  0  0  0  0  0  0  0
  191.3570  174.7630  145.3870 C   0  0  0  0  0  0  0  0  0  0  0  0
  187.9450  177.7090  147.2360 N   0  0  0  0  0  2  0  0  0  0  0  0
  188.2110  176.3780  143.9320 C   0  0  0  0  0  0  0  0  0  0  0  0
  189.7840  174.8750  142.9330 N   0  0  0  0  0  0  0  0  0  0  0  0
  187.4410  175.8830  140.5130 O   0  0  0  0  0  0  0  0  0  0  0  0
  185.3040  177.2260  143.2600 C   0  0  1  0  0  3  0  0  0  0  0  0
  188.0260  175.7870  141.6280 C   0  0  0  0  0  0  0  0  0  0  0  0
  185.3340  177.7390  144.6870 C   0  0  2  0  0  3  0  0  0  0  0  0
  186.7920  178.1130  146.6640 C   0  0  0  0  0  0  0  0  0  0  0  0
  189.1230  174.9360  141.7540 C   0  0  0  0  0  0  0  0  0  0  0  0
  187.6010  176.5210  142.7040 N   0  0  0  0  0  0  0  0  0  0  0  0
  192.0570  174.7890  146.5970 C   0  0  0  0  0  3  0  0  0  0  0  0
  184.7110  179.1190  144.6410 C   0  0  0  0  0  2  0  0  0  0  0  0
  184.1160  177.9160  142.6080 C   0  0  0  0  0  2  0  0  0  0  0  0
  192.0670  173.7430  144.1390 Cl  0  0  0  0  0  0  0  0  0  0  0  0
  188.5410  177.0230  146.2460 C   0  0  0  0  0  0  0  0  0  0  0  0
  191.6060  175.5500  147.6720 C   0  0  0  0  0  3  0  0  0  0  0  0
  190.1610  175.5280  145.2360 C   0  0  0  0  0  0  0  0  0  0  0  0
  187.7780  177.0400  145.1050 C   0  0  0  0  0  0  0  0  0  0  0  0
  185.9130  178.7470  147.3080 O   0  0  0  0  0  0  0  0  0  0  0  0
  186.6390  177.7340  145.3690 N   0  0  0  0  0  0  0  0  0  0  0  0
  183.6800  179.0410  143.5350 C   0  0  0  0  0  2  0  0  0  0  0  0
  187.1020  178.9450  142.5370 C   0  0  0  0  0  1  0  0  0  0  0  0
  190.4410  176.2980  147.5500 C   0  0  0  0  0  3  0  0  0  0  0  0
  189.7220  176.2970  146.3500 C   0  0  0  0  0  0  0  0  0  0  0  0
  186.5620  177.5170  142.4560 C   0  0  2  0  0  3  0  0  0  0  0  0
  189.5740  174.1660  140.6390 N   0  0  0  0  0  2  0  0  0  0  0  0
  190.1760  171.9610  140.7550 C   0  0  0  0  0  1  0  0  0  0  0  0
  190.6850  173.3200  140.7430 N   0  0  0  0  0  2  0  0  0  0  0  0
  1 19  1  0  0  0  0
  2 13  1  0  0  0  0
  4  1  2  0  0  0  0
  4 20  1  0  0  0  0
  5  1  1  0  0  0  0
  6  8  2  0  0  0  0
  7 15  1  6  0  0  0
  7  9  1  0  0  0  0
  8 11  1  0  0  0  0
  8 12  1  0  0  0  0
  9 14  1  6  0  0  0
  9 22  1  0  0  0  0
 10  3  1  0  0  0  0
 10 21  2  0  0  0  0
 11  5  2  0  0  0  0
 12  4  1  0  0  0  0
 13 18  2  0  0  0  0
 15 23  1  0  0  0  0
 16  2  1  0  0  0  0
 17 26  1  0  0  0  0
 17  3  1  0  0  0  0
 19  2  2  0  0  0  0
 19 26  1  0  0  0  0
 20 22  1  0  0  0  0
 20 17  2  0  0  0  0
 22 10  1  0  0  0  0
 23 14  1  0  0  0  0
 25 18  1  0  0  0  0
 26 25  2  0  0  0  0
 27 24  1  1  0  0  0
 27 12  1  0  0  0  0
 27  7  1  0  0  0  0
 28 30  1  0  0  0  0
 28 11  1  0  0  0  0
 30 29  1  0  0  0  0
M  END
>  <MODEL>
2

>  <REMARK>
 VINA RESULT:      -8.6      2.781      5.702
  Name = 
  1 active torsions:
  status: ('A' for Active; 'I' for Inactive)
    1  A    between atoms: N_28  and  N_30
                            x       y       z     vdW  Elec       q    Type
                         _______ _______ _______ _____ _____    ______ ____

>  <TORSDO>
F 1

$$$$
=
 OpenBabel11112416193D

 30 35  0  0  1  0  0  0  0  0999 V2000
  187.4030  176.8980  142.9700 C   0  0  0  0  0  0  0  0  0  0  0  0
  185.3320  178.3220  143.2030 C   0  0  0  0  0  0  0  0  0  0  0  0
  188.4010  177.5550  146.9090 N   0  0  0  0  0  2  0  0  0  0  0  0
  188.5540  176.2960  143.5690 C   0  0  0  0  0  0  0  0  0  0  0  0
  187.1620  176.6580  141.6570 N   0  0  0  0  0  0  0  0  0  0  0  0
  189.7170  174.3910  140.8220 O   0  0  0  0  0  0  0  0  0  0  0  0
  191.4830  175.3530  143.9640 C   0  0  1  0  0  3  0  0  0  0  0  0
  189.0160  175.1870  141.5090 C   0  0  0  0  0  0  0  0  0  0  0  0
  191.2750  175.9360  145.3490 C   0  0  2  0  0  3  0  0  0  0  0  0
  189.5940  176.9250  146.8880 C   0  0  0  0  0  0  0  0  0  0  0  0
  187.9460  175.8490  140.9080 C   0  0  0  0  0  0  0  0  0  0  0  0
  189.2910  175.3920  142.8350 N   0  0  0  0  0  0  0  0  0  0  0  0
  184.5020  179.0870  144.0280 C   0  0  0  0  0  3  0  0  0  0  0  0
  191.8450  174.9160  146.3130 C   0  0  0  0  0  2  0  0  0  0  0  0
  192.7080  174.4600  144.0810 C   0  0  0  0  0  2  0  0  0  0  0  0
  184.8050  178.1990  141.5270 Cl  0  0  0  0  0  0  0  0  0  0  0  0
  187.9450  177.3650  145.6590 C   0  0  0  0  0  0  0  0  0  0  0  0
  184.8010  179.2710  145.3760 C   0  0  0  0  0  3  0  0  0  0  0  0
  186.5070  177.7120  143.7380 C   0  0  0  0  0  0  0  0  0  0  0  0
  188.8280  176.6200  144.9190 C   0  0  0  0  0  0  0  0  0  0  0  0
  190.3710  176.9330  147.8800 O   0  0  0  0  0  0  0  0  0  0  0  0
  189.9030  176.3380  145.7030 N   0  0  0  0  0  0  0  0  0  0  0  0
  192.9950  174.2760  145.5640 C   0  0  0  0  0  2  0  0  0  0  0  0
  189.7100  173.5160  144.4020 C   0  0  0  0  0  1  0  0  0  0  0  0
  185.9420  178.6910  145.9170 C   0  0  0  0  0  3  0  0  0  0  0  0
  186.7890  177.9160  145.1170 C   0  0  0  0  0  0  0  0  0  0  0  0
  190.3110  174.5380  143.4380 C   0  0  2  0  0  3  0  0  0  0  0  0
  187.6520  175.6440  139.5250 N   0  0  0  0  0  2  0  0  0  0  0  0
  186.6910  176.0410  137.4860 C   0  0  0  0  0  1  0  0  0  0  0  0
  186.5690  176.2860  138.9110 N   0  0  0  0  0  2  0  0  0  0  0  0
  1  4  2  0  0  0  0
  1 19  1  0  0  0  0
  2 19  2  0  0  0  0
  2 13  1  0  0  0  0
  4 20  1  0  0  0  0
  5  1  1  0  0  0  0
  6  8  2  0  0  0  0
  7 15  1  1  0  0  0
  7  9  1  0  0  0  0
  8 12  1  0  0  0  0
  9 22  1  0  0  0  0
  9 14  1  1  0  0  0
 10  3  1  0  0  0  0
 10 21  2  0  0  0  0
 11  8  1  0  0  0  0
 11  5  2  0  0  0  0
 12 27  1  0  0  0  0
 12  4  1  0  0  0  0
 13 18  2  0  0  0  0
 15 23  1  0  0  0  0
 16  2  1  0  0  0  0
 17  3  1  0  0  0  0
 18 25  1  0  0  0  0
 19 26  1  0  0  0  0
 20 17  2  0  0  0  0
 20 22  1  0  0  0  0
 22 10  1  0  0  0  0
 23 14  1  0  0  0  0
 26 17  1  0  0  0  0
 26 25  2  0  0  0  0
 27  7  1  0  0  0  0
 27 24  1  1  0  0  0
 28 11  1  0  0  0  0
 29 30  1  0  0  0  0
 30 28  1  0  0  0  0
M  END
>  <MODEL>
3

>  <REMARK>
 VINA RESULT:      -8.4      1.843      2.291
  Name = 
  1 active torsions:
  status: ('A' for Active; 'I' for Inactive)
    1  A    between atoms: N_28  and  N_30
                            x       y       z     vdW  Elec       q    Type
                         _______ _______ _______ _____ _____    ______ ____

>  <TORSDO>
F 1

$$$$
=
 OpenBabel11112416193D

 30 35  0  0  1  0  0  0  0  0999 V2000
  190.2300  175.8380  144.2940 C   0  0  0  0  0  0  0  0  0  0  0  0
  191.3120  174.5770  142.3940 C   0  0  0  0  0  0  0  0  0  0  0  0
  186.6430  175.9660  142.2800 N   0  0  0  0  0  2  0  0  0  0  0  0
  189.0610  176.4310  144.8680 C   0  0  0  0  0  0  0  0  0  0  0  0
  191.3830  175.8660  145.0100 N   0  0  0  0  0  0  0  0  0  0  0  0
  190.3600  177.3480  148.0300 O   0  0  0  0  0  0  0  0  0  0  0  0
  187.2400  178.4770  146.3240 C   0  0  1  0  0  3  0  0  0  0  0  0
  190.3010  176.8970  146.8510 C   0  0  0  0  0  0  0  0  0  0  0  0
  186.3150  178.1850  145.1570 C   0  0  2  0  0  3  0  0  0  0  0  0
  185.9820  176.7430  143.1620 C   0  0  0  0  0  0  0  0  0  0  0  0
  191.4570  176.4000  146.2510 C   0  0  0  0  0  0  0  0  0  0  0  0
  189.1130  176.8790  146.1700 N   0  0  0  0  0  0  0  0  0  0  0  0
  191.1770  173.9650  141.1450 C   0  0  0  0  0  3  0  0  0  0  0  0
  184.9380  178.0020  145.7620 C   0  0  0  0  0  2  0  0  0  0  0  0
  186.3650  179.1360  147.3780 C   0  0  0  0  0  2  0  0  0  0  0  0
  192.9290  174.5000  143.0890 Cl  0  0  0  0  0  0  0  0  0  0  0  0
  187.8440  175.8120  142.8640 C   0  0  0  0  0  0  0  0  0  0  0  0
  189.9550  173.9550  140.4780 C   0  0  0  0  0  3  0  0  0  0  0  0
  190.1870  175.2040  143.0100 C   0  0  0  0  0  0  0  0  0  0  0  0
  187.8900  176.4570  144.0740 C   0  0  0  0  0  0  0  0  0  0  0  0
  184.8160  177.1660  142.9370 O   0  0  0  0  0  0  0  0  0  0  0  0
  186.6930  177.0710  144.2720 N   0  0  0  0  0  0  0  0  0  0  0  0
  184.9170  178.9250  146.9620 C   0  0  0  0  0  2  0  0  0  0  0  0
  187.0130  176.0490  147.1960 C   0  0  0  0  0  1  0  0  0  0  0  0
  188.8460  174.5630  141.0550 C   0  0  0  0  0  3  0  0  0  0  0  0
  188.9490  175.1790  142.3070 C   0  0  0  0  0  0  0  0  0  0  0  0
  187.9150  177.2510  146.9200 C   0  0  2  0  0  3  0  0  0  0  0  0
  192.7010  176.4150  146.9530 N   0  0  0  0  0  2  0  0  0  0  0  0
  194.5690  177.0290  145.7810 C   0  0  0  0  0  1  0  0  0  0  0  0
  193.8680  175.9040  146.3700 N   0  0  0  0  0  2  0  0  0  0  0  0
  1  4  1  0  0  0  0
  1  5  1  0  0  0  0
  2 19  1  0  0  0  0
  2 16  1  0  0  0  0
  3 17  1  0  0  0  0
  3 10  1  0  0  0  0
  4 12  1  0  0  0  0
  5 11  2  0  0  0  0
  7 27  1  0  0  0  0
  7 15  1  1  0  0  0
  8  6  2  0  0  0  0
  9 14  1  1  0  0  0
  9  7  1  0  0  0  0
 10 22  1  0  0  0  0
 11  8  1  0  0  0  0
 11 28  1  0  0  0  0
 12  8  1  0  0  0  0
 12 27  1  0  0  0  0
 13  2  2  0  0  0  0
 14 23  1  0  0  0  0
 17 20  1  0  0  0  0
 18 25  2  0  0  0  0
 18 13  1  0  0  0  0
 19  1  2  0  0  0  0
 20 22  1  0  0  0  0
 20  4  2  0  0  0  0
 21 10  2  0  0  0  0
 22  9  1  0  0  0  0
 23 15  1  0  0  0  0
 25 26  1  0  0  0  0
 26 17  2  0  0  0  0
 26 19  1  0  0  0  0
 27 24  1  6  0  0  0
 29 30  1  0  0  0  0
 30 28  1  0  0  0  0
M  END
>  <MODEL>
4

>  <REMARK>
 VINA RESULT:      -8.0      2.735      7.274
  Name = 
  1 active torsions:
  status: ('A' for Active; 'I' for Inactive)
    1  A    between atoms: N_28  and  N_30
                            x       y       z     vdW  Elec       q    Type
                         _______ _______ _______ _____ _____    ______ ____

>  <TORSDO>
F 1

$$$$
=
 OpenBabel11112416193D

 30 35  0  0  1  0  0  0  0  0999 V2000
  186.7710  176.8200  143.9330 C   0  0  0  0  0  0  0  0  0  0  0  0
  184.9230  178.1790  142.8810 C   0  0  0  0  0  0  0  0  0  0  0  0
  188.0120  175.4910  140.2410 N   0  0  0  0  0  2  0  0  0  0  0  0
  187.9060  175.9630  143.7800 C   0  0  0  0  0  0  0  0  0  0  0  0
  186.4070  177.1860  145.1880 N   0  0  0  0  0  0  0  0  0  0  0  0
  188.9240  175.7260  147.1620 O   0  0  0  0  0  0  0  0  0  0  0  0
  189.8670  173.6030  144.2420 C   0  0  1  0  0  3  0  0  0  0  0  0
  188.2540  176.0420  146.1390 C   0  0  0  0  0  0  0  0  0  0  0  0
  189.8090  173.5170  142.7290 C   0  0  2  0  0  3  0  0  0  0  0  0
  188.9540  174.6310  140.6790 C   0  0  0  0  0  0  0  0  0  0  0  0
  187.0940  176.8010  146.2880 C   0  0  0  0  0  0  0  0  0  0  0  0
  188.6650  175.6570  144.8900 N   0  0  0  0  0  0  0  0  0  0  0  0
  184.2870  178.6200  141.7170 C   0  0  0  0  0  3  0  0  0  0  0  0
  191.2420  173.3420  142.2730 C   0  0  0  0  0  2  0  0  0  0  0  0
  191.0990  172.8080  144.6450 C   0  0  0  0  0  2  0  0  0  0  0  0
  184.2250  178.7790  144.3830 Cl  0  0  0  0  0  0  0  0  0  0  0  0
  187.5540  176.0340  141.3820 C   0  0  0  0  0  0  0  0  0  0  0  0
  184.7310  178.2210  140.4600 C   0  0  0  0  0  3  0  0  0  0  0  0
  186.0500  177.3060  142.7950 C   0  0  0  0  0  0  0  0  0  0  0  0
  188.2240  175.5320  142.4700 C   0  0  0  0  0  0  0  0  0  0  0  0
  189.5820  173.8710  139.8940 O   0  0  0  0  0  0  0  0  0  0  0  0
  189.1250  174.6160  142.0260 N   0  0  0  0  0  0  0  0  0  0  0  0
  191.9080  172.5550  143.3820 C   0  0  0  0  0  2  0  0  0  0  0  0
  191.0110  175.9240  144.1300 C   0  0  0  0  0  1  0  0  0  0  0  0
  185.8230  177.3670  140.3510 C   0  0  0  0  0  3  0  0  0  0  0  0
  186.4830  176.9120  141.4980 C   0  0  0  0  0  0  0  0  0  0  0  0
  189.9740  175.0170  144.7930 C   0  0  2  0  0  3  0  0  0  0  0  0
  186.6560  177.2060  147.5860 N   0  0  0  0  0  2  0  0  0  0  0  0
  185.9260  179.3710  147.7100 C   0  0  0  0  0  1  0  0  0  0  0  0
  185.5030  177.9840  147.7530 N   0  0  0  0  0  2  0  0  0  0  0  0
  1  5  1  0  0  0  0
  2 16  1  0  0  0  0
  3 10  1  0  0  0  0
  3 17  1  0  0  0  0
  4  1  1  0  0  0  0
  4 12  1  0  0  0  0
  5 11  2  0  0  0  0
  7 15  1  6  0  0  0
  7 27  1  0  0  0  0
  8 11  1  0  0  0  0
  8  6  2  0  0  0  0
  9 14  1  6  0  0  0
  9  7  1  0  0  0  0
 10 22  1  0  0  0  0
 11 28  1  0  0  0  0
 12  8  1  0  0  0  0
 13  2  2  0  0  0  0
 14 23  1  0  0  0  0
 17 26  2  0  0  0  0
 17 20  1  0  0  0  0
 18 13  1  0  0  0  0
 19  2  1  0  0  0  0
 19  1  2  0  0  0  0
 20  4  2  0  0  0  0
 21 10  2  0  0  0  0
 22 20  1  0  0  0  0
 22  9  1  0  0  0  0
 23 15  1  0  0  0  0
 25 18  2  0  0  0  0
 25 26  1  0  0  0  0
 26 19  1  0  0  0  0
 27 24  1  6  0  0  0
 27 12  1  0  0  0  0
 28 30  1  0  0  0  0
 29 30  1  0  0  0  0
M  END
>  <MODEL>
5

>  <REMARK>
 VINA RESULT:      -8.0      1.815      4.724
  Name = 
  1 active torsions:
  status: ('A' for Active; 'I' for Inactive)
    1  A    between atoms: N_28  and  N_30
                            x       y       z     vdW  Elec       q    Type
                         _______ _______ _______ _____ _____    ______ ____

>  <TORSDO>
F 1

$$$$
=
 OpenBabel11112416193D

 30 35  0  0  1  0  0  0  0  0999 V2000
  188.1180  175.5860  141.3550 C   0  0  0  0  0  0  0  0  0  0  0  0
  189.9800  173.9500  140.8780 C   0  0  0  0  0  0  0  0  0  0  0  0
  188.9110  175.4440  145.3910 N   0  0  0  0  0  2  0  0  0  0  0  0
  187.3900  176.3800  142.2970 C   0  0  0  0  0  0  0  0  0  0  0  0
  187.7720  175.6660  140.0450 N   0  0  0  0  0  0  0  0  0  0  0  0
  185.2690  178.1350  140.0730 O   0  0  0  0  0  0  0  0  0  0  0  0
  185.0040  177.7070  143.7700 C   0  0  1  0  0  3  0  0  0  0  0  0
  186.1450  177.3300  140.4990 C   0  0  0  0  0  0  0  0  0  0  0  0
  185.7600  177.2410  145.0000 C   0  0  2  0  0  3  0  0  0  0  0  0
  187.8760  176.2090  145.7940 C   0  0  0  0  0  0  0  0  0  0  0  0
  186.7950  176.4880  139.5980 C   0  0  0  0  0  0  0  0  0  0  0  0
  186.4680  177.2910  141.8290 N   0  0  0  0  0  0  0  0  0  0  0  0
  191.0340  173.1740  141.3680 C   0  0  0  0  0  3  0  0  0  0  0  0
  185.7420  178.4120  145.9610 C   0  0  0  0  0  2  0  0  0  0  0  0
  184.0180  178.7500  144.2730 C   0  0  0  0  0  2  0  0  0  0  0  0
  189.7220  173.8440  139.1390 Cl  0  0  0  0  0  0  0  0  0  0  0  0
  188.7830  175.4530  144.0530 C   0  0  0  0  0  0  0  0  0  0  0  0
  191.3460  173.1600  142.7240 C   0  0  0  0  0  3  0  0  0  0  0  0
  189.2030  174.7490  141.7720 C   0  0  0  0  0  0  0  0  0  0  0  0
  187.7160  176.2250  143.6660 C   0  0  0  0  0  0  0  0  0  0  0  0
  187.6150  176.3930  147.0130 O   0  0  0  0  0  0  0  0  0  0  0  0
  187.1170  176.7110  144.7850 N   0  0  0  0  0  0  0  0  0  0  0  0
  184.4250  179.1120  145.6930 C   0  0  0  0  0  2  0  0  0  0  0  0
  186.9070  179.3480  143.1440 C   0  0  0  0  0  1  0  0  0  0  0  0
  190.6010  173.9250  143.6140 C   0  0  0  0  0  3  0  0  0  0  0  0
  189.5430  174.7150  143.1530 C   0  0  0  0  0  0  0  0  0  0  0  0
  185.8770  178.3180  142.6840 C   0  0  2  0  0  3  0  0  0  0  0  0
  186.4640  176.5200  138.2090 N   0  0  0  0  0  2  0  0  0  0  0  0
  186.9770  176.3200  135.9870 C   0  0  0  0  0  1  0  0  0  0  0  0
  187.1200  175.6930  137.2880 N   0  0  0  0  0  2  0  0  0  0  0  0
  1 19  2  0  0  0  0
  1  4  1  0  0  0  0
  2 13  2  0  0  0  0
  2 19  1  0  0  0  0
  3 10  1  0  0  0  0
  4 20  2  0  0  0  0
  5  1  1  0  0  0  0
  6  8  2  0  0  0  0
  7 15  1  1  0  0  0
  7  9  1  0  0  0  0
  8 12  1  0  0  0  0
  9 14  1  1  0  0  0
 10 21  2  0  0  0  0
 11  5  2  0  0  0  0
 11  8  1  0  0  0  0
 12  4  1  0  0  0  0
 12 27  1  0  0  0  0
 13 18  1  0  0  0  0
 15 23  1  0  0  0  0
 16  2  1  0  0  0  0
 17  3  1  0  0  0  0
 18 25  2  0  0  0  0
 19 26  1  0  0  0  0
 20 17  1  0  0  0  0
 20 22  1  0  0  0  0
 22  9  1  0  0  0  0
 22 10  1  0  0  0  0
 23 14  1  0  0  0  0
 26 25  1  0  0  0  0
 26 17  2  0  0  0  0
 27 24  1  1  0  0  0
 27  7  1  0  0  0  0
 28 11  1  0  0  0  0
 29 30  1  0  0  0  0
 30 28  1  0  0  0  0
M  END
>  <MODEL>
6

>  <REMARK>
 VINA RESULT:      -7.9      2.597      5.591
  Name = 
  1 active torsions:
  status: ('A' for Active; 'I' for Inactive)
    1  A    between atoms: N_28  and  N_30
                            x       y       z     vdW  Elec       q    Type
                         _______ _______ _______ _____ _____    ______ ____

>  <TORSDO>
F 1

$$$$
=
 OpenBabel11112416193D

 30 35  0  0  1  0  0  0  0  0999 V2000
  189.7290  175.6290  143.9100 C   0  0  0  0  0  0  0  0  0  0  0  0
  191.2610  174.0130  142.7220 C   0  0  0  0  0  0  0  0  0  0  0  0
  187.3870  176.0160  140.5480 N   0  0  0  0  0  2  0  0  0  0  0  0
  188.5530  176.4430  143.8980 C   0  0  0  0  0  0  0  0  0  0  0  0
  190.4650  175.5810  145.0490 N   0  0  0  0  0  0  0  0  0  0  0  0
  188.5610  177.5390  147.2630 O   0  0  0  0  0  0  0  0  0  0  0  0
  186.6850  178.8820  144.3300 C   0  0  1  0  0  3  0  0  0  0  0  0
  188.9180  176.9640  146.1960 C   0  0  0  0  0  0  0  0  0  0  0  0
  186.2920  178.5850  142.8960 C   0  0  2  0  0  3  0  0  0  0  0  0
  186.5680  176.9770  141.0220 C   0  0  0  0  0  0  0  0  0  0  0  0
  190.1110  176.2430  146.1740 C   0  0  0  0  0  0  0  0  0  0  0  0
  188.1370  177.0320  145.0720 N   0  0  0  0  0  0  0  0  0  0  0  0
  191.5510  173.2810  141.5660 C   0  0  0  0  0  3  0  0  0  0  0  0
  184.7800  178.6690  142.8590 C   0  0  0  0  0  2  0  0  0  0  0  0
  185.5830  179.7770  144.8740 C   0  0  0  0  0  2  0  0  0  0  0  0
  192.4010  173.7940  144.0460 Cl  0  0  0  0  0  0  0  0  0  0  0  0
  188.1890  175.7670  141.5970 C   0  0  0  0  0  0  0  0  0  0  0  0
  190.7360  173.3630  140.4410 C   0  0  0  0  0  3  0  0  0  0  0  0
  190.1110  174.8590  142.7640 C   0  0  0  0  0  0  0  0  0  0  0  0
  187.8420  176.5380  142.6780 C   0  0  0  0  0  0  0  0  0  0  0  0
  185.6960  177.5280  140.2990 O   0  0  0  0  0  0  0  0  0  0  0  0
  186.8000  177.3320  142.3130 N   0  0  0  0  0  0  0  0  0  0  0  0
  184.4260  179.7220  143.8880 C   0  0  0  0  0  2  0  0  0  0  0  0
  185.6910  176.6310  145.1360 C   0  0  0  0  0  1  0  0  0  0  0  0
  189.6140  174.1840  140.4560 C   0  0  0  0  0  3  0  0  0  0  0  0
  189.2950  174.9240  141.6000 C   0  0  0  0  0  0  0  0  0  0  0  0
  186.8230  177.6530  145.2170 C   0  0  2  0  0  3  0  0  0  0  0  0
  190.9330  176.1680  147.3410 N   0  0  0  0  0  2  0  0  0  0  0  0
  193.1700  176.3310  146.8860 C   0  0  0  0  0  1  0  0  0  0  0  0
  192.1250  175.4330  147.3410 N   0  0  0  0  0  2  0  0  0  0  0  0
  1  5  1  0  0  0  0
  2 19  1  0  0  0  0
  2 16  1  0  0  0  0
  3 10  1  0  0  0  0
  3 17  1  0  0  0  0
  4  1  1  0  0  0  0
  4 12  1  0  0  0  0
  5 11  2  0  0  0  0
  7 15  1  1  0  0  0
  7 27  1  0  0  0  0
  8  6  2  0  0  0  0
  9 14  1  1  0  0  0
  9  7  1  0  0  0  0
 10 22  1  0  0  0  0
 11  8  1  0  0  0  0
 11 28  1  0  0  0  0
 12 27  1  0  0  0  0
 12  8  1  0  0  0  0
 13  2  2  0  0  0  0
 14 23  1  0  0  0  0
 17 26  2  0  0  0  0
 17 20  1  0  0  0  0
 18 25  2  0  0  0  0
 18 13  1  0  0  0  0
 19  1  2  0  0  0  0
 20  4  2  0  0  0  0
 21 10  2  0  0  0  0
 22 20  1  0  0  0  0
 22  9  1  0  0  0  0
 23 15  1  0  0  0  0
 25 26  1  0  0  0  0
 26 19  1  0  0  0  0
 27 24  1  6  0  0  0
 28 30  1  0  0  0  0
 29 30  1  0  0  0  0
M  END
>  <MODEL>
7

>  <REMARK>
 VINA RESULT:      -7.8      2.568      7.241
  Name = 
  1 active torsions:
  status: ('A' for Active; 'I' for Inactive)
    1  A    between atoms: N_28  and  N_30
                            x       y       z     vdW  Elec       q    Type
                         _______ _______ _______ _____ _____    ______ ____

>  <TORSDO>
F 1

$$$$
=
 OpenBabel11112416193D

 30 35  0  0  1  0  0  0  0  0999 V2000
  188.2320  175.5170  141.2320 C   0  0  0  0  0  0  0  0  0  0  0  0
  188.1720  174.5700  138.8930 C   0  0  0  0  0  0  0  0  0  0  0  0
  191.0540  172.7470  142.3730 N   0  0  0  0  0  2  0  0  0  0  0  0
  188.7920  175.5060  142.5480 C   0  0  0  0  0  0  0  0  0  0  0  0
  187.2810  176.4420  140.9450 N   0  0  0  0  0  0  0  0  0  0  0  0
  187.1370  178.3210  143.9140 O   0  0  0  0  0  0  0  0  0  0  0  0
  188.9760  175.5740  145.6440 C   0  0  1  0  0  3  0  0  0  0  0  0
  187.4810  177.4220  143.0950 C   0  0  0  0  0  0  0  0  0  0  0  0
  189.9140  174.4040  145.4170 C   0  0  2  0  0  3  0  0  0  0  0  0
  191.0930  173.0740  143.6810 C   0  0  0  0  0  0  0  0  0  0  0  0
  186.8730  177.3700  141.8420 C   0  0  0  0  0  0  0  0  0  0  0  0
  188.4530  176.5140  143.4250 N   0  0  0  0  0  0  0  0  0  0  0  0
  188.6750  173.6480  137.9710 C   0  0  0  0  0  3  0  0  0  0  0  0
  191.1080  174.6560  146.3140 C   0  0  0  0  0  2  0  0  0  0  0  0
  189.2520  176.0450  147.0640 C   0  0  0  0  0  2  0  0  0  0  0  0
  186.9150  175.6360  138.2690 Cl  0  0  0  0  0  0  0  0  0  0  0  0
  190.1780  173.6350  141.8720 C   0  0  0  0  0  0  0  0  0  0  0  0
  189.6690  172.7420  138.3300 C   0  0  0  0  0  3  0  0  0  0  0  0
  188.6760  174.5960  140.2290 C   0  0  0  0  0  0  0  0  0  0  0  0
  189.7260  174.4860  142.8480 C   0  0  0  0  0  0  0  0  0  0  0  0
  191.7700  172.4150  144.5150 O   0  0  0  0  0  0  0  0  0  0  0  0
  190.3050  174.1260  144.0250 N   0  0  0  0  0  0  0  0  0  0  0  0
  190.5420  175.3780  147.5180 C   0  0  0  0  0  2  0  0  0  0  0  0
  190.6050  177.1950  144.4510 C   0  0  0  0  0  1  0  0  0  0  0  0
  190.1730  172.7440  139.6260 C   0  0  0  0  0  3  0  0  0  0  0  0
  189.6910  173.6580  140.5700 C   0  0  0  0  0  0  0  0  0  0  0  0
  189.1660  176.7360  144.6800 C   0  0  2  0  0  3  0  0  0  0  0  0
  185.8580  178.3110  141.4890 N   0  0  0  0  0  2  0  0  0  0  0  0
  183.8170  178.2990  140.4540 C   0  0  0  0  0  1  0  0  0  0  0  0
  185.2500  178.2830  140.2270 N   0  0  0  0  0  2  0  0  0  0  0  0
  1  4  1  0  0  0  0
  2 19  1  0  0  0  0
  3 10  1  0  0  0  0
  4 20  2  0  0  0  0
  4 12  1  0  0  0  0
  5  1  1  0  0  0  0
  5 11  2  0  0  0  0
  7 15  1  1  0  0  0
  8 12  1  0  0  0  0
  8  6  2  0  0  0  0
  9  7  1  0  0  0  0
  9 14  1  1  0  0  0
 10 22  1  0  0  0  0
 10 21  2  0  0  0  0
 11  8  1  0  0  0  0
 12 27  1  0  0  0  0
 13 18  1  0  0  0  0
 13  2  2  0  0  0  0
 14 23  1  0  0  0  0
 15 23  1  0  0  0  0
 16  2  1  0  0  0  0
 17  3  1  0  0  0  0
 17 20  1  0  0  0  0
 18 25  2  0  0  0  0
 19 26  1  0  0  0  0
 19  1  2  0  0  0  0
 20 22  1  0  0  0  0
 22  9  1  0  0  0  0
 25 26  1  0  0  0  0
 26 17  2  0  0  0  0
 27 24  1  6  0  0  0
 27  7  1  0  0  0  0
 28 11  1  0  0  0  0
 30 29  1  0  0  0  0
 30 28  1  0  0  0  0
M  END
>  <MODEL>
8

>  <REMARK>
 VINA RESULT:      -7.8      2.641      5.265
  Name = 
  1 active torsions:
  status: ('A' for Active; 'I' for Inactive)
    1  A    between atoms: N_28  and  N_30
                            x       y       z     vdW  Elec       q    Type
                         _______ _______ _______ _____ _____    ______ ____

>  <TORSDO>
F 1

$$$$
=
 OpenBabel11112416193D

 30 35  0  0  1  0  0  0  0  0999 V2000
  191.5860  175.0540  143.2480 C   0  0  0  0  0  0  0  0  0  0  0  0
  192.3070  173.9550  141.0930 C   0  0  0  0  0  0  0  0  0  0  0  0
  187.6510  175.0320  142.0430 N   0  0  0  0  0  2  0  0  0  0  0  0
  190.5350  175.5410  144.0880 C   0  0  0  0  0  0  0  0  0  0  0  0
  192.8610  175.1270  143.7060 N   0  0  0  0  0  0  0  0  0  0  0  0
  192.4250  176.4000  146.9550 O   0  0  0  0  0  0  0  0  0  0  0  0
  188.9550  177.3930  146.0100 C   0  0  1  0  0  3  0  0  0  0  0  0
  192.1410  175.9990  145.7900 C   0  0  0  0  0  0  0  0  0  0  0  0
  187.8200  177.0920  145.0490 C   0  0  2  0  0  3  0  0  0  0  0  0
  187.1500  175.7220  143.0880 C   0  0  0  0  0  0  0  0  0  0  0  0
  193.1690  175.6090  144.9320 C   0  0  0  0  0  0  0  0  0  0  0  0
  190.8380  175.9330  145.3740 N   0  0  0  0  0  0  0  0  0  0  0  0
  191.9430  173.3920  139.8670 C   0  0  0  0  0  3  0  0  0  0  0  0
  186.6160  176.7910  145.9180 C   0  0  0  0  0  2  0  0  0  0  0  0
  188.2890  177.9440  147.2610 C   0  0  0  0  0  2  0  0  0  0  0  0
  194.0360  173.9560  141.4270 Cl  0  0  0  0  0  0  0  0  0  0  0  0
  188.9550  174.9330  142.3520 C   0  0  0  0  0  0  0  0  0  0  0  0
  190.6090  173.3300  139.4710 C   0  0  0  0  0  3  0  0  0  0  0  0
  191.3050  174.4770  141.9670 C   0  0  0  0  0  0  0  0  0  0  0  0
  189.2220  175.5240  143.5610 C   0  0  0  0  0  0  0  0  0  0  0  0
  185.9410  176.0760  143.1380 O   0  0  0  0  0  0  0  0  0  0  0  0
  188.0620  176.0470  144.0410 N   0  0  0  0  0  0  0  0  0  0  0  0
  186.8000  177.6550  147.1470 C   0  0  0  0  0  2  0  0  0  0  0  0
  189.0550  174.9190  146.7680 C   0  0  0  0  0  1  0  0  0  0  0  0
  189.6170  173.8360  140.3030 C   0  0  0  0  0  3  0  0  0  0  0  0
  189.9500  174.4010  141.5390 C   0  0  0  0  0  0  0  0  0  0  0  0
  189.8090  176.1900  146.3780 C   0  0  2  0  0  3  0  0  0  0  0  0
  194.5310  175.6750  145.3570 N   0  0  0  0  0  2  0  0  0  0  0  0
  196.0970  176.4700  143.8890 C   0  0  0  0  0  1  0  0  0  0  0  0
  195.5740  175.2700  144.5140 N   0  0  0  0  0  2  0  0  0  0  0  0
  1  5  1  0  0  0  0
  1  4  1  0  0  0  0
  2 16  1  0  0  0  0
  2 19  1  0  0  0  0
  3 17  1  0  0  0  0
  3 10  1  0  0  0  0
  4 12  1  0  0  0  0
  5 11  2  0  0  0  0
  7 27  1  0  0  0  0
  7 15  1  1  0  0  0
  8  6  2  0  0  0  0
  9 14  1  1  0  0  0
  9  7  1  0  0  0  0
 10 21  2  0  0  0  0
 10 22  1  0  0  0  0
 11 28  1  0  0  0  0
 11  8  1  0  0  0  0
 12  8  1  0  0  0  0
 12 27  1  0  0  0  0
 13  2  2  0  0  0  0
 14 23  1  0  0  0  0
 17 20  1  0  0  0  0
 18 13  1  0  0  0  0
 18 25  2  0  0  0  0
 19  1  2  0  0  0  0
 20 22  1  0  0  0  0
 20  4  2  0  0  0  0
 22  9  1  0  0  0  0
 23 15  1  0  0  0  0
 25 26  1  0  0  0  0
 26 19  1  0  0  0  0
 26 17  2  0  0  0  0
 27 24  1  6  0  0  0
 29 30  1  0  0  0  0
 30 28  1  0  0  0  0
M  END
>  <MODEL>
9

>  <REMARK>
 VINA RESULT:      -7.7      3.190      7.533
  Name = 
  1 active torsions:
  status: ('A' for Active; 'I' for Inactive)
    1  A    between atoms: N_28  and  N_30
                            x       y       z     vdW  Elec       q    Type
                         _______ _______ _______ _____ _____    ______ ____

>  <TORSDO>
F 1

$$$$
