=
 OpenBabel11112417203D

 37 44  0  0  1  0  0  0  0  0999 V2000
  189.8990  174.9940  146.0270 C   0  0  0  0  0  2  0  0  0  0  0  0
  186.6610  178.4740  147.4730 C   0  0  0  0  0  0  0  0  0  0  0  0
  186.9670  177.3870  143.4010 C   0  0  0  0  0  0  0  0  0  0  0  0
  191.0940  174.7270  146.9450 C   0  0  1  0  0  3  0  0  0  0  0  0
  190.1760  175.7720  142.0560 C   0  0  0  0  0  2  0  0  0  0  0  0
  185.7870  178.7090  145.0850 C   0  0  0  0  0  0  0  0  0  0  0  0
  188.1840  176.6950  143.3810 C   0  0  0  0  0  0  0  0  0  0  0  0
  192.3360  174.1810  144.8360 C   0  0  1  0  0  3  0  0  0  0  0  0
  186.8510  177.9320  144.7070 C   0  0  0  0  0  0  0  0  0  0  0  0
  188.7340  176.0100  142.2170 N   0  0  0  0  0  0  0  0  0  0  0  0
  184.8340  178.9560  144.1840 O   0  0  0  0  0  0  0  0  0  0  0  0
  192.4330  174.8110  146.2170 C   0  0  0  0  0  2  0  0  0  0  0  0
  187.9020  177.5750  145.4770 C   0  0  0  0  0  0  0  0  0  0  0  0
  185.9160  177.2240  147.9070 C   0  0  0  0  0  1  0  0  0  0  0  0
  185.8560  177.0760  141.0950 C   0  0  0  0  0  2  0  0  0  0  0  0
  184.8770  178.4640  142.9330 C   0  0  0  0  0  3  0  0  0  0  0  0
  188.0410  178.0710  146.8860 C   0  0  0  0  0  2  0  0  0  0  0  0
  192.0490  175.2190  143.7490 C   0  0  1  0  0  3  0  0  0  0  0  0
  190.6680  175.1200  143.3080 C   0  0  1  0  0  3  0  0  0  0  0  0
  185.9510  177.6650  142.4710 C   0  0  0  0  0  0  0  0  0  0  0  0
  188.7630  176.8230  144.6870 C   0  0  0  0  0  0  0  0  0  0  0  0
  185.7750  179.2820  146.4800 C   0  0  0  0  0  2  0  0  0  0  0  0
  187.8070  175.5670  141.1690 C   0  0  1  0  0  3  0  0  0  0  0  0
  186.8980  179.3270  148.7010 C   0  0  0  0  0  1  0  0  0  0  0  0
  191.0710  176.2780  144.1230 N   0  0  1  0  0  0  0  0  0  0  0  0
  193.5330  173.5300  144.5420 O   0  0  0  0  0  1  0  0  0  0  0  0
  190.0760  176.2820  145.2060 C   0  0  2  0  0  3  0  0  0  0  0  0
  187.1960  176.7600  140.4580 C   0  0  0  0  0  2  0  0  0  0  0  0
  188.2010  174.7370  138.8400 C   0  0  0  0  0  3  0  0  0  0  0  0
  188.3850  174.5560  140.2160 C   0  0  0  0  0  0  0  0  0  0  0  0
  189.0630  173.4170  140.6780 C   0  0  0  0  0  3  0  0  0  0  0  0
  190.2520  171.3290  140.2440 N   0  0  0  0  0  1  0  0  0  0  0  0
  189.3820  172.6700  138.3980 C   0  0  0  0  0  3  0  0  0  0  0  0
  189.5620  172.4790  139.7710 C   0  0  0  0  0  0  0  0  0  0  0  0
  188.7000  173.7990  137.9320 C   0  0  0  0  0  3  0  0  0  0  0  0
  192.0110  176.7090  147.9170 O   0  0  0  0  0  1  0  0  0  0  0  0
  191.0980  175.6770  148.1320 C   0  0  0  0  0  2  0  0  0  0  0  0
  1  4  1  0  0  0  0
  2 14  1  0  0  0  0
  2 24  1  0  0  0  0
  3  9  1  0  0  0  0
  4 37  1  1  0  0  0
  5 10  1  0  0  0  0
  5 19  1  0  0  0  0
  6 22  1  0  0  0  0
  7  3  2  0  0  0  0
  7 21  1  0  0  0  0
  8 26  1  6  0  0  0
  8 12  1  0  0  0  0
  9  6  2  0  0  0  0
  9 13  1  0  0  0  0
 10  7  1  0  0  0  0
 11  6  1  0  0  0  0
 12  4  1  0  0  0  0
 13 17  1  0  0  0  0
 15 20  1  0  0  0  0
 16 11  1  0  0  0  0
 17  2  1  0  0  0  0
 18 25  1  0  0  0  0
 18  8  1  0  0  0  0
 19 18  1  0  0  0  0
 19 25  1  0  0  0  0
 20 16  2  0  0  0  0
 20  3  1  0  0  0  0
 21 27  1  0  0  0  0
 21 13  2  0  0  0  0
 22  2  1  0  0  0  0
 23 10  1  0  0  0  0
 25 27  1  0  0  0  0
 27  1  1  0  0  0  0
 28 15  1  0  0  0  0
 28 23  1  0  0  0  0
 29 30  1  0  0  0  0
 30 31  2  0  0  0  0
 30 23  1  0  0  0  0
 33 34  2  0  0  0  0
 34 32  1  0  0  0  0
 34 31  1  0  0  0  0
 35 33  1  0  0  0  0
 35 29  2  0  0  0  0
 36 37  1  0  0  0  0
M  END
>  <MODEL>
1

>  <REMARK>
 VINA RESULT:      -9.0      0.000      0.000
  Name = 
  2 active torsions:
  status: ('A' for Active; 'I' for Inactive)
    1  A    between atoms: C_4  and  C_37
    2  A    between atoms: C_23  and  C_30
                            x       y       z     vdW  Elec       q    Type
                         _______ _______ _______ _____ _____    ______ ____

>  <TORSDO>
F 2

$$$$
=
 OpenBabel11112417203D

 37 44  0  0  1  0  0  0  0  0999 V2000
  190.2230  174.1580  140.6620 C   0  0  0  0  0  2  0  0  0  0  0  0
  187.0080  177.0110  143.1510 C   0  0  0  0  0  0  0  0  0  0  0  0
  190.5150  175.5870  145.0300 C   0  0  0  0  0  0  0  0  0  0  0  0
  189.6870  173.3980  139.4450 C   0  0  1  0  0  3  0  0  0  0  0  0
  192.2970  172.4590  143.7050 C   0  0  0  0  0  2  0  0  0  0  0  0
  188.5260  176.9970  145.2050 C   0  0  0  0  0  0  0  0  0  0  0  0
  190.9200  174.5760  144.1510 C   0  0  0  0  0  0  0  0  0  0  0  0
  191.3870  171.6520  140.0380 C   0  0  1  0  0  3  0  0  0  0  0  0
  189.2480  176.0260  144.5630 C   0  0  0  0  0  0  0  0  0  0  0  0
  192.1530  173.8070  144.2740 N   0  0  0  0  0  0  0  0  0  0  0  0
  189.0430  177.5410  146.3090 O   0  0  0  0  0  0  0  0  0  0  0  0
  189.9860  171.9020  139.5000 C   0  0  0  0  0  2  0  0  0  0  0  0
  188.8920  175.3670  143.4390 C   0  0  0  0  0  0  0  0  0  0  0  0
  187.7050  178.0690  142.3140 C   0  0  0  0  0  1  0  0  0  0  0  0
  192.4020  175.9170  146.7570 C   0  0  0  0  0  2  0  0  0  0  0  0
  190.2410  177.1790  146.8010 C   0  0  0  0  0  3  0  0  0  0  0  0
  187.5660  175.6110  142.7790 C   0  0  0  0  0  2  0  0  0  0  0  0
  191.3840  171.3760  141.5440 C   0  0  1  0  0  3  0  0  0  0  0  0
  191.8860  172.5300  142.2700 C   0  0  1  0  0  3  0  0  0  0  0  0
  191.0340  176.1750  146.1960 C   0  0  0  0  0  0  0  0  0  0  0  0
  189.8920  174.4440  143.1590 C   0  0  0  0  0  0  0  0  0  0  0  0
  187.1690  177.3630  144.6600 C   0  0  0  0  0  2  0  0  0  0  0  0
  193.2720  174.4020  145.0150 C   0  0  1  0  0  3  0  0  0  0  0  0
  185.5340  177.0420  142.8100 C   0  0  0  0  0  1  0  0  0  0  0  0
  190.4490  172.2160  142.3420 N   0  0  1  0  0  0  0  0  0  0  0  0
  191.9480  170.5620  139.3740 O   0  0  0  0  0  1  0  0  0  0  0  0
  189.8140  173.4940  141.9860 C   0  0  2  0  0  3  0  0  0  0  0  0
  192.9330  174.5220  146.4890 C   0  0  0  0  0  2  0  0  0  0  0  0
  195.0690  172.8050  145.7100 C   0  0  0  0  0  3  0  0  0  0  0  0
  194.5990  173.7350  144.7760 C   0  0  0  0  0  0  0  0  0  0  0  0
  195.3920  174.0580  143.6620 C   0  0  0  0  0  3  0  0  0  0  0  0
  197.4320  173.7720  142.3520 N   0  0  0  0  0  1  0  0  0  0  0  0
  197.0950  172.5110  144.4150 C   0  0  0  0  0  3  0  0  0  0  0  0
  196.6340  173.4440  143.4830 C   0  0  0  0  0  0  0  0  0  0  0  0
  196.3130  172.1920  145.5300 C   0  0  0  0  0  3  0  0  0  0  0  0
  187.9500  174.5200  138.2460 O   0  0  0  0  0  1  0  0  0  0  0  0
  188.1910  173.6140  139.2790 C   0  0  0  0  0  2  0  0  0  0  0  0
  1 27  1  0  0  0  0
  2 22  1  0  0  0  0
  3 20  1  0  0  0  0
  4 37  1  1  0  0  0
  4 12  1  0  0  0  0
  4  1  1  0  0  0  0
  5 10  1  0  0  0  0
  6 11  1  0  0  0  0
  7 10  1  0  0  0  0
  7  3  2  0  0  0  0
  8 26  1  6  0  0  0
  8 18  1  0  0  0  0
  9  3  1  0  0  0  0
  9  6  2  0  0  0  0
 10 23  1  0  0  0  0
 11 16  1  0  0  0  0
 12  8  1  0  0  0  0
 13  9  1  0  0  0  0
 14  2  1  0  0  0  0
 17  2  1  0  0  0  0
 17 13  1  0  0  0  0
 18 19  1  0  0  0  0
 18 25  1  0  0  0  0
 19 25  1  0  0  0  0
 19  5  1  0  0  0  0
 20 15  1  0  0  0  0
 20 16  2  0  0  0  0
 21 13  2  0  0  0  0
 21  7  1  0  0  0  0
 22  6  1  0  0  0  0
 23 28  1  0  0  0  0
 24  2  1  0  0  0  0
 27 25  1  0  0  0  0
 27 21  1  0  0  0  0
 28 15  1  0  0  0  0
 30 23  1  0  0  0  0
 30 29  2  0  0  0  0
 31 30  1  0  0  0  0
 32 34  1  0  0  0  0
 33 35  2  0  0  0  0
 34 31  2  0  0  0  0
 34 33  1  0  0  0  0
 35 29  1  0  0  0  0
 36 37  1  0  0  0  0
M  END
>  <MODEL>
2

>  <REMARK>
 VINA RESULT:      -8.6      2.952      6.548
  Name = 
  2 active torsions:
  status: ('A' for Active; 'I' for Inactive)
    1  A    between atoms: C_4  and  C_37
    2  A    between atoms: C_23  and  C_30
                            x       y       z     vdW  Elec       q    Type
                         _______ _______ _______ _____ _____    ______ ____

>  <TORSDO>
F 2

$$$$
=
 OpenBabel11112417203D

 37 44  0  0  1  0  0  0  0  0999 V2000
  192.7360  176.5650  145.1060 C   0  0  0  0  0  2  0  0  0  0  0  0
  194.0470  173.5340  141.3950 C   0  0  0  0  0  0  0  0  0  0  0  0
  189.9960  174.5840  141.9790 C   0  0  0  0  0  0  0  0  0  0  0  0
  193.6960  176.6720  146.2940 C   0  0  1  0  0  3  0  0  0  0  0  0
  188.7710  175.7700  145.4160 C   0  0  0  0  0  2  0  0  0  0  0  0
  191.6290  173.4230  140.5800 C   0  0  0  0  0  0  0  0  0  0  0  0
  190.0210  175.1110  143.2760 C   0  0  0  0  0  0  0  0  0  0  0  0
  191.6340  177.0570  147.6680 C   0  0  1  0  0  3  0  0  0  0  0  0
  191.2930  174.0550  141.7480 C   0  0  0  0  0  0  0  0  0  0  0  0
  188.8820  175.7220  143.9500 N   0  0  0  0  0  0  0  0  0  0  0  0
  190.6950  173.3050  139.6340 O   0  0  0  0  0  0  0  0  0  0  0  0
  193.0130  176.4150  147.6350 C   0  0  0  0  0  2  0  0  0  0  0  0
  192.1000  174.2690  142.8100 C   0  0  0  0  0  0  0  0  0  0  0  0
  194.4650  174.8690  140.8050 C   0  0  0  0  0  1  0  0  0  0  0  0
  187.6560  175.0450  140.9970 C   0  0  0  0  0  2  0  0  0  0  0  0
  189.4500  173.7910  139.7830 C   0  0  0  0  0  3  0  0  0  0  0  0
  193.5100  173.7550  142.8350 C   0  0  0  0  0  2  0  0  0  0  0  0
  190.5290  176.0680  147.2850 C   0  0  1  0  0  3  0  0  0  0  0  0
  190.0440  176.3480  145.9450 C   0  0  1  0  0  3  0  0  0  0  0  0
  189.0310  174.4440  140.9680 C   0  0  0  0  0  0  0  0  0  0  0  0
  191.3450  174.9050  143.7880 C   0  0  0  0  0  0  0  0  0  0  0  0
  193.0190  172.8520  140.4450 C   0  0  0  0  0  2  0  0  0  0  0  0
  187.8070  176.2860  143.1250 C   0  0  1  0  0  3  0  0  0  0  0  0
  195.2760  172.6540  141.4760 C   0  0  0  0  0  1  0  0  0  0  0  0
  190.8630  175.1460  146.1660 N   0  0  1  0  0  0  0  0  0  0  0  0
  191.3850  177.5470  148.9490 O   0  0  0  0  0  1  0  0  0  0  0  0
  191.9120  175.2680  145.1410 C   0  0  2  0  0  3  0  0  0  0  0  0
  187.0660  175.1850  142.3880 C   0  0  0  0  0  2  0  0  0  0  0  0
  186.7710  178.5440  143.4340 C   0  0  0  0  0  3  0  0  0  0  0  0
  186.8810  177.2150  143.8620 C   0  0  0  0  0  0  0  0  0  0  0  0
  186.1620  176.7910  144.9910 C   0  0  0  0  0  3  0  0  0  0  0  0
  184.6050  177.2490  146.8150 N   0  0  0  0  0  1  0  0  0  0  0  0
  185.2230  179.0080  145.2380 C   0  0  0  0  0  3  0  0  0  0  0  0
  185.3330  177.6850  145.6730 C   0  0  0  0  0  0  0  0  0  0  0  0
  185.9420  179.4380  144.1180 C   0  0  0  0  0  3  0  0  0  0  0  0
  195.4670  175.9070  144.8830 O   0  0  0  0  0  1  0  0  0  0  0  0
  194.8750  175.7260  146.1330 C   0  0  0  0  0  2  0  0  0  0  0  0
  1 27  1  0  0  0  0
  1  4  1  0  0  0  0
  2 24  1  0  0  0  0
  2 17  1  0  0  0  0
  3  7  2  0  0  0  0
  4 37  1  6  0  0  0
  4 12  1  0  0  0  0
  5 19  1  0  0  0  0
  6  9  2  0  0  0  0
  7 21  1  0  0  0  0
  7 10  1  0  0  0  0
  8 26  1  1  0  0  0
  9  3  1  0  0  0  0
  9 13  1  0  0  0  0
 10  5  1  0  0  0  0
 11 16  1  0  0  0  0
 11  6  1  0  0  0  0
 12  8  1  0  0  0  0
 13 17  1  0  0  0  0
 13 21  2  0  0  0  0
 14  2  1  0  0  0  0
 15 28  1  0  0  0  0
 16 20  2  0  0  0  0
 18  8  1  0  0  0  0
 19 25  1  0  0  0  0
 19 18  1  0  0  0  0
 20 15  1  0  0  0  0
 20  3  1  0  0  0  0
 21 27  1  0  0  0  0
 22  6  1  0  0  0  0
 22  2  1  0  0  0  0
 23 30  1  0  0  0  0
 23 10  1  0  0  0  0
 25 18  1  0  0  0  0
 27 25  1  0  0  0  0
 28 23  1  0  0  0  0
 29 30  2  0  0  0  0
 29 35  1  0  0  0  0
 30 31  1  0  0  0  0
 31 34  2  0  0  0  0
 33 34  1  0  0  0  0
 34 32  1  0  0  0  0
 35 33  2  0  0  0  0
 36 37  1  0  0  0  0
M  END
>  <MODEL>
3

>  <REMARK>
 VINA RESULT:      -8.5      2.398      6.637
  Name = 
  2 active torsions:
  status: ('A' for Active; 'I' for Inactive)
    1  A    between atoms: C_4  and  C_37
    2  A    between atoms: C_23  and  C_30
                            x       y       z     vdW  Elec       q    Type
                         _______ _______ _______ _____ _____    ______ ____

>  <TORSDO>
F 2

$$$$
=
 OpenBabel11112417203D

 37 44  0  0  1  0  0  0  0  0999 V2000
  190.6280  176.0810  147.1300 C   0  0  0  0  0  2  0  0  0  0  0  0
  186.3520  178.6090  147.1100 C   0  0  0  0  0  0  0  0  0  0  0  0
  187.6750  176.6040  143.6340 C   0  0  0  0  0  0  0  0  0  0  0  0
  191.6650  176.4690  148.1880 C   0  0  1  0  0  3  0  0  0  0  0  0
  191.3940  175.7860  143.1580 C   0  0  0  0  0  2  0  0  0  0  0  0
  185.8930  177.8900  144.7020 C   0  0  0  0  0  0  0  0  0  0  0  0
  189.0190  176.3560  143.9410 C   0  0  0  0  0  0  0  0  0  0  0  0
  193.3690  175.7890  146.4790 C   0  0  1  0  0  3  0  0  0  0  0  0
  187.1800  177.4190  144.6850 C   0  0  0  0  0  0  0  0  0  0  0  0
  189.9380  175.5890  143.1080 N   0  0  0  0  0  0  0  0  0  0  0  0
  185.0880  177.5650  143.6890 O   0  0  0  0  0  0  0  0  0  0  0  0
  193.0380  176.7710  147.5930 C   0  0  0  0  0  2  0  0  0  0  0  0
  188.1320  177.6390  145.6180 C   0  0  0  0  0  0  0  0  0  0  0  0
  185.9140  177.3570  147.8480 C   0  0  0  0  0  1  0  0  0  0  0  0
  187.1290  175.3360  141.4560 C   0  0  0  0  0  2  0  0  0  0  0  0
  185.4900  176.7890  142.6660 C   0  0  0  0  0  3  0  0  0  0  0  0
  187.8720  178.5200  146.8050 C   0  0  0  0  0  2  0  0  0  0  0  0
  193.0080  176.3430  145.0980 C   0  0  1  0  0  3  0  0  0  0  0  0
  191.8110  175.6940  144.5910 C   0  0  1  0  0  3  0  0  0  0  0  0
  186.8080  176.2790  142.5780 C   0  0  0  0  0  0  0  0  0  0  0  0
  189.2940  177.0130  145.1860 C   0  0  0  0  0  0  0  0  0  0  0  0
  185.4720  178.7890  145.8380 C   0  0  0  0  0  2  0  0  0  0  0  0
  189.3740  174.6050  142.1750 C   0  0  1  0  0  3  0  0  0  0  0  0
  186.1190  179.7950  148.0210 C   0  0  0  0  0  1  0  0  0  0  0  0
  191.7260  177.0960  145.0310 N   0  0  1  0  0  0  0  0  0  0  0  0
  194.7320  175.4970  146.5130 O   0  0  0  0  0  1  0  0  0  0  0  0
  190.5890  177.0810  145.9640 C   0  0  2  0  0  3  0  0  0  0  0  0
  188.5960  175.3000  141.0720 C   0  0  0  0  0  2  0  0  0  0  0  0
  190.8650  173.7710  140.3470 C   0  0  0  0  0  3  0  0  0  0  0  0
  190.3700  173.6100  141.6460 C   0  0  0  0  0  0  0  0  0  0  0  0
  190.7760  172.5030  142.4090 C   0  0  0  0  0  3  0  0  0  0  0  0
  192.0910  170.4610  142.6570 N   0  0  0  0  0  1  0  0  0  0  0  0
  192.1760  171.7480  140.5840 C   0  0  0  0  0  3  0  0  0  0  0  0
  191.6790  171.5780  141.8790 C   0  0  0  0  0  0  0  0  0  0  0  0
  191.7690  172.8440  139.8170 C   0  0  0  0  0  3  0  0  0  0  0  0
  191.9000  177.7220  150.2100 O   0  0  0  0  0  1  0  0  0  0  0  0
  191.1920  177.6580  149.0090 C   0  0  0  0  0  2  0  0  0  0  0  0
  1  4  1  0  0  0  0
  2 14  1  0  0  0  0
  2 24  1  0  0  0  0
  3  7  2  0  0  0  0
  3  9  1  0  0  0  0
  4 37  1  6  0  0  0
  5 19  1  0  0  0  0
  6 22  1  0  0  0  0
  7 21  1  0  0  0  0
  8 26  1  6  0  0  0
  8 12  1  0  0  0  0
  9  6  2  0  0  0  0
  9 13  1  0  0  0  0
 10  5  1  0  0  0  0
 10  7  1  0  0  0  0
 11  6  1  0  0  0  0
 12  4  1  0  0  0  0
 13 17  1  0  0  0  0
 15 20  1  0  0  0  0
 16 11  1  0  0  0  0
 17  2  1  0  0  0  0
 18  8  1  0  0  0  0
 19 25  1  0  0  0  0
 19 18  1  0  0  0  0
 20 16  2  0  0  0  0
 20  3  1  0  0  0  0
 21 13  2  0  0  0  0
 21 27  1  0  0  0  0
 22  2  1  0  0  0  0
 23 10  1  0  0  0  0
 25 18  1  0  0  0  0
 25 27  1  0  0  0  0
 27  1  1  0  0  0  0
 28 15  1  0  0  0  0
 28 23  1  0  0  0  0
 29 30  1  0  0  0  0
 30 23  1  0  0  0  0
 30 31  2  0  0  0  0
 33 34  2  0  0  0  0
 34 31  1  0  0  0  0
 34 32  1  0  0  0  0
 35 29  2  0  0  0  0
 35 33  1  0  0  0  0
 37 36  1  0  0  0  0
M  END
>  <MODEL>
4

>  <REMARK>
 VINA RESULT:      -8.3      1.653      2.051
  Name = 
  2 active torsions:
  status: ('A' for Active; 'I' for Inactive)
    1  A    between atoms: C_4  and  C_37
    2  A    between atoms: C_23  and  C_30
                            x       y       z     vdW  Elec       q    Type
                         _______ _______ _______ _____ _____    ______ ____

>  <TORSDO>
F 2

$$$$
=
 OpenBabel11112417203D

 37 44  0  0  1  0  0  0  0  0999 V2000
  190.0060  174.5330  141.5150 C   0  0  0  0  0  2  0  0  0  0  0  0
  189.3380  176.2680  146.1220 C   0  0  0  0  0  0  0  0  0  0  0  0
  193.2190  175.3950  144.7000 C   0  0  0  0  0  0  0  0  0  0  0  0
  188.8120  173.8450  140.8480 C   0  0  1  0  0  3  0  0  0  0  0  0
  193.7190  172.9290  141.8030 C   0  0  0  0  0  2  0  0  0  0  0  0
  191.8610  176.3070  146.5150 C   0  0  0  0  0  0  0  0  0  0  0  0
  192.9410  174.6200  143.5670 C   0  0  0  0  0  0  0  0  0  0  0  0
  190.5300  172.4430  139.6770 C   0  0  1  0  0  3  0  0  0  0  0  0
  191.9710  175.6080  145.3420 C   0  0  0  0  0  0  0  0  0  0  0  0
  193.9420  174.1250  142.6290 N   0  0  0  0  0  0  0  0  0  0  0  0
  192.9740  176.7970  147.0650 O   0  0  0  0  0  0  0  0  0  0  0  0
  189.1490  172.4550  140.3140 C   0  0  0  0  0  2  0  0  0  0  0  0
  190.9630  175.0450  144.6410 C   0  0  0  0  0  0  0  0  0  0  0  0
  189.1730  177.5530  145.3300 C   0  0  0  0  0  1  0  0  0  0  0  0
  195.7510  175.8890  144.7020 C   0  0  0  0  0  2  0  0  0  0  0  0
  194.1870  176.6390  146.5060 C   0  0  0  0  0  3  0  0  0  0  0  0
  189.5490  175.0840  145.1410 C   0  0  0  0  0  2  0  0  0  0  0  0
  191.6110  171.9740  140.6560 C   0  0  1  0  0  3  0  0  0  0  0  0
  192.4100  173.1010  141.1040 C   0  0  1  0  0  3  0  0  0  0  0  0
  194.3760  175.9180  145.3020 C   0  0  0  0  0  0  0  0  0  0  0  0
  191.5240  174.4050  143.5420 C   0  0  0  0  0  0  0  0  0  0  0  0
  190.4980  176.4420  147.1460 C   0  0  0  0  0  2  0  0  0  0  0  0
  195.2180  174.8430  142.5310 C   0  0  1  0  0  3  0  0  0  0  0  0
  188.0570  176.0260  146.8910 C   0  0  0  0  0  1  0  0  0  0  0  0
  191.4680  172.4780  142.0490 N   0  0  1  0  0  0  0  0  0  0  0  0
  190.5190  171.5980  138.5690 O   0  0  0  0  0  1  0  0  0  0  0  0
  190.6940  173.6250  142.5480 C   0  0  2  0  0  3  0  0  0  0  0  0
  196.0170  174.6890  143.8130 C   0  0  0  0  0  2  0  0  0  0  0  0
  197.1500  173.6940  141.4280 C   0  0  0  0  0  3  0  0  0  0  0  0
  196.0230  174.5150  141.3020 C   0  0  0  0  0  0  0  0  0  0  0  0
  195.6930  175.0500  140.0460 C   0  0  0  0  0  3  0  0  0  0  0  0
  196.1360  175.2930  137.6580 N   0  0  0  0  0  1  0  0  0  0  0  0
  197.5960  173.9260  139.0590 C   0  0  0  0  0  3  0  0  0  0  0  0
  196.4760  174.7520  138.9290 C   0  0  0  0  0  0  0  0  0  0  0  0
  197.9330  173.3980  140.3090 C   0  0  0  0  0  3  0  0  0  0  0  0
  187.3890  174.9970  142.3850 O   0  0  0  0  0  1  0  0  0  0  0  0
  187.6290  173.7540  141.7980 C   0  0  0  0  0  2  0  0  0  0  0  0
  1 27  1  0  0  0  0
  2 24  1  0  0  0  0
  2 22  1  0  0  0  0
  3 20  1  0  0  0  0
  3  9  1  0  0  0  0
  4  1  1  0  0  0  0
  4 37  1  1  0  0  0
  5 10  1  0  0  0  0
  6 11  1  0  0  0  0
  6 22  1  0  0  0  0
  7  3  2  0  0  0  0
  8 26  1  6  0  0  0
  8 12  1  0  0  0  0
  8 18  1  0  0  0  0
  9  6  2  0  0  0  0
 10  7  1  0  0  0  0
 12  4  1  0  0  0  0
 13 17  1  0  0  0  0
 13  9  1  0  0  0  0
 14  2  1  0  0  0  0
 15 20  1  0  0  0  0
 16 11  1  0  0  0  0
 17  2  1  0  0  0  0
 18 19  1  0  0  0  0
 18 25  1  0  0  0  0
 19  5  1  0  0  0  0
 19 25  1  0  0  0  0
 20 16  2  0  0  0  0
 21  7  1  0  0  0  0
 21 13  2  0  0  0  0
 23 10  1  0  0  0  0
 23 28  1  0  0  0  0
 25 27  1  0  0  0  0
 27 21  1  0  0  0  0
 28 15  1  0  0  0  0
 30 29  1  0  0  0  0
 30 23  1  0  0  0  0
 31 30  2  0  0  0  0
 32 34  1  0  0  0  0
 33 35  1  0  0  0  0
 34 33  2  0  0  0  0
 34 31  1  0  0  0  0
 35 29  2  0  0  0  0
 37 36  1  0  0  0  0
M  END
>  <MODEL>
5

>  <REMARK>
 VINA RESULT:      -8.2      3.656      6.755
  Name = 
  2 active torsions:
  status: ('A' for Active; 'I' for Inactive)
    1  A    between atoms: C_4  and  C_37
    2  A    between atoms: C_23  and  C_30
                            x       y       z     vdW  Elec       q    Type
                         _______ _______ _______ _____ _____    ______ ____

>  <TORSDO>
F 2

$$$$
=
 OpenBabel11112417203D

 37 44  0  0  1  0  0  0  0  0999 V2000
  189.9980  174.7990  141.7600 C   0  0  0  0  0  2  0  0  0  0  0  0
  187.4610  176.8320  145.5170 C   0  0  0  0  0  0  0  0  0  0  0  0
  191.5970  176.0560  145.8930 C   0  0  0  0  0  0  0  0  0  0  0  0
  189.1970  174.0040  140.7260 C   0  0  1  0  0  3  0  0  0  0  0  0
  193.2880  173.4120  143.6850 C   0  0  0  0  0  2  0  0  0  0  0  0
  189.5960  177.0280  146.9040 C   0  0  0  0  0  0  0  0  0  0  0  0
  191.8240  175.1870  144.8180 C   0  0  0  0  0  0  0  0  0  0  0  0
  191.2680  172.6100  140.4900 C   0  0  1  0  0  3  0  0  0  0  0  0
  190.1920  176.2520  145.9450 C   0  0  0  0  0  0  0  0  0  0  0  0
  193.1300  174.6760  144.4200 N   0  0  0  0  0  0  0  0  0  0  0  0
  190.3750  177.6130  147.8160 O   0  0  0  0  0  0  0  0  0  0  0  0
  189.7470  172.5980  140.5020 C   0  0  0  0  0  2  0  0  0  0  0  0
  189.5720  175.5870  144.9460 C   0  0  0  0  0  0  0  0  0  0  0  0
  187.6170  178.0450  144.6170 C   0  0  0  0  0  1  0  0  0  0  0  0
  193.8940  176.6770  146.8890 C   0  0  0  0  0  2  0  0  0  0  0  0
  191.7130  177.4770  147.8200 C   0  0  0  0  0  3  0  0  0  0  0  0
  188.0770  175.5910  144.8160 C   0  0  0  0  0  2  0  0  0  0  0  0
  191.8560  172.2690  141.8620 C   0  0  1  0  0  3  0  0  0  0  0  0
  192.3810  173.4660  142.4980 C   0  0  1  0  0  3  0  0  0  0  0  0
  192.3930  176.6810  146.8670 C   0  0  0  0  0  0  0  0  0  0  0  0
  190.5460  174.8980  144.2340 C   0  0  0  0  0  0  0  0  0  0  0  0
  188.0920  177.1390  146.9070 C   0  0  0  0  0  2  0  0  0  0  0  0
  194.3220  175.4490  144.7910 C   0  0  1  0  0  3  0  0  0  0  0  0
  185.9810  176.5820  145.7110 C   0  0  0  0  0  1  0  0  0  0  0  0
  191.1430  172.8670  143.0250 N   0  0  1  0  0  0  0  0  0  0  0  0
  191.7290  171.6860  139.5540 O   0  0  0  0  0  1  0  0  0  0  0  0
  190.2140  174.0060  143.0600 C   0  0  2  0  0  3  0  0  0  0  0  0
  194.5230  175.4310  146.2960 C   0  0  0  0  0  2  0  0  0  0  0  0
  196.5300  174.2780  144.6650 C   0  0  0  0  0  3  0  0  0  0  0  0
  195.5660  175.0740  144.0340 C   0  0  0  0  0  0  0  0  0  0  0  0
  195.8000  175.5400  142.7300 C   0  0  0  0  0  3  0  0  0  0  0  0
  197.2090  175.6710  140.7410 N   0  0  0  0  0  1  0  0  0  0  0  0
  197.9340  174.3990  142.6950 C   0  0  0  0  0  3  0  0  0  0  0  0
  196.9790  175.1990  142.0630 C   0  0  0  0  0  0  0  0  0  0  0  0
  197.7100  173.9380  143.9960 C   0  0  0  0  0  3  0  0  0  0  0  0
  187.4430  172.6660  141.6440 O   0  0  0  0  0  1  0  0  0  0  0  0
  187.7290  173.9230  141.1120 C   0  0  0  0  0  2  0  0  0  0  0  0
  1 27  1  0  0  0  0
  2 24  1  0  0  0  0
  2 22  1  0  0  0  0
  3  9  1  0  0  0  0
  3 20  1  0  0  0  0
  4 37  1  1  0  0  0
  4  1  1  0  0  0  0
  5 10  1  0  0  0  0
  6 22  1  0  0  0  0
  6 11  1  0  0  0  0
  7  3  2  0  0  0  0
  8 26  1  6  0  0  0
  8 12  1  0  0  0  0
  8 18  1  0  0  0  0
  9  6  2  0  0  0  0
 10 23  1  0  0  0  0
 10  7  1  0  0  0  0
 11 16  1  0  0  0  0
 12  4  1  0  0  0  0
 13  9  1  0  0  0  0
 14  2  1  0  0  0  0
 17 13  1  0  0  0  0
 17  2  1  0  0  0  0
 18 19  1  0  0  0  0
 18 25  1  0  0  0  0
 19 25  1  0  0  0  0
 19  5  1  0  0  0  0
 20 15  1  0  0  0  0
 20 16  2  0  0  0  0
 21  7  1  0  0  0  0
 21 13  2  0  0  0  0
 23 28  1  0  0  0  0
 25 27  1  0  0  0  0
 27 21  1  0  0  0  0
 28 15  1  0  0  0  0
 30 29  1  0  0  0  0
 30 23  1  0  0  0  0
 31 30  2  0  0  0  0
 32 34  1  0  0  0  0
 33 35  1  0  0  0  0
 34 33  2  0  0  0  0
 34 31  1  0  0  0  0
 35 29  2  0  0  0  0
 37 36  1  0  0  0  0
M  END
>  <MODEL>
6

>  <REMARK>
 VINA RESULT:      -8.1      3.089      6.444
  Name = 
  2 active torsions:
  status: ('A' for Active; 'I' for Inactive)
    1  A    between atoms: C_4  and  C_37
    2  A    between atoms: C_23  and  C_30
                            x       y       z     vdW  Elec       q    Type
                         _______ _______ _______ _____ _____    ______ ____

>  <TORSDO>
F 2

$$$$
=
 OpenBabel11112417203D

 37 44  0  0  1  0  0  0  0  0999 V2000
  187.9850  176.8040  141.2620 C   0  0  0  0  0  2  0  0  0  0  0  0
  184.8260  178.9370  144.4480 C   0  0  0  0  0  0  0  0  0  0  0  0
  188.2630  176.9240  145.8580 C   0  0  0  0  0  0  0  0  0  0  0  0
  187.4410  176.4400  139.8780 C   0  0  1  0  0  3  0  0  0  0  0  0
  189.9660  174.2440  143.7040 C   0  0  0  0  0  2  0  0  0  0  0  0
  186.3170  178.2900  146.4190 C   0  0  0  0  0  0  0  0  0  0  0  0
  188.6480  176.1910  144.7290 C   0  0  0  0  0  0  0  0  0  0  0  0
  189.0800  174.5420  139.9560 C   0  0  1  0  0  3  0  0  0  0  0  0
  187.0170  177.5180  145.5290 C   0  0  0  0  0  0  0  0  0  0  0  0
  189.8560  175.3780  144.6330 N   0  0  0  0  0  0  0  0  0  0  0  0
  186.8350  178.4810  147.6340 O   0  0  0  0  0  0  0  0  0  0  0  0
  187.6940  174.9810  139.5060 C   0  0  0  0  0  2  0  0  0  0  0  0
  186.6550  177.2180  144.2630 C   0  0  0  0  0  0  0  0  0  0  0  0
  185.5660  180.1660  143.9490 C   0  0  0  0  0  1  0  0  0  0  0  0
  190.1370  176.6870  147.6140 C   0  0  0  0  0  2  0  0  0  0  0  0
  188.0150  177.9550  148.0070 C   0  0  0  0  0  3  0  0  0  0  0  0
  185.3460  177.6830  143.6950 C   0  0  0  0  0  2  0  0  0  0  0  0
  189.0490  173.8500  141.3210 C   0  0  1  0  0  3  0  0  0  0  0  0
  189.5760  174.7330  142.3470 C   0  0  1  0  0  3  0  0  0  0  0  0
  188.7850  177.1380  147.1440 C   0  0  0  0  0  0  0  0  0  0  0  0
  187.6300  176.3810  143.7360 C   0  0  0  0  0  0  0  0  0  0  0  0
  184.9780  178.8410  145.9950 C   0  0  0  0  0  2  0  0  0  0  0  0
  190.9830  175.7020  145.5160 C   0  0  1  0  0  3  0  0  0  0  0  0
  183.3580  179.1120  144.1240 C   0  0  0  0  0  1  0  0  0  0  0  0
  188.1300  174.4590  142.3210 N   0  0  1  0  0  0  0  0  0  0  0  0
  189.6150  173.6680  139.0120 O   0  0  0  0  0  1  0  0  0  0  0  0
  187.5380  175.8060  142.3410 C   0  0  2  0  0  3  0  0  0  0  0  0
  190.6290  175.4090  146.9630 C   0  0  0  0  0  2  0  0  0  0  0  0
  192.7410  173.9380  145.7640 C   0  0  0  0  0  3  0  0  0  0  0  0
  192.2920  175.0860  145.1020 C   0  0  0  0  0  0  0  0  0  0  0  0
  193.0890  175.6640  144.1010 C   0  0  0  0  0  3  0  0  0  0  0  0
  195.1170  175.6750  142.7410 N   0  0  0  0  0  1  0  0  0  0  0  0
  194.7550  173.9370  144.4180 C   0  0  0  0  0  3  0  0  0  0  0  0
  194.3150  175.0880  143.7590 C   0  0  0  0  0  0  0  0  0  0  0  0
  193.9680  173.3620  145.4210 C   0  0  0  0  0  3  0  0  0  0  0  0
  185.7040  178.0510  140.1880 O   0  0  0  0  0  1  0  0  0  0  0  0
  185.9550  176.7430  139.7740 C   0  0  0  0  0  2  0  0  0  0  0  0
  1 27  1  0  0  0  0
  2 22  1  0  0  0  0
  3 20  1  0  0  0  0
  4 37  1  1  0  0  0
  4  1  1  0  0  0  0
  5 10  1  0  0  0  0
  6 11  1  0  0  0  0
  7  3  2  0  0  0  0
  8 26  1  6  0  0  0
  8 18  1  0  0  0  0
  9  3  1  0  0  0  0
  9  6  2  0  0  0  0
 10  7  1  0  0  0  0
 10 23  1  0  0  0  0
 11 16  1  0  0  0  0
 12  4  1  0  0  0  0
 12  8  1  0  0  0  0
 13  9  1  0  0  0  0
 14  2  1  0  0  0  0
 17 13  1  0  0  0  0
 17  2  1  0  0  0  0
 18 25  1  0  0  0  0
 18 19  1  0  0  0  0
 19  5  1  0  0  0  0
 20 15  1  0  0  0  0
 20 16  2  0  0  0  0
 21 13  2  0  0  0  0
 21  7  1  0  0  0  0
 22  6  1  0  0  0  0
 23 28  1  0  0  0  0
 24  2  1  0  0  0  0
 25 27  1  0  0  0  0
 25 19  1  0  0  0  0
 27 21  1  0  0  0  0
 28 15  1  0  0  0  0
 30 23  1  0  0  0  0
 30 29  2  0  0  0  0
 31 30  1  0  0  0  0
 32 34  1  0  0  0  0
 33 35  2  0  0  0  0
 34 31  2  0  0  0  0
 34 33  1  0  0  0  0
 35 29  1  0  0  0  0
 37 36  1  0  0  0  0
M  END
>  <MODEL>
7

>  <REMARK>
 VINA RESULT:      -8.1      2.126      5.759
  Name = 
  2 active torsions:
  status: ('A' for Active; 'I' for Inactive)
    1  A    between atoms: C_4  and  C_37
    2  A    between atoms: C_23  and  C_30
                            x       y       z     vdW  Elec       q    Type
                         _______ _______ _______ _____ _____    ______ ____

>  <TORSDO>
F 2

$$$$
=
 OpenBabel11112417203D

 37 44  0  0  1  0  0  0  0  0999 V2000
  190.7080  172.0270  142.3560 C   0  0  0  0  0  2  0  0  0  0  0  0
  195.1970  172.3530  144.4600 C   0  0  0  0  0  0  0  0  0  0  0  0
  192.3750  175.4620  144.9320 C   0  0  0  0  0  0  0  0  0  0  0  0
  190.5660  171.0880  141.1550 C   0  0  1  0  0  3  0  0  0  0  0  0
  189.5310  175.9080  142.3950 C   0  0  0  0  0  2  0  0  0  0  0  0
  194.5710  174.5800  145.5420 C   0  0  0  0  0  0  0  0  0  0  0  0
  191.4460  175.1600  143.9280 C   0  0  0  0  0  0  0  0  0  0  0  0
  188.8260  172.7060  140.3510 C   0  0  1  0  0  3  0  0  0  0  0  0
  193.4520  174.5560  144.7510 C   0  0  0  0  0  0  0  0  0  0  0  0
  190.1950  175.8750  143.7070 N   0  0  0  0  0  0  0  0  0  0  0  0
  194.6380  175.4940  146.5130 O   0  0  0  0  0  0  0  0  0  0  0  0
  189.9530  171.7720  139.9350 C   0  0  0  0  0  2  0  0  0  0  0  0
  193.2060  173.7080  143.7290 C   0  0  0  0  0  0  0  0  0  0  0  0
  194.5230  171.3910  145.4230 C   0  0  0  0  0  1  0  0  0  0  0  0
  191.3820  177.3650  146.3630 C   0  0  0  0  0  2  0  0  0  0  0  0
  193.6500  176.3760  146.7450 C   0  0  0  0  0  3  0  0  0  0  0  0
  194.2190  172.6870  143.3010 C   0  0  0  0  0  2  0  0  0  0  0  0
  189.3070  174.1500  140.5140 C   0  0  1  0  0  3  0  0  0  0  0  0
  189.3990  174.4960  141.9230 C   0  0  1  0  0  3  0  0  0  0  0  0
  192.4720  176.4160  145.9590 C   0  0  0  0  0  0  0  0  0  0  0  0
  191.9800  174.0600  143.1780 C   0  0  0  0  0  0  0  0  0  0  0  0
  195.6840  173.6070  145.2440 C   0  0  0  0  0  2  0  0  0  0  0  0
  189.6000  176.6010  144.8360 C   0  0  1  0  0  3  0  0  0  0  0  0
  196.4070  171.6580  143.8760 C   0  0  0  0  0  1  0  0  0  0  0  0
  190.6410  174.3070  141.1560 N   0  0  1  0  0  0  0  0  0  0  0  0
  187.8160  172.6660  139.3910 O   0  0  0  0  0  1  0  0  0  0  0  0
  191.3950  173.3490  141.9790 C   0  0  2  0  0  3  0  0  0  0  0  0
  190.4680  177.7830  145.2270 C   0  0  0  0  0  2  0  0  0  0  0  0
  187.1880  176.4160  145.4790 C   0  0  0  0  0  3  0  0  0  0  0  0
  188.1570  176.9790  144.6400 C   0  0  0  0  0  0  0  0  0  0  0  0
  187.7600  177.8470  143.6100 C   0  0  0  0  0  3  0  0  0  0  0  0
  186.0120  179.0380  142.3900 N   0  0  0  0  0  1  0  0  0  0  0  0
  185.4470  177.5960  144.2780 C   0  0  0  0  0  3  0  0  0  0  0  0
  186.4090  178.1560  143.4330 C   0  0  0  0  0  0  0  0  0  0  0  0
  185.8360  176.7260  145.3010 C   0  0  0  0  0  3  0  0  0  0  0  0
  192.5120  169.9180  141.9030 O   0  0  0  0  0  1  0  0  0  0  0  0
  191.9040  170.4740  140.7760 C   0  0  0  0  0  2  0  0  0  0  0  0
  2 22  1  0  0  0  0
  2 14  1  0  0  0  0
  3 20  1  0  0  0  0
  4 37  1  6  0  0  0
  4  1  1  0  0  0  0
  5 10  1  0  0  0  0
  6 11  1  0  0  0  0
  7  3  2  0  0  0  0
  8 26  1  6  0  0  0
  8 18  1  0  0  0  0
  9  3  1  0  0  0  0
  9  6  2  0  0  0  0
 10  7  1  0  0  0  0
 10 23  1  0  0  0  0
 11 16  1  0  0  0  0
 12  8  1  0  0  0  0
 12  4  1  0  0  0  0
 13  9  1  0  0  0  0
 17 13  1  0  0  0  0
 17  2  1  0  0  0  0
 18 25  1  0  0  0  0
 18 19  1  0  0  0  0
 19  5  1  0  0  0  0
 20 15  1  0  0  0  0
 20 16  2  0  0  0  0
 21 13  2  0  0  0  0
 21  7  1  0  0  0  0
 22  6  1  0  0  0  0
 23 28  1  0  0  0  0
 24  2  1  0  0  0  0
 25 19  1  0  0  0  0
 25 27  1  0  0  0  0
 27  1  1  0  0  0  0
 27 21  1  0  0  0  0
 28 15  1  0  0  0  0
 30 23  1  0  0  0  0
 30 29  2  0  0  0  0
 31 30  1  0  0  0  0
 32 34  1  0  0  0  0
 33 35  2  0  0  0  0
 34 31  2  0  0  0  0
 34 33  1  0  0  0  0
 35 29  1  0  0  0  0
 37 36  1  0  0  0  0
M  END
>  <MODEL>
8

>  <REMARK>
 VINA RESULT:      -8.1      2.609      7.517
  Name = 
  2 active torsions:
  status: ('A' for Active; 'I' for Inactive)
    1  A    between atoms: C_4  and  C_37
    2  A    between atoms: C_23  and  C_30
                            x       y       z     vdW  Elec       q    Type
                         _______ _______ _______ _____ _____    ______ ____

>  <TORSDO>
F 2

$$$$
=
 OpenBabel11112417203D

 37 44  0  0  1  0  0  0  0  0999 V2000
  189.3980  175.0650  145.0240 C   0  0  0  0  0  2  0  0  0  0  0  0
  186.1490  178.3580  143.2130 C   0  0  0  0  0  0  0  0  0  0  0  0
  188.1360  175.6640  140.6350 C   0  0  0  0  0  0  0  0  0  0  0  0
  190.0380  175.3860  146.3780 C   0  0  1  0  0  3  0  0  0  0  0  0
  191.4670  174.0720  141.6800 C   0  0  0  0  0  2  0  0  0  0  0  0
  186.4450  177.4130  140.8590 C   0  0  0  0  0  0  0  0  0  0  0  0
  189.1760  175.2020  141.4510 C   0  0  0  0  0  0  0  0  0  0  0  0
  192.0360  174.1510  145.5010 C   0  0  1  0  0  3  0  0  0  0  0  0
  187.4990  176.7000  141.3670 C   0  0  0  0  0  0  0  0  0  0  0  0
  190.1270  174.1600  141.0810 N   0  0  0  0  0  0  0  0  0  0  0  0
  186.0130  177.1140  139.6320 O   0  0  0  0  0  0  0  0  0  0  0  0
  191.5630  175.3250  146.3440 C   0  0  0  0  0  2  0  0  0  0  0  0
  188.0680  176.8570  142.5810 C   0  0  0  0  0  0  0  0  0  0  0  0
  185.1900  177.3320  143.7920 C   0  0  0  0  0  1  0  0  0  0  0  0
  188.1400  174.2360  138.4870 C   0  0  0  0  0  2  0  0  0  0  0  0
  186.5650  176.1390  138.8890 C   0  0  0  0  0  3  0  0  0  0  0  0
  187.6080  177.9290  143.5260 C   0  0  0  0  0  2  0  0  0  0  0  0
  192.3460  174.5660  144.0600 C   0  0  1  0  0  3  0  0  0  0  0  0
  191.2990  174.1010  143.1650 C   0  0  1  0  0  3  0  0  0  0  0  0
  187.6640  175.3720  139.3450 C   0  0  0  0  0  0  0  0  0  0  0  0
  189.1250  175.9600  142.6680 C   0  0  0  0  0  0  0  0  0  0  0  0
  185.8620  178.5270  141.6920 C   0  0  0  0  0  2  0  0  0  0  0  0
  189.7280  173.1860  140.0580 C   0  0  1  0  0  3  0  0  0  0  0  0
  185.8860  179.6820  143.8970 C   0  0  0  0  0  1  0  0  0  0  0  0
  191.3920  175.5400  143.4610 N   0  0  1  0  0  0  0  0  0  0  0  0
  193.1830  173.6040  146.0750 O   0  0  0  0  0  1  0  0  0  0  0  0
  190.0240  175.8800  143.8810 C   0  0  2  0  0  3  0  0  0  0  0  0
  189.5930  173.8590  138.7040 C   0  0  0  0  0  2  0  0  0  0  0  0
  191.5110  171.8060  138.9710 C   0  0  0  0  0  3  0  0  0  0  0  0
  190.5840  171.9500  140.0100 C   0  0  0  0  0  0  0  0  0  0  0  0
  190.4410  170.9220  140.9570 C   0  0  0  0  0  3  0  0  0  0  0  0
  191.0830  168.7350  141.8330 N   0  0  0  0  0  1  0  0  0  0  0  0
  192.1570  169.6370  139.8340 C   0  0  0  0  0  3  0  0  0  0  0  0
  191.2290  169.7720  140.8700 C   0  0  0  0  0  0  0  0  0  0  0  0
  192.2980  170.6540  138.8840 C   0  0  0  0  0  3  0  0  0  0  0  0
  188.2010  176.8390  146.8530 O   0  0  0  0  0  1  0  0  0  0  0  0
  189.5920  176.7480  146.8860 C   0  0  0  0  0  2  0  0  0  0  0  0
  1  4  1  0  0  0  0
  2 17  1  0  0  0  0
  2 14  1  0  0  0  0
  2 24  1  0  0  0  0
  3  9  1  0  0  0  0
  3  7  2  0  0  0  0
  4 37  1  6  0  0  0
  5 19  1  0  0  0  0
  6  9  2  0  0  0  0
  6 22  1  0  0  0  0
  7 21  1  0  0  0  0
  8 26  1  1  0  0  0
  8 12  1  0  0  0  0
  9 13  1  0  0  0  0
 10  7  1  0  0  0  0
 10  5  1  0  0  0  0
 11  6  1  0  0  0  0
 12  4  1  0  0  0  0
 13 21  2  0  0  0  0
 13 17  1  0  0  0  0
 15 28  1  0  0  0  0
 15 20  1  0  0  0  0
 16 20  2  0  0  0  0
 16 11  1  0  0  0  0
 18  8  1  0  0  0  0
 19 25  1  0  0  0  0
 19 18  1  0  0  0  0
 20  3  1  0  0  0  0
 21 27  1  0  0  0  0
 22  2  1  0  0  0  0
 23 10  1  0  0  0  0
 25 27  1  0  0  0  0
 25 18  1  0  0  0  0
 27  1  1  0  0  0  0
 28 23  1  0  0  0  0
 29 30  1  0  0  0  0
 30 23  1  0  0  0  0
 30 31  2  0  0  0  0
 33 34  2  0  0  0  0
 34 31  1  0  0  0  0
 34 32  1  0  0  0  0
 35 29  2  0  0  0  0
 35 33  1  0  0  0  0
 36 37  1  0  0  0  0
M  END
>  <MODEL>
9

>  <REMARK>
 VINA RESULT:      -8.0      1.987      3.388
  Name = 
  2 active torsions:
  status: ('A' for Active; 'I' for Inactive)
    1  A    between atoms: C_4  and  C_37
    2  A    between atoms: C_23  and  C_30
                            x       y       z     vdW  Elec       q    Type
                         _______ _______ _______ _____ _____    ______ ____

>  <TORSDO>
F 2

$$$$
