=
 OpenBabel11112417003D

 31 35  0  0  1  0  0  0  0  0999 V2000
  184.6470  178.1260  146.9090 C   0  0  0  0  0  0  0  0  0  0  0  0
  187.1710  176.0770  144.9260 C   0  0  2  0  0  3  0  0  0  0  0  0
  187.1920  176.6100  143.5060 C   0  0  0  0  0  0  0  0  0  0  0  0
  186.0720  177.7350  141.6630 C   0  0  0  0  0  0  0  0  0  0  0  0
  186.5880  177.0480  145.9280 C   0  0  0  0  0  0  0  0  0  0  0  0
  185.4760  178.8380  147.7790 C   0  0  0  0  0  3  0  0  0  0  0  0
  186.0910  177.3120  142.9940 C   0  0  0  0  0  3  0  0  0  0  0  0
  189.4820  176.7010  145.8150 C   0  0  2  0  0  3  0  0  0  0  0  0
  183.3040  178.3020  146.9580 F   0  0  0  0  0  0  0  0  0  0  0  0
  189.4660  175.5510  143.1410 C   0  0  0  0  0  2  0  0  0  0  0  0
  184.9830  178.4430  141.1740 O   0  0  0  0  0  1  0  0  0  0  0  0
  188.8310  177.5340  146.8200 N   0  0  0  0  0  2  0  0  0  0  0  0
  188.5520  175.5570  145.3760 C   0  0  2  0  0  3  0  0  0  0  0  0
  185.2000  177.2310  145.9890 C   0  0  0  0  0  3  0  0  0  0  0  0
  187.1480  177.4430  140.8230 C   0  0  0  0  0  3  0  0  0  0  0  0
  187.4210  177.7640  146.8100 C   0  0  0  0  0  0  0  0  0  0  0  0
  186.8610  178.6520  147.7340 C   0  0  0  0  0  3  0  0  0  0  0  0
  189.1570  174.7350  144.3200 N   0  0  0  0  0  2  0  0  0  0  0  0
  188.2580  176.2850  142.6400 C   0  0  0  0  0  0  0  0  0  0  0  0
  188.2380  176.7200  141.3110 C   0  0  0  0  0  3  0  0  0  0  0  0
  192.0820  177.1660  144.7450 O   0  0  0  0  0  0  0  0  0  0  0  0
  191.9950  176.4400  145.7740 C   0  0  0  0  0  0  0  0  0  0  0  0
  190.7210  176.1600  146.3550 N   0  0  0  0  0  2  0  0  0  0  0  0
  195.5530  176.0740  144.6970 C   0  0  1  0  0  3  0  0  0  0  0  0
  194.3330  176.9010  146.5650 C   0  0  0  0  0  2  0  0  0  0  0  0
  192.7480  173.7150  145.3680 O   0  0  0  0  0  1  0  0  0  0  0  0
  196.2830  176.4610  143.4280 C   0  0  0  0  0  1  0  0  0  0  0  0
  194.9160  177.2570  145.2710 N   0  0  0  0  0  2  0  0  0  0  0  0
  193.7700  174.6230  145.6530 C   0  0  2  0  0  3  0  0  0  0  0  0
  193.2270  175.8530  146.3990 C   0  0  2  0  0  3  0  0  0  0  0  0
  194.5000  175.0180  144.3730 C   0  0  0  0  0  2  0  0  0  0  0  0
  1  9  1  0  0  0  0
  1  6  1  0  0  0  0
  2  3  1  6  0  0  0
  2 13  1  0  0  0  0
  2  5  1  0  0  0  0
  4  7  2  0  0  0  0
  5 14  1  0  0  0  0
  5 16  2  0  0  0  0
  7  3  1  0  0  0  0
  8 23  1  1  0  0  0
  8 12  1  0  0  0  0
 10 18  1  0  0  0  0
 11  4  1  0  0  0  0
 13 18  1  6  0  0  0
 13  8  1  0  0  0  0
 14  1  2  0  0  0  0
 15 20  2  0  0  0  0
 15  4  1  0  0  0  0
 16 12  1  0  0  0  0
 16 17  1  0  0  0  0
 17  6  2  0  0  0  0
 19 10  1  0  0  0  0
 19  3  2  0  0  0  0
 20 19  1  0  0  0  0
 21 22  2  0  0  0  0
 22 23  1  0  0  0  0
 24 27  1  6  0  0  0
 24 28  1  0  0  0  0
 28 25  1  0  0  0  0
 29 26  1  6  0  0  0
 29 30  1  0  0  0  0
 30 22  1  6  0  0  0
 30 25  1  0  0  0  0
 31 24  1  0  0  0  0
 31 29  1  0  0  0  0
M  END
>  <MODEL>
1

>  <REMARK>
 VINA RESULT:      -8.9      0.000      0.000
  Name = 
  2 active torsions:
  status: ('A' for Active; 'I' for Inactive)
    1  A    between atoms: C_5  and  C_30
    2  A    between atoms: C_10  and  N_16
                            x       y       z     vdW  Elec       q    Type
                         _______ _______ _______ _____ _____    ______ ____

>  <TORSDO>
F 2

$$$$
=
 OpenBabel11112417003D

 31 35  0  0  1  0  0  0  0  0999 V2000
  187.0380  177.4260  140.8220 C   0  0  0  0  0  0  0  0  0  0  0  0
  188.4010  177.7960  144.3580 C   0  0  2  0  0  3  0  0  0  0  0  0
  187.2210  177.8570  145.3090 C   0  0  0  0  0  0  0  0  0  0  0  0
  184.8860  178.3900  145.7360 C   0  0  0  0  0  0  0  0  0  0  0  0
  188.0620  177.2000  143.0110 C   0  0  0  0  0  0  0  0  0  0  0  0
  187.4240  176.1220  140.5020 C   0  0  0  0  0  3  0  0  0  0  0  0
  185.9570  178.2550  144.8490 C   0  0  0  0  0  3  0  0  0  0  0  0
  189.5130  175.5770  144.9520 C   0  0  2  0  0  3  0  0  0  0  0  0
  186.3520  178.1700  139.9200 F   0  0  0  0  0  0  0  0  0  0  0  0
  188.7380  177.2090  147.2340 C   0  0  0  0  0  2  0  0  0  0  0  0
  183.6370  178.7680  145.2640 O   0  0  0  0  0  1  0  0  0  0  0  0
  189.2400  175.1180  143.5940 N   0  0  0  0  0  2  0  0  0  0  0  0
  189.6280  177.1100  144.9920 C   0  0  2  0  0  3  0  0  0  0  0  0
  187.3590  177.9650  142.0700 C   0  0  0  0  0  3  0  0  0  0  0  0
  185.0720  178.1460  147.0970 C   0  0  0  0  0  3  0  0  0  0  0  0
  188.4530  175.8870  142.6820 C   0  0  0  0  0  0  0  0  0  0  0  0
  188.1370  175.3560  141.4290 C   0  0  0  0  0  3  0  0  0  0  0  0
  189.8430  177.6070  146.3570 N   0  0  0  0  0  2  0  0  0  0  0  0
  187.4100  177.6510  146.6920 C   0  0  0  0  0  0  0  0  0  0  0  0
  186.3320  177.7770  147.5740 C   0  0  0  0  0  3  0  0  0  0  0  0
  192.1130  176.0540  143.8870 O   0  0  0  0  0  0  0  0  0  0  0  0
  192.0180  175.2580  144.8620 C   0  0  0  0  0  0  0  0  0  0  0  0
  190.7440  174.9690  145.4360 N   0  0  0  0  0  2  0  0  0  0  0  0
  195.6930  175.6650  144.3290 C   0  0  1  0  0  3  0  0  0  0  0  0
  194.1510  175.6050  146.1420 C   0  0  0  0  0  2  0  0  0  0  0  0
  193.2130  172.9730  143.6340 O   0  0  0  0  0  1  0  0  0  0  0  0
  196.5020  176.5690  143.4240 C   0  0  0  0  0  1  0  0  0  0  0  0
  194.8230  176.4770  145.1770 N   0  0  0  0  0  2  0  0  0  0  0  0
  194.0460  173.7980  144.3900 C   0  0  2  0  0  3  0  0  0  0  0  0
  193.2410  174.5970  145.4290 C   0  0  2  0  0  3  0  0  0  0  0  0
  194.8550  174.7150  143.4780 C   0  0  0  0  0  2  0  0  0  0  0  0
  1 14  1  0  0  0  0
  2  5  1  6  0  0  0
  2 13  1  0  0  0  0
  2  3  1  0  0  0  0
  3 19  1  0  0  0  0
  4 15  2  0  0  0  0
  6  1  2  0  0  0  0
  6 17  1  0  0  0  0
  7  3  2  0  0  0  0
  7  4  1  0  0  0  0
  8 13  1  0  0  0  0
  8 23  1  6  0  0  0
  9  1  1  0  0  0  0
 11  4  1  0  0  0  0
 12  8  1  0  0  0  0
 13 18  1  1  0  0  0
 14  5  2  0  0  0  0
 15 20  1  0  0  0  0
 16  5  1  0  0  0  0
 16 12  1  0  0  0  0
 17 16  2  0  0  0  0
 18 10  1  0  0  0  0
 19 10  1  0  0  0  0
 19 20  2  0  0  0  0
 21 22  2  0  0  0  0
 22 23  1  0  0  0  0
 24 27  1  6  0  0  0
 24 28  1  0  0  0  0
 28 25  1  0  0  0  0
 29 26  1  6  0  0  0
 29 30  1  0  0  0  0
 30 22  1  6  0  0  0
 30 25  1  0  0  0  0
 31 24  1  0  0  0  0
 31 29  1  0  0  0  0
M  END
>  <MODEL>
2

>  <REMARK>
 VINA RESULT:      -8.5      1.937      4.031
  Name = 
  2 active torsions:
  status: ('A' for Active; 'I' for Inactive)
    1  A    between atoms: C_5  and  C_30
    2  A    between atoms: C_10  and  N_16
                            x       y       z     vdW  Elec       q    Type
                         _______ _______ _______ _____ _____    ______ ____

>  <TORSDO>
F 2

$$$$
=
 OpenBabel11112417003D

 31 35  0  0  1  0  0  0  0  0999 V2000
  184.9660  177.6870  146.8070 C   0  0  0  0  0  0  0  0  0  0  0  0
  187.0080  176.0510  144.0410 C   0  0  2  0  0  3  0  0  0  0  0  0
  186.6400  176.7200  142.7310 C   0  0  0  0  0  0  0  0  0  0  0  0
  185.0320  177.9280  141.3630 C   0  0  0  0  0  0  0  0  0  0  0  0
  186.6480  176.8690  145.2610 C   0  0  0  0  0  0  0  0  0  0  0  0
  185.9510  178.3740  147.5220 C   0  0  0  0  0  3  0  0  0  0  0  0
  185.4100  177.3800  142.5910 C   0  0  0  0  0  3  0  0  0  0  0  0
  189.4330  176.7650  144.3990 C   0  0  2  0  0  3  0  0  0  0  0  0
  183.6730  177.7510  147.2060 F   0  0  0  0  0  0  0  0  0  0  0  0
  188.7990  175.8860  141.6970 C   0  0  0  0  0  2  0  0  0  0  0  0
  183.8200  178.5920  141.2430 O   0  0  0  0  0  1  0  0  0  0  0  0
  189.0160  177.4410  145.6220 N   0  0  0  0  0  2  0  0  0  0  0  0
  188.4830  175.5990  144.0740 C   0  0  2  0  0  3  0  0  0  0  0  0
  185.3140  176.9340  145.6830 C   0  0  0  0  0  3  0  0  0  0  0  0
  185.8730  177.8070  140.2550 C   0  0  0  0  0  3  0  0  0  0  0  0
  187.6390  177.5590  145.9870 C   0  0  0  0  0  0  0  0  0  0  0  0
  187.2870  178.3040  147.1150 C   0  0  0  0  0  3  0  0  0  0  0  0
  188.8420  174.9360  142.8140 N   0  0  0  0  0  2  0  0  0  0  0  0
  187.4670  176.5670  141.5970 C   0  0  0  0  0  0  0  0  0  0  0  0
  187.0880  177.1290  140.3730 C   0  0  0  0  0  3  0  0  0  0  0  0
  191.7920  178.2780  143.8860 O   0  0  0  0  0  0  0  0  0  0  0  0
  191.9360  177.0890  144.2840 C   0  0  0  0  0  0  0  0  0  0  0  0
  190.7950  176.2740  144.5500 N   0  0  0  0  0  2  0  0  0  0  0  0
  193.2880  173.6220  144.6070 C   0  0  1  0  0  3  0  0  0  0  0  0
  193.6990  175.5820  143.3210 C   0  0  0  0  0  2  0  0  0  0  0  0
  193.0060  176.5610  146.8780 O   0  0  0  0  0  1  0  0  0  0  0  0
  192.6240  172.2610  144.6080 C   0  0  0  0  0  1  0  0  0  0  0  0
  192.9430  174.3300  143.3750 N   0  0  0  0  0  2  0  0  0  0  0  0
  193.4860  175.7860  145.8220 C   0  0  2  0  0  3  0  0  0  0  0  0
  193.3080  176.5100  144.4770 C   0  0  2  0  0  3  0  0  0  0  0  0
  192.8110  174.4180  145.8180 C   0  0  0  0  0  2  0  0  0  0  0  0
  1  9  1  0  0  0  0
  1  6  1  0  0  0  0
  2  3  1  6  0  0  0
  2 13  1  0  0  0  0
  2  5  1  0  0  0  0
  4  7  2  0  0  0  0
  5 14  1  0  0  0  0
  5 16  2  0  0  0  0
  7  3  1  0  0  0  0
  8 23  1  1  0  0  0
  8 12  1  0  0  0  0
 10 18  1  0  0  0  0
 11  4  1  0  0  0  0
 12 16  1  0  0  0  0
 13 18  1  6  0  0  0
 13  8  1  0  0  0  0
 14  1  2  0  0  0  0
 15 20  2  0  0  0  0
 15  4  1  0  0  0  0
 16 17  1  0  0  0  0
 17  6  2  0  0  0  0
 19 10  1  0  0  0  0
 19  3  2  0  0  0  0
 20 19  1  0  0  0  0
 21 22  2  0  0  0  0
 22 23  1  0  0  0  0
 24 27  1  6  0  0  0
 24 31  1  0  0  0  0
 25 28  1  0  0  0  0
 25 30  1  0  0  0  0
 28 24  1  0  0  0  0
 29 26  1  1  0  0  0
 30 22  1  6  0  0  0
 30 29  1  0  0  0  0
 31 29  1  0  0  0  0
M  END
>  <MODEL>
3

>  <REMARK>
 VINA RESULT:      -8.5      1.532      2.020
  Name = 
  2 active torsions:
  status: ('A' for Active; 'I' for Inactive)
    1  A    between atoms: C_5  and  C_30
    2  A    between atoms: C_10  and  N_16
                            x       y       z     vdW  Elec       q    Type
                         _______ _______ _______ _____ _____    ______ ____

>  <TORSDO>
F 2

$$$$
=
 OpenBabel11112417003D

 31 35  0  0  1  0  0  0  0  0999 V2000
  194.2680  176.6770  145.1910 C   0  0  0  0  0  0  0  0  0  0  0  0
  190.9160  176.8230  143.3890 C   0  0  2  0  0  3  0  0  0  0  0  0
  190.7980  175.5830  142.5230 C   0  0  0  0  0  0  0  0  0  0  0  0
  191.8490  173.8000  141.2450 C   0  0  0  0  0  0  0  0  0  0  0  0
  191.9440  176.6950  144.4910 C   0  0  0  0  0  0  0  0  0  0  0  0
  193.8720  176.4670  146.5150 C   0  0  0  0  0  3  0  0  0  0  0  0
  191.9470  174.8940  142.1080 C   0  0  0  0  0  3  0  0  0  0  0  0
  189.1140  176.4680  145.1620 C   0  0  2  0  0  3  0  0  0  0  0  0
  195.5850  176.7680  144.8850 F   0  0  0  0  0  0  0  0  0  0  0  0
  188.2830  175.8840  142.4340 C   0  0  0  0  0  2  0  0  0  0  0  0
  192.9920  173.1170  140.8560 O   0  0  0  0  0  1  0  0  0  0  0  0
  190.1630  176.4630  146.1760 N   0  0  0  0  0  2  0  0  0  0  0  0
  189.5510  177.2870  143.9360 C   0  0  2  0  0  3  0  0  0  0  0  0
  193.3070  176.7950  144.1840 C   0  0  0  0  0  3  0  0  0  0  0  0
  190.5990  173.3940  140.7720 C   0  0  0  0  0  3  0  0  0  0  0  0
  191.5490  176.4870  145.8280 C   0  0  0  0  0  0  0  0  0  0  0  0
  192.5140  176.3790  146.8330 C   0  0  0  0  0  3  0  0  0  0  0  0
  188.5390  177.2600  142.8720 N   0  0  0  0  0  2  0  0  0  0  0  0
  189.5430  175.1910  142.0090 C   0  0  0  0  0  0  0  0  0  0  0  0
  189.4500  174.0880  141.1540 C   0  0  0  0  0  3  0  0  0  0  0  0
  187.7760  175.4800  147.4760 O   0  0  0  0  0  0  0  0  0  0  0  0
  187.2750  176.4810  146.8950 C   0  0  0  0  0  0  0  0  0  0  0  0
  187.8910  177.0210  145.7250 N   0  0  0  0  0  2  0  0  0  0  0  0
  184.8720  179.0080  145.5560 C   0  0  1  0  0  3  0  0  0  0  0  0
  184.8170  176.8300  146.5130 C   0  0  0  0  0  2  0  0  0  0  0  0
  187.3190  178.9300  148.3640 O   0  0  0  0  0  1  0  0  0  0  0  0
  184.8260  179.7910  144.2600 C   0  0  0  0  0  1  0  0  0  0  0  0
  184.9140  177.5780  145.2580 N   0  0  0  0  0  2  0  0  0  0  0  0
  186.1530  178.6320  147.6570 C   0  0  2  0  0  3  0  0  0  0  0  0
  186.0200  177.1190  147.4180 C   0  0  2  0  0  3  0  0  0  0  0  0
  186.1110  179.4150  146.3480 C   0  0  0  0  0  2  0  0  0  0  0  0
  1  6  1  0  0  0  0
  2  3  1  1  0  0  0
  2 13  1  0  0  0  0
  2  5  1  0  0  0  0
  4  7  2  0  0  0  0
  5 16  2  0  0  0  0
  6 17  2  0  0  0  0
  7  3  1  0  0  0  0
  8 23  1  1  0  0  0
  8 12  1  0  0  0  0
  9  1  1  0  0  0  0
 10 18  1  0  0  0  0
 11  4  1  0  0  0  0
 13 18  1  6  0  0  0
 13  8  1  0  0  0  0
 14  5  1  0  0  0  0
 14  1  2  0  0  0  0
 15 20  2  0  0  0  0
 15  4  1  0  0  0  0
 16 12  1  0  0  0  0
 16 17  1  0  0  0  0
 19 10  1  0  0  0  0
 19  3  2  0  0  0  0
 20 19  1  0  0  0  0
 22 21  2  0  0  0  0
 23 22  1  0  0  0  0
 24 27  1  6  0  0  0
 24 31  1  0  0  0  0
 25 30  1  0  0  0  0
 28 24  1  0  0  0  0
 28 25  1  0  0  0  0
 29 26  1  6  0  0  0
 30 22  1  6  0  0  0
 30 29  1  0  0  0  0
 31 29  1  0  0  0  0
M  END
>  <MODEL>
4

>  <REMARK>
 VINA RESULT:      -8.0      3.397      7.131
  Name = 
  2 active torsions:
  status: ('A' for Active; 'I' for Inactive)
    1  A    between atoms: C_5  and  C_30
    2  A    between atoms: C_10  and  N_16
                            x       y       z     vdW  Elec       q    Type
                         _______ _______ _______ _____ _____    ______ ____

>  <TORSDO>
F 2

$$$$
=
 OpenBabel11112417003D

 31 35  0  0  1  0  0  0  0  0999 V2000
  191.6580  173.0740  141.5030 C   0  0  0  0  0  0  0  0  0  0  0  0
  191.2310  174.0980  145.1460 C   0  0  2  0  0  3  0  0  0  0  0  0
  192.3800  175.0200  145.5090 C   0  0  0  0  0  0  0  0  0  0  0  0
  194.6670  175.7720  145.1590 C   0  0  0  0  0  0  0  0  0  0  0  0
  190.9990  173.9790  143.6560 C   0  0  0  0  0  0  0  0  0  0  0  0
  190.5890  173.7360  140.8930 C   0  0  0  0  0  3  0  0  0  0  0  0
  193.5780  174.9840  144.7800 C   0  0  0  0  0  3  0  0  0  0  0  0
  189.1970  175.6380  145.2420 C   0  0  2  0  0  3  0  0  0  0  0  0
  192.4980  172.3170  140.7580 F   0  0  0  0  0  0  0  0  0  0  0  0
  191.0470  175.9090  147.4730 C   0  0  0  0  0  2  0  0  0  0  0  0
  195.8400  175.7390  144.4190 O   0  0  0  0  0  1  0  0  0  0  0  0
  188.9830  175.3840  143.8210 N   0  0  0  0  0  2  0  0  0  0  0  0
  189.9330  174.4570  145.8980 C   0  0  2  0  0  3  0  0  0  0  0  0
  191.8590  173.1920  142.8800 C   0  0  0  0  0  3  0  0  0  0  0  0
  194.5750  176.5930  146.2850 C   0  0  0  0  0  3  0  0  0  0  0  0
  189.9190  174.6420  143.0380 C   0  0  0  0  0  0  0  0  0  0  0  0
  189.7170  174.5140  141.6610 C   0  0  0  0  0  3  0  0  0  0  0  0
  190.2170  174.7100  147.3160 N   0  0  0  0  0  2  0  0  0  0  0  0
  192.3090  175.8220  146.6680 C   0  0  0  0  0  0  0  0  0  0  0  0
  193.3990  176.6180  147.0370 C   0  0  0  0  0  3  0  0  0  0  0  0
  188.5720  177.8520  146.9230 O   0  0  0  0  0  0  0  0  0  0  0  0
  187.6670  176.9970  146.7240 C   0  0  0  0  0  0  0  0  0  0  0  0
  187.9170  175.8590  145.8990 N   0  0  0  0  0  2  0  0  0  0  0  0
  184.4850  178.6670  145.7030 C   0  0  1  0  0  3  0  0  0  0  0  0
  185.2080  176.5400  146.4910 C   0  0  0  0  0  2  0  0  0  0  0  0
  187.0200  179.2360  148.3740 O   0  0  0  0  0  1  0  0  0  0  0  0
  184.0950  179.4630  144.4760 C   0  0  0  0  0  1  0  0  0  0  0  0
  184.9670  177.3490  145.2950 N   0  0  0  0  0  2  0  0  0  0  0  0
  185.9660  178.6130  147.7040 C   0  0  2  0  0  3  0  0  0  0  0  0
  186.3140  177.1560  147.3560 C   0  0  2  0  0  3  0  0  0  0  0  0
  185.5790  179.4110  146.4640 C   0  0  0  0  0  2  0  0  0  0  0  0
  1 14  1  0  0  0  0
  2  5  1  6  0  0  0
  2  3  1  0  0  0  0
  2 13  1  0  0  0  0
  3 19  1  0  0  0  0
  4 15  2  0  0  0  0
  6  1  2  0  0  0  0
  6 17  1  0  0  0  0
  7  4  1  0  0  0  0
  7  3  2  0  0  0  0
  8 13  1  0  0  0  0
  8 23  1  1  0  0  0
  9  1  1  0  0  0  0
 11  4  1  0  0  0  0
 12  8  1  0  0  0  0
 13 18  1  1  0  0  0
 14  5  2  0  0  0  0
 15 20  1  0  0  0  0
 16  5  1  0  0  0  0
 16 12  1  0  0  0  0
 17 16  2  0  0  0  0
 18 10  1  0  0  0  0
 19 20  2  0  0  0  0
 19 10  1  0  0  0  0
 22 21  2  0  0  0  0
 23 22  1  0  0  0  0
 24 27  1  6  0  0  0
 24 31  1  0  0  0  0
 25 30  1  0  0  0  0
 28 24  1  0  0  0  0
 28 25  1  0  0  0  0
 29 26  1  6  0  0  0
 30 22  1  6  0  0  0
 30 29  1  0  0  0  0
 31 29  1  0  0  0  0
M  END
>  <MODEL>
5

>  <REMARK>
 VINA RESULT:      -8.0      3.428      7.942
  Name = 
  2 active torsions:
  status: ('A' for Active; 'I' for Inactive)
    1  A    between atoms: C_5  and  C_30
    2  A    between atoms: C_10  and  N_16
                            x       y       z     vdW  Elec       q    Type
                         _______ _______ _______ _____ _____    ______ ____

>  <TORSDO>
F 2

$$$$
=
 OpenBabel11112417003D

 31 35  0  0  1  0  0  0  0  0999 V2000
  185.3580  177.7960  146.6730 C   0  0  0  0  0  0  0  0  0  0  0  0
  187.1040  175.7620  143.9680 C   0  0  2  0  0  3  0  0  0  0  0  0
  186.8610  176.4480  142.6370 C   0  0  0  0  0  0  0  0  0  0  0  0
  185.4860  177.8740  141.2240 C   0  0  0  0  0  0  0  0  0  0  0  0
  186.8830  176.6620  145.1620 C   0  0  0  0  0  0  0  0  0  0  0  0
  186.4430  178.3250  147.3770 C   0  0  0  0  0  3  0  0  0  0  0  0
  185.7610  177.3030  142.4690 C   0  0  0  0  0  3  0  0  0  0  0  0
  189.6140  176.0640  144.3270 C   0  0  2  0  0  3  0  0  0  0  0  0
  184.0930  178.0890  147.0580 F   0  0  0  0  0  0  0  0  0  0  0  0
  188.8500  175.2320  141.6440 C   0  0  0  0  0  2  0  0  0  0  0  0
  184.4040  178.7300  141.0770 O   0  0  0  0  0  1  0  0  0  0  0  0
  189.3120  176.8340  145.5290 N   0  0  0  0  0  2  0  0  0  0  0  0
  188.4810  175.0680  144.0250 C   0  0  2  0  0  3  0  0  0  0  0  0
  185.5780  176.9640  145.5720 C   0  0  0  0  0  3  0  0  0  0  0  0
  186.2990  177.5810  140.1280 C   0  0  0  0  0  3  0  0  0  0  0  0
  187.9740  177.1940  145.8780 C   0  0  0  0  0  0  0  0  0  0  0  0
  187.7490  178.0190  146.9840 C   0  0  0  0  0  3  0  0  0  0  0  0
  188.7270  174.3200  142.7860 N   0  0  0  0  0  2  0  0  0  0  0  0
  187.6530  176.1270  141.5150 C   0  0  0  0  0  0  0  0  0  0  0  0
  187.3800  176.7100  140.2740 C   0  0  0  0  0  3  0  0  0  0  0  0
  191.9540  176.4490  142.7470 O   0  0  0  0  0  0  0  0  0  0  0  0
  192.0120  175.6010  143.6800 C   0  0  0  0  0  0  0  0  0  0  0  0
  190.8720  175.3540  144.5030 N   0  0  0  0  0  2  0  0  0  0  0  0
  195.3240  175.3740  141.9660 C   0  0  1  0  0  3  0  0  0  0  0  0
  194.4720  175.7680  144.1540 C   0  0  0  0  0  2  0  0  0  0  0  0
  192.4830  173.0300  142.5280 O   0  0  0  0  0  1  0  0  0  0  0  0
  195.8780  176.0300  140.7190 C   0  0  0  0  0  1  0  0  0  0  0  0
  194.8750  176.4060  142.9000 N   0  0  0  0  0  2  0  0  0  0  0  0
  193.6020  173.8030  142.8420 C   0  0  2  0  0  3  0  0  0  0  0  0
  193.2770  174.8340  143.9350 C   0  0  2  0  0  3  0  0  0  0  0  0
  194.1550  174.4690  141.5860 C   0  0  0  0  0  2  0  0  0  0  0  0
  1  9  1  0  0  0  0
  1  6  1  0  0  0  0
  2  3  1  6  0  0  0
  2 13  1  0  0  0  0
  2  5  1  0  0  0  0
  4  7  2  0  0  0  0
  5 14  1  0  0  0  0
  5 16  2  0  0  0  0
  7  3  1  0  0  0  0
  8 23  1  1  0  0  0
  8 12  1  0  0  0  0
 10 18  1  0  0  0  0
 11  4  1  0  0  0  0
 12 16  1  0  0  0  0
 13 18  1  6  0  0  0
 13  8  1  0  0  0  0
 14  1  2  0  0  0  0
 15 20  2  0  0  0  0
 15  4  1  0  0  0  0
 16 17  1  0  0  0  0
 17  6  2  0  0  0  0
 19 10  1  0  0  0  0
 19  3  2  0  0  0  0
 20 19  1  0  0  0  0
 21 22  2  0  0  0  0
 22 23  1  0  0  0  0
 24 27  1  6  0  0  0
 24 28  1  0  0  0  0
 28 25  1  0  0  0  0
 29 26  1  6  0  0  0
 29 30  1  0  0  0  0
 30 22  1  6  0  0  0
 30 25  1  0  0  0  0
 31 24  1  0  0  0  0
 31 29  1  0  0  0  0
M  END
>  <MODEL>
6

>  <REMARK>
 VINA RESULT:      -7.7      1.572      1.823
  Name = 
  2 active torsions:
  status: ('A' for Active; 'I' for Inactive)
    1  A    between atoms: C_5  and  C_30
    2  A    between atoms: C_10  and  N_16
                            x       y       z     vdW  Elec       q    Type
                         _______ _______ _______ _____ _____    ______ ____

>  <TORSDO>
F 2

$$$$
=
 OpenBabel11112417003D

 31 35  0  0  1  0  0  0  0  0999 V2000
  190.2680  171.5940  142.7470 C   0  0  0  0  0  0  0  0  0  0  0  0
  189.6680  174.4570  145.1840 C   0  0  2  0  0  3  0  0  0  0  0  0
  191.0180  175.0280  145.5750 C   0  0  0  0  0  0  0  0  0  0  0  0
  193.4120  174.7410  145.8960 C   0  0  0  0  0  0  0  0  0  0  0  0
  189.7000  173.6490  143.9070 C   0  0  0  0  0  0  0  0  0  0  0  0
  189.7680  172.1240  141.5540 C   0  0  0  0  0  3  0  0  0  0  0  0
  192.1790  174.2490  145.4620 C   0  0  0  0  0  3  0  0  0  0  0  0
  188.6020  176.3510  143.8440 C   0  0  2  0  0  3  0  0  0  0  0  0
  190.7890  170.3440  142.7650 F   0  0  0  0  0  0  0  0  0  0  0  0
  189.8960  177.1760  146.3180 C   0  0  0  0  0  2  0  0  0  0  0  0
  194.5550  173.9650  145.7630 O   0  0  0  0  0  1  0  0  0  0  0  0
  188.5730  175.4660  142.6850 N   0  0  0  0  0  2  0  0  0  0  0  0
  188.5650  175.5360  145.1480 C   0  0  2  0  0  3  0  0  0  0  0  0
  190.2300  172.3520  143.9200 C   0  0  0  0  0  3  0  0  0  0  0  0
  193.4950  176.0130  146.4650 C   0  0  0  0  0  3  0  0  0  0  0  0
  189.1920  174.1780  142.7040 C   0  0  0  0  0  0  0  0  0  0  0  0
  189.2240  173.4120  141.5350 C   0  0  0  0  0  3  0  0  0  0  0  0
  188.6540  176.3960  146.3350 N   0  0  0  0  0  2  0  0  0  0  0  0
  191.1040  176.2960  146.1880 C   0  0  0  0  0  0  0  0  0  0  0  0
  192.3430  176.7890  146.6100 C   0  0  0  0  0  3  0  0  0  0  0  0
  188.1610  178.3100  141.8230 O   0  0  0  0  0  0  0  0  0  0  0  0
  187.3040  178.2190  142.7440 C   0  0  0  0  0  0  0  0  0  0  0  0
  187.4690  177.2640  143.7920 N   0  0  0  0  0  2  0  0  0  0  0  0
  184.5320  178.8370  145.1700 C   0  0  1  0  0  3  0  0  0  0  0  0
  186.1350  180.0930  143.9380 C   0  0  0  0  0  2  0  0  0  0  0  0
  184.7650  177.3610  141.7570 O   0  0  0  0  0  1  0  0  0  0  0  0
  184.2030  178.2400  146.5220 C   0  0  0  0  0  1  0  0  0  0  0  0
  185.8810  179.3980  145.2010 N   0  0  0  0  0  2  0  0  0  0  0  0
  184.7650  178.3530  142.7390 C   0  0  2  0  0  3  0  0  0  0  0  0
  186.1000  179.1160  142.7570 C   0  0  2  0  0  3  0  0  0  0  0  0
  184.4410  177.7510  144.1020 C   0  0  0  0  0  2  0  0  0  0  0  0
  1  9  1  0  0  0  0
  1 14  1  0  0  0  0
  2  5  1  6  0  0  0
  2  3  1  0  0  0  0
  3 19  1  0  0  0  0
  4 15  2  0  0  0  0
  5 14  2  0  0  0  0
  6  1  2  0  0  0  0
  7  3  2  0  0  0  0
  7  4  1  0  0  0  0
  8 23  1  6  0  0  0
  8 13  1  0  0  0  0
 10 18  1  0  0  0  0
 11  4  1  0  0  0  0
 12 16  1  0  0  0  0
 12  8  1  0  0  0  0
 13  2  1  0  0  0  0
 13 18  1  1  0  0  0
 15 20  1  0  0  0  0
 16  5  1  0  0  0  0
 17  6  1  0  0  0  0
 17 16  2  0  0  0  0
 19 10  1  0  0  0  0
 19 20  2  0  0  0  0
 21 22  2  0  0  0  0
 22 23  1  0  0  0  0
 24 28  1  0  0  0  0
 24 27  1  1  0  0  0
 25 28  1  0  0  0  0
 29 26  1  6  0  0  0
 29 30  1  0  0  0  0
 29 31  1  0  0  0  0
 30 22  1  1  0  0  0
 30 25  1  0  0  0  0
 31 24  1  0  0  0  0
M  END
>  <MODEL>
7

>  <REMARK>
 VINA RESULT:      -7.5      3.072      7.849
  Name = 
  2 active torsions:
  status: ('A' for Active; 'I' for Inactive)
    1  A    between atoms: C_5  and  C_30
    2  A    between atoms: C_10  and  N_16
                            x       y       z     vdW  Elec       q    Type
                         _______ _______ _______ _____ _____    ______ ____

>  <TORSDO>
F 2

$$$$
=
 OpenBabel11112417003D

 31 35  0  0  1  0  0  0  0  0999 V2000
  186.1940  177.0600  142.7110 C   0  0  0  0  0  0  0  0  0  0  0  0
  188.6010  174.1110  142.6050 C   0  0  2  0  0  3  0  0  0  0  0  0
  189.0390  173.9180  141.1650 C   0  0  0  0  0  0  0  0  0  0  0  0
  188.6050  174.1510  138.7830 C   0  0  0  0  0  0  0  0  0  0  0  0
  188.0310  175.4830  142.8850 C   0  0  0  0  0  0  0  0  0  0  0  0
  186.9460  178.0190  143.3950 C   0  0  0  0  0  3  0  0  0  0  0  0
  188.2470  174.3960  140.1110 C   0  0  0  0  0  3  0  0  0  0  0  0
  190.7420  174.8690  143.7680 C   0  0  2  0  0  3  0  0  0  0  0  0
  184.9400  177.3570  142.2920 F   0  0  0  0  0  0  0  0  0  0  0  0
  191.0640  172.6140  141.9560 C   0  0  0  0  0  2  0  0  0  0  0  0
  187.8210  174.6440  137.7500 O   0  0  0  0  0  1  0  0  0  0  0  0
  190.0790  176.1280  144.0910 N   0  0  0  0  0  2  0  0  0  0  0  0
  189.7110  173.7390  143.6090 C   0  0  2  0  0  3  0  0  0  0  0  0
  186.7330  175.7950  142.4610 C   0  0  0  0  0  3  0  0  0  0  0  0
  189.7510  173.4080  138.4950 C   0  0  0  0  0  3  0  0  0  0  0  0
  188.7850  176.4510  143.5780 C   0  0  0  0  0  0  0  0  0  0  0  0
  188.2380  177.7110  143.8340 C   0  0  0  0  0  3  0  0  0  0  0  0
  190.3430  172.4710  143.2250 N   0  0  0  0  0  2  0  0  0  0  0  0
  190.1740  173.1350  140.8660 C   0  0  0  0  0  0  0  0  0  0  0  0
  190.5340  172.9020  139.5350 C   0  0  0  0  0  3  0  0  0  0  0  0
  193.5650  174.6740  143.4270 O   0  0  0  0  0  0  0  0  0  0  0  0
  193.1000  174.4610  144.5810 C   0  0  0  0  0  0  0  0  0  0  0  0
  191.6940  174.5340  144.8180 N   0  0  0  0  0  2  0  0  0  0  0  0
  196.7990  174.0840  144.9400 C   0  0  1  0  0  3  0  0  0  0  0  0
  195.0160  175.2490  146.0010 C   0  0  0  0  0  2  0  0  0  0  0  0
  193.8840  171.7730  145.1450 O   0  0  0  0  0  1  0  0  0  0  0  0
  197.9410  174.2050  143.9530 C   0  0  0  0  0  1  0  0  0  0  0  0
  196.0280  175.3250  144.9460 N   0  0  0  0  0  2  0  0  0  0  0  0
  194.7590  172.7880  145.5370 C   0  0  2  0  0  3  0  0  0  0  0  0
  194.0160  174.1210  145.7210 C   0  0  2  0  0  3  0  0  0  0  0  0
  195.9050  172.9150  144.5380 C   0  0  0  0  0  2  0  0  0  0  0  0
  1  6  1  0  0  0  0
  2  3  1  6  0  0  0
  2  5  1  0  0  0  0
  2 13  1  0  0  0  0
  4  7  1  0  0  0  0
  5 16  2  0  0  0  0
  6 17  2  0  0  0  0
  7  3  2  0  0  0  0
  8 12  1  0  0  0  0
  8 23  1  1  0  0  0
  9  1  1  0  0  0  0
 10 18  1  0  0  0  0
 11  4  1  0  0  0  0
 13 18  1  6  0  0  0
 13  8  1  0  0  0  0
 14  1  2  0  0  0  0
 14  5  1  0  0  0  0
 15  4  2  0  0  0  0
 15 20  1  0  0  0  0
 16 17  1  0  0  0  0
 16 12  1  0  0  0  0
 19  3  1  0  0  0  0
 19 10  1  0  0  0  0
 20 19  2  0  0  0  0
 21 22  2  0  0  0  0
 22 23  1  0  0  0  0
 24 27  1  6  0  0  0
 24 28  1  0  0  0  0
 28 25  1  0  0  0  0
 29 26  1  6  0  0  0
 29 30  1  0  0  0  0
 30 22  1  6  0  0  0
 30 25  1  0  0  0  0
 31 24  1  0  0  0  0
 31 29  1  0  0  0  0
M  END
>  <MODEL>
8

>  <REMARK>
 VINA RESULT:      -7.4      2.784      3.695
  Name = 
  2 active torsions:
  status: ('A' for Active; 'I' for Inactive)
    1  A    between atoms: C_5  and  C_30
    2  A    between atoms: C_10  and  N_16
                            x       y       z     vdW  Elec       q    Type
                         _______ _______ _______ _____ _____    ______ ____

>  <TORSDO>
F 2

$$$$
=
 OpenBabel11112417003D

 31 35  0  0  1  0  0  0  0  0999 V2000
  186.7690  178.1910  144.4230 C   0  0  0  0  0  0  0  0  0  0  0  0
  190.1080  176.6040  143.5110 C   0  0  2  0  0  3  0  0  0  0  0  0
  190.7920  176.1840  144.7980 C   0  0  0  0  0  0  0  0  0  0  0  0
  191.1390  176.4720  147.1890 C   0  0  0  0  0  0  0  0  0  0  0  0
  188.6190  176.8170  143.6600 C   0  0  0  0  0  0  0  0  0  0  0  0
  185.8610  177.2420  143.9440 C   0  0  0  0  0  3  0  0  0  0  0  0
  190.4560  176.7970  146.0150 C   0  0  0  0  0  3  0  0  0  0  0  0
  189.5780  174.3770  142.3810 C   0  0  2  0  0  3  0  0  0  0  0  0
  186.3160  179.3150  145.0280 F   0  0  0  0  0  0  0  0  0  0  0  0
  192.2590  174.5780  143.4960 C   0  0  0  0  0  2  0  0  0  0  0  0
  190.7850  177.0740  148.3880 O   0  0  0  0  0  1  0  0  0  0  0  0
  188.1610  174.7110  142.4690 N   0  0  0  0  0  2  0  0  0  0  0  0
  190.4330  175.6540  142.3400 C   0  0  2  0  0  3  0  0  0  0  0  0
  188.1430  177.9810  144.2770 C   0  0  0  0  0  3  0  0  0  0  0  0
  192.1790  175.5410  147.1560 C   0  0  0  0  0  3  0  0  0  0  0  0
  187.7000  175.8650  143.1740 C   0  0  0  0  0  0  0  0  0  0  0  0
  186.3270  176.0850  143.3140 C   0  0  0  0  0  3  0  0  0  0  0  0
  191.8700  175.3510  142.3120 N   0  0  0  0  0  2  0  0  0  0  0  0
  191.8710  175.2740  144.7670 C   0  0  0  0  0  0  0  0  0  0  0  0
  192.5430  174.9440  145.9480 C   0  0  0  0  0  3  0  0  0  0  0  0
  189.6920  171.5300  142.3160 O   0  0  0  0  0  0  0  0  0  0  0  0
  189.8560  172.1460  141.2270 C   0  0  0  0  0  0  0  0  0  0  0  0
  189.8190  173.5730  141.1920 N   0  0  0  0  0  2  0  0  0  0  0  0
  191.5900  172.9320  138.0130 C   0  0  1  0  0  3  0  0  0  0  0  0
  191.5960  171.2230  139.6690 C   0  0  0  0  0  2  0  0  0  0  0  0
  188.0580  172.2940  139.0130 O   0  0  0  0  0  1  0  0  0  0  0  0
  192.3040  174.1690  137.5110 C   0  0  0  0  0  1  0  0  0  0  0  0
  192.1990  172.4940  139.2670 N   0  0  0  0  0  2  0  0  0  0  0  0
  189.3940  172.0040  138.7310 C   0  0  2  0  0  3  0  0  0  0  0  0
  190.0990  171.3910  139.9520 C   0  0  2  0  0  3  0  0  0  0  0  0
  190.1140  173.2530  138.2330 C   0  0  0  0  0  2  0  0  0  0  0  0
  1  9  1  0  0  0  0
  2  5  1  1  0  0  0
  2  3  1  0  0  0  0
  3  7  1  0  0  0  0
  4 11  1  0  0  0  0
  5 14  2  0  0  0  0
  6  1  2  0  0  0  0
  7  4  2  0  0  0  0
  8 23  1  6  0  0  0
  8 12  1  0  0  0  0
 10 19  1  0  0  0  0
 12 16  1  0  0  0  0
 13 18  1  1  0  0  0
 13  8  1  0  0  0  0
 13  2  1  0  0  0  0
 14  1  1  0  0  0  0
 15  4  1  0  0  0  0
 16 17  2  0  0  0  0
 16  5  1  0  0  0  0
 17  6  1  0  0  0  0
 18 10  1  0  0  0  0
 19  3  2  0  0  0  0
 19 20  1  0  0  0  0
 20 15  2  0  0  0  0
 22 21  2  0  0  0  0
 23 22  1  0  0  0  0
 24 27  1  1  0  0  0
 24 31  1  0  0  0  0
 24 28  1  0  0  0  0
 25 30  1  0  0  0  0
 28 25  1  0  0  0  0
 29 26  1  1  0  0  0
 29 30  1  0  0  0  0
 30 22  1  1  0  0  0
 31 29  1  0  0  0  0
M  END
>  <MODEL>
9

>  <REMARK>
 VINA RESULT:      -7.4      3.652      6.184
  Name = 
  2 active torsions:
  status: ('A' for Active; 'I' for Inactive)
    1  A    between atoms: C_5  and  C_30
    2  A    between atoms: C_10  and  N_16
                            x       y       z     vdW  Elec       q    Type
                         _______ _______ _______ _____ _____    ______ ____

>  <TORSDO>
F 2

$$$$
