=
 OpenBabel11112416463D

 31 35  0  0  1  0  0  0  0  0999 V2000
  185.0430  177.6640  146.5680 C   0  0  0  0  0  0  0  0  0  0  0  0
  187.4360  176.2290  144.0510 N   0  0  0  0  0  0  0  0  0  0  0  0
  186.9980  176.6120  142.7230 C   0  0  0  0  0  0  0  0  0  0  0  0
  185.4490  177.7520  141.2300 C   0  0  0  0  0  0  0  0  0  0  0  0
  186.9120  176.8640  145.2350 C   0  0  0  0  0  0  0  0  0  0  0  0
  185.9300  178.1160  147.5480 C   0  0  0  0  0  3  0  0  0  0  0  0
  185.8120  177.3350  142.5130 C   0  0  0  0  0  3  0  0  0  0  0  0
  189.7440  176.5740  144.7540 C   0  0  2  0  0  3  0  0  0  0  0  0
  183.7090  177.8320  146.7330 F   0  0  0  0  0  0  0  0  0  0  0  0
  188.9980  175.6060  141.8020 O   0  0  0  0  0  0  0  0  0  0  0  0
  184.1890  178.5120  141.0250 C   0  0  0  0  0  1  0  0  0  0  0  0
  189.2900  177.0720  146.1320 C   0  0  0  0  0  2  0  0  0  0  0  0
  188.7310  175.5560  144.2300 C   0  0  2  0  0  3  0  0  0  0  0  0
  185.5320  177.0370  145.4200 C   0  0  0  0  0  3  0  0  0  0  0  0
  186.2770  177.4670  140.1430 C   0  0  0  0  0  3  0  0  0  0  0  0
  187.8050  177.3180  146.2340 C   0  0  0  0  0  0  0  0  0  0  0  0
  187.3050  177.9370  147.3830 C   0  0  0  0  0  3  0  0  0  0  0  0
  189.1960  174.8170  142.9690 C   0  0  0  0  0  2  0  0  0  0  0  0
  187.8160  176.3190  141.6170 C   0  0  0  0  0  0  0  0  0  0  0  0
  187.4620  176.7530  140.3370 C   0  0  0  0  0  3  0  0  0  0  0  0
  191.0110  175.9950  144.8690 O   0  0  0  0  0  0  0  0  0  0  0  0
  191.2840  177.9780  143.7590 O   0  0  0  0  0  1  0  0  0  0  0  0
  191.9080  177.0220  144.5620 C   0  0  2  0  0  3  0  0  0  0  0  0
  193.5260  173.9620  145.1810 C   0  0  0  0  0  0  0  0  0  0  0  0
  192.9300  175.1960  143.1220 C   0  0  0  0  0  2  0  0  0  0  0  0
  194.7120  177.4580  145.5380 C   0  0  0  0  0  1  0  0  0  0  0  0
  193.6060  172.8560  145.7760 O   0  0  0  0  0  0  0  0  0  0  0  0
  192.8360  174.0500  143.9690 O   0  0  0  0  0  0  0  0  0  0  0  0
  194.3450  176.2350  144.8390 N   0  0  0  0  0  0  0  0  0  0  0  0
  193.2040  176.4650  143.9280 C   0  0  2  0  0  3  0  0  0  0  0  0
  194.0680  175.1970  145.8340 C   0  0  0  0  0  2  0  0  0  0  0  0
  1  9  1  0  0  0  0
  1  6  1  0  0  0  0
  2 13  1  0  0  0  0
  2  5  1  0  0  0  0
  3  2  1  0  0  0  0
  4  7  2  0  0  0  0
  5 14  1  0  0  0  0
  5 16  2  0  0  0  0
  7  3  1  0  0  0  0
  8 21  1  1  0  0  0
  8 12  1  0  0  0  0
 10 18  1  0  0  0  0
 11  4  1  0  0  0  0
 12 16  1  0  0  0  0
 13 18  1  6  0  0  0
 13  8  1  0  0  0  0
 14  1  2  0  0  0  0
 15 20  2  0  0  0  0
 15  4  1  0  0  0  0
 16 17  1  0  0  0  0
 17  6  2  0  0  0  0
 19 10  1  0  0  0  0
 19  3  2  0  0  0  0
 20 19  1  0  0  0  0
 23 22  1  6  0  0  0
 23 21  1  0  0  0  0
 24 27  2  0  0  0  0
 24 31  1  0  0  0  0
 25 30  1  0  0  0  0
 25 28  1  0  0  0  0
 28 24  1  0  0  0  0
 29 26  1  0  0  0  0
 29 31  1  0  0  0  0
 30 23  1  1  0  0  0
 30 29  1  0  0  0  0
M  END
>  <MODEL>
1

>  <REMARK>
 VINA RESULT:      -8.5      0.000      0.000
  Name = 
  3 active torsions:
  status: ('A' for Active; 'I' for Inactive)
    1  A    between atoms: C_5  and  O_16
    2  A    between atoms: C_5  and  C_30
    3  A    between atoms: C_10  and  O_16
                            x       y       z     vdW  Elec       q    Type
                         _______ _______ _______ _____ _____    ______ ____

>  <TORSDO>
F 3

$$$$
=
 OpenBabel11112416463D

 31 35  0  0  1  0  0  0  0  0999 V2000
  185.2740  177.2240  146.7410 C   0  0  0  0  0  0  0  0  0  0  0  0
  186.8120  176.6460  143.3620 N   0  0  0  0  0  0  0  0  0  0  0  0
  185.9120  177.1590  142.3480 C   0  0  0  0  0  0  0  0  0  0  0  0
  183.8350  178.2440  141.6860 C   0  0  0  0  0  0  0  0  0  0  0  0
  186.6550  176.9820  144.7560 C   0  0  0  0  0  0  0  0  0  0  0  0
  186.3860  177.6560  147.4670 C   0  0  0  0  0  3  0  0  0  0  0  0
  184.6530  177.6930  142.6740 C   0  0  0  0  0  3  0  0  0  0  0  0
  189.1700  177.2620  143.3650 C   0  0  2  0  0  3  0  0  0  0  0  0
  184.0650  177.1330  147.3450 F   0  0  0  0  0  0  0  0  0  0  0  0
  187.5770  176.6720  140.6600 O   0  0  0  0  0  0  0  0  0  0  0  0
  182.5050  178.8010  142.0490 C   0  0  0  0  0  1  0  0  0  0  0  0
  189.1590  177.4450  144.8880 C   0  0  0  0  0  2  0  0  0  0  0  0
  188.1560  176.1840  142.9830 C   0  0  2  0  0  3  0  0  0  0  0  0
  185.4090  176.8840  145.3930 C   0  0  0  0  0  3  0  0  0  0  0  0
  184.2710  178.2850  140.3600 C   0  0  0  0  0  3  0  0  0  0  0  0
  187.7790  177.4140  145.4970 C   0  0  0  0  0  0  0  0  0  0  0  0
  187.6350  177.7440  146.8480 C   0  0  0  0  0  3  0  0  0  0  0  0
  188.2420  175.7510  141.5140 C   0  0  0  0  0  2  0  0  0  0  0  0
  186.3330  177.1940  141.0060 C   0  0  0  0  0  0  0  0  0  0  0  0
  185.5210  177.7620  140.0210 C   0  0  0  0  0  3  0  0  0  0  0  0
  190.4560  176.8970  142.9560 O   0  0  0  0  0  0  0  0  0  0  0  0
  191.9240  178.3080  143.9990 O   0  0  0  0  0  1  0  0  0  0  0  0
  191.2610  177.0830  144.0830 C   0  0  2  0  0  3  0  0  0  0  0  0
  190.5100  173.7430  144.8830 C   0  0  0  0  0  0  0  0  0  0  0  0
  192.0080  174.8100  143.2300 C   0  0  0  0  0  2  0  0  0  0  0  0
  192.5810  176.2620  146.6490 C   0  0  0  0  0  1  0  0  0  0  0  0
  189.6860  172.8280  145.1400 O   0  0  0  0  0  0  0  0  0  0  0  0
  190.8950  173.9790  143.5610 O   0  0  0  0  0  0  0  0  0  0  0  0
  192.2550  175.2780  145.6280 N   0  0  0  0  0  0  0  0  0  0  0  0
  192.2290  175.8940  144.2850 C   0  0  2  0  0  3  0  0  0  0  0  0
  190.9810  174.6480  145.9810 C   0  0  0  0  0  2  0  0  0  0  0  0
  1  9  1  0  0  0  0
  1  6  1  0  0  0  0
  2  5  1  0  0  0  0
  3  7  1  0  0  0  0
  3  2  1  0  0  0  0
  4 11  1  0  0  0  0
  4  7  2  0  0  0  0
  5 14  1  0  0  0  0
  5 16  2  0  0  0  0
  8 21  1  1  0  0  0
  8 12  1  0  0  0  0
 10 19  1  0  0  0  0
 10 18  1  0  0  0  0
 12 16  1  0  0  0  0
 13 18  1  6  0  0  0
 13  2  1  0  0  0  0
 13  8  1  0  0  0  0
 14  1  2  0  0  0  0
 15  4  1  0  0  0  0
 16 17  1  0  0  0  0
 17  6  2  0  0  0  0
 19  3  2  0  0  0  0
 20 15  2  0  0  0  0
 20 19  1  0  0  0  0
 21 23  1  0  0  0  0
 23 22  1  6  0  0  0
 24 27  2  0  0  0  0
 24 31  1  0  0  0  0
 25 28  1  0  0  0  0
 25 30  1  0  0  0  0
 28 24  1  0  0  0  0
 29 31  1  0  0  0  0
 29 26  1  0  0  0  0
 30 23  1  1  0  0  0
 30 29  1  0  0  0  0
M  END
>  <MODEL>
2

>  <REMARK>
 VINA RESULT:      -8.4      1.526      1.819
  Name = 
  3 active torsions:
  status: ('A' for Active; 'I' for Inactive)
    1  A    between atoms: C_5  and  O_16
    2  A    between atoms: C_5  and  C_30
    3  A    between atoms: C_10  and  O_16
                            x       y       z     vdW  Elec       q    Type
                         _______ _______ _______ _____ _____    ______ ____

>  <TORSDO>
F 3

$$$$
=
 OpenBabel11112416463D

 31 35  0  0  1  0  0  0  0  0999 V2000
  186.9620  177.4420  140.9640 C   0  0  0  0  0  0  0  0  0  0  0  0
  188.2710  177.2000  144.4780 N   0  0  0  0  0  0  0  0  0  0  0  0
  187.2430  177.6630  145.3890 C   0  0  0  0  0  0  0  0  0  0  0  0
  185.0180  178.5510  145.8280 C   0  0  0  0  0  0  0  0  0  0  0  0
  187.9780  176.8860  143.1010 C   0  0  0  0  0  0  0  0  0  0  0  0
  187.4190  176.2360  140.4280 C   0  0  0  0  0  3  0  0  0  0  0  0
  186.0180  178.1770  144.9280 C   0  0  0  0  0  3  0  0  0  0  0  0
  189.3930  175.0680  144.8400 C   0  0  2  0  0  3  0  0  0  0  0  0
  186.2470  178.2970  140.1940 F   0  0  0  0  0  0  0  0  0  0  0  0
  188.6440  177.0200  147.2550 O   0  0  0  0  0  0  0  0  0  0  0  0
  183.7310  179.0960  145.3230 C   0  0  0  0  0  1  0  0  0  0  0  0
  189.3170  174.7310  143.3450 C   0  0  0  0  0  2  0  0  0  0  0  0
  189.4960  176.5830  145.0080 C   0  0  2  0  0  3  0  0  0  0  0  0
  187.2450  177.7680  142.2920 C   0  0  0  0  0  3  0  0  0  0  0  0
  185.2210  178.3990  147.2010 C   0  0  0  0  0  3  0  0  0  0  0  0
  188.4430  175.6690  142.5510 C   0  0  0  0  0  0  0  0  0  0  0  0
  188.1620  175.3560  141.2180 C   0  0  0  0  0  3  0  0  0  0  0  0
  189.8110  177.0250  146.4420 C   0  0  0  0  0  2  0  0  0  0  0  0
  187.4400  177.5290  146.7750 C   0  0  0  0  0  0  0  0  0  0  0  0
  186.4310  177.8860  147.6740 C   0  0  0  0  0  3  0  0  0  0  0  0
  190.5070  174.4330  145.3990 O   0  0  0  0  0  0  0  0  0  0  0  0
  189.9240  172.2500  145.0360 O   0  0  0  0  0  1  0  0  0  0  0  0
  190.7210  173.3080  144.5980 C   0  0  2  0  0  3  0  0  0  0  0  0
  193.4130  175.2140  143.3800 C   0  0  0  0  0  0  0  0  0  0  0  0
  193.0590  173.8620  145.4210 C   0  0  0  0  0  2  0  0  0  0  0  0
  192.1300  171.8870  142.3620 C   0  0  0  0  0  1  0  0  0  0  0  0
  193.8790  176.2620  142.8630 O   0  0  0  0  0  0  0  0  0  0  0  0
  193.3250  175.1060  144.7710 O   0  0  0  0  0  0  0  0  0  0  0  0
  192.8330  172.8510  143.1950 N   0  0  0  0  0  0  0  0  0  0  0  0
  192.2220  172.9380  144.5380 C   0  0  2  0  0  3  0  0  0  0  0  0
  192.8480  174.1400  142.5010 C   0  0  0  0  0  2  0  0  0  0  0  0
  1 14  1  0  0  0  0
  2 13  1  0  0  0  0
  2  3  1  0  0  0  0
  3 19  1  0  0  0  0
  4 15  2  0  0  0  0
  5  2  1  0  0  0  0
  6  1  2  0  0  0  0
  6 17  1  0  0  0  0
  7  3  2  0  0  0  0
  7  4  1  0  0  0  0
  8 13  1  0  0  0  0
  8 21  1  6  0  0  0
  9  1  1  0  0  0  0
 11  4  1  0  0  0  0
 12  8  1  0  0  0  0
 13 18  1  1  0  0  0
 14  5  2  0  0  0  0
 15 20  1  0  0  0  0
 16  5  1  0  0  0  0
 16 12  1  0  0  0  0
 17 16  2  0  0  0  0
 18 10  1  0  0  0  0
 19 10  1  0  0  0  0
 19 20  2  0  0  0  0
 23 22  1  1  0  0  0
 23 21  1  0  0  0  0
 24 28  1  0  0  0  0
 26 29  1  0  0  0  0
 27 24  2  0  0  0  0
 28 25  1  0  0  0  0
 29 30  1  0  0  0  0
 30 23  1  6  0  0  0
 30 25  1  0  0  0  0
 31 29  1  0  0  0  0
 31 24  1  0  0  0  0
M  END
>  <MODEL>
3

>  <REMARK>
 VINA RESULT:      -8.1      2.221      4.625
  Name = 
  3 active torsions:
  status: ('A' for Active; 'I' for Inactive)
    1  A    between atoms: C_5  and  O_16
    2  A    between atoms: C_5  and  C_30
    3  A    between atoms: C_10  and  O_16
                            x       y       z     vdW  Elec       q    Type
                         _______ _______ _______ _____ _____    ______ ____

>  <TORSDO>
F 3

$$$$
=
 OpenBabel11112416463D

 31 35  0  0  1  0  0  0  0  0999 V2000
  185.0900  177.7760  146.4560 C   0  0  0  0  0  0  0  0  0  0  0  0
  187.3910  176.1990  143.9380 N   0  0  0  0  0  0  0  0  0  0  0  0
  186.9740  176.6060  142.6100 C   0  0  0  0  0  0  0  0  0  0  0  0
  185.4920  177.8320  141.1170 C   0  0  0  0  0  0  0  0  0  0  0  0
  186.9070  176.8660  145.1220 C   0  0  0  0  0  0  0  0  0  0  0  0
  186.0040  178.1770  147.4340 C   0  0  0  0  0  3  0  0  0  0  0  0
  185.8320  177.3970  142.4000 C   0  0  0  0  0  3  0  0  0  0  0  0
  189.7160  176.4100  144.6360 C   0  0  2  0  0  3  0  0  0  0  0  0
  183.7690  178.0220  146.6230 F   0  0  0  0  0  0  0  0  0  0  0  0
  188.9100  175.4830  141.6880 O   0  0  0  0  0  0  0  0  0  0  0  0
  184.2780  178.6650  140.9140 C   0  0  0  0  0  1  0  0  0  0  0  0
  189.2940  176.9350  146.0140 C   0  0  0  0  0  2  0  0  0  0  0  0
  188.6450  175.4510  144.1160 C   0  0  2  0  0  3  0  0  0  0  0  0
  185.5390  177.1200  145.3080 C   0  0  0  0  0  3  0  0  0  0  0  0
  186.3000  177.4980  140.0290 C   0  0  0  0  0  3  0  0  0  0  0  0
  187.8260  177.2680  146.1180 C   0  0  0  0  0  0  0  0  0  0  0  0
  187.3660  177.9170  147.2670 C   0  0  0  0  0  3  0  0  0  0  0  0
  189.0630  174.6850  142.8550 C   0  0  0  0  0  2  0  0  0  0  0  0
  187.7720  176.2640  141.5030 C   0  0  0  0  0  0  0  0  0  0  0  0
  187.4410  176.7160  140.2230 C   0  0  0  0  0  3  0  0  0  0  0  0
  190.9470  175.7570  144.7510 O   0  0  0  0  0  0  0  0  0  0  0  0
  192.2960  177.5410  144.2650 O   0  0  0  0  0  1  0  0  0  0  0  0
  191.8160  176.7140  145.2820 C   0  0  2  0  0  3  0  0  0  0  0  0
  195.2460  176.5150  144.5290 C   0  0  0  0  0  0  0  0  0  0  0  0
  193.9720  177.0840  146.5720 C   0  0  0  0  0  2  0  0  0  0  0  0
  192.7220  173.8590  145.1020 C   0  0  0  0  0  1  0  0  0  0  0  0
  196.2280  176.7610  143.7830 O   0  0  0  0  0  0  0  0  0  0  0  0
  194.8950  177.4200  145.5360 O   0  0  0  0  0  0  0  0  0  0  0  0
  193.6540  174.9180  145.4610 N   0  0  0  0  0  0  0  0  0  0  0  0
  192.9510  176.0510  146.0970 C   0  0  2  0  0  3  0  0  0  0  0  0
  194.3880  175.3160  144.2590 C   0  0  0  0  0  2  0  0  0  0  0  0
  1  9  1  0  0  0  0
  1  6  1  0  0  0  0
  2 13  1  0  0  0  0
  2  5  1  0  0  0  0
  3  2  1  0  0  0  0
  4  7  2  0  0  0  0
  5 14  1  0  0  0  0
  5 16  2  0  0  0  0
  7  3  1  0  0  0  0
  8 21  1  1  0  0  0
  8 12  1  0  0  0  0
 10 18  1  0  0  0  0
 11  4  1  0  0  0  0
 12 16  1  0  0  0  0
 13 18  1  6  0  0  0
 13  8  1  0  0  0  0
 14  1  2  0  0  0  0
 15 20  2  0  0  0  0
 15  4  1  0  0  0  0
 16 17  1  0  0  0  0
 17  6  2  0  0  0  0
 19 10  1  0  0  0  0
 19  3  2  0  0  0  0
 20 19  1  0  0  0  0
 21 23  1  0  0  0  0
 23 22  1  6  0  0  0
 24 28  1  0  0  0  0
 26 29  1  0  0  0  0
 27 24  2  0  0  0  0
 28 25  1  0  0  0  0
 29 30  1  0  0  0  0
 30 23  1  6  0  0  0
 30 25  1  0  0  0  0
 31 24  1  0  0  0  0
 31 29  1  0  0  0  0
M  END
>  <MODEL>
4

>  <REMARK>
 VINA RESULT:      -7.9      1.269      1.801
  Name = 
  3 active torsions:
  status: ('A' for Active; 'I' for Inactive)
    1  A    between atoms: C_5  and  O_16
    2  A    between atoms: C_5  and  C_30
    3  A    between atoms: C_10  and  O_16
                            x       y       z     vdW  Elec       q    Type
                         _______ _______ _______ _____ _____    ______ ____

>  <TORSDO>
F 3

$$$$
=
 OpenBabel11112416463D

 31 35  0  0  1  0  0  0  0  0999 V2000
  185.5130  178.2870  140.9010 C   0  0  0  0  0  0  0  0  0  0  0  0
  188.1230  177.8220  143.5640 N   0  0  0  0  0  0  0  0  0  0  0  0
  187.4720  177.8440  144.8600 C   0  0  0  0  0  0  0  0  0  0  0  0
  185.4820  178.0370  146.2490 C   0  0  0  0  0  0  0  0  0  0  0  0
  187.3710  177.6730  142.3420 C   0  0  0  0  0  0  0  0  0  0  0  0
  185.9300  177.3460  139.9560 C   0  0  0  0  0  3  0  0  0  0  0  0
  186.0950  178.0900  144.9960 C   0  0  0  0  0  3  0  0  0  0  0  0
  189.6590  176.0260  142.9690 C   0  0  2  0  0  3  0  0  0  0  0  0
  184.4120  179.0400  140.6670 F   0  0  0  0  0  0  0  0  0  0  0  0
  189.5870  177.2920  145.9010 O   0  0  0  0  0  0  0  0  0  0  0  0
  184.0250  178.3020  146.3740 C   0  0  0  0  0  1  0  0  0  0  0  0
  189.0610  175.9310  141.5590 C   0  0  0  0  0  2  0  0  0  0  0  0
  189.5460  177.4680  143.4650 C   0  0  2  0  0  3  0  0  0  0  0  0
  186.2330  178.4530  142.0860 C   0  0  0  0  0  3  0  0  0  0  0  0
  186.2340  177.7200  147.3820 C   0  0  0  0  0  3  0  0  0  0  0  0
  187.7920  176.7260  141.3790 C   0  0  0  0  0  0  0  0  0  0  0  0
  187.0690  176.5740  140.1920 C   0  0  0  0  0  3  0  0  0  0  0  0
  190.3160  177.7350  144.7640 C   0  0  0  0  0  2  0  0  0  0  0  0
  188.2210  177.5410  146.0120 C   0  0  0  0  0  0  0  0  0  0  0  0
  187.6020  177.4700  147.2630 C   0  0  0  0  0  3  0  0  0  0  0  0
  190.9970  175.6220  142.9300 O   0  0  0  0  0  0  0  0  0  0  0  0
  191.2190  174.3210  144.7990 O   0  0  0  0  0  1  0  0  0  0  0  0
  190.9940  174.3140  143.4220 C   0  0  2  0  0  3  0  0  0  0  0  0
  190.4970  172.4450  140.4850 C   0  0  0  0  0  0  0  0  0  0  0  0
  192.2810  173.9730  141.2600 C   0  0  0  0  0  2  0  0  0  0  0  0
  191.5250  171.3980  143.8910 C   0  0  0  0  0  1  0  0  0  0  0  0
  189.7690  172.0490  139.5390 O   0  0  0  0  0  0  0  0  0  0  0  0
  191.2480  173.6150  140.3420 O   0  0  0  0  0  0  0  0  0  0  0  0
  191.6820  171.9830  142.5680 N   0  0  0  0  0  0  0  0  0  0  0  0
  192.0010  173.4230  142.6580 C   0  0  2  0  0  3  0  0  0  0  0  0
  190.4620  171.7260  141.8000 C   0  0  0  0  0  2  0  0  0  0  0  0
  1 14  1  0  0  0  0
  2  3  1  0  0  0  0
  3  7  2  0  0  0  0
  3 19  1  0  0  0  0
  4 11  1  0  0  0  0
  4 15  2  0  0  0  0
  5  2  1  0  0  0  0
  6 17  1  0  0  0  0
  6  1  2  0  0  0  0
  7  4  1  0  0  0  0
  8 21  1  6  0  0  0
  8 13  1  0  0  0  0
  9  1  1  0  0  0  0
 10 19  1  0  0  0  0
 12  8  1  0  0  0  0
 13  2  1  0  0  0  0
 13 18  1  1  0  0  0
 14  5  2  0  0  0  0
 16 12  1  0  0  0  0
 16  5  1  0  0  0  0
 17 16  2  0  0  0  0
 18 10  1  0  0  0  0
 19 20  2  0  0  0  0
 20 15  1  0  0  0  0
 21 23  1  0  0  0  0
 23 22  1  1  0  0  0
 24 31  1  0  0  0  0
 25 30  1  0  0  0  0
 27 24  2  0  0  0  0
 28 24  1  0  0  0  0
 28 25  1  0  0  0  0
 29 30  1  0  0  0  0
 29 26  1  0  0  0  0
 30 23  1  6  0  0  0
 31 29  1  0  0  0  0
M  END
>  <MODEL>
5

>  <REMARK>
 VINA RESULT:      -7.8      2.425      4.940
  Name = 
  3 active torsions:
  status: ('A' for Active; 'I' for Inactive)
    1  A    between atoms: C_5  and  O_16
    2  A    between atoms: C_5  and  C_30
    3  A    between atoms: C_10  and  O_16
                            x       y       z     vdW  Elec       q    Type
                         _______ _______ _______ _____ _____    ______ ____

>  <TORSDO>
F 3

$$$$
=
 OpenBabel11112416463D

 31 35  0  0  1  0  0  0  0  0999 V2000
  194.5260  175.2130  145.3490 C   0  0  0  0  0  0  0  0  0  0  0  0
  191.1220  175.1350  143.7610 N   0  0  0  0  0  0  0  0  0  0  0  0
  190.8600  173.7890  143.2900 C   0  0  0  0  0  0  0  0  0  0  0  0
  191.5200  171.4650  142.9870 C   0  0  0  0  0  0  0  0  0  0  0  0
  192.2010  175.4220  144.6740 C   0  0  0  0  0  0  0  0  0  0  0  0
  194.2720  175.9930  146.4800 C   0  0  0  0  0  3  0  0  0  0  0  0
  191.8220  172.7690  143.3850 C   0  0  0  0  0  3  0  0  0  0  0  0
  189.4940  176.3130  145.1400 C   0  0  2  0  0  3  0  0  0  0  0  0
  195.7720  174.7300  145.1250 F   0  0  0  0  0  0  0  0  0  0  0  0
  188.6150  174.4640  142.6880 O   0  0  0  0  0  0  0  0  0  0  0  0
  192.5510  170.3990  143.0910 C   0  0  0  0  0  1  0  0  0  0  0  0
  190.6020  176.8470  146.0580 C   0  0  0  0  0  2  0  0  0  0  0  0
  190.0520  176.1440  143.7270 C   0  0  2  0  0  3  0  0  0  0  0  0
  193.4970  174.9330  144.4480 C   0  0  0  0  0  3  0  0  0  0  0  0
  190.2460  171.1580  142.5050 C   0  0  0  0  0  3  0  0  0  0  0  0
  191.9510  176.2160  145.8170 C   0  0  0  0  0  0  0  0  0  0  0  0
  192.9910  176.4970  146.7080 C   0  0  0  0  0  3  0  0  0  0  0  0
  188.9810  175.8380  142.6730 C   0  0  0  0  0  2  0  0  0  0  0  0
  189.5850  173.4700  142.7890 C   0  0  0  0  0  0  0  0  0  0  0  0
  189.2780  172.1610  142.4090 C   0  0  0  0  0  3  0  0  0  0  0  0
  188.4230  177.2120  145.1420 O   0  0  0  0  0  0  0  0  0  0  0  0
  188.0940  175.6290  146.7620 O   0  0  0  0  0  1  0  0  0  0  0  0
  187.6430  176.8420  146.2410 C   0  0  2  0  0  3  0  0  0  0  0  0
  185.7270  179.2810  144.5840 C   0  0  0  0  0  0  0  0  0  0  0  0
  185.9310  176.8260  144.3650 C   0  0  0  0  0  2  0  0  0  0  0  0
  185.3660  177.7800  147.9560 C   0  0  0  0  0  1  0  0  0  0  0  0
  185.6150  180.3970  144.0130 O   0  0  0  0  0  0  0  0  0  0  0  0
  186.0470  178.1460  143.8340 O   0  0  0  0  0  0  0  0  0  0  0  0
  185.2840  177.8420  146.5040 N   0  0  0  0  0  0  0  0  0  0  0  0
  186.1400  176.8130  145.8780 C   0  0  2  0  0  3  0  0  0  0  0  0
  185.6340  179.1980  146.0780 C   0  0  0  0  0  2  0  0  0  0  0  0
  1  6  1  0  0  0  0
  2  5  1  0  0  0  0
  3  7  1  0  0  0  0
  3  2  1  0  0  0  0
  4 11  1  0  0  0  0
  4  7  2  0  0  0  0
  5 16  2  0  0  0  0
  6 17  2  0  0  0  0
  8 21  1  6  0  0  0
  8 12  1  0  0  0  0
  9  1  1  0  0  0  0
 10 19  1  0  0  0  0
 13 18  1  6  0  0  0
 13  2  1  0  0  0  0
 13  8  1  0  0  0  0
 14  5  1  0  0  0  0
 14  1  2  0  0  0  0
 15  4  1  0  0  0  0
 16 12  1  0  0  0  0
 16 17  1  0  0  0  0
 18 10  1  0  0  0  0
 19  3  2  0  0  0  0
 20 15  2  0  0  0  0
 20 19  1  0  0  0  0
 21 23  1  0  0  0  0
 23 22  1  6  0  0  0
 24 31  1  0  0  0  0
 25 30  1  0  0  0  0
 27 24  2  0  0  0  0
 28 25  1  0  0  0  0
 28 24  1  0  0  0  0
 29 26  1  0  0  0  0
 30 23  1  6  0  0  0
 30 29  1  0  0  0  0
 31 29  1  0  0  0  0
M  END
>  <MODEL>
6

>  <REMARK>
 VINA RESULT:      -7.7      3.406      7.215
  Name = 
  3 active torsions:
  status: ('A' for Active; 'I' for Inactive)
    1  A    between atoms: C_5  and  O_16
    2  A    between atoms: C_5  and  C_30
    3  A    between atoms: C_10  and  O_16
                            x       y       z     vdW  Elec       q    Type
                         _______ _______ _______ _____ _____    ______ ____

>  <TORSDO>
F 3

$$$$
=
 OpenBabel11112416463D

 31 35  0  0  1  0  0  0  0  0999 V2000
  186.3420  177.6500  146.1580 C   0  0  0  0  0  0  0  0  0  0  0  0
  187.8400  175.5920  143.3940 N   0  0  0  0  0  0  0  0  0  0  0  0
  187.3270  176.0730  142.1270 C   0  0  0  0  0  0  0  0  0  0  0  0
  185.9380  177.5870  140.8200 C   0  0  0  0  0  0  0  0  0  0  0  0
  187.6960  176.3560  144.6090 C   0  0  0  0  0  0  0  0  0  0  0  0
  187.4570  177.8450  146.9760 C   0  0  0  0  0  3  0  0  0  0  0  0
  186.3640  177.0950  142.0550 C   0  0  0  0  0  3  0  0  0  0  0  0
  190.2340  175.2900  143.7380 C   0  0  2  0  0  3  0  0  0  0  0  0
  185.1460  178.1820  146.5060 F   0  0  0  0  0  0  0  0  0  0  0  0
  188.8110  174.5470  140.9760 O   0  0  0  0  0  0  0  0  0  0  0  0
  184.9170  178.6660  140.7630 C   0  0  0  0  0  1  0  0  0  0  0  0
  190.1480  175.9030  145.1420 C   0  0  0  0  0  2  0  0  0  0  0  0
  188.9140  174.5880  143.4160 C   0  0  2  0  0  3  0  0  0  0  0  0
  186.4600  176.9050  144.9830 C   0  0  0  0  0  3  0  0  0  0  0  0
  186.4820  177.0770  139.6390 C   0  0  0  0  0  3  0  0  0  0  0  0
  188.8200  176.5510  145.4450 C   0  0  0  0  0  0  0  0  0  0  0  0
  188.6900  177.2920  146.6230 C   0  0  0  0  0  3  0  0  0  0  0  0
  188.9620  173.7410  142.1380 C   0  0  0  0  0  2  0  0  0  0  0  0
  187.8550  175.5580  140.9290 C   0  0  0  0  0  0  0  0  0  0  0  0
  187.4420  176.0640  139.6940 C   0  0  0  0  0  3  0  0  0  0  0  0
  191.2970  174.3820  143.6970 O   0  0  0  0  0  0  0  0  0  0  0  0
  192.3090  174.9940  141.7370 O   0  0  0  0  0  1  0  0  0  0  0  0
  192.3570  175.0940  143.1280 C   0  0  2  0  0  3  0  0  0  0  0  0
  194.0890  176.3520  145.9170 C   0  0  0  0  0  0  0  0  0  0  0  0
  193.5550  174.0720  145.1210 C   0  0  0  0  0  2  0  0  0  0  0  0
  195.0720  176.1070  142.3490 C   0  0  0  0  0  1  0  0  0  0  0  0
  194.1900  177.1460  146.8880 O   0  0  0  0  0  0  0  0  0  0  0  0
  193.4690  175.1130  146.0950 O   0  0  0  0  0  0  0  0  0  0  0  0
  194.8100  175.6320  143.7000 N   0  0  0  0  0  0  0  0  0  0  0  0
  193.7160  174.6390  143.7110 C   0  0  2  0  0  3  0  0  0  0  0  0
  194.5280  176.7890  144.5520 C   0  0  0  0  0  2  0  0  0  0  0  0
  1  9  1  0  0  0  0
  1  6  1  0  0  0  0
  2 13  1  0  0  0  0
  2  5  1  0  0  0  0
  3  2  1  0  0  0  0
  4  7  2  0  0  0  0
  5 14  1  0  0  0  0
  5 16  2  0  0  0  0
  7  3  1  0  0  0  0
  8 21  1  1  0  0  0
  8 12  1  0  0  0  0
 10 18  1  0  0  0  0
 11  4  1  0  0  0  0
 12 16  1  0  0  0  0
 13 18  1  6  0  0  0
 13  8  1  0  0  0  0
 14  1  2  0  0  0  0
 15 20  2  0  0  0  0
 15  4  1  0  0  0  0
 16 17  1  0  0  0  0
 17  6  2  0  0  0  0
 19 10  1  0  0  0  0
 19  3  2  0  0  0  0
 20 19  1  0  0  0  0
 23 22  1  6  0  0  0
 23 21  1  0  0  0  0
 24 28  1  0  0  0  0
 24 27  2  0  0  0  0
 25 28  1  0  0  0  0
 26 29  1  0  0  0  0
 29 30  1  0  0  0  0
 29 31  1  0  0  0  0
 30 23  1  1  0  0  0
 30 25  1  0  0  0  0
 31 24  1  0  0  0  0
M  END
>  <MODEL>
7

>  <REMARK>
 VINA RESULT:      -7.6      1.405      1.933
  Name = 
  3 active torsions:
  status: ('A' for Active; 'I' for Inactive)
    1  A    between atoms: C_5  and  O_16
    2  A    between atoms: C_5  and  C_30
    3  A    between atoms: C_10  and  O_16
                            x       y       z     vdW  Elec       q    Type
                         _______ _______ _______ _____ _____    ______ ____

>  <TORSDO>
F 3

$$$$
=
 OpenBabel11112416463D

 31 35  0  0  1  0  0  0  0  0999 V2000
  190.8480  174.0930  141.3060 C   0  0  0  0  0  0  0  0  0  0  0  0
  190.9780  174.9170  144.9700 N   0  0  0  0  0  0  0  0  0  0  0  0
  192.2640  175.5150  145.2660 C   0  0  0  0  0  0  0  0  0  0  0  0
  194.4700  176.2900  144.5820 C   0  0  0  0  0  0  0  0  0  0  0  0
  190.5050  174.7680  143.6150 C   0  0  0  0  0  0  0  0  0  0  0  0
  189.5520  174.5050  140.9880 C   0  0  0  0  0  3  0  0  0  0  0  0
  193.2650  175.6470  144.2880 C   0  0  0  0  0  3  0  0  0  0  0  0
  188.9090  175.9830  145.6930 C   0  0  2  0  0  3  0  0  0  0  0  0
  191.6470  173.5690  140.3460 F   0  0  0  0  0  0  0  0  0  0  0  0
  191.5210  175.9310  147.5310 O   0  0  0  0  0  0  0  0  0  0  0  0
  195.5180  176.4160  143.5360 C   0  0  0  0  0  1  0  0  0  0  0  0
  188.2390  175.6830  144.3450 C   0  0  0  0  0  2  0  0  0  0  0  0
  189.9290  174.8870  146.0010 C   0  0  2  0  0  3  0  0  0  0  0  0
  191.3200  174.2200  142.6140 C   0  0  0  0  0  3  0  0  0  0  0  0
  194.6830  176.8260  145.8530 C   0  0  0  0  0  3  0  0  0  0  0  0
  189.1900  175.1770  143.2900 C   0  0  0  0  0  0  0  0  0  0  0  0
  188.7250  175.0390  141.9790 C   0  0  0  0  0  3  0  0  0  0  0  0
  190.4940  174.9530  147.4250 C   0  0  0  0  0  2  0  0  0  0  0  0
  192.4980  176.0480  146.5470 C   0  0  0  0  0  0  0  0  0  0  0  0
  193.6960  176.7070  146.8340 C   0  0  0  0  0  3  0  0  0  0  0  0
  187.9310  176.0400  146.6900 O   0  0  0  0  0  0  0  0  0  0  0  0
  188.4470  178.0560  147.6420 O   0  0  0  0  0  1  0  0  0  0  0  0
  187.5790  177.3900  146.7760 C   0  0  2  0  0  3  0  0  0  0  0  0
  184.8940  178.5420  144.8190 C   0  0  0  0  0  0  0  0  0  0  0  0
  185.1910  176.6310  146.3620 C   0  0  0  0  0  2  0  0  0  0  0  0
  186.3160  179.8230  147.9960 C   0  0  0  0  0  1  0  0  0  0  0  0
  184.4230  178.9740  143.7360 O   0  0  0  0  0  0  0  0  0  0  0  0
  184.9210  177.1660  145.0660 O   0  0  0  0  0  0  0  0  0  0  0  0
  185.5490  178.9330  147.1380 N   0  0  0  0  0  0  0  0  0  0  0  0
  186.0940  177.5600  147.1720 C   0  0  2  0  0  3  0  0  0  0  0  0
  185.5290  179.4950  145.7860 C   0  0  0  0  0  2  0  0  0  0  0  0
  1 14  1  0  0  0  0
  2  3  1  0  0  0  0
  2 13  1  0  0  0  0
  3 19  1  0  0  0  0
  4 15  2  0  0  0  0
  5  2  1  0  0  0  0
  6  1  2  0  0  0  0
  6 17  1  0  0  0  0
  7  4  1  0  0  0  0
  7  3  2  0  0  0  0
  8 13  1  0  0  0  0
  8 21  1  1  0  0  0
  9  1  1  0  0  0  0
 11  4  1  0  0  0  0
 12  8  1  0  0  0  0
 13 18  1  1  0  0  0
 14  5  2  0  0  0  0
 15 20  1  0  0  0  0
 16  5  1  0  0  0  0
 16 12  1  0  0  0  0
 17 16  2  0  0  0  0
 18 10  1  0  0  0  0
 19 20  2  0  0  0  0
 19 10  1  0  0  0  0
 21 23  1  0  0  0  0
 23 22  1  1  0  0  0
 24 28  1  0  0  0  0
 24 31  1  0  0  0  0
 25 30  1  0  0  0  0
 27 24  2  0  0  0  0
 28 25  1  0  0  0  0
 29 30  1  0  0  0  0
 29 26  1  0  0  0  0
 30 23  1  6  0  0  0
 31 29  1  0  0  0  0
M  END
>  <MODEL>
8

>  <REMARK>
 VINA RESULT:      -7.5      3.242      7.606
  Name = 
  3 active torsions:
  status: ('A' for Active; 'I' for Inactive)
    1  A    between atoms: C_5  and  O_16
    2  A    between atoms: C_5  and  C_30
    3  A    between atoms: C_10  and  O_16
                            x       y       z     vdW  Elec       q    Type
                         _______ _______ _______ _____ _____    ______ ____

>  <TORSDO>
F 3

$$$$
=
 OpenBabel11112416463D

 31 35  0  0  1  0  0  0  0  0999 V2000
  187.0010  177.8690  144.5710 C   0  0  0  0  0  0  0  0  0  0  0  0
  190.0490  175.9800  143.4470 N   0  0  0  0  0  0  0  0  0  0  0  0
  190.9420  175.8250  144.5790 C   0  0  0  0  0  0  0  0  0  0  0  0
  191.5030  176.1760  146.9220 C   0  0  0  0  0  0  0  0  0  0  0  0
  188.6760  176.3890  143.6160 C   0  0  0  0  0  0  0  0  0  0  0  0
  185.9910  177.1480  143.9300 C   0  0  0  0  0  3  0  0  0  0  0  0
  190.6610  176.3980  145.8310 C   0  0  0  0  0  3  0  0  0  0  0  0
  189.4240  174.0630  142.0790 C   0  0  2  0  0  3  0  0  0  0  0  0
  186.6840  178.9340  145.3460 F   0  0  0  0  0  0  0  0  0  0  0  0
  192.3850  174.4410  143.2160 O   0  0  0  0  0  0  0  0  0  0  0  0
  191.1920  176.7930  148.2380 C   0  0  0  0  0  1  0  0  0  0  0  0
  187.9640  174.5300  142.0230 C   0  0  0  0  0  2  0  0  0  0  0  0
  190.3380  175.2840  142.1850 C   0  0  2  0  0  3  0  0  0  0  0  0
  188.3370  177.4950  144.4110 C   0  0  0  0  0  3  0  0  0  0  0  0
  192.6300  175.3630  146.7810 C   0  0  0  0  0  3  0  0  0  0  0  0
  187.6500  175.6660  142.9640 C   0  0  0  0  0  0  0  0  0  0  0  0
  186.3160  176.0540  143.1240 C   0  0  0  0  0  3  0  0  0  0  0  0
  191.8260  174.9570  142.0150 C   0  0  0  0  0  2  0  0  0  0  0  0
  192.0880  175.0200  144.4470 C   0  0  0  0  0  0  0  0  0  0  0  0
  192.9200  174.7840  145.5440 C   0  0  0  0  0  3  0  0  0  0  0  0
  189.7160  173.3280  140.9250 O   0  0  0  0  0  0  0  0  0  0  0  0
  189.9800  171.9980  142.7700 O   0  0  0  0  0  1  0  0  0  0  0  0
  189.9430  172.0240  141.3750 C   0  0  2  0  0  3  0  0  0  0  0  0
  190.3720  170.7120  138.1410 C   0  0  0  0  0  0  0  0  0  0  0  0
  191.6920  172.2590  139.5480 C   0  0  0  0  0  2  0  0  0  0  0  0
  190.8170  169.1550  141.4770 C   0  0  0  0  0  1  0  0  0  0  0  0
  189.9290  170.4240  136.9990 O   0  0  0  0  0  0  0  0  0  0  0  0
  190.9420  171.9680  138.3680 O   0  0  0  0  0  0  0  0  0  0  0  0
  191.1530  169.9990  140.3400 N   0  0  0  0  0  0  0  0  0  0  0  0
  191.2150  171.4220  140.7340 C   0  0  2  0  0  3  0  0  0  0  0  0
  190.1770  169.7530  139.2760 C   0  0  0  0  0  2  0  0  0  0  0  0
  1  9  1  0  0  0  0
  2  5  1  0  0  0  0
  2  3  1  0  0  0  0
  3  7  1  0  0  0  0
  4 11  1  0  0  0  0
  5 14  2  0  0  0  0
  6  1  2  0  0  0  0
  7  4  2  0  0  0  0
  8 21  1  6  0  0  0
  8 13  1  0  0  0  0
 10 19  1  0  0  0  0
 12  8  1  0  0  0  0
 12 16  1  0  0  0  0
 13 18  1  1  0  0  0
 13  2  1  0  0  0  0
 14  1  1  0  0  0  0
 15  4  1  0  0  0  0
 16 17  2  0  0  0  0
 16  5  1  0  0  0  0
 17  6  1  0  0  0  0
 18 10  1  0  0  0  0
 19  3  2  0  0  0  0
 19 20  1  0  0  0  0
 20 15  2  0  0  0  0
 21 23  1  0  0  0  0
 23 22  1  1  0  0  0
 24 28  1  0  0  0  0
 24 31  1  0  0  0  0
 25 30  1  0  0  0  0
 27 24  2  0  0  0  0
 28 25  1  0  0  0  0
 29 30  1  0  0  0  0
 29 26  1  0  0  0  0
 30 23  1  6  0  0  0
 31 29  1  0  0  0  0
M  END
>  <MODEL>
9

>  <REMARK>
 VINA RESULT:      -7.3      3.606      6.213
  Name = 
  3 active torsions:
  status: ('A' for Active; 'I' for Inactive)
    1  A    between atoms: C_5  and  O_16
    2  A    between atoms: C_5  and  C_30
    3  A    between atoms: C_10  and  O_16
                            x       y       z     vdW  Elec       q    Type
                         _______ _______ _______ _____ _____    ______ ____

>  <TORSDO>
F 3

$$$$
