=
 OpenBabel11112416143D

 30 35  0  0  1  0  0  0  0  0999 V2000
  187.9520  176.1410  141.6740 C   0  0  1  0  0  3  0  0  0  0  0  0
  186.1170  177.4470  140.4710 C   0  0  0  0  0  0  0  0  0  0  0  0
  185.9710  176.9440  145.4690 C   0  0  0  0  0  2  0  0  0  0  0  0
  188.4120  175.5950  143.0460 C   0  0  1  0  0  3  0  0  0  0  0  0
  187.9980  174.9830  140.6840 C   0  0  0  0  0  2  0  0  0  0  0  0
  191.4010  173.9700  141.6660 O   0  0  0  0  0  0  0  0  0  0  0  0
  190.8040  175.8580  145.2510 C   0  0  1  0  0  3  0  0  0  0  0  0
  190.2590  174.5020  141.7470 C   0  0  0  0  0  0  0  0  0  0  0  0
  189.6310  176.3080  146.1250 C   0  0  2  0  0  3  0  0  0  0  0  0
  187.1240  176.5040  146.2880 C   0  0  0  0  0  0  0  0  0  0  0  0
  189.3340  174.3880  140.6410 N   0  0  0  0  0  0  0  0  0  0  0  0
  189.9180  175.3440  142.9570 C   0  0  2  0  0  3  0  0  0  0  0  0
  184.9210  178.1710  140.4820 C   0  0  0  0  0  3  0  0  0  0  0  0
  189.7770  175.5140  147.4090 C   0  0  0  0  0  2  0  0  0  0  0  0
  191.8850  175.3880  146.2130 C   0  0  0  0  0  2  0  0  0  0  0  0
  186.8070  177.3060  139.2730 O   0  0  0  0  0  1  0  0  0  0  0  0
  186.4480  176.4830  144.1130 C   0  0  2  0  0  3  0  0  0  0  0  0
  184.2160  178.3540  141.6750 C   0  0  0  0  0  3  0  0  0  0  0  0
  186.6120  176.8790  141.6620 C   0  0  0  0  0  0  0  0  0  0  0  0
  187.9640  176.5480  144.1550 C   0  0  1  0  0  3  0  0  0  0  0  0
  187.0900  176.4870  147.5470 O   0  0  0  0  0  0  0  0  0  0  0  0
  188.2930  176.1670  145.5290 N   0  0  0  0  0  0  0  0  0  0  0  0
  191.2680  175.3550  147.6010 C   0  0  0  0  0  2  0  0  0  0  0  0
  189.7610  173.5430  144.7780 C   0  0  0  0  0  1  0  0  0  0  0  0
  184.7110  177.8260  142.8660 C   0  0  0  0  0  3  0  0  0  0  0  0
  185.9180  177.1170  142.8700 C   0  0  0  0  0  0  0  0  0  0  0  0
  190.5140  174.7560  144.2320 C   0  0  2  0  0  3  0  0  0  0  0  0
  189.6950  173.6420  139.4430 C   0  0  0  0  0  2  0  0  0  0  0  0
  189.0610  174.0190  137.0810 C   0  0  0  0  0  1  0  0  0  0  0  0
  188.5430  173.6470  138.4540 C   0  0  0  0  0  2  0  0  0  0  0  0
  1  5  1  6  0  0  0
  1  4  1  0  0  0  0
  2 13  2  0  0  0  0
  2 19  1  0  0  0  0
  3 10  1  0  0  0  0
  4 20  1  0  0  0  0
  6  8  2  0  0  0  0
  7  9  1  0  0  0  0
  7 15  1  0  0  0  0
  8 12  1  0  0  0  0
  9 14  1  0  0  0  0
 10 21  2  0  0  0  0
 11  5  1  0  0  0  0
 11  8  1  0  0  0  0
 12  4  1  0  0  0  0
 12 27  1  0  0  0  0
 13 18  1  0  0  0  0
 14 23  1  0  0  0  0
 15 23  1  0  0  0  0
 16  2  1  0  0  0  0
 17 20  1  0  0  0  0
 17  3  1  0  0  0  0
 18 25  2  0  0  0  0
 19  1  1  0  0  0  0
 19 26  2  0  0  0  0
 20 22  1  0  0  0  0
 22  9  1  0  0  0  0
 22 10  1  0  0  0  0
 25 26  1  0  0  0  0
 26 17  1  0  0  0  0
 27 24  1  0  0  0  0
 27  7  1  0  0  0  0
 28 11  1  0  0  0  0
 29 30  1  0  0  0  0
 30 28  1  0  0  0  0
M  END
>  <MODEL>
1

>  <REMARK>
 VINA RESULT:      -8.8      0.000      0.000
  Name = 
  2 active torsions:
  status: ('A' for Active; 'I' for Inactive)
    1  A    between atoms: N_11  and  C_28
    2  A    between atoms: C_28  and  C_30
                            x       y       z     vdW  Elec       q    Type
                         _______ _______ _______ _____ _____    ______ ____

>  <TORSDO>
F 2

$$$$
=
 OpenBabel11112416143D

 30 35  0  0  1  0  0  0  0  0999 V2000
  187.7120  176.2660  145.5560 C   0  0  1  0  0  3  0  0  0  0  0  0
  185.9210  177.6140  146.7790 C   0  0  0  0  0  0  0  0  0  0  0  0
  186.1800  177.7580  141.7610 C   0  0  0  0  0  2  0  0  0  0  0  0
  188.3320  175.9660  144.1710 C   0  0  1  0  0  3  0  0  0  0  0  0
  188.8540  176.6310  146.4960 C   0  0  0  0  0  2  0  0  0  0  0  0
  190.8890  173.7120  145.5380 O   0  0  0  0  0  0  0  0  0  0  0  0
  188.7890  173.5500  142.0240 C   0  0  1  0  0  3  0  0  0  0  0  0
  190.0110  174.6160  145.4580 C   0  0  0  0  0  0  0  0  0  0  0  0
  187.9520  174.4840  141.1490 C   0  0  2  0  0  3  0  0  0  0  0  0
  186.9440  176.7850  140.9470 C   0  0  0  0  0  0  0  0  0  0  0  0
  189.8540  175.5620  146.5400 N   0  0  0  0  0  0  0  0  0  0  0  0
  189.0630  174.6260  144.2780 C   0  0  2  0  0  3  0  0  0  0  0  0
  184.8470  178.5090  146.7750 C   0  0  0  0  0  3  0  0  0  0  0  0
  188.7060  174.5640  139.8350 C   0  0  0  0  0  2  0  0  0  0  0  0
  189.5530  172.6510  141.0640 C   0  0  0  0  0  2  0  0  0  0  0  0
  186.3200  177.0460  147.9820 O   0  0  0  0  0  1  0  0  0  0  0  0
  186.8170  177.5000  143.1060 C   0  0  2  0  0  3  0  0  0  0  0  0
  184.4040  179.0780  145.5790 C   0  0  0  0  0  3  0  0  0  0  0  0
  186.5790  177.2930  145.5740 C   0  0  0  0  0  0  0  0  0  0  0  0
  187.2480  176.0440  143.0950 C   0  0  1  0  0  3  0  0  0  0  0  0
  186.9060  176.7840  139.6880 O   0  0  0  0  0  0  0  0  0  0  0  0
  187.6690  175.8130  141.7130 N   0  0  0  0  0  0  0  0  0  0  0  0
  189.3360  173.2010  139.6650 C   0  0  0  0  0  2  0  0  0  0  0  0
  190.6520  175.3030  142.3800 C   0  0  0  0  0  1  0  0  0  0  0  0
  185.0240  178.7440  144.3750 C   0  0  0  0  0  3  0  0  0  0  0  0
  186.0870  177.8340  144.3640 C   0  0  0  0  0  0  0  0  0  0  0  0
  189.7700  174.2140  142.9910 C   0  0  2  0  0  3  0  0  0  0  0  0
  190.7170  175.5010  147.7110 C   0  0  0  0  0  2  0  0  0  0  0  0
  192.8900  176.3350  146.8710 C   0  0  0  0  0  1  0  0  0  0  0  0
  191.6810  176.6750  147.7160 C   0  0  0  0  0  2  0  0  0  0  0  0
  1 19  1  0  0  0  0
  1  5  1  1  0  0  0
  2 16  1  0  0  0  0
  3 17  1  0  0  0  0
  4 12  1  0  0  0  0
  4  1  1  0  0  0  0
  5 11  1  0  0  0  0
  7 27  1  0  0  0  0
  8  6  2  0  0  0  0
  8 11  1  0  0  0  0
  9 22  1  0  0  0  0
  9  7  1  0  0  0  0
 10 22  1  0  0  0  0
 10  3  1  0  0  0  0
 11 28  1  0  0  0  0
 12  8  1  0  0  0  0
 13  2  1  0  0  0  0
 14  9  1  0  0  0  0
 15  7  1  0  0  0  0
 17 26  1  0  0  0  0
 18 13  2  0  0  0  0
 19  2  2  0  0  0  0
 20 17  1  0  0  0  0
 20  4  1  0  0  0  0
 21 10  2  0  0  0  0
 22 20  1  0  0  0  0
 23 14  1  0  0  0  0
 23 15  1  0  0  0  0
 24 27  1  0  0  0  0
 25 18  1  0  0  0  0
 26 25  2  0  0  0  0
 26 19  1  0  0  0  0
 27 12  1  0  0  0  0
 28 30  1  0  0  0  0
 29 30  1  0  0  0  0
M  END
>  <MODEL>
2

>  <REMARK>
 VINA RESULT:      -8.7      1.558      5.674
  Name = 
  2 active torsions:
  status: ('A' for Active; 'I' for Inactive)
    1  A    between atoms: N_11  and  C_28
    2  A    between atoms: C_28  and  C_30
                            x       y       z     vdW  Elec       q    Type
                         _______ _______ _______ _____ _____    ______ ____

>  <TORSDO>
F 2

$$$$
=
 OpenBabel11112416143D

 30 35  0  0  1  0  0  0  0  0999 V2000
  188.3960  176.2590  142.5740 C   0  0  1  0  0  3  0  0  0  0  0  0
  186.3480  177.7510  142.2640 C   0  0  0  0  0  0  0  0  0  0  0  0
  188.7090  177.6250  146.6980 C   0  0  0  0  0  2  0  0  0  0  0  0
  189.4310  175.7430  143.6010 C   0  0  1  0  0  3  0  0  0  0  0  0
  187.8160  175.0430  141.8630 C   0  0  0  0  0  2  0  0  0  0  0  0
  191.1240  173.5760  141.1680 O   0  0  0  0  0  0  0  0  0  0  0  0
  192.6240  175.7780  144.2790 C   0  0  1  0  0  3  0  0  0  0  0  0
  190.2420  174.2860  141.7270 C   0  0  0  0  0  0  0  0  0  0  0  0
  192.1100  176.4670  145.5450 C   0  0  2  0  0  3  0  0  0  0  0  0
  190.0680  177.0670  146.8940 C   0  0  0  0  0  0  0  0  0  0  0  0
  188.8780  174.2430  141.2490 N   0  0  0  0  0  0  0  0  0  0  0  0
  190.6500  175.2530  142.8170 C   0  0  2  0  0  3  0  0  0  0  0  0
  185.4030  178.6530  142.7630 C   0  0  0  0  0  3  0  0  0  0  0  0
  192.8060  175.7510  146.6860 C   0  0  0  0  0  2  0  0  0  0  0  0
  193.9900  175.2120  144.6370 C   0  0  0  0  0  2  0  0  0  0  0  0
  186.3150  177.4200  140.9150 O   0  0  0  0  0  1  0  0  0  0  0  0
  188.3830  177.0010  145.3620 C   0  0  2  0  0  3  0  0  0  0  0  0
  185.4240  179.0270  144.1090 C   0  0  0  0  0  3  0  0  0  0  0  0
  187.3190  177.1960  143.1210 C   0  0  0  0  0  0  0  0  0  0  0  0
  189.7080  176.8300  144.6420 C   0  0  1  0  0  3  0  0  0  0  0  0
  190.6760  177.1420  147.9940 O   0  0  0  0  0  0  0  0  0  0  0  0
  190.6490  176.4980  145.7120 N   0  0  0  0  0  0  0  0  0  0  0  0
  194.1640  175.3730  146.1380 C   0  0  0  0  0  2  0  0  0  0  0  0
  191.2580  173.6290  144.7090 C   0  0  0  0  0  1  0  0  0  0  0  0
  186.3990  178.5110  144.9620 C   0  0  0  0  0  3  0  0  0  0  0  0
  187.3620  177.6230  144.4680 C   0  0  0  0  0  0  0  0  0  0  0  0
  191.7480  174.6680  143.7000 C   0  0  2  0  0  3  0  0  0  0  0  0
  188.5030  173.3680  140.1470 C   0  0  0  0  0  2  0  0  0  0  0  0
  189.5080  173.7910  137.9260 C   0  0  0  0  0  1  0  0  0  0  0  0
  188.3790  174.1660  138.8610 C   0  0  0  0  0  2  0  0  0  0  0  0
  1  5  1  1  0  0  0
  1 19  1  0  0  0  0
  1  4  1  0  0  0  0
  2 13  2  0  0  0  0
  2 19  1  0  0  0  0
  3 10  1  0  0  0  0
  4 20  1  0  0  0  0
  6  8  2  0  0  0  0
  7 15  1  0  0  0  0
  7  9  1  0  0  0  0
  8 12  1  0  0  0  0
  9 22  1  0  0  0  0
  9 14  1  0  0  0  0
 10 21  2  0  0  0  0
 11  8  1  0  0  0  0
 11  5  1  0  0  0  0
 12  4  1  0  0  0  0
 12 27  1  0  0  0  0
 13 18  1  0  0  0  0
 15 23  1  0  0  0  0
 16  2  1  0  0  0  0
 17  3  1  0  0  0  0
 18 25  2  0  0  0  0
 19 26  2  0  0  0  0
 20 17  1  0  0  0  0
 20 22  1  0  0  0  0
 22 10  1  0  0  0  0
 23 14  1  0  0  0  0
 26 25  1  0  0  0  0
 26 17  1  0  0  0  0
 27  7  1  0  0  0  0
 27 24  1  0  0  0  0
 28 11  1  0  0  0  0
 29 30  1  0  0  0  0
 30 28  1  0  0  0  0
M  END
>  <MODEL>
3

>  <REMARK>
 VINA RESULT:      -8.6      1.568      2.106
  Name = 
  2 active torsions:
  status: ('A' for Active; 'I' for Inactive)
    1  A    between atoms: N_11  and  C_28
    2  A    between atoms: C_28  and  C_30
                            x       y       z     vdW  Elec       q    Type
                         _______ _______ _______ _____ _____    ______ ____

>  <TORSDO>
F 2

$$$$
=
 OpenBabel11112416143D

 30 35  0  0  1  0  0  0  0  0999 V2000
  187.7350  175.9780  142.1410 C   0  0  1  0  0  3  0  0  0  0  0  0
  189.5350  174.3890  141.2720 C   0  0  0  0  0  0  0  0  0  0  0  0
  190.0830  176.5880  145.7580 C   0  0  0  0  0  2  0  0  0  0  0  0
  187.3620  176.9500  143.2840 C   0  0  1  0  0  3  0  0  0  0  0  0
  187.5320  176.7220  140.8260 C   0  0  0  0  0  2  0  0  0  0  0  0
  184.1700  177.9160  141.7470 O   0  0  0  0  0  0  0  0  0  0  0  0
  185.1910  177.3970  145.6800 C   0  0  1  0  0  3  0  0  0  0  0  0
  185.3450  177.4760  141.8870 C   0  0  0  0  0  0  0  0  0  0  0  0
  186.4600  177.3090  146.5290 C   0  0  2  0  0  3  0  0  0  0  0  0
  188.9790  177.2510  146.4920 C   0  0  0  0  0  0  0  0  0  0  0  0
  186.1620  177.2280  140.7200 N   0  0  0  0  0  0  0  0  0  0  0  0
  185.8410  177.1130  143.2700 C   0  0  2  0  0  3  0  0  0  0  0  0
  190.7700  173.7480  141.4070 C   0  0  0  0  0  3  0  0  0  0  0  0
  186.3780  178.4920  147.4740 C   0  0  0  0  0  2  0  0  0  0  0  0
  184.1710  178.1390  146.5300 C   0  0  0  0  0  2  0  0  0  0  0  0
  188.7370  174.0900  140.1750 O   0  0  0  0  0  1  0  0  0  0  0  0
  189.4620  176.5400  144.3820 C   0  0  2  0  0  3  0  0  0  0  0  0
  191.5850  174.0060  142.5110 C   0  0  0  0  0  3  0  0  0  0  0  0
  189.1100  175.3190  142.2430 C   0  0  0  0  0  0  0  0  0  0  0  0
  187.9620  176.4510  144.6000 C   0  0  1  0  0  3  0  0  0  0  0  0
  189.1220  177.7020  147.6590 O   0  0  0  0  0  0  0  0  0  0  0  0
  187.7310  177.2730  145.7880 N   0  0  0  0  0  0  0  0  0  0  0  0
  184.9020  178.6660  147.7530 C   0  0  0  0  0  2  0  0  0  0  0  0
  186.0450  179.4350  144.3430 C   0  0  0  0  0  1  0  0  0  0  0  0
  191.1640  174.8990  143.4960 C   0  0  0  0  0  3  0  0  0  0  0  0
  189.9210  175.5320  143.3820 C   0  0  0  0  0  0  0  0  0  0  0  0
  185.3230  178.0880  144.3220 C   0  0  2  0  0  3  0  0  0  0  0  0
  185.6540  177.5050  139.3840 C   0  0  0  0  0  2  0  0  0  0  0  0
  186.1380  176.0440  137.4460 C   0  0  0  0  0  1  0  0  0  0  0  0
  186.6910  177.1340  138.3390 C   0  0  0  0  0  2  0  0  0  0  0  0
  1  5  1  6  0  0  0
  1 19  1  0  0  0  0
  1  4  1  0  0  0  0
  2 13  2  0  0  0  0
  2 19  1  0  0  0  0
  3 10  1  0  0  0  0
  4 20  1  0  0  0  0
  6  8  2  0  0  0  0
  7  9  1  0  0  0  0
  7 15  1  0  0  0  0
  8 12  1  0  0  0  0
  9 14  1  0  0  0  0
 10 21  2  0  0  0  0
 11  5  1  0  0  0  0
 11  8  1  0  0  0  0
 12  4  1  0  0  0  0
 12 27  1  0  0  0  0
 13 18  1  0  0  0  0
 14 23  1  0  0  0  0
 15 23  1  0  0  0  0
 16  2  1  0  0  0  0
 17 20  1  0  0  0  0
 17  3  1  0  0  0  0
 18 25  2  0  0  0  0
 19 26  2  0  0  0  0
 20 22  1  0  0  0  0
 22 10  1  0  0  0  0
 22  9  1  0  0  0  0
 26 25  1  0  0  0  0
 26 17  1  0  0  0  0
 27 24  1  0  0  0  0
 27  7  1  0  0  0  0
 28 11  1  0  0  0  0
 29 30  1  0  0  0  0
 30 28  1  0  0  0  0
M  END
>  <MODEL>
4

>  <REMARK>
 VINA RESULT:      -8.3      1.965      5.025
  Name = 
  2 active torsions:
  status: ('A' for Active; 'I' for Inactive)
    1  A    between atoms: N_11  and  C_28
    2  A    between atoms: C_28  and  C_30
                            x       y       z     vdW  Elec       q    Type
                         _______ _______ _______ _____ _____    ______ ____

>  <TORSDO>
F 2

$$$$
=
 OpenBabel11112416143D

 30 35  0  0  1  0  0  0  0  0999 V2000
  186.6550  177.7920  143.8250 C   0  0  1  0  0  3  0  0  0  0  0  0
  185.7320  179.3080  145.6590 C   0  0  0  0  0  0  0  0  0  0  0  0
  188.5750  175.3460  146.8750 C   0  0  0  0  0  2  0  0  0  0  0  0
  187.4460  176.4920  143.5480 C   0  0  1  0  0  3  0  0  0  0  0  0
  185.3670  177.7220  143.0130 C   0  0  0  0  0  2  0  0  0  0  0  0
  187.0990  176.7700  139.9040 O   0  0  0  0  0  0  0  0  0  0  0  0
  190.2050  175.3950  142.1920 C   0  0  1  0  0  3  0  0  0  0  0  0
  186.8940  176.9250  141.1400 C   0  0  0  0  0  0  0  0  0  0  0  0
  190.4450  174.9190  143.6260 C   0  0  2  0  0  3  0  0  0  0  0  0
  189.4180  174.6080  145.9060 C   0  0  0  0  0  0  0  0  0  0  0  0
  185.6570  177.5220  141.5920 N   0  0  0  0  0  0  0  0  0  0  0  0
  187.9920  176.5820  142.1220 C   0  0  2  0  0  3  0  0  0  0  0  0
  185.5670  179.6370  147.0080 C   0  0  0  0  0  3  0  0  0  0  0  0
  190.8790  173.4730  143.4880 C   0  0  0  0  0  2  0  0  0  0  0  0
  191.0870  174.5240  141.3100 C   0  0  0  0  0  2  0  0  0  0  0  0
  185.2230  180.1650  144.6910 O   0  0  0  0  0  1  0  0  0  0  0  0
  187.6720  176.0720  145.9050 C   0  0  2  0  0  3  0  0  0  0  0  0
  186.0890  178.8110  148.0070 C   0  0  0  0  0  3  0  0  0  0  0  0
  186.4120  178.1280  145.2960 C   0  0  0  0  0  0  0  0  0  0  0  0
  188.4920  176.2840  144.6450 C   0  0  1  0  0  3  0  0  0  0  0  0
  190.1990  173.6840  146.2590 O   0  0  0  0  0  0  0  0  0  0  0  0
  189.3150  175.0770  144.5550 N   0  0  0  0  0  0  0  0  0  0  0  0
  191.6510  173.4210  142.1890 C   0  0  0  0  0  2  0  0  0  0  0  0
  188.0320  174.0230  141.9390 C   0  0  0  0  0  1  0  0  0  0  0  0
  186.7920  177.6570  147.6620 C   0  0  0  0  0  3  0  0  0  0  0  0
  186.9810  177.3290  146.3140 C   0  0  0  0  0  0  0  0  0  0  0  0
  188.7640  175.3410  141.6860 C   0  0  2  0  0  3  0  0  0  0  0  0
  184.6320  177.9240  140.6380 C   0  0  0  0  0  2  0  0  0  0  0  0
  182.1610  177.9160  140.5100 C   0  0  0  0  0  1  0  0  0  0  0  0
  183.3510  178.2910  141.3660 C   0  0  0  0  0  2  0  0  0  0  0  0
  1  5  1  6  0  0  0
  1 19  1  0  0  0  0
  2 13  1  0  0  0  0
  4  1  1  0  0  0  0
  4 20  1  0  0  0  0
  6  8  2  0  0  0  0
  7  9  1  0  0  0  0
  8 11  1  0  0  0  0
  8 12  1  0  0  0  0
  9 22  1  0  0  0  0
 10 21  2  0  0  0  0
 10  3  1  0  0  0  0
 11  5  1  0  0  0  0
 12  4  1  0  0  0  0
 13 18  2  0  0  0  0
 14  9  1  0  0  0  0
 15 23  1  0  0  0  0
 15  7  1  0  0  0  0
 16  2  1  0  0  0  0
 17 26  1  0  0  0  0
 17  3  1  0  0  0  0
 19  2  2  0  0  0  0
 19 26  1  0  0  0  0
 20 17  1  0  0  0  0
 22 20  1  0  0  0  0
 22 10  1  0  0  0  0
 23 14  1  0  0  0  0
 25 18  1  0  0  0  0
 26 25  2  0  0  0  0
 27 24  1  0  0  0  0
 27 12  1  0  0  0  0
 27  7  1  0  0  0  0
 28 30  1  0  0  0  0
 28 11  1  0  0  0  0
 29 30  1  0  0  0  0
M  END
>  <MODEL>
5

>  <REMARK>
 VINA RESULT:      -8.2      2.166      4.716
  Name = 
  2 active torsions:
  status: ('A' for Active; 'I' for Inactive)
    1  A    between atoms: N_11  and  C_28
    2  A    between atoms: C_28  and  C_30
                            x       y       z     vdW  Elec       q    Type
                         _______ _______ _______ _____ _____    ______ ____

>  <TORSDO>
F 2

$$$$
=
 OpenBabel11112416143D

 30 35  0  0  1  0  0  0  0  0999 V2000
  189.2370  175.6730  144.7980 C   0  0  1  0  0  3  0  0  0  0  0  0
  187.5590  177.3590  145.7260 C   0  0  0  0  0  0  0  0  0  0  0  0
  187.5000  176.1910  140.8380 C   0  0  0  0  0  2  0  0  0  0  0  0
  189.7600  175.0010  143.5080 C   0  0  1  0  0  3  0  0  0  0  0  0
  190.4450  176.2230  145.5470 C   0  0  0  0  0  2  0  0  0  0  0  0
  192.3460  173.0790  145.2690 O   0  0  0  0  0  0  0  0  0  0  0  0
  190.0230  172.0960  142.0420 C   0  0  1  0  0  3  0  0  0  0  0  0
  191.4850  173.9650  145.0060 C   0  0  0  0  0  0  0  0  0  0  0  0
  189.1530  172.8040  141.0010 C   0  0  2  0  0  3  0  0  0  0  0  0
  188.1870  175.0110  140.2630 C   0  0  0  0  0  0  0  0  0  0  0  0
  191.4200  175.1640  145.8110 N   0  0  0  0  0  0  0  0  0  0  0  0
  190.4650  173.7070  143.9180 C   0  0  2  0  0  3  0  0  0  0  0  0
  186.5080  178.2640  145.5490 C   0  0  0  0  0  3  0  0  0  0  0  0
  189.8230  172.5120  139.6730 C   0  0  0  0  0  2  0  0  0  0  0  0
  190.7020  170.9500  141.3080 C   0  0  0  0  0  2  0  0  0  0  0  0
  188.0210  177.1070  147.0120 O   0  0  0  0  0  1  0  0  0  0  0  0
  188.2160  176.2650  142.1660 C   0  0  2  0  0  3  0  0  0  0  0  0
  186.0020  178.5210  144.2720 C   0  0  0  0  0  3  0  0  0  0  0  0
  188.1310  176.7120  144.6120 C   0  0  0  0  0  0  0  0  0  0  0  0
  188.6110  174.8400  142.5100 C   0  0  1  0  0  3  0  0  0  0  0  0
  188.0700  174.6860  139.0520 O   0  0  0  0  0  0  0  0  0  0  0  0
  188.9380  174.2440  141.2140 N   0  0  0  0  0  0  0  0  0  0  0  0
  190.4100  171.1270  139.8280 C   0  0  0  0  0  2  0  0  0  0  0  0
  191.9450  173.8070  141.8240 C   0  0  0  0  0  1  0  0  0  0  0  0
  186.5370  177.8640  143.1650 C   0  0  0  0  0  3  0  0  0  0  0  0
  187.5760  176.9410  143.3320 C   0  0  0  0  0  0  0  0  0  0  0  0
  191.0790  172.9490  142.7460 C   0  0  2  0  0  3  0  0  0  0  0  0
  192.3550  175.3750  146.9080 C   0  0  0  0  0  2  0  0  0  0  0  0
  194.7070  175.6470  146.1890 C   0  0  0  0  0  1  0  0  0  0  0  0
  193.4200  176.3790  146.5060 C   0  0  0  0  0  2  0  0  0  0  0  0
  1  5  1  6  0  0  0
  2 16  1  0  0  0  0
  3 17  1  0  0  0  0
  4 12  1  0  0  0  0
  4  1  1  0  0  0  0
  5 11  1  0  0  0  0
  7 27  1  0  0  0  0
  8  6  2  0  0  0  0
  8 11  1  0  0  0  0
  9 22  1  0  0  0  0
  9  7  1  0  0  0  0
 10  3  1  0  0  0  0
 10 22  1  0  0  0  0
 11 28  1  0  0  0  0
 12  8  1  0  0  0  0
 13  2  1  0  0  0  0
 14 23  1  0  0  0  0
 14  9  1  0  0  0  0
 15  7  1  0  0  0  0
 17 20  1  0  0  0  0
 17 26  1  0  0  0  0
 18 13  2  0  0  0  0
 19  1  1  0  0  0  0
 19  2  2  0  0  0  0
 20  4  1  0  0  0  0
 21 10  2  0  0  0  0
 22 20  1  0  0  0  0
 23 15  1  0  0  0  0
 24 27  1  0  0  0  0
 25 26  2  0  0  0  0
 25 18  1  0  0  0  0
 26 19  1  0  0  0  0
 27 12  1  0  0  0  0
 29 30  1  0  0  0  0
 30 28  1  0  0  0  0
M  END
>  <MODEL>
6

>  <REMARK>
 VINA RESULT:      -7.8      1.856      5.734
  Name = 
  2 active torsions:
  status: ('A' for Active; 'I' for Inactive)
    1  A    between atoms: N_11  and  C_28
    2  A    between atoms: C_28  and  C_30
                            x       y       z     vdW  Elec       q    Type
                         _______ _______ _______ _____ _____    ______ ____

>  <TORSDO>
F 2

$$$$
=
 OpenBabel11112416143D

 30 35  0  0  1  0  0  0  0  0999 V2000
  189.9800  174.7380  144.0590 C   0  0  1  0  0  3  0  0  0  0  0  0
  192.1270  173.3770  144.3020 C   0  0  0  0  0  0  0  0  0  0  0  0
  191.1430  177.1090  147.5220 C   0  0  0  0  0  2  0  0  0  0  0  0
  189.1920  175.9510  144.6060 C   0  0  1  0  0  3  0  0  0  0  0  0
  190.0620  174.8940  142.5450 C   0  0  0  0  0  2  0  0  0  0  0  0
  186.4590  175.5740  142.1830 O   0  0  0  0  0  0  0  0  0  0  0  0
  186.4050  176.7460  146.1070 C   0  0  1  0  0  3  0  0  0  0  0  0
  187.5930  175.4830  142.7300 C   0  0  0  0  0  0  0  0  0  0  0  0
  187.3900  177.2490  147.1630 C   0  0  2  0  0  3  0  0  0  0  0  0
  189.8090  177.7340  147.6780 C   0  0  0  0  0  0  0  0  0  0  0  0
  188.7250  175.0150  141.9610 N   0  0  0  0  0  0  0  0  0  0  0  0
  187.7260  175.7610  144.2110 C   0  0  2  0  0  3  0  0  0  0  0  0
  193.3440  173.1140  144.9380 C   0  0  0  0  0  3  0  0  0  0  0  0
  186.9080  178.6450  147.5100 C   0  0  0  0  0  2  0  0  0  0  0  0
  185.1080  177.5020  146.3520 C   0  0  0  0  0  2  0  0  0  0  0  0
  191.7060  172.5360  143.2800 O   0  0  0  0  0  1  0  0  0  0  0  0
  190.9390  176.4330  146.1870 C   0  0  2  0  0  3  0  0  0  0  0  0
  193.7840  173.9250  145.9870 C   0  0  0  0  0  3  0  0  0  0  0  0
  191.3420  174.4780  144.7020 C   0  0  0  0  0  0  0  0  0  0  0  0
  189.4590  176.1030  146.1050 C   0  0  1  0  0  3  0  0  0  0  0  0
  189.5680  178.5950  148.5640 O   0  0  0  0  0  0  0  0  0  0  0  0
  188.8110  177.2270  146.7820 N   0  0  0  0  0  0  0  0  0  0  0  0
  185.4040  178.5810  147.3800 C   0  0  0  0  0  2  0  0  0  0  0  0
  187.3460  178.2980  144.2700 C   0  0  0  0  0  1  0  0  0  0  0  0
  193.0030  174.9980  146.4160 C   0  0  0  0  0  3  0  0  0  0  0  0
  191.7740  175.2590  145.7990 C   0  0  0  0  0  0  0  0  0  0  0  0
  186.8240  176.9110  144.6460 C   0  0  2  0  0  3  0  0  0  0  0  0
  188.5780  174.6740  140.5530 C   0  0  0  0  0  2  0  0  0  0  0  0
  188.2990  172.8360  138.9190 C   0  0  0  0  0  1  0  0  0  0  0  0
  188.4420  173.1710  140.3880 C   0  0  0  0  0  2  0  0  0  0  0  0
  1  5  1  6  0  0  0
  1  4  1  0  0  0  0
  1 19  1  0  0  0  0
  2 19  2  0  0  0  0
  2 13  1  0  0  0  0
  3 10  1  0  0  0  0
  4 20  1  0  0  0  0
  6  8  2  0  0  0  0
  7 15  1  0  0  0  0
  7  9  1  0  0  0  0
  8 12  1  0  0  0  0
  9 14  1  0  0  0  0
 10 21  2  0  0  0  0
 11  5  1  0  0  0  0
 11  8  1  0  0  0  0
 12  4  1  0  0  0  0
 12 27  1  0  0  0  0
 13 18  2  0  0  0  0
 15 23  1  0  0  0  0
 16  2  1  0  0  0  0
 17  3  1  0  0  0  0
 18 25  1  0  0  0  0
 19 26  1  0  0  0  0
 20 17  1  0  0  0  0
 20 22  1  0  0  0  0
 22  9  1  0  0  0  0
 22 10  1  0  0  0  0
 23 14  1  0  0  0  0
 24 27  1  0  0  0  0
 26 17  1  0  0  0  0
 26 25  2  0  0  0  0
 27  7  1  0  0  0  0
 28 11  1  0  0  0  0
 29 30  1  0  0  0  0
 30 28  1  0  0  0  0
M  END
>  <MODEL>
7

>  <REMARK>
 VINA RESULT:      -7.8      2.014      5.494
  Name = 
  2 active torsions:
  status: ('A' for Active; 'I' for Inactive)
    1  A    between atoms: N_11  and  C_28
    2  A    between atoms: C_28  and  C_30
                            x       y       z     vdW  Elec       q    Type
                         _______ _______ _______ _____ _____    ______ ____

>  <TORSDO>
F 2

$$$$
=
 OpenBabel11112416143D

 30 35  0  0  1  0  0  0  0  0999 V2000
  189.4920  175.2530  142.8680 C   0  0  1  0  0  3  0  0  0  0  0  0
  187.1940  176.1710  143.4960 C   0  0  0  0  0  0  0  0  0  0  0  0
  191.0350  176.6190  146.7060 C   0  0  0  0  0  2  0  0  0  0  0  0
  190.9320  175.0120  143.3800 C   0  0  1  0  0  3  0  0  0  0  0  0
  188.9860  173.9340  142.2970 C   0  0  0  0  0  2  0  0  0  0  0  0
  192.0170  173.3730  140.2790 O   0  0  0  0  0  0  0  0  0  0  0  0
  194.0360  175.8600  142.8320 C   0  0  1  0  0  3  0  0  0  0  0  0
  191.2780  173.8280  141.1950 C   0  0  0  0  0  0  0  0  0  0  0  0
  193.9010  176.3830  144.2630 C   0  0  2  0  0  3  0  0  0  0  0  0
  192.4540  176.4270  146.3260 C   0  0  0  0  0  0  0  0  0  0  0  0
  189.8860  173.4390  141.2540 N   0  0  0  0  0  0  0  0  0  0  0  0
  191.8340  174.8580  142.1550 C   0  0  2  0  0  3  0  0  0  0  0  0
  186.3310  176.7960  144.4010 C   0  0  0  0  0  3  0  0  0  0  0  0
  195.1280  175.8610  144.9840 C   0  0  0  0  0  2  0  0  0  0  0  0
  195.5250  175.6610  142.5980 C   0  0  0  0  0  2  0  0  0  0  0  0
  186.7240  175.8540  142.2270 O   0  0  0  0  0  1  0  0  0  0  0  0
  190.3760  175.9430  145.5270 C   0  0  2  0  0  3  0  0  0  0  0  0
  186.7780  177.1520  145.6750 C   0  0  0  0  0  3  0  0  0  0  0  0
  188.5200  175.8770  143.8700 C   0  0  0  0  0  0  0  0  0  0  0  0
  191.3240  176.1250  144.3540 C   0  0  1  0  0  3  0  0  0  0  0  0
  193.4020  176.6460  147.1260 O   0  0  0  0  0  0  0  0  0  0  0  0
  192.6530  176.0360  144.9600 N   0  0  0  0  0  0  0  0  0  0  0  0
  196.2190  175.8490  143.9370 C   0  0  0  0  0  2  0  0  0  0  0  0
  193.4830  173.4290  143.5050 C   0  0  0  0  0  1  0  0  0  0  0  0
  188.0970  176.8960  146.0490 C   0  0  0  0  0  3  0  0  0  0  0  0
  188.9760  176.2900  145.1440 C   0  0  0  0  0  0  0  0  0  0  0  0
  193.2900  174.5670  142.5020 C   0  0  2  0  0  3  0  0  0  0  0  0
  189.3330  172.5070  140.2810 C   0  0  0  0  0  2  0  0  0  0  0  0
  188.6560  173.9930  138.4220 C   0  0  0  0  0  1  0  0  0  0  0  0
  188.1520  173.1350  139.5630 C   0  0  0  0  0  2  0  0  0  0  0  0
  1  5  1  1  0  0  0
  1  4  1  0  0  0  0
  1 19  1  0  0  0  0
  2 19  2  0  0  0  0
  2 13  1  0  0  0  0
  4 20  1  0  0  0  0
  6  8  2  0  0  0  0
  7  9  1  0  0  0  0
  8 11  1  0  0  0  0
  8 12  1  0  0  0  0
  9 22  1  0  0  0  0
  9 14  1  0  0  0  0
 10  3  1  0  0  0  0
 10 21  2  0  0  0  0
 11  5  1  0  0  0  0
 12 27  1  0  0  0  0
 12  4  1  0  0  0  0
 13 18  2  0  0  0  0
 15  7  1  0  0  0  0
 15 23  1  0  0  0  0
 16  2  1  0  0  0  0
 17  3  1  0  0  0  0
 18 25  1  0  0  0  0
 19 26  1  0  0  0  0
 20 22  1  0  0  0  0
 20 17  1  0  0  0  0
 22 10  1  0  0  0  0
 23 14  1  0  0  0  0
 26 17  1  0  0  0  0
 26 25  2  0  0  0  0
 27  7  1  0  0  0  0
 27 24  1  0  0  0  0
 28 11  1  0  0  0  0
 29 30  1  0  0  0  0
 30 28  1  0  0  0  0
M  END
>  <MODEL>
8

>  <REMARK>
 VINA RESULT:      -7.4      2.614      3.887
  Name = 
  2 active torsions:
  status: ('A' for Active; 'I' for Inactive)
    1  A    between atoms: N_11  and  C_28
    2  A    between atoms: C_28  and  C_30
                            x       y       z     vdW  Elec       q    Type
                         _______ _______ _______ _____ _____    ______ ____

>  <TORSDO>
F 2

$$$$
=
 OpenBabel11112416143D

 30 35  0  0  1  0  0  0  0  0999 V2000
  188.8530  176.3280  145.0940 C   0  0  1  0  0  3  0  0  0  0  0  0
  190.1490  177.1230  147.1440 C   0  0  0  0  0  0  0  0  0  0  0  0
  191.6740  173.0410  144.6400 C   0  0  0  0  0  2  0  0  0  0  0  0
  188.7470  175.2120  144.0290 C   0  0  1  0  0  3  0  0  0  0  0  0
  187.4670  176.5080  145.7030 C   0  0  0  0  0  2  0  0  0  0  0  0
  185.7910  176.6870  142.4270 O   0  0  0  0  0  0  0  0  0  0  0  0
  188.9820  174.6880  140.8150 C   0  0  1  0  0  3  0  0  0  0  0  0
  186.6750  176.4150  143.2870 C   0  0  0  0  0  0  0  0  0  0  0  0
  190.1080  173.7650  141.2850 C   0  0  2  0  0  3  0  0  0  0  0  0
  191.2090  172.6870  143.2790 C   0  0  0  0  0  0  0  0  0  0  0  0
  186.4770  176.8020  144.6660 N   0  0  0  0  0  0  0  0  0  0  0  0
  187.9760  175.7850  142.8390 C   0  0  2  0  0  3  0  0  0  0  0  0
  191.1890  176.9770  148.0680 C   0  0  0  0  0  3  0  0  0  0  0  0
  189.8670  172.4570  140.5550 C   0  0  0  0  0  2  0  0  0  0  0  0
  188.5720  174.1810  139.4420 C   0  0  0  0  0  2  0  0  0  0  0  0
  189.3330  178.2440  147.2220 O   0  0  0  0  0  1  0  0  0  0  0  0
  190.5960  174.0310  145.0140 C   0  0  2  0  0  3  0  0  0  0  0  0
  192.0450  175.8750  148.0010 C   0  0  0  0  0  3  0  0  0  0  0  0
  189.9450  176.1470  146.1490 C   0  0  0  0  0  0  0  0  0  0  0  0
  190.1420  174.6690  143.7130 C   0  0  1  0  0  3  0  0  0  0  0  0
  191.6850  171.7150  142.6350 O   0  0  0  0  0  0  0  0  0  0  0  0
  190.2250  173.5800  142.7400 N   0  0  0  0  0  0  0  0  0  0  0  0
  189.2860  172.8590  139.2190 C   0  0  0  0  0  2  0  0  0  0  0  0
  187.1800  173.4370  142.1780 C   0  0  0  0  0  1  0  0  0  0  0  0
  191.8750  174.9180  147.0010 C   0  0  0  0  0  3  0  0  0  0  0  0
  190.8500  175.0650  146.0600 C   0  0  0  0  0  0  0  0  0  0  0  0
  187.7500  174.7780  141.7160 C   0  0  2  0  0  3  0  0  0  0  0  0
  185.2560  177.4790  145.0810 C   0  0  0  0  0  2  0  0  0  0  0  0
  185.5640  179.7920  144.2580 C   0  0  0  0  0  1  0  0  0  0  0  0
  185.5600  178.9090  145.4880 C   0  0  0  0  0  2  0  0  0  0  0  0
  1  5  1  1  0  0  0
  1 19  1  0  0  0  0
  2 16  1  0  0  0  0
  2 13  1  0  0  0  0
  3 17  1  0  0  0  0
  4  1  1  0  0  0  0
  6  8  2  0  0  0  0
  7  9  1  0  0  0  0
  7 27  1  0  0  0  0
  8 11  1  0  0  0  0
  9 22  1  0  0  0  0
 10  3  1  0  0  0  0
 11 28  1  0  0  0  0
 11  5  1  0  0  0  0
 12  8  1  0  0  0  0
 12  4  1  0  0  0  0
 14  9  1  0  0  0  0
 15  7  1  0  0  0  0
 17 26  1  0  0  0  0
 18 13  2  0  0  0  0
 19  2  2  0  0  0  0
 20  4  1  0  0  0  0
 20 17  1  0  0  0  0
 21 10  2  0  0  0  0
 22 10  1  0  0  0  0
 22 20  1  0  0  0  0
 23 15  1  0  0  0  0
 23 14  1  0  0  0  0
 25 18  1  0  0  0  0
 26 19  1  0  0  0  0
 26 25  2  0  0  0  0
 27 24  1  0  0  0  0
 27 12  1  0  0  0  0
 28 30  1  0  0  0  0
 29 30  1  0  0  0  0
M  END
>  <MODEL>
9

>  <REMARK>
 VINA RESULT:      -7.3      1.847      6.714
  Name = 
  2 active torsions:
  status: ('A' for Active; 'I' for Inactive)
    1  A    between atoms: N_11  and  C_28
    2  A    between atoms: C_28  and  C_30
                            x       y       z     vdW  Elec       q    Type
                         _______ _______ _______ _____ _____    ______ ____

>  <TORSDO>
F 2

$$$$
