=
 OpenBabel11112416283D

 32 37  0  0  1  0  0  0  0  0999 V2000
  195.3310  175.6280  145.0410 C   0  0  0  0  0  2  0  0  0  0  0  0
  190.0000  176.0080  145.2710 C   0  0  1  0  0  3  0  0  0  0  0  0
  188.5880  174.9180  140.6380 C   0  0  0  0  0  3  0  0  0  0  0  0
  187.4360  175.6870  140.7960 C   0  0  0  0  0  3  0  0  0  0  0  0
  188.5460  177.5530  146.6260 C   0  0  0  0  0  0  0  0  0  0  0  0
  187.1550  177.9550  146.7850 C   0  0  0  0  0  0  0  0  0  0  0  0
  192.2500  175.2860  145.9650 N   0  0  1  0  0  0  0  0  0  0  0  0
  191.3370  174.4350  143.8500 C   0  0  0  0  0  2  0  0  0  0  0  0
  185.1320  178.5290  146.1820 N   0  0  0  0  0  0  0  0  0  0  0  0
  193.6390  173.7910  144.4970 C   0  0  0  0  0  2  0  0  0  0  0  0
  189.5210  174.8450  141.6720 C   0  0  0  0  0  3  0  0  0  0  0  0
  190.2760  175.4410  143.9430 N   0  0  0  0  0  0  0  0  0  0  0  0
  189.3180  175.5400  142.8770 C   0  0  0  0  0  0  0  0  0  0  0  0
  187.9490  177.0650  144.2520 N   0  0  0  0  0  0  0  0  0  0  0  0
  185.1880  178.6490  147.5020 N   0  0  0  0  0  0  0  0  0  0  0  0
  194.4670  176.5090  145.9610 C   0  0  0  0  0  2  0  0  0  0  0  0
  192.5900  174.9080  144.5780 C   0  0  2  0  0  3  0  0  0  0  0  0
  186.4310  178.3030  147.9140 C   0  0  0  0  0  3  0  0  0  0  0  0
  193.4070  175.7300  146.7610 C   0  0  0  0  0  2  0  0  0  0  0  0
  194.9940  174.1330  145.1260 C   0  0  1  0  0  3  0  0  0  0  0  0
  187.2280  176.3870  141.9860 C   0  0  0  0  0  3  0  0  0  0  0  0
  188.1660  176.3290  143.0330 C   0  0  0  0  0  0  0  0  0  0  0  0
  186.7600  177.9370  144.3190 C   0  0  0  0  0  2  0  0  0  0  0  0
  191.3260  176.4170  145.9170 C   0  0  0  0  0  2  0  0  0  0  0  0
  189.3120  177.5420  147.6260 O   0  0  0  0  0  0  0  0  0  0  0  0
  183.9630  178.8510  145.3840 C   0  0  0  0  0  1  0  0  0  0  0  0
  189.0610  177.2320  145.2270 C   0  0  2  0  0  3  0  0  0  0  0  0
  186.3160  178.0960  145.7310 C   0  0  0  0  0  0  0  0  0  0  0  0
  196.0360  173.3460  144.4830 N   0  0  0  0  0  2  0  0  0  0  0  0
  196.9230  172.4980  145.2150 C   0  0  0  0  0  0  0  0  0  0  0  0
  196.8150  172.3820  146.4650 O   0  0  0  0  0  0  0  0  0  0  0  0
  197.9340  171.7750  144.5250 N   0  0  0  0  0  1  0  0  0  0  0  0
  1 20  1  0  0  0  0
  1 16  1  0  0  0  0
  2 24  1  6  0  0  0
  3  4  2  0  0  0  0
  3 11  1  0  0  0  0
  4 21  1  0  0  0  0
  5  6  1  0  0  0  0
  5 25  2  0  0  0  0
  6 18  1  0  0  0  0
  7 24  1  6  0  0  0
  7 19  1  0  0  0  0
  8 12  1  0  0  0  0
  9 15  1  0  0  0  0
 10 17  1  0  0  0  0
 10 20  1  0  0  0  0
 11 13  2  0  0  0  0
 12  2  1  0  0  0  0
 13 22  1  0  0  0  0
 13 12  1  0  0  0  0
 14 23  1  0  0  0  0
 14 27  1  0  0  0  0
 15 18  2  0  0  0  0
 16 19  1  0  0  0  0
 17  8  1  1  0  0  0
 17  7  1  0  0  0  0
 20 29  1  6  0  0  0
 21 22  2  0  0  0  0
 22 14  1  0  0  0  0
 23 28  1  0  0  0  0
 26  9  1  0  0  0  0
 27  2  1  0  0  0  0
 27  5  1  1  0  0  0
 28  9  1  0  0  0  0
 28  6  2  0  0  0  0
 29 30  1  0  0  0  0
 30 31  2  0  0  0  0
 32 30  1  0  0  0  0
M  END
>  <MODEL>
1

>  <REMARK>
 VINA RESULT:      -8.4      0.000      0.000
  Name = 
  1 active torsions:
  status: ('A' for Active; 'I' for Inactive)
    1  A    between atoms: C_20  and  N_29
                            x       y       z     vdW  Elec       q    Type
                         _______ _______ _______ _____ _____    ______ ____

>  <TORSDO>
F 1

$$$$
=
 OpenBabel11112416283D

 32 37  0  0  1  0  0  0  0  0999 V2000
  192.7040  173.6500  144.5890 C   0  0  0  0  0  2  0  0  0  0  0  0
  188.6050  176.9330  143.5700 C   0  0  1  0  0  3  0  0  0  0  0  0
  187.1060  178.3110  148.0970 C   0  0  0  0  0  3  0  0  0  0  0  0
  185.8140  178.5190  147.6180 C   0  0  0  0  0  3  0  0  0  0  0  0
  186.8980  176.8630  141.7210 C   0  0  0  0  0  0  0  0  0  0  0  0
  185.6620  177.5020  141.2910 C   0  0  0  0  0  0  0  0  0  0  0  0
  190.8860  176.0280  143.3620 N   0  0  1  0  0  0  0  0  0  0  0  0
  190.2280  177.0970  145.4720 C   0  0  0  0  0  2  0  0  0  0  0  0
  183.6640  178.3740  141.4740 N   0  0  0  0  0  0  0  0  0  0  0  0
  192.4860  176.0960  145.3000 C   0  0  0  0  0  2  0  0  0  0  0  0
  188.0950  177.8270  147.2400 C   0  0  0  0  0  3  0  0  0  0  0  0
  188.8370  177.0650  145.0150 N   0  0  0  0  0  0  0  0  0  0  0  0
  187.8060  177.5430  145.8940 C   0  0  0  0  0  0  0  0  0  0  0  0
  186.1780  177.4320  144.0420 N   0  0  0  0  0  0  0  0  0  0  0  0
  183.9570  178.3530  140.1800 N   0  0  0  0  0  0  0  0  0  0  0  0
  191.7410  173.6450  143.3890 C   0  0  0  0  0  2  0  0  0  0  0  0
  191.0310  175.9710  144.8310 C   0  0  2  0  0  3  0  0  0  0  0  0
  185.1910  177.8160  140.0270 C   0  0  0  0  0  3  0  0  0  0  0  0
  191.6530  174.9920  142.6490 C   0  0  0  0  0  2  0  0  0  0  0  0
  193.4210  174.9900  144.7970 C   0  0  1  0  0  3  0  0  0  0  0  0
  185.5150  178.2340  146.2850 C   0  0  0  0  0  3  0  0  0  0  0  0
  186.5000  177.7370  145.4120 C   0  0  0  0  0  0  0  0  0  0  0  0
  184.7710  177.5810  143.6230 C   0  0  0  0  0  2  0  0  0  0  0  0
  189.4820  175.7990  143.0310 C   0  0  0  0  0  2  0  0  0  0  0  0
  187.7160  176.4410  140.8600 O   0  0  0  0  0  0  0  0  0  0  0  0
  182.4040  178.8490  142.0160 C   0  0  0  0  0  1  0  0  0  0  0  0
  187.1320  176.6460  143.2120 C   0  0  2  0  0  3  0  0  0  0  0  0
  184.6950  177.8710  142.1650 C   0  0  0  0  0  0  0  0  0  0  0  0
  194.5240  174.8300  145.7330 N   0  0  0  0  0  2  0  0  0  0  0  0
  195.7940  174.3010  145.3450 C   0  0  0  0  0  0  0  0  0  0  0  0
  196.0130  173.9700  144.1490 O   0  0  0  0  0  0  0  0  0  0  0  0
  196.8190  174.1490  146.3180 N   0  0  0  0  0  1  0  0  0  0  0  0
  1 20  1  0  0  0  0
  2 24  1  1  0  0  0
  2 12  1  0  0  0  0
  4  3  1  0  0  0  0
  6  5  1  0  0  0  0
  6 28  2  0  0  0  0
  7 19  1  6  0  0  0
  7 17  1  0  0  0  0
  9 26  1  0  0  0  0
  9 28  1  0  0  0  0
 11  3  2  0  0  0  0
 12  8  1  0  0  0  0
 12 13  1  0  0  0  0
 13 11  1  0  0  0  0
 14 22  1  0  0  0  0
 15  9  1  0  0  0  0
 16  1  1  0  0  0  0
 17 10  1  6  0  0  0
 17  8  1  0  0  0  0
 18 15  2  0  0  0  0
 18  6  1  0  0  0  0
 19 16  1  0  0  0  0
 20 10  1  0  0  0  0
 20 29  1  1  0  0  0
 21  4  2  0  0  0  0
 22 13  2  0  0  0  0
 22 21  1  0  0  0  0
 23 14  1  0  0  0  0
 24  7  1  0  0  0  0
 25  5  2  0  0  0  0
 27  5  1  6  0  0  0
 27  2  1  0  0  0  0
 27 14  1  0  0  0  0
 28 23  1  0  0  0  0
 30 29  1  0  0  0  0
 30 32  1  0  0  0  0
 31 30  2  0  0  0  0
M  END
>  <MODEL>
2

>  <REMARK>
 VINA RESULT:      -8.3      2.435      4.536
  Name = 
  1 active torsions:
  status: ('A' for Active; 'I' for Inactive)
    1  A    between atoms: C_20  and  N_29
                            x       y       z     vdW  Elec       q    Type
                         _______ _______ _______ _____ _____    ______ ____

>  <TORSDO>
F 1

$$$$
=
 OpenBabel11112416283D

 32 37  0  0  1  0  0  0  0  0999 V2000
  195.3010  175.3950  145.3910 C   0  0  0  0  0  2  0  0  0  0  0  0
  190.0150  175.6500  144.6090 C   0  0  1  0  0  3  0  0  0  0  0  0
  189.4560  173.7910  140.0400 C   0  0  0  0  0  3  0  0  0  0  0  0
  188.2950  174.5410  139.8640 C   0  0  0  0  0  3  0  0  0  0  0  0
  188.3410  177.3480  145.4150 C   0  0  0  0  0  0  0  0  0  0  0  0
  186.9440  177.7300  145.2580 C   0  0  0  0  0  0  0  0  0  0  0  0
  192.1040  175.1150  145.7980 N   0  0  1  0  0  0  0  0  0  0  0  0
  191.5850  173.9100  143.7230 C   0  0  0  0  0  2  0  0  0  0  0  0
  185.0620  178.1410  144.2220 N   0  0  0  0  0  0  0  0  0  0  0  0
  193.7340  173.4450  144.8620 C   0  0  0  0  0  2  0  0  0  0  0  0
  190.1890  173.9110  141.2200 C   0  0  0  0  0  3  0  0  0  0  0  0
  190.5250  174.8860  143.4620 N   0  0  0  0  0  0  0  0  0  0  0  0
  189.7730  174.7840  142.2410 C   0  0  0  0  0  0  0  0  0  0  0  0
  188.1790  176.4700  143.0850 N   0  0  0  0  0  0  0  0  0  0  0  0
  184.8800  178.4720  145.4930 N   0  0  0  0  0  0  0  0  0  0  0  0
  194.2860  176.3860  145.9870 C   0  0  0  0  0  2  0  0  0  0  0  0
  192.6870  174.5300  144.5740 C   0  0  2  0  0  3  0  0  0  0  0  0
  186.0300  178.2330  146.1690 C   0  0  0  0  0  3  0  0  0  0  0  0
  193.1000  175.7150  146.7030 C   0  0  0  0  0  2  0  0  0  0  0  0
  194.9540  173.9240  145.6570 C   0  0  1  0  0  3  0  0  0  0  0  0
  187.8760  175.4150  140.8680 C   0  0  0  0  0  3  0  0  0  0  0  0
  188.6110  175.5540  142.0600 C   0  0  0  0  0  0  0  0  0  0  0  0
  186.9980  177.3050  142.7980 C   0  0  0  0  0  2  0  0  0  0  0  0
  191.2040  176.1960  145.4040 C   0  0  0  0  0  2  0  0  0  0  0  0
  188.9150  177.5210  146.5240 O   0  0  0  0  0  0  0  0  0  0  0  0
  184.0540  178.2960  143.1880 C   0  0  0  0  0  1  0  0  0  0  0  0
  189.0990  176.8230  144.2010 C   0  0  2  0  0  3  0  0  0  0  0  0
  186.3080  177.6760  144.0640 C   0  0  0  0  0  0  0  0  0  0  0  0
  196.0940  173.0750  145.3450 N   0  0  0  0  0  2  0  0  0  0  0  0
  196.1150  171.6760  145.6330 C   0  0  0  0  0  0  0  0  0  0  0  0
  195.1160  171.1130  146.1560 O   0  0  0  0  0  0  0  0  0  0  0  0
  197.2730  170.9110  145.3240 N   0  0  0  0  0  1  0  0  0  0  0  0
  1 20  1  0  0  0  0
  1 16  1  0  0  0  0
  2 24  1  6  0  0  0
  3 11  1  0  0  0  0
  4  3  2  0  0  0  0
  4 21  1  0  0  0  0
  5 25  2  0  0  0  0
  6  5  1  0  0  0  0
  6 18  1  0  0  0  0
  7 24  1  6  0  0  0
  7 19  1  0  0  0  0
  9 15  1  0  0  0  0
 10 20  1  0  0  0  0
 11 13  2  0  0  0  0
 12  8  1  0  0  0  0
 12  2  1  0  0  0  0
 13 12  1  0  0  0  0
 14 27  1  0  0  0  0
 15 18  2  0  0  0  0
 16 19  1  0  0  0  0
 17  8  1  6  0  0  0
 17 10  1  0  0  0  0
 17  7  1  0  0  0  0
 20 29  1  6  0  0  0
 21 22  2  0  0  0  0
 22 13  1  0  0  0  0
 22 14  1  0  0  0  0
 23 14  1  0  0  0  0
 23 28  1  0  0  0  0
 26  9  1  0  0  0  0
 27  2  1  0  0  0  0
 27  5  1  1  0  0  0
 28  9  1  0  0  0  0
 28  6  2  0  0  0  0
 29 30  1  0  0  0  0
 30 31  2  0  0  0  0
 32 30  1  0  0  0  0
M  END
>  <MODEL>
3

>  <REMARK>
 VINA RESULT:      -8.1      1.094      1.307
  Name = 
  1 active torsions:
  status: ('A' for Active; 'I' for Inactive)
    1  A    between atoms: C_20  and  N_29
                            x       y       z     vdW  Elec       q    Type
                         _______ _______ _______ _____ _____    ______ ____

>  <TORSDO>
F 1

$$$$
=
 OpenBabel11112416283D

 32 37  0  0  1  0  0  0  0  0999 V2000
  189.7540  171.6550  139.3880 C   0  0  0  0  0  2  0  0  0  0  0  0
  188.7800  175.6970  142.7550 C   0  0  1  0  0  3  0  0  0  0  0  0
  192.0590  174.9440  146.4050 C   0  0  0  0  0  3  0  0  0  0  0  0
  191.2170  175.5870  147.3100 C   0  0  0  0  0  3  0  0  0  0  0  0
  186.6120  176.8430  143.3210 C   0  0  0  0  0  0  0  0  0  0  0  0
  186.0510  177.8220  144.2430 C   0  0  0  0  0  0  0  0  0  0  0  0
  189.2310  174.6130  140.5900 N   0  0  1  0  0  0  0  0  0  0  0  0
  190.9960  174.6200  142.2970 C   0  0  0  0  0  2  0  0  0  0  0  0
  185.6960  178.8380  146.1470 N   0  0  0  0  0  0  0  0  0  0  0  0
  191.4130  173.4400  140.1600 C   0  0  0  0  0  2  0  0  0  0  0  0
  191.6540  174.7680  145.0820 C   0  0  0  0  0  3  0  0  0  0  0  0
  190.0010  175.0650  143.2750 N   0  0  0  0  0  0  0  0  0  0  0  0
  190.4000  175.2330  144.6450 C   0  0  0  0  0  0  0  0  0  0  0  0
  188.2450  176.3310  145.1370 N   0  0  0  0  0  0  0  0  0  0  0  0
  184.8860  179.3960  145.2570 N   0  0  0  0  0  0  0  0  0  0  0  0
  188.4340  172.4070  139.6330 C   0  0  0  0  0  2  0  0  0  0  0  0
  190.3320  173.8240  141.1790 C   0  0  2  0  0  3  0  0  0  0  0  0
  185.0770  178.7890  144.0610 C   0  0  0  0  0  3  0  0  0  0  0  0
  188.5450  173.9350  139.4760 C   0  0  0  0  0  2  0  0  0  0  0  0
  190.9210  172.5710  138.9970 C   0  0  1  0  0  3  0  0  0  0  0  0
  189.9680  176.0460  146.8880 C   0  0  0  0  0  3  0  0  0  0  0  0
  189.5420  175.8670  145.5590 C   0  0  0  0  0  0  0  0  0  0  0  0
  187.3630  176.9160  146.1650 C   0  0  0  0  0  2  0  0  0  0  0  0
  188.2210  174.8310  141.6220 C   0  0  0  0  0  2  0  0  0  0  0  0
  186.1550  176.7540  142.1490 O   0  0  0  0  0  0  0  0  0  0  0  0
  185.7440  179.2080  147.5500 C   0  0  0  0  0  1  0  0  0  0  0  0
  187.6890  175.8910  143.8280 C   0  0  2  0  0  3  0  0  0  0  0  0
  186.4210  177.8870  145.5440 C   0  0  0  0  0  0  0  0  0  0  0  0
  192.0310  171.7800  138.4850 N   0  0  0  0  0  2  0  0  0  0  0  0
  192.2120  171.5170  137.0920 C   0  0  0  0  0  0  0  0  0  0  0  0
  191.4130  171.9910  136.2410 O   0  0  0  0  0  0  0  0  0  0  0  0
  193.3050  170.7160  136.6640 N   0  0  0  0  0  1  0  0  0  0  0  0
  1 16  1  0  0  0  0
  2 24  1  6  0  0  0
  2 12  1  0  0  0  0
  2 27  1  0  0  0  0
  3  4  1  0  0  0  0
  5  6  1  0  0  0  0
  6 28  2  0  0  0  0
  7 19  1  6  0  0  0
  7 17  1  0  0  0  0
  7 24  1  0  0  0  0
  8 12  1  0  0  0  0
  9 26  1  0  0  0  0
 11  3  2  0  0  0  0
 12 13  1  0  0  0  0
 13 11  1  0  0  0  0
 13 22  2  0  0  0  0
 14 22  1  0  0  0  0
 14 23  1  0  0  0  0
 15  9  1  0  0  0  0
 17 10  1  6  0  0  0
 17  8  1  0  0  0  0
 18  6  1  0  0  0  0
 18 15  2  0  0  0  0
 19 16  1  0  0  0  0
 20 29  1  1  0  0  0
 20  1  1  0  0  0  0
 20 10  1  0  0  0  0
 21  4  2  0  0  0  0
 22 21  1  0  0  0  0
 25  5  2  0  0  0  0
 27  5  1  6  0  0  0
 27 14  1  0  0  0  0
 28  9  1  0  0  0  0
 28 23  1  0  0  0  0
 30 29  1  0  0  0  0
 31 30  2  0  0  0  0
 32 30  1  0  0  0  0
M  END
>  <MODEL>
4

>  <REMARK>
 VINA RESULT:      -8.0      3.630      5.760
  Name = 
  1 active torsions:
  status: ('A' for Active; 'I' for Inactive)
    1  A    between atoms: C_20  and  N_29
                            x       y       z     vdW  Elec       q    Type
                         _______ _______ _______ _____ _____    ______ ____

>  <TORSDO>
F 1

$$$$
=
 OpenBabel11112416283D

 32 37  0  0  1  0  0  0  0  0999 V2000
  185.4760  177.1560  144.6120 C   0  0  0  0  0  2  0  0  0  0  0  0
  190.4460  175.2870  143.9630 C   0  0  1  0  0  3  0  0  0  0  0  0
  189.7550  171.1110  141.3690 C   0  0  0  0  0  3  0  0  0  0  0  0
  190.9230  170.5720  141.9040 C   0  0  0  0  0  3  0  0  0  0  0  0
  192.4360  175.4180  145.4990 C   0  0  0  0  0  0  0  0  0  0  0  0
  193.7960  174.9150  145.6420 C   0  0  0  0  0  0  0  0  0  0  0  0
  188.6310  176.9510  143.9290 N   0  0  1  0  0  0  0  0  0  0  0  0
  188.5330  175.0660  142.3600 C   0  0  0  0  0  2  0  0  0  0  0  0
  195.4310  173.4630  145.6090 N   0  0  0  0  0  0  0  0  0  0  0  0
  186.6570  176.6820  142.3960 C   0  0  0  0  0  2  0  0  0  0  0  0
  189.3230  172.3740  141.7740 C   0  0  0  0  0  3  0  0  0  0  0  0
  189.6100  174.4240  143.1170 N   0  0  0  0  0  0  0  0  0  0  0  0
  190.0530  173.1150  142.7220 C   0  0  0  0  0  0  0  0  0  0  0  0
  191.9720  173.3010  144.2620 N   0  0  0  0  0  0  0  0  0  0  0  0
  195.9290  174.5890  146.0990 N   0  0  0  0  0  0  0  0  0  0  0  0
  186.7020  177.3460  145.5220 C   0  0  0  0  0  2  0  0  0  0  0  0
  187.7270  175.9960  143.2570 C   0  0  2  0  0  3  0  0  0  0  0  0
  194.9410  175.5160  146.1380 C   0  0  0  0  0  3  0  0  0  0  0  0
  187.9370  177.9150  144.8000 C   0  0  0  0  0  2  0  0  0  0  0  0
  185.7080  177.6070  143.1640 C   0  0  1  0  0  3  0  0  0  0  0  0
  191.6510  171.2960  142.8500 C   0  0  0  0  0  3  0  0  0  0  0  0
  191.2220  172.5670  143.2750 C   0  0  0  0  0  0  0  0  0  0  0  0
  193.1440  172.6340  144.8610 C   0  0  0  0  0  2  0  0  0  0  0  0
  189.5340  176.1950  144.7930 C   0  0  0  0  0  2  0  0  0  0  0  0
  192.1480  176.5700  145.9210 O   0  0  0  0  0  0  0  0  0  0  0  0
  196.1910  172.2350  145.4550 C   0  0  0  0  0  1  0  0  0  0  0  0
  191.3720  174.4980  144.9130 C   0  0  2  0  0  3  0  0  0  0  0  0
  194.1380  173.6460  145.3140 C   0  0  0  0  0  0  0  0  0  0  0  0
  184.4390  177.6910  142.4550 N   0  0  0  0  0  2  0  0  0  0  0  0
  184.3250  178.2450  141.1430 C   0  0  0  0  0  0  0  0  0  0  0  0
  185.3450  178.6660  140.5330 O   0  0  0  0  0  0  0  0  0  0  0  0
  183.0500  178.3180  140.5180 N   0  0  0  0  0  1  0  0  0  0  0  0
  1 16  1  0  0  0  0
  2 24  1  1  0  0  0
  2 27  1  0  0  0  0
  3 11  2  0  0  0  0
  3  4  1  0  0  0  0
  4 21  2  0  0  0  0
  5  6  1  0  0  0  0
  5 25  2  0  0  0  0
  6 18  1  0  0  0  0
  7 24  1  1  0  0  0
  7 19  1  0  0  0  0
  8 12  1  0  0  0  0
  9 15  1  0  0  0  0
 10 20  1  0  0  0  0
 10 17  1  0  0  0  0
 11 13  1  0  0  0  0
 12  2  1  0  0  0  0
 13 12  1  0  0  0  0
 13 22  2  0  0  0  0
 14 23  1  0  0  0  0
 14 27  1  0  0  0  0
 15 18  2  0  0  0  0
 17  8  1  6  0  0  0
 17  7  1  0  0  0  0
 19 16  1  0  0  0  0
 20 29  1  6  0  0  0
 20  1  1  0  0  0  0
 21 22  1  0  0  0  0
 22 14  1  0  0  0  0
 23 28  1  0  0  0  0
 26  9  1  0  0  0  0
 27  5  1  6  0  0  0
 28  9  1  0  0  0  0
 28  6  2  0  0  0  0
 30 29  1  0  0  0  0
 31 30  2  0  0  0  0
 32 30  1  0  0  0  0
M  END
>  <MODEL>
5

>  <REMARK>
 VINA RESULT:      -8.0      2.723      8.373
  Name = 
  1 active torsions:
  status: ('A' for Active; 'I' for Inactive)
    1  A    between atoms: C_20  and  N_29
                            x       y       z     vdW  Elec       q    Type
                         _______ _______ _______ _____ _____    ______ ____

>  <TORSDO>
F 1

$$$$
=
 OpenBabel11112416283D

 32 37  0  0  1  0  0  0  0  0999 V2000
  186.6660  176.7910  146.1490 C   0  0  0  0  0  2  0  0  0  0  0  0
  191.3710  174.7560  144.6200 C   0  0  1  0  0  3  0  0  0  0  0  0
  190.0660  170.9070  141.7690 C   0  0  0  0  0  3  0  0  0  0  0  0
  191.2610  170.2590  142.0770 C   0  0  0  0  0  3  0  0  0  0  0  0
  193.5590  174.6310  145.8590 C   0  0  0  0  0  0  0  0  0  0  0  0
  194.8900  174.0500  145.7580 C   0  0  0  0  0  0  0  0  0  0  0  0
  189.6780  176.5030  145.0040 N   0  0  1  0  0  0  0  0  0  0  0  0
  189.2450  174.7950  143.2940 C   0  0  0  0  0  2  0  0  0  0  0  0
  196.4100  172.5310  145.3530 N   0  0  0  0  0  0  0  0  0  0  0  0
  187.4980  176.4890  143.7510 C   0  0  0  0  0  2  0  0  0  0  0  0
  189.7760  172.1420  142.3500 C   0  0  0  0  0  3  0  0  0  0  0  0
  190.3740  174.0270  143.8250 N   0  0  0  0  0  0  0  0  0  0  0  0
  190.6740  172.7450  143.2480 C   0  0  0  0  0  0  0  0  0  0  0  0
  192.7950  172.6770  144.5070 N   0  0  0  0  0  0  0  0  0  0  0  0
  197.0420  173.5750  145.8710 N   0  0  0  0  0  0  0  0  0  0  0  0
  188.0160  176.8260  146.8870 C   0  0  0  0  0  2  0  0  0  0  0  0
  188.6300  175.6670  144.3820 C   0  0  2  0  0  3  0  0  0  0  0  0
  196.1290  174.5410  146.1380 C   0  0  0  0  0  3  0  0  0  0  0  0
  189.1720  177.4050  146.0520 C   0  0  0  0  0  2  0  0  0  0  0  0
  186.7240  177.3760  144.7320 C   0  0  1  0  0  3  0  0  0  0  0  0
  192.1560  170.8460  142.9730 C   0  0  0  0  0  3  0  0  0  0  0  0
  191.8720  172.0860  143.5730 C   0  0  0  0  0  0  0  0  0  0  0  0
  193.9950  171.8960  144.8660 C   0  0  0  0  0  2  0  0  0  0  0  0
  190.6420  175.6180  145.6540 C   0  0  0  0  0  2  0  0  0  0  0  0
  193.4040  175.7470  146.4250 O   0  0  0  0  0  0  0  0  0  0  0  0
  197.0630  171.2900  144.9760 C   0  0  0  0  0  1  0  0  0  0  0  0
  192.3670  173.8290  145.3470 C   0  0  2  0  0  3  0  0  0  0  0  0
  195.1030  172.8070  145.2650 C   0  0  0  0  0  0  0  0  0  0  0  0
  185.3780  177.5950  144.2240 N   0  0  0  0  0  2  0  0  0  0  0  0
  184.8450  178.9000  143.9890 C   0  0  0  0  0  0  0  0  0  0  0  0
  185.5460  179.9260  144.1960 O   0  0  0  0  0  0  0  0  0  0  0  0
  183.5130  179.0410  143.5130 N   0  0  0  0  0  1  0  0  0  0  0  0
  1 16  1  0  0  0  0
  2 27  1  0  0  0  0
  2 24  1  1  0  0  0
  3  4  2  0  0  0  0
  3 11  1  0  0  0  0
  4 21  1  0  0  0  0
  5 25  2  0  0  0  0
  6  5  1  0  0  0  0
  6 18  1  0  0  0  0
  7 24  1  1  0  0  0
  7 19  1  0  0  0  0
  8 12  1  0  0  0  0
  9 15  1  0  0  0  0
 10 17  1  0  0  0  0
 10 20  1  0  0  0  0
 11 13  2  0  0  0  0
 12  2  1  0  0  0  0
 13 22  1  0  0  0  0
 13 12  1  0  0  0  0
 14 23  1  0  0  0  0
 14 27  1  0  0  0  0
 15 18  2  0  0  0  0
 17  8  1  6  0  0  0
 17  7  1  0  0  0  0
 19 16  1  0  0  0  0
 20 29  1  6  0  0  0
 20  1  1  0  0  0  0
 21 22  2  0  0  0  0
 22 14  1  0  0  0  0
 23 28  1  0  0  0  0
 26  9  1  0  0  0  0
 27  5  1  6  0  0  0
 28  9  1  0  0  0  0
 28  6  2  0  0  0  0
 30 31  2  0  0  0  0
 30 29  1  0  0  0  0
 32 30  1  0  0  0  0
M  END
>  <MODEL>
6

>  <REMARK>
 VINA RESULT:      -7.9      2.369      8.496
  Name = 
  1 active torsions:
  status: ('A' for Active; 'I' for Inactive)
    1  A    between atoms: C_20  and  N_29
                            x       y       z     vdW  Elec       q    Type
                         _______ _______ _______ _____ _____    ______ ____

>  <TORSDO>
F 1

$$$$
=
 OpenBabel11112416283D

 32 37  0  0  1  0  0  0  0  0999 V2000
  187.7660  176.3320  146.8960 C   0  0  0  0  0  2  0  0  0  0  0  0
  191.8450  176.0580  143.4450 C   0  0  1  0  0  3  0  0  0  0  0  0
  190.0390  173.2400  139.7800 C   0  0  0  0  0  3  0  0  0  0  0  0
  191.3250  172.8090  139.4610 C   0  0  0  0  0  3  0  0  0  0  0  0
  194.3250  176.0060  143.8740 C   0  0  0  0  0  0  0  0  0  0  0  0
  195.5940  175.8090  143.1850 C   0  0  0  0  0  0  0  0  0  0  0  0
  190.2190  177.1380  144.9460 N   0  0  1  0  0  0  0  0  0  0  0  0
  189.4020  176.0740  142.8890 C   0  0  0  0  0  2  0  0  0  0  0  0
  197.0280  174.9030  141.8050 N   0  0  0  0  0  0  0  0  0  0  0  0
  187.7550  177.0700  144.4480 C   0  0  0  0  0  2  0  0  0  0  0  0
  189.8410  174.1000  140.8600 C   0  0  0  0  0  3  0  0  0  0  0  0
  190.7150  175.4430  142.7350 N   0  0  0  0  0  0  0  0  0  0  0  0
  190.9270  174.5410  141.6370 C   0  0  0  0  0  0  0  0  0  0  0  0
  193.3460  174.5200  142.1250 N   0  0  0  0  0  0  0  0  0  0  0  0
  197.6900  175.8180  142.5000 N   0  0  0  0  0  0  0  0  0  0  0  0
  189.2760  176.4120  147.1810 C   0  0  0  0  0  2  0  0  0  0  0  0
  189.1110  176.3570  144.3580 C   0  0  2  0  0  3  0  0  0  0  0  0
  196.8320  176.4020  143.3710 C   0  0  0  0  0  3  0  0  0  0  0  0
  190.0140  177.4870  146.3620 C   0  0  0  0  0  2  0  0  0  0  0  0
  187.2780  177.3670  145.8740 C   0  0  1  0  0  3  0  0  0  0  0  0
  192.4090  173.2360  140.2300 C   0  0  0  0  0  3  0  0  0  0  0  0
  192.2230  174.0960  141.3280 C   0  0  0  0  0  0  0  0  0  0  0  0
  194.6680  173.9520  141.7950 C   0  0  0  0  0  2  0  0  0  0  0  0
  191.4300  176.3230  144.8950 C   0  0  0  0  0  2  0  0  0  0  0  0
  194.2630  176.7930  144.8560 O   0  0  0  0  0  0  0  0  0  0  0  0
  197.6340  174.0480  140.8000 C   0  0  0  0  0  1  0  0  0  0  0  0
  193.1180  175.1850  143.4370 C   0  0  2  0  0  3  0  0  0  0  0  0
  195.7490  174.8930  142.2000 C   0  0  0  0  0  0  0  0  0  0  0  0
  185.8240  177.4410  145.8890 N   0  0  0  0  0  2  0  0  0  0  0  0
  185.1120  178.6620  145.6830 C   0  0  0  0  0  0  0  0  0  0  0  0
  185.7310  179.7350  145.4530 O   0  0  0  0  0  0  0  0  0  0  0  0
  183.6910  178.6660  145.7340 N   0  0  0  0  0  1  0  0  0  0  0  0
  1 16  1  0  0  0  0
  2 24  1  1  0  0  0
  3 11  1  0  0  0  0
  4  3  2  0  0  0  0
  4 21  1  0  0  0  0
  5 25  2  0  0  0  0
  6 18  1  0  0  0  0
  6  5  1  0  0  0  0
  7 24  1  1  0  0  0
  7 19  1  0  0  0  0
  9 28  1  0  0  0  0
  9 15  1  0  0  0  0
 10 20  1  0  0  0  0
 11 13  2  0  0  0  0
 12  8  1  0  0  0  0
 12  2  1  0  0  0  0
 13 12  1  0  0  0  0
 14 27  1  0  0  0  0
 15 18  2  0  0  0  0
 17  8  1  6  0  0  0
 17 10  1  0  0  0  0
 17  7  1  0  0  0  0
 19 16  1  0  0  0  0
 20 29  1  6  0  0  0
 20  1  1  0  0  0  0
 21 22  2  0  0  0  0
 22 13  1  0  0  0  0
 22 14  1  0  0  0  0
 23 14  1  0  0  0  0
 23 28  1  0  0  0  0
 26  9  1  0  0  0  0
 27  2  1  0  0  0  0
 27  5  1  6  0  0  0
 28  6  2  0  0  0  0
 30 32  1  0  0  0  0
 30 29  1  0  0  0  0
 31 30  2  0  0  0  0
M  END
>  <MODEL>
7

>  <REMARK>
 VINA RESULT:      -7.8      2.555      8.374
  Name = 
  1 active torsions:
  status: ('A' for Active; 'I' for Inactive)
    1  A    between atoms: C_20  and  N_29
                            x       y       z     vdW  Elec       q    Type
                         _______ _______ _______ _____ _____    ______ ____

>  <TORSDO>
F 1

$$$$
=
 OpenBabel11112416283D

 32 37  0  0  1  0  0  0  0  0999 V2000
  185.8950  178.4690  141.2690 C   0  0  0  0  0  2  0  0  0  0  0  0
  189.7740  175.5100  143.4630 C   0  0  1  0  0  3  0  0  0  0  0  0
  190.2340  177.4400  148.0130 C   0  0  0  0  0  3  0  0  0  0  0  0
  191.5680  177.0390  148.0610 C   0  0  0  0  0  3  0  0  0  0  0  0
  191.8040  174.4630  142.4030 C   0  0  0  0  0  0  0  0  0  0  0  0
  193.0320  173.7600  142.7510 C   0  0  0  0  0  0  0  0  0  0  0  0
  187.6750  175.9540  142.2540 N   0  0  1  0  0  0  0  0  0  0  0  0
  187.8080  176.5250  144.6380 C   0  0  0  0  0  2  0  0  0  0  0  0
  194.8630  173.3120  143.8600 N   0  0  0  0  0  0  0  0  0  0  0  0
  185.7330  177.0660  143.4000 C   0  0  0  0  0  2  0  0  0  0  0  0
  189.4800  177.2100  146.8620 C   0  0  0  0  0  3  0  0  0  0  0  0
  189.2580  176.3260  144.5700 N   0  0  0  0  0  0  0  0  0  0  0  0
  190.0490  176.5770  145.7430 C   0  0  0  0  0  0  0  0  0  0  0  0
  192.0050  175.5550  144.6380 N   0  0  0  0  0  0  0  0  0  0  0  0
  194.8280  172.4820  142.8260 N   0  0  0  0  0  0  0  0  0  0  0  0
  187.0660  177.7510  140.5770 C   0  0  0  0  0  2  0  0  0  0  0  0
  187.2570  176.9340  143.2780 C   0  0  2  0  0  3  0  0  0  0  0  0
  193.7040  172.7320  142.1110 C   0  0  0  0  0  3  0  0  0  0  0  0
  187.1630  176.2500  140.9050 C   0  0  0  0  0  2  0  0  0  0  0  0
  185.0240  177.5410  142.1270 C   0  0  1  0  0  3  0  0  0  0  0  0
  192.1440  176.4160  146.9530 C   0  0  0  0  0  3  0  0  0  0  0  0
  191.3980  176.1860  145.7820 C   0  0  0  0  0  0  0  0  0  0  0  0
  193.4450  175.2430  144.7180 C   0  0  0  0  0  2  0  0  0  0  0  0
  189.1320  175.9870  142.1570 C   0  0  0  0  0  2  0  0  0  0  0  0
  191.2110  174.1910  141.3250 O   0  0  0  0  0  0  0  0  0  0  0  0
  195.9430  173.3600  144.8280 C   0  0  0  0  0  1  0  0  0  0  0  0
  191.3100  175.5740  143.3230 C   0  0  2  0  0  3  0  0  0  0  0  0
  193.7720  174.0880  143.8360 C   0  0  0  0  0  0  0  0  0  0  0  0
  183.7830  178.2100  142.4880 N   0  0  0  0  0  2  0  0  0  0  0  0
  182.6650  178.2910  141.6020 C   0  0  0  0  0  0  0  0  0  0  0  0
  182.7090  177.7550  140.4630 O   0  0  0  0  0  0  0  0  0  0  0  0
  181.4910  178.9800  142.0120 N   0  0  0  0  0  1  0  0  0  0  0  0
  1 20  1  0  0  0  0
  2 24  1  6  0  0  0
  2 12  1  0  0  0  0
  3  4  1  0  0  0  0
  5  6  1  0  0  0  0
  6 28  2  0  0  0  0
  7 19  1  6  0  0  0
  7 17  1  0  0  0  0
  9 26  1  0  0  0  0
 11  3  2  0  0  0  0
 12  8  1  0  0  0  0
 12 13  1  0  0  0  0
 13 22  2  0  0  0  0
 13 11  1  0  0  0  0
 14 23  1  0  0  0  0
 14 22  1  0  0  0  0
 15  9  1  0  0  0  0
 16 19  1  0  0  0  0
 16  1  1  0  0  0  0
 17 10  1  1  0  0  0
 17  8  1  0  0  0  0
 18  6  1  0  0  0  0
 18 15  2  0  0  0  0
 20 29  1  1  0  0  0
 20 10  1  0  0  0  0
 21  4  2  0  0  0  0
 22 21  1  0  0  0  0
 24  7  1  0  0  0  0
 25  5  2  0  0  0  0
 27  5  1  6  0  0  0
 27  2  1  0  0  0  0
 27 14  1  0  0  0  0
 28  9  1  0  0  0  0
 28 23  1  0  0  0  0
 30 32  1  0  0  0  0
 30 29  1  0  0  0  0
 31 30  2  0  0  0  0
M  END
>  <MODEL>
8

>  <REMARK>
 VINA RESULT:      -7.7      2.976      9.239
  Name = 
  1 active torsions:
  status: ('A' for Active; 'I' for Inactive)
    1  A    between atoms: C_20  and  N_29
                            x       y       z     vdW  Elec       q    Type
                         _______ _______ _______ _____ _____    ______ ____

>  <TORSDO>
F 1

$$$$
=
 OpenBabel11112416283D

 32 37  0  0  1  0  0  0  0  0999 V2000
  187.7390  177.2690  141.5820 C   0  0  0  0  0  2  0  0  0  0  0  0
  190.8940  173.5450  143.7730 C   0  0  1  0  0  3  0  0  0  0  0  0
  194.2330  176.2260  146.2850 C   0  0  0  0  0  3  0  0  0  0  0  0
  195.1710  175.2050  146.1500 C   0  0  0  0  0  3  0  0  0  0  0  0
  191.5980  171.2970  142.8860 C   0  0  0  0  0  0  0  0  0  0  0  0
  192.5010  170.1920  143.1790 C   0  0  0  0  0  0  0  0  0  0  0  0
  188.7770  174.6510  143.1750 N   0  0  1  0  0  0  0  0  0  0  0  0
  190.2890  175.7700  144.7520 C   0  0  0  0  0  2  0  0  0  0  0  0
  194.3550  169.1970  143.7760 N   0  0  0  0  0  0  0  0  0  0  0  0
  188.2090  176.9300  144.0720 C   0  0  0  0  0  2  0  0  0  0  0  0
  192.9740  176.0950  145.6990 C   0  0  0  0  0  3  0  0  0  0  0  0
  191.3300  174.8090  144.3840 N   0  0  0  0  0  0  0  0  0  0  0  0
  192.6370  174.9420  144.9670 C   0  0  0  0  0  0  0  0  0  0  0  0
  193.2680  172.7390  144.0520 N   0  0  0  0  0  0  0  0  0  0  0  0
  193.5160  168.2450  143.3900 N   0  0  0  0  0  0  0  0  0  0  0  0
  188.0650  175.8570  141.0650 C   0  0  0  0  0  2  0  0  0  0  0  0
  189.3040  175.9620  143.6050 C   0  0  2  0  0  3  0  0  0  0  0  0
  192.3520  168.8250  143.0090 C   0  0  0  0  0  3  0  0  0  0  0  0
  187.7900  174.7360  142.0840 C   0  0  0  0  0  2  0  0  0  0  0  0
  187.1680  177.2860  143.0060 C   0  0  1  0  0  3  0  0  0  0  0  0
  194.8490  174.0590  145.4200 C   0  0  0  0  0  3  0  0  0  0  0  0
  193.5870  173.9180  144.8150 C   0  0  0  0  0  0  0  0  0  0  0  0
  194.3370  171.7390  143.8640 C   0  0  0  0  0  2  0  0  0  0  0  0
  189.8900  173.8570  142.6600 C   0  0  0  0  0  2  0  0  0  0  0  0
  190.4890  171.0680  142.3320 O   0  0  0  0  0  0  0  0  0  0  0  0
  195.7160  168.9520  144.2180 C   0  0  0  0  0  1  0  0  0  0  0  0
  192.0580  172.7190  143.1850 C   0  0  2  0  0  3  0  0  0  0  0  0
  193.7490  170.3860  143.6660 C   0  0  0  0  0  0  0  0  0  0  0  0
  186.6010  178.5930  143.3040 N   0  0  0  0  0  2  0  0  0  0  0  0
  185.4190  178.7610  144.0890 C   0  0  0  0  0  0  0  0  0  0  0  0
  184.8280  177.7620  144.5800 O   0  0  0  0  0  0  0  0  0  0  0  0
  184.9080  180.0670  144.3210 N   0  0  0  0  0  1  0  0  0  0  0  0
  1 20  1  0  0  0  0
  2 24  1  6  0  0  0
  2 12  1  0  0  0  0
  4  3  1  0  0  0  0
  5  6  1  0  0  0  0
  6 28  2  0  0  0  0
  7 19  1  6  0  0  0
  7 17  1  0  0  0  0
  9 26  1  0  0  0  0
 11  3  2  0  0  0  0
 12  8  1  0  0  0  0
 12 13  1  0  0  0  0
 13 11  1  0  0  0  0
 14 22  1  0  0  0  0
 15  9  1  0  0  0  0
 16  1  1  0  0  0  0
 16 19  1  0  0  0  0
 17 10  1  1  0  0  0
 17  8  1  0  0  0  0
 18  6  1  0  0  0  0
 18 15  2  0  0  0  0
 20 29  1  1  0  0  0
 20 10  1  0  0  0  0
 21  4  2  0  0  0  0
 22 13  2  0  0  0  0
 22 21  1  0  0  0  0
 23 14  1  0  0  0  0
 24  7  1  0  0  0  0
 25  5  2  0  0  0  0
 27  5  1  1  0  0  0
 27  2  1  0  0  0  0
 27 14  1  0  0  0  0
 28  9  1  0  0  0  0
 28 23  1  0  0  0  0
 29 30  1  0  0  0  0
 30 32  1  0  0  0  0
 30 31  2  0  0  0  0
M  END
>  <MODEL>
9

>  <REMARK>
 VINA RESULT:      -7.5      2.934      9.157
  Name = 
  1 active torsions:
  status: ('A' for Active; 'I' for Inactive)
    1  A    between atoms: C_20  and  N_29
                            x       y       z     vdW  Elec       q    Type
                         _______ _______ _______ _____ _____    ______ ____

>  <TORSDO>
F 1

$$$$
