=
 OpenBabel11112417093D

 37 43  0  0  1  0  0  0  0  0999 V2000
  191.7460  175.2500  144.9530 C   0  0  0  0  0  2  0  0  0  0  0  0
  191.0180  171.0840  141.9050 C   0  0  0  0  0  0  0  0  0  0  0  0
  189.0150  174.7590  141.9360 C   0  0  0  0  0  0  0  0  0  0  0  0
  192.4740  175.6930  146.2220 C   0  0  2  0  0  3  0  0  0  0  0  0
  187.5580  175.3850  145.0880 O   0  0  0  0  0  0  0  0  0  0  0  0
  189.6330  172.7700  140.7160 C   0  0  0  0  0  0  0  0  0  0  0  0
  189.2470  175.2890  143.3240 C   0  0  1  0  0  3  0  0  0  0  0  0
  190.2680  177.0520  146.6430 C   0  0  2  0  0  3  0  0  0  0  0  0
  189.6700  173.5640  141.8430 C   0  0  0  0  0  0  0  0  0  0  0  0
  188.1290  176.0910  144.0190 C   0  0  1  0  0  3  0  0  0  0  0  0
  188.9480  173.2420  139.5880 C   0  0  0  0  0  3  0  0  0  0  0  0
  191.7180  176.7480  147.0540 C   0  0  0  0  0  2  0  0  0  0  0  0
  190.2130  173.1140  143.0600 N   0  0  0  0  0  0  0  0  0  0  0  0
  192.4620  171.5040  141.6970 C   0  0  0  0  0  1  0  0  0  0  0  0
  187.4370  176.4880  140.8910 C   0  0  0  0  0  2  0  0  0  0  0  0
  188.2870  174.4880  139.6490 C   0  0  0  0  0  3  0  0  0  0  0  0
  190.4970  171.6910  143.2310 C   0  0  0  0  0  2  0  0  0  0  0  0
  189.3010  175.8590  146.7680 C   0  0  1  0  0  3  0  0  0  0  0  0
  187.8760  176.1200  146.2430 C   0  0  0  0  0  2  0  0  0  0  0  0
  188.3090  175.2650  140.8260 C   0  0  0  0  0  0  0  0  0  0  0  0
  189.6820  174.0070  144.0840 C   0  0  1  0  0  3  0  0  0  0  0  0
  190.2320  171.5050  140.7710 O   0  0  0  0  0  0  0  0  0  0  0  0
  187.0840  176.6990  143.0810 C   0  0  2  0  0  3  0  0  0  0  0  0
  190.9680  169.5740  142.0050 C   0  0  0  0  0  1  0  0  0  0  0  0
  189.8690  174.4460  146.5570 C   0  0  0  0  0  2  0  0  0  0  0  0
  190.2240  177.6440  145.3780 O   0  0  0  0  0  1  0  0  0  0  0  0
  190.6420  174.2260  145.2490 C   0  0  2  0  0  3  0  0  0  0  0  0
  187.7320  177.2980  141.9930 O   0  0  0  0  0  0  0  0  0  0  0  0
  186.3070  179.0700  143.4660 C   0  0  0  0  0  3  0  0  0  0  0  0
  186.2400  177.7080  143.7950 C   0  0  0  0  0  0  0  0  0  0  0  0
  185.3920  177.2860  144.8250 C   0  0  0  0  0  3  0  0  0  0  0  0
  183.7890  177.8020  146.5110 F   0  0  0  0  0  0  0  0  0  0  0  0
  184.6770  179.5710  145.1830 C   0  0  0  0  0  3  0  0  0  0  0  0
  184.6100  178.2150  145.5160 C   0  0  0  0  0  0  0  0  0  0  0  0
  185.5260  179.9980  144.1580 C   0  0  0  0  0  3  0  0  0  0  0  0
  193.8070  176.4090  144.4400 C   0  0  0  0  0  1  0  0  0  0  0  0
  193.7880  176.2080  145.8790 N   0  0  0  0  0  2  0  0  0  0  0  0
  1  4  1  0  0  0  0
  2 24  1  0  0  0  0
  2 17  1  0  0  0  0
  4 37  1  6  0  0  0
  4 12  1  0  0  0  0
  5 19  1  0  0  0  0
  6 22  1  0  0  0  0
  6  9  2  0  0  0  0
  7  3  1  6  0  0  0
  7 10  1  0  0  0  0
  7 21  1  0  0  0  0
  8 26  1  6  0  0  0
  8 18  1  0  0  0  0
  8 12  1  0  0  0  0
  9  3  1  0  0  0  0
  9 13  1  0  0  0  0
 10  5  1  1  0  0  0
 11 16  2  0  0  0  0
 11  6  1  0  0  0  0
 13 17  1  0  0  0  0
 14  2  1  0  0  0  0
 15 28  1  0  0  0  0
 16 20  1  0  0  0  0
 18 19  1  6  0  0  0
 20 15  1  0  0  0  0
 20  3  2  0  0  0  0
 21 13  1  6  0  0  0
 21 27  1  0  0  0  0
 22  2  1  0  0  0  0
 23 30  1  1  0  0  0
 23 10  1  0  0  0  0
 25 18  1  0  0  0  0
 27  1  1  6  0  0  0
 27 25  1  0  0  0  0
 28 23  1  0  0  0  0
 29 30  2  0  0  0  0
 29 35  1  0  0  0  0
 30 31  1  0  0  0  0
 31 34  2  0  0  0  0
 33 34  1  0  0  0  0
 34 32  1  0  0  0  0
 35 33  2  0  0  0  0
 36 37  1  0  0  0  0
M  END
>  <MODEL>
1

>  <REMARK>
 VINA RESULT:      -9.4      0.000      0.000
  Name = 
  2 active torsions:
  status: ('A' for Active; 'I' for Inactive)
    1  A    between atoms: C_4  and  N_37
    2  A    between atoms: C_23  and  C_30
                            x       y       z     vdW  Elec       q    Type
                         _______ _______ _______ _____ _____    ______ ____

>  <TORSDO>
F 2

$$$$
=
 OpenBabel11112417093D

 37 43  0  0  1  0  0  0  0  0999 V2000
  192.8140  175.4970  144.1690 C   0  0  0  0  0  2  0  0  0  0  0  0
  191.7020  172.0750  140.3960 C   0  0  0  0  0  0  0  0  0  0  0  0
  189.3210  175.0870  142.0650 C   0  0  0  0  0  0  0  0  0  0  0  0
  193.8590  175.7970  145.2440 C   0  0  2  0  0  3  0  0  0  0  0  0
  188.9500  174.6320  145.5440 O   0  0  0  0  0  0  0  0  0  0  0  0
  189.7670  173.6220  140.1980 C   0  0  0  0  0  0  0  0  0  0  0  0
  189.9320  175.3280  143.4180 C   0  0  1  0  0  3  0  0  0  0  0  0
  191.7560  176.4800  146.6590 C   0  0  2  0  0  3  0  0  0  0  0  0
  190.0700  174.1270  141.4460 C   0  0  0  0  0  0  0  0  0  0  0  0
  189.0140  175.6730  144.6070 C   0  0  1  0  0  3  0  0  0  0  0  0
  188.6780  174.1670  139.5040 C   0  0  0  0  0  3  0  0  0  0  0  0
  193.2880  176.4340  146.5270 C   0  0  0  0  0  2  0  0  0  0  0  0
  191.0540  173.5510  142.2700 N   0  0  0  0  0  0  0  0  0  0  0  0
  192.9120  172.8520  139.9100 C   0  0  0  0  0  1  0  0  0  0  0  0
  187.2500  176.5970  142.0670 C   0  0  0  0  0  2  0  0  0  0  0  0
  187.9050  175.1800  140.1100 C   0  0  0  0  0  3  0  0  0  0  0  0
  191.5810  172.2300  141.9330 C   0  0  0  0  0  2  0  0  0  0  0  0
  191.0730  175.1010  146.7100 C   0  0  1  0  0  3  0  0  0  0  0  0
  189.5330  175.1390  146.7180 C   0  0  0  0  0  2  0  0  0  0  0  0
  188.2140  175.6540  141.4020 C   0  0  0  0  0  0  0  0  0  0  0  0
  190.7800  174.0430  143.6150 C   0  0  1  0  0  3  0  0  0  0  0  0
  190.5250  172.5500  139.7110 O   0  0  0  0  0  0  0  0  0  0  0  0
  187.6360  176.2200  144.2290 C   0  0  2  0  0  3  0  0  0  0  0  0
  191.9070  170.6130  140.0670 C   0  0  0  0  0  1  0  0  0  0  0  0
  191.7330  173.9420  145.9450 C   0  0  0  0  0  2  0  0  0  0  0  0
  191.1990  177.3170  145.6880 O   0  0  0  0  0  1  0  0  0  0  0  0
  192.0380  174.2070  144.4640 C   0  0  2  0  0  3  0  0  0  0  0  0
  187.7820  177.1830  143.2210 O   0  0  0  0  0  0  0  0  0  0  0  0
  185.5760  176.6300  145.6300 C   0  0  0  0  0  3  0  0  0  0  0  0
  186.9500  176.8200  145.4160 C   0  0  0  0  0  0  0  0  0  0  0  0
  187.6880  177.6050  146.3090 C   0  0  0  0  0  3  0  0  0  0  0  0
  187.7800  178.9460  148.2770 F   0  0  0  0  0  0  0  0  0  0  0  0
  185.6940  177.9950  147.6250 C   0  0  0  0  0  3  0  0  0  0  0  0
  187.0610  178.1890  147.4130 C   0  0  0  0  0  0  0  0  0  0  0  0
  184.9520  177.2160  146.7330 C   0  0  0  0  0  3  0  0  0  0  0  0
  195.4050  176.0170  143.5050 C   0  0  0  0  0  1  0  0  0  0  0  0
  194.8890  176.6640  144.6980 N   0  0  0  0  0  2  0  0  0  0  0  0
  1  4  1  0  0  0  0
  2 17  1  0  0  0  0
  4 37  1  6  0  0  0
  4 12  1  0  0  0  0
  5 19  1  0  0  0  0
  6  9  2  0  0  0  0
  7  3  1  6  0  0  0
  7 21  1  0  0  0  0
  7 10  1  0  0  0  0
  8 26  1  6  0  0  0
  8 18  1  0  0  0  0
  9  3  1  0  0  0  0
  9 13  1  0  0  0  0
 10  5  1  6  0  0  0
 11 16  2  0  0  0  0
 11  6  1  0  0  0  0
 12  8  1  0  0  0  0
 14  2  1  0  0  0  0
 15 28  1  0  0  0  0
 16 20  1  0  0  0  0
 17 13  1  0  0  0  0
 18 25  1  6  0  0  0
 18 19  1  0  0  0  0
 20  3  2  0  0  0  0
 20 15  1  0  0  0  0
 21 13  1  6  0  0  0
 21 27  1  0  0  0  0
 22  6  1  0  0  0  0
 22  2  1  0  0  0  0
 23 10  1  0  0  0  0
 23 30  1  1  0  0  0
 24  2  1  0  0  0  0
 27  1  1  1  0  0  0
 27 25  1  0  0  0  0
 28 23  1  0  0  0  0
 29 35  1  0  0  0  0
 30 29  2  0  0  0  0
 30 31  1  0  0  0  0
 31 34  2  0  0  0  0
 34 33  1  0  0  0  0
 34 32  1  0  0  0  0
 35 33  2  0  0  0  0
 36 37  1  0  0  0  0
M  END
>  <MODEL>
2

>  <REMARK>
 VINA RESULT:      -9.3      1.662      1.981
  Name = 
  2 active torsions:
  status: ('A' for Active; 'I' for Inactive)
    1  A    between atoms: C_4  and  N_37
    2  A    between atoms: C_23  and  C_30
                            x       y       z     vdW  Elec       q    Type
                         _______ _______ _______ _____ _____    ______ ____

>  <TORSDO>
F 2

$$$$
=
 OpenBabel11112417093D

 37 43  0  0  1  0  0  0  0  0999 V2000
  193.2150  175.2550  143.9340 C   0  0  0  0  0  2  0  0  0  0  0  0
  191.9440  171.6180  140.4220 C   0  0  0  0  0  0  0  0  0  0  0  0
  189.6590  174.7740  141.9540 C   0  0  0  0  0  0  0  0  0  0  0  0
  194.2930  175.6050  144.9600 C   0  0  2  0  0  3  0  0  0  0  0  0
  189.3750  174.5510  145.4630 O   0  0  0  0  0  0  0  0  0  0  0  0
  190.0290  173.1840  140.1750 C   0  0  0  0  0  0  0  0  0  0  0  0
  190.3110  175.0900  143.2720 C   0  0  1  0  0  3  0  0  0  0  0  0
  192.2410  176.4160  146.3830 C   0  0  2  0  0  3  0  0  0  0  0  0
  190.3750  173.7630  141.3790 C   0  0  0  0  0  0  0  0  0  0  0  0
  189.4310  175.5280  144.4600 C   0  0  1  0  0  3  0  0  0  0  0  0
  188.9320  173.7030  139.4760 C   0  0  0  0  0  3  0  0  0  0  0  0
  193.7680  176.3330  146.2140 C   0  0  0  0  0  2  0  0  0  0  0  0
  191.3710  173.2230  142.2120 N   0  0  0  0  0  0  0  0  0  0  0  0
  193.1530  172.3400  139.8550 C   0  0  0  0  0  1  0  0  0  0  0  0
  187.6130  176.3180  141.9120 C   0  0  0  0  0  2  0  0  0  0  0  0
  188.1910  174.7670  140.0350 C   0  0  0  0  0  3  0  0  0  0  0  0
  191.8670  171.8740  141.9480 C   0  0  0  0  0  2  0  0  0  0  0  0
  191.5370  175.0550  146.5400 C   0  0  1  0  0  3  0  0  0  0  0  0
  189.9980  175.1220  146.5870 C   0  0  0  0  0  2  0  0  0  0  0  0
  188.5430  175.3180  141.2850 C   0  0  0  0  0  0  0  0  0  0  0  0
  191.1430  173.8050  143.5290 C   0  0  1  0  0  3  0  0  0  0  0  0
  190.7560  172.0690  139.7390 O   0  0  0  0  0  0  0  0  0  0  0  0
  188.0530  176.0750  144.0830 C   0  0  2  0  0  3  0  0  0  0  0  0
  192.1150  170.1340  140.1830 C   0  0  0  0  0  1  0  0  0  0  0  0
  192.1570  173.8370  145.8350 C   0  0  0  0  0  2  0  0  0  0  0  0
  191.6720  177.1980  145.3750 O   0  0  0  0  0  1  0  0  0  0  0  0
  192.4250  174.0010  144.3320 C   0  0  2  0  0  3  0  0  0  0  0  0
  188.1870  176.9680  143.0110 O   0  0  0  0  0  0  0  0  0  0  0  0
  188.1740  177.4860  146.1730 C   0  0  0  0  0  3  0  0  0  0  0  0
  187.4090  176.7620  145.2460 C   0  0  0  0  0  0  0  0  0  0  0  0
  186.0250  176.6560  145.4240 C   0  0  0  0  0  3  0  0  0  0  0  0
  184.0670  177.1720  146.6810 F   0  0  0  0  0  0  0  0  0  0  0  0
  186.1730  177.9990  147.4330 C   0  0  0  0  0  3  0  0  0  0  0  0
  185.4070  177.2750  146.5140 C   0  0  0  0  0  0  0  0  0  0  0  0
  187.5560  178.1040  147.2620 C   0  0  0  0  0  3  0  0  0  0  0  0
  195.5320  175.8840  142.9970 C   0  0  0  0  0  1  0  0  0  0  0  0
  195.3220  176.4160  144.3330 N   0  0  0  0  0  2  0  0  0  0  0  0
  1  4  1  0  0  0  0
  2 17  1  0  0  0  0
  4 37  1  6  0  0  0
  4 12  1  0  0  0  0
  5 19  1  0  0  0  0
  6  9  2  0  0  0  0
  7  3  1  6  0  0  0
  7 21  1  0  0  0  0
  7 10  1  0  0  0  0
  8 26  1  6  0  0  0
  8 18  1  0  0  0  0
  9  3  1  0  0  0  0
  9 13  1  0  0  0  0
 10  5  1  1  0  0  0
 11 16  2  0  0  0  0
 11  6  1  0  0  0  0
 12  8  1  0  0  0  0
 14  2  1  0  0  0  0
 15 28  1  0  0  0  0
 16 20  1  0  0  0  0
 17 13  1  0  0  0  0
 18 25  1  6  0  0  0
 18 19  1  0  0  0  0
 20 15  1  0  0  0  0
 20  3  2  0  0  0  0
 21 13  1  6  0  0  0
 21 27  1  0  0  0  0
 22  6  1  0  0  0  0
 22  2  1  0  0  0  0
 23 10  1  0  0  0  0
 23 30  1  1  0  0  0
 24  2  1  0  0  0  0
 27  1  1  1  0  0  0
 27 25  1  0  0  0  0
 28 23  1  0  0  0  0
 29 35  1  0  0  0  0
 30 31  1  0  0  0  0
 30 29  2  0  0  0  0
 31 34  2  0  0  0  0
 34 32  1  0  0  0  0
 34 33  1  0  0  0  0
 35 33  2  0  0  0  0
 36 37  1  0  0  0  0
M  END
>  <MODEL>
3

>  <REMARK>
 VINA RESULT:      -9.1      1.547      1.931
  Name = 
  2 active torsions:
  status: ('A' for Active; 'I' for Inactive)
    1  A    between atoms: C_4  and  N_37
    2  A    between atoms: C_23  and  C_30
                            x       y       z     vdW  Elec       q    Type
                         _______ _______ _______ _____ _____    ______ ____

>  <TORSDO>
F 2

$$$$
=
 OpenBabel11112417093D

 37 43  0  0  1  0  0  0  0  0999 V2000
  191.2400  172.7000  142.6110 C   0  0  0  0  0  2  0  0  0  0  0  0
  195.8160  175.0970  143.3170 C   0  0  0  0  0  0  0  0  0  0  0  0
  192.1300  175.7620  145.1860 C   0  0  0  0  0  0  0  0  0  0  0  0
  190.5300  171.7280  141.6680 C   0  0  2  0  0  3  0  0  0  0  0  0
  189.6350  176.5670  142.8250 O   0  0  0  0  0  0  0  0  0  0  0  0
  194.5340  175.9750  145.2560 C   0  0  0  0  0  0  0  0  0  0  0  0
  191.1230  175.2140  144.2130 C   0  0  1  0  0  3  0  0  0  0  0  0
  188.4730  173.3030  142.0950 C   0  0  2  0  0  3  0  0  0  0  0  0
  193.3690  175.5520  144.6500 C   0  0  0  0  0  0  0  0  0  0  0  0
  189.7610  175.9200  144.0620 C   0  0  1  0  0  3  0  0  0  0  0  0
  194.4480  176.5890  146.5130 C   0  0  0  0  0  3  0  0  0  0  0  0
  189.0210  171.9960  141.4970 C   0  0  0  0  0  2  0  0  0  0  0  0
  193.3450  175.0530  143.3350 N   0  0  0  0  0  0  0  0  0  0  0  0
  196.0660  173.6280  143.6080 C   0  0  0  0  0  1  0  0  0  0  0  0
  190.6790  176.7910  147.0320 C   0  0  0  0  0  2  0  0  0  0  0  0
  193.1810  176.7920  147.1020 C   0  0  0  0  0  3  0  0  0  0  0  0
  194.5180  175.2370  142.4830 C   0  0  0  0  0  2  0  0  0  0  0  0
  189.0520  174.5870  141.4730 C   0  0  1  0  0  3  0  0  0  0  0  0
  188.6010  175.8960  142.1480 C   0  0  0  0  0  2  0  0  0  0  0  0
  192.0020  176.3830  146.4450 C   0  0  0  0  0  0  0  0  0  0  0  0
  191.9550  175.1420  142.9040 C   0  0  1  0  0  3  0  0  0  0  0  0
  195.7400  175.8230  144.5600 O   0  0  0  0  0  0  0  0  0  0  0  0
  189.3530  176.8060  145.2420 C   0  0  2  0  0  3  0  0  0  0  0  0
  196.9770  175.6290  142.5060 C   0  0  0  0  0  1  0  0  0  0  0  0
  190.4940  174.5430  140.9410 C   0  0  0  0  0  2  0  0  0  0  0  0
  188.5740  173.2920  143.4880 O   0  0  0  0  0  1  0  0  0  0  0  0
  191.5550  174.0380  141.9290 C   0  0  2  0  0  3  0  0  0  0  0  0
  189.6010  176.1230  146.4400 O   0  0  0  0  0  0  0  0  0  0  0  0
  186.9230  176.4320  145.8150 C   0  0  0  0  0  3  0  0  0  0  0  0
  187.9070  177.1840  145.1570 C   0  0  0  0  0  0  0  0  0  0  0  0
  187.5330  178.2910  144.3860 C   0  0  0  0  0  3  0  0  0  0  0  0
  185.8290  179.7230  143.5340 F   0  0  0  0  0  0  0  0  0  0  0  0
  185.2090  177.8990  144.9390 C   0  0  0  0  0  3  0  0  0  0  0  0
  186.1870  178.6490  144.2800 C   0  0  0  0  0  0  0  0  0  0  0  0
  185.5770  176.7900  145.7060 C   0  0  0  0  0  3  0  0  0  0  0  0
  192.0310  170.3090  142.7630 C   0  0  0  0  0  1  0  0  0  0  0  0
  190.7230  170.3660  142.1320 N   0  0  0  0  0  2  0  0  0  0  0  0
  2 14  1  0  0  0  0
  2 22  1  0  0  0  0
  3 20  1  0  0  0  0
  4 37  1  1  0  0  0
  4  1  1  0  0  0  0
  6 11  2  0  0  0  0
  7  3  1  1  0  0  0
  8 26  1  1  0  0  0
  9  3  2  0  0  0  0
  9  6  1  0  0  0  0
 10  5  1  6  0  0  0
 10  7  1  0  0  0  0
 10 23  1  0  0  0  0
 11 16  1  0  0  0  0
 12  4  1  0  0  0  0
 12  8  1  0  0  0  0
 13  9  1  0  0  0  0
 17  2  1  0  0  0  0
 17 13  1  0  0  0  0
 18 25  1  1  0  0  0
 18  8  1  0  0  0  0
 18 19  1  0  0  0  0
 19  5  1  0  0  0  0
 20 15  1  0  0  0  0
 20 16  2  0  0  0  0
 21 13  1  1  0  0  0
 21  7  1  0  0  0  0
 22  6  1  0  0  0  0
 23 30  1  6  0  0  0
 23 28  1  0  0  0  0
 24  2  1  0  0  0  0
 27 25  1  1  0  0  0
 27  1  1  0  0  0  0
 27 21  1  0  0  0  0
 28 15  1  0  0  0  0
 30 29  2  0  0  0  0
 31 30  1  0  0  0  0
 32 34  1  0  0  0  0
 33 35  2  0  0  0  0
 34 31  2  0  0  0  0
 34 33  1  0  0  0  0
 35 29  1  0  0  0  0
 37 36  1  0  0  0  0
M  END
>  <MODEL>
4

>  <REMARK>
 VINA RESULT:      -9.1      2.139      5.454
  Name = 
  2 active torsions:
  status: ('A' for Active; 'I' for Inactive)
    1  A    between atoms: C_4  and  N_37
    2  A    between atoms: C_23  and  C_30
                            x       y       z     vdW  Elec       q    Type
                         _______ _______ _______ _____ _____    ______ ____

>  <TORSDO>
F 2

$$$$
=
 OpenBabel11112417093D

 37 43  0  0  1  0  0  0  0  0999 V2000
  192.3120  175.1480  144.4910 C   0  0  0  0  0  2  0  0  0  0  0  0
  191.4150  171.0510  141.3960 C   0  0  0  0  0  0  0  0  0  0  0  0
  189.2210  174.5840  141.8610 C   0  0  0  0  0  0  0  0  0  0  0  0
  193.1830  175.5950  145.6660 C   0  0  2  0  0  3  0  0  0  0  0  0
  188.1840  175.0060  145.2060 O   0  0  0  0  0  0  0  0  0  0  0  0
  189.7790  172.6830  140.4820 C   0  0  0  0  0  0  0  0  0  0  0  0
  189.6120  175.0800  143.2250 C   0  0  1  0  0  3  0  0  0  0  0  0
  190.9800  176.7910  146.4440 C   0  0  2  0  0  3  0  0  0  0  0  0
  189.9260  173.4380  141.6270 C   0  0  0  0  0  0  0  0  0  0  0  0
  188.5560  175.7840  144.1010 C   0  0  1  0  0  3  0  0  0  0  0  0
  188.9160  173.1480  139.4810 C   0  0  0  0  0  3  0  0  0  0  0  0
  192.4900  176.5690  146.6390 C   0  0  0  0  0  2  0  0  0  0  0  0
  190.6600  172.9840  142.7370 N   0  0  0  0  0  0  0  0  0  0  0  0
  192.7880  171.5710  141.0100 C   0  0  0  0  0  1  0  0  0  0  0  0
  187.4110  176.2420  141.1180 C   0  0  0  0  0  2  0  0  0  0  0  0
  188.1960  174.3450  139.6850 C   0  0  0  0  0  3  0  0  0  0  0  0
  191.0490  171.5770  142.8060 C   0  0  0  0  0  2  0  0  0  0  0  0
  190.1140  175.5340  146.6500 C   0  0  1  0  0  3  0  0  0  0  0  0
  188.6160  175.7200  146.3380 C   0  0  0  0  0  2  0  0  0  0  0  0
  188.3370  175.0810  140.8810 C   0  0  0  0  0  0  0  0  0  0  0  0
  190.2250  173.8040  143.8620 C   0  0  1  0  0  3  0  0  0  0  0  0
  190.4540  171.4580  140.4010 O   0  0  0  0  0  0  0  0  0  0  0  0
  187.3560  176.3540  143.3430 C   0  0  2  0  0  3  0  0  0  0  0  0
  191.4700  169.5390  141.4370 C   0  0  0  0  0  1  0  0  0  0  0  0
  190.7300  174.1690  146.3020 C   0  0  0  0  0  2  0  0  0  0  0  0
  190.7240  177.4220  145.2240 O   0  0  0  0  0  1  0  0  0  0  0  0
  191.3240  174.0450  144.8920 C   0  0  2  0  0  3  0  0  0  0  0  0
  187.8090  177.0310  142.2020 O   0  0  0  0  0  0  0  0  0  0  0  0
  185.9210  176.8180  145.3670 C   0  0  0  0  0  3  0  0  0  0  0  0
  186.5620  177.2810  144.2090 C   0  0  0  0  0  0  0  0  0  0  0  0
  186.4370  178.6250  143.8380 C   0  0  0  0  0  3  0  0  0  0  0  0
  185.5680  180.8030  144.2630 F   0  0  0  0  0  0  0  0  0  0  0  0
  185.0500  179.0380  145.7790 C   0  0  0  0  0  3  0  0  0  0  0  0
  185.6840  179.5020  144.6240 C   0  0  0  0  0  0  0  0  0  0  0  0
  185.1680  177.6960  146.1500 C   0  0  0  0  0  3  0  0  0  0  0  0
  194.5660  177.4690  145.8640 C   0  0  0  0  0  1  0  0  0  0  0  0
  194.4030  176.2050  145.1670 N   0  0  0  0  0  2  0  0  0  0  0  0
  1  4  1  0  0  0  0
  2 24  1  0  0  0  0
  2 17  1  0  0  0  0
  4 37  1  6  0  0  0
  4 12  1  0  0  0  0
  5 19  1  0  0  0  0
  6  9  2  0  0  0  0
  7  3  1  6  0  0  0
  7 21  1  0  0  0  0
  7 10  1  0  0  0  0
  8 26  1  6  0  0  0
  8 12  1  0  0  0  0
  8 18  1  0  0  0  0
  9  3  1  0  0  0  0
  9 13  1  0  0  0  0
 10  5  1  1  0  0  0
 11 16  2  0  0  0  0
 11  6  1  0  0  0  0
 13 17  1  0  0  0  0
 14  2  1  0  0  0  0
 15 28  1  0  0  0  0
 16 20  1  0  0  0  0
 18 25  1  6  0  0  0
 19 18  1  0  0  0  0
 20 15  1  0  0  0  0
 20  3  2  0  0  0  0
 21 13  1  6  0  0  0
 21 27  1  0  0  0  0
 22  6  1  0  0  0  0
 22  2  1  0  0  0  0
 23 10  1  0  0  0  0
 23 30  1  1  0  0  0
 27  1  1  6  0  0  0
 27 25  1  0  0  0  0
 28 23  1  0  0  0  0
 29 35  1  0  0  0  0
 30 29  2  0  0  0  0
 31 30  1  0  0  0  0
 31 34  2  0  0  0  0
 32 34  1  0  0  0  0
 33 35  2  0  0  0  0
 34 33  1  0  0  0  0
 37 36  1  0  0  0  0
M  END
>  <MODEL>
5

>  <REMARK>
 VINA RESULT:      -9.0      0.995      1.271
  Name = 
  2 active torsions:
  status: ('A' for Active; 'I' for Inactive)
    1  A    between atoms: C_4  and  N_37
    2  A    between atoms: C_23  and  C_30
                            x       y       z     vdW  Elec       q    Type
                         _______ _______ _______ _____ _____    ______ ____

>  <TORSDO>
F 2

$$$$
=
 OpenBabel11112417093D

 37 43  0  0  1  0  0  0  0  0999 V2000
  192.7480  171.7530  141.5900 C   0  0  0  0  0  2  0  0  0  0  0  0
  196.3330  174.8210  139.3730 C   0  0  0  0  0  0  0  0  0  0  0  0
  194.2740  175.2910  142.9870 C   0  0  0  0  0  0  0  0  0  0  0  0
  191.8490  170.5530  141.2920 C   0  0  2  0  0  3  0  0  0  0  0  0
  190.7860  175.3530  142.4640 O   0  0  0  0  0  0  0  0  0  0  0  0
  196.2040  175.8300  141.6410 C   0  0  0  0  0  0  0  0  0  0  0  0
  193.0330  174.4600  142.8110 C   0  0  1  0  0  3  0  0  0  0  0  0
  190.1100  171.8880  142.7360 C   0  0  2  0  0  3  0  0  0  0  0  0
  195.0150  175.1610  141.8470 C   0  0  0  0  0  0  0  0  0  0  0  0
  191.7090  174.9430  143.4360 C   0  0  1  0  0  3  0  0  0  0  0  0
  196.7100  176.6270  142.6760 C   0  0  0  0  0  3  0  0  0  0  0  0
  190.4850  170.5850  142.0100 C   0  0  0  0  0  2  0  0  0  0  0  0
  194.3650  174.4530  140.8210 N   0  0  0  0  0  0  0  0  0  0  0  0
  196.9970  173.4680  139.5530 C   0  0  0  0  0  1  0  0  0  0  0  0
  193.9260  176.4090  145.2680 C   0  0  0  0  0  2  0  0  0  0  0  0
  195.9780  176.7550  143.8760 C   0  0  0  0  0  3  0  0  0  0  0  0
  194.7960  174.6470  139.4380 C   0  0  0  0  0  2  0  0  0  0  0  0
  189.9670  173.1170  141.8190 C   0  0  1  0  0  3  0  0  0  0  0  0
  189.7140  174.4490  142.5520 C   0  0  0  0  0  2  0  0  0  0  0  0
  194.7470  176.0900  144.0490 C   0  0  0  0  0  0  0  0  0  0  0  0
  192.9880  174.2830  141.2700 C   0  0  1  0  0  3  0  0  0  0  0  0
  196.8170  175.7270  140.3860 O   0  0  0  0  0  0  0  0  0  0  0  0
  191.8580  175.9500  144.5780 C   0  0  2  0  0  3  0  0  0  0  0  0
  196.7070  175.3610  138.0100 C   0  0  0  0  0  1  0  0  0  0  0  0
  190.8400  173.1780  140.5540 C   0  0  0  0  0  2  0  0  0  0  0  0
  190.9710  172.1220  143.8110 O   0  0  0  0  0  1  0  0  0  0  0  0
  192.3480  172.9900  140.7740 C   0  0  2  0  0  3  0  0  0  0  0  0
  192.8660  175.5150  145.4500 O   0  0  0  0  0  0  0  0  0  0  0  0
  189.7580  177.2400  145.1270 C   0  0  0  0  0  3  0  0  0  0  0  0
  190.5710  176.1140  145.3240 C   0  0  0  0  0  0  0  0  0  0  0  0
  190.1880  175.1380  146.2520 C   0  0  0  0  0  3  0  0  0  0  0  0
  188.6310  174.3330  147.8670 F   0  0  0  0  0  0  0  0  0  0  0  0
  188.1900  176.4040  146.7690 C   0  0  0  0  0  3  0  0  0  0  0  0
  188.9990  175.2820  146.9710 C   0  0  0  0  0  0  0  0  0  0  0  0
  188.5700  177.3830  145.8480 C   0  0  0  0  0  3  0  0  0  0  0  0
  193.2420  169.5640  142.8890 C   0  0  0  0  0  1  0  0  0  0  0  0
  192.5420  169.3240  141.6390 N   0  0  0  0  0  2  0  0  0  0  0  0
  2 17  1  0  0  0  0
  2 14  1  0  0  0  0
  2 22  1  0  0  0  0
  3 20  1  0  0  0  0
  4  1  1  0  0  0  0
  4 37  1  1  0  0  0
  4 12  1  0  0  0  0
  5 19  1  0  0  0  0
  6  9  1  0  0  0  0
  6 11  2  0  0  0  0
  7  3  1  6  0  0  0
  7 10  1  0  0  0  0
  8 26  1  1  0  0  0
  9  3  2  0  0  0  0
 10  5  1  6  0  0  0
 10 23  1  0  0  0  0
 11 16  1  0  0  0  0
 12  8  1  0  0  0  0
 13  9  1  0  0  0  0
 15 28  1  0  0  0  0
 16 20  2  0  0  0  0
 17 13  1  0  0  0  0
 18 25  1  1  0  0  0
 18 19  1  0  0  0  0
 18  8  1  0  0  0  0
 20 15  1  0  0  0  0
 21 13  1  1  0  0  0
 21  7  1  0  0  0  0
 22  6  1  0  0  0  0
 23 30  1  1  0  0  0
 23 28  1  0  0  0  0
 24  2  1  0  0  0  0
 27 25  1  1  0  0  0
 27 21  1  0  0  0  0
 27  1  1  0  0  0  0
 29 30  2  0  0  0  0
 29 35  1  0  0  0  0
 30 31  1  0  0  0  0
 31 34  2  0  0  0  0
 33 34  1  0  0  0  0
 34 32  1  0  0  0  0
 35 33  2  0  0  0  0
 37 36  1  0  0  0  0
M  END
>  <MODEL>
6

>  <REMARK>
 VINA RESULT:      -8.7      3.262      6.241
  Name = 
  2 active torsions:
  status: ('A' for Active; 'I' for Inactive)
    1  A    between atoms: C_4  and  N_37
    2  A    between atoms: C_23  and  C_30
                            x       y       z     vdW  Elec       q    Type
                         _______ _______ _______ _____ _____    ______ ____

>  <TORSDO>
F 2

$$$$
=
 OpenBabel11112417093D

 37 43  0  0  1  0  0  0  0  0999 V2000
  190.7340  175.5510  145.4740 C   0  0  0  0  0  2  0  0  0  0  0  0
  187.3160  176.7160  141.7140 C   0  0  0  0  0  0  0  0  0  0  0  0
  190.6110  174.1360  141.6290 C   0  0  0  0  0  0  0  0  0  0  0  0
  191.1850  176.0010  146.8630 C   0  0  2  0  0  3  0  0  0  0  0  0
  193.5900  175.8530  142.4200 O   0  0  0  0  0  0  0  0  0  0  0  0
  188.4810  174.7750  140.6890 C   0  0  0  0  0  0  0  0  0  0  0  0
  191.4950  174.6370  142.7380 C   0  0  1  0  0  3  0  0  0  0  0  0
  193.5730  175.4270  145.9350 C   0  0  2  0  0  3  0  0  0  0  0  0
  189.4930  174.9200  141.6160 C   0  0  0  0  0  0  0  0  0  0  0  0
  193.0260  174.5780  142.5650 C   0  0  1  0  0  3  0  0  0  0  0  0
  188.5720  173.7300  139.7600 C   0  0  0  0  0  3  0  0  0  0  0  0
  192.6920  175.8160  147.1340 C   0  0  0  0  0  2  0  0  0  0  0  0
  189.5550  176.0180  142.4930 N   0  0  0  0  0  0  0  0  0  0  0  0
  186.4960  176.1560  142.8620 C   0  0  0  0  0  1  0  0  0  0  0  0
  192.0020  172.2720  140.5510 C   0  0  0  0  0  2  0  0  0  0  0  0
  189.7040  172.8870  139.7710 C   0  0  0  0  0  3  0  0  0  0  0  0
  188.6960  177.1740  142.2480 C   0  0  0  0  0  2  0  0  0  0  0  0
  193.6230  176.4750  144.8070 C   0  0  1  0  0  3  0  0  0  0  0  0
  194.4030  176.0410  143.5520 C   0  0  0  0  0  2  0  0  0  0  0  0
  190.7430  173.0790  140.7060 C   0  0  0  0  0  0  0  0  0  0  0  0
  190.9310  176.0640  142.9720 C   0  0  1  0  0  3  0  0  0  0  0  0
  187.4410  175.7130  140.6850 O   0  0  0  0  0  0  0  0  0  0  0  0
  193.5240  173.5830  141.5140 C   0  0  2  0  0  3  0  0  0  0  0  0
  186.5890  177.9160  141.1450 C   0  0  0  0  0  1  0  0  0  0  0  0
  192.3790  177.3510  144.5820 C   0  0  0  0  0  2  0  0  0  0  0  0
  193.2390  174.1540  145.4660 O   0  0  0  0  0  1  0  0  0  0  0  0
  191.0560  176.5960  144.3970 C   0  0  2  0  0  3  0  0  0  0  0  0
  192.8410  172.3690  141.6660 O   0  0  0  0  0  0  0  0  0  0  0  0
  195.8850  173.8170  140.6500 C   0  0  0  0  0  3  0  0  0  0  0  0
  194.9990  173.3620  141.6380 C   0  0  0  0  0  0  0  0  0  0  0  0
  195.4960  172.6650  142.7460 C   0  0  0  0  0  3  0  0  0  0  0  0
  197.3450  171.7590  143.9470 F   0  0  0  0  0  0  0  0  0  0  0  0
  197.7480  172.8900  141.8860 C   0  0  0  0  0  3  0  0  0  0  0  0
  196.8680  172.4320  142.8710 C   0  0  0  0  0  0  0  0  0  0  0  0
  197.2560  173.5810  140.7760 C   0  0  0  0  0  3  0  0  0  0  0  0
  189.1830  174.8620  147.2630 C   0  0  0  0  0  1  0  0  0  0  0  0
  190.4270  175.2910  147.8790 N   0  0  0  0  0  2  0  0  0  0  0  0
  1  4  1  0  0  0  0
  2 17  1  0  0  0  0
  2 14  1  0  0  0  0
  4 12  1  0  0  0  0
  4 37  1  1  0  0  0
  5 19  1  0  0  0  0
  6  9  2  0  0  0  0
  7  3  1  6  0  0  0
  7 21  1  0  0  0  0
  8 26  1  6  0  0  0
  8 12  1  0  0  0  0
  9  3  1  0  0  0  0
  9 13  1  0  0  0  0
 10  5  1  6  0  0  0
 10  7  1  0  0  0  0
 11 16  2  0  0  0  0
 11  6  1  0  0  0  0
 15 20  1  0  0  0  0
 15 28  1  0  0  0  0
 16 20  1  0  0  0  0
 17 13  1  0  0  0  0
 18 19  1  6  0  0  0
 18  8  1  0  0  0  0
 20  3  2  0  0  0  0
 21 13  1  1  0  0  0
 21 27  1  0  0  0  0
 22  6  1  0  0  0  0
 22  2  1  0  0  0  0
 23 30  1  1  0  0  0
 23 28  1  0  0  0  0
 23 10  1  0  0  0  0
 24  2  1  0  0  0  0
 25 18  1  0  0  0  0
 27 25  1  1  0  0  0
 27  1  1  0  0  0  0
 29 35  2  0  0  0  0
 29 30  1  0  0  0  0
 30 31  2  0  0  0  0
 31 34  1  0  0  0  0
 33 34  2  0  0  0  0
 34 32  1  0  0  0  0
 35 33  1  0  0  0  0
 36 37  1  0  0  0  0
M  END
>  <MODEL>
7

>  <REMARK>
 VINA RESULT:      -8.5      3.593      7.151
  Name = 
  2 active torsions:
  status: ('A' for Active; 'I' for Inactive)
    1  A    between atoms: C_4  and  N_37
    2  A    between atoms: C_23  and  C_30
                            x       y       z     vdW  Elec       q    Type
                         _______ _______ _______ _____ _____    ______ ____

>  <TORSDO>
F 2

$$$$
=
 OpenBabel11112417093D

 37 43  0  0  1  0  0  0  0  0999 V2000
  194.8730  174.7870  143.9080 C   0  0  0  0  0  2  0  0  0  0  0  0
  194.5600  169.5840  143.7980 C   0  0  0  0  0  0  0  0  0  0  0  0
  191.5680  172.4570  143.2400 C   0  0  0  0  0  0  0  0  0  0  0  0
  195.8200  175.9220  144.2980 C   0  0  2  0  0  3  0  0  0  0  0  0
  191.2820  174.5600  146.0590 O   0  0  0  0  0  0  0  0  0  0  0  0
  192.3350  170.1970  142.8770 C   0  0  0  0  0  0  0  0  0  0  0  0
  192.1030  173.6810  143.9320 C   0  0  1  0  0  3  0  0  0  0  0  0
  193.6090  177.0630  145.1360 C   0  0  2  0  0  3  0  0  0  0  0  0
  192.5130  171.4780  143.3580 C   0  0  0  0  0  0  0  0  0  0  0  0
  191.1240  174.6180  144.6670 C   0  0  1  0  0  3  0  0  0  0  0  0
  191.1580  169.9050  142.1740 C   0  0  0  0  0  3  0  0  0  0  0  0
  195.1150  177.1800  144.8440 C   0  0  0  0  0  2  0  0  0  0  0  0
  193.5930  171.8250  144.1890 N   0  0  0  0  0  0  0  0  0  0  0  0
  195.5740  169.9620  142.7340 C   0  0  0  0  0  1  0  0  0  0  0  0
  189.2160  173.1660  142.5050 C   0  0  0  0  0  2  0  0  0  0  0  0
  190.1780  170.9080  142.0130 C   0  0  0  0  0  3  0  0  0  0  0  0
  194.3980  170.7630  144.7900 C   0  0  0  0  0  2  0  0  0  0  0  0
  193.2440  176.0450  146.2330 C   0  0  1  0  0  3  0  0  0  0  0  0
  191.7320  175.8340  146.4440 C   0  0  0  0  0  2  0  0  0  0  0  0
  190.3680  172.2000  142.5460 C   0  0  0  0  0  0  0  0  0  0  0  0
  193.2100  173.0740  144.8350 C   0  0  1  0  0  3  0  0  0  0  0  0
  193.3120  169.2360  143.1640 O   0  0  0  0  0  0  0  0  0  0  0  0
  189.6620  174.5050  144.2290 C   0  0  2  0  0  3  0  0  0  0  0  0
  195.0820  168.3800  144.5520 C   0  0  0  0  0  1  0  0  0  0  0  0
  194.1460  174.8120  146.4000 C   0  0  0  0  0  2  0  0  0  0  0  0
  192.8900  176.8580  143.9560 O   0  0  0  0  0  1  0  0  0  0  0  0
  194.3950  173.9890  145.1280 C   0  0  2  0  0  3  0  0  0  0  0  0
  189.6000  174.4720  142.8290 O   0  0  0  0  0  0  0  0  0  0  0  0
  188.7970  176.8710  144.0590 C   0  0  0  0  0  3  0  0  0  0  0  0
  188.8530  175.6520  144.7500 C   0  0  0  0  0  0  0  0  0  0  0  0
  188.1660  175.5100  145.9610 C   0  0  0  0  0  3  0  0  0  0  0  0
  186.7540  176.4320  147.6460 F   0  0  0  0  0  0  0  0  0  0  0  0
  187.3630  177.7870  145.7810 C   0  0  0  0  0  3  0  0  0  0  0  0
  187.4200  176.5740  146.4740 C   0  0  0  0  0  0  0  0  0  0  0  0
  188.0520  177.9350  144.5740 C   0  0  0  0  0  3  0  0  0  0  0  0
  195.7640  176.3400  141.9990 C   0  0  0  0  0  1  0  0  0  0  0  0
  196.6390  176.2910  143.1570 N   0  0  0  0  0  2  0  0  0  0  0  0
  1  4  1  0  0  0  0
  2 24  1  0  0  0  0
  2 17  1  0  0  0  0
  3  9  1  0  0  0  0
  4 37  1  6  0  0  0
  4 12  1  0  0  0  0
  5 19  1  0  0  0  0
  6 22  1  0  0  0  0
  6  9  2  0  0  0  0
  7  3  1  1  0  0  0
  7 10  1  0  0  0  0
  7 21  1  0  0  0  0
  8 26  1  6  0  0  0
  8 18  1  0  0  0  0
  9 13  1  0  0  0  0
 10  5  1  1  0  0  0
 11  6  1  0  0  0  0
 12  8  1  0  0  0  0
 13 17  1  0  0  0  0
 14  2  1  0  0  0  0
 15 20  1  0  0  0  0
 15 28  1  0  0  0  0
 16 11  2  0  0  0  0
 16 20  1  0  0  0  0
 18 25  1  6  0  0  0
 18 19  1  0  0  0  0
 20  3  2  0  0  0  0
 21 13  1  6  0  0  0
 21 27  1  0  0  0  0
 22  2  1  0  0  0  0
 23 10  1  0  0  0  0
 23 30  1  6  0  0  0
 27  1  1  6  0  0  0
 27 25  1  0  0  0  0
 28 23  1  0  0  0  0
 29 35  2  0  0  0  0
 29 30  1  0  0  0  0
 30 31  2  0  0  0  0
 31 34  1  0  0  0  0
 33 34  2  0  0  0  0
 34 32  1  0  0  0  0
 35 33  1  0  0  0  0
 36 37  1  0  0  0  0
M  END
>  <MODEL>
8

>  <REMARK>
 VINA RESULT:      -8.4      2.452      3.844
  Name = 
  2 active torsions:
  status: ('A' for Active; 'I' for Inactive)
    1  A    between atoms: C_4  and  N_37
    2  A    between atoms: C_23  and  C_30
                            x       y       z     vdW  Elec       q    Type
                         _______ _______ _______ _____ _____    ______ ____

>  <TORSDO>
F 2

$$$$
=
 OpenBabel11112417093D

 37 43  0  0  1  0  0  0  0  0999 V2000
  190.2260  174.0890  142.3430 C   0  0  0  0  0  2  0  0  0  0  0  0
  195.0520  176.0410  142.6170 C   0  0  0  0  0  0  0  0  0  0  0  0
  191.9630  176.1360  145.4390 C   0  0  0  0  0  0  0  0  0  0  0  0
  189.2310  173.4880  141.3490 C   0  0  2  0  0  3  0  0  0  0  0  0
  189.0900  177.7080  144.1270 O   0  0  0  0  0  0  0  0  0  0  0  0
  194.3300  176.2690  144.9840 C   0  0  0  0  0  0  0  0  0  0  0  0
  190.7150  175.9520  144.6210 C   0  0  1  0  0  3  0  0  0  0  0  0
  187.4850  174.8790  142.7290 C   0  0  2  0  0  3  0  0  0  0  0  0
  193.0230  176.0870  144.5810 C   0  0  0  0  0  0  0  0  0  0  0  0
  189.4280  176.6940  145.0340 C   0  0  1  0  0  3  0  0  0  0  0  0
  194.5880  176.4450  146.3500 C   0  0  0  0  0  3  0  0  0  0  0  0
  187.7560  173.8250  141.6420 C   0  0  0  0  0  2  0  0  0  0  0  0
  192.6560  176.0410  143.2230 N   0  0  0  0  0  0  0  0  0  0  0  0
  195.2190  174.5520  142.3700 C   0  0  0  0  0  1  0  0  0  0  0  0
  191.0700  176.5400  147.8090 C   0  0  0  0  0  2  0  0  0  0  0  0
  193.5120  176.4710  147.2630 C   0  0  0  0  0  3  0  0  0  0  0  0
  193.6200  176.4670  142.2110 C   0  0  0  0  0  2  0  0  0  0  0  0
  188.0300  176.2840  142.4140 C   0  0  1  0  0  3  0  0  0  0  0  0
  187.8710  177.3130  143.5490 C   0  0  0  0  0  2  0  0  0  0  0  0
  192.1810  176.3190  146.8210 C   0  0  0  0  0  0  0  0  0  0  0  0
  191.2200  176.2910  143.1930 C   0  0  1  0  0  3  0  0  0  0  0  0
  195.3280  176.3270  144.0040 O   0  0  0  0  0  0  0  0  0  0  0  0
  189.3830  177.1580  146.4910 C   0  0  2  0  0  3  0  0  0  0  0  0
  196.0480  176.7840  141.7540 C   0  0  0  0  0  1  0  0  0  0  0  0
  189.3050  176.3870  141.5600 C   0  0  0  0  0  2  0  0  0  0  0  0
  187.8950  174.4160  143.9820 O   0  0  0  0  0  1  0  0  0  0  0  0
  190.5070  175.5690  142.0530 C   0  0  2  0  0  3  0  0  0  0  0  0
  189.8270  176.1200  147.3210 O   0  0  0  0  0  0  0  0  0  0  0  0
  187.7770  178.7310  147.6410 C   0  0  0  0  0  3  0  0  0  0  0  0
  187.9990  177.5710  146.8830 C   0  0  0  0  0  0  0  0  0  0  0  0
  186.9130  176.7710  146.5080 C   0  0  0  0  0  3  0  0  0  0  0  0
  184.5670  176.3530  146.5130 F   0  0  0  0  0  0  0  0  0  0  0  0
  185.3970  178.2870  147.6320 C   0  0  0  0  0  3  0  0  0  0  0  0
  185.6150  177.1300  146.8800 C   0  0  0  0  0  0  0  0  0  0  0  0
  186.4780  179.0870  148.0130 C   0  0  0  0  0  3  0  0  0  0  0  0
  189.6940  171.6080  142.6590 C   0  0  0  0  0  1  0  0  0  0  0  0
  189.3920  172.0450  141.3070 N   0  0  0  0  0  2  0  0  0  0  0  0
  2 22  1  0  0  0  0
  3 20  1  0  0  0  0
  4 37  1  1  0  0  0
  4 12  1  0  0  0  0
  4  1  1  0  0  0  0
  6 11  2  0  0  0  0
  7 10  1  0  0  0  0
  7  3  1  1  0  0  0
  8 26  1  1  0  0  0
  9  6  1  0  0  0  0
  9  3  2  0  0  0  0
 10  5  1  6  0  0  0
 10 23  1  0  0  0  0
 11 16  1  0  0  0  0
 12  8  1  0  0  0  0
 13  9  1  0  0  0  0
 14  2  1  0  0  0  0
 17  2  1  0  0  0  0
 17 13  1  0  0  0  0
 18 25  1  1  0  0  0
 18  8  1  0  0  0  0
 18 19  1  0  0  0  0
 19  5  1  0  0  0  0
 20 16  2  0  0  0  0
 20 15  1  0  0  0  0
 21 13  1  1  0  0  0
 21  7  1  0  0  0  0
 22  6  1  0  0  0  0
 23 30  1  1  0  0  0
 23 28  1  0  0  0  0
 24  2  1  0  0  0  0
 27 25  1  1  0  0  0
 27  1  1  0  0  0  0
 27 21  1  0  0  0  0
 28 15  1  0  0  0  0
 29 35  1  0  0  0  0
 30 29  2  0  0  0  0
 31 34  2  0  0  0  0
 31 30  1  0  0  0  0
 32 34  1  0  0  0  0
 33 35  2  0  0  0  0
 34 33  1  0  0  0  0
 37 36  1  0  0  0  0
M  END
>  <MODEL>
9

>  <REMARK>
 VINA RESULT:      -8.3      2.071      5.452
  Name = 
  2 active torsions:
  status: ('A' for Active; 'I' for Inactive)
    1  A    between atoms: C_4  and  N_37
    2  A    between atoms: C_23  and  C_30
                            x       y       z     vdW  Elec       q    Type
                         _______ _______ _______ _____ _____    ______ ____

>  <TORSDO>
F 2

$$$$
