=
 OpenBabel11112416243D

 30 35  0  0  1  0  0  0  0  0999 V2000
  188.5260  177.9530  143.7670 C   0  0  0  0  0  0  0  0  0  0  0  0
  186.2050  178.5870  144.6100 C   0  0  0  0  0  0  0  0  0  0  0  0
  188.9310  175.4480  147.1530 N   0  0  0  0  0  2  0  0  0  0  0  0
  189.8270  177.1120  144.0000 C   0  0  0  0  0  0  0  0  0  0  0  0
  188.0400  177.8660  142.3190 C   0  0  0  0  0  2  0  0  0  0  0  0
  189.2890  174.5890  141.4280 O   0  0  0  0  0  0  0  0  0  0  0  0
  192.5090  175.9670  143.9060 C   0  0  1  0  0  3  0  0  0  0  0  0
  189.1330  175.6860  142.0320 C   0  0  0  0  0  0  0  0  0  0  0  0
  192.0380  175.3250  145.1240 N   0  0  0  0  0  0  0  0  0  0  0  0
  190.2990  174.9370  147.0370 C   0  0  2  0  0  3  0  0  0  0  0  0
  187.8270  176.4150  141.9190 C   0  0  2  0  0  3  0  0  0  0  0  0
  190.1690  176.2000  142.8930 N   0  0  0  0  0  0  0  0  0  0  0  0
  185.1440  178.4700  145.5110 C   0  0  0  0  0  3  0  0  0  0  0  0
  193.0090  174.4060  145.5910 C   0  0  0  0  0  3  0  0  0  0  0  0
  193.8760  175.3230  143.6470 C   0  0  0  0  0  2  0  0  0  0  0  0
  186.0900  179.4690  143.5860 F   0  0  0  0  0  0  0  0  0  0  0  0
  188.7060  176.2380  146.1550 C   0  0  0  0  0  0  0  0  0  0  0  0
  185.2330  177.6010  146.5980 C   0  0  0  0  0  3  0  0  0  0  0  0
  187.3730  177.8110  144.7720 C   0  0  0  0  0  0  0  0  0  0  0  0
  189.8360  176.3640  145.2940 C   0  0  0  0  0  0  0  0  0  0  0  0
  191.1160  175.3940  148.2320 C   0  0  0  0  0  1  0  0  0  0  0  0
  190.7950  175.6000  145.7860 C   0  0  2  0  0  3  0  0  0  0  0  0
  194.0570  174.3760  144.7900 C   0  0  0  0  0  3  0  0  0  0  0  0
  191.9160  175.1630  141.7190 O   0  0  0  0  0  0  0  0  0  0  0  0
  186.3940  176.8570  146.7980 C   0  0  0  0  0  3  0  0  0  0  0  0
  187.4650  176.9640  145.9030 C   0  0  0  0  0  0  0  0  0  0  0  0
  191.5330  175.7380  142.7750 C   0  0  0  0  0  0  0  0  0  0  0  0
  187.2850  176.3510  140.4960 C   0  0  0  0  0  2  0  0  0  0  0  0
  185.2990  177.6090  140.0700 O   0  0  0  0  0  1  0  0  0  0  0  0
  186.6920  177.6860  140.0770 C   0  0  0  0  0  2  0  0  0  0  0  0
  1  4  2  0  0  0  0
  1 19  1  0  0  0  0
  2 19  2  0  0  0  0
  2 13  1  0  0  0  0
  4 20  1  0  0  0  0
  5  1  1  0  0  0  0
  6  8  2  0  0  0  0
  7 15  1  6  0  0  0
  7  9  1  0  0  0  0
  8 12  1  0  0  0  0
  9 14  1  0  0  0  0
  9 22  1  0  0  0  0
 10  3  1  0  0  0  0
 10 21  1  1  0  0  0
 11 28  1  6  0  0  0
 11  8  1  0  0  0  0
 11  5  1  0  0  0  0
 12  4  1  0  0  0  0
 13 18  2  0  0  0  0
 15 23  1  0  0  0  0
 16  2  1  0  0  0  0
 17  3  1  0  0  0  0
 18 25  1  0  0  0  0
 19 26  1  0  0  0  0
 20 17  2  0  0  0  0
 22 20  1  6  0  0  0
 22 10  1  0  0  0  0
 23 14  2  0  0  0  0
 24 27  2  0  0  0  0
 26 17  1  0  0  0  0
 26 25  2  0  0  0  0
 27 12  1  0  0  0  0
 27  7  1  0  0  0  0
 29 30  1  0  0  0  0
 30 28  1  0  0  0  0
M  END
>  <MODEL>
1

>  <REMARK>
 VINA RESULT:      -8.9      0.000      0.000
  Name = 
  2 active torsions:
  status: ('A' for Active; 'I' for Inactive)
    1  A    between atoms: C_11  and  C_28
    2  A    between atoms: C_28  and  C_30
                            x       y       z     vdW  Elec       q    Type
                         _______ _______ _______ _____ _____    ______ ____

>  <TORSDO>
F 2

$$$$
=
 OpenBabel11112416243D

 30 35  0  0  1  0  0  0  0  0999 V2000
  188.9550  177.4240  143.3830 C   0  0  0  0  0  0  0  0  0  0  0  0
  186.4590  177.6230  143.8600 C   0  0  0  0  0  0  0  0  0  0  0  0
  189.4900  176.1650  147.3870 N   0  0  0  0  0  2  0  0  0  0  0  0
  190.3770  177.0610  143.9330 C   0  0  0  0  0  0  0  0  0  0  0  0
  188.7030  176.8110  142.0040 C   0  0  0  0  0  2  0  0  0  0  0  0
  190.8050  173.8730  142.2230 O   0  0  0  0  0  0  0  0  0  0  0  0
  193.2420  176.6950  144.3440 C   0  0  1  0  0  3  0  0  0  0  0  0
  190.3120  175.0110  142.4560 C   0  0  0  0  0  0  0  0  0  0  0  0
  192.7800  176.3170  145.6710 N   0  0  0  0  0  0  0  0  0  0  0  0
  190.9440  176.0280  147.5100 C   0  0  2  0  0  3  0  0  0  0  0  0
  188.8970  175.3030  142.0530 C   0  0  2  0  0  3  0  0  0  0  0  0
  191.0710  176.0030  143.1770 N   0  0  0  0  0  0  0  0  0  0  0  0
  185.3460  177.4820  144.6920 C   0  0  0  0  0  3  0  0  0  0  0  0
  193.8700  175.8590  146.4490 C   0  0  0  0  0  3  0  0  0  0  0  0
  194.7450  176.3950  144.3710 C   0  0  0  0  0  2  0  0  0  0  0  0
  186.2740  178.1210  142.6110 F   0  0  0  0  0  0  0  0  0  0  0  0
  189.2180  176.5560  146.1850 C   0  0  0  0  0  0  0  0  0  0  0  0
  185.4930  177.0070  145.9950 C   0  0  0  0  0  3  0  0  0  0  0  0
  187.7460  177.2650  144.3160 C   0  0  0  0  0  0  0  0  0  0  0  0
  190.3910  176.7340  145.3920 C   0  0  0  0  0  0  0  0  0  0  0  0
  191.4610  177.0010  148.5530 C   0  0  0  0  0  1  0  0  0  0  0  0
  191.4300  176.4230  146.1460 C   0  0  2  0  0  3  0  0  0  0  0  0
  194.9920  175.8880  145.7570 C   0  0  0  0  0  3  0  0  0  0  0  0
  193.1550  175.1860  142.4750 O   0  0  0  0  0  0  0  0  0  0  0  0
  186.7610  176.6870  146.4770 C   0  0  0  0  0  3  0  0  0  0  0  0
  187.8850  176.8230  145.6550 C   0  0  0  0  0  0  0  0  0  0  0  0
  192.5090  175.9080  143.2820 C   0  0  0  0  0  0  0  0  0  0  0  0
  188.5810  174.7030  140.6880 C   0  0  0  0  0  2  0  0  0  0  0  0
  187.4590  173.0290  141.9710 O   0  0  0  0  0  1  0  0  0  0  0  0
  188.2050  173.2350  140.8110 C   0  0  0  0  0  2  0  0  0  0  0  0
  1  4  2  0  0  0  0
  1 19  1  0  0  0  0
  2 19  2  0  0  0  0
  2 13  1  0  0  0  0
  3 10  1  0  0  0  0
  4 20  1  0  0  0  0
  5 11  1  0  0  0  0
  5  1  1  0  0  0  0
  6  8  2  0  0  0  0
  7 15  1  1  0  0  0
  7  9  1  0  0  0  0
  8 12  1  0  0  0  0
  9 22  1  0  0  0  0
  9 14  1  0  0  0  0
 10 21  1  1  0  0  0
 11 28  1  6  0  0  0
 11  8  1  0  0  0  0
 12 27  1  0  0  0  0
 12  4  1  0  0  0  0
 13 18  2  0  0  0  0
 15 23  1  0  0  0  0
 16  2  1  0  0  0  0
 17  3  1  0  0  0  0
 18 25  1  0  0  0  0
 19 26  1  0  0  0  0
 20 17  2  0  0  0  0
 22 20  1  6  0  0  0
 22 10  1  0  0  0  0
 23 14  2  0  0  0  0
 24 27  2  0  0  0  0
 26 17  1  0  0  0  0
 26 25  2  0  0  0  0
 27  7  1  0  0  0  0
 28 30  1  0  0  0  0
 30 29  1  0  0  0  0
M  END
>  <MODEL>
2

>  <REMARK>
 VINA RESULT:      -8.3      1.629      1.824
  Name = 
  2 active torsions:
  status: ('A' for Active; 'I' for Inactive)
    1  A    between atoms: C_11  and  C_28
    2  A    between atoms: C_28  and  C_30
                            x       y       z     vdW  Elec       q    Type
                         _______ _______ _______ _____ _____    ______ ____

>  <TORSDO>
F 2

$$$$
=
 OpenBabel11112416243D

 30 35  0  0  1  0  0  0  0  0999 V2000
  188.0720  177.2970  142.2370 C   0  0  0  0  0  0  0  0  0  0  0  0
  185.8100  177.8630  141.2090 C   0  0  0  0  0  0  0  0  0  0  0  0
  186.2900  177.6800  146.0560 N   0  0  0  0  0  2  0  0  0  0  0  0
  188.9050  177.0690  143.5450 C   0  0  0  0  0  0  0  0  0  0  0  0
  188.3410  176.2120  141.1930 C   0  0  0  0  0  2  0  0  0  0  0  0
  189.1930  173.4420  143.3610 O   0  0  0  0  0  0  0  0  0  0  0  0
  191.0130  176.6710  145.5210 C   0  0  1  0  0  3  0  0  0  0  0  0
  188.9830  174.6150  142.9450 C   0  0  0  0  0  0  0  0  0  0  0  0
  189.8970  176.8840  146.4310 N   0  0  0  0  0  0  0  0  0  0  0  0
  187.4130  177.4880  146.9770 C   0  0  2  0  0  3  0  0  0  0  0  0
  188.0680  174.8350  141.7780 C   0  0  2  0  0  3  0  0  0  0  0  0
  189.5530  175.7480  143.6330 N   0  0  0  0  0  0  0  0  0  0  0  0
  184.4460  178.1500  141.3070 C   0  0  0  0  0  3  0  0  0  0  0  0
  190.3190  176.6860  147.7670 C   0  0  0  0  0  3  0  0  0  0  0  0
  192.1790  176.2880  146.4420 C   0  0  0  0  0  2  0  0  0  0  0  0
  186.3790  177.8410  139.9780 F   0  0  0  0  0  0  0  0  0  0  0  0
  186.7350  177.5850  144.8450 C   0  0  0  0  0  0  0  0  0  0  0  0
  183.8260  178.2170  142.5540 C   0  0  0  0  0  3  0  0  0  0  0  0
  186.5750  177.6140  142.3690 C   0  0  0  0  0  0  0  0  0  0  0  0
  188.1400  177.3440  144.7990 C   0  0  0  0  0  0  0  0  0  0  0  0
  187.6220  178.7500  147.7940 C   0  0  0  0  0  1  0  0  0  0  0  0
  188.5710  177.2740  146.0470 C   0  0  2  0  0  3  0  0  0  0  0  0
  191.5940  176.3510  147.8170 C   0  0  0  0  0  3  0  0  0  0  0  0
  191.4060  174.5590  144.4420 O   0  0  0  0  0  0  0  0  0  0  0  0
  184.5730  178.0140  143.7120 C   0  0  0  0  0  3  0  0  0  0  0  0
  185.9400  177.7260  143.6300 C   0  0  0  0  0  0  0  0  0  0  0  0
  190.6820  175.5900  144.5190 C   0  0  0  0  0  0  0  0  0  0  0  0
  188.2800  173.7720  140.7060 C   0  0  0  0  0  2  0  0  0  0  0  0
  188.1790  173.3870  138.3510 O   0  0  0  0  0  1  0  0  0  0  0  0
  188.2740  174.3880  139.3170 C   0  0  0  0  0  2  0  0  0  0  0  0
  1 19  2  0  0  0  0
  1  4  1  0  0  0  0
  2 13  2  0  0  0  0
  2 19  1  0  0  0  0
  3 10  1  0  0  0  0
  4 12  1  0  0  0  0
  4 20  2  0  0  0  0
  5 11  1  0  0  0  0
  5  1  1  0  0  0  0
  7  9  1  0  0  0  0
  7 15  1  1  0  0  0
  8  6  2  0  0  0  0
  8 12  1  0  0  0  0
  9 14  1  0  0  0  0
 10 21  1  6  0  0  0
 11 28  1  6  0  0  0
 11  8  1  0  0  0  0
 12 27  1  0  0  0  0
 13 18  1  0  0  0  0
 14 23  2  0  0  0  0
 15 23  1  0  0  0  0
 16  2  1  0  0  0  0
 17  3  1  0  0  0  0
 18 25  2  0  0  0  0
 19 26  1  0  0  0  0
 20 17  1  0  0  0  0
 22 20  1  6  0  0  0
 22  9  1  0  0  0  0
 22 10  1  0  0  0  0
 24 27  2  0  0  0  0
 26 25  1  0  0  0  0
 26 17  2  0  0  0  0
 27  7  1  0  0  0  0
 29 30  1  0  0  0  0
 30 28  1  0  0  0  0
M  END
>  <MODEL>
3

>  <REMARK>
 VINA RESULT:      -8.1      2.124      3.205
  Name = 
  2 active torsions:
  status: ('A' for Active; 'I' for Inactive)
    1  A    between atoms: C_11  and  C_28
    2  A    between atoms: C_28  and  C_30
                            x       y       z     vdW  Elec       q    Type
                         _______ _______ _______ _____ _____    ______ ____

>  <TORSDO>
F 2

$$$$
=
 OpenBabel11112416243D

 30 35  0  0  1  0  0  0  0  0999 V2000
  190.5830  177.4540  144.3900 C   0  0  0  0  0  0  0  0  0  0  0  0
  192.6290  176.1830  143.5560 C   0  0  0  0  0  0  0  0  0  0  0  0
  188.3450  175.6260  141.3000 N   0  0  0  0  0  2  0  0  0  0  0  0
  189.0550  177.7530  144.2140 C   0  0  0  0  0  0  0  0  0  0  0  0
  190.9500  177.2010  145.8540 C   0  0  0  0  0  2  0  0  0  0  0  0
  187.8160  175.8630  147.0710 O   0  0  0  0  0  0  0  0  0  0  0  0
  186.3510  178.8400  144.3510 C   0  0  1  0  0  3  0  0  0  0  0  0
  188.6610  176.4630  146.3520 C   0  0  0  0  0  0  0  0  0  0  0  0
  186.1660  177.9320  143.2290 N   0  0  0  0  0  0  0  0  0  0  0  0
  187.0210  176.2400  141.4290 C   0  0  2  0  0  3  0  0  0  0  0  0
  190.1070  176.0710  146.4230 C   0  0  2  0  0  3  0  0  0  0  0  0
  188.2360  177.4650  145.4050 N   0  0  0  0  0  0  0  0  0  0  0  0
  193.2500  175.2620  142.7090 C   0  0  0  0  0  3  0  0  0  0  0  0
  184.8060  177.9190  142.8390 C   0  0  0  0  0  3  0  0  0  0  0  0
  184.9430  179.3740  144.6370 C   0  0  0  0  0  2  0  0  0  0  0  0
  193.3880  176.8280  144.4770 F   0  0  0  0  0  0  0  0  0  0  0  0
  189.1160  176.1270  142.2080 C   0  0  0  0  0  0  0  0  0  0  0  0
  192.5150  174.6000  141.7250 C   0  0  0  0  0  3  0  0  0  0  0  0
  191.2450  176.4410  143.4460 C   0  0  0  0  0  0  0  0  0  0  0  0
  188.4500  177.0990  143.0130 C   0  0  0  0  0  0  0  0  0  0  0  0
  186.6930  177.0130  140.1640 C   0  0  0  0  0  1  0  0  0  0  0  0
  187.2050  177.1840  142.5810 C   0  0  2  0  0  3  0  0  0  0  0  0
  184.0850  178.7170  143.6030 C   0  0  0  0  0  3  0  0  0  0  0  0
  186.3340  178.0830  146.6330 O   0  0  0  0  0  0  0  0  0  0  0  0
  191.1560  174.8720  141.5740 C   0  0  0  0  0  3  0  0  0  0  0  0
  190.5210  175.7920  142.4160 C   0  0  0  0  0  0  0  0  0  0  0  0
  186.9500  178.1100  145.5310 C   0  0  0  0  0  0  0  0  0  0  0  0
  190.5290  175.7920  147.8610 C   0  0  0  0  0  2  0  0  0  0  0  0
  191.5540  177.5370  149.1290 O   0  0  0  0  0  1  0  0  0  0  0  0
  191.8150  176.5260  148.2050 C   0  0  0  0  0  2  0  0  0  0  0  0
  1  5  1  0  0  0  0
  2 16  1  0  0  0  0
  3 10  1  0  0  0  0
  3 17  1  0  0  0  0
  4  1  1  0  0  0  0
  4 12  1  0  0  0  0
  5 11  1  0  0  0  0
  7 15  1  1  0  0  0
  7 27  1  0  0  0  0
  8 11  1  0  0  0  0
  8  6  2  0  0  0  0
  9  7  1  0  0  0  0
 10 21  1  6  0  0  0
 10 22  1  0  0  0  0
 11 28  1  1  0  0  0
 12 27  1  0  0  0  0
 12  8  1  0  0  0  0
 13  2  2  0  0  0  0
 14  9  1  0  0  0  0
 14 23  2  0  0  0  0
 17 26  2  0  0  0  0
 17 20  1  0  0  0  0
 18 13  1  0  0  0  0
 19  2  1  0  0  0  0
 19  1  2  0  0  0  0
 20  4  2  0  0  0  0
 22 20  1  1  0  0  0
 22  9  1  0  0  0  0
 23 15  1  0  0  0  0
 25 18  2  0  0  0  0
 25 26  1  0  0  0  0
 26 19  1  0  0  0  0
 27 24  2  0  0  0  0
 28 30  1  0  0  0  0
 30 29  1  0  0  0  0
M  END
>  <MODEL>
4

>  <REMARK>
 VINA RESULT:      -7.9      2.990      7.029
  Name = 
  2 active torsions:
  status: ('A' for Active; 'I' for Inactive)
    1  A    between atoms: C_11  and  C_28
    2  A    between atoms: C_28  and  C_30
                            x       y       z     vdW  Elec       q    Type
                         _______ _______ _______ _____ _____    ______ ____

>  <TORSDO>
F 2

$$$$
=
 OpenBabel11112416243D

 30 35  0  0  1  0  0  0  0  0999 V2000
  189.8210  177.0670  143.0620 C   0  0  0  0  0  0  0  0  0  0  0  0
  187.7800  177.6190  144.4850 C   0  0  0  0  0  0  0  0  0  0  0  0
  191.9890  176.4400  146.6410 N   0  0  0  0  0  2  0  0  0  0  0  0
  191.3290  176.6440  143.0300 C   0  0  0  0  0  0  0  0  0  0  0  0
  188.9820  176.2640  142.0660 C   0  0  0  0  0  2  0  0  0  0  0  0
  190.8860  173.1880  141.9660 O   0  0  0  0  0  0  0  0  0  0  0  0
  194.0800  176.0350  142.2730 C   0  0  1  0  0  3  0  0  0  0  0  0
  190.5740  174.3970  142.1520 C   0  0  0  0  0  0  0  0  0  0  0  0
  194.2230  175.9370  143.7180 N   0  0  0  0  0  0  0  0  0  0  0  0
  193.3490  176.1640  146.1720 C   0  0  2  0  0  3  0  0  0  0  0  0
  189.1340  174.7740  142.3260 C   0  0  2  0  0  3  0  0  0  0  0  0
  191.6000  175.4040  142.2800 N   0  0  0  0  0  0  0  0  0  0  0  0
  187.1290  177.7440  145.7150 C   0  0  0  0  0  3  0  0  0  0  0  0
  195.5280  175.4960  144.0450 C   0  0  0  0  0  3  0  0  0  0  0  0
  195.4400  175.5770  141.7310 C   0  0  0  0  0  2  0  0  0  0  0  0
  187.0910  177.9190  143.3560 F   0  0  0  0  0  0  0  0  0  0  0  0
  191.2380  176.6530  145.6100 C   0  0  0  0  0  0  0  0  0  0  0  0
  187.8090  177.4790  146.9040 C   0  0  0  0  0  3  0  0  0  0  0  0
  189.1270  177.2010  144.4250 C   0  0  0  0  0  0  0  0  0  0  0  0
  191.9600  176.5650  144.3830 C   0  0  0  0  0  0  0  0  0  0  0  0
  194.2930  177.2330  146.6890 C   0  0  0  0  0  1  0  0  0  0  0  0
  193.2130  176.2700  144.6810 C   0  0  2  0  0  3  0  0  0  0  0  0
  196.2440  175.2840  142.9570 C   0  0  0  0  0  3  0  0  0  0  0  0
  193.1530  174.2540  140.9500 O   0  0  0  0  0  0  0  0  0  0  0  0
  189.1500  177.1040  146.8670 C   0  0  0  0  0  3  0  0  0  0  0  0
  189.8150  176.9750  145.6420 C   0  0  0  0  0  0  0  0  0  0  0  0
  192.9390  175.1690  141.7930 C   0  0  0  0  0  0  0  0  0  0  0  0
  188.2430  173.9930  141.3650 C   0  0  0  0  0  2  0  0  0  0  0  0
  188.2980  173.4810  139.0330 O   0  0  0  0  0  1  0  0  0  0  0  0
  188.3650  174.5300  139.9490 C   0  0  0  0  0  2  0  0  0  0  0  0
  1 19  1  0  0  0  0
  2 13  1  0  0  0  0
  4  1  2  0  0  0  0
  4 20  1  0  0  0  0
  5 11  1  0  0  0  0
  5  1  1  0  0  0  0
  6  8  2  0  0  0  0
  7 15  1  6  0  0  0
  7  9  1  0  0  0  0
  8 12  1  0  0  0  0
  8 11  1  0  0  0  0
  9 14  1  0  0  0  0
  9 22  1  0  0  0  0
 10  3  1  0  0  0  0
 10 21  1  1  0  0  0
 11 28  1  6  0  0  0
 12  4  1  0  0  0  0
 13 18  2  0  0  0  0
 15 23  1  0  0  0  0
 16  2  1  0  0  0  0
 17 26  1  0  0  0  0
 17  3  1  0  0  0  0
 19  2  2  0  0  0  0
 19 26  1  0  0  0  0
 20 17  2  0  0  0  0
 22 20  1  6  0  0  0
 22 10  1  0  0  0  0
 23 14  2  0  0  0  0
 24 27  2  0  0  0  0
 25 18  1  0  0  0  0
 26 25  2  0  0  0  0
 27  7  1  0  0  0  0
 27 12  1  0  0  0  0
 29 30  1  0  0  0  0
 30 28  1  0  0  0  0
M  END
>  <MODEL>
5

>  <REMARK>
 VINA RESULT:      -7.8      2.026      2.643
  Name = 
  2 active torsions:
  status: ('A' for Active; 'I' for Inactive)
    1  A    between atoms: C_11  and  C_28
    2  A    between atoms: C_28  and  C_30
                            x       y       z     vdW  Elec       q    Type
                         _______ _______ _______ _____ _____    ______ ____

>  <TORSDO>
F 2

$$$$
=
 OpenBabel11112416243D

 30 35  0  0  1  0  0  0  0  0999 V2000
  187.2560  176.1390  144.5800 C   0  0  0  0  0  0  0  0  0  0  0  0
  186.1260  178.1390  145.6840 C   0  0  0  0  0  0  0  0  0  0  0  0
  186.6830  178.0390  140.8430 N   0  0  0  0  0  2  0  0  0  0  0  0
  187.7420  175.4690  143.2500 C   0  0  0  0  0  0  0  0  0  0  0  0
  188.3150  176.0550  145.6820 C   0  0  0  0  0  2  0  0  0  0  0  0
  191.3220  176.0020  143.6690 O   0  0  0  0  0  0  0  0  0  0  0  0
  188.7270  173.6440  141.1970 C   0  0  1  0  0  3  0  0  0  0  0  0
  190.1110  175.9110  144.0130 C   0  0  0  0  0  0  0  0  0  0  0  0
  188.3120  174.7400  140.3350 N   0  0  0  0  0  0  0  0  0  0  0  0
  187.1800  177.0530  139.8800 C   0  0  2  0  0  3  0  0  0  0  0  0
  189.6210  176.6730  145.2080 C   0  0  2  0  0  3  0  0  0  0  0  0
  189.1810  175.1470  143.2190 N   0  0  0  0  0  0  0  0  0  0  0  0
  185.5370  179.4050  145.6380 C   0  0  0  0  0  3  0  0  0  0  0  0
  188.6760  174.4650  138.9960 C   0  0  0  0  0  3  0  0  0  0  0  0
  189.4190  172.6610  140.2460 C   0  0  0  0  0  2  0  0  0  0  0  0
  186.2110  177.5080  146.8820 F   0  0  0  0  0  0  0  0  0  0  0  0
  186.8110  177.5470  142.0320 C   0  0  0  0  0  0  0  0  0  0  0  0
  185.3980  180.0760  144.4240 C   0  0  0  0  0  3  0  0  0  0  0  0
  186.6090  177.5300  144.5060 C   0  0  0  0  0  0  0  0  0  0  0  0
  187.3680  176.2340  142.0210 C   0  0  0  0  0  0  0  0  0  0  0  0
  186.0480  176.6170  138.9680 C   0  0  0  0  0  1  0  0  0  0  0  0
  187.6040  175.9140  140.7610 C   0  0  2  0  0  3  0  0  0  0  0  0
  189.2980  173.3060  138.9020 C   0  0  0  0  0  3  0  0  0  0  0  0
  190.8090  173.6710  142.3980 O   0  0  0  0  0  0  0  0  0  0  0  0
  185.8320  179.4730  143.2450 C   0  0  0  0  0  3  0  0  0  0  0  0
  186.4240  178.2050  143.2750 C   0  0  0  0  0  0  0  0  0  0  0  0
  189.6450  174.1440  142.2880 C   0  0  0  0  0  0  0  0  0  0  0  0
  190.6440  176.6370  146.3380 C   0  0  0  0  0  2  0  0  0  0  0  0
  191.3510  175.4140  148.2640 O   0  0  0  0  0  1  0  0  0  0  0  0
  190.5180  175.3560  147.1480 C   0  0  0  0  0  2  0  0  0  0  0  0
  1  5  1  0  0  0  0
  2 16  1  0  0  0  0
  3 17  1  0  0  0  0
  4  1  2  0  0  0  0
  6  8  2  0  0  0  0
  7 15  1  6  0  0  0
  7 27  1  0  0  0  0
  8 11  1  0  0  0  0
  9 22  1  0  0  0  0
  9  7  1  0  0  0  0
 10 21  1  6  0  0  0
 10 22  1  0  0  0  0
 10  3  1  0  0  0  0
 11  5  1  0  0  0  0
 11 28  1  1  0  0  0
 12  4  1  0  0  0  0
 12  8  1  0  0  0  0
 13  2  1  0  0  0  0
 14  9  1  0  0  0  0
 17 26  1  0  0  0  0
 18 13  2  0  0  0  0
 19  1  1  0  0  0  0
 19  2  2  0  0  0  0
 20 17  2  0  0  0  0
 20  4  1  0  0  0  0
 22 20  1  1  0  0  0
 23 14  2  0  0  0  0
 23 15  1  0  0  0  0
 25 26  2  0  0  0  0
 25 18  1  0  0  0  0
 26 19  1  0  0  0  0
 27 24  2  0  0  0  0
 27 12  1  0  0  0  0
 28 30  1  0  0  0  0
 30 29  1  0  0  0  0
M  END
>  <MODEL>
6

>  <REMARK>
 VINA RESULT:      -7.7      2.454      5.419
  Name = 
  2 active torsions:
  status: ('A' for Active; 'I' for Inactive)
    1  A    between atoms: C_11  and  C_28
    2  A    between atoms: C_28  and  C_30
                            x       y       z     vdW  Elec       q    Type
                         _______ _______ _______ _____ _____    ______ ____

>  <TORSDO>
F 2

$$$$
=
 OpenBabel11112416243D

 30 35  0  0  1  0  0  0  0  0999 V2000
  188.7860  175.1510  146.0420 C   0  0  0  0  0  0  0  0  0  0  0  0
  187.1640  177.0960  146.3340 C   0  0  0  0  0  0  0  0  0  0  0  0
  188.6680  175.8460  141.8700 N   0  0  0  0  0  2  0  0  0  0  0  0
  189.6210  174.2700  145.0520 C   0  0  0  0  0  0  0  0  0  0  0  0
  189.6070  175.5780  147.2600 C   0  0  0  0  0  2  0  0  0  0  0  0
  192.9210  175.6150  145.8070 O   0  0  0  0  0  0  0  0  0  0  0  0
  191.2600  172.2120  143.7920 C   0  0  1  0  0  3  0  0  0  0  0  0
  191.6960  175.3720  145.9850 C   0  0  0  0  0  0  0  0  0  0  0  0
  190.8570  172.9350  142.5950 N   0  0  0  0  0  0  0  0  0  0  0  0
  189.4910  174.7650  141.3220 C   0  0  2  0  0  3  0  0  0  0  0  0
  190.8690  176.3030  146.8200 C   0  0  2  0  0  3  0  0  0  0  0  0
  191.0700  174.2520  145.3260 N   0  0  0  0  0  0  0  0  0  0  0  0
  186.4060  178.1580  145.8340 C   0  0  0  0  0  3  0  0  0  0  0  0
  191.5150  172.3990  141.4620 C   0  0  0  0  0  3  0  0  0  0  0  0
  192.2700  171.1770  143.2810 C   0  0  0  0  0  2  0  0  0  0  0  0
  187.1090  176.8330  147.6640 F   0  0  0  0  0  0  0  0  0  0  0  0
  188.6360  175.7200  143.1570 C   0  0  0  0  0  0  0  0  0  0  0  0
  186.4050  178.4430  144.4690 C   0  0  0  0  0  3  0  0  0  0  0  0
  187.9580  176.3110  145.4700 C   0  0  0  0  0  0  0  0  0  0  0  0
  189.3810  174.5920  143.6130 C   0  0  0  0  0  0  0  0  0  0  0  0
  188.6420  173.8840  140.4240 C   0  0  0  0  0  1  0  0  0  0  0  0
  189.9060  174.0090  142.5500 C   0  0  2  0  0  3  0  0  0  0  0  0
  192.3160  171.4080  141.8050 C   0  0  0  0  0  3  0  0  0  0  0  0
  193.0370  172.9780  145.2190 O   0  0  0  0  0  0  0  0  0  0  0  0
  187.1500  177.6540  143.5950 C   0  0  0  0  0  3  0  0  0  0  0  0
  187.9140  176.5880  144.0820 C   0  0  0  0  0  0  0  0  0  0  0  0
  191.8570  173.1580  144.8080 C   0  0  0  0  0  0  0  0  0  0  0  0
  191.6430  176.7750  148.0460 C   0  0  0  0  0  2  0  0  0  0  0  0
  191.5760  178.2360  149.9340 O   0  0  0  0  0  1  0  0  0  0  0  0
  190.9020  177.8920  148.7630 C   0  0  0  0  0  2  0  0  0  0  0  0
  1  5  1  0  0  0  0
  2 16  1  0  0  0  0
  3 17  1  0  0  0  0
  4 12  1  0  0  0  0
  4  1  2  0  0  0  0
  6  8  2  0  0  0  0
  7 15  1  6  0  0  0
  7 27  1  0  0  0  0
  8 11  1  0  0  0  0
  9  7  1  0  0  0  0
 10 21  1  6  0  0  0
 10  3  1  0  0  0  0
 10 22  1  0  0  0  0
 11  5  1  0  0  0  0
 11 28  1  1  0  0  0
 12  8  1  0  0  0  0
 13  2  1  0  0  0  0
 14 23  2  0  0  0  0
 14  9  1  0  0  0  0
 17 20  2  0  0  0  0
 17 26  1  0  0  0  0
 18 13  2  0  0  0  0
 19  1  1  0  0  0  0
 19  2  2  0  0  0  0
 20  4  1  0  0  0  0
 22  9  1  0  0  0  0
 22 20  1  1  0  0  0
 23 15  1  0  0  0  0
 25 26  2  0  0  0  0
 25 18  1  0  0  0  0
 26 19  1  0  0  0  0
 27 24  2  0  0  0  0
 27 12  1  0  0  0  0
 28 30  1  0  0  0  0
 30 29  1  0  0  0  0
M  END
>  <MODEL>
7

>  <REMARK>
 VINA RESULT:      -7.6      2.954      5.165
  Name = 
  2 active torsions:
  status: ('A' for Active; 'I' for Inactive)
    1  A    between atoms: C_11  and  C_28
    2  A    between atoms: C_28  and  C_30
                            x       y       z     vdW  Elec       q    Type
                         _______ _______ _______ _____ _____    ______ ____

>  <TORSDO>
F 2

$$$$
=
 OpenBabel11112416243D

 30 35  0  0  1  0  0  0  0  0999 V2000
  188.1760  174.9600  142.3030 C   0  0  0  0  0  0  0  0  0  0  0  0
  190.2530  174.2290  141.0180 C   0  0  0  0  0  0  0  0  0  0  0  0
  190.7270  176.8580  145.0950 N   0  0  0  0  0  2  0  0  0  0  0  0
  187.5940  175.7300  143.5370 C   0  0  0  0  0  0  0  0  0  0  0  0
  187.4250  175.2950  141.0140 C   0  0  0  0  0  2  0  0  0  0  0  0
  186.3220  178.6560  141.7780 O   0  0  0  0  0  0  0  0  0  0  0  0
  185.8980  176.8350  145.6390 C   0  0  1  0  0  3  0  0  0  0  0  0
  186.7470  177.4760  141.9160 C   0  0  0  0  0  0  0  0  0  0  0  0
  187.1900  177.2710  146.1470 N   0  0  0  0  0  0  0  0  0  0  0  0
  189.8030  177.3600  146.1150 C   0  0  2  0  0  3  0  0  0  0  0  0
  187.4340  176.7960  140.7700 C   0  0  2  0  0  3  0  0  0  0  0  0
  186.6500  176.8090  143.1920 N   0  0  0  0  0  0  0  0  0  0  0  0
  191.6350  174.2110  140.8120 C   0  0  0  0  0  3  0  0  0  0  0  0
  187.0090  178.0840  147.2910 C   0  0  0  0  0  3  0  0  0  0  0  0
  184.8830  177.4920  146.5820 C   0  0  0  0  0  2  0  0  0  0  0  0
  189.4630  173.5330  140.1640 F   0  0  0  0  0  0  0  0  0  0  0  0
  190.0390  176.2490  144.1860 C   0  0  0  0  0  0  0  0  0  0  0  0
  192.4880  174.8850  141.6850 C   0  0  0  0  0  3  0  0  0  0  0  0
  189.6990  174.9500  142.0980 C   0  0  0  0  0  0  0  0  0  0  0  0
  188.6410  176.2520  144.4680 C   0  0  0  0  0  0  0  0  0  0  0  0
  190.1050  176.6970  147.4460 C   0  0  0  0  0  1  0  0  0  0  0  0
  188.4670  176.9080  145.6020 C   0  0  2  0  0  3  0  0  0  0  0  0
  185.7280  178.2310  147.5700 C   0  0  0  0  0  3  0  0  0  0  0  0
  184.7500  178.0010  143.8780 O   0  0  0  0  0  0  0  0  0  0  0  0
  191.9630  175.5670  142.7800 C   0  0  0  0  0  3  0  0  0  0  0  0
  190.5800  175.5950  142.9990 C   0  0  0  0  0  0  0  0  0  0  0  0
  185.7210  177.2630  144.2000 C   0  0  0  0  0  0  0  0  0  0  0  0
  186.7360  177.1050  139.4510 C   0  0  0  0  0  2  0  0  0  0  0  0
  186.0950  176.0850  137.3880 O   0  0  0  0  0  1  0  0  0  0  0  0
  187.0460  176.0440  138.4070 C   0  0  0  0  0  2  0  0  0  0  0  0
  1  4  1  0  0  0  0
  2 19  1  0  0  0  0
  3 10  1  0  0  0  0
  4 20  2  0  0  0  0
  5  1  1  0  0  0  0
  6  8  2  0  0  0  0
  7  9  1  0  0  0  0
  7 15  1  1  0  0  0
  8 12  1  0  0  0  0
  9 14  1  0  0  0  0
 10 21  1  1  0  0  0
 11 28  1  6  0  0  0
 11  5  1  0  0  0  0
 11  8  1  0  0  0  0
 12  4  1  0  0  0  0
 12 27  1  0  0  0  0
 13  2  2  0  0  0  0
 13 18  1  0  0  0  0
 14 23  2  0  0  0  0
 15 23  1  0  0  0  0
 16  2  1  0  0  0  0
 17 20  1  0  0  0  0
 17  3  1  0  0  0  0
 18 25  2  0  0  0  0
 19  1  2  0  0  0  0
 19 26  1  0  0  0  0
 22 20  1  6  0  0  0
 22 10  1  0  0  0  0
 22  9  1  0  0  0  0
 24 27  2  0  0  0  0
 25 26  1  0  0  0  0
 26 17  2  0  0  0  0
 27  7  1  0  0  0  0
 29 30  1  0  0  0  0
 30 28  1  0  0  0  0
M  END
>  <MODEL>
8

>  <REMARK>
 VINA RESULT:      -7.5      2.632      5.500
  Name = 
  2 active torsions:
  status: ('A' for Active; 'I' for Inactive)
    1  A    between atoms: C_11  and  C_28
    2  A    between atoms: C_28  and  C_30
                            x       y       z     vdW  Elec       q    Type
                         _______ _______ _______ _____ _____    ______ ____

>  <TORSDO>
F 2

$$$$
=
 OpenBabel11112416243D

 30 35  0  0  1  0  0  0  0  0999 V2000
  189.0490  177.6100  145.2740 C   0  0  0  0  0  0  0  0  0  0  0  0
  190.4500  176.9900  147.3100 C   0  0  0  0  0  0  0  0  0  0  0  0
  190.3950  174.0510  143.4230 N   0  0  0  0  0  2  0  0  0  0  0  0
  188.5760  177.2190  143.8320 C   0  0  0  0  0  0  0  0  0  0  0  0
  187.8870  178.0890  146.1460 C   0  0  0  0  0  2  0  0  0  0  0  0
  185.1630  176.2380  144.6450 O   0  0  0  0  0  0  0  0  0  0  0  0
  187.4530  177.1720  141.1400 C   0  0  1  0  0  3  0  0  0  0  0  0
  186.2850  176.7910  144.8110 C   0  0  0  0  0  0  0  0  0  0  0  0
  188.1750  175.9100  141.0980 N   0  0  0  0  0  0  0  0  0  0  0  0
  189.8060  174.1200  142.0830 C   0  0  2  0  0  3  0  0  0  0  0  0
  186.7950  177.0310  146.2000 C   0  0  2  0  0  3  0  0  0  0  0  0
  187.1130  177.1190  143.6760 N   0  0  0  0  0  0  0  0  0  0  0  0
  191.2920  176.1240  148.0130 C   0  0  0  0  0  3  0  0  0  0  0  0
  187.9040  175.2380  139.8820 C   0  0  0  0  0  3  0  0  0  0  0  0
  186.6740  177.2010  139.8190 C   0  0  0  0  0  2  0  0  0  0  0  0
  190.1110  178.1700  147.8860 F   0  0  0  0  0  0  0  0  0  0  0  0
  190.0430  175.1090  144.0770 C   0  0  0  0  0  0  0  0  0  0  0  0
  191.6950  174.9160  147.4460 C   0  0  0  0  0  3  0  0  0  0  0  0
  189.9760  176.6440  146.0260 C   0  0  0  0  0  0  0  0  0  0  0  0
  189.2280  175.9840  143.3000 C   0  0  0  0  0  0  0  0  0  0  0  0
  190.9120  174.1700  141.0440 C   0  0  0  0  0  1  0  0  0  0  0  0
  189.0640  175.4230  142.1140 C   0  0  2  0  0  3  0  0  0  0  0  0
  187.0660  175.9310  139.1340 C   0  0  0  0  0  3  0  0  0  0  0  0
  185.3070  177.3900  142.2030 O   0  0  0  0  0  0  0  0  0  0  0  0
  191.2700  174.5760  146.1630 C   0  0  0  0  0  3  0  0  0  0  0  0
  190.4270  175.4330  145.4470 C   0  0  0  0  0  0  0  0  0  0  0  0
  186.5500  177.2280  142.3510 C   0  0  0  0  0  0  0  0  0  0  0  0
  185.6750  177.4990  147.1230 C   0  0  0  0  0  2  0  0  0  0  0  0
  184.1320  179.0410  146.1510 O   0  0  0  0  0  1  0  0  0  0  0  0
  185.3270  178.9550  146.8640 C   0  0  0  0  0  2  0  0  0  0  0  0
  1 19  1  0  0  0  0
  1  5  1  0  0  0  0
  2 16  1  0  0  0  0
  2 13  1  0  0  0  0
  3 17  1  0  0  0  0
  4  1  2  0  0  0  0
  5 11  1  0  0  0  0
  6  8  2  0  0  0  0
  7 15  1  6  0  0  0
  7 27  1  0  0  0  0
  8 11  1  0  0  0  0
  9  7  1  0  0  0  0
  9 22  1  0  0  0  0
 10 21  1  6  0  0  0
 10 22  1  0  0  0  0
 10  3  1  0  0  0  0
 11 28  1  1  0  0  0
 12  4  1  0  0  0  0
 12  8  1  0  0  0  0
 14  9  1  0  0  0  0
 17 26  1  0  0  0  0
 18 13  2  0  0  0  0
 19  2  2  0  0  0  0
 20  4  1  0  0  0  0
 20 17  2  0  0  0  0
 22 20  1  1  0  0  0
 23 15  1  0  0  0  0
 23 14  2  0  0  0  0
 24 27  2  0  0  0  0
 25 18  1  0  0  0  0
 26 19  1  0  0  0  0
 26 25  2  0  0  0  0
 27 12  1  0  0  0  0
 29 30  1  0  0  0  0
 30 28  1  0  0  0  0
M  END
>  <MODEL>
9

>  <REMARK>
 VINA RESULT:      -7.4      2.606      5.563
  Name = 
  2 active torsions:
  status: ('A' for Active; 'I' for Inactive)
    1  A    between atoms: C_11  and  C_28
    2  A    between atoms: C_28  and  C_30
                            x       y       z     vdW  Elec       q    Type
                         _______ _______ _______ _____ _____    ______ ____

>  <TORSDO>
F 2

$$$$
