=
 OpenBabel11112416353D

 32 38  0  0  1  0  0  0  0  0999 V2000
  192.5120  175.3050  144.5790 C   0  0  1  0  0  3  0  0  0  0  0  0
  187.8790  177.3440  143.8330 C   0  0  0  0  0  0  0  0  0  0  0  0
  185.9050  178.1550  148.1830 N   0  0  0  0  0  0  0  0  0  0  0  0
  184.6970  178.4090  147.6180 C   0  0  0  0  0  3  0  0  0  0  0  0
  186.4660  177.5280  141.8030 C   0  0  0  0  0  0  0  0  0  0  0  0
  185.2020  177.7940  141.2930 C   0  0  0  0  0  0  0  0  0  0  0  0
  190.3010  176.9470  143.6310 C   0  0  1  0  0  3  0  0  0  0  0  0
  189.3440  177.1430  145.8980 C   0  0  0  0  0  2  0  0  0  0  0  0
  183.0690  178.3150  141.3710 N   0  0  0  0  0  0  0  0  0  0  0  0
  191.5920  175.9610  145.6170 C   0  0  2  0  0  3  0  0  0  0  0  0
  186.9880  177.8300  147.4290 C   0  0  0  0  0  3  0  0  0  0  0  0
  188.0010  177.4060  145.2450 C   0  0  0  0  0  0  0  0  0  0  0  0
  186.8870  177.7450  146.0320 C   0  0  0  0  0  0  0  0  0  0  0  0
  185.5010  177.9310  144.0300 C   0  0  0  0  0  0  0  0  0  0  0  0
  183.3820  178.1420  140.0930 N   0  0  0  0  0  0  0  0  0  0  0  0
  191.8440  175.0720  143.3300 O   0  0  0  0  0  0  0  0  0  0  0  0
  190.2200  176.2840  145.0000 C   0  0  2  0  0  3  0  0  0  0  0  0
  184.6990  177.8160  140.0020 C   0  0  0  0  0  3  0  0  0  0  0  0
  191.3090  176.2370  142.7230 C   0  0  0  0  0  2  0  0  0  0  0  0
  192.7420  176.7580  145.0090 C   0  0  1  0  0  3  0  0  0  0  0  0
  184.5410  178.3390  146.2340 C   0  0  0  0  0  3  0  0  0  0  0  0
  185.6370  178.0060  145.4260 C   0  0  0  0  0  0  0  0  0  0  0  0
  184.2840  178.1810  143.4500 N   0  0  0  0  0  0  0  0  0  0  0  0
  189.0010  177.0050  143.0560 O   0  0  0  0  0  0  0  0  0  0  0  0
  187.5080  177.2100  140.9380 O   0  0  0  0  0  1  0  0  0  0  0  0
  181.7460  178.6720  141.8530 C   0  0  0  0  0  1  0  0  0  0  0  0
  186.6350  177.5940  143.2150 C   0  0  0  0  0  0  0  0  0  0  0  0
  184.1660  178.1060  142.1060 C   0  0  0  0  0  0  0  0  0  0  0  0
  193.8890  176.8110  145.9990 C   0  0  0  0  0  2  0  0  0  0  0  0
  195.1090  176.2120  145.3920 C   0  0  0  0  0  0  0  0  0  0  0  0
  195.6770  176.7890  144.2640 O   0  0  0  0  0  0  0  0  0  0  0  0
  195.6060  175.1640  145.8800 O   0  0  0  0  0  1  0  0  0  0  0  0
  1 16  1  6  0  0  0
  1 20  1  0  0  0  0
  1 10  1  0  0  0  0
  2 12  1  0  0  0  0
  4  3  1  0  0  0  0
  5 27  1  0  0  0  0
  6  5  2  0  0  0  0
  6 28  1  0  0  0  0
  7 19  1  6  0  0  0
  7 17  1  0  0  0  0
  9 26  1  0  0  0  0
  9 28  1  0  0  0  0
 11  3  2  0  0  0  0
 12  8  1  0  0  0  0
 12 13  2  0  0  0  0
 13 11  1  0  0  0  0
 14 22  2  0  0  0  0
 15  9  1  0  0  0  0
 17 10  1  0  0  0  0
 17  8  1  0  0  0  0
 18 15  2  0  0  0  0
 18  6  1  0  0  0  0
 19 16  1  0  0  0  0
 20 10  1  0  0  0  0
 20 29  1  0  0  0  0
 21  4  2  0  0  0  0
 22 13  1  0  0  0  0
 22 21  1  0  0  0  0
 23 14  1  0  0  0  0
 24  7  1  0  0  0  0
 24  2  1  0  0  0  0
 25  5  1  0  0  0  0
 27  2  2  0  0  0  0
 27 14  1  0  0  0  0
 28 23  2  0  0  0  0
 30 32  1  0  0  0  0
 30 29  1  0  0  0  0
 31 30  2  0  0  0  0
M  END
>  <MODEL>
1

>  <REMARK>
 VINA RESULT:      -9.7      0.000      0.000
  Name = 
  2 active torsions:
  status: ('A' for Active; 'I' for Inactive)
    1  A    between atoms: C_20  and  C_29
    2  A    between atoms: C_29  and  C_30
                            x       y       z     vdW  Elec       q    Type
                         _______ _______ _______ _____ _____    ______ ____

>  <TORSDO>
F 2

$$$$
=
 OpenBabel11112416353D

 32 38  0  0  1  0  0  0  0  0999 V2000
  185.3700  177.3310  146.8330 C   0  0  1  0  0  3  0  0  0  0  0  0
  189.8850  176.1030  144.7620 C   0  0  0  0  0  0  0  0  0  0  0  0
  189.0320  174.1540  140.4080 N   0  0  0  0  0  0  0  0  0  0  0  0
  190.3220  173.7440  140.3090 C   0  0  0  0  0  3  0  0  0  0  0  0
  192.1590  175.9490  145.7390 C   0  0  0  0  0  0  0  0  0  0  0  0
  193.4610  175.4960  145.5730 C   0  0  0  0  0  0  0  0  0  0  0  0
  188.1280  177.4010  145.8990 C   0  0  1  0  0  3  0  0  0  0  0  0
  187.5460  176.2670  143.7840 C   0  0  0  0  0  2  0  0  0  0  0  0
  195.1330  174.5060  144.5470 N   0  0  0  0  0  0  0  0  0  0  0  0
  185.6620  176.9150  145.3840 C   0  0  2  0  0  3  0  0  0  0  0  0
  188.5810  174.8250  141.5010 C   0  0  0  0  0  3  0  0  0  0  0  0
  188.9880  175.8050  143.7040 C   0  0  0  0  0  0  0  0  0  0  0  0
  189.4460  175.1160  142.5680 C   0  0  0  0  0  0  0  0  0  0  0  0
  191.6850  174.9710  143.5320 C   0  0  0  0  0  0  0  0  0  0  0  0
  195.5990  174.9580  145.7040 N   0  0  0  0  0  0  0  0  0  0  0  0
  186.4940  177.1140  147.6980 O   0  0  0  0  0  0  0  0  0  0  0  0
  187.1250  176.4670  145.2320 C   0  0  2  0  0  3  0  0  0  0  0  0
  194.5900  175.5790  146.3730 C   0  0  0  0  0  3  0  0  0  0  0  0
  187.6760  177.7940  147.3080 C   0  0  0  0  0  2  0  0  0  0  0  0
  185.5030  178.3920  145.7350 C   0  0  1  0  0  3  0  0  0  0  0  0
  191.2230  174.0070  141.3400 C   0  0  0  0  0  3  0  0  0  0  0  0
  190.7930  174.6970  142.4820 C   0  0  0  0  0  0  0  0  0  0  0  0
  192.9900  174.5570  143.4420 N   0  0  0  0  0  0  0  0  0  0  0  0
  189.4140  176.7960  145.8920 O   0  0  0  0  0  0  0  0  0  0  0  0
  191.8060  176.6330  146.8980 O   0  0  0  0  0  1  0  0  0  0  0  0
  195.9260  173.7880  143.5640 C   0  0  0  0  0  1  0  0  0  0  0  0
  191.2310  175.6840  144.6920 C   0  0  0  0  0  0  0  0  0  0  0  0
  193.8390  174.8280  144.4580 C   0  0  0  0  0  0  0  0  0  0  0  0
  184.1230  178.8570  145.3180 C   0  0  0  0  0  2  0  0  0  0  0  0
  184.0510  178.9630  143.8350 C   0  0  0  0  0  0  0  0  0  0  0  0
  185.1950  179.2520  143.1030 O   0  0  0  0  0  0  0  0  0  0  0  0
  182.9470  178.8250  143.2470 O   0  0  0  0  0  1  0  0  0  0  0  0
  1 16  1  1  0  0  0
  2 24  1  0  0  0  0
  3 11  1  0  0  0  0
  4  3  2  0  0  0  0
  4 21  1  0  0  0  0
  5 25  1  0  0  0  0
  6  5  1  0  0  0  0
  6 18  1  0  0  0  0
  7 19  1  1  0  0  0
  8 17  1  0  0  0  0
  9 15  1  0  0  0  0
 10 20  1  0  0  0  0
 10  1  1  0  0  0  0
 11 13  2  0  0  0  0
 12  8  1  0  0  0  0
 12  2  2  0  0  0  0
 13 12  1  0  0  0  0
 14 27  1  0  0  0  0
 15 18  2  0  0  0  0
 17 10  1  0  0  0  0
 17  7  1  0  0  0  0
 19 16  1  0  0  0  0
 20  1  1  0  0  0  0
 21 22  2  0  0  0  0
 22 13  1  0  0  0  0
 22 14  1  0  0  0  0
 23 14  2  0  0  0  0
 23 28  1  0  0  0  0
 24  7  1  0  0  0  0
 26  9  1  0  0  0  0
 27  2  1  0  0  0  0
 27  5  2  0  0  0  0
 28  9  1  0  0  0  0
 28  6  2  0  0  0  0
 29 20  1  0  0  0  0
 30 29  1  0  0  0  0
 31 30  2  0  0  0  0
 32 30  1  0  0  0  0
M  END
>  <MODEL>
2

>  <REMARK>
 VINA RESULT:      -8.8      4.039      8.696
  Name = 
  2 active torsions:
  status: ('A' for Active; 'I' for Inactive)
    1  A    between atoms: C_20  and  C_29
    2  A    between atoms: C_29  and  C_30
                            x       y       z     vdW  Elec       q    Type
                         _______ _______ _______ _____ _____    ______ ____

>  <TORSDO>
F 2

$$$$
=
 OpenBabel11112416353D

 32 38  0  0  1  0  0  0  0  0999 V2000
  185.3520  179.0690  143.8460 C   0  0  1  0  0  3  0  0  0  0  0  0
  189.0720  175.7010  142.8440 C   0  0  0  0  0  0  0  0  0  0  0  0
  192.5470  176.3080  146.1660 N   0  0  0  0  0  0  0  0  0  0  0  0
  193.3940  175.5100  145.4650 C   0  0  0  0  0  3  0  0  0  0  0  0
  189.5200  174.2820  140.8610 C   0  0  0  0  0  0  0  0  0  0  0  0
  190.4390  173.4820  140.1940 C   0  0  0  0  0  0  0  0  0  0  0  0
  186.8240  176.6340  143.2240 C   0  0  1  0  0  3  0  0  0  0  0  0
  188.5920  177.1650  144.8640 C   0  0  0  0  0  2  0  0  0  0  0  0
  192.3610  172.4710  139.8640 N   0  0  0  0  0  0  0  0  0  0  0  0
  186.5470  178.6910  144.7330 C   0  0  2  0  0  3  0  0  0  0  0  0
  191.2880  176.5690  145.7250 C   0  0  0  0  0  3  0  0  0  0  0  0
  189.5250  176.2850  144.0550 C   0  0  0  0  0  0  0  0  0  0  0  0
  190.8240  176.0170  144.5210 C   0  0  0  0  0  0  0  0  0  0  0  0
  191.2590  174.6160  142.5690 C   0  0  0  0  0  0  0  0  0  0  0  0
  191.5770  172.1610  138.8390 N   0  0  0  0  0  0  0  0  0  0  0  0
  185.4780  178.5500  142.5140 O   0  0  0  0  0  0  0  0  0  0  0  0
  187.5140  177.7670  143.9750 C   0  0  2  0  0  3  0  0  0  0  0  0
  190.3730  172.7720  139.0060 C   0  0  0  0  0  3  0  0  0  0  0  0
  185.6090  177.1400  142.4430 C   0  0  0  0  0  2  0  0  0  0  0  0
  185.1780  178.0680  144.9930 C   0  0  1  0  0  3  0  0  0  0  0  0
  192.9830  174.9370  144.2630 C   0  0  0  0  0  3  0  0  0  0  0  0
  191.6910  175.1850  143.7780 C   0  0  0  0  0  0  0  0  0  0  0  0
  192.1080  173.8130  141.8520 N   0  0  0  0  0  0  0  0  0  0  0  0
  187.7700  175.9760  142.3900 O   0  0  0  0  0  0  0  0  0  0  0  0
  188.2530  174.4780  140.3210 O   0  0  0  0  0  1  0  0  0  0  0  0
  193.7260  171.9990  140.0280 C   0  0  0  0  0  1  0  0  0  0  0  0
  189.9310  174.8750  142.0880 C   0  0  0  0  0  0  0  0  0  0  0  0
  191.6800  173.2700  140.6900 C   0  0  0  0  0  0  0  0  0  0  0  0
  184.5290  178.7650  146.1720 C   0  0  0  0  0  2  0  0  0  0  0  0
  185.4250  178.6920  147.3590 C   0  0  0  0  0  0  0  0  0  0  0  0
  185.9880  179.8500  147.8760 O   0  0  0  0  0  1  0  0  0  0  0  0
  185.6990  177.5760  147.8730 O   0  0  0  0  0  0  0  0  0  0  0  0
  1 16  1  6  0  0  0
  1 10  1  0  0  0  0
  1 20  1  0  0  0  0
  2 12  1  0  0  0  0
  4  3  1  0  0  0  0
  5 27  1  0  0  0  0
  6 28  1  0  0  0  0
  6  5  2  0  0  0  0
  7 19  1  6  0  0  0
  7 17  1  0  0  0  0
  9 26  1  0  0  0  0
  9 28  1  0  0  0  0
 10 20  1  0  0  0  0
 11  3  2  0  0  0  0
 12 13  2  0  0  0  0
 12  8  1  0  0  0  0
 13 11  1  0  0  0  0
 14 22  2  0  0  0  0
 15 18  2  0  0  0  0
 15  9  1  0  0  0  0
 17 10  1  0  0  0  0
 17  8  1  0  0  0  0
 18  6  1  0  0  0  0
 19 16  1  0  0  0  0
 20 29  1  0  0  0  0
 21  4  2  0  0  0  0
 22 21  1  0  0  0  0
 22 13  1  0  0  0  0
 23 14  1  0  0  0  0
 24  2  1  0  0  0  0
 24  7  1  0  0  0  0
 25  5  1  0  0  0  0
 27 14  1  0  0  0  0
 27  2  2  0  0  0  0
 28 23  2  0  0  0  0
 29 30  1  0  0  0  0
 30 32  2  0  0  0  0
 30 31  1  0  0  0  0
M  END
>  <MODEL>
3

>  <REMARK>
 VINA RESULT:      -8.4      4.199      7.510
  Name = 
  2 active torsions:
  status: ('A' for Active; 'I' for Inactive)
    1  A    between atoms: C_20  and  C_29
    2  A    between atoms: C_29  and  C_30
                            x       y       z     vdW  Elec       q    Type
                         _______ _______ _______ _____ _____    ______ ____

>  <TORSDO>
F 2

$$$$
=
 OpenBabel11112416353D

 32 38  0  0  1  0  0  0  0  0999 V2000
  185.5670  179.2340  143.5930 C   0  0  1  0  0  3  0  0  0  0  0  0
  188.6040  175.3360  142.2640 C   0  0  0  0  0  0  0  0  0  0  0  0
  191.7690  174.6360  145.8660 N   0  0  0  0  0  0  0  0  0  0  0  0
  192.5030  173.7940  145.0940 C   0  0  0  0  0  3  0  0  0  0  0  0
  188.9550  174.1850  140.0970 C   0  0  0  0  0  0  0  0  0  0  0  0
  189.7540  173.3190  139.3620 C   0  0  0  0  0  0  0  0  0  0  0  0
  186.5670  176.6650  142.6520 C   0  0  1  0  0  3  0  0  0  0  0  0
  188.2280  176.5320  144.4740 C   0  0  0  0  0  2  0  0  0  0  0  0
  191.4530  171.9760  138.9890 N   0  0  0  0  0  0  0  0  0  0  0  0
  186.5610  178.4680  144.4770 C   0  0  2  0  0  3  0  0  0  0  0  0
  190.6420  175.2330  145.3950 C   0  0  0  0  0  3  0  0  0  0  0  0
  189.0400  175.6080  143.5870 C   0  0  0  0  0  0  0  0  0  0  0  0
  190.2010  174.9930  144.0840 C   0  0  0  0  0  0  0  0  0  0  0  0
  190.5390  173.8560  141.9490 C   0  0  0  0  0  0  0  0  0  0  0  0
  190.7330  172.0120  137.8750 N   0  0  0  0  0  0  0  0  0  0  0  0
  185.7200  178.9160  142.2020 O   0  0  0  0  0  0  0  0  0  0  0  0
  187.3920  177.4860  143.6350 C   0  0  2  0  0  3  0  0  0  0  0  0
  189.6670  172.8360  138.0670 C   0  0  0  0  0  3  0  0  0  0  0  0
  185.5670  177.5410  141.8920 C   0  0  0  0  0  2  0  0  0  0  0  0
  185.0750  178.1270  144.5320 C   0  0  1  0  0  3  0  0  0  0  0  0
  192.1100  173.5210  143.7850 C   0  0  0  0  0  3  0  0  0  0  0  0
  190.9520  174.1190  143.2660 C   0  0  0  0  0  0  0  0  0  0  0  0
  191.2770  173.0110  141.1600 N   0  0  0  0  0  0  0  0  0  0  0  0
  187.4390  175.9570  141.7800 O   0  0  0  0  0  0  0  0  0  0  0  0
  187.8160  174.7350  139.5170 O   0  0  0  0  0  1  0  0  0  0  0  0
  192.6690  171.1980  139.1580 C   0  0  0  0  0  1  0  0  0  0  0  0
  189.3490  174.4710  141.4340 C   0  0  0  0  0  0  0  0  0  0  0  0
  190.8690  172.7650  139.8950 C   0  0  0  0  0  0  0  0  0  0  0  0
  184.4640  178.7540  145.7690 C   0  0  0  0  0  2  0  0  0  0  0  0
  185.3170  178.4680  146.9550 C   0  0  0  0  0  0  0  0  0  0  0  0
  185.5660  177.1550  147.3300 O   0  0  0  0  0  0  0  0  0  0  0  0
  185.7840  179.4160  147.6380 O   0  0  0  0  0  1  0  0  0  0  0  0
  1 16  1  6  0  0  0
  1 10  1  0  0  0  0
  1 20  1  0  0  0  0
  2 12  1  0  0  0  0
  4  3  1  0  0  0  0
  5 27  1  0  0  0  0
  6 28  1  0  0  0  0
  6  5  2  0  0  0  0
  7 19  1  6  0  0  0
  7 17  1  0  0  0  0
  9 26  1  0  0  0  0
  9 28  1  0  0  0  0
 10 20  1  0  0  0  0
 11  3  2  0  0  0  0
 12 13  2  0  0  0  0
 12  8  1  0  0  0  0
 13 11  1  0  0  0  0
 14 22  2  0  0  0  0
 15 18  2  0  0  0  0
 15  9  1  0  0  0  0
 17  8  1  0  0  0  0
 17 10  1  0  0  0  0
 18  6  1  0  0  0  0
 19 16  1  0  0  0  0
 20 29  1  0  0  0  0
 21  4  2  0  0  0  0
 22 21  1  0  0  0  0
 22 13  1  0  0  0  0
 23 14  1  0  0  0  0
 24  2  1  0  0  0  0
 24  7  1  0  0  0  0
 25  5  1  0  0  0  0
 27 14  1  0  0  0  0
 27  2  2  0  0  0  0
 28 23  2  0  0  0  0
 29 30  1  0  0  0  0
 30 31  2  0  0  0  0
 30 32  1  0  0  0  0
M  END
>  <MODEL>
4

>  <REMARK>
 VINA RESULT:      -8.3      4.345      7.481
  Name = 
  2 active torsions:
  status: ('A' for Active; 'I' for Inactive)
    1  A    between atoms: C_20  and  C_29
    2  A    between atoms: C_29  and  C_30
                            x       y       z     vdW  Elec       q    Type
                         _______ _______ _______ _____ _____    ______ ____

>  <TORSDO>
F 2

$$$$
=
 OpenBabel11112416353D

 32 38  0  0  1  0  0  0  0  0999 V2000
  195.4080  176.0010  145.1560 C   0  0  1  0  0  3  0  0  0  0  0  0
  190.3050  176.3660  145.2110 C   0  0  0  0  0  0  0  0  0  0  0  0
  188.6620  174.7430  140.9510 N   0  0  0  0  0  0  0  0  0  0  0  0
  187.4180  175.2150  141.2200 C   0  0  0  0  0  3  0  0  0  0  0  0
  188.7540  177.5490  146.7420 C   0  0  0  0  0  0  0  0  0  0  0  0
  187.4610  178.0110  146.9490 C   0  0  0  0  0  0  0  0  0  0  0  0
  192.6040  175.8470  145.9270 C   0  0  1  0  0  3  0  0  0  0  0  0
  191.9140  175.1630  143.6560 C   0  0  0  0  0  2  0  0  0  0  0  0
  185.3470  178.3640  146.4620 N   0  0  0  0  0  0  0  0  0  0  0  0
  194.4080  175.4000  144.1580 C   0  0  2  0  0  3  0  0  0  0  0  0
  189.6860  174.8940  141.8330 C   0  0  0  0  0  3  0  0  0  0  0  0
  190.5370  175.7150  143.9720 C   0  0  0  0  0  0  0  0  0  0  0  0
  189.4840  175.5500  143.0570 C   0  0  0  0  0  0  0  0  0  0  0  0
  187.9580  176.7110  144.5700 C   0  0  0  0  0  0  0  0  0  0  0  0
  185.5640  178.8880  147.6620 N   0  0  0  0  0  0  0  0  0  0  0  0
  194.7890  176.9410  146.0460 O   0  0  0  0  0  0  0  0  0  0  0  0
  192.9830  175.8970  144.4510 C   0  0  2  0  0  3  0  0  0  0  0  0
  186.8660  178.6910  148.0000 C   0  0  0  0  0  3  0  0  0  0  0  0
  193.7190  176.4100  146.8110 C   0  0  0  0  0  2  0  0  0  0  0  0
  194.9960  174.5290  145.2660 C   0  0  1  0  0  3  0  0  0  0  0  0
  187.1630  175.8750  142.4220 C   0  0  0  0  0  3  0  0  0  0  0  0
  188.1960  176.0490  143.3540 C   0  0  0  0  0  0  0  0  0  0  0  0
  186.7060  177.1960  144.8490 N   0  0  0  0  0  0  0  0  0  0  0  0
  191.3670  176.5230  146.1190 O   0  0  0  0  0  0  0  0  0  0  0  0
  189.7260  177.7530  147.7160 O   0  0  0  0  0  1  0  0  0  0  0  0
  184.0670  178.3840  145.7740 C   0  0  0  0  0  1  0  0  0  0  0  0
  189.0250  176.8760  145.5170 C   0  0  0  0  0  0  0  0  0  0  0  0
  186.4900  177.8300  146.0230 C   0  0  0  0  0  0  0  0  0  0  0  0
  196.0910  173.6580  144.6860 C   0  0  0  0  0  2  0  0  0  0  0  0
  196.7900  172.9290  145.7800 C   0  0  0  0  0  0  0  0  0  0  0  0
  196.9620  171.5540  145.6970 O   0  0  0  0  0  0  0  0  0  0  0  0
  197.1930  173.5530  146.7950 O   0  0  0  0  0  1  0  0  0  0  0  0
  1 20  1  0  0  0  0
  1 16  1  1  0  0  0
  2 27  1  0  0  0  0
  2 24  1  0  0  0  0
  3  4  2  0  0  0  0
  3 11  1  0  0  0  0
  4 21  1  0  0  0  0
  5  6  1  0  0  0  0
  5 25  1  0  0  0  0
  6 18  1  0  0  0  0
  7 24  1  0  0  0  0
  7 19  1  1  0  0  0
  8 12  1  0  0  0  0
  8 17  1  0  0  0  0
  9 15  1  0  0  0  0
 10 17  1  0  0  0  0
 10  1  1  0  0  0  0
 10 20  1  0  0  0  0
 11 13  2  0  0  0  0
 12  2  2  0  0  0  0
 13 22  1  0  0  0  0
 13 12  1  0  0  0  0
 14 23  2  0  0  0  0
 14 27  1  0  0  0  0
 15 18  2  0  0  0  0
 16 19  1  0  0  0  0
 17  7  1  0  0  0  0
 21 22  2  0  0  0  0
 22 14  1  0  0  0  0
 23 28  1  0  0  0  0
 26  9  1  0  0  0  0
 27  5  2  0  0  0  0
 28  9  1  0  0  0  0
 28  6  2  0  0  0  0
 29 20  1  0  0  0  0
 29 30  1  0  0  0  0
 30 32  1  0  0  0  0
 31 30  2  0  0  0  0
M  END
>  <MODEL>
5

>  <REMARK>
 VINA RESULT:      -8.2      2.702      5.000
  Name = 
  2 active torsions:
  status: ('A' for Active; 'I' for Inactive)
    1  A    between atoms: C_20  and  C_29
    2  A    between atoms: C_29  and  C_30
                            x       y       z     vdW  Elec       q    Type
                         _______ _______ _______ _____ _____    ______ ____

>  <TORSDO>
F 2

$$$$
=
 OpenBabel11112416353D

 32 38  0  0  1  0  0  0  0  0999 V2000
  185.8390  179.1380  143.0370 C   0  0  1  0  0  3  0  0  0  0  0  0
  189.0110  175.1270  142.8890 C   0  0  0  0  0  0  0  0  0  0  0  0
  191.9610  175.4350  146.7220 N   0  0  0  0  0  0  0  0  0  0  0  0
  192.7540  174.4500  146.2250 C   0  0  0  0  0  3  0  0  0  0  0  0
  189.5120  173.4860  141.0990 C   0  0  0  0  0  0  0  0  0  0  0  0
  190.3680  172.4900  140.6480 C   0  0  0  0  0  0  0  0  0  0  0  0
  186.9340  176.4480  142.8210 C   0  0  1  0  0  3  0  0  0  0  0  0
  188.4830  176.8190  144.7080 C   0  0  0  0  0  2  0  0  0  0  0  0
  192.1070  171.1490  140.7150 N   0  0  0  0  0  0  0  0  0  0  0  0
  186.7890  178.6460  144.1380 C   0  0  2  0  0  3  0  0  0  0  0  0
  190.8560  175.8620  146.0550 C   0  0  0  0  0  3  0  0  0  0  0  0
  189.3610  175.7300  144.1250 C   0  0  0  0  0  0  0  0  0  0  0  0
  190.5000  175.2920  144.8230 C   0  0  0  0  0  0  0  0  0  0  0  0
  190.9850  173.6740  143.0590 C   0  0  0  0  0  0  0  0  0  0  0  0
  191.4550  170.8860  139.5890 N   0  0  0  0  0  0  0  0  0  0  0  0
  186.0820  178.4920  141.7790 O   0  0  0  0  0  0  0  0  0  0  0  0
  187.6850  177.5120  143.6130 C   0  0  2  0  0  3  0  0  0  0  0  0
  190.3680  171.7000  139.5100 C   0  0  0  0  0  3  0  0  0  0  0  0
  185.9700  177.0780  141.8140 C   0  0  0  0  0  2  0  0  0  0  0  0
  185.3080  178.2830  144.1930 C   0  0  1  0  0  3  0  0  0  0  0  0
  192.4450  173.8510  145.0050 C   0  0  0  0  0  3  0  0  0  0  0  0
  191.3130  174.2660  144.2910 C   0  0  0  0  0  0  0  0  0  0  0  0
  191.7820  172.6820  142.5480 N   0  0  0  0  0  0  0  0  0  0  0  0
  187.8690  175.5730  142.2020 O   0  0  0  0  0  0  0  0  0  0  0  0
  188.4030  173.8410  140.3380 O   0  0  0  0  0  1  0  0  0  0  0  0
  193.3220  170.4740  141.1390 C   0  0  0  0  0  1  0  0  0  0  0  0
  189.8190  174.1060  142.3430 C   0  0  0  0  0  0  0  0  0  0  0  0
  191.4560  172.1190  141.3630 C   0  0  0  0  0  0  0  0  0  0  0  0
  184.6130  179.1780  145.1990 C   0  0  0  0  0  2  0  0  0  0  0  0
  184.7680  178.6150  146.5690 C   0  0  0  0  0  0  0  0  0  0  0  0
  185.5440  179.2800  147.5080 O   0  0  0  0  0  1  0  0  0  0  0  0
  184.2250  177.5200  146.8650 O   0  0  0  0  0  0  0  0  0  0  0  0
  1 16  1  6  0  0  0
  1 10  1  0  0  0  0
  1 20  1  0  0  0  0
  2 12  1  0  0  0  0
  4  3  1  0  0  0  0
  5 27  1  0  0  0  0
  6  5  2  0  0  0  0
  6 28  1  0  0  0  0
  7 19  1  6  0  0  0
  7 17  1  0  0  0  0
  9 26  1  0  0  0  0
  9 28  1  0  0  0  0
 10 20  1  0  0  0  0
 11  3  2  0  0  0  0
 12  8  1  0  0  0  0
 12 13  2  0  0  0  0
 13 11  1  0  0  0  0
 14 22  2  0  0  0  0
 15  9  1  0  0  0  0
 16 19  1  0  0  0  0
 17 10  1  0  0  0  0
 17  8  1  0  0  0  0
 18 15  2  0  0  0  0
 18  6  1  0  0  0  0
 20 29  1  0  0  0  0
 21  4  2  0  0  0  0
 22 13  1  0  0  0  0
 22 21  1  0  0  0  0
 23 14  1  0  0  0  0
 24  7  1  0  0  0  0
 24  2  1  0  0  0  0
 25  5  1  0  0  0  0
 27  2  2  0  0  0  0
 27 14  1  0  0  0  0
 28 23  2  0  0  0  0
 29 30  1  0  0  0  0
 30 32  2  0  0  0  0
 30 31  1  0  0  0  0
M  END
>  <MODEL>
6

>  <REMARK>
 VINA RESULT:      -8.1      4.421      7.707
  Name = 
  2 active torsions:
  status: ('A' for Active; 'I' for Inactive)
    1  A    between atoms: C_20  and  C_29
    2  A    between atoms: C_29  and  C_30
                            x       y       z     vdW  Elec       q    Type
                         _______ _______ _______ _____ _____    ______ ____

>  <TORSDO>
F 2

$$$$
=
 OpenBabel11112416353D

 32 38  0  0  1  0  0  0  0  0999 V2000
  185.3970  177.1330  144.4960 C   0  0  1  0  0  3  0  0  0  0  0  0
  190.2350  175.7000  143.6490 C   0  0  0  0  0  0  0  0  0  0  0  0
  190.2840  172.9520  139.6580 N   0  0  0  0  0  0  0  0  0  0  0  0
  191.5660  172.5760  139.9000 C   0  0  0  0  0  3  0  0  0  0  0  0
  192.2600  175.8060  145.0770 C   0  0  0  0  0  0  0  0  0  0  0  0
  193.5670  175.3760  145.2660 C   0  0  0  0  0  0  0  0  0  0  0  0
  188.2880  177.1250  144.1440 C   0  0  1  0  0  3  0  0  0  0  0  0
  188.1470  175.6000  142.2060 C   0  0  0  0  0  2  0  0  0  0  0  0
  195.4090  174.2710  144.8030 N   0  0  0  0  0  0  0  0  0  0  0  0
  185.9780  176.4670  143.2410 C   0  0  2  0  0  3  0  0  0  0  0  0
  189.6220  173.7980  140.4910 C   0  0  0  0  0  3  0  0  0  0  0  0
  189.5730  175.1810  142.5060 C   0  0  0  0  0  0  0  0  0  0  0  0
  190.2510  174.3100  141.6370 C   0  0  0  0  0  0  0  0  0  0  0  0
  192.2440  174.4220  143.0430 C   0  0  0  0  0  0  0  0  0  0  0  0
  195.6300  174.9440  145.9250 N   0  0  0  0  0  0  0  0  0  0  0  0
  186.3190  177.1180  145.5960 O   0  0  0  0  0  0  0  0  0  0  0  0
  187.4390  176.0500  143.4750 C   0  0  2  0  0  3  0  0  0  0  0  0
  194.5080  175.6430  146.2470 C   0  0  0  0  0  3  0  0  0  0  0  0
  187.5590  177.7540  145.3320 C   0  0  0  0  0  2  0  0  0  0  0  0
  185.7570  177.9770  143.2690 C   0  0  1  0  0  3  0  0  0  0  0  0
  192.2370  173.0550  141.0240 C   0  0  0  0  0  3  0  0  0  0  0  0
  191.5850  173.9280  141.9050 C   0  0  0  0  0  0  0  0  0  0  0  0
  193.5380  174.0440  143.2980 N   0  0  0  0  0  0  0  0  0  0  0  0
  189.5460  176.5720  144.5100 O   0  0  0  0  0  0  0  0  0  0  0  0
  191.6800  176.6800  145.9910 O   0  0  0  0  0  1  0  0  0  0  0  0
  196.3840  173.4110  144.1530 C   0  0  0  0  0  1  0  0  0  0  0  0
  191.5650  175.3210  143.9330 C   0  0  0  0  0  0  0  0  0  0  0  0
  194.1620  174.5260  144.3960 C   0  0  0  0  0  0  0  0  0  0  0  0
  184.4940  178.3100  142.5020 C   0  0  0  0  0  2  0  0  0  0  0  0
  184.7590  178.2480  141.0390 C   0  0  0  0  0  0  0  0  0  0  0  0
  183.7060  178.0800  140.1490 O   0  0  0  0  0  0  0  0  0  0  0  0
  185.9400  178.3130  140.6090 O   0  0  0  0  0  1  0  0  0  0  0  0
  1 16  1  1  0  0  0
  2 27  1  0  0  0  0
  2 24  1  0  0  0  0
  3  4  2  0  0  0  0
  3 11  1  0  0  0  0
  4 21  1  0  0  0  0
  5  6  1  0  0  0  0
  5 25  1  0  0  0  0
  6 18  1  0  0  0  0
  7 24  1  0  0  0  0
  7 19  1  1  0  0  0
  8 12  1  0  0  0  0
  8 17  1  0  0  0  0
  9 15  1  0  0  0  0
 10 20  1  0  0  0  0
 10 17  1  0  0  0  0
 10  1  1  0  0  0  0
 11 13  2  0  0  0  0
 12  2  2  0  0  0  0
 13 22  1  0  0  0  0
 13 12  1  0  0  0  0
 14 23  2  0  0  0  0
 14 27  1  0  0  0  0
 15 18  2  0  0  0  0
 17  7  1  0  0  0  0
 19 16  1  0  0  0  0
 20  1  1  0  0  0  0
 21 22  2  0  0  0  0
 22 14  1  0  0  0  0
 23 28  1  0  0  0  0
 26  9  1  0  0  0  0
 27  5  2  0  0  0  0
 28  9  1  0  0  0  0
 28  6  2  0  0  0  0
 29 20  1  0  0  0  0
 30 29  1  0  0  0  0
 31 30  2  0  0  0  0
 32 30  1  0  0  0  0
M  END
>  <MODEL>
7

>  <REMARK>
 VINA RESULT:      -8.0      4.138      9.009
  Name = 
  2 active torsions:
  status: ('A' for Active; 'I' for Inactive)
    1  A    between atoms: C_20  and  C_29
    2  A    between atoms: C_29  and  C_30
                            x       y       z     vdW  Elec       q    Type
                         _______ _______ _______ _____ _____    ______ ____

>  <TORSDO>
F 2

$$$$
=
 OpenBabel11112416353D

 32 38  0  0  1  0  0  0  0  0999 V2000
  189.6050  172.1190  139.3890 C   0  0  1  0  0  3  0  0  0  0  0  0
  188.5050  175.5000  143.0690 C   0  0  0  0  0  0  0  0  0  0  0  0
  191.7430  174.9160  146.6260 N   0  0  0  0  0  0  0  0  0  0  0  0
  191.0210  175.7150  147.4520 C   0  0  0  0  0  3  0  0  0  0  0  0
  186.5080  176.9160  143.4630 C   0  0  0  0  0  0  0  0  0  0  0  0
  185.8170  177.7180  144.3620 C   0  0  0  0  0  0  0  0  0  0  0  0
  188.9420  174.5590  140.8350 C   0  0  1  0  0  3  0  0  0  0  0  0
  190.5400  174.0390  142.6450 C   0  0  0  0  0  2  0  0  0  0  0  0
  185.4390  178.7370  146.2720 N   0  0  0  0  0  0  0  0  0  0  0  0
  190.4620  172.5040  140.6030 C   0  0  2  0  0  3  0  0  0  0  0  0
  191.3340  174.6480  145.3580 C   0  0  0  0  0  3  0  0  0  0  0  0
  189.7060  174.9210  143.5540 C   0  0  0  0  0  0  0  0  0  0  0  0
  190.1400  175.1950  144.8620 C   0  0  0  0  0  0  0  0  0  0  0  0
  188.1740  176.5940  145.2440 C   0  0  0  0  0  0  0  0  0  0  0  0
  184.4330  179.0410  145.4620 N   0  0  0  0  0  0  0  0  0  0  0  0
  188.2690  172.6360  139.4800 O   0  0  0  0  0  0  0  0  0  0  0  0
  189.6780  173.4310  141.5480 C   0  0  2  0  0  3  0  0  0  0  0  0
  184.6300  178.4260  144.2640 C   0  0  0  0  0  3  0  0  0  0  0  0
  188.1910  174.0460  139.6040 C   0  0  0  0  0  2  0  0  0  0  0  0
  190.7530  173.1220  139.2380 C   0  0  1  0  0  3  0  0  0  0  0  0
  189.8270  176.2840  147.0100 C   0  0  0  0  0  3  0  0  0  0  0  0
  189.3740  176.0290  145.7080 C   0  0  0  0  0  0  0  0  0  0  0  0
  187.4350  177.3990  146.0730 N   0  0  0  0  0  0  0  0  0  0  0  0
  188.0830  175.2190  141.7570 O   0  0  0  0  0  0  0  0  0  0  0  0
  186.0000  176.7140  142.1840 O   0  0  0  0  0  1  0  0  0  0  0  0
  185.5690  179.2150  147.6380 C   0  0  0  0  0  1  0  0  0  0  0  0
  187.7270  176.3280  143.9060 C   0  0  0  0  0  0  0  0  0  0  0  0
  186.2830  177.9370  145.6140 C   0  0  0  0  0  0  0  0  0  0  0  0
  191.9490  172.4250  138.6210 C   0  0  0  0  0  2  0  0  0  0  0  0
  191.6360  172.0280  137.2210 C   0  0  0  0  0  0  0  0  0  0  0  0
  191.1770  172.9750  136.3170 O   0  0  0  0  0  0  0  0  0  0  0  0
  191.7540  170.8260  136.8660 O   0  0  0  0  0  1  0  0  0  0  0  0
  1 16  1  1  0  0  0
  1 10  1  0  0  0  0
  2 12  2  0  0  0  0
  2 27  1  0  0  0  0
  3  4  1  0  0  0  0
  5 27  2  0  0  0  0
  5  6  1  0  0  0  0
  6 28  2  0  0  0  0
  7 19  1  6  0  0  0
  7 17  1  0  0  0  0
  7 24  1  0  0  0  0
  8 12  1  0  0  0  0
  9 26  1  0  0  0  0
 10 17  1  0  0  0  0
 11  3  2  0  0  0  0
 12 13  1  0  0  0  0
 13 11  1  0  0  0  0
 13 22  2  0  0  0  0
 14 22  1  0  0  0  0
 14 23  2  0  0  0  0
 15  9  1  0  0  0  0
 16 19  1  0  0  0  0
 17  8  1  0  0  0  0
 18  6  1  0  0  0  0
 18 15  2  0  0  0  0
 20  1  1  0  0  0  0
 20 10  1  0  0  0  0
 21  4  2  0  0  0  0
 22 21  1  0  0  0  0
 24  2  1  0  0  0  0
 25  5  1  0  0  0  0
 27 14  1  0  0  0  0
 28 23  1  0  0  0  0
 28  9  1  0  0  0  0
 29 20  1  0  0  0  0
 30 29  1  0  0  0  0
 31 30  2  0  0  0  0
 32 30  1  0  0  0  0
M  END
>  <MODEL>
8

>  <REMARK>
 VINA RESULT:      -7.9      3.685      5.721
  Name = 
  2 active torsions:
  status: ('A' for Active; 'I' for Inactive)
    1  A    between atoms: C_20  and  C_29
    2  A    between atoms: C_29  and  C_30
                            x       y       z     vdW  Elec       q    Type
                         _______ _______ _______ _____ _____    ______ ____

>  <TORSDO>
F 2

$$$$
=
 OpenBabel11112416353D

 32 38  0  0  1  0  0  0  0  0999 V2000
  186.5950  178.2850  142.8790 C   0  0  1  0  0  3  0  0  0  0  0  0
  189.9620  174.5500  143.8270 C   0  0  0  0  0  0  0  0  0  0  0  0
  193.5260  176.4240  146.5230 N   0  0  0  0  0  0  0  0  0  0  0  0
  194.2820  175.3100  146.3450 C   0  0  0  0  0  3  0  0  0  0  0  0
  190.2440  172.2950  142.8350 C   0  0  0  0  0  0  0  0  0  0  0  0
  191.0730  171.1900  142.6900 C   0  0  0  0  0  0  0  0  0  0  0  0
  187.8190  175.7450  143.6100 C   0  0  1  0  0  3  0  0  0  0  0  0
  189.6530  176.8650  144.8270 C   0  0  0  0  0  2  0  0  0  0  0  0
  192.8850  169.9810  142.9790 N   0  0  0  0  0  0  0  0  0  0  0  0
  187.7610  178.2960  143.8780 C   0  0  2  0  0  3  0  0  0  0  0  0
  192.2910  176.5410  145.9660 C   0  0  0  0  0  3  0  0  0  0  0  0
  190.4860  175.6180  144.6000 C   0  0  0  0  0  0  0  0  0  0  0  0
  191.7590  175.5040  145.1830 C   0  0  0  0  0  0  0  0  0  0  0  0
  192.0310  173.2810  144.2090 C   0  0  0  0  0  0  0  0  0  0  0  0
  192.0610  169.2720  142.2190 N   0  0  0  0  0  0  0  0  0  0  0  0
  186.6520  177.1590  141.9900 O   0  0  0  0  0  0  0  0  0  0  0  0
  188.6250  177.0340  143.7180 C   0  0  2  0  0  3  0  0  0  0  0  0
  190.9230  169.9890  142.0160 C   0  0  0  0  0  3  0  0  0  0  0  0
  186.6470  175.8980  142.6370 C   0  0  0  0  0  2  0  0  0  0  0  0
  186.3430  178.0130  144.3650 C   0  0  1  0  0  3  0  0  0  0  0  0
  193.8020  174.2510  145.5760 C   0  0  0  0  0  3  0  0  0  0  0  0
  192.5330  174.3380  144.9870 C   0  0  0  0  0  0  0  0  0  0  0  0
  192.7900  172.1550  144.0200 N   0  0  0  0  0  0  0  0  0  0  0  0
  188.6850  174.6760  143.2500 O   0  0  0  0  0  0  0  0  0  0  0  0
  188.9940  172.3070  142.2260 O   0  0  0  0  0  1  0  0  0  0  0  0
  194.2010  169.5350  143.4060 C   0  0  0  0  0  1  0  0  0  0  0  0
  190.7270  173.3830  143.6170 C   0  0  0  0  0  0  0  0  0  0  0  0
  192.2950  171.1440  143.2700 C   0  0  0  0  0  0  0  0  0  0  0  0
  185.7800  179.2620  145.0140 C   0  0  0  0  0  2  0  0  0  0  0  0
  185.2280  178.9300  146.3560 C   0  0  0  0  0  0  0  0  0  0  0  0
  184.0860  178.1470  146.4620 O   0  0  0  0  0  0  0  0  0  0  0  0
  185.7750  179.3870  147.3930 O   0  0  0  0  0  1  0  0  0  0  0  0
  1 16  1  6  0  0  0
  1 10  1  0  0  0  0
  1 20  1  0  0  0  0
  2 12  1  0  0  0  0
  4  3  1  0  0  0  0
  5 27  1  0  0  0  0
  6  5  2  0  0  0  0
  6 28  1  0  0  0  0
  7 19  1  6  0  0  0
  7 17  1  0  0  0  0
  9 28  1  0  0  0  0
  9 26  1  0  0  0  0
 10 20  1  0  0  0  0
 11  3  2  0  0  0  0
 12  8  1  0  0  0  0
 12 13  2  0  0  0  0
 13 11  1  0  0  0  0
 14 22  2  0  0  0  0
 15  9  1  0  0  0  0
 16 19  1  0  0  0  0
 17 10  1  0  0  0  0
 17  8  1  0  0  0  0
 18 15  2  0  0  0  0
 18  6  1  0  0  0  0
 20 29  1  0  0  0  0
 21  4  2  0  0  0  0
 22 13  1  0  0  0  0
 22 21  1  0  0  0  0
 23 14  1  0  0  0  0
 24  7  1  0  0  0  0
 24  2  1  0  0  0  0
 25  5  1  0  0  0  0
 27  2  2  0  0  0  0
 27 14  1  0  0  0  0
 28 23  2  0  0  0  0
 29 30  1  0  0  0  0
 30 31  2  0  0  0  0
 30 32  1  0  0  0  0
M  END
>  <MODEL>
9

>  <REMARK>
 VINA RESULT:      -7.9      4.727      8.262
  Name = 
  2 active torsions:
  status: ('A' for Active; 'I' for Inactive)
    1  A    between atoms: C_20  and  C_29
    2  A    between atoms: C_29  and  C_30
                            x       y       z     vdW  Elec       q    Type
                         _______ _______ _______ _____ _____    ______ ____

>  <TORSDO>
F 2

$$$$
