=
 OpenBabel11112417123D

 37 42  0  0  1  0  0  0  0  0999 V2000
  195.6110  175.4960  142.3960 C   0  0  0  0  0  0  0  0  0  0  0  0
  192.3980  176.0410  145.0110 C   0  0  0  0  0  0  0  0  0  0  0  0
  190.5720  178.2270  143.8110 C   0  0  0  0  0  1  0  0  0  0  0  0
  194.7650  176.1960  144.7040 C   0  0  0  0  0  0  0  0  0  0  0  0
  191.1780  175.7820  144.1870 C   0  0  1  0  0  3  0  0  0  0  0  0
  193.4970  175.9140  144.2340 C   0  0  0  0  0  0  0  0  0  0  0  0
  190.1070  176.8760  144.3360 C   0  0  1  0  0  3  0  0  0  0  0  0
  194.9000  176.5860  146.0050 N   0  0  0  0  0  0  0  0  0  0  0  0
  193.1990  175.6130  142.8970 N   0  0  0  0  0  0  0  0  0  0  0  0
  195.7550  173.9960  142.5910 C   0  0  0  0  0  1  0  0  0  0  0  0
  191.3060  176.7090  147.2000 C   0  0  0  0  0  2  0  0  0  0  0  0
  193.8100  176.7040  146.8320 C   0  0  0  0  0  3  0  0  0  0  0  0
  194.1990  175.8120  141.8530 C   0  0  0  0  0  2  0  0  0  0  0  0
  192.5140  176.4300  146.3510 C   0  0  0  0  0  0  0  0  0  0  0  0
  191.7430  175.6560  142.7420 C   0  0  1  0  0  3  0  0  0  0  0  0
  195.9160  176.2220  143.7330 C   0  0  0  0  0  2  0  0  0  0  0  0
  189.5950  177.0370  145.7820 C   0  0  2  0  0  3  0  0  0  0  0  0
  196.6310  175.9380  141.3680 C   0  0  0  0  0  1  0  0  0  0  0  0
  190.1560  176.1000  146.6700 O   0  0  0  0  0  0  0  0  0  0  0  0
  191.8490  173.2330  142.2350 C   0  0  0  0  0  3  0  0  0  0  0  0
  191.3220  171.9870  141.5810 C   0  0  2  0  0  3  0  0  0  0  0  0
  189.0460  172.5760  142.7350 C   0  0  2  0  0  3  0  0  0  0  0  0
  189.9820  171.5010  142.1600 C   0  0  0  0  0  2  0  0  0  0  0  0
  188.7680  173.7810  141.8140 C   0  0  1  0  0  3  0  0  0  0  0  0
  187.9360  174.6960  142.4610 O   0  0  0  0  0  1  0  0  0  0  0  0
  189.9900  174.5120  141.2310 C   0  0  0  0  0  2  0  0  0  0  0  0
  189.4770  172.9820  144.0010 O   0  0  0  0  0  1  0  0  0  0  0  0
  191.2280  174.4140  142.0770 C   0  0  0  0  0  0  0  0  0  0  0  0
  192.3400  170.6970  142.9620 O   0  0  0  0  0  1  0  0  0  0  0  0
  192.2690  170.9680  141.6750 O   0  0  0  0  0  0  0  0  0  0  0  0
  187.4180  176.8540  147.0380 C   0  0  0  0  0  3  0  0  0  0  0  0
  188.1030  176.9570  145.8180 C   0  0  0  0  0  0  0  0  0  0  0  0
  187.3840  176.9660  144.6180 C   0  0  0  0  0  3  0  0  0  0  0  0
  185.2960  176.8860  143.4710 F   0  0  0  0  0  0  0  0  0  0  0  0
  185.3090  176.7760  145.8530 C   0  0  0  0  0  3  0  0  0  0  0  0
  185.9890  176.8760  144.6350 C   0  0  0  0  0  0  0  0  0  0  0  0
  186.0230  176.7630  147.0540 C   0  0  0  0  0  3  0  0  0  0  0  0
  1 10  1  0  0  0  0
  1 16  1  0  0  0  0
  2 14  1  0  0  0  0
  4  8  2  0  0  0  0
  5  7  1  0  0  0  0
  5  2  1  1  0  0  0
  6  4  1  0  0  0  0
  6  2  2  0  0  0  0
  7  3  1  1  0  0  0
  7 17  1  0  0  0  0
  8 12  1  0  0  0  0
  9  6  1  0  0  0  0
 13  1  1  0  0  0  0
 13  9  1  0  0  0  0
 14 12  2  0  0  0  0
 14 11  1  0  0  0  0
 15 28  1  1  0  0  0
 15  9  1  0  0  0  0
 15  5  1  0  0  0  0
 16  4  1  0  0  0  0
 17 32  1  6  0  0  0
 17 19  1  0  0  0  0
 18  1  1  0  0  0  0
 19 11  1  0  0  0  0
 21 30  1  1  0  0  0
 21 23  1  0  0  0  0
 21 20  1  0  0  0  0
 22 27  1  1  0  0  0
 23 22  1  0  0  0  0
 24 25  1  1  0  0  0
 24 22  1  0  0  0  0
 26 24  1  0  0  0  0
 26 28  1  0  0  0  0
 28 20  2  0  0  0  0
 30 29  1  0  0  0  0
 31 37  1  0  0  0  0
 32 31  2  0  0  0  0
 33 36  2  0  0  0  0
 33 32  1  0  0  0  0
 34 36  1  0  0  0  0
 35 37  2  0  0  0  0
 36 35  1  0  0  0  0
M  END
>  <MODEL>
1

>  <REMARK>
 VINA RESULT:      -9.1      0.000      0.000
  Name = 
  3 active torsions:
  status: ('A' for Active; 'I' for Inactive)
    1  A    between atoms: C_4  and  O_37
    2  A    between atoms: C_21  and  C_27
    3  A    between atoms: C_23  and  C_30
                            x       y       z     vdW  Elec       q    Type
                         _______ _______ _______ _____ _____    ______ ____

>  <TORSDO>
F 3

$$$$
=
 OpenBabel11112417123D

 37 42  0  0  1  0  0  0  0  0999 V2000
  194.5330  174.7860  145.1440 C   0  0  0  0  0  0  0  0  0  0  0  0
  190.6040  176.1860  145.3870 C   0  0  0  0  0  0  0  0  0  0  0  0
  190.3000  178.4860  143.3440 C   0  0  0  0  0  1  0  0  0  0  0  0
  192.6900  175.8970  146.5210 C   0  0  0  0  0  0  0  0  0  0  0  0
  190.0530  176.0390  144.0050 C   0  0  1  0  0  3  0  0  0  0  0  0
  191.8930  175.7800  145.3990 C   0  0  0  0  0  0  0  0  0  0  0  0
  189.3470  177.3090  143.4990 C   0  0  1  0  0  3  0  0  0  0  0  0
  192.1350  176.4160  147.6560 N   0  0  0  0  0  0  0  0  0  0  0  0
  192.3580  175.3710  144.1410 N   0  0  0  0  0  0  0  0  0  0  0  0
  194.2210  173.3190  145.3880 C   0  0  0  0  0  1  0  0  0  0  0  0
  188.6270  177.2940  146.5240 C   0  0  0  0  0  2  0  0  0  0  0  0
  190.8220  176.8190  147.6900 C   0  0  0  0  0  3  0  0  0  0  0  0
  193.7900  175.2680  143.8780 C   0  0  0  0  0  2  0  0  0  0  0  0
  190.0120  176.7120  146.5410 C   0  0  0  0  0  0  0  0  0  0  0  0
  191.3000  175.6420  143.1630 C   0  0  1  0  0  3  0  0  0  0  0  0
  194.1630  175.6080  146.4060 C   0  0  0  0  0  2  0  0  0  0  0  0
  188.1480  177.7310  144.3730 C   0  0  2  0  0  3  0  0  0  0  0  0
  196.0220  174.9180  144.9070 C   0  0  0  0  0  1  0  0  0  0  0  0
  187.8900  176.8290  145.4220 O   0  0  0  0  0  0  0  0  0  0  0  0
  191.7620  173.3230  142.4220 C   0  0  0  0  0  3  0  0  0  0  0  0
  191.4600  172.1070  141.5920 C   0  0  2  0  0  3  0  0  0  0  0  0
  189.0330  172.2880  142.5570 C   0  0  2  0  0  3  0  0  0  0  0  0
  190.1470  171.4040  141.9750 C   0  0  0  0  0  2  0  0  0  0  0  0
  188.6870  173.5500  141.7410 C   0  0  1  0  0  3  0  0  0  0  0  0
  187.6890  174.2800  142.3880 O   0  0  0  0  0  1  0  0  0  0  0  0
  189.8530  174.4820  141.3670 C   0  0  0  0  0  2  0  0  0  0  0  0
  189.2910  172.5940  143.8960 O   0  0  0  0  0  1  0  0  0  0  0  0
  191.0120  174.4330  142.3230 C   0  0  0  0  0  0  0  0  0  0  0  0
  192.5680  170.8710  142.9520 O   0  0  0  0  0  1  0  0  0  0  0  0
  192.5180  171.2020  141.6800 O   0  0  0  0  0  0  0  0  0  0  0  0
  186.9530  177.6260  142.1570 C   0  0  0  0  0  3  0  0  0  0  0  0
  186.9280  177.9110  143.5310 C   0  0  0  0  0  0  0  0  0  0  0  0
  185.7510  178.3890  144.1170 C   0  0  0  0  0  3  0  0  0  0  0  0
  183.4670  179.0400  143.9110 F   0  0  0  0  0  0  0  0  0  0  0  0
  184.6330  178.2910  141.9710 C   0  0  0  0  0  3  0  0  0  0  0  0
  184.6050  178.5780  143.3390 C   0  0  0  0  0  0  0  0  0  0  0  0
  185.8070  177.8160  141.3800 C   0  0  0  0  0  3  0  0  0  0  0  0
  1 10  1  0  0  0  0
  1 16  1  0  0  0  0
  2  6  2  0  0  0  0
  2 14  1  0  0  0  0
  4  8  2  0  0  0  0
  5  2  1  1  0  0  0
  6  4  1  0  0  0  0
  7  3  1  1  0  0  0
  7  5  1  0  0  0  0
  7 17  1  0  0  0  0
  8 12  1  0  0  0  0
  9  6  1  0  0  0  0
 11 14  1  0  0  0  0
 13  9  1  0  0  0  0
 13  1  1  0  0  0  0
 14 12  2  0  0  0  0
 15 28  1  1  0  0  0
 15  5  1  0  0  0  0
 15  9  1  0  0  0  0
 16  4  1  0  0  0  0
 17 32  1  6  0  0  0
 17 19  1  0  0  0  0
 18  1  1  0  0  0  0
 19 11  1  0  0  0  0
 21 30  1  1  0  0  0
 21 23  1  0  0  0  0
 21 20  1  0  0  0  0
 22 27  1  1  0  0  0
 23 22  1  0  0  0  0
 24 25  1  1  0  0  0
 24 22  1  0  0  0  0
 26 24  1  0  0  0  0
 26 28  1  0  0  0  0
 28 20  2  0  0  0  0
 30 29  1  0  0  0  0
 31 32  1  0  0  0  0
 32 33  2  0  0  0  0
 35 36  2  0  0  0  0
 36 34  1  0  0  0  0
 36 33  1  0  0  0  0
 37 35  1  0  0  0  0
 37 31  2  0  0  0  0
M  END
>  <MODEL>
2

>  <REMARK>
 VINA RESULT:      -9.0      1.602      2.439
  Name = 
  3 active torsions:
  status: ('A' for Active; 'I' for Inactive)
    1  A    between atoms: C_4  and  O_37
    2  A    between atoms: C_21  and  C_27
    3  A    between atoms: C_23  and  C_30
                            x       y       z     vdW  Elec       q    Type
                         _______ _______ _______ _____ _____    ______ ____

>  <TORSDO>
F 3

$$$$
=
 OpenBabel11112417123D

 37 42  0  0  1  0  0  0  0  0999 V2000
  194.9140  174.8930  142.4930 C   0  0  0  0  0  0  0  0  0  0  0  0
  191.8190  175.9050  145.1100 C   0  0  0  0  0  0  0  0  0  0  0  0
  190.2900  178.2910  143.8760 C   0  0  0  0  0  1  0  0  0  0  0  0
  194.1830  175.7400  144.7900 C   0  0  0  0  0  0  0  0  0  0  0  0
  190.5700  175.7950  144.2960 C   0  0  1  0  0  3  0  0  0  0  0  0
  192.8860  175.6200  144.3300 C   0  0  0  0  0  0  0  0  0  0  0  0
  189.6530  177.0240  144.4280 C   0  0  1  0  0  3  0  0  0  0  0  0
  194.3770  176.1330  146.0830 N   0  0  0  0  0  0  0  0  0  0  0  0
  192.5420  175.3360  143.0010 N   0  0  0  0  0  0  0  0  0  0  0  0
  194.8600  173.3910  142.7150 C   0  0  0  0  0  1  0  0  0  0  0  0
  190.8390  176.7520  147.2900 C   0  0  0  0  0  2  0  0  0  0  0  0
  193.3180  176.4090  146.9120 C   0  0  0  0  0  3  0  0  0  0  0  0
  193.5530  175.3830  141.9490 C   0  0  0  0  0  2  0  0  0  0  0  0
  191.9940  176.3000  146.4410 C   0  0  0  0  0  0  0  0  0  0  0  0
  191.1030  175.5690  142.8510 C   0  0  1  0  0  3  0  0  0  0  0  0
  195.3210  175.5970  143.8140 C   0  0  0  0  0  2  0  0  0  0  0  0
  189.1770  177.2770  145.8740 C   0  0  2  0  0  3  0  0  0  0  0  0
  195.9770  175.1770  141.4520 C   0  0  0  0  0  1  0  0  0  0  0  0
  189.6150  176.2910  146.7770 O   0  0  0  0  0  0  0  0  0  0  0  0
  190.8820  173.8670  141.0630 C   0  0  0  0  0  3  0  0  0  0  0  0
  190.2110  172.6800  140.4340 C   0  0  2  0  0  3  0  0  0  0  0  0
  190.5100  171.5190  142.7620 C   0  0  2  0  0  3  0  0  0  0  0  0
  190.3690  171.3780  141.2380 C   0  0  0  0  0  2  0  0  0  0  0  0
  189.4420  172.3900  143.4540 C   0  0  1  0  0  3  0  0  0  0  0  0
  189.6990  172.4650  144.8230 O   0  0  0  0  0  1  0  0  0  0  0  0
  189.2200  173.8040  142.8880 C   0  0  0  0  0  2  0  0  0  0  0  0
  191.8040  171.9210  143.1050 O   0  0  0  0  0  1  0  0  0  0  0  0
  190.4250  174.3940  142.2120 C   0  0  0  0  0  0  0  0  0  0  0  0
  190.0520  173.3750  138.4090 O   0  0  0  0  0  1  0  0  0  0  0  0
  190.6990  172.4930  139.1410 O   0  0  0  0  0  0  0  0  0  0  0  0
  187.0140  177.5370  147.1390 C   0  0  0  0  0  3  0  0  0  0  0  0
  187.6880  177.3960  145.9180 C   0  0  0  0  0  0  0  0  0  0  0  0
  186.9580  177.3450  144.7250 C   0  0  0  0  0  3  0  0  0  0  0  0
  184.8600  177.3910  143.5950 F   0  0  0  0  0  0  0  0  0  0  0  0
  184.8950  177.5820  145.9710 C   0  0  0  0  0  3  0  0  0  0  0  0
  185.5630  177.4390  144.7510 C   0  0  0  0  0  0  0  0  0  0  0  0
  185.6190  177.6300  147.1650 C   0  0  0  0  0  3  0  0  0  0  0  0
  1 10  1  0  0  0  0
  1 16  1  0  0  0  0
  2 14  1  0  0  0  0
  4  8  2  0  0  0  0
  5  7  1  0  0  0  0
  5  2  1  1  0  0  0
  6  4  1  0  0  0  0
  6  2  2  0  0  0  0
  7  3  1  1  0  0  0
  7 17  1  0  0  0  0
  8 12  1  0  0  0  0
  9  6  1  0  0  0  0
 13  1  1  0  0  0  0
 13  9  1  0  0  0  0
 14 12  2  0  0  0  0
 14 11  1  0  0  0  0
 15 28  1  1  0  0  0
 15  9  1  0  0  0  0
 15  5  1  0  0  0  0
 16  4  1  0  0  0  0
 17 32  1  6  0  0  0
 17 19  1  0  0  0  0
 18  1  1  0  0  0  0
 19 11  1  0  0  0  0
 20 28  2  0  0  0  0
 21 30  1  6  0  0  0
 21 20  1  0  0  0  0
 21 23  1  0  0  0  0
 22 27  1  6  0  0  0
 22 24  1  0  0  0  0
 23 22  1  0  0  0  0
 24 25  1  1  0  0  0
 26 24  1  0  0  0  0
 28 26  1  0  0  0  0
 29 30  1  0  0  0  0
 31 37  1  0  0  0  0
 32 31  2  0  0  0  0
 33 36  2  0  0  0  0
 33 32  1  0  0  0  0
 34 36  1  0  0  0  0
 35 37  2  0  0  0  0
 36 35  1  0  0  0  0
M  END
>  <MODEL>
3

>  <REMARK>
 VINA RESULT:      -8.8      1.247      1.631
  Name = 
  3 active torsions:
  status: ('A' for Active; 'I' for Inactive)
    1  A    between atoms: C_4  and  O_37
    2  A    between atoms: C_21  and  C_27
    3  A    between atoms: C_23  and  C_30
                            x       y       z     vdW  Elec       q    Type
                         _______ _______ _______ _____ _____    ______ ____

>  <TORSDO>
F 3

$$$$
=
 OpenBabel11112417123D

 37 42  0  0  1  0  0  0  0  0999 V2000
  194.1250  174.3310  144.8860 C   0  0  0  0  0  0  0  0  0  0  0  0
  190.3810  176.0730  145.5220 C   0  0  0  0  0  0  0  0  0  0  0  0
  190.0060  178.2910  143.4020 C   0  0  0  0  0  1  0  0  0  0  0  0
  192.5620  175.6600  146.4100 C   0  0  0  0  0  0  0  0  0  0  0  0
  189.6500  175.9080  144.2280 C   0  0  1  0  0  3  0  0  0  0  0  0
  191.6250  175.5580  145.4000 C   0  0  0  0  0  0  0  0  0  0  0  0
  188.9900  177.2090  143.7380 C   0  0  1  0  0  3  0  0  0  0  0  0
  192.1970  176.2770  147.5720 N   0  0  0  0  0  0  0  0  0  0  0  0
  191.8940  175.0530  144.1210 N   0  0  0  0  0  0  0  0  0  0  0  0
  193.7310  172.9090  145.2490 C   0  0  0  0  0  1  0  0  0  0  0  0
  188.6550  177.3980  146.8240 C   0  0  0  0  0  2  0  0  0  0  0  0
  190.9350  176.7920  147.7410 C   0  0  0  0  0  3  0  0  0  0  0  0
  193.2690  174.8150  143.6930 C   0  0  0  0  0  2  0  0  0  0  0  0
  189.9810  176.7010  146.7070 C   0  0  0  0  0  0  0  0  0  0  0  0
  190.7470  175.3660  143.2650 C   0  0  1  0  0  3  0  0  0  0  0  0
  193.9820  175.2410  146.1340 C   0  0  0  0  0  2  0  0  0  0  0  0
  187.9470  177.7720  144.7250 C   0  0  2  0  0  3  0  0  0  0  0  0
  195.5780  174.3240  144.4620 C   0  0  0  0  0  1  0  0  0  0  0  0
  187.7510  176.9460  145.8480 O   0  0  0  0  0  0  0  0  0  0  0  0
  190.8350  173.7500  141.3890 C   0  0  0  0  0  3  0  0  0  0  0  0
  190.3570  172.5200  140.6700 C   0  0  2  0  0  3  0  0  0  0  0  0
  190.7060  171.2850  142.9520 C   0  0  2  0  0  3  0  0  0  0  0  0
  190.6530  171.2090  141.4180 C   0  0  0  0  0  2  0  0  0  0  0  0
  189.5020  171.9690  143.6300 C   0  0  1  0  0  3  0  0  0  0  0  0
  189.6860  172.0030  145.0130 O   0  0  0  0  0  1  0  0  0  0  0  0
  189.1170  173.3690  143.1220 C   0  0  0  0  0  2  0  0  0  0  0  0
  191.9190  171.8340  143.3790 O   0  0  0  0  0  1  0  0  0  0  0  0
  190.2610  174.1490  142.5360 C   0  0  0  0  0  0  0  0  0  0  0  0
  190.7470  173.6770  138.9050 O   0  0  0  0  0  1  0  0  0  0  0  0
  190.9230  172.4680  139.3970 O   0  0  0  0  0  0  0  0  0  0  0  0
  185.5570  178.5690  144.7130 C   0  0  0  0  0  3  0  0  0  0  0  0
  186.6490  178.0160  144.0280 C   0  0  0  0  0  0  0  0  0  0  0  0
  186.5160  177.6690  142.6790 C   0  0  0  0  0  3  0  0  0  0  0  0
  185.1780  177.5410  140.7100 F   0  0  0  0  0  0  0  0  0  0  0  0
  184.2170  178.4310  142.7020 C   0  0  0  0  0  3  0  0  0  0  0  0
  185.3020  177.8770  142.0160 C   0  0  0  0  0  0  0  0  0  0  0  0
  184.3430  178.7760  144.0510 C   0  0  0  0  0  3  0  0  0  0  0  0
  1 10  1  0  0  0  0
  1 16  1  0  0  0  0
  2 14  1  0  0  0  0
  4  8  2  0  0  0  0
  5  2  1  1  0  0  0
  6  2  2  0  0  0  0
  6  4  1  0  0  0  0
  7  3  1  1  0  0  0
  7  5  1  0  0  0  0
  7 17  1  0  0  0  0
  8 12  1  0  0  0  0
  9  6  1  0  0  0  0
 13  9  1  0  0  0  0
 13  1  1  0  0  0  0
 14 11  1  0  0  0  0
 14 12  2  0  0  0  0
 15 28  1  1  0  0  0
 15  9  1  0  0  0  0
 15  5  1  0  0  0  0
 16  4  1  0  0  0  0
 17 32  1  6  0  0  0
 17 19  1  0  0  0  0
 18  1  1  0  0  0  0
 19 11  1  0  0  0  0
 20 28  2  0  0  0  0
 21 30  1  6  0  0  0
 21 20  1  0  0  0  0
 21 23  1  0  0  0  0
 22 27  1  6  0  0  0
 22 24  1  0  0  0  0
 23 22  1  0  0  0  0
 24 25  1  1  0  0  0
 26 24  1  0  0  0  0
 28 26  1  0  0  0  0
 29 30  1  0  0  0  0
 32 31  2  0  0  0  0
 33 32  1  0  0  0  0
 34 36  1  0  0  0  0
 35 37  2  0  0  0  0
 36 33  2  0  0  0  0
 36 35  1  0  0  0  0
 37 31  1  0  0  0  0
M  END
>  <MODEL>
4

>  <REMARK>
 VINA RESULT:      -8.6      1.909      2.737
  Name = 
  3 active torsions:
  status: ('A' for Active; 'I' for Inactive)
    1  A    between atoms: C_4  and  O_37
    2  A    between atoms: C_21  and  C_27
    3  A    between atoms: C_23  and  C_30
                            x       y       z     vdW  Elec       q    Type
                         _______ _______ _______ _____ _____    ______ ____

>  <TORSDO>
F 3

$$$$
=
 OpenBabel11112417123D

 37 42  0  0  1  0  0  0  0  0999 V2000
  194.6060  174.3580  143.6330 C   0  0  0  0  0  0  0  0  0  0  0  0
  191.0160  175.8670  145.1460 C   0  0  0  0  0  0  0  0  0  0  0  0
  190.2070  178.2880  143.4020 C   0  0  0  0  0  1  0  0  0  0  0  0
  193.3330  175.4480  145.5620 C   0  0  0  0  0  0  0  0  0  0  0  0
  190.0580  175.8160  143.9980 C   0  0  1  0  0  3  0  0  0  0  0  0
  192.2250  175.4200  144.7380 C   0  0  0  0  0  0  0  0  0  0  0  0
  189.2930  177.1350  143.7930 C   0  0  1  0  0  3  0  0  0  0  0  0
  193.1810  175.9190  146.8350 N   0  0  0  0  0  0  0  0  0  0  0  0
  192.2580  175.0690  143.3810 N   0  0  0  0  0  0  0  0  0  0  0  0
  194.3140  172.8900  143.8960 C   0  0  0  0  0  1  0  0  0  0  0  0
  189.5420  176.9720  146.8880 C   0  0  0  0  0  2  0  0  0  0  0  0
  191.9640  176.3600  147.2920 C   0  0  0  0  0  3  0  0  0  0  0  0
  193.5320  174.9350  142.6820 C   0  0  0  0  0  2  0  0  0  0  0  0
  190.8340  176.3450  146.4490 C   0  0  0  0  0  0  0  0  0  0  0  0
  190.9650  175.4280  142.7940 C   0  0  1  0  0  3  0  0  0  0  0  0
  194.6830  175.1190  144.9820 C   0  0  0  0  0  2  0  0  0  0  0  0
  188.4440  177.5450  145.0140 C   0  0  2  0  0  3  0  0  0  0  0  0
  195.9540  174.4560  142.9500 C   0  0  0  0  0  1  0  0  0  0  0  0
  188.4790  176.5940  146.0510 O   0  0  0  0  0  0  0  0  0  0  0  0
  190.9740  173.7900  140.9350 C   0  0  0  0  0  3  0  0  0  0  0  0
  190.3890  172.6280  140.1830 C   0  0  2  0  0  3  0  0  0  0  0  0
  190.3860  171.3870  142.4890 C   0  0  2  0  0  3  0  0  0  0  0  0
  190.4420  171.2990  140.9560 C   0  0  0  0  0  2  0  0  0  0  0  0
  189.2390  172.2390  143.0680 C   0  0  1  0  0  3  0  0  0  0  0  0
  189.3180  172.2660  144.4610 O   0  0  0  0  0  1  0  0  0  0  0  0
  189.0910  173.6720  142.5280 C   0  0  0  0  0  2  0  0  0  0  0  0
  191.6260  171.7700  143.0090 O   0  0  0  0  0  1  0  0  0  0  0  0
  190.3730  174.2790  142.0320 C   0  0  0  0  0  0  0  0  0  0  0  0
  190.4880  173.3890  138.1790 O   0  0  0  0  0  1  0  0  0  0  0  0
  191.0390  172.4830  138.9580 O   0  0  0  0  0  0  0  0  0  0  0  0
  186.6180  177.5990  143.2780 C   0  0  0  0  0  3  0  0  0  0  0  0
  187.0330  177.8110  144.6010 C   0  0  0  0  0  0  0  0  0  0  0  0
  186.1210  178.2990  145.5440 C   0  0  0  0  0  3  0  0  0  0  0  0
  183.9200  179.0400  146.0840 F   0  0  0  0  0  0  0  0  0  0  0  0
  184.3910  178.3530  143.8500 C   0  0  0  0  0  3  0  0  0  0  0  0
  184.8010  178.5690  145.1690 C   0  0  0  0  0  0  0  0  0  0  0  0
  185.2990  177.8690  142.9040 C   0  0  0  0  0  3  0  0  0  0  0  0
  1 10  1  0  0  0  0
  1 16  1  0  0  0  0
  2 14  1  0  0  0  0
  4  8  2  0  0  0  0
  5  2  1  1  0  0  0
  6  2  2  0  0  0  0
  6  4  1  0  0  0  0
  7  3  1  1  0  0  0
  7  5  1  0  0  0  0
  7 17  1  0  0  0  0
  8 12  1  0  0  0  0
  9  6  1  0  0  0  0
 13  9  1  0  0  0  0
 13  1  1  0  0  0  0
 14 11  1  0  0  0  0
 14 12  2  0  0  0  0
 15 28  1  1  0  0  0
 15  9  1  0  0  0  0
 15  5  1  0  0  0  0
 16  4  1  0  0  0  0
 17 32  1  6  0  0  0
 17 19  1  0  0  0  0
 18  1  1  0  0  0  0
 19 11  1  0  0  0  0
 20 28  2  0  0  0  0
 21 30  1  6  0  0  0
 21 20  1  0  0  0  0
 21 23  1  0  0  0  0
 22 27  1  6  0  0  0
 22 24  1  0  0  0  0
 23 22  1  0  0  0  0
 24 25  1  1  0  0  0
 26 24  1  0  0  0  0
 28 26  1  0  0  0  0
 29 30  1  0  0  0  0
 31 32  1  0  0  0  0
 32 33  2  0  0  0  0
 35 36  2  0  0  0  0
 36 33  1  0  0  0  0
 36 34  1  0  0  0  0
 37 31  2  0  0  0  0
 37 35  1  0  0  0  0
M  END
>  <MODEL>
5

>  <REMARK>
 VINA RESULT:      -8.6      1.699      2.335
  Name = 
  3 active torsions:
  status: ('A' for Active; 'I' for Inactive)
    1  A    between atoms: C_4  and  O_37
    2  A    between atoms: C_21  and  C_27
    3  A    between atoms: C_23  and  C_30
                            x       y       z     vdW  Elec       q    Type
                         _______ _______ _______ _____ _____    ______ ____

>  <TORSDO>
F 3

$$$$
=
 OpenBabel11112417123D

 37 42  0  0  1  0  0  0  0  0999 V2000
  195.9910  174.9670  139.8350 C   0  0  0  0  0  0  0  0  0  0  0  0
  193.9910  175.7490  143.4190 C   0  0  0  0  0  0  0  0  0  0  0  0
  191.5670  177.5530  142.7670 C   0  0  0  0  0  1  0  0  0  0  0  0
  196.0120  176.0090  142.1680 C   0  0  0  0  0  0  0  0  0  0  0  0
  192.5940  175.2630  143.1990 C   0  0  1  0  0  3  0  0  0  0  0  0
  194.7110  175.5610  142.2910 C   0  0  0  0  0  0  0  0  0  0  0  0
  191.5260  176.2890  143.6140 C   0  0  1  0  0  3  0  0  0  0  0  0
  196.5850  176.6340  143.2390 N   0  0  0  0  0  0  0  0  0  0  0  0
  193.9650  175.0050  141.2420 N   0  0  0  0  0  0  0  0  0  0  0  0
  196.3990  173.5400  140.1590 C   0  0  0  0  0  1  0  0  0  0  0  0
  193.7460  176.7210  145.7480 C   0  0  0  0  0  2  0  0  0  0  0  0
  195.8920  176.8230  144.4090 C   0  0  0  0  0  3  0  0  0  0  0  0
  194.4500  175.0820  139.8680 C   0  0  0  0  0  2  0  0  0  0  0  0
  194.5600  176.3780  144.5320 C   0  0  0  0  0  0  0  0  0  0  0  0
  192.5700  174.9190  141.6810 C   0  0  1  0  0  3  0  0  0  0  0  0
  196.6860  175.9400  140.8230 C   0  0  0  0  0  2  0  0  0  0  0  0
  191.5940  176.6700  145.1080 C   0  0  2  0  0  3  0  0  0  0  0  0
  196.4670  175.2870  138.4340 C   0  0  0  0  0  1  0  0  0  0  0  0
  192.5740  175.9490  145.8140 O   0  0  0  0  0  0  0  0  0  0  0  0
  192.4010  172.5040  142.2090 C   0  0  0  0  0  3  0  0  0  0  0  0
  191.8270  171.1320  141.9930 C   0  0  2  0  0  3  0  0  0  0  0  0
  189.4880  172.2830  142.2390 C   0  0  2  0  0  3  0  0  0  0  0  0
  190.3430  171.0130  142.3760 C   0  0  0  0  0  2  0  0  0  0  0  0
  189.5810  173.0070  140.8810 C   0  0  1  0  0  3  0  0  0  0  0  0
  188.7900  174.1560  140.8950 O   0  0  0  0  0  1  0  0  0  0  0  0
  190.9910  173.3540  140.3690 C   0  0  0  0  0  2  0  0  0  0  0  0
  189.7220  173.1550  143.3060 O   0  0  0  0  0  1  0  0  0  0  0  0
  192.0110  173.5450  141.4550 C   0  0  0  0  0  0  0  0  0  0  0  0
  192.3290  170.4640  143.9700 O   0  0  0  0  0  1  0  0  0  0  0  0
  192.5710  170.1920  142.7050 O   0  0  0  0  0  0  0  0  0  0  0  0
  189.2330  177.4320  145.5460 C   0  0  0  0  0  3  0  0  0  0  0  0
  190.2570  176.4960  145.7510 C   0  0  0  0  0  0  0  0  0  0  0  0
  190.0330  175.3950  146.5840 C   0  0  0  0  0  3  0  0  0  0  0  0
  188.5770  174.1580  148.0110 F   0  0  0  0  0  0  0  0  0  0  0  0
  187.7720  176.1600  146.9980 C   0  0  0  0  0  3  0  0  0  0  0  0
  188.7920  175.2260  147.2060 C   0  0  0  0  0  0  0  0  0  0  0  0
  187.9930  177.2630  146.1690 C   0  0  0  0  0  3  0  0  0  0  0  0
  1 13  1  0  0  0  0
  1 10  1  0  0  0  0
  1 16  1  0  0  0  0
  2 14  1  0  0  0  0
  4  6  1  0  0  0  0
  4  8  2  0  0  0  0
  5  2  1  6  0  0  0
  5  7  1  0  0  0  0
  6  2  2  0  0  0  0
  7  3  1  6  0  0  0
  7 17  1  0  0  0  0
  8 12  1  0  0  0  0
  9 15  1  0  0  0  0
  9  6  1  0  0  0  0
 11 19  1  0  0  0  0
 12 14  2  0  0  0  0
 13  9  1  0  0  0  0
 14 11  1  0  0  0  0
 15 28  1  1  0  0  0
 15  5  1  0  0  0  0
 16  4  1  0  0  0  0
 17 32  1  1  0  0  0
 17 19  1  0  0  0  0
 18  1  1  0  0  0  0
 21 20  1  0  0  0  0
 21 23  1  0  0  0  0
 21 30  1  1  0  0  0
 22 23  1  0  0  0  0
 22 27  1  1  0  0  0
 24 25  1  1  0  0  0
 24 22  1  0  0  0  0
 26 24  1  0  0  0  0
 26 28  1  0  0  0  0
 28 20  2  0  0  0  0
 30 29  1  0  0  0  0
 31 32  2  0  0  0  0
 31 37  1  0  0  0  0
 32 33  1  0  0  0  0
 33 36  2  0  0  0  0
 35 36  1  0  0  0  0
 36 34  1  0  0  0  0
 37 35  2  0  0  0  0
M  END
>  <MODEL>
6

>  <REMARK>
 VINA RESULT:      -8.3      1.799      2.474
  Name = 
  3 active torsions:
  status: ('A' for Active; 'I' for Inactive)
    1  A    between atoms: C_4  and  O_37
    2  A    between atoms: C_21  and  C_27
    3  A    between atoms: C_23  and  C_30
                            x       y       z     vdW  Elec       q    Type
                         _______ _______ _______ _____ _____    ______ ____

>  <TORSDO>
F 3

$$$$
=
 OpenBabel11112417123D

 37 42  0  0  1  0  0  0  0  0999 V2000
  195.0180  174.6380  144.9600 C   0  0  0  0  0  0  0  0  0  0  0  0
  191.1640  176.1060  145.6240 C   0  0  0  0  0  0  0  0  0  0  0  0
  190.5810  178.2280  143.4540 C   0  0  0  0  0  1  0  0  0  0  0  0
  193.3860  175.8860  146.4790 C   0  0  0  0  0  0  0  0  0  0  0  0
  190.4250  175.8490  144.3500 C   0  0  1  0  0  3  0  0  0  0  0  0
  192.4410  175.6850  145.4910 C   0  0  0  0  0  0  0  0  0  0  0  0
  189.6580  177.0810  143.8390 C   0  0  1  0  0  3  0  0  0  0  0  0
  192.9960  176.5060  147.6310 N   0  0  0  0  0  0  0  0  0  0  0  0
  192.7250  175.1650  144.2210 N   0  0  0  0  0  0  0  0  0  0  0  0
  194.7410  173.2000  145.3680 C   0  0  0  0  0  1  0  0  0  0  0  0
  189.3650  177.3320  146.9240 C   0  0  0  0  0  2  0  0  0  0  0  0
  191.7010  176.9270  147.8110 C   0  0  0  0  0  3  0  0  0  0  0  0
  194.1060  175.0200  143.7720 C   0  0  0  0  0  2  0  0  0  0  0  0
  190.7380  176.7350  146.8000 C   0  0  0  0  0  0  0  0  0  0  0  0
  191.5420  175.3660  143.3800 C   0  0  1  0  0  3  0  0  0  0  0  0
  194.8290  175.5690  146.1850 C   0  0  0  0  0  2  0  0  0  0  0  0
  188.5930  177.5910  144.8320 C   0  0  2  0  0  3  0  0  0  0  0  0
  196.4600  174.7300  144.5070 C   0  0  0  0  0  1  0  0  0  0  0  0
  188.4810  176.7850  145.9800 O   0  0  0  0  0  0  0  0  0  0  0  0
  190.0910  174.0610  141.8530 C   0  0  0  0  0  3  0  0  0  0  0  0
  189.6980  172.7900  141.1550 C   0  0  2  0  0  3  0  0  0  0  0  0
  192.1870  172.6910  140.3480 C   0  0  2  0  0  3  0  0  0  0  0  0
  190.7160  172.3190  140.1030 C   0  0  0  0  0  2  0  0  0  0  0  0
  192.7390  172.3450  141.7460 C   0  0  1  0  0  3  0  0  0  0  0  0
  194.0670  172.7600  141.8530 O   0  0  0  0  0  1  0  0  0  0  0  0
  191.9380  172.8490  142.9590 C   0  0  0  0  0  2  0  0  0  0  0  0
  192.4220  174.0280  140.0180 O   0  0  0  0  0  1  0  0  0  0  0  0
  191.1380  174.0940  142.6940 C   0  0  0  0  0  0  0  0  0  0  0  0
  187.8920  173.9480  141.2060 O   0  0  0  0  0  1  0  0  0  0  0  0
  188.4480  172.9460  140.5580 O   0  0  0  0  0  0  0  0  0  0  0  0
  186.9080  176.8510  143.1100 C   0  0  0  0  0  3  0  0  0  0  0  0
  187.2670  177.7160  144.1540 C   0  0  0  0  0  0  0  0  0  0  0  0
  186.3810  178.7220  144.5550 C   0  0  0  0  0  3  0  0  0  0  0  0
  184.2880  179.8360  144.3110 F   0  0  0  0  0  0  0  0  0  0  0  0
  184.7880  177.9960  142.8810 C   0  0  0  0  0  3  0  0  0  0  0  0
  185.1430  178.8620  143.9200 C   0  0  0  0  0  0  0  0  0  0  0  0
  185.6710  176.9910  142.4750 C   0  0  0  0  0  3  0  0  0  0  0  0
  1 10  1  0  0  0  0
  1 16  1  0  0  0  0
  2 14  1  0  0  0  0
  4  8  2  0  0  0  0
  5  2  1  1  0  0  0
  6  2  2  0  0  0  0
  6  4  1  0  0  0  0
  7  3  1  1  0  0  0
  7  5  1  0  0  0  0
  7 17  1  0  0  0  0
  8 12  1  0  0  0  0
  9  6  1  0  0  0  0
 13  9  1  0  0  0  0
 13  1  1  0  0  0  0
 14 11  1  0  0  0  0
 14 12  2  0  0  0  0
 15 28  1  1  0  0  0
 15  9  1  0  0  0  0
 15  5  1  0  0  0  0
 16  4  1  0  0  0  0
 17 32  1  6  0  0  0
 17 19  1  0  0  0  0
 18  1  1  0  0  0  0
 19 11  1  0  0  0  0
 20 28  2  0  0  0  0
 21 30  1  6  0  0  0
 21 20  1  0  0  0  0
 22 27  1  1  0  0  0
 22 24  1  0  0  0  0
 23 22  1  0  0  0  0
 23 21  1  0  0  0  0
 24 25  1  6  0  0  0
 24 26  1  0  0  0  0
 28 26  1  0  0  0  0
 30 29  1  0  0  0  0
 31 32  1  0  0  0  0
 32 33  2  0  0  0  0
 35 36  2  0  0  0  0
 36 34  1  0  0  0  0
 36 33  1  0  0  0  0
 37 35  1  0  0  0  0
 37 31  2  0  0  0  0
M  END
>  <MODEL>
7

>  <REMARK>
 VINA RESULT:      -8.2      1.847      2.974
  Name = 
  3 active torsions:
  status: ('A' for Active; 'I' for Inactive)
    1  A    between atoms: C_4  and  O_37
    2  A    between atoms: C_21  and  C_27
    3  A    between atoms: C_23  and  C_30
                            x       y       z     vdW  Elec       q    Type
                         _______ _______ _______ _____ _____    ______ ____

>  <TORSDO>
F 3

$$$$
=
 OpenBabel11112417123D

 37 42  0  0  1  0  0  0  0  0999 V2000
  194.5050  170.8720  141.7000 C   0  0  0  0  0  0  0  0  0  0  0  0
  191.3110  173.5420  142.0620 C   0  0  0  0  0  0  0  0  0  0  0  0
  189.6640  172.7030  144.5380 C   0  0  0  0  0  1  0  0  0  0  0  0
  192.3570  171.8560  140.7270 C   0  0  0  0  0  0  0  0  0  0  0  0
  191.4530  174.1350  143.4270 C   0  0  1  0  0  3  0  0  0  0  0  0
  192.2950  172.6360  141.8650 C   0  0  0  0  0  0  0  0  0  0  0  0
  190.1410  174.1150  144.2310 C   0  0  1  0  0  3  0  0  0  0  0  0
  191.4030  172.0360  139.7670 N   0  0  0  0  0  0  0  0  0  0  0  0
  193.1380  172.4820  142.9740 N   0  0  0  0  0  0  0  0  0  0  0  0
  195.5290  171.8760  141.1970 C   0  0  0  0  0  1  0  0  0  0  0  0
  189.1500  174.6500  141.3330 C   0  0  0  0  0  2  0  0  0  0  0  0
  190.4010  172.9630  139.9210 C   0  0  0  0  0  3  0  0  0  0  0  0
  193.9980  171.3080  143.0940 C   0  0  0  0  0  2  0  0  0  0  0  0
  190.3290  173.7510  141.0870 C   0  0  0  0  0  0  0  0  0  0  0  0
  192.5900  173.2870  144.0690 C   0  0  1  0  0  3  0  0  0  0  0  0
  193.3610  170.7360  140.6610 C   0  0  0  0  0  2  0  0  0  0  0  0
  189.0020  174.9080  143.5590 C   0  0  2  0  0  3  0  0  0  0  0  0
  195.1900  169.5290  141.8370 C   0  0  0  0  0  1  0  0  0  0  0  0
  189.4060  175.5550  142.3770 O   0  0  0  0  0  0  0  0  0  0  0  0
  194.6190  174.7010  143.9210 C   0  0  0  0  0  3  0  0  0  0  0  0
  195.6580  175.6030  144.5250 C   0  0  2  0  0  3  0  0  0  0  0  0
  193.6400  177.0000  145.4350 C   0  0  2  0  0  3  0  0  0  0  0  0
  195.1090  176.9640  144.9850 C   0  0  0  0  0  2  0  0  0  0  0  0
  193.2330  175.9370  146.4750 C   0  0  1  0  0  3  0  0  0  0  0  0
  191.8750  176.0540  146.7750 O   0  0  0  0  0  1  0  0  0  0  0  0
  193.5670  174.4720  146.1440 C   0  0  0  0  0  2  0  0  0  0  0  0
  192.7820  176.9960  144.3310 O   0  0  0  0  0  1  0  0  0  0  0  0
  193.6380  174.1730  144.6730 C   0  0  0  0  0  0  0  0  0  0  0  0
  196.8200  177.1080  143.5310 O   0  0  0  0  0  1  0  0  0  0  0  0
  196.6960  175.8010  143.6160 O   0  0  0  0  0  0  0  0  0  0  0  0
  188.5430  175.7130  145.9030 C   0  0  0  0  0  3  0  0  0  0  0  0
  188.4180  175.8950  144.5170 C   0  0  0  0  0  0  0  0  0  0  0  0
  187.7220  177.0040  144.0240 C   0  0  0  0  0  3  0  0  0  0  0  0
  186.4840  179.0020  144.4280 F   0  0  0  0  0  0  0  0  0  0  0  0
  187.2850  177.7450  146.2880 C   0  0  0  0  0  3  0  0  0  0  0  0
  187.1570  177.9290  144.9080 C   0  0  0  0  0  0  0  0  0  0  0  0
  187.9770  176.6370  146.7860 C   0  0  0  0  0  3  0  0  0  0  0  0
  1 18  1  0  0  0  0
  1 13  1  0  0  0  0
  4  6  2  0  0  0  0
  5  2  1  6  0  0  0
  5 15  1  0  0  0  0
  5  7  1  0  0  0  0
  6  2  1  0  0  0  0
  6  9  1  0  0  0  0
  7  3  1  6  0  0  0
  8 12  2  0  0  0  0
  8  4  1  0  0  0  0
  9 13  1  0  0  0  0
  9 15  1  0  0  0  0
 10  1  1  0  0  0  0
 11 19  1  0  0  0  0
 12 14  1  0  0  0  0
 14 11  1  0  0  0  0
 14  2  2  0  0  0  0
 15 28  1  6  0  0  0
 16  4  1  0  0  0  0
 16  1  1  0  0  0  0
 17  7  1  0  0  0  0
 17 32  1  1  0  0  0
 19 17  1  0  0  0  0
 20 21  1  0  0  0  0
 20 28  2  0  0  0  0
 21 30  1  6  0  0  0
 21 23  1  0  0  0  0
 22 27  1  6  0  0  0
 22 24  1  0  0  0  0
 23 22  1  0  0  0  0
 24 25  1  6  0  0  0
 26 24  1  0  0  0  0
 28 26  1  0  0  0  0
 29 30  1  0  0  0  0
 31 37  1  0  0  0  0
 32 31  2  0  0  0  0
 33 32  1  0  0  0  0
 33 36  2  0  0  0  0
 34 36  1  0  0  0  0
 35 37  2  0  0  0  0
 36 35  1  0  0  0  0
M  END
>  <MODEL>
8

>  <REMARK>
 VINA RESULT:      -7.9      2.681      5.176
  Name = 
  3 active torsions:
  status: ('A' for Active; 'I' for Inactive)
    1  A    between atoms: C_4  and  O_37
    2  A    between atoms: C_21  and  C_27
    3  A    between atoms: C_23  and  C_30
                            x       y       z     vdW  Elec       q    Type
                         _______ _______ _______ _____ _____    ______ ____

>  <TORSDO>
F 3

$$$$
=
 OpenBabel11112417123D

 37 42  0  0  1  0  0  0  0  0999 V2000
  187.5830  176.5080  141.2980 C   0  0  0  0  0  0  0  0  0  0  0  0
  190.6810  173.9710  142.4900 C   0  0  0  0  0  0  0  0  0  0  0  0
  193.3420  175.4960  142.1060 C   0  0  0  0  0  1  0  0  0  0  0  0
  188.8890  174.3390  140.9500 C   0  0  0  0  0  0  0  0  0  0  0  0
  191.4040  174.7180  143.5640 C   0  0  1  0  0  3  0  0  0  0  0  0
  189.6690  174.7340  142.0190 C   0  0  0  0  0  0  0  0  0  0  0  0
  192.9290  174.7400  143.3610 C   0  0  1  0  0  3  0  0  0  0  0  0
  189.1420  173.1260  140.3770 N   0  0  0  0  0  0  0  0  0  0  0  0
  189.5940  175.9940  142.6290 N   0  0  0  0  0  0  0  0  0  0  0  0
  186.5690  176.0630  142.3390 C   0  0  0  0  0  1  0  0  0  0  0  0
  192.1500  171.9100  142.3350 C   0  0  0  0  0  2  0  0  0  0  0  0
  190.1470  172.3130  140.8420 C   0  0  0  0  0  3  0  0  0  0  0  0
  188.8340  177.0730  142.0060 C   0  0  0  0  0  2  0  0  0  0  0  0
  190.9520  172.7190  141.9250 C   0  0  0  0  0  0  0  0  0  0  0  0
  190.7490  176.1300  143.5200 C   0  0  1  0  0  3  0  0  0  0  0  0
  187.9120  175.3200  140.3560 C   0  0  0  0  0  2  0  0  0  0  0  0
  193.5630  173.3340  143.3460 C   0  0  2  0  0  3  0  0  0  0  0  0
  186.9570  177.6130  140.4730 C   0  0  0  0  0  1  0  0  0  0  0  0
  192.6310  172.3090  143.5940 O   0  0  0  0  0  0  0  0  0  0  0  0
  189.0390  176.7800  145.1900 C   0  0  0  0  0  3  0  0  0  0  0  0
  188.6200  177.2000  146.5710 C   0  0  2  0  0  3  0  0  0  0  0  0
  189.9530  175.1050  147.4020 C   0  0  2  0  0  3  0  0  0  0  0  0
  188.8130  176.1080  147.6370 C   0  0  0  0  0  2  0  0  0  0  0  0
  191.3310  175.7220  147.0870 C   0  0  1  0  0  3  0  0  0  0  0  0
  192.2680  174.7130  146.8630 O   0  0  0  0  0  1  0  0  0  0  0  0
  191.3910  176.7490  145.9430 C   0  0  0  0  0  2  0  0  0  0  0  0
  189.5860  174.1500  146.4500 O   0  0  0  0  0  1  0  0  0  0  0  0
  190.3310  176.5660  144.8930 C   0  0  0  0  0  0  0  0  0  0  0  0
  186.6140  176.5360  146.2010 O   0  0  0  0  0  1  0  0  0  0  0  0
  187.2880  177.6090  146.5560 O   0  0  0  0  0  0  0  0  0  0  0  0
  195.2400  174.4260  144.8770 C   0  0  0  0  0  3  0  0  0  0  0  0
  194.6880  173.2600  144.3260 C   0  0  0  0  0  0  0  0  0  0  0  0
  195.2110  172.0110  144.6800 C   0  0  0  0  0  3  0  0  0  0  0  0
  196.7780  170.7160  145.9250 F   0  0  0  0  0  0  0  0  0  0  0  0
  196.8200  173.0900  146.1330 C   0  0  0  0  0  3  0  0  0  0  0  0
  196.2750  171.9260  145.5840 C   0  0  0  0  0  0  0  0  0  0  0  0
  196.3040  174.3400  145.7800 C   0  0  0  0  0  3  0  0  0  0  0  0
  1 13  1  0  0  0  0
  1 10  1  0  0  0  0
  4  6  2  0  0  0  0
  5  2  1  6  0  0  0
  6  2  1  0  0  0  0
  6  9  1  0  0  0  0
  7  3  1  6  0  0  0
  7  5  1  0  0  0  0
  8 12  2  0  0  0  0
  8  4  1  0  0  0  0
  9 15  1  0  0  0  0
 11 19  1  0  0  0  0
 12 14  1  0  0  0  0
 13  9  1  0  0  0  0
 14 11  1  0  0  0  0
 14  2  2  0  0  0  0
 15  5  1  0  0  0  0
 15 28  1  1  0  0  0
 16  4  1  0  0  0  0
 16  1  1  0  0  0  0
 17  7  1  0  0  0  0
 17 19  1  0  0  0  0
 17 32  1  1  0  0  0
 18  1  1  0  0  0  0
 20 21  1  0  0  0  0
 21 30  1  6  0  0  0
 21 23  1  0  0  0  0
 22 27  1  6  0  0  0
 22 23  1  0  0  0  0
 24 25  1  6  0  0  0
 24 22  1  0  0  0  0
 26 24  1  0  0  0  0
 28 20  2  0  0  0  0
 28 26  1  0  0  0  0
 29 30  1  0  0  0  0
 31 37  1  0  0  0  0
 32 33  1  0  0  0  0
 32 31  2  0  0  0  0
 33 36  2  0  0  0  0
 36 34  1  0  0  0  0
 36 35  1  0  0  0  0
 37 35  2  0  0  0  0
M  END
>  <MODEL>
9

>  <REMARK>
 VINA RESULT:      -7.9      3.208      7.421
  Name = 
  3 active torsions:
  status: ('A' for Active; 'I' for Inactive)
    1  A    between atoms: C_4  and  O_37
    2  A    between atoms: C_21  and  C_27
    3  A    between atoms: C_23  and  C_30
                            x       y       z     vdW  Elec       q    Type
                         _______ _______ _______ _____ _____    ______ ____

>  <TORSDO>
F 3

$$$$
