=
 OpenBabel11112417573D

 34 41  0  0  1  0  0  0  0  0999 V2000
  189.1080  175.1090  142.3990 C   0  0  2  0  0  3  0  0  0  0  0  0
  190.9630  173.3720  141.9540 C   0  0  0  0  0  3  0  0  0  0  0  0
  185.8160  179.1060  146.3730 C   0  0  2  0  0  3  0  0  0  0  0  0
  187.4980  176.9410  142.9430 C   0  0  1  0  0  3  0  0  0  0  0  0
  187.0650  177.2440  145.3830 C   0  0  0  0  0  0  0  0  0  0  0  0
  186.8040  177.9840  147.8880 C   0  0  0  0  0  2  0  0  0  0  0  0
  186.1350  179.3560  147.8290 C   0  0  0  0  0  2  0  0  0  0  0  0
  184.2190  178.2720  144.6390 C   0  0  0  0  0  2  0  0  0  0  0  0
  190.6750  174.2180  144.1270 C   0  0  0  0  0  0  0  0  0  0  0  0
  192.9710  175.4220  145.3090 C   0  0  0  0  0  2  0  0  0  0  0  0
  188.2730  176.4490  145.6880 C   0  0  0  0  0  3  0  0  0  0  0  0
  185.4540  178.3140  143.7140 C   0  0  0  0  0  2  0  0  0  0  0  0
  190.1270  174.9590  145.0940 C   0  0  0  0  0  0  0  0  0  0  0  0
  192.0710  172.7920  142.8520 C   0  0  0  0  0  3  0  0  0  0  0  0
  186.6280  177.4070  144.0950 C   0  0  1  0  0  3  0  0  0  0  0  0
  184.3750  179.1540  145.8990 C   0  0  0  0  0  2  0  0  0  0  0  0
  193.1190  173.9700  144.8180 C   0  0  2  0  0  3  0  0  0  0  0  0
  188.5200  175.8940  143.3310 C   0  0  0  0  0  0  0  0  0  0  0  0
  186.2010  177.6640  146.5330 C   0  0  1  0  0  3  0  0  0  0  0  0
  188.9710  175.8190  144.7440 C   0  0  0  0  0  0  0  0  0  0  0  0
  187.6760  176.1970  140.5990 C   0  0  0  0  0  2  0  0  0  0  0  0
  192.0900  175.5930  146.5580 C   0  0  0  0  0  2  0  0  0  0  0  0
  186.6960  176.4990  141.7230 C   0  0  0  0  0  2  0  0  0  0  0  0
  190.7110  174.9210  146.4770 C   0  0  0  0  0  2  0  0  0  0  0  0
  191.8380  173.3030  144.2800 C   0  0  1  0  0  3  0  0  0  0  0  0
  188.5780  175.0250  140.9850 C   0  0  0  0  0  2  0  0  0  0  0  0
  190.1770  174.2400  142.8070 N   0  0  0  0  0  0  0  0  0  0  0  0
  193.7200  173.1350  145.8460 N   0  0  0  0  0  2  0  0  0  0  0  0
  195.1410  173.0470  145.5520 C   0  0  0  0  0  2  0  0  0  0  0  0
  196.6430  170.3640  146.6110 O   0  0  0  0  0  0  0  0  0  0  0  0
  194.5330  170.6510  145.5930 C   0  0  0  0  0  2  0  0  0  0  0  0
  195.4750  171.6670  145.0140 C   0  0  2  0  0  3  0  0  0  0  0  0
  195.4390  169.7010  146.3400 C   0  0  0  0  0  2  0  0  0  0  0  0
  196.8300  171.2410  145.5320 C   0  0  0  0  0  2  0  0  0  0  0  0
  1 26  1  1  0  0  0
  1 27  1  0  0  0  0
  1 18  1  0  0  0  0
  2 27  1  0  0  0  0
  2 14  2  0  0  0  0
  3 16  1  1  0  0  0
  3 19  1  0  0  0  0
  3  7  1  0  0  0  0
  4 23  1  6  0  0  0
  4 18  1  0  0  0  0
  4 15  1  0  0  0  0
  5 11  2  0  0  0  0
  5 19  1  0  0  0  0
  7  6  1  0  0  0  0
  8 16  1  0  0  0  0
  9 25  1  0  0  0  0
  9 13  2  0  0  0  0
 10 22  1  0  0  0  0
 12  8  1  0  0  0  0
 13 24  1  0  0  0  0
 15 12  1  6  0  0  0
 15  5  1  0  0  0  0
 17 10  1  0  0  0  0
 17 28  1  1  0  0  0
 18 20  2  0  0  0  0
 19  6  1  1  0  0  0
 20 13  1  0  0  0  0
 20 11  1  0  0  0  0
 21 26  1  0  0  0  0
 21 23  1  0  0  0  0
 24 22  1  0  0  0  0
 25 14  1  6  0  0  0
 25 17  1  0  0  0  0
 27  9  1  0  0  0  0
 29 28  1  0  0  0  0
 31 33  1  0  0  0  0
 32 34  1  0  0  0  0
 32 29  1  1  0  0  0
 32 31  1  0  0  0  0
 33 30  1  0  0  0  0
 34 30  1  0  0  0  0
M  END
>  <MODEL>
1

>  <REMARK>
 VINA RESULT:      -8.8      0.000      0.000
  Name = 
  3 active torsions:
  status: ('A' for Active; 'I' for Inactive)
    1  A    between atoms: C_17  and  N_28
    2  A    between atoms: N_28  and  C_29
    3  A    between atoms: C_29  and  C_32
                            x       y       z     vdW  Elec       q    Type
                         _______ _______ _______ _____ _____    ______ ____

>  <TORSDO>
F 3

$$$$
=
 OpenBabel11112417573D

 34 41  0  0  1  0  0  0  0  0999 V2000
  189.3290  175.3240  142.6040 C   0  0  2  0  0  3  0  0  0  0  0  0
  191.3370  173.7770  142.1220 C   0  0  0  0  0  3  0  0  0  0  0  0
  185.8750  179.1810  146.5790 C   0  0  2  0  0  3  0  0  0  0  0  0
  187.5600  176.9990  143.1620 C   0  0  1  0  0  3  0  0  0  0  0  0
  187.2600  177.4090  145.6060 C   0  0  0  0  0  0  0  0  0  0  0  0
  187.0850  178.2750  148.0780 C   0  0  0  0  0  2  0  0  0  0  0  0
  186.2610  179.5590  147.9920 C   0  0  0  0  0  2  0  0  0  0  0  0
  184.2710  178.0660  145.0190 C   0  0  0  0  0  2  0  0  0  0  0  0
  191.1000  174.7240  144.2590 C   0  0  0  0  0  0  0  0  0  0  0  0
  193.3170  176.2480  145.1990 C   0  0  0  0  0  2  0  0  0  0  0  0
  188.5690  176.7730  145.8660 C   0  0  0  0  0  3  0  0  0  0  0  0
  185.4280  178.1840  144.0040 C   0  0  0  0  0  2  0  0  0  0  0  0
  190.5370  175.4610  145.2220 C   0  0  0  0  0  0  0  0  0  0  0  0
  192.5620  173.3820  142.9680 C   0  0  0  0  0  3  0  0  0  0  0  0
  186.7220  177.4390  144.3470 C   0  0  1  0  0  3  0  0  0  0  0  0
  184.4100  179.0390  146.2120 C   0  0  0  0  0  2  0  0  0  0  0  0
  193.5980  174.7930  144.7800 C   0  0  2  0  0  3  0  0  0  0  0  0
  188.7190  176.0980  143.5320 C   0  0  0  0  0  0  0  0  0  0  0  0
  186.4330  177.8040  146.7910 C   0  0  1  0  0  3  0  0  0  0  0  0
  189.2690  176.1640  144.9090 C   0  0  0  0  0  0  0  0  0  0  0  0
  187.6640  176.1290  140.8570 C   0  0  0  0  0  2  0  0  0  0  0  0
  192.5080  176.4010  146.4980 C   0  0  0  0  0  2  0  0  0  0  0  0
  186.7340  176.3930  142.0320 C   0  0  0  0  0  2  0  0  0  0  0  0
  191.2140  175.5770  146.5570 C   0  0  0  0  0  2  0  0  0  0  0  0
  192.3680  173.9560  144.3780 C   0  0  1  0  0  3  0  0  0  0  0  0
  188.7190  175.0910  141.2410 C   0  0  0  0  0  2  0  0  0  0  0  0
  190.5160  174.6070  142.9800 N   0  0  0  0  0  0  0  0  0  0  0  0
  194.3580  174.0970  145.8060 N   0  0  0  0  0  2  0  0  0  0  0  0
  195.6740  174.7120  145.8570 C   0  0  0  0  0  2  0  0  0  0  0  0
  196.6020  171.9480  144.4150 O   0  0  0  0  0  0  0  0  0  0  0  0
  197.8510  173.8390  145.0730 C   0  0  0  0  0  2  0  0  0  0  0  0
  196.7370  173.6470  146.0610 C   0  0  2  0  0  3  0  0  0  0  0  0
  197.8570  172.5560  144.2770 C   0  0  0  0  0  2  0  0  0  0  0  0
  196.1660  172.2930  145.7030 C   0  0  0  0  0  2  0  0  0  0  0  0
  1 26  1  1  0  0  0
  1 27  1  0  0  0  0
  1 18  1  0  0  0  0
  2 14  2  0  0  0  0
  2 27  1  0  0  0  0
  3 16  1  1  0  0  0
  3 19  1  0  0  0  0
  3  7  1  0  0  0  0
  4 23  1  6  0  0  0
  4 18  1  0  0  0  0
  4 15  1  0  0  0  0
  5 11  2  0  0  0  0
  5 19  1  0  0  0  0
  7  6  1  0  0  0  0
  8 16  1  0  0  0  0
  9 25  1  0  0  0  0
  9 13  2  0  0  0  0
 10 22  1  0  0  0  0
 12  8  1  0  0  0  0
 13 24  1  0  0  0  0
 15 12  1  6  0  0  0
 15  5  1  0  0  0  0
 17 10  1  0  0  0  0
 17 28  1  1  0  0  0
 18 20  2  0  0  0  0
 19  6  1  1  0  0  0
 20 13  1  0  0  0  0
 20 11  1  0  0  0  0
 21 26  1  0  0  0  0
 21 23  1  0  0  0  0
 22 24  1  0  0  0  0
 25 14  1  6  0  0  0
 25 17  1  0  0  0  0
 27  9  1  0  0  0  0
 28 29  1  0  0  0  0
 30 34  1  0  0  0  0
 31 32  1  0  0  0  0
 32 29  1  6  0  0  0
 33 30  1  0  0  0  0
 33 31  1  0  0  0  0
 34 32  1  0  0  0  0
M  END
>  <MODEL>
2

>  <REMARK>
 VINA RESULT:      -8.8      1.041      1.413
  Name = 
  3 active torsions:
  status: ('A' for Active; 'I' for Inactive)
    1  A    between atoms: C_17  and  N_28
    2  A    between atoms: N_28  and  C_29
    3  A    between atoms: C_29  and  C_32
                            x       y       z     vdW  Elec       q    Type
                         _______ _______ _______ _____ _____    ______ ____

>  <TORSDO>
F 3

$$$$
=
 OpenBabel11112417573D

 34 41  0  0  1  0  0  0  0  0999 V2000
  190.0360  174.5860  142.3960 C   0  0  2  0  0  3  0  0  0  0  0  0
  187.7250  175.7020  142.6530 C   0  0  0  0  0  3  0  0  0  0  0  0
  196.0660  173.3060  144.5430 C   0  0  2  0  0  3  0  0  0  0  0  0
  192.2400  173.4080  142.3920 C   0  0  1  0  0  3  0  0  0  0  0  0
  193.9120  174.3380  143.9950 C   0  0  0  0  0  0  0  0  0  0  0  0
  195.6410  174.8980  145.8900 C   0  0  0  0  0  2  0  0  0  0  0  0
  196.6360  173.7400  145.8750 C   0  0  0  0  0  2  0  0  0  0  0  0
  196.1500  173.3880  142.0460 C   0  0  0  0  0  2  0  0  0  0  0  0
  189.3460  176.0150  144.3240 C   0  0  0  0  0  0  0  0  0  0  0  0
  188.5730  175.2770  146.9650 C   0  0  0  0  0  2  0  0  0  0  0  0
  192.8270  175.0520  144.7010 C   0  0  0  0  0  3  0  0  0  0  0  0
  194.7320  172.7850  142.1400 C   0  0  0  0  0  2  0  0  0  0  0  0
  190.5310  175.8800  144.9280 C   0  0  0  0  0  0  0  0  0  0  0  0
  187.0930  176.5160  143.7970 C   0  0  0  0  0  3  0  0  0  0  0  0
  193.6700  173.6350  142.8460 C   0  0  1  0  0  3  0  0  0  0  0  0
  196.9790  173.1930  143.3360 C   0  0  0  0  0  2  0  0  0  0  0  0
  187.6820  176.3010  146.2370 C   0  0  2  0  0  3  0  0  0  0  0  0
  191.2510  174.4000  142.9640 C   0  0  0  0  0  0  0  0  0  0  0  0
  195.3190  174.6040  144.4370 C   0  0  1  0  0  3  0  0  0  0  0  0
  191.5770  175.0840  144.2410 C   0  0  0  0  0  0  0  0  0  0  0  0
  190.6570  172.9360  140.5610 C   0  0  0  0  0  2  0  0  0  0  0  0
  189.9530  175.8090  147.3890 C   0  0  0  0  0  2  0  0  0  0  0  0
  192.0990  173.3040  140.8760 C   0  0  0  0  0  2  0  0  0  0  0  0
  190.7510  176.5040  146.2760 C   0  0  0  0  0  2  0  0  0  0  0  0
  188.1770  176.7660  144.8550 C   0  0  1  0  0  3  0  0  0  0  0  0
  189.7140  174.0490  141.0200 C   0  0  0  0  0  2  0  0  0  0  0  0
  189.0850  175.4260  143.0690 N   0  0  0  0  0  0  0  0  0  0  0  0
  187.4210  177.4530  147.0860 N   0  0  0  0  0  2  0  0  0  0  0  0
  186.1160  177.2520  147.6950 C   0  0  0  0  0  2  0  0  0  0  0  0
  185.6600  179.3870  145.2840 O   0  0  0  0  0  0  0  0  0  0  0  0
  184.1200  178.0520  146.4750 C   0  0  0  0  0  2  0  0  0  0  0  0
  185.2230  178.4470  147.4150 C   0  0  2  0  0  3  0  0  0  0  0  0
  184.3320  178.9410  145.2730 C   0  0  0  0  0  2  0  0  0  0  0  0
  186.0020  179.4860  146.6410 C   0  0  0  0  0  2  0  0  0  0  0  0
  1 26  1  6  0  0  0
  1 18  1  0  0  0  0
  1 27  1  0  0  0  0
  2 27  1  0  0  0  0
  2 14  2  0  0  0  0
  3 16  1  6  0  0  0
  3  7  1  0  0  0  0
  4 23  1  6  0  0  0
  4 15  1  0  0  0  0
  4 18  1  0  0  0  0
  5 19  1  0  0  0  0
  5 11  2  0  0  0  0
  7  6  1  0  0  0  0
  8 12  1  0  0  0  0
  8 16  1  0  0  0  0
  9 25  1  0  0  0  0
  9 13  2  0  0  0  0
 10 22  1  0  0  0  0
 13 24  1  0  0  0  0
 15 12  1  1  0  0  0
 15  5  1  0  0  0  0
 17 10  1  0  0  0  0
 17 28  1  1  0  0  0
 18 20  2  0  0  0  0
 19  3  1  0  0  0  0
 19  6  1  1  0  0  0
 20 11  1  0  0  0  0
 20 13  1  0  0  0  0
 21 23  1  0  0  0  0
 21 26  1  0  0  0  0
 24 22  1  0  0  0  0
 25 14  1  6  0  0  0
 25 17  1  0  0  0  0
 27  9  1  0  0  0  0
 28 29  1  0  0  0  0
 30 34  1  0  0  0  0
 31 32  1  0  0  0  0
 32 29  1  6  0  0  0
 33 30  1  0  0  0  0
 33 31  1  0  0  0  0
 34 32  1  0  0  0  0
M  END
>  <MODEL>
3

>  <REMARK>
 VINA RESULT:      -8.6      3.069      8.529
  Name = 
  3 active torsions:
  status: ('A' for Active; 'I' for Inactive)
    1  A    between atoms: C_17  and  N_28
    2  A    between atoms: N_28  and  C_29
    3  A    between atoms: C_29  and  C_32
                            x       y       z     vdW  Elec       q    Type
                         _______ _______ _______ _____ _____    ______ ____

>  <TORSDO>
F 3

$$$$
=
 OpenBabel11112417573D

 34 41  0  0  1  0  0  0  0  0999 V2000
  187.7180  175.8870  140.9510 C   0  0  2  0  0  3  0  0  0  0  0  0
  189.0980  174.1700  139.6090 C   0  0  0  0  0  3  0  0  0  0  0  0
  185.8300  178.5980  146.5810 C   0  0  2  0  0  3  0  0  0  0  0  0
  186.6080  177.6160  142.3720 C   0  0  1  0  0  3  0  0  0  0  0  0
  186.5340  177.0620  144.8050 C   0  0  0  0  0  0  0  0  0  0  0  0
  186.7260  176.8570  147.4150 C   0  0  0  0  0  2  0  0  0  0  0  0
  186.3610  178.2400  147.9510 C   0  0  0  0  0  2  0  0  0  0  0  0
  183.9030  178.7230  144.9930 C   0  0  0  0  0  2  0  0  0  0  0  0
  189.2490  174.1880  141.9530 C   0  0  0  0  0  0  0  0  0  0  0  0
  191.8690  174.4970  143.0300 C   0  0  0  0  0  2  0  0  0  0  0  0
  187.5720  176.0320  144.5940 C   0  0  0  0  0  3  0  0  0  0  0  0
  185.0040  178.9090  143.9260 C   0  0  0  0  0  2  0  0  0  0  0  0
  188.9860  174.5960  143.1990 C   0  0  0  0  0  0  0  0  0  0  0  0
  190.1540  173.1340  140.0360 C   0  0  0  0  0  3  0  0  0  0  0  0
  185.9950  177.7540  143.7530 C   0  0  1  0  0  3  0  0  0  0  0  0
  184.3880  179.0420  146.4250 C   0  0  0  0  0  2  0  0  0  0  0  0
  191.6490  173.3240  142.0560 C   0  0  2  0  0  3  0  0  0  0  0  0
  187.4220  176.3550  142.1860 C   0  0  0  0  0  0  0  0  0  0  0  0
  185.9170  177.1570  146.1670 C   0  0  1  0  0  3  0  0  0  0  0  0
  188.0060  175.6940  143.3800 C   0  0  0  0  0  0  0  0  0  0  0  0
  186.3510  177.7720  139.9240 C   0  0  0  0  0  2  0  0  0  0  0  0
  191.1950  174.3300  144.4020 C   0  0  0  0  0  2  0  0  0  0  0  0
  185.5950  177.7870  141.2440 C   0  0  0  0  0  2  0  0  0  0  0  0
  189.7050  173.9600  144.3540 C   0  0  0  0  0  2  0  0  0  0  0  0
  190.2020  173.1120  141.5700 C   0  0  1  0  0  3  0  0  0  0  0  0
  187.0230  176.4140  139.7160 C   0  0  0  0  0  2  0  0  0  0  0  0
  188.6180  174.7740  140.8350 N   0  0  0  0  0  0  0  0  0  0  0  0
  192.1740  172.0860  142.6100 N   0  0  0  0  0  2  0  0  0  0  0  0
  193.5390  171.9460  142.1310 C   0  0  0  0  0  2  0  0  0  0  0  0
  194.7560  173.4730  144.7320 O   0  0  0  0  0  0  0  0  0  0  0  0
  193.6600  171.3920  144.5380 C   0  0  0  0  0  2  0  0  0  0  0  0
  194.4630  171.6170  143.2900 C   0  0  2  0  0  3  0  0  0  0  0  0
  194.1580  172.4560  145.4870 C   0  0  0  0  0  2  0  0  0  0  0  0
  195.3090  172.8270  143.6170 C   0  0  0  0  0  2  0  0  0  0  0  0
  1 26  1  1  0  0  0
  1 18  1  0  0  0  0
  2 14  2  0  0  0  0
  2 27  1  0  0  0  0
  3 16  1  1  0  0  0
  3  7  1  0  0  0  0
  4 23  1  6  0  0  0
  4 15  1  0  0  0  0
  5 19  1  0  0  0  0
  6  7  1  0  0  0  0
  8 16  1  0  0  0  0
  9 13  2  0  0  0  0
 10 22  1  0  0  0  0
 11  5  2  0  0  0  0
 12  8  1  0  0  0  0
 13 20  1  0  0  0  0
 13 24  1  0  0  0  0
 15 12  1  1  0  0  0
 15  5  1  0  0  0  0
 17 28  1  1  0  0  0
 17 10  1  0  0  0  0
 18  4  1  0  0  0  0
 18 20  2  0  0  0  0
 19  3  1  0  0  0  0
 19  6  1  1  0  0  0
 20 11  1  0  0  0  0
 21 23  1  0  0  0  0
 24 22  1  0  0  0  0
 25 14  1  6  0  0  0
 25  9  1  0  0  0  0
 25 17  1  0  0  0  0
 26 21  1  0  0  0  0
 27  1  1  0  0  0  0
 27  9  1  0  0  0  0
 29 28  1  0  0  0  0
 30 33  1  0  0  0  0
 31 33  1  0  0  0  0
 32 29  1  6  0  0  0
 32 34  1  0  0  0  0
 32 31  1  0  0  0  0
 34 30  1  0  0  0  0
M  END
>  <MODEL>
4

>  <REMARK>
 VINA RESULT:      -8.5      1.723      2.335
  Name = 
  3 active torsions:
  status: ('A' for Active; 'I' for Inactive)
    1  A    between atoms: C_17  and  N_28
    2  A    between atoms: N_28  and  C_29
    3  A    between atoms: C_29  and  C_32
                            x       y       z     vdW  Elec       q    Type
                         _______ _______ _______ _____ _____    ______ ____

>  <TORSDO>
F 3

$$$$
=
 OpenBabel11112417573D

 34 41  0  0  1  0  0  0  0  0999 V2000
  189.9120  174.8430  144.8350 C   0  0  2  0  0  3  0  0  0  0  0  0
  191.8620  173.3510  144.0450 C   0  0  0  0  0  3  0  0  0  0  0  0
  184.4410  178.2200  143.7070 C   0  0  2  0  0  3  0  0  0  0  0  0
  187.8610  176.1160  145.4830 C   0  0  1  0  0  3  0  0  0  0  0  0
  186.6470  177.1610  143.5690 C   0  0  0  0  0  0  0  0  0  0  0  0
  185.0210  177.9730  141.6740 C   0  0  0  0  0  2  0  0  0  0  0  0
  183.7080  178.2910  142.3860 C   0  0  0  0  0  2  0  0  0  0  0  0
  185.6930  179.3870  145.5300 C   0  0  0  0  0  2  0  0  0  0  0  0
  190.2570  174.0690  142.4870 C   0  0  0  0  0  0  0  0  0  0  0  0
  188.9320  172.0120  141.0260 C   0  0  0  0  0  2  0  0  0  0  0  0
  187.3890  176.2910  142.6320 C   0  0  0  0  0  3  0  0  0  0  0  0
  186.1120  177.9570  145.9360 C   0  0  0  0  0  2  0  0  0  0  0  0
  189.1640  174.7030  142.0520 C   0  0  0  0  0  0  0  0  0  0  0  0
  192.1770  172.6980  142.6860 C   0  0  0  0  0  3  0  0  0  0  0  0
  186.9250  177.1630  144.9100 C   0  0  1  0  0  3  0  0  0  0  0  0
  184.4310  179.4180  144.6380 C   0  0  0  0  0  2  0  0  0  0  0  0
  190.4700  172.0390  140.9550 C   0  0  2  0  0  3  0  0  0  0  0  0
  188.7880  175.4960  144.4590 C   0  0  0  0  0  0  0  0  0  0  0  0
  185.7550  178.2120  142.9810 C   0  0  1  0  0  3  0  0  0  0  0  0
  188.3840  175.4990  143.0300 C   0  0  0  0  0  0  0  0  0  0  0  0
  189.4240  175.4300  147.2630 C   0  0  0  0  0  2  0  0  0  0  0  0
  188.2320  173.1600  140.2780 C   0  0  0  0  0  2  0  0  0  0  0  0
  188.6390  176.6050  146.7010 C   0  0  0  0  0  2  0  0  0  0  0  0
  188.7500  174.5660  140.6150 C   0  0  0  0  0  2  0  0  0  0  0  0
  191.1600  173.2200  141.6630 C   0  0  1  0  0  3  0  0  0  0  0  0
  190.4560  174.9470  146.2430 C   0  0  0  0  0  2  0  0  0  0  0  0
  190.6710  174.1470  143.8340 N   0  0  0  0  0  0  0  0  0  0  0  0
  190.9260  171.9510  139.5760 N   0  0  0  0  0  2  0  0  0  0  0  0
  190.7580  170.5710  139.1540 C   0  0  0  0  0  2  0  0  0  0  0  0
  190.8640  171.7750  136.1350 O   0  0  0  0  0  0  0  0  0  0  0  0
  190.5280  169.5700  136.9050 C   0  0  0  0  0  2  0  0  0  0  0  0
  189.9090  170.5120  137.8970 C   0  0  2  0  0  3  0  0  0  0  0  0
  190.8160  170.4420  135.7070 C   0  0  0  0  0  2  0  0  0  0  0  0
  189.9520  171.8520  137.1980 C   0  0  0  0  0  2  0  0  0  0  0  0
  1 26  1  6  0  0  0
  3  7  1  6  0  0  0
  3 16  1  0  0  0  0
  4 23  1  1  0  0  0
  5 15  1  0  0  0  0
  6  7  1  0  0  0  0
  8 12  1  0  0  0  0
  9 27  1  0  0  0  0
 11 20  1  0  0  0  0
 11  5  2  0  0  0  0
 13  9  2  0  0  0  0
 13 20  1  0  0  0  0
 14  2  2  0  0  0  0
 15  4  1  0  0  0  0
 15 12  1  1  0  0  0
 16  8  1  0  0  0  0
 17 28  1  6  0  0  0
 17 10  1  0  0  0  0
 17 25  1  0  0  0  0
 18  1  1  0  0  0  0
 18  4  1  0  0  0  0
 19  6  1  6  0  0  0
 19  5  1  0  0  0  0
 19  3  1  0  0  0  0
 20 18  2  0  0  0  0
 22 24  1  0  0  0  0
 22 10  1  0  0  0  0
 23 21  1  0  0  0  0
 24 13  1  0  0  0  0
 25  9  1  0  0  0  0
 25 14  1  1  0  0  0
 26 21  1  0  0  0  0
 27  2  1  0  0  0  0
 27  1  1  0  0  0  0
 29 28  1  0  0  0  0
 30 34  1  0  0  0  0
 31 32  1  0  0  0  0
 32 29  1  1  0  0  0
 33 30  1  0  0  0  0
 33 31  1  0  0  0  0
 34 32  1  0  0  0  0
M  END
>  <MODEL>
5

>  <REMARK>
 VINA RESULT:      -8.3      3.224      5.788
  Name = 
  3 active torsions:
  status: ('A' for Active; 'I' for Inactive)
    1  A    between atoms: C_17  and  N_28
    2  A    between atoms: N_28  and  C_29
    3  A    between atoms: C_29  and  C_32
                            x       y       z     vdW  Elec       q    Type
                         _______ _______ _______ _____ _____    ______ ____

>  <TORSDO>
F 3

$$$$
=
 OpenBabel11112417573D

 34 41  0  0  1  0  0  0  0  0999 V2000
  191.4060  175.7170  143.6230 C   0  0  2  0  0  3  0  0  0  0  0  0
  190.3080  177.1210  145.4880 C   0  0  0  0  0  3  0  0  0  0  0  0
  191.0760  172.1810  138.1460 C   0  0  2  0  0  3  0  0  0  0  0  0
  192.3430  174.5130  141.6430 C   0  0  1  0  0  3  0  0  0  0  0  0
  190.6570  173.2350  140.3180 C   0  0  0  0  0  0  0  0  0  0  0  0
  188.9930  172.1870  138.5800 C   0  0  0  0  0  2  0  0  0  0  0  0
  189.8280  171.9460  137.3240 C   0  0  0  0  0  2  0  0  0  0  0  0
  192.9330  171.2530  139.5390 C   0  0  0  0  0  2  0  0  0  0  0  0
  188.9640  176.2070  143.7920 C   0  0  0  0  0  0  0  0  0  0  0  0
  187.3650  178.0610  142.3340 C   0  0  0  0  0  2  0  0  0  0  0  0
  189.5740  173.9930  140.9790 C   0  0  0  0  0  3  0  0  0  0  0  0
  193.1350  172.7240  139.9610 C   0  0  0  0  0  2  0  0  0  0  0  0
  188.6850  175.5150  142.6820 C   0  0  0  0  0  0  0  0  0  0  0  0
  188.8620  177.6080  145.6970 C   0  0  0  0  0  3  0  0  0  0  0  0
  191.9660  173.3970  140.6880 C   0  0  1  0  0  3  0  0  0  0  0  0
  192.1420  171.1030  138.2200 C   0  0  0  0  0  2  0  0  0  0  0  0
  187.1890  178.0400  143.8640 C   0  0  2  0  0  3  0  0  0  0  0  0
  191.1900  175.0140  142.4860 C   0  0  0  0  0  0  0  0  0  0  0  0
  190.2630  172.1130  139.4060 C   0  0  1  0  0  3  0  0  0  0  0  0
  189.8040  174.8350  141.9860 C   0  0  0  0  0  0  0  0  0  0  0  0
  193.9140  175.4210  143.3130 C   0  0  0  0  0  2  0  0  0  0  0  0
  186.8100  176.8260  141.6040 C   0  0  0  0  0  2  0  0  0  0  0  0
  193.5530  174.1800  142.5110 C   0  0  0  0  0  2  0  0  0  0  0  0
  187.2740  175.4750  142.1680 C   0  0  0  0  0  2  0  0  0  0  0  0
  187.9830  176.9580  144.6210 C   0  0  1  0  0  3  0  0  0  0  0  0
  192.7740  175.7880  144.2630 C   0  0  0  0  0  2  0  0  0  0  0  0
  190.2770  176.2940  144.2980 N   0  0  0  0  0  0  0  0  0  0  0  0
  185.7810  177.9650  144.2220 N   0  0  0  0  0  2  0  0  0  0  0  0
  185.4450  179.2010  144.9080 C   0  0  0  0  0  2  0  0  0  0  0  0
  185.6770  176.8730  147.1670 O   0  0  0  0  0  0  0  0  0  0  0  0
  185.8110  179.2220  147.3530 C   0  0  0  0  0  2  0  0  0  0  0  0
  184.8320  178.8930  146.2620 C   0  0  2  0  0  3  0  0  0  0  0  0
  186.0370  177.9000  148.0490 C   0  0  0  0  0  2  0  0  0  0  0  0
  184.6310  177.4000  146.3950 C   0  0  0  0  0  2  0  0  0  0  0  0
  1 26  1  1  0  0  0
  1 27  1  0  0  0  0
  2 14  2  0  0  0  0
  3  7  1  6  0  0  0
  3 16  1  0  0  0  0
  3 19  1  0  0  0  0
  4 18  1  0  0  0  0
  4 23  1  1  0  0  0
  5 15  1  0  0  0  0
  5 11  2  0  0  0  0
  7  6  1  0  0  0  0
  8 12  1  0  0  0  0
  9 27  1  0  0  0  0
  9 25  1  0  0  0  0
 10 17  1  0  0  0  0
 11 20  1  0  0  0  0
 13  9  2  0  0  0  0
 15 12  1  6  0  0  0
 15  4  1  0  0  0  0
 16  8  1  0  0  0  0
 17 28  1  6  0  0  0
 17 25  1  0  0  0  0
 18  1  1  0  0  0  0
 19  6  1  6  0  0  0
 19  5  1  0  0  0  0
 20 18  2  0  0  0  0
 20 13  1  0  0  0  0
 21 26  1  0  0  0  0
 22 24  1  0  0  0  0
 22 10  1  0  0  0  0
 23 21  1  0  0  0  0
 24 13  1  0  0  0  0
 25 14  1  1  0  0  0
 27  2  1  0  0  0  0
 28 29  1  0  0  0  0
 30 33  1  0  0  0  0
 31 33  1  0  0  0  0
 32 29  1  6  0  0  0
 32 34  1  0  0  0  0
 32 31  1  0  0  0  0
 34 30  1  0  0  0  0
M  END
>  <MODEL>
6

>  <REMARK>
 VINA RESULT:      -8.2      3.300      8.851
  Name = 
  3 active torsions:
  status: ('A' for Active; 'I' for Inactive)
    1  A    between atoms: C_17  and  N_28
    2  A    between atoms: N_28  and  C_29
    3  A    between atoms: C_29  and  C_32
                            x       y       z     vdW  Elec       q    Type
                         _______ _______ _______ _____ _____    ______ ____

>  <TORSDO>
F 3

$$$$
=
 OpenBabel11112417573D

 34 41  0  0  1  0  0  0  0  0999 V2000
  192.2880  176.0620  145.5420 C   0  0  2  0  0  3  0  0  0  0  0  0
  190.0630  176.1660  146.8450 C   0  0  0  0  0  3  0  0  0  0  0  0
  195.6800  175.2660  140.0230 C   0  0  2  0  0  3  0  0  0  0  0  0
  194.3350  176.1340  144.1110 C   0  0  1  0  0  3  0  0  0  0  0  0
  194.0470  175.1280  141.8450 C   0  0  0  0  0  0  0  0  0  0  0  0
  193.8280  174.5030  139.3050 C   0  0  0  0  0  2  0  0  0  0  0  0
  195.0860  175.0650  138.6470 C   0  0  0  0  0  2  0  0  0  0  0  0
  197.0750  174.3940  141.9050 C   0  0  0  0  0  2  0  0  0  0  0  0
  190.0270  175.7280  144.5370 C   0  0  0  0  0  0  0  0  0  0  0  0
  188.4480  177.4960  142.9570 C   0  0  0  0  0  2  0  0  0  0  0  0
  192.5800  175.1950  142.0100 C   0  0  0  0  0  3  0  0  0  0  0  0
  196.4160  175.5360  142.7080 C   0  0  0  0  0  2  0  0  0  0  0  0
  190.5320  175.5280  143.3150 C   0  0  0  0  0  0  0  0  0  0  0  0
  188.5950  176.0910  146.3870 C   0  0  0  0  0  3  0  0  0  0  0  0
  194.8930  175.4760  142.8640 C   0  0  1  0  0  3  0  0  0  0  0  0
  197.0000  174.6070  140.3760 C   0  0  0  0  0  2  0  0  0  0  0  0
  187.7380  176.7760  144.1190 C   0  0  2  0  0  3  0  0  0  0  0  0
  192.8590  175.8830  144.3280 C   0  0  0  0  0  0  0  0  0  0  0  0
  194.5780  174.4430  140.6230 C   0  0  1  0  0  3  0  0  0  0  0  0
  192.0060  175.5540  143.1580 C   0  0  0  0  0  0  0  0  0  0  0  0
  194.5670  176.6430  146.5130 C   0  0  0  0  0  2  0  0  0  0  0  0
  188.8310  176.5900  141.7750 C   0  0  0  0  0  2  0  0  0  0  0  0
  195.1370  175.8170  145.3700 C   0  0  0  0  0  2  0  0  0  0  0  0
  189.6030  175.3180  142.1540 C   0  0  0  0  0  2  0  0  0  0  0  0
  188.5820  175.7450  144.8920 C   0  0  1  0  0  3  0  0  0  0  0  0
  193.1210  176.2330  146.7930 C   0  0  0  0  0  2  0  0  0  0  0  0
  190.8600  175.9550  145.6530 N   0  0  0  0  0  0  0  0  0  0  0  0
  186.4980  176.1650  143.6670 N   0  0  0  0  0  2  0  0  0  0  0  0
  185.4550  177.1710  143.7830 C   0  0  0  0  0  2  0  0  0  0  0  0
  183.6660  179.0410  145.7520 O   0  0  0  0  0  0  0  0  0  0  0  0
  185.1390  177.2620  146.2330 C   0  0  0  0  0  2  0  0  0  0  0  0
  185.6700  177.9980  145.0370 C   0  0  2  0  0  3  0  0  0  0  0  0
  184.0670  178.1760  146.7780 C   0  0  0  0  0  2  0  0  0  0  0  0
  184.8130  179.2430  144.9700 C   0  0  0  0  0  2  0  0  0  0  0  0
  1 27  1  0  0  0  0
  1 26  1  1  0  0  0
  3  7  1  6  0  0  0
  3 16  1  0  0  0  0
  3 19  1  0  0  0  0
  4 18  1  0  0  0  0
  4 23  1  1  0  0  0
  5 11  2  0  0  0  0
  5 15  1  0  0  0  0
  7  6  1  0  0  0  0
  8 12  1  0  0  0  0
  9 25  1  0  0  0  0
  9 27  1  0  0  0  0
 10 17  1  0  0  0  0
 11 20  1  0  0  0  0
 13  9  2  0  0  0  0
 14  2  2  0  0  0  0
 15 12  1  6  0  0  0
 15  4  1  0  0  0  0
 16  8  1  0  0  0  0
 17 28  1  6  0  0  0
 17 25  1  0  0  0  0
 18  1  1  0  0  0  0
 19  6  1  6  0  0  0
 19  5  1  0  0  0  0
 20 13  1  0  0  0  0
 20 18  2  0  0  0  0
 21 26  1  0  0  0  0
 22 24  1  0  0  0  0
 22 10  1  0  0  0  0
 23 21  1  0  0  0  0
 24 13  1  0  0  0  0
 25 14  1  1  0  0  0
 27  2  1  0  0  0  0
 28 29  1  0  0  0  0
 30 33  1  0  0  0  0
 31 33  1  0  0  0  0
 32 29  1  6  0  0  0
 32 31  1  0  0  0  0
 34 32  1  0  0  0  0
 34 30  1  0  0  0  0
M  END
>  <MODEL>
7

>  <REMARK>
 VINA RESULT:      -8.2      3.823      9.298
  Name = 
  3 active torsions:
  status: ('A' for Active; 'I' for Inactive)
    1  A    between atoms: C_17  and  N_28
    2  A    between atoms: N_28  and  C_29
    3  A    between atoms: C_29  and  C_32
                            x       y       z     vdW  Elec       q    Type
                         _______ _______ _______ _____ _____    ______ ____

>  <TORSDO>
F 3

$$$$
=
 OpenBabel11112417573D

 34 41  0  0  1  0  0  0  0  0999 V2000
  189.9510  174.8620  144.8860 C   0  0  2  0  0  3  0  0  0  0  0  0
  191.9220  173.3760  144.1380 C   0  0  0  0  0  3  0  0  0  0  0  0
  184.5050  178.2370  143.6360 C   0  0  2  0  0  3  0  0  0  0  0  0
  187.8820  176.1290  145.4880 C   0  0  1  0  0  3  0  0  0  0  0  0
  186.7150  177.1820  143.5480 C   0  0  0  0  0  0  0  0  0  0  0  0
  185.1360  178.0010  141.6180 C   0  0  0  0  0  2  0  0  0  0  0  0
  183.8050  178.3130  142.2980 C   0  0  0  0  0  2  0  0  0  0  0  0
  185.7080  179.3960  145.4960 C   0  0  0  0  0  2  0  0  0  0  0  0
  190.3560  174.0990  142.5430 C   0  0  0  0  0  0  0  0  0  0  0  0
  189.0710  172.0480  141.0390 C   0  0  0  0  0  2  0  0  0  0  0  0
  187.4810  176.3170  142.6270 C   0  0  0  0  0  3  0  0  0  0  0  0
  186.1190  177.9660  145.9050 C   0  0  0  0  0  2  0  0  0  0  0  0
  189.2730  174.7350  142.0840 C   0  0  0  0  0  0  0  0  0  0  0  0
  192.2720  172.7310  142.7840 C   0  0  0  0  0  3  0  0  0  0  0  0
  186.9590  177.1770  144.8960 C   0  0  1  0  0  3  0  0  0  0  0  0
  184.4690  179.4300  144.5720 C   0  0  0  0  0  2  0  0  0  0  0  0
  190.6110  172.0770  141.0070 C   0  0  2  0  0  3  0  0  0  0  0  0
  188.8350  175.5150  144.4850 C   0  0  0  0  0  0  0  0  0  0  0  0
  185.8360  178.2340  142.9430 C   0  0  1  0  0  3  0  0  0  0  0  0
  188.4680  175.5250  143.0460 C   0  0  0  0  0  0  0  0  0  0  0  0
  189.4010  175.4370  147.3030 C   0  0  0  0  0  2  0  0  0  0  0  0
  188.3890  173.1980  140.2790 C   0  0  0  0  0  2  0  0  0  0  0  0
  188.6280  176.6130  146.7270 C   0  0  0  0  0  2  0  0  0  0  0  0
  188.8960  174.6030  140.6360 C   0  0  0  0  0  2  0  0  0  0  0  0
  191.2800  173.2560  141.7380 C   0  0  1  0  0  3  0  0  0  0  0  0
  190.4580  174.9600  146.3070 C   0  0  0  0  0  2  0  0  0  0  0  0
  190.7350  174.1720  143.9000 N   0  0  0  0  0  0  0  0  0  0  0  0
  191.1010  171.9970  139.6400 N   0  0  0  0  0  2  0  0  0  0  0  0
  191.9840  173.1330  139.4330 C   0  0  0  0  0  2  0  0  0  0  0  0
  192.7880  172.8010  136.2990 O   0  0  0  0  0  0  0  0  0  0  0  0
  190.6770  172.9790  137.3390 C   0  0  0  0  0  2  0  0  0  0  0  0
  191.6540  173.8130  138.1160 C   0  0  2  0  0  3  0  0  0  0  0  0
  191.4150  172.6480  136.0640 C   0  0  0  0  0  2  0  0  0  0  0  0
  192.8870  173.8360  137.2400 C   0  0  0  0  0  2  0  0  0  0  0  0
  1 26  1  6  0  0  0
  3  7  1  6  0  0  0
  3 16  1  0  0  0  0
  4 23  1  1  0  0  0
  5 15  1  0  0  0  0
  6  7  1  0  0  0  0
  8 12  1  0  0  0  0
  9 27  1  0  0  0  0
 11 20  1  0  0  0  0
 11  5  2  0  0  0  0
 13  9  2  0  0  0  0
 13 20  1  0  0  0  0
 14  2  2  0  0  0  0
 15  4  1  0  0  0  0
 15 12  1  1  0  0  0
 16  8  1  0  0  0  0
 17 28  1  6  0  0  0
 17 10  1  0  0  0  0
 17 25  1  0  0  0  0
 18  1  1  0  0  0  0
 18  4  1  0  0  0  0
 19  6  1  6  0  0  0
 19  5  1  0  0  0  0
 19  3  1  0  0  0  0
 20 18  2  0  0  0  0
 22 24  1  0  0  0  0
 22 10  1  0  0  0  0
 23 21  1  0  0  0  0
 24 13  1  0  0  0  0
 25  9  1  0  0  0  0
 25 14  1  1  0  0  0
 26 21  1  0  0  0  0
 27  2  1  0  0  0  0
 27  1  1  0  0  0  0
 29 28  1  0  0  0  0
 30 34  1  0  0  0  0
 31 32  1  0  0  0  0
 32 29  1  1  0  0  0
 33 30  1  0  0  0  0
 33 31  1  0  0  0  0
 34 32  1  0  0  0  0
M  END
>  <MODEL>
8

>  <REMARK>
 VINA RESULT:      -8.2      2.899      5.548
  Name = 
  3 active torsions:
  status: ('A' for Active; 'I' for Inactive)
    1  A    between atoms: C_17  and  N_28
    2  A    between atoms: N_28  and  C_29
    3  A    between atoms: C_29  and  C_32
                            x       y       z     vdW  Elec       q    Type
                         _______ _______ _______ _____ _____    ______ ____

>  <TORSDO>
F 3

$$$$
=
 OpenBabel11112417573D

 34 41  0  0  1  0  0  0  0  0999 V2000
  189.9570  174.5310  141.3990 C   0  0  2  0  0  3  0  0  0  0  0  0
  187.7250  175.7290  140.9090 C   0  0  0  0  0  3  0  0  0  0  0  0
  195.4180  173.7640  144.8920 C   0  0  2  0  0  3  0  0  0  0  0  0
  192.0350  173.3470  142.1240 C   0  0  1  0  0  3  0  0  0  0  0  0
  193.4720  174.6510  143.6950 C   0  0  0  0  0  0  0  0  0  0  0  0
  194.8880  175.6800  145.6510 C   0  0  0  0  0  2  0  0  0  0  0  0
  195.7820  174.5410  146.1380 C   0  0  0  0  0  2  0  0  0  0  0  0
  195.9340  173.1370  142.5280 C   0  0  0  0  0  2  0  0  0  0  0  0
  189.0560  176.4610  142.7020 C   0  0  0  0  0  0  0  0  0  0  0  0
  187.7890  176.5140  145.2540 C   0  0  0  0  0  2  0  0  0  0  0  0
  192.3390  175.5600  143.9660 C   0  0  0  0  0  3  0  0  0  0  0  0
  194.4790  172.6200  142.5180 C   0  0  0  0  0  2  0  0  0  0  0  0
  190.1060  176.4730  143.5280 C   0  0  0  0  0  0  0  0  0  0  0  0
  186.9700  176.8470  141.6510 C   0  0  0  0  0  3  0  0  0  0  0  0
  193.3790  173.6590  142.7560 C   0  0  1  0  0  3  0  0  0  0  0  0
  196.5120  173.2940  143.9520 C   0  0  0  0  0  2  0  0  0  0  0  0
  187.1140  177.3130  144.1230 C   0  0  2  0  0  3  0  0  0  0  0  0
  191.0390  174.4830  142.2110 C   0  0  0  0  0  0  0  0  0  0  0  0
  194.7990  174.9960  144.3000 C   0  0  1  0  0  3  0  0  0  0  0  0
  191.1920  175.4910  143.2910 C   0  0  0  0  0  0  0  0  0  0  0  0
  190.7580  172.4170  140.2310 C   0  0  0  0  0  2  0  0  0  0  0  0
  189.1110  177.1110  145.7640 C   0  0  0  0  0  2  0  0  0  0  0  0
  192.1480  172.8240  140.6960 C   0  0  0  0  0  2  0  0  0  0  0  0
  190.1370  177.4460  144.6720 C   0  0  0  0  0  2  0  0  0  0  0  0
  187.8720  177.3580  142.7820 C   0  0  1  0  0  3  0  0  0  0  0  0
  189.8360  173.6360  140.1860 C   0  0  0  0  0  2  0  0  0  0  0  0
  188.9700  175.5490  141.6290 N   0  0  0  0  0  0  0  0  0  0  0  0
  186.7980  178.6630  144.5610 N   0  0  0  0  0  2  0  0  0  0  0  0
  185.3510  178.7950  144.5400 C   0  0  0  0  0  2  0  0  0  0  0  0
  185.4220  177.1670  147.3540 O   0  0  0  0  0  0  0  0  0  0  0  0
  185.9420  179.4150  146.8600 C   0  0  0  0  0  2  0  0  0  0  0  0
  184.8260  178.9810  145.9520 C   0  0  2  0  0  3  0  0  0  0  0  0
  186.0200  178.3150  147.8910 C   0  0  0  0  0  2  0  0  0  0  0  0
  184.4050  177.6410  146.5120 C   0  0  0  0  0  2  0  0  0  0  0  0
  1 26  1  6  0  0  0
  1 27  1  0  0  0  0
  1 18  1  0  0  0  0
  2 27  1  0  0  0  0
  2 14  2  0  0  0  0
  3 16  1  6  0  0  0
  3  7  1  0  0  0  0
  4 23  1  6  0  0  0
  4 18  1  0  0  0  0
  4 15  1  0  0  0  0
  5 11  2  0  0  0  0
  5 19  1  0  0  0  0
  6  7  1  0  0  0  0
  8 16  1  0  0  0  0
  9 25  1  0  0  0  0
  9 13  2  0  0  0  0
 10 22  1  0  0  0  0
 12  8  1  0  0  0  0
 13 24  1  0  0  0  0
 15 12  1  1  0  0  0
 15  5  1  0  0  0  0
 17 28  1  1  0  0  0
 17 10  1  0  0  0  0
 18 20  2  0  0  0  0
 19  3  1  0  0  0  0
 19  6  1  1  0  0  0
 20 13  1  0  0  0  0
 20 11  1  0  0  0  0
 21 23  1  0  0  0  0
 24 22  1  0  0  0  0
 25 14  1  6  0  0  0
 25 17  1  0  0  0  0
 26 21  1  0  0  0  0
 27  9  1  0  0  0  0
 29 28  1  0  0  0  0
 30 33  1  0  0  0  0
 31 33  1  0  0  0  0
 32 29  1  6  0  0  0
 32 34  1  0  0  0  0
 32 31  1  0  0  0  0
 34 30  1  0  0  0  0
M  END
>  <MODEL>
9

>  <REMARK>
 VINA RESULT:      -8.1      3.039      8.413
  Name = 
  3 active torsions:
  status: ('A' for Active; 'I' for Inactive)
    1  A    between atoms: C_17  and  N_28
    2  A    between atoms: N_28  and  C_29
    3  A    between atoms: C_29  and  C_32
                            x       y       z     vdW  Elec       q    Type
                         _______ _______ _______ _____ _____    ______ ____

>  <TORSDO>
F 3

$$$$
