=
 OpenBabel11112418033D

 34 42  0  0  1  0  0  0  0  0999 V2000
  185.5610  178.3430  145.5460 C   0  0  0  0  0  0  0  0  0  0  0  0
  183.4830  179.1740  144.5250 C   0  0  0  0  0  3  0  0  0  0  0  0
  190.6750  174.2420  145.1630 C   0  0  2  0  0  0  0  0  0  0  0  0
  187.7090  177.4110  146.2600 C   0  0  0  0  0  0  0  0  0  0  0  0
  189.0330  176.1680  144.6340 C   0  0  0  0  0  0  0  0  0  0  0  0
  189.9010  173.9640  143.8890 C   0  0  2  0  0  3  0  0  0  0  0  0
  190.9830  173.0080  144.3470 C   0  0  0  0  0  2  0  0  0  0  0  0
  189.8720  174.9530  147.4630 C   0  0  0  0  0  2  0  0  0  0  0  0
  184.8460  178.0430  143.3060 C   0  0  0  0  0  0  0  0  0  0  0  0
  184.8730  178.6600  140.3260 C   0  0  0  0  0  3  0  0  0  0  0  0
  188.0830  176.4050  143.6900 N   0  0  0  0  0  0  0  0  0  0  0  0
  189.9160  176.4080  146.9850 C   0  0  0  0  0  2  0  0  0  0  0  0
  185.9890  177.3240  142.9500 C   0  0  0  0  0  0  0  0  0  0  0  0
  182.9150  179.1310  143.2920 N   0  0  0  0  0  0  0  0  0  0  0  0
  188.8710  176.6840  145.9400 C   0  0  0  0  0  0  0  0  0  0  0  0
  189.7330  173.9350  146.3260 C   0  0  0  0  0  2  0  0  0  0  0  0
  183.6350  178.1470  141.0630 C   0  0  1  0  0  3  0  0  0  0  0  0
  186.7410  177.6260  145.2640 C   0  0  1  0  0  3  0  0  0  0  0  0
  190.2700  175.3970  144.2330 C   0  0  2  0  0  3  0  0  0  0  0  0
  186.9520  177.1090  143.9560 C   0  0  0  0  0  0  0  0  0  0  0  0
  186.2180  178.7010  147.8670 C   0  0  0  0  0  3  0  0  0  0  0  0
  186.1370  177.7900  140.4670 C   0  0  0  0  0  3  0  0  0  0  0  0
  187.5100  177.9510  147.6610 C   0  0  0  0  0  3  0  0  0  0  0  0
  186.1210  176.7310  141.5770 C   0  0  0  0  0  2  0  0  0  0  0  0
  183.7800  178.4200  142.5320 C   0  0  0  0  0  0  0  0  0  0  0  0
  185.3240  178.8810  146.8950 C   0  0  0  0  0  3  0  0  0  0  0  0
  184.6630  178.5190  144.5420 N   0  0  0  0  0  0  0  0  0  0  0  0
  182.5000  178.7870  140.5600 O   0  0  0  0  0  0  0  0  0  0  0  0
  181.5970  177.7920  140.3790 N   0  0  0  0  0  2  0  0  0  0  0  0
  179.5510  180.2290  139.8150 O   0  0  0  0  0  0  0  0  0  0  0  0
  179.2190  177.9000  139.9620 C   0  0  0  0  0  2  0  0  0  0  0  0
  180.3280  178.2700  140.9040 C   0  0  2  0  0  3  0  0  0  0  0  0
  178.5960  179.2260  139.6010 C   0  0  0  0  0  2  0  0  0  0  0  0
  180.3180  179.7810  140.9020 C   0  0  0  0  0  2  0  0  0  0  0  0
  1 26  2  0  0  0  0
  2 27  1  0  0  0  0
  3  7  1  1  0  0  0
  3 16  1  0  0  0  0
  4 23  1  0  0  0  0
  5 15  1  0  0  0  0
  6 19  1  0  0  0  0
  6  7  1  6  0  0  0
  6  3  1  0  0  0  0
  9 27  1  0  0  0  0
 10 22  2  0  0  0  0
 10 17  1  0  0  0  0
 11 20  1  0  0  0  0
 11  5  2  0  0  0  0
 12  8  1  0  0  0  0
 13  9  1  0  0  0  0
 13 20  2  0  0  0  0
 14  2  2  0  0  0  0
 15  4  2  0  0  0  0
 15 12  1  0  0  0  0
 16  8  1  0  0  0  0
 17 28  1  6  0  0  0
 17 25  1  0  0  0  0
 18 20  1  1  0  0  0
 18  1  1  0  0  0  0
 18  4  1  0  0  0  0
 19  5  1  1  0  0  0
 19  3  1  0  0  0  0
 22 24  1  0  0  0  0
 23 21  2  0  0  0  0
 24 13  1  0  0  0  0
 25 14  1  0  0  0  0
 25  9  2  0  0  0  0
 26 21  1  0  0  0  0
 27  1  1  0  0  0  0
 29 28  1  0  0  0  0
 30 34  1  0  0  0  0
 31 32  1  0  0  0  0
 32 29  1  6  0  0  0
 33 30  1  0  0  0  0
 33 31  1  0  0  0  0
 34 32  1  0  0  0  0
M  END
>  <MODEL>
1

>  <REMARK>
 VINA RESULT:      -9.2      0.000      0.000
  Name = 
  3 active torsions:
  status: ('A' for Active; 'I' for Inactive)
    1  A    between atoms: C_17  and  O_28
    2  A    between atoms: O_28  and  N_29
    3  A    between atoms: N_29  and  C_32
                            x       y       z     vdW  Elec       q    Type
                         _______ _______ _______ _____ _____    ______ ____

>  <TORSDO>
F 3

$$$$
=
 OpenBabel11112418033D

 34 42  0  0  1  0  0  0  0  0999 V2000
  187.4340  176.2140  140.8760 C   0  0  0  0  0  0  0  0  0  0  0  0
  188.5160  174.5200  139.4570 C   0  0  0  0  0  3  0  0  0  0  0  0
  185.8510  178.1810  146.9370 C   0  0  2  0  0  0  0  0  0  0  0  0
  186.5430  177.7810  142.5320 C   0  0  0  0  0  0  0  0  0  0  0  0
  187.2410  177.5350  144.8560 C   0  0  0  0  0  0  0  0  0  0  0  0
  186.6140  176.8930  147.1710 C   0  0  2  0  0  3  0  0  0  0  0  0
  185.7970  177.5070  148.2890 C   0  0  0  0  0  2  0  0  0  0  0  0
  184.3560  178.8920  145.0120 C   0  0  0  0  0  2  0  0  0  0  0  0
  188.9600  174.5340  141.5620 C   0  0  0  0  0  0  0  0  0  0  0  0
  191.7020  173.5150  142.4020 C   0  0  0  0  0  3  0  0  0  0  0  0
  188.0300  176.4850  144.5000 N   0  0  0  0  0  0  0  0  0  0  0  0
  185.6080  179.3670  144.2680 C   0  0  0  0  0  2  0  0  0  0  0  0
  188.9390  174.9430  142.8960 C   0  0  0  0  0  0  0  0  0  0  0  0
  189.4090  173.5140  139.6460 N   0  0  0  0  0  0  0  0  0  0  0  0
  186.4920  178.2160  143.8690 C   0  0  0  0  0  0  0  0  0  0  0  0
  184.6390  177.8250  146.0750 C   0  0  0  0  0  2  0  0  0  0  0  0
  190.6750  172.6480  141.6720 C   0  0  1  0  0  3  0  0  0  0  0  0
  187.3590  176.6850  142.2030 C   0  0  0  0  0  0  0  0  0  0  0  0
  187.2340  177.9730  146.3020 C   0  0  2  0  0  3  0  0  0  0  0  0
  188.1150  176.0400  143.2200 C   0  0  0  0  0  0  0  0  0  0  0  0
  185.8720  177.9090  140.0830 C   0  0  0  0  0  3  0  0  0  0  0  0
  191.2080  174.1690  143.7070 C   0  0  0  0  0  3  0  0  0  0  0  0
  185.7290  178.4870  141.4690 C   0  0  0  0  0  2  0  0  0  0  0  0
  189.6930  174.1730  143.9430 C   0  0  0  0  0  2  0  0  0  0  0  0
  189.6850  173.5330  140.9710 C   0  0  0  0  0  0  0  0  0  0  0  0
  186.6560  176.8660  139.8110 C   0  0  0  0  0  3  0  0  0  0  0  0
  188.2400  175.1510  140.6180 N   0  0  0  0  0  0  0  0  0  0  0  0
  191.3330  171.8310  140.7500 O   0  0  0  0  0  0  0  0  0  0  0  0
  190.5560  170.7250  140.6560 N   0  0  0  0  0  2  0  0  0  0  0  0
  190.0540  170.9580  137.4720 O   0  0  0  0  0  0  0  0  0  0  0  0
  192.0320  170.8010  138.7440 C   0  0  0  0  0  2  0  0  0  0  0  0
  190.9640  170.0190  139.4520 C   0  0  2  0  0  3  0  0  0  0  0  0
  191.4480  171.0510  137.3750 C   0  0  0  0  0  2  0  0  0  0  0  0
  189.8170  169.9970  138.4680 C   0  0  0  0  0  2  0  0  0  0  0  0
  1 18  2  0  0  0  0
  2 14  2  0  0  0  0
  2 27  1  0  0  0  0
  3 16  1  6  0  0  0
  3  6  1  0  0  0  0
  3  7  1  0  0  0  0
  4 15  2  0  0  0  0
  6  7  1  1  0  0  0
  8 16  1  0  0  0  0
  9 13  1  0  0  0  0
 10 22  2  0  0  0  0
 11  5  2  0  0  0  0
 12  8  1  0  0  0  0
 13 20  2  0  0  0  0
 13 24  1  0  0  0  0
 14 25  1  0  0  0  0
 15 12  1  0  0  0  0
 15  5  1  0  0  0  0
 17 28  1  6  0  0  0
 17 10  1  0  0  0  0
 18  4  1  0  0  0  0
 18 20  1  0  0  0  0
 19  5  1  6  0  0  0
 19  3  1  0  0  0  0
 19  6  1  0  0  0  0
 20 11  1  0  0  0  0
 21 23  1  0  0  0  0
 22 24  1  0  0  0  0
 23  4  1  0  0  0  0
 25  9  2  0  0  0  0
 25 17  1  0  0  0  0
 26 21  2  0  0  0  0
 26  1  1  0  0  0  0
 27  1  1  0  0  0  0
 27  9  1  0  0  0  0
 29 28  1  0  0  0  0
 30 34  1  0  0  0  0
 31 32  1  0  0  0  0
 32 29  1  1  0  0  0
 33 30  1  0  0  0  0
 33 31  1  0  0  0  0
 34 32  1  0  0  0  0
M  END
>  <MODEL>
2

>  <REMARK>
 VINA RESULT:      -8.6      4.400      8.304
  Name = 
  3 active torsions:
  status: ('A' for Active; 'I' for Inactive)
    1  A    between atoms: C_17  and  O_28
    2  A    between atoms: O_28  and  N_29
    3  A    between atoms: N_29  and  C_32
                            x       y       z     vdW  Elec       q    Type
                         _______ _______ _______ _____ _____    ______ ____

>  <TORSDO>
F 3

$$$$
=
 OpenBabel11112418033D

 34 42  0  0  1  0  0  0  0  0999 V2000
  188.2950  175.6280  141.8210 C   0  0  0  0  0  0  0  0  0  0  0  0
  189.7040  173.7090  141.2000 C   0  0  0  0  0  3  0  0  0  0  0  0
  185.2140  178.9340  146.5840 C   0  0  2  0  0  0  0  0  0  0  0  0
  187.0110  177.4960  142.7440 C   0  0  0  0  0  0  0  0  0  0  0  0
  187.0910  177.8830  145.1500 C   0  0  0  0  0  0  0  0  0  0  0  0
  185.8920  177.7970  147.3230 C   0  0  2  0  0  3  0  0  0  0  0  0
  184.8160  178.6160  148.0070 C   0  0  0  0  0  2  0  0  0  0  0  0
  184.2620  179.0440  144.2340 C   0  0  0  0  0  2  0  0  0  0  0  0
  189.5950  174.2760  143.2720 C   0  0  0  0  0  0  0  0  0  0  0  0
  192.0290  173.6810  144.9970 C   0  0  0  0  0  3  0  0  0  0  0  0
  187.9440  176.8320  145.2840 N   0  0  0  0  0  0  0  0  0  0  0  0
  185.6640  179.4000  143.7260 C   0  0  0  0  0  2  0  0  0  0  0  0
  189.2330  175.0020  144.4080 C   0  0  0  0  0  0  0  0  0  0  0  0
  190.5190  172.8430  141.8550 N   0  0  0  0  0  0  0  0  0  0  0  0
  186.6190  178.2470  143.8680 C   0  0  0  0  0  0  0  0  0  0  0  0
  184.2630  178.2970  145.5710 C   0  0  0  0  0  2  0  0  0  0  0  0
  191.2240  172.5940  144.2840 C   0  0  1  0  0  3  0  0  0  0  0  0
  187.8840  176.4090  142.9200 C   0  0  0  0  0  0  0  0  0  0  0  0
  186.7140  178.6660  146.3870 C   0  0  2  0  0  3  0  0  0  0  0  0
  188.3540  176.0880  144.2230 C   0  0  0  0  0  0  0  0  0  0  0  0
  186.9900  176.9670  140.2570 C   0  0  0  0  0  3  0  0  0  0  0  0
  191.2180  174.6050  145.9260 C   0  0  0  0  0  3  0  0  0  0  0  0
  186.4960  177.8610  141.3680 C   0  0  0  0  0  2  0  0  0  0  0  0
  189.6930  174.5680  145.7700 C   0  0  0  0  0  2  0  0  0  0  0  0
  190.4460  173.2090  143.1560 C   0  0  0  0  0  0  0  0  0  0  0  0
  187.8160  175.9430  140.4660 C   0  0  0  0  0  3  0  0  0  0  0  0
  189.1400  174.5900  142.0530 N   0  0  0  0  0  0  0  0  0  0  0  0
  192.0950  171.6170  143.7960 O   0  0  0  0  0  0  0  0  0  0  0  0
  193.1810  171.6900  144.6040 N   0  0  0  0  0  2  0  0  0  0  0  0
  194.5660  169.3100  146.2950 O   0  0  0  0  0  0  0  0  0  0  0  0
  193.1420  169.2810  144.4170 C   0  0  0  0  0  2  0  0  0  0  0  0
  193.9920  170.5150  144.3330 C   0  0  2  0  0  3  0  0  0  0  0  0
  193.8160  168.4510  145.4820 C   0  0  0  0  0  2  0  0  0  0  0  0
  195.0050  170.3350  145.4410 C   0  0  0  0  0  2  0  0  0  0  0  0
  1 27  1  0  0  0  0
  1 18  2  0  0  0  0
  2 14  2  0  0  0  0
  2 27  1  0  0  0  0
  3 16  1  6  0  0  0
  3  6  1  0  0  0  0
  3  7  1  0  0  0  0
  4 18  1  0  0  0  0
  4 15  2  0  0  0  0
  5 11  2  0  0  0  0
  6  7  1  1  0  0  0
  8 16  1  0  0  0  0
  9 13  1  0  0  0  0
 10 22  2  0  0  0  0
 12 15  1  0  0  0  0
 12  8  1  0  0  0  0
 13 24  1  0  0  0  0
 14 25  1  0  0  0  0
 15  5  1  0  0  0  0
 17 28  1  6  0  0  0
 17 10  1  0  0  0  0
 18 20  1  0  0  0  0
 19  5  1  6  0  0  0
 19  3  1  0  0  0  0
 19  6  1  0  0  0  0
 20 13  2  0  0  0  0
 20 11  1  0  0  0  0
 21 26  2  0  0  0  0
 21 23  1  0  0  0  0
 23  4  1  0  0  0  0
 24 22  1  0  0  0  0
 25  9  2  0  0  0  0
 25 17  1  0  0  0  0
 26  1  1  0  0  0  0
 27  9  1  0  0  0  0
 28 29  1  0  0  0  0
 31 33  1  0  0  0  0
 32 31  1  0  0  0  0
 32 29  1  1  0  0  0
 32 34  1  0  0  0  0
 33 30  1  0  0  0  0
 34 30  1  0  0  0  0
M  END
>  <MODEL>
3

>  <REMARK>
 VINA RESULT:      -8.5      4.598      9.724
  Name = 
  3 active torsions:
  status: ('A' for Active; 'I' for Inactive)
    1  A    between atoms: C_17  and  O_28
    2  A    between atoms: O_28  and  N_29
    3  A    between atoms: N_29  and  C_32
                            x       y       z     vdW  Elec       q    Type
                         _______ _______ _______ _____ _____    ______ ____

>  <TORSDO>
F 3

$$$$
=
 OpenBabel11112418033D

 34 42  0  0  1  0  0  0  0  0999 V2000
  187.1900  177.9040  145.8400 C   0  0  0  0  0  0  0  0  0  0  0  0
  184.8490  178.6160  145.5810 C   0  0  0  0  0  3  0  0  0  0  0  0
  192.1970  174.3530  143.5090 C   0  0  2  0  0  0  0  0  0  0  0  0
  189.5090  177.1230  145.7770 C   0  0  0  0  0  0  0  0  0  0  0  0
  190.3500  176.1520  143.7050 C   0  0  0  0  0  0  0  0  0  0  0  0
  191.0910  174.1100  142.5010 C   0  0  2  0  0  3  0  0  0  0  0  0
  192.3200  173.2260  142.5100 C   0  0  0  0  0  2  0  0  0  0  0  0
  192.0920  174.7900  146.0070 C   0  0  0  0  0  2  0  0  0  0  0  0
  185.8450  177.7250  143.8960 C   0  0  0  0  0  0  0  0  0  0  0  0
  184.9190  178.5890  141.1280 C   0  0  0  0  0  3  0  0  0  0  0  0
  189.1440  176.3750  143.1180 N   0  0  0  0  0  0  0  0  0  0  0  0
  191.8920  176.2780  145.6980 C   0  0  0  0  0  2  0  0  0  0  0  0
  186.8680  177.1510  143.1400 C   0  0  0  0  0  0  0  0  0  0  0  0
  183.9350  178.6220  144.5760 N   0  0  0  0  0  0  0  0  0  0  0  0
  190.5620  176.5400  145.0480 C   0  0  0  0  0  0  0  0  0  0  0  0
  191.6780  173.8620  144.8600 C   0  0  0  0  0  2  0  0  0  0  0  0
  184.0020  177.9010  142.1400 C   0  0  1  0  0  3  0  0  0  0  0  0
  188.2710  177.3280  145.1430 C   0  0  1  0  0  3  0  0  0  0  0  0
  191.4520  175.5380  142.8730 C   0  0  2  0  0  3  0  0  0  0  0  0
  188.1050  176.9450  143.7840 C   0  0  0  0  0  0  0  0  0  0  0  0
  188.5000  178.1280  147.8840 C   0  0  0  0  0  3  0  0  0  0  0  0
  186.2190  177.8330  140.7910 C   0  0  0  0  0  3  0  0  0  0  0  0
  189.7140  177.5230  147.2230 C   0  0  0  0  0  3  0  0  0  0  0  0
  186.6130  176.6890  141.7340 C   0  0  0  0  0  2  0  0  0  0  0  0
  184.5710  178.0630  143.5200 C   0  0  0  0  0  0  0  0  0  0  0  0
  187.3410  178.3030  147.2480 C   0  0  0  0  0  3  0  0  0  0  0  0
  186.0170  178.0770  145.1750 N   0  0  0  0  0  0  0  0  0  0  0  0
  182.7280  178.4690  142.0720 O   0  0  0  0  0  0  0  0  0  0  0  0
  182.2620  178.1220  140.8470 N   0  0  0  0  0  2  0  0  0  0  0  0
  179.0810  177.6760  141.1990 O   0  0  0  0  0  0  0  0  0  0  0  0
  180.5180  179.3930  141.9360 C   0  0  0  0  0  2  0  0  0  0  0  0
  181.0420  178.8820  140.6250 C   0  0  2  0  0  3  0  0  0  0  0  0
  179.1290  178.8110  142.0200 C   0  0  0  0  0  2  0  0  0  0  0  0
  179.9540  177.9550  140.1350 C   0  0  0  0  0  2  0  0  0  0  0  0
  1 26  2  0  0  0  0
  3  7  1  6  0  0  0
  3 16  1  0  0  0  0
  4 23  1  0  0  0  0
  5 15  1  0  0  0  0
  6  7  1  6  0  0  0
  6 19  1  0  0  0  0
  6  3  1  0  0  0  0
  9 27  1  0  0  0  0
 10 17  1  0  0  0  0
 11  5  2  0  0  0  0
 11 20  1  0  0  0  0
 12  8  1  0  0  0  0
 13 20  2  0  0  0  0
 13  9  1  0  0  0  0
 14  2  2  0  0  0  0
 15 12  1  0  0  0  0
 15  4  2  0  0  0  0
 16  8  1  0  0  0  0
 17 28  1  1  0  0  0
 17 25  1  0  0  0  0
 18 20  1  1  0  0  0
 18  4  1  0  0  0  0
 18  1  1  0  0  0  0
 19  3  1  0  0  0  0
 19  5  1  1  0  0  0
 22 10  2  0  0  0  0
 22 24  1  0  0  0  0
 23 21  2  0  0  0  0
 24 13  1  0  0  0  0
 25  9  2  0  0  0  0
 25 14  1  0  0  0  0
 26 21  1  0  0  0  0
 27  2  1  0  0  0  0
 27  1  1  0  0  0  0
 29 28  1  0  0  0  0
 30 33  1  0  0  0  0
 31 33  1  0  0  0  0
 32 29  1  1  0  0  0
 32 31  1  0  0  0  0
 34 32  1  0  0  0  0
 34 30  1  0  0  0  0
M  END
>  <MODEL>
4

>  <REMARK>
 VINA RESULT:      -8.5      1.343      1.838
  Name = 
  3 active torsions:
  status: ('A' for Active; 'I' for Inactive)
    1  A    between atoms: C_17  and  O_28
    2  A    between atoms: O_28  and  N_29
    3  A    between atoms: N_29  and  C_32
                            x       y       z     vdW  Elec       q    Type
                         _______ _______ _______ _____ _____    ______ ____

>  <TORSDO>
F 3

$$$$
=
 OpenBabel11112418033D

 34 42  0  0  1  0  0  0  0  0999 V2000
  191.0180  176.5360  145.9710 C   0  0  0  0  0  0  0  0  0  0  0  0
  193.3990  175.9410  146.1510 C   0  0  0  0  0  3  0  0  0  0  0  0
  185.8580  177.6430  142.0660 C   0  0  2  0  0  0  0  0  0  0  0  0
  188.6610  176.9890  145.4950 C   0  0  0  0  0  0  0  0  0  0  0  0
  187.7980  176.4430  143.2800 C   0  0  0  0  0  0  0  0  0  0  0  0
  186.9640  177.2790  141.0960 C   0  0  2  0  0  3  0  0  0  0  0  0
  185.6870  177.9150  140.5890 C   0  0  0  0  0  2  0  0  0  0  0  0
  185.9480  178.8320  144.3070 C   0  0  0  0  0  2  0  0  0  0  0  0
  192.3810  175.5600  144.2950 C   0  0  0  0  0  0  0  0  0  0  0  0
  193.3970  173.2360  142.6140 C   0  0  0  0  0  3  0  0  0  0  0  0
  189.0250  175.9730  142.9270 N   0  0  0  0  0  0  0  0  0  0  0  0
  186.2350  177.4800  144.9680 C   0  0  0  0  0  2  0  0  0  0  0  0
  191.3390  175.4960  143.3680 C   0  0  0  0  0  0  0  0  0  0  0  0
  194.3270  175.3710  145.3400 N   0  0  0  0  0  0  0  0  0  0  0  0
  187.5880  176.9470  144.5850 C   0  0  0  0  0  0  0  0  0  0  0  0
  186.3270  178.8850  142.8230 C   0  0  0  0  0  2  0  0  0  0  0  0
  194.2580  174.4470  142.9730 C   0  0  1  0  0  3  0  0  0  0  0  0
  189.9180  176.5070  145.0920 C   0  0  1  0  0  3  0  0  0  0  0  0
  186.6770  176.3600  142.2710 C   0  0  2  0  0  3  0  0  0  0  0  0
  190.0830  175.9860  143.7790 C   0  0  0  0  0  0  0  0  0  0  0  0
  189.6910  177.5390  147.7530 C   0  0  0  0  0  3  0  0  0  0  0  0
  192.0620  173.5560  141.9140 C   0  0  0  0  0  3  0  0  0  0  0  0
  188.4560  177.5470  146.8880 C   0  0  0  0  0  3  0  0  0  0  0  0
  191.5910  175.0140  141.9680 C   0  0  0  0  0  2  0  0  0  0  0  0
  193.6770  175.1330  144.1760 C   0  0  0  0  0  0  0  0  0  0  0  0
  190.8670  177.0740  147.3320 C   0  0  0  0  0  3  0  0  0  0  0  0
  192.2090  176.0550  145.5250 N   0  0  0  0  0  0  0  0  0  0  0  0
  195.5630  174.0250  143.2390 O   0  0  0  0  0  0  0  0  0  0  0  0
  195.4530  172.6950  143.4750 N   0  0  0  0  0  2  0  0  0  0  0  0
  197.6480  174.1660  145.3340 O   0  0  0  0  0  0  0  0  0  0  0  0
  196.2010  172.3510  145.7470 C   0  0  0  0  0  2  0  0  0  0  0  0
  196.5890  172.3130  144.2970 C   0  0  2  0  0  3  0  0  0  0  0  0
  197.1760  173.3300  146.3540 C   0  0  0  0  0  2  0  0  0  0  0  0
  197.6700  173.3630  144.1820 C   0  0  0  0  0  2  0  0  0  0  0  0
  1 26  2  0  0  0  0
  3  7  1  6  0  0  0
  3 19  1  0  0  0  0
  3 16  1  0  0  0  0
  4 23  1  0  0  0  0
  5 15  1  0  0  0  0
  6  7  1  6  0  0  0
  6  3  1  0  0  0  0
  6 19  1  0  0  0  0
  8 12  1  0  0  0  0
  9 27  1  0  0  0  0
 10 17  1  0  0  0  0
 11  5  2  0  0  0  0
 11 20  1  0  0  0  0
 13 20  2  0  0  0  0
 13  9  1  0  0  0  0
 14  2  2  0  0  0  0
 15 12  1  0  0  0  0
 15  4  2  0  0  0  0
 16  8  1  0  0  0  0
 17 28  1  1  0  0  0
 17 25  1  0  0  0  0
 18 20  1  6  0  0  0
 18  4  1  0  0  0  0
 18  1  1  0  0  0  0
 19  5  1  1  0  0  0
 22 24  1  0  0  0  0
 22 10  2  0  0  0  0
 23 21  2  0  0  0  0
 24 13  1  0  0  0  0
 25  9  2  0  0  0  0
 25 14  1  0  0  0  0
 26 21  1  0  0  0  0
 27  1  1  0  0  0  0
 27  2  1  0  0  0  0
 28 29  1  0  0  0  0
 30 33  1  0  0  0  0
 31 33  1  0  0  0  0
 32 29  1  6  0  0  0
 32 31  1  0  0  0  0
 34 32  1  0  0  0  0
 34 30  1  0  0  0  0
M  END
>  <MODEL>
5

>  <REMARK>
 VINA RESULT:      -8.3      5.090     10.148
  Name = 
  3 active torsions:
  status: ('A' for Active; 'I' for Inactive)
    1  A    between atoms: C_17  and  O_28
    2  A    between atoms: O_28  and  N_29
    3  A    between atoms: N_29  and  C_32
                            x       y       z     vdW  Elec       q    Type
                         _______ _______ _______ _____ _____    ______ ____

>  <TORSDO>
F 3

$$$$
=
 OpenBabel11112418033D

 34 42  0  0  1  0  0  0  0  0999 V2000
  190.7760  176.7800  146.2640 C   0  0  0  0  0  0  0  0  0  0  0  0
  193.1520  176.1540  146.3980 C   0  0  0  0  0  3  0  0  0  0  0  0
  185.4990  177.7340  142.4760 C   0  0  2  0  0  0  0  0  0  0  0  0
  188.4110  177.2440  145.8410 C   0  0  0  0  0  0  0  0  0  0  0  0
  187.4620  176.5760  143.6960 C   0  0  0  0  0  0  0  0  0  0  0  0
  186.5640  177.2890  141.4940 C   0  0  2  0  0  3  0  0  0  0  0  0
  185.2800  177.9160  140.9920 C   0  0  0  0  0  2  0  0  0  0  0  0
  185.6870  179.0590  144.6330 C   0  0  0  0  0  2  0  0  0  0  0  0
  192.0640  175.6760  144.6060 C   0  0  0  0  0  0  0  0  0  0  0  0
  192.9820  173.2340  143.0410 C   0  0  0  0  0  3  0  0  0  0  0  0
  188.6670  176.0630  143.3310 N   0  0  0  0  0  0  0  0  0  0  0  0
  185.9760  177.7450  145.3680 C   0  0  0  0  0  2  0  0  0  0  0  0
  190.9880  175.5740  143.7210 C   0  0  0  0  0  0  0  0  0  0  0  0
  194.0420  175.5180  145.5930 N   0  0  0  0  0  0  0  0  0  0  0  0
  187.3060  177.1650  144.9730 C   0  0  0  0  0  0  0  0  0  0  0  0
  186.0140  179.0120  143.1370 C   0  0  0  0  0  2  0  0  0  0  0  0
  193.8750  174.4500  143.2930 C   0  0  1  0  0  3  0  0  0  0  0  0
  189.6450  176.7150  145.4260 C   0  0  1  0  0  3  0  0  0  0  0  0
  186.3040  176.4510  142.7330 C   0  0  2  0  0  3  0  0  0  0  0  0
  189.7550  176.1110  144.1440 C   0  0  0  0  0  0  0  0  0  0  0  0
  189.5290  177.9160  148.0240 C   0  0  0  0  0  3  0  0  0  0  0  0
  191.6280  173.5340  142.3680 C   0  0  0  0  0  3  0  0  0  0  0  0
  188.2640  177.8910  147.2020 C   0  0  0  0  0  3  0  0  0  0  0  0
  191.1820  175.0010  142.3470 C   0  0  0  0  0  2  0  0  0  0  0  0
  193.3480  175.2190  144.4700 C   0  0  0  0  0  0  0  0  0  0  0  0
  190.6820  177.4040  147.5920 C   0  0  0  0  0  3  0  0  0  0  0  0
  191.9420  176.2510  145.8080 N   0  0  0  0  0  0  0  0  0  0  0  0
  195.1810  174.0210  143.5400 O   0  0  0  0  0  0  0  0  0  0  0  0
  195.7100  173.8050  142.3110 N   0  0  0  0  0  2  0  0  0  0  0  0
  196.4400  176.9310  141.9390 O   0  0  0  0  0  0  0  0  0  0  0  0
  197.1470  175.3290  143.5170 C   0  0  0  0  0  2  0  0  0  0  0  0
  196.9090  174.6210  142.2140 C   0  0  2  0  0  3  0  0  0  0  0  0
  197.1510  176.7890  143.1380 C   0  0  0  0  0  2  0  0  0  0  0  0
  196.6770  175.7430  141.2280 C   0  0  0  0  0  2  0  0  0  0  0  0
  1 26  2  0  0  0  0
  3  7  1  6  0  0  0
  3 19  1  0  0  0  0
  3 16  1  0  0  0  0
  4 23  1  0  0  0  0
  5 15  1  0  0  0  0
  6  7  1  6  0  0  0
  6  3  1  0  0  0  0
  6 19  1  0  0  0  0
  8 12  1  0  0  0  0
  9 27  1  0  0  0  0
 10 17  1  0  0  0  0
 11  5  2  0  0  0  0
 11 20  1  0  0  0  0
 13 20  2  0  0  0  0
 13  9  1  0  0  0  0
 14  2  2  0  0  0  0
 15 12  1  0  0  0  0
 15  4  2  0  0  0  0
 16  8  1  0  0  0  0
 17 28  1  1  0  0  0
 17 25  1  0  0  0  0
 18 20  1  6  0  0  0
 18  4  1  0  0  0  0
 18  1  1  0  0  0  0
 19  5  1  1  0  0  0
 22 10  2  0  0  0  0
 23 21  2  0  0  0  0
 24 22  1  0  0  0  0
 24 13  1  0  0  0  0
 25  9  2  0  0  0  0
 25 14  1  0  0  0  0
 26 21  1  0  0  0  0
 27  1  1  0  0  0  0
 27  2  1  0  0  0  0
 29 28  1  0  0  0  0
 30 33  1  0  0  0  0
 32 29  1  1  0  0  0
 32 31  1  0  0  0  0
 33 31  1  0  0  0  0
 34 30  1  0  0  0  0
 34 32  1  0  0  0  0
M  END
>  <MODEL>
6

>  <REMARK>
 VINA RESULT:      -8.3      4.894      9.658
  Name = 
  3 active torsions:
  status: ('A' for Active; 'I' for Inactive)
    1  A    between atoms: C_17  and  O_28
    2  A    between atoms: O_28  and  N_29
    3  A    between atoms: N_29  and  C_32
                            x       y       z     vdW  Elec       q    Type
                         _______ _______ _______ _____ _____    ______ ____

>  <TORSDO>
F 3

$$$$
=
 OpenBabel11112418033D

 34 42  0  0  1  0  0  0  0  0999 V2000
  190.4440  174.5820  142.7460 C   0  0  0  0  0  0  0  0  0  0  0  0
  192.5140  173.2520  142.7160 C   0  0  0  0  0  3  0  0  0  0  0  0
  186.0950  177.9950  146.2890 C   0  0  2  0  0  0  0  0  0  0  0  0
  188.4940  176.0270  143.0610 C   0  0  0  0  0  0  0  0  0  0  0  0
  188.3000  177.2770  145.1460 C   0  0  0  0  0  0  0  0  0  0  0  0
  187.1230  177.5590  147.3140 C   0  0  2  0  0  3  0  0  0  0  0  0
  185.7830  178.1020  147.7640 C   0  0  0  0  0  2  0  0  0  0  0  0
  185.2910  176.8590  144.1660 C   0  0  0  0  0  2  0  0  0  0  0  0
  192.0930  174.4600  144.4460 C   0  0  0  0  0  0  0  0  0  0  0  0
  194.4810  175.5110  146.0120 C   0  0  0  0  0  3  0  0  0  0  0  0
  189.4850  176.7550  145.5610 N   0  0  0  0  0  0  0  0  0  0  0  0
  186.4690  177.5000  143.4250 C   0  0  0  0  0  2  0  0  0  0  0  0
  191.4230  175.3620  145.2750 C   0  0  0  0  0  0  0  0  0  0  0  0
  193.5680  173.0670  143.5530 N   0  0  0  0  0  0  0  0  0  0  0  0
  187.7880  176.9340  143.8740 C   0  0  0  0  0  0  0  0  0  0  0  0
  185.5160  176.7200  145.6750 C   0  0  0  0  0  2  0  0  0  0  0  0
  194.1940  174.0200  145.8230 C   0  0  1  0  0  3  0  0  0  0  0  0
  189.7090  175.4970  143.5270 C   0  0  0  0  0  0  0  0  0  0  0  0
  187.5900  178.2580  146.0500 C   0  0  2  0  0  3  0  0  0  0  0  0
  190.2020  175.8850  144.8030 C   0  0  0  0  0  0  0  0  0  0  0  0
  188.8000  174.6480  140.9470 C   0  0  0  0  0  3  0  0  0  0  0  0
  193.3310  176.3340  146.6230 C   0  0  0  0  0  3  0  0  0  0  0  0
  187.9460  175.6330  141.7060 C   0  0  0  0  0  2  0  0  0  0  0  0
  191.9480  175.6710  146.6480 C   0  0  0  0  0  2  0  0  0  0  0  0
  193.2950  173.8320  144.6360 C   0  0  0  0  0  0  0  0  0  0  0  0
  189.9480  174.1670  141.4250 C   0  0  0  0  0  3  0  0  0  0  0  0
  191.6130  174.1040  143.2490 N   0  0  0  0  0  0  0  0  0  0  0  0
  195.3980  173.3380  145.6340 O   0  0  0  0  0  0  0  0  0  0  0  0
  196.3530  174.2960  145.7130 N   0  0  0  0  0  2  0  0  0  0  0  0
  197.0200  172.6360  143.0220 O   0  0  0  0  0  0  0  0  0  0  0  0
  197.8750  174.6620  143.8720 C   0  0  0  0  0  2  0  0  0  0  0  0
  197.5320  173.7800  145.0370 C   0  0  2  0  0  3  0  0  0  0  0  0
  197.8330  173.7270  142.6880 C   0  0  0  0  0  2  0  0  0  0  0  0
  197.2050  172.4480  144.4020 C   0  0  0  0  0  2  0  0  0  0  0  0
  1 27  1  0  0  0  0
  1 18  2  0  0  0  0
  2 27  1  0  0  0  0
  2 14  2  0  0  0  0
  3 16  1  6  0  0  0
  3  6  1  0  0  0  0
  3  7  1  0  0  0  0
  4 18  1  0  0  0  0
  4 15  2  0  0  0  0
  5 11  2  0  0  0  0
  6  7  1  1  0  0  0
  8 16  1  0  0  0  0
  9 25  2  0  0  0  0
  9 13  1  0  0  0  0
 10 22  2  0  0  0  0
 12 15  1  0  0  0  0
 12  8  1  0  0  0  0
 13 24  1  0  0  0  0
 14 25  1  0  0  0  0
 15  5  1  0  0  0  0
 17 28  1  6  0  0  0
 17 10  1  0  0  0  0
 18 20  1  0  0  0  0
 19  5  1  6  0  0  0
 19  3  1  0  0  0  0
 19  6  1  0  0  0  0
 20 13  2  0  0  0  0
 20 11  1  0  0  0  0
 21 26  2  0  0  0  0
 21 23  1  0  0  0  0
 22 24  1  0  0  0  0
 23  4  1  0  0  0  0
 25 17  1  0  0  0  0
 26  1  1  0  0  0  0
 27  9  1  0  0  0  0
 28 29  1  0  0  0  0
 30 34  1  0  0  0  0
 31 32  1  0  0  0  0
 32 29  1  6  0  0  0
 33 30  1  0  0  0  0
 33 31  1  0  0  0  0
 34 32  1  0  0  0  0
M  END
>  <MODEL>
7

>  <REMARK>
 VINA RESULT:      -8.3      5.510     10.636
  Name = 
  3 active torsions:
  status: ('A' for Active; 'I' for Inactive)
    1  A    between atoms: C_17  and  O_28
    2  A    between atoms: O_28  and  N_29
    3  A    between atoms: N_29  and  C_32
                            x       y       z     vdW  Elec       q    Type
                         _______ _______ _______ _____ _____    ______ ____

>  <TORSDO>
F 3

$$$$
=
 OpenBabel11112418033D

 34 42  0  0  1  0  0  0  0  0999 V2000
  187.7310  175.9730  141.1080 C   0  0  0  0  0  0  0  0  0  0  0  0
  188.9400  174.1300  140.0140 C   0  0  0  0  0  3  0  0  0  0  0  0
  185.5630  178.6330  146.7050 C   0  0  2  0  0  0  0  0  0  0  0  0
  186.6880  177.7180  142.4700 C   0  0  0  0  0  0  0  0  0  0  0  0
  187.1500  177.7540  144.8630 C   0  0  0  0  0  0  0  0  0  0  0  0
  186.2930  177.3870  147.1650 C   0  0  2  0  0  3  0  0  0  0  0  0
  185.3720  178.1230  148.1150 C   0  0  0  0  0  2  0  0  0  0  0  0
  184.2710  179.1010  144.5710 C   0  0  0  0  0  2  0  0  0  0  0  0
  189.1730  174.3960  142.1360 C   0  0  0  0  0  0  0  0  0  0  0  0
  191.8120  173.5030  143.3590 C   0  0  0  0  0  3  0  0  0  0  0  0
  187.9650  176.6750  144.7150 N   0  0  0  0  0  0  0  0  0  0  0  0
  185.5930  179.4930  143.9030 C   0  0  0  0  0  2  0  0  0  0  0  0
  189.0210  174.9600  143.4040 C   0  0  0  0  0  0  0  0  0  0  0  0
  189.8050  173.1600  140.4080 N   0  0  0  0  0  0  0  0  0  0  0  0
  186.5060  178.3090  143.7340 C   0  0  0  0  0  0  0  0  0  0  0  0
  184.4410  178.1700  145.7750 C   0  0  0  0  0  2  0  0  0  0  0  0
  190.8590  172.5490  142.6380 C   0  0  1  0  0  3  0  0  0  0  0  0
  187.5270  176.5970  142.3550 C   0  0  0  0  0  0  0  0  0  0  0  0
  187.0010  178.3600  146.2400 C   0  0  2  0  0  3  0  0  0  0  0  0
  188.1750  176.0820  143.5110 C   0  0  0  0  0  0  0  0  0  0  0  0
  186.2650  177.5520  139.9680 C   0  0  0  0  0  3  0  0  0  0  0  0
  191.1940  174.3030  144.5220 C   0  0  0  0  0  3  0  0  0  0  0  0
  185.9870  178.2890  141.2550 C   0  0  0  0  0  2  0  0  0  0  0  0
  189.6630  174.3250  144.6040 C   0  0  0  0  0  2  0  0  0  0  0  0
  189.9470  173.3370  141.7420 C   0  0  0  0  0  0  0  0  0  0  0  0
  187.0660  176.4890  139.9010 C   0  0  0  0  0  3  0  0  0  0  0  0
  188.5530  174.8920  141.0590 N   0  0  0  0  0  0  0  0  0  0  0  0
  191.6010  171.6320  141.8900 O   0  0  0  0  0  0  0  0  0  0  0  0
  191.2570  170.4200  142.3910 N   0  0  0  0  0  2  0  0  0  0  0  0
  194.3460  171.0190  143.1260 O   0  0  0  0  0  0  0  0  0  0  0  0
  192.7870  169.4880  144.0120 C   0  0  0  0  0  2  0  0  0  0  0  0
  192.4860  169.6620  142.5510 C   0  0  2  0  0  3  0  0  0  0  0  0
  194.1530  170.1090  144.1740 C   0  0  0  0  0  2  0  0  0  0  0  0
  193.6510  170.4740  142.0330 C   0  0  0  0  0  2  0  0  0  0  0  0
  1 18  2  0  0  0  0
  2 14  2  0  0  0  0
  2 27  1  0  0  0  0
  3 16  1  6  0  0  0
  3  6  1  0  0  0  0
  3  7  1  0  0  0  0
  4 15  2  0  0  0  0
  6  7  1  1  0  0  0
  8 16  1  0  0  0  0
  9 13  1  0  0  0  0
 10 22  2  0  0  0  0
 11  5  2  0  0  0  0
 12  8  1  0  0  0  0
 13 20  2  0  0  0  0
 13 24  1  0  0  0  0
 14 25  1  0  0  0  0
 15 12  1  0  0  0  0
 15  5  1  0  0  0  0
 17 28  1  6  0  0  0
 17 10  1  0  0  0  0
 18  4  1  0  0  0  0
 18 20  1  0  0  0  0
 19  5  1  6  0  0  0
 19  3  1  0  0  0  0
 19  6  1  0  0  0  0
 20 11  1  0  0  0  0
 21 23  1  0  0  0  0
 22 24  1  0  0  0  0
 23  4  1  0  0  0  0
 25  9  2  0  0  0  0
 25 17  1  0  0  0  0
 26 21  2  0  0  0  0
 26  1  1  0  0  0  0
 27  1  1  0  0  0  0
 27  9  1  0  0  0  0
 28 29  1  0  0  0  0
 30 33  1  0  0  0  0
 31 33  1  0  0  0  0
 32 29  1  1  0  0  0
 32 31  1  0  0  0  0
 34 32  1  0  0  0  0
 34 30  1  0  0  0  0
M  END
>  <MODEL>
8

>  <REMARK>
 VINA RESULT:      -8.2      4.506      9.147
  Name = 
  3 active torsions:
  status: ('A' for Active; 'I' for Inactive)
    1  A    between atoms: C_17  and  O_28
    2  A    between atoms: O_28  and  N_29
    3  A    between atoms: N_29  and  C_32
                            x       y       z     vdW  Elec       q    Type
                         _______ _______ _______ _____ _____    ______ ____

>  <TORSDO>
F 3

$$$$
=
 OpenBabel11112418033D

 34 42  0  0  1  0  0  0  0  0999 V2000
  188.6740  175.3980  141.6770 C   0  0  0  0  0  0  0  0  0  0  0  0
  187.0810  176.3380  140.0540 C   0  0  0  0  0  3  0  0  0  0  0  0
  191.4750  175.8510  147.5980 C   0  0  2  0  0  0  0  0  0  0  0  0
  190.0890  174.6300  143.5200 C   0  0  0  0  0  0  0  0  0  0  0  0
  189.6980  175.5470  145.7450 C   0  0  0  0  0  0  0  0  0  0  0  0
  190.5100  177.0190  147.5730 C   0  0  2  0  0  3  0  0  0  0  0  0
  191.5850  176.9440  148.6360 C   0  0  0  0  0  2  0  0  0  0  0  0
  192.7890  174.7490  145.7270 C   0  0  0  0  0  2  0  0  0  0  0  0
  186.9560  176.9760  142.1050 C   0  0  0  0  0  0  0  0  0  0  0  0
  184.2160  177.8180  143.1260 C   0  0  0  0  0  3  0  0  0  0  0  0
  188.6720  176.2910  145.2500 N   0  0  0  0  0  0  0  0  0  0  0  0
  191.5630  173.8770  145.4340 C   0  0  0  0  0  2  0  0  0  0  0  0
  187.2510  177.0510  143.4670 C   0  0  0  0  0  0  0  0  0  0  0  0
  186.0400  177.2100  140.1000 N   0  0  0  0  0  0  0  0  0  0  0  0
  190.4190  174.6850  144.8870 C   0  0  0  0  0  0  0  0  0  0  0  0
  192.4530  176.0610  146.4430 C   0  0  0  0  0  2  0  0  0  0  0  0
  184.9310  178.5220  141.9720 C   0  0  1  0  0  3  0  0  0  0  0  0
  189.0320  175.4210  143.0400 C   0  0  0  0  0  0  0  0  0  0  0  0
  190.0010  175.6320  147.2230 C   0  0  2  0  0  3  0  0  0  0  0  0
  188.3160  176.2580  143.9390 C   0  0  0  0  0  0  0  0  0  0  0  0
  190.4130  173.7740  141.1480 C   0  0  0  0  0  3  0  0  0  0  0  0
  185.0140  177.7230  144.4400 C   0  0  0  0  0  3  0  0  0  0  0  0
  190.8670  173.7280  142.5850 C   0  0  0  0  0  2  0  0  0  0  0  0
  186.5170  178.0150  144.3550 C   0  0  0  0  0  2  0  0  0  0  0  0
  185.9680  177.6030  141.3930 C   0  0  0  0  0  0  0  0  0  0  0  0
  189.4050  174.5410  140.7310 C   0  0  0  0  0  3  0  0  0  0  0  0
  187.6420  176.1850  141.2720 N   0  0  0  0  0  0  0  0  0  0  0  0
  183.9980  178.8770  140.9960 O   0  0  0  0  0  0  0  0  0  0  0  0
  182.8990  178.1380  141.2860 N   0  0  0  0  0  2  0  0  0  0  0  0
  179.6950  177.7510  141.1340 O   0  0  0  0  0  0  0  0  0  0  0  0
  181.0320  179.4100  142.1430 C   0  0  0  0  0  2  0  0  0  0  0  0
  181.7410  178.9310  140.9090 C   0  0  2  0  0  3  0  0  0  0  0  0
  179.6360  178.8560  141.9940 C   0  0  0  0  0  2  0  0  0  0  0  0
  180.7240  178.0460  140.2260 C   0  0  0  0  0  2  0  0  0  0  0  0
  1 18  2  0  0  0  0
  2 14  2  0  0  0  0
  2 27  1  0  0  0  0
  3 16  1  6  0  0  0
  3  7  1  0  0  0  0
  4 15  2  0  0  0  0
  6  3  1  0  0  0  0
  6  7  1  1  0  0  0
  8 16  1  0  0  0  0
  9 13  1  0  0  0  0
 10 22  2  0  0  0  0
 11  5  2  0  0  0  0
 12  8  1  0  0  0  0
 13 20  2  0  0  0  0
 13 24  1  0  0  0  0
 14 25  1  0  0  0  0
 15 12  1  0  0  0  0
 15  5  1  0  0  0  0
 17 28  1  6  0  0  0
 17 10  1  0  0  0  0
 18  4  1  0  0  0  0
 18 20  1  0  0  0  0
 19  5  1  6  0  0  0
 19  6  1  0  0  0  0
 19  3  1  0  0  0  0
 20 11  1  0  0  0  0
 21 23  1  0  0  0  0
 23  4  1  0  0  0  0
 24 22  1  0  0  0  0
 25 17  1  0  0  0  0
 25  9  2  0  0  0  0
 26 21  2  0  0  0  0
 26  1  1  0  0  0  0
 27  1  1  0  0  0  0
 27  9  1  0  0  0  0
 28 29  1  0  0  0  0
 30 33  1  0  0  0  0
 32 29  1  1  0  0  0
 32 31  1  0  0  0  0
 33 31  1  0  0  0  0
 34 32  1  0  0  0  0
 34 30  1  0  0  0  0
M  END
>  <MODEL>
9

>  <REMARK>
 VINA RESULT:      -8.1      1.851      4.167
  Name = 
  3 active torsions:
  status: ('A' for Active; 'I' for Inactive)
    1  A    between atoms: C_17  and  O_28
    2  A    between atoms: O_28  and  N_29
    3  A    between atoms: N_29  and  C_32
                            x       y       z     vdW  Elec       q    Type
                         _______ _______ _______ _____ _____    ______ ____

>  <TORSDO>
F 3

$$$$
