=
 OpenBabel11112416443D

 32 37  0  0  1  0  0  0  0  0999 V2000
  194.7630  176.3140  144.8210 C   0  0  0  0  0  2  0  0  0  0  0  0
  190.3800  175.7870  145.4910 C   0  0  2  0  0  3  0  0  0  0  0  0
  189.1120  174.2190  140.9180 C   0  0  0  0  0  3  0  0  0  0  0  0
  188.0820  175.1580  140.8860 C   0  0  0  0  0  3  0  0  0  0  0  0
  188.5800  177.1120  146.7950 C   0  0  0  0  0  0  0  0  0  0  0  0
  187.1680  177.6060  146.8020 C   0  0  1  0  0  3  0  0  0  0  0  0
  192.4990  174.9810  146.5880 C   0  0  1  0  0  3  0  0  0  0  0  0
  192.0080  174.5010  144.1000 C   0  0  0  0  0  2  0  0  0  0  0  0
  185.6320  178.9350  145.7970 C   0  0  2  0  0  3  0  0  0  0  0  0
  194.2540  173.8080  145.0230 C   0  0  0  0  0  2  0  0  0  0  0  0
  189.9060  174.0920  142.0580 C   0  0  0  0  0  3  0  0  0  0  0  0
  190.5260  174.6890  144.4230 C   0  0  2  0  0  3  0  0  0  0  0  0
  189.6900  174.9100  143.1790 C   0  0  0  0  0  0  0  0  0  0  0  0
  188.3770  176.7460  144.3360 C   0  0  1  0  0  3  0  0  0  0  0  0
  185.6480  179.3520  147.2050 N   0  0  0  0  0  2  0  0  0  0  0  0
  193.4560  176.7720  145.4740 C   0  0  0  0  0  2  0  0  0  0  0  0
  192.7760  174.0680  145.3520 C   0  0  1  0  0  3  0  0  0  0  0  0
  186.7640  178.6320  147.8240 C   0  0  0  0  0  2  0  0  0  0  0  0
  193.2820  176.1580  146.7270 O   0  0  0  0  0  0  0  0  0  0  0  0
  195.2280  174.9480  145.3390 C   0  0  1  0  0  3  0  0  0  0  0  0
  187.8360  175.9590  142.0020 C   0  0  0  0  0  3  0  0  0  0  0  0
  188.6080  175.8220  143.1670 C   0  0  0  0  0  0  0  0  0  0  0  0
  186.9210  177.2410  144.4760 C   0  0  0  0  0  2  0  0  0  0  0  0
  191.0070  175.2640  146.7840 C   0  0  0  0  0  2  0  0  0  0  0  0
  189.3940  177.4550  147.6400 O   0  0  0  0  0  0  0  0  0  0  0  0
  184.4040  178.0580  145.5480 C   0  0  0  0  0  1  0  0  0  0  0  0
  188.9040  176.1550  145.6640 C   0  0  1  0  0  3  0  0  0  0  0  0
  186.8980  178.2480  145.5410 N   0  0  2  0  0  0  0  0  0  0  0  0
  196.5980  174.6050  144.7760 C   0  0  0  0  0  2  0  0  0  0  0  0
  197.1920  173.4280  145.4820 C   0  0  0  0  0  0  0  0  0  0  0  0
  197.6900  172.2670  144.6930 C   0  0  0  0  0  1  0  0  0  0  0  0
  197.2510  173.4050  146.7000 O   0  0  0  0  0  0  0  0  0  0  0  0
  1 20  1  0  0  0  0
  1 16  1  0  0  0  0
  2 27  1  0  0  0  0
  2 24  1  1  0  0  0
  3 11  1  0  0  0  0
  4  3  2  0  0  0  0
  4 21  1  0  0  0  0
  5  6  1  0  0  0  0
  5 25  2  0  0  0  0
  6 18  1  1  0  0  0
  7 19  1  0  0  0  0
  7 24  1  6  0  0  0
  9 26  1  1  0  0  0
  9 15  1  0  0  0  0
 10 20  1  0  0  0  0
 10 17  1  0  0  0  0
 11 13  2  0  0  0  0
 12  8  1  6  0  0  0
 12  2  1  0  0  0  0
 13 12  1  0  0  0  0
 14 23  1  1  0  0  0
 14 27  1  0  0  0  0
 15 18  1  0  0  0  0
 16 19  1  0  0  0  0
 17  8  1  6  0  0  0
 17  7  1  0  0  0  0
 20 29  1  6  0  0  0
 21 22  2  0  0  0  0
 22 13  1  0  0  0  0
 22 14  1  0  0  0  0
 27  5  1  1  0  0  0
 28 23  1  6  0  0  0
 28  9  1  0  0  0  0
 28  6  1  0  0  0  0
 29 30  1  0  0  0  0
 30 32  2  0  0  0  0
 31 30  1  0  0  0  0
M  END
>  <MODEL>
1

>  <REMARK>
 VINA RESULT:      -9.0      0.000      0.000
  Name = 
  2 active torsions:
  status: ('A' for Active; 'I' for Inactive)
    1  A    between atoms: C_20  and  C_29
    2  A    between atoms: C_29  and  C_30
                            x       y       z     vdW  Elec       q    Type
                         _______ _______ _______ _____ _____    ______ ____

>  <TORSDO>
F 2

$$$$
=
 OpenBabel11112416443D

 32 37  0  0  1  0  0  0  0  0999 V2000
  189.7100  171.4990  141.9580 C   0  0  0  0  0  2  0  0  0  0  0  0
  188.8790  175.5830  143.5590 C   0  0  2  0  0  3  0  0  0  0  0  0
  192.7910  175.9830  146.6440 C   0  0  0  0  0  3  0  0  0  0  0  0
  191.9360  176.3860  147.6680 C   0  0  0  0  0  3  0  0  0  0  0  0
  186.7310  176.8490  144.2510 C   0  0  0  0  0  0  0  0  0  0  0  0
  186.1100  177.7890  145.2350 C   0  0  1  0  0  3  0  0  0  0  0  0
  189.1350  174.5380  141.2820 C   0  0  1  0  0  3  0  0  0  0  0  0
  191.0250  174.4150  143.0360 C   0  0  0  0  0  2  0  0  0  0  0  0
  185.5130  178.1340  147.3940 C   0  0  2  0  0  3  0  0  0  0  0  0
  191.3340  173.1590  140.8680 C   0  0  0  0  0  2  0  0  0  0  0  0
  192.2820  175.7300  145.3690 C   0  0  0  0  0  3  0  0  0  0  0  0
  190.4100  175.6540  143.6890 C   0  0  2  0  0  3  0  0  0  0  0  0
  190.9100  175.8660  145.1040 C   0  0  0  0  0  0  0  0  0  0  0  0
  188.5690  176.4420  145.8890 C   0  0  1  0  0  3  0  0  0  0  0  0
  184.2900  178.3520  146.6110 N   0  0  0  0  0  2  0  0  0  0  0  0
  188.7140  172.5650  142.4200 C   0  0  0  0  0  2  0  0  0  0  0  0
  190.6640  174.3620  141.5500 C   0  0  1  0  0  3  0  0  0  0  0  0
  184.6160  177.9530  145.2400 C   0  0  0  0  0  2  0  0  0  0  0  0
  188.3170  173.3780  141.3430 O   0  0  0  0  0  0  0  0  0  0  0  0
  190.4620  171.9120  140.6870 C   0  0  1  0  0  3  0  0  0  0  0  0
  190.5740  176.5530  147.4140 C   0  0  0  0  0  3  0  0  0  0  0  0
  190.0530  176.3310  146.1290 C   0  0  0  0  0  0  0  0  0  0  0  0
  187.8520  177.4600  146.8040 C   0  0  0  0  0  2  0  0  0  0  0  0
  188.5330  175.7010  142.0730 C   0  0  0  0  0  2  0  0  0  0  0  0
  186.0720  176.2690  143.4010 O   0  0  0  0  0  0  0  0  0  0  0  0
  186.1020  179.4880  147.7910 C   0  0  0  0  0  1  0  0  0  0  0  0
  188.2320  176.6870  144.4000 C   0  0  1  0  0  3  0  0  0  0  0  0
  186.4120  177.3300  146.5670 N   0  0  2  0  0  0  0  0  0  0  0  0
  191.3250  170.7660  140.1850 C   0  0  0  0  0  2  0  0  0  0  0  0
  190.5290  169.8160  139.3480 C   0  0  0  0  0  0  0  0  0  0  0  0
  189.7530  170.3270  138.1840 C   0  0  0  0  0  1  0  0  0  0  0  0
  190.4960  168.6290  139.6260 O   0  0  0  0  0  0  0  0  0  0  0  0
  1 16  1  0  0  0  0
  2 24  1  6  0  0  0
  2 12  1  0  0  0  0
  2 27  1  0  0  0  0
  3  4  1  0  0  0  0
  5  6  1  0  0  0  0
  6 18  1  6  0  0  0
  6 28  1  0  0  0  0
  7 19  1  0  0  0  0
  7 17  1  0  0  0  0
  7 24  1  1  0  0  0
  9 26  1  6  0  0  0
 11  3  2  0  0  0  0
 12  8  1  1  0  0  0
 12 13  1  0  0  0  0
 13 11  1  0  0  0  0
 13 22  2  0  0  0  0
 14 22  1  0  0  0  0
 14 23  1  1  0  0  0
 15  9  1  0  0  0  0
 17 10  1  1  0  0  0
 17  8  1  0  0  0  0
 18 15  1  0  0  0  0
 19 16  1  0  0  0  0
 20 29  1  1  0  0  0
 20 10  1  0  0  0  0
 20  1  1  0  0  0  0
 21  4  2  0  0  0  0
 22 21  1  0  0  0  0
 25  5  2  0  0  0  0
 27  5  1  1  0  0  0
 27 14  1  0  0  0  0
 28 23  1  1  0  0  0
 28  9  1  0  0  0  0
 30 32  2  0  0  0  0
 30 29  1  0  0  0  0
 31 30  1  0  0  0  0
M  END
>  <MODEL>
2

>  <REMARK>
 VINA RESULT:      -8.8      3.260      5.595
  Name = 
  2 active torsions:
  status: ('A' for Active; 'I' for Inactive)
    1  A    between atoms: C_20  and  C_29
    2  A    between atoms: C_29  and  C_30
                            x       y       z     vdW  Elec       q    Type
                         _______ _______ _______ _____ _____    ______ ____

>  <TORSDO>
F 2

$$$$
=
 OpenBabel11112416443D

 32 37  0  0  1  0  0  0  0  0999 V2000
  188.1460  175.8970  146.8300 C   0  0  0  0  0  2  0  0  0  0  0  0
  191.2820  176.1170  143.6600 C   0  0  2  0  0  3  0  0  0  0  0  0
  189.1670  173.0700  140.3090 C   0  0  0  0  0  3  0  0  0  0  0  0
  190.3690  172.3750  140.1900 C   0  0  0  0  0  3  0  0  0  0  0  0
  193.8690  176.1890  143.6800 C   0  0  0  0  0  0  0  0  0  0  0  0
  195.1260  175.7180  143.0200 C   0  0  1  0  0  3  0  0  0  0  0  0
  189.8920  177.7640  144.9610 C   0  0  1  0  0  3  0  0  0  0  0  0
  188.7950  175.9270  143.5170 C   0  0  0  0  0  2  0  0  0  0  0  0
  196.4230  173.9370  142.4890 C   0  0  2  0  0  3  0  0  0  0  0  0
  187.2910  177.3870  144.9250 C   0  0  0  0  0  2  0  0  0  0  0  0
  189.0870  174.1870  141.1420 C   0  0  0  0  0  3  0  0  0  0  0  0
  190.0940  175.8760  142.7130 C   0  0  2  0  0  3  0  0  0  0  0  0
  190.2030  174.6160  141.8770 C   0  0  0  0  0  0  0  0  0  0  0  0
  192.6430  174.3520  142.5190 C   0  0  1  0  0  3  0  0  0  0  0  0
  197.3040  174.8590  143.2190 N   0  0  0  0  0  2  0  0  0  0  0  0
  189.6190  175.9910  146.4260 C   0  0  0  0  0  2  0  0  0  0  0  0
  188.6270  177.3010  144.1700 C   0  0  1  0  0  3  0  0  0  0  0  0
  196.4370  175.9240  143.7270 C   0  0  0  0  0  2  0  0  0  0  0  0
  190.0220  177.3330  146.3090 O   0  0  0  0  0  0  0  0  0  0  0  0
  187.3520  177.1480  146.4370 C   0  0  1  0  0  3  0  0  0  0  0  0
  191.4960  172.8060  140.8900 C   0  0  0  0  0  3  0  0  0  0  0  0
  191.4380  173.9450  141.7100 C   0  0  0  0  0  0  0  0  0  0  0  0
  193.9970  173.9850  141.8710 C   0  0  0  0  0  2  0  0  0  0  0  0
  191.1860  177.5550  144.1700 C   0  0  0  0  0  2  0  0  0  0  0  0
  193.8790  176.8040  144.7360 O   0  0  0  0  0  0  0  0  0  0  0  0
  196.7120  174.0480  140.9920 C   0  0  0  0  0  1  0  0  0  0  0  0
  192.5980  175.8430  142.9260 C   0  0  1  0  0  3  0  0  0  0  0  0
  195.0490  174.2910  142.8440 N   0  0  2  0  0  0  0  0  0  0  0  0
  185.9370  177.0740  146.9890 C   0  0  0  0  0  2  0  0  0  0  0  0
  185.2670  178.4100  146.9370 C   0  0  0  0  0  0  0  0  0  0  0  0
  184.0350  178.5890  146.1190 C   0  0  0  0  0  1  0  0  0  0  0  0
  185.7360  179.3590  147.5440 O   0  0  0  0  0  0  0  0  0  0  0  0
  2 24  1  6  0  0  0
  3 11  1  0  0  0  0
  4  3  2  0  0  0  0
  4 21  1  0  0  0  0
  5 25  2  0  0  0  0
  6  5  1  0  0  0  0
  6 18  1  1  0  0  0
  7 24  1  6  0  0  0
  7 19  1  0  0  0  0
  9 26  1  6  0  0  0
  9 28  1  0  0  0  0
  9 15  1  0  0  0  0
 10 20  1  0  0  0  0
 11 13  2  0  0  0  0
 12  8  1  1  0  0  0
 12  2  1  0  0  0  0
 13 12  1  0  0  0  0
 14 23  1  6  0  0  0
 14 27  1  0  0  0  0
 15 18  1  0  0  0  0
 16  1  1  0  0  0  0
 17  8  1  1  0  0  0
 17 10  1  0  0  0  0
 17  7  1  0  0  0  0
 19 16  1  0  0  0  0
 20  1  1  0  0  0  0
 20 29  1  6  0  0  0
 21 22  2  0  0  0  0
 22 13  1  0  0  0  0
 22 14  1  0  0  0  0
 27  2  1  0  0  0  0
 27  5  1  1  0  0  0
 28 23  1  6  0  0  0
 28  6  1  0  0  0  0
 30 29  1  0  0  0  0
 30 32  2  0  0  0  0
 31 30  1  0  0  0  0
M  END
>  <MODEL>
3

>  <REMARK>
 VINA RESULT:      -8.8      3.263      7.941
  Name = 
  2 active torsions:
  status: ('A' for Active; 'I' for Inactive)
    1  A    between atoms: C_20  and  C_29
    2  A    between atoms: C_29  and  C_30
                            x       y       z     vdW  Elec       q    Type
                         _______ _______ _______ _____ _____    ______ ____

>  <TORSDO>
F 2

$$$$
=
 OpenBabel11112416443D

 32 37  0  0  1  0  0  0  0  0999 V2000
  190.8870  174.2850  144.4300 C   0  0  0  0  0  2  0  0  0  0  0  0
  187.8850  177.4630  143.5270 C   0  0  2  0  0  3  0  0  0  0  0  0
  186.3380  178.3730  148.1920 C   0  0  0  0  0  3  0  0  0  0  0  0
  185.0140  178.2600  147.7690 C   0  0  0  0  0  3  0  0  0  0  0  0
  186.1450  177.8220  141.6450 C   0  0  0  0  0  0  0  0  0  0  0  0
  184.7640  178.2870  141.3070 C   0  0  1  0  0  3  0  0  0  0  0  0
  190.3220  177.0690  143.0320 C   0  0  1  0  0  3  0  0  0  0  0  0
  189.4420  177.1580  145.4560 C   0  0  0  0  0  2  0  0  0  0  0  0
  182.5410  177.9540  141.5910 C   0  0  2  0  0  3  0  0  0  0  0  0
  191.8680  176.5600  145.0950 C   0  0  0  0  0  2  0  0  0  0  0  0
  187.3770  178.2590  147.2670 C   0  0  0  0  0  3  0  0  0  0  0  0
  188.2620  177.9740  144.9280 C   0  0  2  0  0  3  0  0  0  0  0  0
  187.1080  178.0180  145.9100 C   0  0  0  0  0  0  0  0  0  0  0  0
  185.4410  177.6580  144.0330 C   0  0  1  0  0  3  0  0  0  0  0  0
  182.7540  177.9470  140.1380 N   0  0  0  0  0  2  0  0  0  0  0  0
  189.8030  174.8640  143.5190 C   0  0  0  0  0  2  0  0  0  0  0  0
  190.6550  177.3200  144.5370 C   0  0  1  0  0  3  0  0  0  0  0  0
  184.2060  177.9760  139.9460 C   0  0  0  0  0  2  0  0  0  0  0  0
  190.3640  175.7290  142.5620 O   0  0  0  0  0  0  0  0  0  0  0  0
  192.1340  175.1760  144.4960 C   0  0  1  0  0  3  0  0  0  0  0  0
  184.7280  178.0490  146.4200 C   0  0  0  0  0  3  0  0  0  0  0  0
  185.7630  177.9610  145.4740 C   0  0  0  0  0  0  0  0  0  0  0  0
  184.0640  178.1800  143.5660 C   0  0  0  0  0  2  0  0  0  0  0  0
  189.0470  177.7880  142.5860 C   0  0  0  0  0  2  0  0  0  0  0  0
  186.8630  177.2660  140.8260 O   0  0  0  0  0  0  0  0  0  0  0  0
  181.9540  179.3040  142.0060 C   0  0  0  0  0  1  0  0  0  0  0  0
  186.5690  178.1030  143.0740 C   0  0  1  0  0  3  0  0  0  0  0  0
  183.8330  177.6660  142.2140 N   0  0  2  0  0  0  0  0  0  0  0  0
  193.2360  174.4900  145.2880 C   0  0  0  0  0  2  0  0  0  0  0  0
  194.4670  175.3370  145.3440 C   0  0  0  0  0  0  0  0  0  0  0  0
  195.1330  175.7590  144.0800 C   0  0  0  0  0  1  0  0  0  0  0  0
  194.9400  175.6660  146.4190 O   0  0  0  0  0  0  0  0  0  0  0  0
  1 20  1  0  0  0  0
  2 24  1  6  0  0  0
  2 12  1  0  0  0  0
  4  3  1  0  0  0  0
  6 18  1  6  0  0  0
  6  5  1  0  0  0  0
  6 28  1  0  0  0  0
  7 24  1  1  0  0  0
  7 17  1  0  0  0  0
  9 26  1  1  0  0  0
  9 28  1  0  0  0  0
 11  3  2  0  0  0  0
 12  8  1  1  0  0  0
 12 13  1  0  0  0  0
 13 11  1  0  0  0  0
 14 23  1  6  0  0  0
 14 22  1  0  0  0  0
 15  9  1  0  0  0  0
 16  1  1  0  0  0  0
 17 10  1  1  0  0  0
 17  8  1  0  0  0  0
 18 15  1  0  0  0  0
 19  7  1  0  0  0  0
 19 16  1  0  0  0  0
 20 10  1  0  0  0  0
 20 29  1  1  0  0  0
 21  4  2  0  0  0  0
 22 13  2  0  0  0  0
 22 21  1  0  0  0  0
 25  5  2  0  0  0  0
 27  5  1  6  0  0  0
 27  2  1  0  0  0  0
 27 14  1  0  0  0  0
 28 23  1  1  0  0  0
 29 30  1  0  0  0  0
 30 32  2  0  0  0  0
 31 30  1  0  0  0  0
M  END
>  <MODEL>
4

>  <REMARK>
 VINA RESULT:      -8.6      2.911      5.240
  Name = 
  2 active torsions:
  status: ('A' for Active; 'I' for Inactive)
    1  A    between atoms: C_20  and  C_29
    2  A    between atoms: C_29  and  C_30
                            x       y       z     vdW  Elec       q    Type
                         _______ _______ _______ _____ _____    ______ ____

>  <TORSDO>
F 2

$$$$
=
 OpenBabel11112416443D

 32 37  0  0  1  0  0  0  0  0999 V2000
  187.8170  175.6670  147.2640 C   0  0  0  0  0  2  0  0  0  0  0  0
  191.4850  175.3090  144.7450 C   0  0  2  0  0  3  0  0  0  0  0  0
  189.5310  172.7070  140.9510 C   0  0  0  0  0  3  0  0  0  0  0  0
  190.5890  171.8020  141.0320 C   0  0  0  0  0  3  0  0  0  0  0  0
  193.9910  174.9050  145.2500 C   0  0  0  0  0  0  0  0  0  0  0  0
  195.2440  174.2120  144.8190 C   0  0  1  0  0  3  0  0  0  0  0  0
  190.1930  177.1820  145.8220 C   0  0  1  0  0  3  0  0  0  0  0  0
  189.0780  175.5800  144.1330 C   0  0  0  0  0  2  0  0  0  0  0  0
  196.2760  172.2230  144.4760 C   0  0  2  0  0  3  0  0  0  0  0  0
  187.6220  177.2900  145.2870 C   0  0  0  0  0  2  0  0  0  0  0  0
  189.4960  173.8180  141.7940 C   0  0  0  0  0  3  0  0  0  0  0  0
  190.4750  175.2920  143.5840 C   0  0  2  0  0  3  0  0  0  0  0  0
  190.5120  174.0350  142.7390 C   0  0  0  0  0  0  0  0  0  0  0  0
  192.6970  173.3260  143.8150 C   0  0  1  0  0  3  0  0  0  0  0  0
  197.1530  172.9660  145.3900 N   0  0  0  0  0  2  0  0  0  0  0  0
  189.3320  175.4880  147.1450 C   0  0  0  0  0  2  0  0  0  0  0  0
  189.0390  176.9610  144.7930 C   0  0  1  0  0  3  0  0  0  0  0  0
  196.4130  174.1720  145.7650 C   0  0  0  0  0  2  0  0  0  0  0  0
  189.9840  176.7340  147.1530 O   0  0  0  0  0  0  0  0  0  0  0  0
  187.3500  177.0430  146.7750 C   0  0  1  0  0  3  0  0  0  0  0  0
  191.6210  172.0180  141.9460 C   0  0  0  0  0  3  0  0  0  0  0  0
  191.6140  173.1470  142.7810 C   0  0  0  0  0  0  0  0  0  0  0  0
  194.0600  172.7160  143.4180 C   0  0  0  0  0  2  0  0  0  0  0  0
  191.5540  176.7400  145.2790 C   0  0  0  0  0  2  0  0  0  0  0  0
  193.9100  175.5060  146.3100 O   0  0  0  0  0  0  0  0  0  0  0  0
  196.8590  172.2810  143.0640 C   0  0  0  0  0  1  0  0  0  0  0  0
  192.8450  174.7990  144.2600 C   0  0  1  0  0  3  0  0  0  0  0  0
  194.9460  172.8230  144.5800 N   0  0  2  0  0  0  0  0  0  0  0  0
  185.8660  177.2300  147.0490 C   0  0  0  0  0  2  0  0  0  0  0  0
  185.4570  178.6560  146.8600 C   0  0  0  0  0  0  0  0  0  0  0  0
  184.4750  179.0100  145.7980 C   0  0  0  0  0  1  0  0  0  0  0  0
  185.9400  179.5330  147.5580 O   0  0  0  0  0  0  0  0  0  0  0  0
  2 24  1  6  0  0  0
  3  4  2  0  0  0  0
  3 11  1  0  0  0  0
  4 21  1  0  0  0  0
  5 25  2  0  0  0  0
  6  5  1  0  0  0  0
  6 18  1  1  0  0  0
  7 24  1  6  0  0  0
  7 19  1  0  0  0  0
  9 26  1  6  0  0  0
  9 28  1  0  0  0  0
  9 15  1  0  0  0  0
 10 20  1  0  0  0  0
 11 13  2  0  0  0  0
 12  8  1  1  0  0  0
 12  2  1  0  0  0  0
 13 22  1  0  0  0  0
 13 12  1  0  0  0  0
 14 23  1  6  0  0  0
 14 27  1  0  0  0  0
 15 18  1  0  0  0  0
 16 19  1  0  0  0  0
 16  1  1  0  0  0  0
 17  8  1  1  0  0  0
 17 10  1  0  0  0  0
 17  7  1  0  0  0  0
 20 29  1  6  0  0  0
 20  1  1  0  0  0  0
 21 22  2  0  0  0  0
 22 14  1  0  0  0  0
 27  2  1  0  0  0  0
 27  5  1  1  0  0  0
 28 23  1  6  0  0  0
 28  6  1  0  0  0  0
 30 29  1  0  0  0  0
 30 32  2  0  0  0  0
 31 30  1  0  0  0  0
M  END
>  <MODEL>
5

>  <REMARK>
 VINA RESULT:      -8.1      3.078      7.950
  Name = 
  2 active torsions:
  status: ('A' for Active; 'I' for Inactive)
    1  A    between atoms: C_20  and  C_29
    2  A    between atoms: C_29  and  C_30
                            x       y       z     vdW  Elec       q    Type
                         _______ _______ _______ _____ _____    ______ ____

>  <TORSDO>
F 2

$$$$
=
 OpenBabel11112416443D

 32 37  0  0  1  0  0  0  0  0999 V2000
  187.0500  178.4660  142.2720 C   0  0  0  0  0  2  0  0  0  0  0  0
  190.0220  175.2970  143.2990 C   0  0  2  0  0  3  0  0  0  0  0  0
  191.1280  176.7910  147.9390 C   0  0  0  0  0  3  0  0  0  0  0  0
  192.4870  176.7060  147.6380 C   0  0  0  0  0  3  0  0  0  0  0  0
  191.9080  174.0980  141.9940 C   0  0  0  0  0  0  0  0  0  0  0  0
  193.2980  173.5500  142.0520 C   0  0  1  0  0  3  0  0  0  0  0  0
  187.6510  175.3630  142.4560 C   0  0  1  0  0  3  0  0  0  0  0  0
  188.3130  176.4760  144.6890 C   0  0  0  0  0  2  0  0  0  0  0  0
  195.4980  174.0140  142.3390 C   0  0  2  0  0  3  0  0  0  0  0  0
  185.9460  176.7840  143.8640 C   0  0  0  0  0  2  0  0  0  0  0  0
  190.1770  176.4250  146.9850 C   0  0  0  0  0  3  0  0  0  0  0  0
  189.5090  175.5250  144.7320 C   0  0  2  0  0  3  0  0  0  0  0  0
  190.5710  175.9820  145.7130 C   0  0  0  0  0  0  0  0  0  0  0  0
  192.4050  175.4120  144.0560 C   0  0  1  0  0  3  0  0  0  0  0  0
  195.4120  173.3110  141.0530 N   0  0  0  0  0  2  0  0  0  0  0  0
  188.1910  177.5350  141.8590 C   0  0  0  0  0  2  0  0  0  0  0  0
  187.1800  175.8680  143.8570 C   0  0  1  0  0  3  0  0  0  0  0  0
  193.9820  173.1700  140.7680 C   0  0  0  0  0  2  0  0  0  0  0  0
  187.6900  176.3060  141.3940 O   0  0  0  0  0  0  0  0  0  0  0  0
  185.7760  177.7000  142.6470 C   0  0  1  0  0  3  0  0  0  0  0  0
  192.8950  176.2400  146.3880 C   0  0  0  0  0  3  0  0  0  0  0  0
  191.9500  175.8410  145.4280 C   0  0  0  0  0  0  0  0  0  0  0  0
  193.8010  174.7500  144.0280 C   0  0  0  0  0  2  0  0  0  0  0  0
  188.9380  174.5380  142.5330 C   0  0  0  0  0  2  0  0  0  0  0  0
  191.2810  174.1760  140.9480 O   0  0  0  0  0  0  0  0  0  0  0  0
  196.0050  173.0450  143.4080 C   0  0  0  0  0  1  0  0  0  0  0  0
  191.3520  174.5390  143.3350 C   0  0  1  0  0  3  0  0  0  0  0  0
  194.1650  174.5470  142.6240 N   0  0  2  0  0  0  0  0  0  0  0  0
  184.6300  178.6660  142.9050 C   0  0  0  0  0  2  0  0  0  0  0  0
  184.8170  179.3920  144.1990 C   0  0  0  0  0  0  0  0  0  0  0  0
  184.0660  178.9550  145.4080 C   0  0  0  0  0  1  0  0  0  0  0  0
  185.5660  180.3530  144.2630 O   0  0  0  0  0  0  0  0  0  0  0  0
  1 20  1  0  0  0  0
  2 24  1  6  0  0  0
  2 27  1  0  0  0  0
  2 12  1  0  0  0  0
  4  3  1  0  0  0  0
  5  6  1  0  0  0  0
  6 18  1  6  0  0  0
  6 28  1  0  0  0  0
  7 24  1  1  0  0  0
  7 17  1  0  0  0  0
  9 28  1  0  0  0  0
  9 26  1  1  0  0  0
 11  3  2  0  0  0  0
 12  8  1  6  0  0  0
 12 13  1  0  0  0  0
 13 11  1  0  0  0  0
 14 23  1  1  0  0  0
 14 22  1  0  0  0  0
 15  9  1  0  0  0  0
 16  1  1  0  0  0  0
 17 10  1  6  0  0  0
 17  8  1  0  0  0  0
 18 15  1  0  0  0  0
 19 16  1  0  0  0  0
 19  7  1  0  0  0  0
 20 29  1  1  0  0  0
 20 10  1  0  0  0  0
 21  4  2  0  0  0  0
 22 13  2  0  0  0  0
 22 21  1  0  0  0  0
 25  5  2  0  0  0  0
 27  5  1  6  0  0  0
 27 14  1  0  0  0  0
 28 23  1  1  0  0  0
 29 30  1  0  0  0  0
 30 32  2  0  0  0  0
 30 31  1  0  0  0  0
M  END
>  <MODEL>
6

>  <REMARK>
 VINA RESULT:      -7.9      3.592      8.698
  Name = 
  2 active torsions:
  status: ('A' for Active; 'I' for Inactive)
    1  A    between atoms: C_20  and  C_29
    2  A    between atoms: C_29  and  C_30
                            x       y       z     vdW  Elec       q    Type
                         _______ _______ _______ _____ _____    ______ ____

>  <TORSDO>
F 2

$$$$
=
 OpenBabel11112416443D

 32 37  0  0  1  0  0  0  0  0999 V2000
  187.2610  178.6740  142.4110 C   0  0  0  0  0  2  0  0  0  0  0  0
  189.9270  175.0950  142.3000 C   0  0  2  0  0  3  0  0  0  0  0  0
  193.5730  176.7910  145.2700 C   0  0  0  0  0  3  0  0  0  0  0  0
  194.5180  176.4080  144.3200 C   0  0  0  0  0  3  0  0  0  0  0  0
  190.6290  173.4220  140.4540 C   0  0  0  0  0  0  0  0  0  0  0  0
  191.7470  172.6160  139.8730 C   0  0  1  0  0  3  0  0  0  0  0  0
  187.5100  175.5470  142.8410 C   0  0  1  0  0  3  0  0  0  0  0  0
  189.4160  176.7210  144.1260 C   0  0  0  0  0  2  0  0  0  0  0  0
  193.7740  172.6600  138.8620 C   0  0  2  0  0  3  0  0  0  0  0  0
  187.0400  177.4110  144.6330 C   0  0  0  0  0  2  0  0  0  0  0  0
  192.2190  176.5290  145.0520 C   0  0  0  0  0  3  0  0  0  0  0  0
  190.3210  175.5610  143.7120 C   0  0  2  0  0  3  0  0  0  0  0  0
  191.7910  175.8920  143.8760 C   0  0  0  0  0  0  0  0  0  0  0  0
  192.3270  174.8080  141.6470 C   0  0  1  0  0  3  0  0  0  0  0  0
  192.9130  171.8650  137.9770 N   0  0  0  0  0  2  0  0  0  0  0  0
  187.8710  177.4980  141.6450 C   0  0  0  0  0  2  0  0  0  0  0  0
  187.9530  176.2720  144.1510 C   0  0  1  0  0  3  0  0  0  0  0  0
  191.5600  171.9830  138.5230 C   0  0  0  0  0  2  0  0  0  0  0  0
  187.0620  176.3530  141.7600 O   0  0  0  0  0  0  0  0  0  0  0  0
  186.3300  178.2170  143.5410 C   0  0  1  0  0  3  0  0  0  0  0  0
  194.1120  175.7480  143.1590 C   0  0  0  0  0  3  0  0  0  0  0  0
  192.7570  175.4530  142.9390 C   0  0  0  0  0  0  0  0  0  0  0  0
  193.3900  173.8830  141.0140 C   0  0  0  0  0  2  0  0  0  0  0  0
  188.5230  174.4950  142.3830 C   0  0  0  0  0  2  0  0  0  0  0  0
  189.5420  173.5180  139.9040 O   0  0  0  0  0  0  0  0  0  0  0  0
  194.6750  171.7200  139.6640 C   0  0  0  0  0  1  0  0  0  0  0  0
  190.9610  174.0950  141.7730 C   0  0  1  0  0  3  0  0  0  0  0  0
  192.8910  173.4730  139.6980 N   0  0  2  0  0  0  0  0  0  0  0  0
  185.6350  179.4120  144.1730 C   0  0  0  0  0  2  0  0  0  0  0  0
  184.2680  179.0470  144.6590 C   0  0  0  0  0  0  0  0  0  0  0  0
  184.0660  178.6660  146.0840 C   0  0  0  0  0  1  0  0  0  0  0  0
  183.3220  179.0410  143.8880 O   0  0  0  0  0  0  0  0  0  0  0  0
  1 20  1  0  0  0  0
  2 24  1  1  0  0  0
  2 12  1  0  0  0  0
  4  3  2  0  0  0  0
  6 18  1  6  0  0  0
  6  5  1  0  0  0  0
  7 24  1  6  0  0  0
  7 17  1  0  0  0  0
  9 26  1  1  0  0  0
  9 28  1  0  0  0  0
 11  3  1  0  0  0  0
 12 13  1  0  0  0  0
 12  8  1  6  0  0  0
 13 11  2  0  0  0  0
 14 23  1  1  0  0  0
 14 27  1  0  0  0  0
 14 22  1  0  0  0  0
 15 18  1  0  0  0  0
 15  9  1  0  0  0  0
 16 19  1  0  0  0  0
 16  1  1  0  0  0  0
 17  8  1  6  0  0  0
 17 10  1  0  0  0  0
 19  7  1  0  0  0  0
 20 29  1  1  0  0  0
 20 10  1  0  0  0  0
 21  4  1  0  0  0  0
 22 21  2  0  0  0  0
 22 13  1  0  0  0  0
 25  5  2  0  0  0  0
 27  5  1  6  0  0  0
 27  2  1  0  0  0  0
 28  6  1  0  0  0  0
 28 23  1  1  0  0  0
 29 30  1  0  0  0  0
 30 31  1  0  0  0  0
 32 30  2  0  0  0  0
M  END
>  <MODEL>
7

>  <REMARK>
 VINA RESULT:      -7.8      4.231      8.947
  Name = 
  2 active torsions:
  status: ('A' for Active; 'I' for Inactive)
    1  A    between atoms: C_20  and  C_29
    2  A    between atoms: C_29  and  C_30
                            x       y       z     vdW  Elec       q    Type
                         _______ _______ _______ _____ _____    ______ ____

>  <TORSDO>
F 2

$$$$
=
 OpenBabel11112416443D

 32 37  0  0  1  0  0  0  0  0999 V2000
  187.1500  176.8230  144.7720 C   0  0  0  0  0  2  0  0  0  0  0  0
  191.2150  175.5900  143.4000 C   0  0  2  0  0  3  0  0  0  0  0  0
  189.8830  171.7640  140.4720 C   0  0  0  0  0  3  0  0  0  0  0  0
  190.8340  170.9600  141.0980 C   0  0  0  0  0  3  0  0  0  0  0  0
  193.5310  175.4160  144.5410 C   0  0  0  0  0  0  0  0  0  0  0  0
  194.7920  174.6210  144.6690 C   0  0  1  0  0  3  0  0  0  0  0  0
  189.8720  177.7190  143.4270 C   0  0  1  0  0  3  0  0  0  0  0  0
  189.0070  175.6020  142.2310 C   0  0  0  0  0  2  0  0  0  0  0  0
  195.7240  172.6530  145.2940 C   0  0  2  0  0  3  0  0  0  0  0  0
  187.4770  177.6070  142.3520 C   0  0  0  0  0  2  0  0  0  0  0  0
  189.7600  173.1070  140.8300 C   0  0  0  0  0  3  0  0  0  0  0  0
  190.4620  175.1420  142.1350 C   0  0  2  0  0  3  0  0  0  0  0  0
  190.5770  173.6620  141.8280 C   0  0  0  0  0  0  0  0  0  0  0  0
  192.4420  173.4120  143.5290 C   0  0  1  0  0  3  0  0  0  0  0  0
  196.4510  173.6850  146.0440 N   0  0  0  0  0  2  0  0  0  0  0  0
  188.6400  176.6230  145.0540 C   0  0  0  0  0  2  0  0  0  0  0  0
  188.9370  177.1280  142.3250 C   0  0  1  0  0  3  0  0  0  0  0  0
  195.7390  174.9400  145.7920 C   0  0  0  0  0  2  0  0  0  0  0  0
  189.3670  177.7890  144.7530 O   0  0  0  0  0  0  0  0  0  0  0  0
  186.8930  177.9200  143.7330 C   0  0  1  0  0  3  0  0  0  0  0  0
  191.6730  171.5030  142.0720 C   0  0  0  0  0  3  0  0  0  0  0  0
  191.5800  172.8600  142.4220 C   0  0  0  0  0  0  0  0  0  0  0  0
  193.8090  172.7080  143.6800 C   0  0  0  0  0  2  0  0  0  0  0  0
  191.2790  177.1180  143.3850 C   0  0  0  0  0  2  0  0  0  0  0  0
  193.2830  176.3640  145.2710 O   0  0  0  0  0  0  0  0  0  0  0  0
  196.5830  172.1920  144.1150 C   0  0  0  0  0  1  0  0  0  0  0  0
  192.6040  174.9460  143.4350 C   0  0  1  0  0  3  0  0  0  0  0  0
  194.4480  173.2400  144.8870 N   0  0  2  0  0  0  0  0  0  0  0  0
  185.4020  178.1850  143.5970 C   0  0  0  0  0  2  0  0  0  0  0  0
  184.9670  179.2980  144.4970 C   0  0  0  0  0  0  0  0  0  0  0  0
  184.0300  179.0180  145.6210 C   0  0  0  0  0  1  0  0  0  0  0  0
  185.3590  180.4370  144.3020 O   0  0  0  0  0  0  0  0  0  0  0  0
  1 16  1  0  0  0  0
  2 24  1  6  0  0  0
  2 27  1  0  0  0  0
  3 11  2  0  0  0  0
  3  4  1  0  0  0  0
  4 21  2  0  0  0  0
  5  6  1  0  0  0  0
  5 25  2  0  0  0  0
  6 28  1  0  0  0  0
  6 18  1  1  0  0  0
  7 24  1  1  0  0  0
  7 19  1  0  0  0  0
  9 26  1  6  0  0  0
  9 15  1  0  0  0  0
 10 20  1  0  0  0  0
 11 13  1  0  0  0  0
 12  8  1  1  0  0  0
 12  2  1  0  0  0  0
 13 12  1  0  0  0  0
 13 22  2  0  0  0  0
 14 23  1  6  0  0  0
 17  8  1  1  0  0  0
 17 10  1  0  0  0  0
 17  7  1  0  0  0  0
 18 15  1  0  0  0  0
 19 16  1  0  0  0  0
 20 29  1  6  0  0  0
 20  1  1  0  0  0  0
 21 22  1  0  0  0  0
 22 14  1  0  0  0  0
 27 14  1  0  0  0  0
 27  5  1  1  0  0  0
 28 23  1  6  0  0  0
 28  9  1  0  0  0  0
 29 30  1  0  0  0  0
 30 31  1  0  0  0  0
 32 30  2  0  0  0  0
M  END
>  <MODEL>
8

>  <REMARK>
 VINA RESULT:      -7.7      3.168      8.091
  Name = 
  2 active torsions:
  status: ('A' for Active; 'I' for Inactive)
    1  A    between atoms: C_20  and  C_29
    2  A    between atoms: C_29  and  C_30
                            x       y       z     vdW  Elec       q    Type
                         _______ _______ _______ _____ _____    ______ ____

>  <TORSDO>
F 2

$$$$
=
 OpenBabel11112416443D

 32 37  0  0  1  0  0  0  0  0999 V2000
  193.3540  175.9410  142.9440 C   0  0  0  0  0  2  0  0  0  0  0  0
  189.0480  175.8090  144.1120 C   0  0  2  0  0  3  0  0  0  0  0  0
  187.0300  176.5410  139.5980 C   0  0  0  0  0  3  0  0  0  0  0  0
  186.2150  177.5400  140.1300 C   0  0  0  0  0  3  0  0  0  0  0  0
  187.6970  176.6930  146.1350 C   0  0  0  0  0  0  0  0  0  0  0  0
  186.4240  177.3330  146.5900 C   0  0  1  0  0  3  0  0  0  0  0  0
  191.0570  174.3200  144.3990 C   0  0  1  0  0  3  0  0  0  0  0  0
  190.2300  175.0220  142.0570 C   0  0  0  0  0  2  0  0  0  0  0  0
  185.0970  179.1670  146.4930 C   0  0  2  0  0  3  0  0  0  0  0  0
  192.3690  173.6890  142.2100 C   0  0  0  0  0  2  0  0  0  0  0  0
  187.8920  175.8280  140.4320 C   0  0  0  0  0  3  0  0  0  0  0  0
  188.8580  175.2640  142.6860 C   0  0  2  0  0  3  0  0  0  0  0  0
  187.9620  176.1110  141.8050 C   0  0  0  0  0  0  0  0  0  0  0  0
  187.1760  177.4450  143.8140 C   0  0  1  0  0  3  0  0  0  0  0  0
  185.3410  178.9370  147.9230 N   0  0  0  0  0  2  0  0  0  0  0  0
  192.2420  176.2580  143.9460 C   0  0  0  0  0  2  0  0  0  0  0  0
  191.0150  173.9920  142.8720 C   0  0  1  0  0  3  0  0  0  0  0  0
  186.3430  177.8710  147.9920 C   0  0  0  0  0  2  0  0  0  0  0  0
  192.0740  175.1990  144.8570 O   0  0  0  0  0  0  0  0  0  0  0  0
  193.5810  174.4340  142.7780 C   0  0  1  0  0  3  0  0  0  0  0  0
  186.2510  177.8150  141.4970 C   0  0  0  0  0  3  0  0  0  0  0  0
  187.0930  177.0850  142.3530 C   0  0  0  0  0  0  0  0  0  0  0  0
  185.8730  178.0350  144.3980 C   0  0  0  0  0  2  0  0  0  0  0  0
  189.6830  174.7010  144.9530 C   0  0  0  0  0  2  0  0  0  0  0  0
  188.6450  176.5230  146.8880 O   0  0  0  0  0  0  0  0  0  0  0  0
  183.6970  178.6650  146.1350 C   0  0  0  0  0  1  0  0  0  0  0  0
  187.7020  176.2750  144.6770 C   0  0  1  0  0  3  0  0  0  0  0  0
  186.1630  178.4820  145.7620 N   0  0  2  0  0  0  0  0  0  0  0  0
  194.7890  174.1720  141.8920 C   0  0  0  0  0  2  0  0  0  0  0  0
  196.0640  174.4520  142.6220 C   0  0  0  0  0  0  0  0  0  0  0  0
  196.2700  173.9030  143.9900 C   0  0  0  0  0  1  0  0  0  0  0  0
  196.9280  175.1450  142.1080 O   0  0  0  0  0  0  0  0  0  0  0  0
  1 16  1  0  0  0  0
  2 27  1  0  0  0  0
  2 24  1  1  0  0  0
  3  4  2  0  0  0  0
  3 11  1  0  0  0  0
  4 21  1  0  0  0  0
  5  6  1  0  0  0  0
  5 25  2  0  0  0  0
  6 18  1  1  0  0  0
  7 19  1  0  0  0  0
  7 24  1  6  0  0  0
  9 26  1  6  0  0  0
  9 15  1  0  0  0  0
 10 20  1  0  0  0  0
 10 17  1  0  0  0  0
 11 13  2  0  0  0  0
 12  8  1  6  0  0  0
 12  2  1  0  0  0  0
 13 22  1  0  0  0  0
 13 12  1  0  0  0  0
 14 23  1  1  0  0  0
 14 27  1  0  0  0  0
 15 18  1  0  0  0  0
 16 19  1  0  0  0  0
 17  8  1  6  0  0  0
 17  7  1  0  0  0  0
 20 29  1  6  0  0  0
 20  1  1  0  0  0  0
 21 22  2  0  0  0  0
 22 14  1  0  0  0  0
 27  5  1  1  0  0  0
 28 23  1  6  0  0  0
 28  9  1  0  0  0  0
 28  6  1  0  0  0  0
 29 30  1  0  0  0  0
 30 31  1  0  0  0  0
 32 30  2  0  0  0  0
M  END
>  <MODEL>
9

>  <REMARK>
 VINA RESULT:      -7.6      1.794      2.439
  Name = 
  2 active torsions:
  status: ('A' for Active; 'I' for Inactive)
    1  A    between atoms: C_20  and  C_29
    2  A    between atoms: C_29  and  C_30
                            x       y       z     vdW  Elec       q    Type
                         _______ _______ _______ _____ _____    ______ ____

>  <TORSDO>
F 2

$$$$
