=
 OpenBabel11112417383D

 28 32  0  0  1  0  0  0  0  0999 V2000
  185.9610  178.2850  144.3620 C   0  0  0  0  0  0  0  0  0  0  0  0
  190.3930  178.1490  144.5370 O   0  0  0  0  0  0  0  0  0  0  0  0
  188.5230  174.4130  139.9100 C   0  0  0  0  0  1  0  0  0  0  0  0
  184.8500  177.1280  146.6320 C   0  0  0  0  0  3  0  0  0  0  0  0
  189.2370  173.9140  142.3660 C   0  0  2  0  0  3  0  0  0  0  0  0
  186.4790  178.8890  143.0980 C   0  0  0  0  0  2  0  0  0  0  0  0
  189.6840  178.1300  146.8960 O   0  0  0  0  0  0  0  0  0  0  0  0
  190.1130  177.2820  145.7330 S   0  0  0  0  0  0  0  0  0  0  0  0
  191.7160  175.1580  145.7420 C   0  0  0  0  0  0  0  0  0  0  0  0
  188.8590  176.0880  145.3740 C   0  0  2  0  0  3  0  0  0  0  0  0
  186.5980  177.5840  139.7210 N   0  0  0  0  0  1  0  0  0  0  0  0
  187.5520  175.3840  143.4670 C   0  0  2  0  0  3  0  0  0  0  0  0
  190.7890  174.4850  144.9280 O   0  0  0  0  0  0  0  0  0  0  0  0
  191.5290  176.3790  146.1480 N   0  0  0  0  0  0  0  0  0  0  0  0
  187.1220  177.9470  141.0260 C   0  0  2  0  0  3  0  0  0  0  0  0
  186.5990  177.1790  144.9560 C   0  0  0  0  0  0  0  0  0  0  0  0
  188.1330  174.3380  141.3830 C   0  0  1  0  0  3  0  0  0  0  0  0
  192.9680  174.4580  146.1250 C   0  0  0  0  0  1  0  0  0  0  0  0
  188.1270  176.8890  141.4910 C   0  0  0  0  0  2  0  0  0  0  0  0
  186.0210  176.5990  146.0930 C   0  0  0  0  0  3  0  0  0  0  0  0
  184.8130  178.7750  144.9050 N   0  0  0  0  0  0  0  0  0  0  0  0
  184.2540  178.2300  146.0180 C   0  0  0  0  0  3  0  0  0  0  0  0
  186.0170  178.0990  141.9660 N   0  0  0  0  0  2  0  0  0  0  0  0
  188.7710  174.5720  143.6210 C   0  0  2  0  0  3  0  0  0  0  0  0
  187.4410  175.5910  141.9520 C   0  0  2  0  0  3  0  0  0  0  0  0
  189.5030  174.9650  144.6510 C   0  0  2  0  0  3  0  0  0  0  0  0
  190.6030  174.4530  141.9420 C   0  0  0  0  0  1  0  0  0  0  0  0
  187.8470  176.6030  144.3460 C   0  0  1  0  0  3  0  0  0  0  0  0
  1 21  2  0  0  0  0
  1 16  1  0  0  0  0
  2  8  2  0  0  0  0
  3 17  1  0  0  0  0
  5 27  1  6  0  0  0
  5 24  1  0  0  0  0
  6  1  1  0  0  0  0
  8 14  1  0  0  0  0
  8  7  2  0  0  0  0
  9 18  1  0  0  0  0
  9 14  2  0  0  0  0
 10  8  1  6  0  0  0
 11 15  1  0  0  0  0
 12 24  1  0  0  0  0
 12 28  1  0  0  0  0
 13  9  1  0  0  0  0
 15 19  1  0  0  0  0
 15 23  1  0  0  0  0
 16 20  2  0  0  0  0
 17 25  1  0  0  0  0
 17  5  1  0  0  0  0
 19 25  1  0  0  0  0
 20  4  1  0  0  0  0
 21 22  1  0  0  0  0
 22  4  2  0  0  0  0
 23  6  1  0  0  0  0
 24 26  1  0  0  0  0
 25 12  1  0  0  0  0
 26 13  1  0  0  0  0
 26 10  1  0  0  0  0
 28 16  1  0  0  0  0
 28 10  1  0  0  0  0
M  END
>  <MODEL>
1

>  <REMARK>
 VINA RESULT:      -8.7      0.000      0.000
  Name = 
  0 active torsions:
  status: ('A' for Active; 'I' for Inactive)
                            x       y       z     vdW  Elec       q    Type
                         _______ _______ _______ _____ _____    ______ ____

>  <TORSDO>
F 0

$$$$
=
 OpenBabel11112417383D

 28 32  0  0  1  0  0  0  0  0999 V2000
  190.7680  174.1650  141.6840 C   0  0  0  0  0  0  0  0  0  0  0  0
  189.3700  178.2920  142.5220 O   0  0  0  0  0  0  0  0  0  0  0  0
  191.1990  175.7380  147.9070 C   0  0  0  0  0  1  0  0  0  0  0  0
  188.6520  172.5530  140.8760 C   0  0  0  0  0  3  0  0  0  0  0  0
  188.8410  176.0430  146.8400 C   0  0  2  0  0  3  0  0  0  0  0  0
  191.9500  174.9550  142.1450 C   0  0  0  0  0  2  0  0  0  0  0  0
  187.7480  177.4130  140.8880 O   0  0  0  0  0  0  0  0  0  0  0  0
  188.0220  177.6500  142.3460 S   0  0  0  0  0  0  0  0  0  0  0  0
  186.3360  178.4890  144.2260 C   0  0  0  0  0  0  0  0  0  0  0  0
  187.9270  176.1170  143.2240 C   0  0  2  0  0  3  0  0  0  0  0  0
  193.7250  174.9440  145.3020 N   0  0  0  0  0  1  0  0  0  0  0  0
  189.3160  174.8240  144.7190 C   0  0  2  0  0  3  0  0  0  0  0  0
  186.8080  177.4690  145.0710 O   0  0  0  0  0  0  0  0  0  0  0  0
  186.7950  178.6640  143.0220 N   0  0  0  0  0  0  0  0  0  0  0  0
  192.8030  175.4410  144.2960 C   0  0  2  0  0  3  0  0  0  0  0  0
  189.4930  174.3650  142.2480 C   0  0  0  0  0  0  0  0  0  0  0  0
  190.1350  175.2190  146.9430 C   0  0  1  0  0  3  0  0  0  0  0  0
  185.2960  179.4160  144.7410 C   0  0  0  0  0  1  0  0  0  0  0  0
  191.5560  176.0140  144.9770 C   0  0  0  0  0  2  0  0  0  0  0  0
  188.4390  173.5380  141.8400 C   0  0  0  0  0  3  0  0  0  0  0  0
  190.9500  173.1890  140.7530 N   0  0  0  0  0  0  0  0  0  0  0  0
  189.9290  172.3930  140.3370 C   0  0  0  0  0  3  0  0  0  0  0  0
  192.4710  174.3650  143.3690 N   0  0  0  0  0  2  0  0  0  0  0  0
  188.3950  175.7030  145.4570 C   0  0  2  0  0  3  0  0  0  0  0  0
  190.6240  174.9150  145.5150 C   0  0  2  0  0  3  0  0  0  0  0  0
  187.6460  176.4320  144.6450 C   0  0  2  0  0  3  0  0  0  0  0  0
  189.1160  177.5410  146.9720 C   0  0  0  0  0  1  0  0  0  0  0  0
  189.2860  175.4130  143.3060 C   0  0  1  0  0  3  0  0  0  0  0  0
  1  6  1  0  0  0  0
  1 16  1  0  0  0  0
  4 20  1  0  0  0  0
  5 17  1  0  0  0  0
  5 27  1  6  0  0  0
  6 23  1  0  0  0  0
  7  8  2  0  0  0  0
  8  2  2  0  0  0  0
  8 14  1  0  0  0  0
  9 18  1  0  0  0  0
  9 13  1  0  0  0  0
 10  8  1  6  0  0  0
 10 28  1  0  0  0  0
 10 26  1  0  0  0  0
 12 24  1  0  0  0  0
 12 25  1  0  0  0  0
 14  9  2  0  0  0  0
 15 19  1  0  0  0  0
 15 11  1  0  0  0  0
 16 28  1  0  0  0  0
 17  3  1  0  0  0  0
 19 25  1  0  0  0  0
 20 16  2  0  0  0  0
 21  1  2  0  0  0  0
 22 21  1  0  0  0  0
 22  4  2  0  0  0  0
 23 15  1  0  0  0  0
 24  5  1  0  0  0  0
 25 17  1  0  0  0  0
 26 13  1  0  0  0  0
 26 24  1  0  0  0  0
 28 12  1  0  0  0  0
M  END
>  <MODEL>
2

>  <REMARK>
 VINA RESULT:      -8.5      2.358      6.252
  Name = 
  0 active torsions:
  status: ('A' for Active; 'I' for Inactive)
                            x       y       z     vdW  Elec       q    Type
                         _______ _______ _______ _____ _____    ______ ____

>  <TORSDO>
F 0

$$$$
=
 OpenBabel11112417383D

 28 32  0  0  1  0  0  0  0  0999 V2000
  190.0880  174.9540  143.3980 C   0  0  0  0  0  0  0  0  0  0  0  0
  188.0080  178.4470  141.6180 O   0  0  0  0  0  0  0  0  0  0  0  0
  186.6180  178.2550  147.6920 C   0  0  0  0  0  1  0  0  0  0  0  0
  189.0430  172.5760  142.4080 C   0  0  0  0  0  3  0  0  0  0  0  0
  185.3130  177.4520  145.5850 C   0  0  2  0  0  3  0  0  0  0  0  0
  190.6790  176.1850  144.0040 C   0  0  0  0  0  2  0  0  0  0  0  0
  187.7600  176.6610  139.9380 O   0  0  0  0  0  0  0  0  0  0  0  0
  187.1000  177.3730  141.0850 S   0  0  0  0  0  0  0  0  0  0  0  0
  184.5520  178.0980  141.3310 C   0  0  0  0  0  0  0  0  0  0  0  0
  186.6850  176.2050  142.3470 C   0  0  2  0  0  3  0  0  0  0  0  0
  190.2600  177.6450  147.2920 N   0  0  0  0  0  1  0  0  0  0  0  0
  187.0730  175.9170  144.7140 C   0  0  2  0  0  3  0  0  0  0  0  0
  184.5530  177.5710  142.6340 O   0  0  0  0  0  0  0  0  0  0  0  0
  185.6050  178.0710  140.5680 N   0  0  0  0  0  0  0  0  0  0  0  0
  190.0510  177.5070  145.8620 C   0  0  2  0  0  3  0  0  0  0  0  0
  188.7110  174.8710  143.1120 C   0  0  0  0  0  0  0  0  0  0  0  0
  186.3850  177.1660  146.6480 C   0  0  1  0  0  3  0  0  0  0  0  0
  183.3110  178.7340  140.8200 C   0  0  0  0  0  1  0  0  0  0  0  0
  188.5870  177.8030  145.5230 C   0  0  0  0  0  2  0  0  0  0  0  0
  188.1970  173.6620  142.6250 C   0  0  0  0  0  3  0  0  0  0  0  0
  190.8890  173.8740  143.1860 N   0  0  0  0  0  0  0  0  0  0  0  0
  190.4020  172.7030  142.6970 C   0  0  0  0  0  3  0  0  0  0  0  0
  190.4480  176.1690  145.4410 N   0  0  0  0  0  2  0  0  0  0  0  0
  185.8020  176.6120  144.4520 C   0  0  2  0  0  3  0  0  0  0  0  0
  187.6480  176.6540  145.9300 C   0  0  2  0  0  3  0  0  0  0  0  0
  185.5920  176.7930  143.1580 C   0  0  2  0  0  3  0  0  0  0  0  0
  185.2870  178.9300  145.1960 C   0  0  0  0  0  1  0  0  0  0  0  0
  187.8080  176.0430  143.3770 C   0  0  1  0  0  3  0  0  0  0  0  0
  1  6  1  0  0  0  0
  4 20  2  0  0  0  0
  4 22  1  0  0  0  0
  5 27  1  6  0  0  0
  5 17  1  0  0  0  0
  6 23  1  0  0  0  0
  7  8  2  0  0  0  0
  8  2  2  0  0  0  0
  9 13  1  0  0  0  0
 10  8  1  6  0  0  0
 10 26  1  0  0  0  0
 10 28  1  0  0  0  0
 12 25  1  0  0  0  0
 13 26  1  0  0  0  0
 14  8  1  0  0  0  0
 14  9  2  0  0  0  0
 15 11  1  0  0  0  0
 16 28  1  0  0  0  0
 16  1  2  0  0  0  0
 17  3  1  0  0  0  0
 18  9  1  0  0  0  0
 19 15  1  0  0  0  0
 19 25  1  0  0  0  0
 20 16  1  0  0  0  0
 21  1  1  0  0  0  0
 22 21  2  0  0  0  0
 23 15  1  0  0  0  0
 24 12  1  0  0  0  0
 24  5  1  0  0  0  0
 25 17  1  0  0  0  0
 26 24  1  0  0  0  0
 28 12  1  0  0  0  0
M  END
>  <MODEL>
3

>  <REMARK>
 VINA RESULT:      -8.3      2.648      6.473
  Name = 
  0 active torsions:
  status: ('A' for Active; 'I' for Inactive)
                            x       y       z     vdW  Elec       q    Type
                         _______ _______ _______ _____ _____    ______ ____

>  <TORSDO>
F 0

$$$$
=
 OpenBabel11112417383D

 28 32  0  0  1  0  0  0  0  0999 V2000
  187.8060  177.1050  145.0280 C   0  0  0  0  0  0  0  0  0  0  0  0
  189.3390  173.1250  143.8010 O   0  0  0  0  0  0  0  0  0  0  0  0
  194.1140  176.4190  146.0840 C   0  0  0  0  0  1  0  0  0  0  0  0
  186.9940  178.5730  142.8120 C   0  0  0  0  0  3  0  0  0  0  0  0
  193.3350  175.9520  143.6420 C   0  0  2  0  0  3  0  0  0  0  0  0
  188.2540  176.3960  146.2640 C   0  0  0  0  0  2  0  0  0  0  0  0
  187.7650  173.7560  142.0130 O   0  0  0  0  0  0  0  0  0  0  0  0
  189.2090  173.7280  142.4290 S   0  0  0  0  0  0  0  0  0  0  0  0
  191.3420  173.1470  140.9490 C   0  0  0  0  0  0  0  0  0  0  0  0
  189.8700  175.3670  142.3880 C   0  0  2  0  0  3  0  0  0  0  0  0
  191.1910  176.8600  148.3320 N   0  0  0  0  0  1  0  0  0  0  0  0
  191.0300  176.8660  143.8870 C   0  0  2  0  0  3  0  0  0  0  0  0
  191.9870  174.2780  141.4780 O   0  0  0  0  0  0  0  0  0  0  0  0
  190.1340  172.8090  141.2940 N   0  0  0  0  0  0  0  0  0  0  0  0
  190.3580  176.2210  147.3290 C   0  0  2  0  0  3  0  0  0  0  0  0
  188.5140  176.9760  143.8170 C   0  0  0  0  0  0  0  0  0  0  0  0
  193.1970  176.7910  144.9220 C   0  0  1  0  0  3  0  0  0  0  0  0
  192.0780  172.2940  139.9820 C   0  0  0  0  0  1  0  0  0  0  0  0
  191.2300  175.7390  146.1650 C   0  0  0  0  0  2  0  0  0  0  0  0
  188.1000  177.7320  142.7120 C   0  0  0  0  0  3  0  0  0  0  0  0
  186.7360  177.9420  145.1000 N   0  0  0  0  0  0  0  0  0  0  0  0
  186.3150  178.6660  144.0280 C   0  0  0  0  0  3  0  0  0  0  0  0
  189.3280  177.1540  146.8880 N   0  0  0  0  0  2  0  0  0  0  0  0
  191.9690  176.0920  143.0590 C   0  0  2  0  0  3  0  0  0  0  0  0
  191.7000  176.8960  145.2670 C   0  0  2  0  0  3  0  0  0  0  0  0
  191.3420  175.2520  142.2500 C   0  0  2  0  0  3  0  0  0  0  0  0
  193.6460  174.4890  143.9590 C   0  0  0  0  0  1  0  0  0  0  0  0
  189.7220  176.0850  143.7340 C   0  0  1  0  0  3  0  0  0  0  0  0
  1 21  1  0  0  0  0
  1  6  1  0  0  0  0
  4 22  1  0  0  0  0
  5 27  1  1  0  0  0
  5 17  1  0  0  0  0
  6 23  1  0  0  0  0
  7  8  2  0  0  0  0
  8  2  2  0  0  0  0
  9 14  2  0  0  0  0
  9 13  1  0  0  0  0
 10  8  1  1  0  0  0
 10 28  1  0  0  0  0
 12 25  1  0  0  0  0
 13 26  1  0  0  0  0
 14  8  1  0  0  0  0
 15 11  1  0  0  0  0
 16  1  2  0  0  0  0
 17 25  1  0  0  0  0
 17  3  1  0  0  0  0
 18  9  1  0  0  0  0
 19 15  1  0  0  0  0
 20  4  2  0  0  0  0
 20 16  1  0  0  0  0
 22 21  2  0  0  0  0
 23 15  1  0  0  0  0
 24  5  1  0  0  0  0
 24 12  1  0  0  0  0
 25 19  1  0  0  0  0
 26 10  1  0  0  0  0
 26 24  1  0  0  0  0
 28 16  1  0  0  0  0
 28 12  1  0  0  0  0
M  END
>  <MODEL>
4

>  <REMARK>
 VINA RESULT:      -7.8      2.753      5.189
  Name = 
  0 active torsions:
  status: ('A' for Active; 'I' for Inactive)
                            x       y       z     vdW  Elec       q    Type
                         _______ _______ _______ _____ _____    ______ ____

>  <TORSDO>
F 0

$$$$
=
 OpenBabel11112417383D

 28 32  0  0  1  0  0  0  0  0999 V2000
  192.8000  174.7630  145.3770 C   0  0  0  0  0  0  0  0  0  0  0  0
  188.6010  175.4550  146.6370 O   0  0  0  0  0  0  0  0  0  0  0  0
  188.5430  173.3890  140.7550 C   0  0  0  0  0  1  0  0  0  0  0  0
  194.1890  177.1660  145.2180 C   0  0  0  0  0  3  0  0  0  0  0  0
  188.3670  175.7890  141.7560 C   0  0  2  0  0  3  0  0  0  0  0  0
  192.1150  173.4360  145.4040 C   0  0  0  0  0  2  0  0  0  0  0  0
  189.8470  177.3640  147.5720 O   0  0  0  0  0  0  0  0  0  0  0  0
  188.9940  176.8920  146.4290 S   0  0  0  0  0  0  0  0  0  0  0  0
  187.0670  178.2100  145.1530 C   0  0  0  0  0  0  0  0  0  0  0  0
  189.8720  177.0990  144.9080 C   0  0  2  0  0  3  0  0  0  0  0  0
  190.9310  171.3240  142.7100 N   0  0  0  0  0  1  0  0  0  0  0  0
  190.5160  175.7420  143.0160 C   0  0  2  0  0  3  0  0  0  0  0  0
  187.6220  177.7920  143.9320 O   0  0  0  0  0  0  0  0  0  0  0  0
  187.5770  177.8750  146.3020 N   0  0  0  0  0  0  0  0  0  0  0  0
  190.8200  172.2770  143.8000 C   0  0  2  0  0  3  0  0  0  0  0  0
  192.1270  175.9220  144.9450 C   0  0  0  0  0  0  0  0  0  0  0  0
  189.2580  174.6220  141.3030 C   0  0  1  0  0  3  0  0  0  0  0  0
  185.8360  179.0410  145.1290 C   0  0  0  0  0  1  0  0  0  0  0  0
  189.7750  173.3410  143.4500 C   0  0  0  0  0  2  0  0  0  0  0  0
  192.8430  177.1240  144.8580 C   0  0  0  0  0  3  0  0  0  0  0  0
  194.1170  174.8320  145.7130 N   0  0  0  0  0  0  0  0  0  0  0  0
  194.8160  175.9960  145.6490 C   0  0  0  0  0  3  0  0  0  0  0  0
  192.1280  172.8640  144.0660 N   0  0  0  0  0  2  0  0  0  0  0  0
  189.2410  176.4370  142.7780 C   0  0  2  0  0  3  0  0  0  0  0  0
  190.2930  174.3500  142.4110 C   0  0  2  0  0  3  0  0  0  0  0  0
  188.8690  177.1650  143.8180 C   0  0  2  0  0  3  0  0  0  0  0  0
  187.0660  175.2910  142.3880 C   0  0  0  0  0  1  0  0  0  0  0  0
  190.6820  175.8540  144.5340 C   0  0  1  0  0  3  0  0  0  0  0  0
  1  6  1  0  0  0  0
  1 21  1  0  0  0  0
  3 17  1  0  0  0  0
  4 22  1  0  0  0  0
  5 27  1  1  0  0  0
  5 24  1  0  0  0  0
  8  2  2  0  0  0  0
  8  7  2  0  0  0  0
  9 14  2  0  0  0  0
 10  8  1  1  0  0  0
 11 15  1  0  0  0  0
 12 28  1  0  0  0  0
 13  9  1  0  0  0  0
 14  8  1  0  0  0  0
 15 23  1  0  0  0  0
 16  1  2  0  0  0  0
 17  5  1  0  0  0  0
 17 25  1  0  0  0  0
 18  9  1  0  0  0  0
 19 15  1  0  0  0  0
 20 16  1  0  0  0  0
 20  4  2  0  0  0  0
 22 21  2  0  0  0  0
 23  6  1  0  0  0  0
 24 12  1  0  0  0  0
 24 26  1  0  0  0  0
 25 12  1  0  0  0  0
 25 19  1  0  0  0  0
 26 13  1  0  0  0  0
 26 10  1  0  0  0  0
 28 10  1  0  0  0  0
 28 16  1  0  0  0  0
M  END
>  <MODEL>
5

>  <REMARK>
 VINA RESULT:      -7.6      2.337      5.819
  Name = 
  0 active torsions:
  status: ('A' for Active; 'I' for Inactive)
                            x       y       z     vdW  Elec       q    Type
                         _______ _______ _______ _____ _____    ______ ____

>  <TORSDO>
F 0

$$$$
=
 OpenBabel11112417383D

 28 32  0  0  1  0  0  0  0  0999 V2000
  187.3740  176.4720  142.5820 C   0  0  0  0  0  0  0  0  0  0  0  0
  191.7680  177.0710  142.7230 O   0  0  0  0  0  0  0  0  0  0  0  0
  190.6630  170.9530  142.2640 C   0  0  0  0  0  1  0  0  0  0  0  0
  186.2060  177.1720  145.0050 C   0  0  0  0  0  3  0  0  0  0  0  0
  191.2230  172.4690  144.3080 C   0  0  2  0  0  3  0  0  0  0  0  0
  187.9280  176.0420  141.2630 C   0  0  0  0  0  2  0  0  0  0  0  0
  190.8770  178.6640  144.3780 O   0  0  0  0  0  0  0  0  0  0  0  0
  191.4820  177.3020  144.1810 S   0  0  0  0  0  0  0  0  0  0  0  0
  193.2850  176.0630  145.6950 C   0  0  0  0  0  0  0  0  0  0  0  0
  190.3870  176.0690  144.8190 C   0  0  2  0  0  3  0  0  0  0  0  0
  188.4500  172.7370  139.8740 N   0  0  0  0  0  1  0  0  0  0  0  0
  189.3160  174.0500  144.0350 C   0  0  2  0  0  3  0  0  0  0  0  0
  192.4990  174.8990  145.6360 O   0  0  0  0  0  0  0  0  0  0  0  0
  192.9430  177.1660  145.0950 N   0  0  0  0  0  0  0  0  0  0  0  0
  188.8270  173.9900  140.5030 C   0  0  2  0  0  3  0  0  0  0  0  0
  188.0700  176.2250  143.7810 C   0  0  0  0  0  0  0  0  0  0  0  0
  190.1650  171.9110  143.3420 C   0  0  1  0  0  3  0  0  0  0  0  0
  194.5660  176.0200  146.4440 C   0  0  0  0  0  1  0  0  0  0  0  0
  189.8940  173.7300  141.5720 C   0  0  0  0  0  2  0  0  0  0  0  0
  187.4640  176.5720  144.9950 C   0  0  0  0  0  3  0  0  0  0  0  0
  186.1420  177.0500  142.6220 N   0  0  0  0  0  0  0  0  0  0  0  0
  185.5530  177.4070  143.7940 C   0  0  0  0  0  3  0  0  0  0  0  0
  187.6410  174.6290  141.0610 N   0  0  0  0  0  2  0  0  0  0  0  0
  190.5940  173.7620  144.7070 C   0  0  2  0  0  3  0  0  0  0  0  0
  189.3070  173.0880  142.8400 C   0  0  2  0  0  3  0  0  0  0  0  0
  191.1980  174.8650  145.1200 C   0  0  2  0  0  3  0  0  0  0  0  0
  192.5580  172.7070  143.6010 C   0  0  0  0  0  1  0  0  0  0  0  0
  189.4140  175.5520  143.7540 C   0  0  1  0  0  3  0  0  0  0  0  0
  1 21  2  0  0  0  0
  1 16  1  0  0  0  0
  2  8  2  0  0  0  0
  3 17  1  0  0  0  0
  5 27  1  6  0  0  0
  5 24  1  0  0  0  0
  6  1  1  0  0  0  0
  8  7  2  0  0  0  0
  8 14  1  0  0  0  0
  9 18  1  0  0  0  0
 10  8  1  6  0  0  0
 10 26  1  0  0  0  0
 11 15  1  0  0  0  0
 12 24  1  0  0  0  0
 13  9  1  0  0  0  0
 14  9  2  0  0  0  0
 15 23  1  0  0  0  0
 15 19  1  0  0  0  0
 16 20  2  0  0  0  0
 17  5  1  0  0  0  0
 19 25  1  0  0  0  0
 20  4  1  0  0  0  0
 21 22  1  0  0  0  0
 22  4  2  0  0  0  0
 23  6  1  0  0  0  0
 24 26  1  0  0  0  0
 25 17  1  0  0  0  0
 25 12  1  0  0  0  0
 26 13  1  0  0  0  0
 28 16  1  0  0  0  0
 28 12  1  0  0  0  0
 28 10  1  0  0  0  0
M  END
>  <MODEL>
6

>  <REMARK>
 VINA RESULT:      -7.6      2.040      2.965
  Name = 
  0 active torsions:
  status: ('A' for Active; 'I' for Inactive)
                            x       y       z     vdW  Elec       q    Type
                         _______ _______ _______ _____ _____    ______ ____

>  <TORSDO>
F 0

$$$$
=
 OpenBabel11112417383D

 28 32  0  0  1  0  0  0  0  0999 V2000
  191.1500  173.8980  141.8600 C   0  0  0  0  0  0  0  0  0  0  0  0
  188.8070  177.2930  143.4970 O   0  0  0  0  0  0  0  0  0  0  0  0
  193.7290  176.3680  147.2100 C   0  0  0  0  0  1  0  0  0  0  0  0
  189.7170  171.5250  142.0630 C   0  0  0  0  0  3  0  0  0  0  0  0
  191.2380  175.6310  147.4110 C   0  0  2  0  0  3  0  0  0  0  0  0
  191.9970  175.1240  141.7490 C   0  0  0  0  0  2  0  0  0  0  0  0
  187.1060  175.6610  142.7820 O   0  0  0  0  0  0  0  0  0  0  0  0
  187.9000  176.1810  143.9470 S   0  0  0  0  0  0  0  0  0  0  0  0
  187.0860  176.5930  146.4460 C   0  0  0  0  0  0  0  0  0  0  0  0
  188.8230  174.8590  144.6730 C   0  0  2  0  0  3  0  0  0  0  0  0
  194.8650  176.2060  143.6780 N   0  0  0  0  0  1  0  0  0  0  0  0
  191.1220  174.3910  145.2530 C   0  0  2  0  0  3  0  0  0  0  0  0
  188.2470  175.9470  146.9050 O   0  0  0  0  0  0  0  0  0  0  0  0
  186.8330  176.7560  145.1810 N   0  0  0  0  0  0  0  0  0  0  0  0
  193.4740  176.1840  143.2610 C   0  0  2  0  0  3  0  0  0  0  0  0
  190.3100  173.6910  142.9720 C   0  0  0  0  0  0  0  0  0  0  0  0
  192.6400  175.3650  146.8400 C   0  0  1  0  0  3  0  0  0  0  0  0
  186.1300  177.1330  147.4450 C   0  0  0  0  0  1  0  0  0  0  0  0
  192.5660  176.3460  144.4840 C   0  0  0  0  0  2  0  0  0  0  0  0
  189.6040  172.4850  143.0670 C   0  0  0  0  0  3  0  0  0  0  0  0
  191.2480  172.9390  140.8990 N   0  0  0  0  0  0  0  0  0  0  0  0
  190.5530  171.7730  140.9730 C   0  0  0  0  0  3  0  0  0  0  0  0
  193.2040  174.9440  142.5420 N   0  0  0  0  0  2  0  0  0  0  0  0
  190.3810  174.9620  146.3880 C   0  0  2  0  0  3  0  0  0  0  0  0
  192.4960  175.0670  145.3360 C   0  0  2  0  0  3  0  0  0  0  0  0
  189.1260  175.2430  146.0730 C   0  0  2  0  0  3  0  0  0  0  0  0
  190.9350  177.1270  147.4830 C   0  0  0  0  0  1  0  0  0  0  0  0
  190.2210  174.7250  144.0600 C   0  0  1  0  0  3  0  0  0  0  0  0
  1 16  1  0  0  0  0
  2  8  2  0  0  0  0
  4 20  1  0  0  0  0
  5 27  1  6  0  0  0
  6  1  1  0  0  0  0
  6 23  1  0  0  0  0
  7  8  2  0  0  0  0
  8 14  1  0  0  0  0
  9 13  1  0  0  0  0
  9 18  1  0  0  0  0
 10  8  1  6  0  0  0
 10 26  1  0  0  0  0
 12 25  1  0  0  0  0
 12 24  1  0  0  0  0
 14  9  2  0  0  0  0
 15 11  1  0  0  0  0
 15 19  1  0  0  0  0
 16 20  2  0  0  0  0
 16 28  1  0  0  0  0
 17  3  1  0  0  0  0
 17  5  1  0  0  0  0
 19 25  1  0  0  0  0
 21 22  1  0  0  0  0
 21  1  2  0  0  0  0
 22  4  2  0  0  0  0
 23 15  1  0  0  0  0
 24  5  1  0  0  0  0
 25 17  1  0  0  0  0
 26 24  1  0  0  0  0
 26 13  1  0  0  0  0
 28 10  1  0  0  0  0
 28 12  1  0  0  0  0
M  END
>  <MODEL>
7

>  <REMARK>
 VINA RESULT:      -7.5      2.827      6.295
  Name = 
  0 active torsions:
  status: ('A' for Active; 'I' for Inactive)
                            x       y       z     vdW  Elec       q    Type
                         _______ _______ _______ _____ _____    ______ ____

>  <TORSDO>
F 0

$$$$
=
 OpenBabel11112417383D

 28 32  0  0  1  0  0  0  0  0999 V2000
  190.4200  173.8880  142.6150 C   0  0  0  0  0  0  0  0  0  0  0  0
  190.3210  177.7280  144.8360 O   0  0  0  0  0  0  0  0  0  0  0  0
  196.2760  175.9720  144.2730 C   0  0  0  0  0  1  0  0  0  0  0  0
  189.2720  171.8510  144.1180 C   0  0  0  0  0  3  0  0  0  0  0  0
  194.5750  175.7460  146.2340 C   0  0  2  0  0  3  0  0  0  0  0  0
  191.0840  174.9180  141.7600 C   0  0  0  0  0  2  0  0  0  0  0  0
  188.4290  176.4410  145.7490 O   0  0  0  0  0  0  0  0  0  0  0  0
  189.8650  176.8320  145.9540 S   0  0  0  0  0  0  0  0  0  0  0  0
  191.0920  177.4760  148.2250 C   0  0  0  0  0  0  0  0  0  0  0  0
  190.8670  175.3780  146.0540 C   0  0  2  0  0  3  0  0  0  0  0  0
  194.5820  175.4760  141.0050 N   0  0  0  0  0  1  0  0  0  0  0  0
  192.8350  174.4850  144.9740 C   0  0  2  0  0  3  0  0  0  0  0  0
  192.1540  176.6290  147.8640 O   0  0  0  0  0  0  0  0  0  0  0  0
  190.0470  177.6440  147.4700 N   0  0  0  0  0  0  0  0  0  0  0  0
  193.3090  175.7140  141.6600 C   0  0  2  0  0  3  0  0  0  0  0  0
  190.5840  173.8860  144.0140 C   0  0  0  0  0  0  0  0  0  0  0  0
  195.1310  175.1910  144.9130 C   0  0  1  0  0  3  0  0  0  0  0  0
  191.1820  178.2260  149.5040 C   0  0  0  0  0  1  0  0  0  0  0  0
  193.5450  176.0920  143.1260 C   0  0  0  0  0  2  0  0  0  0  0  0
  190.0100  172.8460  144.7570 C   0  0  0  0  0  3  0  0  0  0  0  0
  189.7030  172.8980  142.0160 N   0  0  0  0  0  0  0  0  0  0  0  0
  189.1270  171.8940  142.7310 C   0  0  0  0  0  3  0  0  0  0  0  0
  192.4680  174.5300  141.5310 N   0  0  0  0  0  2  0  0  0  0  0  0
  193.1770  175.2270  146.1980 C   0  0  2  0  0  3  0  0  0  0  0  0
  193.9410  174.8800  143.9860 C   0  0  2  0  0  3  0  0  0  0  0  0
  192.1060  175.7390  146.7840 C   0  0  2  0  0  3  0  0  0  0  0  0
  194.5900  177.2750  146.2520 C   0  0  0  0  0  1  0  0  0  0  0  0
  191.4050  174.9510  144.6840 C   0  0  1  0  0  3  0  0  0  0  0  0
  1 16  1  0  0  0  0
  2  8  2  0  0  0  0
  3 17  1  0  0  0  0
  4 20  1  0  0  0  0
  5 27  1  6  0  0  0
  6  1  1  0  0  0  0
  7  8  2  0  0  0  0
  8 14  1  0  0  0  0
  9 18  1  0  0  0  0
 10  8  1  6  0  0  0
 10 26  1  0  0  0  0
 11 15  1  0  0  0  0
 12 24  1  0  0  0  0
 13  9  1  0  0  0  0
 14  9  2  0  0  0  0
 15 19  1  0  0  0  0
 16 28  1  0  0  0  0
 16 20  2  0  0  0  0
 17  5  1  0  0  0  0
 19 25  1  0  0  0  0
 21  1  2  0  0  0  0
 21 22  1  0  0  0  0
 22  4  2  0  0  0  0
 23 15  1  0  0  0  0
 23  6  1  0  0  0  0
 24  5  1  0  0  0  0
 24 26  1  0  0  0  0
 25 17  1  0  0  0  0
 25 12  1  0  0  0  0
 26 13  1  0  0  0  0
 28 12  1  0  0  0  0
 28 10  1  0  0  0  0
M  END
>  <MODEL>
8

>  <REMARK>
 VINA RESULT:      -7.4      4.029      5.897
  Name = 
  0 active torsions:
  status: ('A' for Active; 'I' for Inactive)
                            x       y       z     vdW  Elec       q    Type
                         _______ _______ _______ _____ _____    ______ ____

>  <TORSDO>
F 0

$$$$
=
 OpenBabel11112417383D

 28 32  0  0  1  0  0  0  0  0999 V2000
  185.9300  176.9040  142.6590 C   0  0  0  0  0  0  0  0  0  0  0  0
  188.2180  173.1540  143.2860 O   0  0  0  0  0  0  0  0  0  0  0  0
  190.4410  177.4590  147.2100 C   0  0  0  0  0  1  0  0  0  0  0  0
  186.4550  177.9690  140.1460 C   0  0  0  0  0  3  0  0  0  0  0  0
  191.2900  176.6130  144.8960 C   0  0  2  0  0  3  0  0  0  0  0  0
  185.6230  176.4160  144.0370 C   0  0  0  0  0  2  0  0  0  0  0  0
  187.9500  173.3090  140.8420 O   0  0  0  0  0  0  0  0  0  0  0  0
  188.8690  173.5800  142.0000 S   0  0  0  0  0  0  0  0  0  0  0  0
  191.5050  173.2380  142.1290 C   0  0  0  0  0  0  0  0  0  0  0  0
  189.2880  175.2980  142.0350 C   0  0  2  0  0  3  0  0  0  0  0  0
  186.7310  177.6030  147.2750 N   0  0  0  0  0  1  0  0  0  0  0  0
  189.2140  177.1240  143.6150 C   0  0  2  0  0  3  0  0  0  0  0  0
  191.6180  174.5130  142.7090 O   0  0  0  0  0  0  0  0  0  0  0  0
  190.3590  172.7280  141.7850 N   0  0  0  0  0  0  0  0  0  0  0  0
  186.7040  176.7270  146.1170 C   0  0  2  0  0  3  0  0  0  0  0  0
  187.2210  176.7790  142.1120 C   0  0  0  0  0  0  0  0  0  0  0  0
  190.3550  177.5410  145.6880 C   0  0  1  0  0  3  0  0  0  0  0  0
  192.7370  172.4340  141.9300 C   0  0  0  0  0  1  0  0  0  0  0  0
  188.1300  176.2900  145.7680 C   0  0  0  0  0  2  0  0  0  0  0  0
  187.4750  177.3310  140.8500 C   0  0  0  0  0  3  0  0  0  0  0  0
  184.9550  177.5410  141.9530 N   0  0  0  0  0  0  0  0  0  0  0  0
  185.1870  178.0640  140.7200 C   0  0  0  0  0  3  0  0  0  0  0  0
  186.0560  177.4120  145.0050 N   0  0  0  0  0  2  0  0  0  0  0  0
  190.5210  176.4470  143.6270 C   0  0  2  0  0  3  0  0  0  0  0  0
  188.9390  177.4140  145.0960 C   0  0  2  0  0  3  0  0  0  0  0  0
  190.5630  175.4310  142.7800 C   0  0  2  0  0  3  0  0  0  0  0  0
  191.4760  175.2680  145.6000 C   0  0  0  0  0  1  0  0  0  0  0  0
  188.3170  176.1120  142.8960 C   0  0  1  0  0  3  0  0  0  0  0  0
  1  6  1  0  0  0  0
  4 22  2  0  0  0  0
  4 20  1  0  0  0  0
  5 27  1  1  0  0  0
  5 17  1  0  0  0  0
  6 23  1  0  0  0  0
  7  8  2  0  0  0  0
  8  2  2  0  0  0  0
  9 13  1  0  0  0  0
 10  8  1  1  0  0  0
 10 26  1  0  0  0  0
 10 28  1  0  0  0  0
 12 24  1  0  0  0  0
 12 25  1  0  0  0  0
 13 26  1  0  0  0  0
 14  8  1  0  0  0  0
 14  9  2  0  0  0  0
 15 11  1  0  0  0  0
 16  1  1  0  0  0  0
 16 28  1  0  0  0  0
 17  3  1  0  0  0  0
 18  9  1  0  0  0  0
 19 15  1  0  0  0  0
 20 16  2  0  0  0  0
 21  1  2  0  0  0  0
 22 21  1  0  0  0  0
 23 15  1  0  0  0  0
 24  5  1  0  0  0  0
 25 17  1  0  0  0  0
 25 19  1  0  0  0  0
 26 24  1  0  0  0  0
 28 12  1  0  0  0  0
M  END
>  <MODEL>
9

>  <REMARK>
 VINA RESULT:      -7.3      2.523      4.743
  Name = 
  0 active torsions:
  status: ('A' for Active; 'I' for Inactive)
                            x       y       z     vdW  Elec       q    Type
                         _______ _______ _______ _____ _____    ______ ____

>  <TORSDO>
F 0

$$$$
