=
 OpenBabel11112417033D

 31 35  0  0  1  0  0  0  0  0999 V2000
  184.8640  178.2890  146.8710 C   0  0  0  0  0  0  0  0  0  0  0  0
  187.4100  175.9250  145.3160 C   0  0  2  0  0  3  0  0  0  0  0  0
  187.4790  176.2820  143.8360 C   0  0  0  0  0  0  0  0  0  0  0  0
  186.4270  177.2540  141.8650 C   0  0  0  0  0  0  0  0  0  0  0  0
  186.8180  177.0230  146.1730 C   0  0  0  0  0  0  0  0  0  0  0  0
  185.6700  179.0990  147.6720 C   0  0  0  0  0  3  0  0  0  0  0  0
  186.4220  176.9870  143.2350 C   0  0  0  0  0  3  0  0  0  0  0  0
  189.6880  176.6320  146.1480 C   0  0  2  0  0  3  0  0  0  0  0  0
  183.5300  178.5070  146.8120 F   0  0  0  0  0  0  0  0  0  0  0  0
  189.6960  175.0480  143.5770 C   0  0  0  0  0  2  0  0  0  0  0  0
  185.3070  178.0150  141.2530 C   0  0  0  0  0  1  0  0  0  0  0  0
  189.0850  177.5440  147.2140 C   0  0  0  0  0  2  0  0  0  0  0  0
  188.7580  175.4390  145.8810 C   0  0  2  0  0  3  0  0  0  0  0  0
  185.4350  177.2530  146.1280 C   0  0  0  0  0  3  0  0  0  0  0  0
  187.4800  176.8020  141.0700 C   0  0  0  0  0  3  0  0  0  0  0  0
  187.6290  177.8400  146.9920 C   0  0  0  0  0  0  0  0  0  0  0  0
  187.0450  178.8680  147.7400 C   0  0  0  0  0  3  0  0  0  0  0  0
  189.3800  174.4150  144.9290 C   0  0  0  0  0  2  0  0  0  0  0  0
  188.5240  175.7950  143.0140 C   0  0  0  0  0  0  0  0  0  0  0  0
  188.5250  176.0770  141.6440 C   0  0  0  0  0  3  0  0  0  0  0  0
  192.1610  177.1270  144.8170 O   0  0  0  0  0  0  0  0  0  0  0  0
  192.1970  176.4560  145.8840 C   0  0  0  0  0  0  0  0  0  0  0  0
  190.9950  176.1670  146.5970 N   0  0  0  0  0  2  0  0  0  0  0  0
  195.7100  176.1240  144.6890 N   0  0  0  0  0  0  0  0  0  0  0  0
  194.4840  176.9810  146.5150 O   0  0  0  0  0  0  0  0  0  0  0  0
  193.0390  173.7580  145.5190 O   0  0  0  0  0  1  0  0  0  0  0  0
  196.2230  176.5240  143.3930 C   0  0  0  0  0  1  0  0  0  0  0  0
  194.9720  177.2680  145.2210 C   0  0  0  0  0  2  0  0  0  0  0  0
  194.0560  174.6860  145.7530 C   0  0  2  0  0  3  0  0  0  0  0  0
  193.5090  175.9560  146.4280 C   0  0  2  0  0  3  0  0  0  0  0  0
  194.7480  175.0550  144.4480 C   0  0  0  0  0  2  0  0  0  0  0  0
  1  6  1  0  0  0  0
  2  3  1  6  0  0  0
  2 13  1  0  0  0  0
  2  5  1  0  0  0  0
  4  7  2  0  0  0  0
  5 16  2  0  0  0  0
  6 17  2  0  0  0  0
  7  3  1  0  0  0  0
  8 23  1  1  0  0  0
  8 12  1  0  0  0  0
  9  1  1  0  0  0  0
 10 18  1  0  0  0  0
 11  4  1  0  0  0  0
 13 18  1  6  0  0  0
 13  8  1  0  0  0  0
 14  5  1  0  0  0  0
 14  1  2  0  0  0  0
 15 20  2  0  0  0  0
 15  4  1  0  0  0  0
 16 12  1  0  0  0  0
 16 17  1  0  0  0  0
 19 10  1  0  0  0  0
 19  3  2  0  0  0  0
 20 19  1  0  0  0  0
 21 22  2  0  0  0  0
 22 23  1  0  0  0  0
 24 28  1  0  0  0  0
 27 24  1  0  0  0  0
 28 25  1  0  0  0  0
 29 26  1  6  0  0  0
 29 30  1  0  0  0  0
 30 22  1  6  0  0  0
 30 25  1  0  0  0  0
 31 24  1  0  0  0  0
 31 29  1  0  0  0  0
M  END
>  <MODEL>
1

>  <REMARK>
 VINA RESULT:      -9.1      0.000      0.000
  Name = 
  2 active torsions:
  status: ('A' for Active; 'I' for Inactive)
    1  A    between atoms: C_5  and  C_30
    2  A    between atoms: C_10  and  N_16
                            x       y       z     vdW  Elec       q    Type
                         _______ _______ _______ _____ _____    ______ ____

>  <TORSDO>
F 2

$$$$
=
 OpenBabel11112417033D

 31 35  0  0  1  0  0  0  0  0999 V2000
  184.7830  177.8310  146.7030 C   0  0  0  0  0  0  0  0  0  0  0  0
  187.1470  175.9800  144.3640 C   0  0  2  0  0  3  0  0  0  0  0  0
  186.9170  176.5610  142.9740 C   0  0  0  0  0  0  0  0  0  0  0  0
  185.4560  177.7120  141.4000 C   0  0  0  0  0  0  0  0  0  0  0  0
  186.6530  176.8760  145.4790 C   0  0  0  0  0  0  0  0  0  0  0  0
  185.6670  178.5850  147.4750 C   0  0  0  0  0  3  0  0  0  0  0  0
  185.7230  177.2440  142.6880 C   0  0  0  0  0  3  0  0  0  0  0  0
  189.4880  176.7690  144.8960 C   0  0  2  0  0  3  0  0  0  0  0  0
  183.4490  177.9270  146.9120 F   0  0  0  0  0  0  0  0  0  0  0  0
  189.1250  175.5960  142.1370 C   0  0  0  0  0  2  0  0  0  0  0  0
  184.1930  178.4460  141.1250 C   0  0  0  0  0  1  0  0  0  0  0  0
  189.0330  177.4490  146.1850 C   0  0  0  0  0  2  0  0  0  0  0  0
  188.6060  175.5460  144.6000 C   0  0  2  0  0  3  0  0  0  0  0  0
  185.2740  176.9780  145.7120 C   0  0  0  0  0  3  0  0  0  0  0  0
  186.3700  177.4870  140.3730 C   0  0  0  0  0  3  0  0  0  0  0  0
  187.5460  177.6350  146.2690 C   0  0  0  0  0  0  0  0  0  0  0  0
  187.0430  178.4790  147.2660 C   0  0  0  0  0  3  0  0  0  0  0  0
  189.1080  174.7410  143.4000 C   0  0  0  0  0  2  0  0  0  0  0  0
  187.8210  176.3050  141.9150 C   0  0  0  0  0  0  0  0  0  0  0  0
  187.5500  176.7870  140.6300 C   0  0  0  0  0  3  0  0  0  0  0  0
  191.7120  178.1270  143.7370 O   0  0  0  0  0  0  0  0  0  0  0  0
  191.9510  177.0990  144.4260 C   0  0  0  0  0  0  0  0  0  0  0  0
  190.8840  176.3680  145.0300 N   0  0  0  0  0  2  0  0  0  0  0  0
  193.7290  173.8500  144.8290 N   0  0  0  0  0  0  0  0  0  0  0  0
  193.8350  175.8350  143.5570 O   0  0  0  0  0  0  0  0  0  0  0  0
  193.0300  176.6920  147.0330 O   0  0  0  0  0  1  0  0  0  0  0  0
  193.1300  172.5290  144.8030 C   0  0  0  0  0  1  0  0  0  0  0  0
  193.2520  174.5520  143.6390 C   0  0  0  0  0  2  0  0  0  0  0  0
  193.6500  175.9840  146.0010 C   0  0  2  0  0  3  0  0  0  0  0  0
  193.3670  176.6300  144.6320 C   0  0  2  0  0  3  0  0  0  0  0  0
  193.1800  174.5360  145.9930 C   0  0  0  0  0  2  0  0  0  0  0  0
  1  9  1  0  0  0  0
  1  6  1  0  0  0  0
  2  3  1  6  0  0  0
  2 13  1  0  0  0  0
  2  5  1  0  0  0  0
  4  7  2  0  0  0  0
  5 14  1  0  0  0  0
  5 16  2  0  0  0  0
  7  3  1  0  0  0  0
  8 23  1  1  0  0  0
  8 12  1  0  0  0  0
 10 18  1  0  0  0  0
 11  4  1  0  0  0  0
 12 16  1  0  0  0  0
 13 18  1  6  0  0  0
 13  8  1  0  0  0  0
 14  1  2  0  0  0  0
 15 20  2  0  0  0  0
 15  4  1  0  0  0  0
 16 17  1  0  0  0  0
 17  6  2  0  0  0  0
 19 10  1  0  0  0  0
 19  3  2  0  0  0  0
 20 19  1  0  0  0  0
 21 22  2  0  0  0  0
 22 23  1  0  0  0  0
 24 31  1  0  0  0  0
 25 28  1  0  0  0  0
 25 30  1  0  0  0  0
 27 24  1  0  0  0  0
 28 24  1  0  0  0  0
 29 26  1  1  0  0  0
 30 22  1  6  0  0  0
 30 29  1  0  0  0  0
 31 29  1  0  0  0  0
M  END
>  <MODEL>
2

>  <REMARK>
 VINA RESULT:      -8.9      1.380      1.915
  Name = 
  2 active torsions:
  status: ('A' for Active; 'I' for Inactive)
    1  A    between atoms: C_5  and  C_30
    2  A    between atoms: C_10  and  N_16
                            x       y       z     vdW  Elec       q    Type
                         _______ _______ _______ _____ _____    ______ ____

>  <TORSDO>
F 2

$$$$
=
 OpenBabel11112417033D

 31 35  0  0  1  0  0  0  0  0999 V2000
  186.2390  178.1500  140.8640 C   0  0  0  0  0  0  0  0  0  0  0  0
  188.5820  177.8920  143.8520 C   0  0  2  0  0  3  0  0  0  0  0  0
  187.6980  177.6630  145.0730 C   0  0  0  0  0  0  0  0  0  0  0  0
  185.5270  177.8810  146.1560 C   0  0  0  0  0  0  0  0  0  0  0  0
  187.8970  177.5670  142.5430 C   0  0  0  0  0  0  0  0  0  0  0  0
  186.5270  176.9780  140.1650 C   0  0  0  0  0  3  0  0  0  0  0  0
  186.3360  178.0060  145.0260 C   0  0  0  0  0  3  0  0  0  0  0  0
  189.8040  175.6900  143.6520 C   0  0  2  0  0  3  0  0  0  0  0  0
  185.2950  179.0020  140.4000 F   0  0  0  0  0  0  0  0  0  0  0  0
  189.6890  176.8450  146.4400 C   0  0  0  0  0  2  0  0  0  0  0  0
  184.0850  178.2340  146.0790 C   0  0  0  0  0  1  0  0  0  0  0  0
  189.3330  175.4880  142.2140 C   0  0  0  0  0  2  0  0  0  0  0  0
  189.9480  177.1880  143.9600 C   0  0  2  0  0  3  0  0  0  0  0  0
  186.9230  178.4450  142.0460 C   0  0  0  0  0  3  0  0  0  0  0  0
  186.0710  177.4310  147.3580 C   0  0  0  0  0  3  0  0  0  0  0  0
  188.1920  176.3840  141.8280 C   0  0  0  0  0  0  0  0  0  0  0  0
  187.5080  176.1040  140.6400 C   0  0  0  0  0  3  0  0  0  0  0  0
  190.5580  177.4450  145.3390 C   0  0  0  0  0  2  0  0  0  0  0  0
  188.2490  177.2430  146.3070 C   0  0  0  0  0  0  0  0  0  0  0  0
  187.4280  177.1120  147.4320 C   0  0  0  0  0  3  0  0  0  0  0  0
  190.2090  173.3670  145.2570 O   0  0  0  0  0  0  0  0  0  0  0  0
  191.2100  173.8420  144.6560 C   0  0  0  0  0  0  0  0  0  0  0  0
  191.0780  175.0070  143.8410 N   0  0  0  0  0  2  0  0  0  0  0  0
  194.7850  174.8710  144.4710 N   0  0  0  0  0  0  0  0  0  0  0  0
  193.3050  173.6860  145.8760 O   0  0  0  0  0  0  0  0  0  0  0  0
  192.5890  172.8110  142.3850 O   0  0  0  0  0  1  0  0  0  0  0  0
  195.2880  176.2130  144.2420 C   0  0  0  0  0  1  0  0  0  0  0  0
  193.8050  174.9670  145.5500 C   0  0  0  0  0  2  0  0  0  0  0  0
  193.3860  173.1390  143.4840 C   0  0  2  0  0  3  0  0  0  0  0  0
  192.5580  173.1850  144.7810 C   0  0  2  0  0  3  0  0  0  0  0  0
  194.0700  174.4810  143.2610 C   0  0  0  0  0  2  0  0  0  0  0  0
  1 14  1  0  0  0  0
  2  5  1  6  0  0  0
  2 13  1  0  0  0  0
  2  3  1  0  0  0  0
  3 19  1  0  0  0  0
  4 15  2  0  0  0  0
  6 17  1  0  0  0  0
  6  1  2  0  0  0  0
  7  3  2  0  0  0  0
  7  4  1  0  0  0  0
  8 23  1  6  0  0  0
  8 13  1  0  0  0  0
  9  1  1  0  0  0  0
 11  4  1  0  0  0  0
 12  8  1  0  0  0  0
 13 18  1  1  0  0  0
 14  5  2  0  0  0  0
 15 20  1  0  0  0  0
 16 12  1  0  0  0  0
 16  5  1  0  0  0  0
 17 16  2  0  0  0  0
 18 10  1  0  0  0  0
 19 10  1  0  0  0  0
 19 20  2  0  0  0  0
 22 21  2  0  0  0  0
 23 22  1  0  0  0  0
 24 28  1  0  0  0  0
 27 24  1  0  0  0  0
 28 25  1  0  0  0  0
 29 26  1  6  0  0  0
 29 30  1  0  0  0  0
 30 22  1  6  0  0  0
 30 25  1  0  0  0  0
 31 29  1  0  0  0  0
 31 24  1  0  0  0  0
M  END
>  <MODEL>
3

>  <REMARK>
 VINA RESULT:      -8.7      2.034      4.310
  Name = 
  2 active torsions:
  status: ('A' for Active; 'I' for Inactive)
    1  A    between atoms: C_5  and  C_30
    2  A    between atoms: C_10  and  N_16
                            x       y       z     vdW  Elec       q    Type
                         _______ _______ _______ _____ _____    ______ ____

>  <TORSDO>
F 2

$$$$
=
 OpenBabel11112417033D

 31 35  0  0  1  0  0  0  0  0999 V2000
  194.4070  176.5020  145.1610 C   0  0  0  0  0  0  0  0  0  0  0  0
  191.0140  176.9630  143.5010 C   0  0  2  0  0  3  0  0  0  0  0  0
  190.7860  175.7260  142.6400 C   0  0  0  0  0  0  0  0  0  0  0  0
  191.7030  173.8450  141.3920 C   0  0  0  0  0  0  0  0  0  0  0  0
  192.0640  176.7650  144.5730 C   0  0  0  0  0  0  0  0  0  0  0  0
  194.0550  176.3140  146.4990 C   0  0  0  0  0  3  0  0  0  0  0  0
  191.8780  174.9350  142.2460 C   0  0  0  0  0  3  0  0  0  0  0  0
  189.2620  176.6950  145.3020 C   0  0  2  0  0  3  0  0  0  0  0  0
  195.7090  176.4610  144.7910 F   0  0  0  0  0  0  0  0  0  0  0  0
  188.2880  176.2180  142.4830 C   0  0  0  0  0  2  0  0  0  0  0  0
  192.8710  173.0120  141.0020 C   0  0  0  0  0  1  0  0  0  0  0  0
  190.3040  176.7720  146.4150 C   0  0  0  0  0  2  0  0  0  0  0  0
  189.7100  177.5310  144.0940 C   0  0  2  0  0  3  0  0  0  0  0  0
  193.4170  176.7290  144.2040 C   0  0  0  0  0  3  0  0  0  0  0  0
  190.4340  173.5420  140.8990 C   0  0  0  0  0  3  0  0  0  0  0  0
  191.7120  176.5830  145.9290 C   0  0  0  0  0  0  0  0  0  0  0  0
  192.7130  176.3650  146.8820 C   0  0  0  0  0  3  0  0  0  0  0  0
  188.6370  177.6080  143.0060 C   0  0  0  0  0  2  0  0  0  0  0  0
  189.5090  175.4330  142.1040 C   0  0  0  0  0  0  0  0  0  0  0  0
  189.3410  174.3330  141.2560 C   0  0  0  0  0  3  0  0  0  0  0  0
  187.7480  175.4760  147.3890 O   0  0  0  0  0  0  0  0  0  0  0  0
  187.2780  176.5200  146.8610 C   0  0  0  0  0  0  0  0  0  0  0  0
  187.9820  177.1770  145.8070 N   0  0  0  0  0  2  0  0  0  0  0  0
  184.7230  178.9240  145.6070 N   0  0  0  0  0  0  0  0  0  0  0  0
  184.8860  176.7450  146.4980 O   0  0  0  0  0  0  0  0  0  0  0  0
  187.1660  178.9560  148.3370 O   0  0  0  0  0  1  0  0  0  0  0  0
  184.7460  179.6240  144.3360 C   0  0  0  0  0  1  0  0  0  0  0  0
  184.9490  177.5110  145.3130 C   0  0  0  0  0  2  0  0  0  0  0  0
  185.9980  178.6020  147.6570 C   0  0  2  0  0  3  0  0  0  0  0  0
  185.9720  177.0960  147.3390 C   0  0  2  0  0  3  0  0  0  0  0  0
  185.8710  179.4030  146.3690 C   0  0  0  0  0  2  0  0  0  0  0  0
  1  6  1  0  0  0  0
  2  3  1  1  0  0  0
  2 13  1  0  0  0  0
  2  5  1  0  0  0  0
  4  7  2  0  0  0  0
  5 16  2  0  0  0  0
  6 17  2  0  0  0  0
  7  3  1  0  0  0  0
  8 23  1  1  0  0  0
  8 12  1  0  0  0  0
  9  1  1  0  0  0  0
 10 18  1  0  0  0  0
 11  4  1  0  0  0  0
 13 18  1  6  0  0  0
 13  8  1  0  0  0  0
 14  5  1  0  0  0  0
 14  1  2  0  0  0  0
 15 20  2  0  0  0  0
 15  4  1  0  0  0  0
 16 12  1  0  0  0  0
 16 17  1  0  0  0  0
 19 10  1  0  0  0  0
 19  3  2  0  0  0  0
 20 19  1  0  0  0  0
 22 21  2  0  0  0  0
 23 22  1  0  0  0  0
 24 31  1  0  0  0  0
 25 30  1  0  0  0  0
 27 24  1  0  0  0  0
 28 24  1  0  0  0  0
 28 25  1  0  0  0  0
 29 26  1  6  0  0  0
 30 22  1  6  0  0  0
 30 29  1  0  0  0  0
 31 29  1  0  0  0  0
M  END
>  <MODEL>
4

>  <REMARK>
 VINA RESULT:      -8.5      3.737      7.129
  Name = 
  2 active torsions:
  status: ('A' for Active; 'I' for Inactive)
    1  A    between atoms: C_5  and  C_30
    2  A    between atoms: C_10  and  N_16
                            x       y       z     vdW  Elec       q    Type
                         _______ _______ _______ _____ _____    ______ ____

>  <TORSDO>
F 2

$$$$
=
 OpenBabel11112417033D

 31 35  0  0  1  0  0  0  0  0999 V2000
  190.6420  171.5060  142.9350 C   0  0  0  0  0  0  0  0  0  0  0  0
  189.6870  174.3660  145.2570 C   0  0  2  0  0  3  0  0  0  0  0  0
  190.9880  175.0610  145.6390 C   0  0  0  0  0  0  0  0  0  0  0  0
  193.4060  174.9690  145.9260 C   0  0  0  0  0  0  0  0  0  0  0  0
  189.8020  173.5180  144.0090 C   0  0  0  0  0  0  0  0  0  0  0  0
  190.1250  171.9370  141.7120 C   0  0  0  0  0  3  0  0  0  0  0  0
  192.2110  174.3820  145.5070 C   0  0  0  0  0  3  0  0  0  0  0  0
  188.5360  176.1180  143.8460 C   0  0  2  0  0  3  0  0  0  0  0  0
  191.3030  170.3270  143.0130 F   0  0  0  0  0  0  0  0  0  0  0  0
  189.7240  177.1300  146.4310 C   0  0  0  0  0  2  0  0  0  0  0  0
  194.6900  174.2380  145.7610 C   0  0  0  0  0  1  0  0  0  0  0  0
  188.4000  175.1640  142.6610 C   0  0  0  0  0  2  0  0  0  0  0  0
  188.4920  175.3350  145.1670 C   0  0  2  0  0  3  0  0  0  0  0  0
  190.4780  172.2910  144.0780 C   0  0  0  0  0  3  0  0  0  0  0  0
  193.3940  176.2370  146.5060 C   0  0  0  0  0  3  0  0  0  0  0  0
  189.2730  173.9470  142.7710 C   0  0  0  0  0  0  0  0  0  0  0  0
  189.4350  173.1480  141.6340 C   0  0  0  0  0  3  0  0  0  0  0  0
  188.4760  176.2530  146.3900 C   0  0  0  0  0  2  0  0  0  0  0  0
  190.9830  176.3320  146.2630 C   0  0  0  0  0  0  0  0  0  0  0  0
  192.1870  176.9160  146.6720 C   0  0  0  0  0  3  0  0  0  0  0  0
  188.3520  178.2830  141.9980 O   0  0  0  0  0  0  0  0  0  0  0  0
  187.4240  178.1560  142.8430 C   0  0  0  0  0  0  0  0  0  0  0  0
  187.4570  177.0980  143.8000 N   0  0  0  0  0  2  0  0  0  0  0  0
  184.4850  178.8790  145.0150 N   0  0  0  0  0  0  0  0  0  0  0  0
  186.2870  179.9860  143.9660 O   0  0  0  0  0  0  0  0  0  0  0  0
  184.9220  177.4830  141.6560 O   0  0  0  0  0  1  0  0  0  0  0  0
  184.1440  178.2130  146.2570 C   0  0  0  0  0  1  0  0  0  0  0  0
  185.8880  179.2750  145.1200 C   0  0  0  0  0  2  0  0  0  0  0  0
  184.8810  178.4670  142.6460 C   0  0  2  0  0  3  0  0  0  0  0  0
  186.2630  179.1130  142.8500 C   0  0  2  0  0  3  0  0  0  0  0  0
  184.3910  177.8750  143.9610 C   0  0  0  0  0  2  0  0  0  0  0  0
  1  9  1  0  0  0  0
  1 14  1  0  0  0  0
  2  5  1  6  0  0  0
  2  3  1  0  0  0  0
  3 19  1  0  0  0  0
  4 15  2  0  0  0  0
  5 14  2  0  0  0  0
  6  1  2  0  0  0  0
  7  3  2  0  0  0  0
  7  4  1  0  0  0  0
  8 23  1  1  0  0  0
  8 13  1  0  0  0  0
 11  4  1  0  0  0  0
 12 16  1  0  0  0  0
 12  8  1  0  0  0  0
 13  2  1  0  0  0  0
 13 18  1  1  0  0  0
 15 20  1  0  0  0  0
 16  5  1  0  0  0  0
 17  6  1  0  0  0  0
 17 16  2  0  0  0  0
 18 10  1  0  0  0  0
 19 10  1  0  0  0  0
 19 20  2  0  0  0  0
 21 22  2  0  0  0  0
 22 23  1  0  0  0  0
 24 28  1  0  0  0  0
 24 27  1  0  0  0  0
 25 28  1  0  0  0  0
 29 26  1  6  0  0  0
 29 30  1  0  0  0  0
 29 31  1  0  0  0  0
 30 22  1  1  0  0  0
 30 25  1  0  0  0  0
 31 24  1  0  0  0  0
M  END
>  <MODEL>
5

>  <REMARK>
 VINA RESULT:      -8.0      3.765      7.841
  Name = 
  2 active torsions:
  status: ('A' for Active; 'I' for Inactive)
    1  A    between atoms: C_5  and  C_30
    2  A    between atoms: C_10  and  N_16
                            x       y       z     vdW  Elec       q    Type
                         _______ _______ _______ _____ _____    ______ ____

>  <TORSDO>
F 2

$$$$
=
 OpenBabel11112417033D

 31 35  0  0  1  0  0  0  0  0999 V2000
  185.6320  178.2910  141.0630 C   0  0  0  0  0  0  0  0  0  0  0  0
  188.4520  178.0720  143.6100 C   0  0  2  0  0  3  0  0  0  0  0  0
  187.8170  177.5970  144.9120 C   0  0  0  0  0  0  0  0  0  0  0  0
  185.8460  177.3920  146.3280 C   0  0  0  0  0  0  0  0  0  0  0  0
  187.6050  177.7850  142.3890 C   0  0  0  0  0  0  0  0  0  0  0  0
  185.9450  177.2480  140.1900 C   0  0  0  0  0  3  0  0  0  0  0  0
  186.4340  177.7450  145.1130 C   0  0  0  0  0  3  0  0  0  0  0  0
  189.8900  176.0990  142.9610 C   0  0  2  0  0  3  0  0  0  0  0  0
  184.5250  179.0410  140.8530 F   0  0  0  0  0  0  0  0  0  0  0  0
  190.0940  176.9390  145.8540 C   0  0  0  0  0  2  0  0  0  0  0  0
  184.3780  177.5400  146.5130 C   0  0  0  0  0  1  0  0  0  0  0  0
  189.2160  175.9770  141.5960 C   0  0  0  0  0  2  0  0  0  0  0  0
  189.8940  177.5640  143.4240 C   0  0  2  0  0  3  0  0  0  0  0  0
  186.4600  178.5600  142.1550 C   0  0  0  0  0  3  0  0  0  0  0  0
  186.6340  176.9050  147.3700 C   0  0  0  0  0  3  0  0  0  0  0  0
  187.9240  176.7350  141.4980 C   0  0  0  0  0  0  0  0  0  0  0  0
  187.0930  176.4800  140.4020 C   0  0  0  0  0  3  0  0  0  0  0  0
  190.6860  177.7660  144.7170 C   0  0  0  0  0  2  0  0  0  0  0  0
  188.6140  177.1390  145.9890 C   0  0  0  0  0  0  0  0  0  0  0  0
  188.0130  176.7780  147.2000 C   0  0  0  0  0  3  0  0  0  0  0  0
  190.8250  173.6720  144.1300 O   0  0  0  0  0  0  0  0  0  0  0  0
  191.6540  174.3620  143.4770 C   0  0  0  0  0  0  0  0  0  0  0  0
  191.2530  175.5910  142.8710 N   0  0  0  0  0  2  0  0  0  0  0  0
  193.5600  171.1860  143.8740 N   0  0  0  0  0  0  0  0  0  0  0  0
  193.2160  172.9160  142.3060 O   0  0  0  0  0  0  0  0  0  0  0  0
  193.4890  174.3850  145.6570 O   0  0  0  0  0  1  0  0  0  0  0  0
  193.0200  169.8970  144.2630 C   0  0  0  0  0  1  0  0  0  0  0  0
  192.7220  171.6820  142.7850 C   0  0  0  0  0  2  0  0  0  0  0  0
  193.7830  173.4930  144.6240 C   0  0  2  0  0  3  0  0  0  0  0  0
  193.0770  173.8980  143.3180 C   0  0  2  0  0  3  0  0  0  0  0  0
  193.3740  172.0790  145.0130 C   0  0  0  0  0  2  0  0  0  0  0  0
  1 14  1  0  0  0  0
  2  5  1  6  0  0  0
  2  3  1  0  0  0  0
  3  7  2  0  0  0  0
  3 19  1  0  0  0  0
  4 11  1  0  0  0  0
  4 15  2  0  0  0  0
  6 17  1  0  0  0  0
  6  1  2  0  0  0  0
  7  4  1  0  0  0  0
  8 23  1  6  0  0  0
  8 13  1  0  0  0  0
  9  1  1  0  0  0  0
 10 19  1  0  0  0  0
 12  8  1  0  0  0  0
 13  2  1  0  0  0  0
 13 18  1  1  0  0  0
 14  5  2  0  0  0  0
 16 12  1  0  0  0  0
 16  5  1  0  0  0  0
 17 16  2  0  0  0  0
 18 10  1  0  0  0  0
 19 20  2  0  0  0  0
 20 15  1  0  0  0  0
 22 21  2  0  0  0  0
 23 22  1  0  0  0  0
 24 27  1  0  0  0  0
 24 31  1  0  0  0  0
 25 28  1  0  0  0  0
 25 30  1  0  0  0  0
 28 24  1  0  0  0  0
 29 31  1  0  0  0  0
 29 26  1  1  0  0  0
 30 22  1  1  0  0  0
 30 29  1  0  0  0  0
M  END
>  <MODEL>
6

>  <REMARK>
 VINA RESULT:      -7.9      2.523      4.791
  Name = 
  2 active torsions:
  status: ('A' for Active; 'I' for Inactive)
    1  A    between atoms: C_5  and  C_30
    2  A    between atoms: C_10  and  N_16
                            x       y       z     vdW  Elec       q    Type
                         _______ _______ _______ _____ _____    ______ ____

>  <TORSDO>
F 2

$$$$
=
 OpenBabel11112417033D

 31 35  0  0  1  0  0  0  0  0999 V2000
  186.0220  179.0390  142.8750 C   0  0  0  0  0  0  0  0  0  0  0  0
  189.0950  176.8630  143.4270 C   0  0  2  0  0  3  0  0  0  0  0  0
  188.8820  176.1480  144.7570 C   0  0  0  0  0  0  0  0  0  0  0  0
  187.8140  176.0720  146.9450 C   0  0  0  0  0  0  0  0  0  0  0  0
  187.8170  177.4020  142.8220 C   0  0  0  0  0  0  0  0  0  0  0  0
  185.4010  178.4010  141.8010 C   0  0  0  0  0  3  0  0  0  0  0  0
  187.9660  176.6630  145.6900 C   0  0  0  0  0  3  0  0  0  0  0  0
  188.9680  174.9610  141.7680 C   0  0  2  0  0  3  0  0  0  0  0  0
  185.4570  180.1380  143.4290 F   0  0  0  0  0  0  0  0  0  0  0  0
  190.6840  174.4330  144.1960 C   0  0  0  0  0  2  0  0  0  0  0  0
  186.8270  176.6230  147.9110 C   0  0  0  0  0  1  0  0  0  0  0  0
  187.8490  175.6400  140.9810 C   0  0  0  0  0  2  0  0  0  0  0  0
  189.8830  176.0160  142.4100 C   0  0  2  0  0  3  0  0  0  0  0  0
  187.2260  178.5440  143.3810 C   0  0  0  0  0  3  0  0  0  0  0  0
  188.5910  174.9690  147.2960 C   0  0  0  0  0  3  0  0  0  0  0  0
  187.1890  176.7630  141.7290 C   0  0  0  0  0  0  0  0  0  0  0  0
  185.9890  177.2730  141.2240 C   0  0  0  0  0  3  0  0  0  0  0  0
  191.1050  175.3940  143.0880 C   0  0  0  0  0  2  0  0  0  0  0  0
  189.6930  175.0520  145.1370 C   0  0  0  0  0  0  0  0  0  0  0  0
  189.5260  174.4610  146.3930 C   0  0  0  0  0  3  0  0  0  0  0  0
  189.0860  172.1150  141.9150 O   0  0  0  0  0  0  0  0  0  0  0  0
  189.7430  172.6800  140.9990 C   0  0  0  0  0  0  0  0  0  0  0  0
  189.7330  174.1020  140.8730 N   0  0  0  0  0  2  0  0  0  0  0  0
  192.4300  173.2770  138.4890 N   0  0  0  0  0  0  0  0  0  0  0  0
  191.9290  171.8680  140.3150 O   0  0  0  0  0  0  0  0  0  0  0  0
  188.8970  172.3300  138.3000 O   0  0  0  0  0  1  0  0  0  0  0  0
  193.0660  174.5460  138.1890 C   0  0  0  0  0  1  0  0  0  0  0  0
  192.4800  173.1130  139.9400 C   0  0  0  0  0  2  0  0  0  0  0  0
  190.2630  172.1650  138.5350 C   0  0  2  0  0  3  0  0  0  0  0  0
  190.5430  171.8640  140.0190 C   0  0  2  0  0  3  0  0  0  0  0  0
  191.0280  173.4110  138.1100 C   0  0  0  0  0  2  0  0  0  0  0  0
  1 14  1  0  0  0  0
  1  9  1  0  0  0  0
  2  5  1  6  0  0  0
  2  3  1  0  0  0  0
  3 19  2  0  0  0  0
  3  7  1  0  0  0  0
  4 15  1  0  0  0  0
  4 11  1  0  0  0  0
  5 14  2  0  0  0  0
  6  1  2  0  0  0  0
  7  4  2  0  0  0  0
  8 23  1  6  0  0  0
  8 13  1  0  0  0  0
 10 19  1  0  0  0  0
 12 16  1  0  0  0  0
 12  8  1  0  0  0  0
 13 18  1  1  0  0  0
 13  2  1  0  0  0  0
 16  5  1  0  0  0  0
 17 16  2  0  0  0  0
 17  6  1  0  0  0  0
 18 10  1  0  0  0  0
 19 20  1  0  0  0  0
 20 15  2  0  0  0  0
 22 21  2  0  0  0  0
 23 22  1  0  0  0  0
 24 28  1  0  0  0  0
 27 24  1  0  0  0  0
 28 25  1  0  0  0  0
 29 26  1  1  0  0  0
 29 30  1  0  0  0  0
 30 25  1  0  0  0  0
 30 22  1  1  0  0  0
 31 24  1  0  0  0  0
 31 29  1  0  0  0  0
M  END
>  <MODEL>
7

>  <REMARK>
 VINA RESULT:      -7.6      3.733      5.809
  Name = 
  2 active torsions:
  status: ('A' for Active; 'I' for Inactive)
    1  A    between atoms: C_5  and  C_30
    2  A    between atoms: C_10  and  N_16
                            x       y       z     vdW  Elec       q    Type
                         _______ _______ _______ _____ _____    ______ ____

>  <TORSDO>
F 2

$$$$
=
 OpenBabel11112417033D

 31 35  0  0  1  0  0  0  0  0999 V2000
  186.0770  177.0150  142.8080 C   0  0  0  0  0  0  0  0  0  0  0  0
  188.7260  174.2860  142.9490 C   0  0  2  0  0  3  0  0  0  0  0  0
  189.1720  174.0460  141.5110 C   0  0  0  0  0  0  0  0  0  0  0  0
  188.6970  174.1610  139.1240 C   0  0  0  0  0  0  0  0  0  0  0  0
  188.0350  175.6170  143.1510 C   0  0  0  0  0  0  0  0  0  0  0  0
  186.7300  178.0880  143.4160 C   0  0  0  0  0  3  0  0  0  0  0  0
  188.3460  174.4430  140.4460 C   0  0  0  0  0  3  0  0  0  0  0  0
  190.7900  175.3040  143.9910 C   0  0  2  0  0  3  0  0  0  0  0  0
  184.8160  177.1670  142.3410 F   0  0  0  0  0  0  0  0  0  0  0  0
  191.2830  172.8520  142.2990 C   0  0  0  0  0  2  0  0  0  0  0  0
  187.8160  174.6050  138.0120 C   0  0  0  0  0  1  0  0  0  0  0  0
  190.0250  176.5450  144.4450 C   0  0  0  0  0  2  0  0  0  0  0  0
  189.8590  174.0820  143.9720 C   0  0  2  0  0  3  0  0  0  0  0  0
  186.7250  175.7850  142.6790 C   0  0  0  0  0  3  0  0  0  0  0  0
  189.8690  173.4590  138.8490 C   0  0  0  0  0  3  0  0  0  0  0  0
  188.6910  176.7030  143.7740 C   0  0  0  0  0  0  0  0  0  0  0  0
  188.0290  177.9280  143.9070 C   0  0  0  0  0  3  0  0  0  0  0  0
  190.6070  172.7830  143.6650 C   0  0  0  0  0  2  0  0  0  0  0  0
  190.3400  173.3010  141.2230 C   0  0  0  0  0  0  0  0  0  0  0  0
  190.6880  173.0320  139.8950 C   0  0  0  0  0  3  0  0  0  0  0  0
  193.5440  175.4310  143.2600 O   0  0  0  0  0  0  0  0  0  0  0  0
  193.2710  175.1600  144.4610 C   0  0  0  0  0  0  0  0  0  0  0  0
  191.9120  175.0750  144.8920 N   0  0  0  0  0  2  0  0  0  0  0  0
  196.9650  174.6820  144.4070 N   0  0  0  0  0  0  0  0  0  0  0  0
  195.3160  175.9860  145.4800 O   0  0  0  0  0  0  0  0  0  0  0  0
  194.1030  172.5350  145.1940 O   0  0  0  0  0  1  0  0  0  0  0  0
  197.8210  174.6920  143.2360 C   0  0  0  0  0  1  0  0  0  0  0  0
  196.1440  175.8890  144.3390 C   0  0  0  0  0  2  0  0  0  0  0  0
  195.0450  173.5470  145.3870 C   0  0  2  0  0  3  0  0  0  0  0  0
  194.3720  174.9300  145.4610 C   0  0  2  0  0  3  0  0  0  0  0  0
  196.0740  173.5360  144.2650 C   0  0  0  0  0  2  0  0  0  0  0  0
  1  6  1  0  0  0  0
  2  3  1  6  0  0  0
  2  5  1  0  0  0  0
  2 13  1  0  0  0  0
  4  7  1  0  0  0  0
  5 16  2  0  0  0  0
  6 17  2  0  0  0  0
  7  3  2  0  0  0  0
  8 12  1  0  0  0  0
  8 23  1  1  0  0  0
  9  1  1  0  0  0  0
 10 18  1  0  0  0  0
 11  4  1  0  0  0  0
 13 18  1  6  0  0  0
 13  8  1  0  0  0  0
 14  1  2  0  0  0  0
 14  5  1  0  0  0  0
 15  4  2  0  0  0  0
 15 20  1  0  0  0  0
 16 17  1  0  0  0  0
 16 12  1  0  0  0  0
 19  3  1  0  0  0  0
 19 10  1  0  0  0  0
 20 19  2  0  0  0  0
 21 22  2  0  0  0  0
 22 23  1  0  0  0  0
 27 24  1  0  0  0  0
 28 24  1  0  0  0  0
 28 25  1  0  0  0  0
 29 26  1  6  0  0  0
 29 30  1  0  0  0  0
 30 22  1  6  0  0  0
 30 25  1  0  0  0  0
 31 24  1  0  0  0  0
 31 29  1  0  0  0  0
M  END
>  <MODEL>
8

>  <REMARK>
 VINA RESULT:      -7.4      2.387      3.353
  Name = 
  2 active torsions:
  status: ('A' for Active; 'I' for Inactive)
    1  A    between atoms: C_5  and  C_30
    2  A    between atoms: C_10  and  N_16
                            x       y       z     vdW  Elec       q    Type
                         _______ _______ _______ _____ _____    ______ ____

>  <TORSDO>
F 2

$$$$
=
 OpenBabel11112417033D

 31 35  0  0  1  0  0  0  0  0999 V2000
  186.4250  178.5420  142.2750 C   0  0  0  0  0  0  0  0  0  0  0  0
  189.5050  176.6040  143.3900 C   0  0  2  0  0  3  0  0  0  0  0  0
  189.1680  176.0110  144.7530 C   0  0  0  0  0  0  0  0  0  0  0  0
  187.8540  176.0870  146.8040 C   0  0  0  0  0  0  0  0  0  0  0  0
  188.2840  177.0100  142.5920 C   0  0  0  0  0  0  0  0  0  0  0  0
  185.9640  177.7700  141.2090 C   0  0  0  0  0  3  0  0  0  0  0  0
  188.1270  176.5610  145.5200 C   0  0  0  0  0  3  0  0  0  0  0  0
  189.6580  174.5470  141.9310 C   0  0  2  0  0  3  0  0  0  0  0  0
  185.7510  179.6560  142.6460 F   0  0  0  0  0  0  0  0  0  0  0  0
  191.0980  174.3530  144.5790 C   0  0  0  0  0  2  0  0  0  0  0  0
  186.7370  176.6730  147.5900 C   0  0  0  0  0  1  0  0  0  0  0  0
  188.6110  175.0830  140.9580 C   0  0  0  0  0  2  0  0  0  0  0  0
  190.4430  175.7080  142.5600 C   0  0  2  0  0  3  0  0  0  0  0  0
  187.5810  178.1660  142.9610 C   0  0  0  0  0  3  0  0  0  0  0  0
  188.6330  175.0680  147.3510 C   0  0  0  0  0  3  0  0  0  0  0  0
  187.8190  176.2340  141.5070 C   0  0  0  0  0  0  0  0  0  0  0  0
  186.6650  176.6260  140.8200 C   0  0  0  0  0  3  0  0  0  0  0  0
  191.6040  175.2240  143.4320 C   0  0  0  0  0  2  0  0  0  0  0  0
  189.9760  175.0040  145.3330 C   0  0  0  0  0  0  0  0  0  0  0  0
  189.6890  174.5280  146.6160 C   0  0  0  0  0  3  0  0  0  0  0  0
  190.0040  171.7720  142.4930 O   0  0  0  0  0  0  0  0  0  0  0  0
  190.6810  172.2660  141.5500 C   0  0  0  0  0  0  0  0  0  0  0  0
  190.5610  173.6500  141.2210 N   0  0  0  0  0  2  0  0  0  0  0  0
  192.4820  169.0350  141.9980 N   0  0  0  0  0  0  0  0  0  0  0  0
  191.0690  170.1310  140.4570 O   0  0  0  0  0  0  0  0  0  0  0  0
  193.5100  172.5430  141.7570 O   0  0  0  0  0  1  0  0  0  0  0  0
  192.4210  168.1660  143.1580 C   0  0  0  0  0  1  0  0  0  0  0  0
  191.1010  169.3300  141.6200 C   0  0  0  0  0  2  0  0  0  0  0  0
  193.0520  171.3020  141.3110 C   0  0  2  0  0  3  0  0  0  0  0  0
  191.6210  171.4020  140.7520 C   0  0  2  0  0  3  0  0  0  0  0  0
  193.0910  170.2840  142.4420 C   0  0  0  0  0  2  0  0  0  0  0  0
  1  9  1  0  0  0  0
  1 14  1  0  0  0  0
  2  5  1  6  0  0  0
  2  3  1  0  0  0  0
  3 19  2  0  0  0  0
  3  7  1  0  0  0  0
  4 15  1  0  0  0  0
  4 11  1  0  0  0  0
  5 14  2  0  0  0  0
  6  1  2  0  0  0  0
  7  4  2  0  0  0  0
  8 23  1  6  0  0  0
  8 13  1  0  0  0  0
 10 19  1  0  0  0  0
 12 16  1  0  0  0  0
 12  8  1  0  0  0  0
 13  2  1  0  0  0  0
 13 18  1  1  0  0  0
 16  5  1  0  0  0  0
 17  6  1  0  0  0  0
 17 16  2  0  0  0  0
 18 10  1  0  0  0  0
 19 20  1  0  0  0  0
 20 15  2  0  0  0  0
 22 21  2  0  0  0  0
 23 22  1  0  0  0  0
 24 31  1  0  0  0  0
 24 27  1  0  0  0  0
 25 30  1  0  0  0  0
 25 28  1  0  0  0  0
 28 24  1  0  0  0  0
 29 26  1  1  0  0  0
 29 31  1  0  0  0  0
 30 29  1  0  0  0  0
 30 22  1  1  0  0  0
M  END
>  <MODEL>
9

>  <REMARK>
 VINA RESULT:      -7.2      3.713      5.842
  Name = 
  2 active torsions:
  status: ('A' for Active; 'I' for Inactive)
    1  A    between atoms: C_5  and  C_30
    2  A    between atoms: C_10  and  N_16
                            x       y       z     vdW  Elec       q    Type
                         _______ _______ _______ _____ _____    ______ ____

>  <TORSDO>
F 2

$$$$
