=
 OpenBabel11112416193D

 30 35  0  0  1  0  0  0  0  0999 V2000
  186.7950  177.8370  143.8380 C   0  0  0  0  0  0  0  0  0  0  0  0
  184.9180  178.5250  145.3050 C   0  0  0  0  0  0  0  0  0  0  0  0
  189.1710  177.0560  147.2590 N   0  0  0  0  0  0  0  0  0  0  0  0
  188.2750  177.4590  143.6330 C   0  0  0  0  0  0  0  0  0  0  0  0
  185.9540  177.9670  142.5840 C   0  0  0  0  0  2  0  0  0  0  0  0
  187.7580  175.8220  140.4040 O   0  0  0  0  0  0  0  0  0  0  0  0
  190.8970  176.2340  142.8210 C   0  0  1  0  0  3  0  0  0  0  0  0
  187.6440  176.6220  141.3740 C   0  0  0  0  0  0  0  0  0  0  0  0
  191.1370  176.2850  144.2530 N   0  0  0  0  0  0  0  0  0  0  0  0
  190.2610  176.6520  146.6840 C   0  0  2  0  0  3  0  0  0  0  0  0
  186.7250  177.8020  141.2790 C   0  0  1  0  0  3  0  0  0  0  0  0
  188.4340  176.4540  142.5600 N   0  0  0  0  0  0  0  0  0  0  0  0
  184.4520  178.7280  146.5670 N   0  0  0  0  0  0  0  0  0  0  0  0
  192.4450  175.7760  144.6150 C   0  0  0  0  0  2  0  0  0  0  0  0
  192.0710  175.4750  142.2320 C   0  0  0  0  0  2  0  0  0  0  0  0
  184.0300  178.8220  144.2310 N   0  0  0  0  0  1  0  0  0  0  0  0
  188.2830  177.3520  146.1830 C   0  0  0  0  0  0  0  0  0  0  0  0
  185.2010  178.5070  147.6710 C   0  0  0  0  0  3  0  0  0  0  0  0
  186.2580  178.0610  145.0940 C   0  0  0  0  0  0  0  0  0  0  0  0
  188.9130  177.0780  144.9300 C   0  0  0  0  0  0  0  0  0  0  0  0
  191.4620  176.2420  147.4640 C   0  0  0  0  0  1  0  0  0  0  0  0
  190.1430  176.6720  145.2140 C   0  0  0  0  0  0  0  0  0  0  0  0
  193.1500  175.4770  143.3050 C   0  0  0  0  0  2  0  0  0  0  0  0
  189.3130  174.2540  143.2650 C   0  0  0  0  0  1  0  0  0  0  0  0
  186.5020  178.0500  147.5430 C   0  0  0  0  0  3  0  0  0  0  0  0
  187.0390  177.8220  146.2740 C   0  0  0  0  0  0  0  0  0  0  0  0
  189.5750  175.5340  142.4790 C   0  0  2  0  0  3  0  0  0  0  0  0
  185.8230  177.6510  140.2220 O   0  0  0  0  0  0  0  0  0  0  0  0
  183.4530  177.8280  140.1620 C   0  0  0  0  0  1  0  0  0  0  0  0
  184.7590  178.4990  140.5330 C   0  0  0  0  0  2  0  0  0  0  0  0
  1 19  1  0  0  0  0
  2 13  1  0  0  0  0
  4  1  2  0  0  0  0
  4 20  1  0  0  0  0
  5  1  1  0  0  0  0
  6  8  2  0  0  0  0
  7 15  1  6  0  0  0
  7  9  1  0  0  0  0
  8 12  1  0  0  0  0
  9 14  1  0  0  0  0
  9 22  1  0  0  0  0
 10  3  1  0  0  0  0
 10 21  1  6  0  0  0
 11 28  1  6  0  0  0
 11  8  1  0  0  0  0
 11  5  1  0  0  0  0
 12  4  1  0  0  0  0
 13 18  2  0  0  0  0
 15 23  1  0  0  0  0
 16  2  1  0  0  0  0
 17 26  1  0  0  0  0
 17  3  2  0  0  0  0
 19  2  2  0  0  0  0
 19 26  1  0  0  0  0
 20 22  2  0  0  0  0
 20 17  1  0  0  0  0
 22 10  1  0  0  0  0
 23 14  1  0  0  0  0
 25 18  1  0  0  0  0
 26 25  2  0  0  0  0
 27 12  1  0  0  0  0
 27  7  1  0  0  0  0
 27 24  1  1  0  0  0
 28 30  1  0  0  0  0
 29 30  1  0  0  0  0
M  END
>  <MODEL>
1

>  <REMARK>
 VINA RESULT:      -9.1      0.000      0.000
  Name = 
  2 active torsions:
  status: ('A' for Active; 'I' for Inactive)
    1  A    between atoms: C_11  and  O_28
    2  A    between atoms: O_28  and  C_30
                            x       y       z     vdW  Elec       q    Type
                         _______ _______ _______ _____ _____    ______ ____

>  <TORSDO>
F 2

$$$$
=
 OpenBabel11112416193D

 30 35  0  0  1  0  0  0  0  0999 V2000
  189.1690  175.2500  144.0740 C   0  0  0  0  0  0  0  0  0  0  0  0
  191.1780  174.7120  145.4250 C   0  0  0  0  0  0  0  0  0  0  0  0
  187.7620  177.7620  147.1830 N   0  0  0  0  0  0  0  0  0  0  0  0
  187.7650  175.8700  143.9370 C   0  0  0  0  0  0  0  0  0  0  0  0
  189.6830  174.4770  142.8760 C   0  0  0  0  0  2  0  0  0  0  0  0
  187.8330  176.0510  140.2860 O   0  0  0  0  0  0  0  0  0  0  0  0
  185.2730  177.3080  143.0660 C   0  0  1  0  0  3  0  0  0  0  0  0
  188.0200  175.6540  141.4700 C   0  0  0  0  0  0  0  0  0  0  0  0
  185.3450  177.8380  144.4170 N   0  0  0  0  0  0  0  0  0  0  0  0
  186.6570  178.1790  146.6480 C   0  0  2  0  0  3  0  0  0  0  0  0
  188.6850  174.3370  141.7320 C   0  0  1  0  0  3  0  0  0  0  0  0
  187.5470  176.4250  142.5840 N   0  0  0  0  0  0  0  0  0  0  0  0
  191.8670  174.8750  146.5860 N   0  0  0  0  0  0  0  0  0  0  0  0
  184.2530  178.7410  144.7180 C   0  0  0  0  0  2  0  0  0  0  0  0
  184.1430  178.0590  142.3880 C   0  0  0  0  0  2  0  0  0  0  0  0
  191.7480  173.8430  144.4500 N   0  0  0  0  0  1  0  0  0  0  0  0
  188.3310  176.8930  146.2060 C   0  0  0  0  0  0  0  0  0  0  0  0
  191.4250  175.6540  147.6000 C   0  0  0  0  0  3  0  0  0  0  0  0
  189.9220  175.3750  145.2290 C   0  0  0  0  0  0  0  0  0  0  0  0
  187.4980  176.8370  145.0460 C   0  0  0  0  0  0  0  0  0  0  0  0
  185.7410  179.1180  147.3530 C   0  0  0  0  0  1  0  0  0  0  0  0
  186.4460  177.5990  145.3080 C   0  0  0  0  0  0  0  0  0  0  0  0
  183.3390  178.7040  143.5070 C   0  0  0  0  0  2  0  0  0  0  0  0
  187.2250  178.8720  142.4600 C   0  0  0  0  0  1  0  0  0  0  0  0
  190.2230  176.3300  147.4770 C   0  0  0  0  0  3  0  0  0  0  0  0
  189.4680  176.2040  146.3080 C   0  0  0  0  0  0  0  0  0  0  0  0
  186.5870  177.4970  142.2970 C   0  0  2  0  0  3  0  0  0  0  0  0
  189.3460  173.8740  140.5910 O   0  0  0  0  0  0  0  0  0  0  0  0
  188.1900  172.6080  138.9430 C   0  0  0  0  0  1  0  0  0  0  0  0
  188.7860  172.6210  140.3350 C   0  0  0  0  0  2  0  0  0  0  0  0
  1 19  1  0  0  0  0
  2 13  1  0  0  0  0
  4  1  2  0  0  0  0
  4 20  1  0  0  0  0
  5  1  1  0  0  0  0
  6  8  2  0  0  0  0
  7 15  1  6  0  0  0
  7  9  1  0  0  0  0
  8 11  1  0  0  0  0
  8 12  1  0  0  0  0
  9 14  1  0  0  0  0
  9 22  1  0  0  0  0
 10  3  1  0  0  0  0
 10 21  1  1  0  0  0
 11 28  1  6  0  0  0
 11  5  1  0  0  0  0
 12  4  1  0  0  0  0
 13 18  2  0  0  0  0
 15 23  1  0  0  0  0
 16  2  1  0  0  0  0
 17 26  1  0  0  0  0
 17  3  2  0  0  0  0
 19  2  2  0  0  0  0
 19 26  1  0  0  0  0
 20 22  2  0  0  0  0
 20 17  1  0  0  0  0
 22 10  1  0  0  0  0
 23 14  1  0  0  0  0
 25 18  1  0  0  0  0
 26 25  2  0  0  0  0
 27 24  1  1  0  0  0
 27 12  1  0  0  0  0
 27  7  1  0  0  0  0
 29 30  1  0  0  0  0
 30 28  1  0  0  0  0
M  END
>  <MODEL>
2

>  <REMARK>
 VINA RESULT:      -8.2      1.775      5.552
  Name = 
  2 active torsions:
  status: ('A' for Active; 'I' for Inactive)
    1  A    between atoms: C_11  and  O_28
    2  A    between atoms: O_28  and  C_30
                            x       y       z     vdW  Elec       q    Type
                         _______ _______ _______ _____ _____    ______ ____

>  <TORSDO>
F 2

$$$$
=
 OpenBabel11112416193D

 30 35  0  0  1  0  0  0  0  0999 V2000
  188.8210  175.9760  145.4680 C   0  0  0  0  0  0  0  0  0  0  0  0
  186.8260  177.3870  145.8950 C   0  0  0  0  0  0  0  0  0  0  0  0
  187.5690  175.4340  141.4570 N   0  0  0  0  0  0  0  0  0  0  0  0
  189.6150  175.0010  144.5770 C   0  0  0  0  0  0  0  0  0  0  0  0
  189.3900  176.2430  146.8470 C   0  0  0  0  0  2  0  0  0  0  0  0
  192.8220  175.5630  146.2410 O   0  0  0  0  0  0  0  0  0  0  0  0
  191.7020  173.4890  143.0310 C   0  0  1  0  0  3  0  0  0  0  0  0
  191.5830  175.4230  146.0430 C   0  0  0  0  0  0  0  0  0  0  0  0
  190.7250  173.6240  141.9650 N   0  0  0  0  0  0  0  0  0  0  0  0
  188.5340  174.6860  141.0230 C   0  0  0  0  0  0  0  0  0  0  0  0
  190.6270  175.4220  147.1960 C   0  0  1  0  0  3  0  0  0  0  0  0
  191.0730  175.2010  144.7200 N   0  0  0  0  0  0  0  0  0  0  0  0
  185.6790  177.9390  145.4190 N   0  0  0  0  0  0  0  0  0  0  0  0
  191.1590  172.9990  140.7320 C   0  0  0  0  0  2  0  0  0  0  0  0
  192.9330  172.8780  142.3890 C   0  0  0  0  0  2  0  0  0  0  0  0
  187.1480  177.6370  147.2610 N   0  0  0  0  0  1  0  0  0  0  0  0
  187.8910  175.6840  142.8230 C   0  0  2  0  0  3  0  0  0  0  0  0
  185.2490  177.7600  144.1480 C   0  0  0  0  0  3  0  0  0  0  0  0
  187.6430  176.5700  145.0460 C   0  0  0  0  0  0  0  0  0  0  0  0
  189.1250  175.0480  143.1660 C   0  0  0  0  0  0  0  0  0  0  0  0
  188.5800  174.1870  139.6200 C   0  0  0  0  0  1  0  0  0  0  0  0
  189.5240  174.4030  142.0790 C   0  0  0  0  0  0  0  0  0  0  0  0
  192.4690  172.3060  141.0570 C   0  0  0  0  0  2  0  0  0  0  0  0
  192.2580  175.9790  142.6960 C   0  0  0  0  0  1  0  0  0  0  0  0
  185.9920  176.9880  143.2710 C   0  0  0  0  0  3  0  0  0  0  0  0
  187.1810  176.3940  143.7000 C   0  0  0  0  0  0  0  0  0  0  0  0
  192.0420  174.8360  143.6810 C   0  0  2  0  0  3  0  0  0  0  0  0
  191.2260  175.9480  148.3440 O   0  0  0  0  0  0  0  0  0  0  0  0
  191.5140  177.9850  149.5360 C   0  0  0  0  0  1  0  0  0  0  0  0
  190.9290  177.3120  148.3120 C   0  0  0  0  0  2  0  0  0  0  0  0
  1  5  1  0  0  0  0
  2 16  1  0  0  0  0
  4 12  1  0  0  0  0
  4  1  2  0  0  0  0
  5 11  1  0  0  0  0
  7 15  1  6  0  0  0
  7 27  1  0  0  0  0
  8  6  2  0  0  0  0
  8 11  1  0  0  0  0
  9 22  1  0  0  0  0
  9  7  1  0  0  0  0
 10  3  2  0  0  0  0
 10 22  1  0  0  0  0
 11 28  1  1  0  0  0
 12  8  1  0  0  0  0
 13  2  1  0  0  0  0
 14 23  1  0  0  0  0
 14  9  1  0  0  0  0
 17  3  1  1  0  0  0
 17 20  1  0  0  0  0
 17 26  1  0  0  0  0
 18 13  2  0  0  0  0
 19  1  1  0  0  0  0
 19  2  2  0  0  0  0
 20  4  1  0  0  0  0
 21 10  1  0  0  0  0
 22 20  2  0  0  0  0
 23 15  1  0  0  0  0
 25 26  2  0  0  0  0
 25 18  1  0  0  0  0
 26 19  1  0  0  0  0
 27 24  1  6  0  0  0
 27 12  1  0  0  0  0
 30 28  1  0  0  0  0
 30 29  1  0  0  0  0
M  END
>  <MODEL>
3

>  <REMARK>
 VINA RESULT:      -7.7      2.830      5.543
  Name = 
  2 active torsions:
  status: ('A' for Active; 'I' for Inactive)
    1  A    between atoms: C_11  and  O_28
    2  A    between atoms: O_28  and  C_30
                            x       y       z     vdW  Elec       q    Type
                         _______ _______ _______ _____ _____    ______ ____

>  <TORSDO>
F 2

$$$$
=
 OpenBabel11112416193D

 30 35  0  0  1  0  0  0  0  0999 V2000
  187.4340  177.1180  144.1800 C   0  0  0  0  0  0  0  0  0  0  0  0
  185.8030  178.0820  142.5800 C   0  0  0  0  0  0  0  0  0  0  0  0
  189.3840  175.1350  140.9830 N   0  0  0  0  0  0  0  0  0  0  0  0
  188.5760  176.1380  144.5120 C   0  0  2  0  0  3  0  0  0  0  0  0
  186.8650  177.9070  145.3420 C   0  0  0  0  0  2  0  0  0  0  0  0
  189.6670  177.9040  147.5220 O   0  0  0  0  0  0  0  0  0  0  0  0
  191.0630  174.7710  145.4990 C   0  0  1  0  0  3  0  0  0  0  0  0
  188.9330  177.4250  146.6140 C   0  0  0  0  0  0  0  0  0  0  0  0
  191.1450  174.3510  144.1110 N   0  0  0  0  0  0  0  0  0  0  0  0
  190.3330  174.5410  141.6370 C   0  0  0  0  0  0  0  0  0  0  0  0
  187.4420  177.5410  146.7050 C   0  0  1  0  0  3  0  0  0  0  0  0
  189.5060  176.7080  145.5110 N   0  0  0  0  0  0  0  0  0  0  0  0
  185.3650  178.1830  141.2960 N   0  0  0  0  0  0  0  0  0  0  0  0
  192.2950  173.5090  143.8520 C   0  0  0  0  0  2  0  0  0  0  0  0
  192.3530  174.3040  146.1480 C   0  0  0  0  0  2  0  0  0  0  0  0
  185.0680  178.7940  143.5730 N   0  0  0  0  0  1  0  0  0  0  0  0
  188.6500  175.8470  141.9770 C   0  0  0  0  0  0  0  0  0  0  0  0
  185.9590  177.5410  140.2640 C   0  0  0  0  0  3  0  0  0  0  0  0
  186.9380  177.2670  142.8950 C   0  0  0  0  0  0  0  0  0  0  0  0
  189.2390  175.6490  143.2650 C   0  0  0  0  0  0  0  0  0  0  0  0
  191.3380  173.6750  140.9610 C   0  0  0  0  0  1  0  0  0  0  0  0
  190.2610  174.8240  143.0830 C   0  0  0  0  0  0  0  0  0  0  0  0
  192.9470  173.2710  145.2010 C   0  0  0  0  0  2  0  0  0  0  0  0
  191.8150  177.1080  144.7280 C   0  0  0  0  0  1  0  0  0  0  0  0
  187.0660  176.7410  140.4950 C   0  0  0  0  0  3  0  0  0  0  0  0
  187.5640  176.5970  141.7920 C   0  0  0  0  0  0  0  0  0  0  0  0
  190.9060  176.2900  145.6380 C   0  0  2  0  0  3  0  0  0  0  0  0
  187.0710  178.5080  147.6430 O   0  0  0  0  0  0  0  0  0  0  0  0
  184.7030  178.2910  147.6380 C   0  0  0  0  0  1  0  0  0  0  0  0
  185.8990  179.0710  147.1340 C   0  0  0  0  0  2  0  0  0  0  0  0
  1  4  1  0  0  0  0
  1  5  1  0  0  0  0
  2 19  1  0  0  0  0
  2 16  1  0  0  0  0
  3 10  2  0  0  0  0
  3 17  1  0  0  0  0
  4 20  1  6  0  0  0
  4 12  1  0  0  0  0
  5 11  1  0  0  0  0
  7 27  1  0  0  0  0
  7 15  1  1  0  0  0
  8 11  1  0  0  0  0
  8  6  2  0  0  0  0
  9  7  1  0  0  0  0
 10 22  1  0  0  0  0
 11 28  1  1  0  0  0
 12 27  1  0  0  0  0
 12  8  1  0  0  0  0
 13  2  2  0  0  0  0
 14  9  1  0  0  0  0
 14 23  1  0  0  0  0
 17 20  1  0  0  0  0
 18 25  2  0  0  0  0
 18 13  1  0  0  0  0
 19  1  2  0  0  0  0
 21 10  1  0  0  0  0
 22 20  2  0  0  0  0
 22  9  1  0  0  0  0
 23 15  1  0  0  0  0
 25 26  1  0  0  0  0
 26 17  2  0  0  0  0
 26 19  1  0  0  0  0
 27 24  1  6  0  0  0
 30 29  1  0  0  0  0
 30 28  1  0  0  0  0
M  END
>  <MODEL>
4

>  <REMARK>
 VINA RESULT:      -7.6      2.475      4.842
  Name = 
  2 active torsions:
  status: ('A' for Active; 'I' for Inactive)
    1  A    between atoms: C_11  and  O_28
    2  A    between atoms: O_28  and  C_30
                            x       y       z     vdW  Elec       q    Type
                         _______ _______ _______ _____ _____    ______ ____

>  <TORSDO>
F 2

$$$$
=
 OpenBabel11112416193D

 30 35  0  0  1  0  0  0  0  0999 V2000
  187.8570  176.2580  143.3170 C   0  0  0  0  0  0  0  0  0  0  0  0
  185.7530  177.5270  143.6510 C   0  0  0  0  0  0  0  0  0  0  0  0
  189.2170  177.5260  147.1240 N   0  0  0  0  0  0  0  0  0  0  0  0
  189.2960  175.9020  143.7380 C   0  0  0  0  0  0  0  0  0  0  0  0
  187.3710  175.6630  142.0110 C   0  0  0  0  0  2  0  0  0  0  0  0
  189.4360  172.7790  141.8400 O   0  0  0  0  0  0  0  0  0  0  0  0
  191.9000  174.5620  144.4120 C   0  0  1  0  0  3  0  0  0  0  0  0
  189.1650  173.9650  142.1780 C   0  0  0  0  0  0  0  0  0  0  0  0
  191.7810  175.3760  145.6090 N   0  0  0  0  0  0  0  0  0  0  0  0
  190.3690  176.9320  147.1570 C   0  0  2  0  0  3  0  0  0  0  0  0
  188.4220  174.8690  141.2420 C   0  0  1  0  0  3  0  0  0  0  0  0
  189.6150  174.4890  143.4360 N   0  0  0  0  0  0  0  0  0  0  0  0
  185.0110  178.3450  144.4450 N   0  0  0  0  0  0  0  0  0  0  0  0
  192.9000  175.2000  146.5130 C   0  0  0  0  0  2  0  0  0  0  0  0
  193.1020  173.6650  144.6400 C   0  0  0  0  0  2  0  0  0  0  0  0
  185.1940  177.1660  142.3910 N   0  0  0  0  0  1  0  0  0  0  0  0
  188.6590  177.1630  145.8640 C   0  0  0  0  0  0  0  0  0  0  0  0
  185.4350  178.7790  145.6540 C   0  0  0  0  0  3  0  0  0  0  0  0
  187.0490  177.0870  144.0770 C   0  0  0  0  0  0  0  0  0  0  0  0
  189.5500  176.2970  145.1570 C   0  0  0  0  0  0  0  0  0  0  0  0
  191.2910  177.0570  148.3200 C   0  0  0  0  0  1  0  0  0  0  0  0
  190.6230  176.1650  145.9240 C   0  0  0  0  0  0  0  0  0  0  0  0
  193.8750  174.2870  145.7930 C   0  0  0  0  0  2  0  0  0  0  0  0
  190.0660  173.0440  145.3880 C   0  0  0  0  0  1  0  0  0  0  0  0
  186.6750  178.3880  146.1320 C   0  0  0  0  0  3  0  0  0  0  0  0
  187.4840  177.5490  145.3630 C   0  0  0  0  0  0  0  0  0  0  0  0
  190.6420  173.7240  144.1520 C   0  0  2  0  0  3  0  0  0  0  0  0
  187.8010  174.1370  140.2260 O   0  0  0  0  0  0  0  0  0  0  0  0
  188.6120  173.1400  138.2250 C   0  0  0  0  0  1  0  0  0  0  0  0
  188.5660  174.3860  139.0850 C   0  0  0  0  0  2  0  0  0  0  0  0
  1  4  2  0  0  0  0
  1 19  1  0  0  0  0
  2 19  2  0  0  0  0
  2 13  1  0  0  0  0
  3 10  1  0  0  0  0
  4 20  1  0  0  0  0
  5  1  1  0  0  0  0
  6  8  2  0  0  0  0
  7 15  1  1  0  0  0
  7  9  1  0  0  0  0
  8 12  1  0  0  0  0
  9 22  1  0  0  0  0
  9 14  1  0  0  0  0
 10 21  1  6  0  0  0
 11 28  1  6  0  0  0
 11  5  1  0  0  0  0
 11  8  1  0  0  0  0
 12  4  1  0  0  0  0
 12 27  1  0  0  0  0
 13 18  2  0  0  0  0
 15 23  1  0  0  0  0
 16  2  1  0  0  0  0
 17  3  2  0  0  0  0
 18 25  1  0  0  0  0
 19 26  1  0  0  0  0
 20 17  1  0  0  0  0
 20 22  2  0  0  0  0
 22 10  1  0  0  0  0
 23 14  1  0  0  0  0
 26 17  1  0  0  0  0
 26 25  2  0  0  0  0
 27  7  1  0  0  0  0
 27 24  1  1  0  0  0
 29 30  1  0  0  0  0
 30 28  1  0  0  0  0
M  END
>  <MODEL>
5

>  <REMARK>
 VINA RESULT:      -7.6      1.931      2.802
  Name = 
  2 active torsions:
  status: ('A' for Active; 'I' for Inactive)
    1  A    between atoms: C_11  and  O_28
    2  A    between atoms: O_28  and  C_30
                            x       y       z     vdW  Elec       q    Type
                         _______ _______ _______ _____ _____    ______ ____

>  <TORSDO>
F 2

$$$$
=
 OpenBabel11112416193D

 30 35  0  0  1  0  0  0  0  0999 V2000
  188.4610  175.7390  144.0500 C   0  0  0  0  0  0  0  0  0  0  0  0
  187.0790  177.7840  144.2890 C   0  0  0  0  0  0  0  0  0  0  0  0
  187.5310  175.6040  139.9180 N   0  0  0  0  0  0  0  0  0  0  0  0
  188.9380  174.5240  143.2300 C   0  0  0  0  0  0  0  0  0  0  0  0
  188.9390  175.8100  145.4860 C   0  0  0  0  0  2  0  0  0  0  0  0
  191.9360  173.9220  145.2350 O   0  0  0  0  0  0  0  0  0  0  0  0
  190.4870  172.3270  141.8860 C   0  0  1  0  0  3  0  0  0  0  0  0
  190.7580  174.2360  144.9040 C   0  0  0  0  0  0  0  0  0  0  0  0
  189.7450  172.7850  140.7240 N   0  0  0  0  0  0  0  0  0  0  0  0
  188.2010  174.5480  139.5750 C   0  0  0  0  0  0  0  0  0  0  0  0
  189.7500  174.6050  145.9490 C   0  0  1  0  0  3  0  0  0  0  0  0
  190.3460  174.1860  143.5310 N   0  0  0  0  0  0  0  0  0  0  0  0
  186.2670  178.7040  143.7040 N   0  0  0  0  0  0  0  0  0  0  0  0
  190.0510  172.0190  139.5320 C   0  0  0  0  0  2  0  0  0  0  0  0
  191.4740  171.3000  141.3660 C   0  0  0  0  0  2  0  0  0  0  0  0
  187.3230  177.9300  145.6860 N   0  0  0  0  0  1  0  0  0  0  0  0
  187.7750  175.7480  141.3150 C   0  0  2  0  0  3  0  0  0  0  0  0
  185.9390  178.6670  142.3920 C   0  0  0  0  0  3  0  0  0  0  0  0
  187.6300  176.7100  143.5160 C   0  0  0  0  0  0  0  0  0  0  0  0
  188.6510  174.7170  141.7750 C   0  0  0  0  0  0  0  0  0  0  0  0
  188.2110  174.0370  138.1760 C   0  0  0  0  0  1  0  0  0  0  0  0
  188.9030  173.9480  140.7240 C   0  0  0  0  0  0  0  0  0  0  0  0
  190.9790  170.9060  139.9820 C   0  0  0  0  0  2  0  0  0  0  0  0
  191.9390  174.4400  141.6590 C   0  0  0  0  0  1  0  0  0  0  0  0
  186.4410  177.6610  141.5830 C   0  0  0  0  0  3  0  0  0  0  0  0
  187.2820  176.6860  142.1250 C   0  0  0  0  0  0  0  0  0  0  0  0
  191.2210  173.4730  142.5940 C   0  0  2  0  0  3  0  0  0  0  0  0
  190.3730  174.9020  147.1640 O   0  0  0  0  0  0  0  0  0  0  0  0
  191.5530  176.7880  148.0030 C   0  0  0  0  0  1  0  0  0  0  0  0
  190.3290  176.2940  147.2600 C   0  0  0  0  0  2  0  0  0  0  0  0
  1  5  1  0  0  0  0
  2 16  1  0  0  0  0
  4 12  1  0  0  0  0
  4  1  2  0  0  0  0
  5 11  1  0  0  0  0
  7 15  1  6  0  0  0
  7 27  1  0  0  0  0
  8  6  2  0  0  0  0
  8 11  1  0  0  0  0
  9  7  1  0  0  0  0
 10  3  2  0  0  0  0
 10 22  1  0  0  0  0
 11 28  1  1  0  0  0
 12  8  1  0  0  0  0
 13  2  1  0  0  0  0
 14 23  1  0  0  0  0
 14  9  1  0  0  0  0
 17  3  1  1  0  0  0
 17 20  1  0  0  0  0
 17 26  1  0  0  0  0
 18 13  2  0  0  0  0
 19  1  1  0  0  0  0
 19  2  2  0  0  0  0
 20  4  1  0  0  0  0
 21 10  1  0  0  0  0
 22  9  1  0  0  0  0
 22 20  2  0  0  0  0
 23 15  1  0  0  0  0
 25 26  2  0  0  0  0
 25 18  1  0  0  0  0
 26 19  1  0  0  0  0
 27 24  1  6  0  0  0
 27 12  1  0  0  0  0
 28 30  1  0  0  0  0
 30 29  1  0  0  0  0
M  END
>  <MODEL>
6

>  <REMARK>
 VINA RESULT:      -7.3      2.995      5.828
  Name = 
  2 active torsions:
  status: ('A' for Active; 'I' for Inactive)
    1  A    between atoms: C_11  and  O_28
    2  A    between atoms: O_28  and  C_30
                            x       y       z     vdW  Elec       q    Type
                         _______ _______ _______ _____ _____    ______ ____

>  <TORSDO>
F 2

$$$$
=
 OpenBabel11112416193D

 30 35  0  0  1  0  0  0  0  0999 V2000
  188.4980  175.7060  141.6850 C   0  0  0  0  0  0  0  0  0  0  0  0
  186.5970  177.2610  141.3400 C   0  0  0  0  0  0  0  0  0  0  0  0
  189.1740  177.3930  145.5120 N   0  0  0  0  0  0  0  0  0  0  0  0
  189.7350  175.2470  142.4800 C   0  0  2  0  0  3  0  0  0  0  0  0
  188.2210  174.9720  140.3870 C   0  0  0  0  0  2  0  0  0  0  0  0
  189.7960  171.8670  141.0870 O   0  0  0  0  0  0  0  0  0  0  0  0
  191.8860  173.7230  143.9230 C   0  0  1  0  0  3  0  0  0  0  0  0
  189.6470  173.1160  141.1950 C   0  0  0  0  0  0  0  0  0  0  0  0
  191.6370  174.7270  144.9430 N   0  0  0  0  0  0  0  0  0  0  0  0
  190.1830  176.6740  145.8950 C   0  0  0  0  0  0  0  0  0  0  0  0
  189.2770  173.9420  140.0000 C   0  0  1  0  0  3  0  0  0  0  0  0
  189.8870  173.7760  142.4460 N   0  0  0  0  0  0  0  0  0  0  0  0
  185.8370  178.2810  141.8220 N   0  0  0  0  0  0  0  0  0  0  0  0
  192.4890  174.5630  146.1030 C   0  0  0  0  0  2  0  0  0  0  0  0
  192.8520  172.7340  144.5460 C   0  0  0  0  0  2  0  0  0  0  0  0
  186.2770  176.7730  140.0400 N   0  0  0  0  0  1  0  0  0  0  0  0
  188.8550  176.9030  144.2120 C   0  0  0  0  0  0  0  0  0  0  0  0
  186.0500  178.8490  143.0310 C   0  0  0  0  0  3  0  0  0  0  0  0
  187.6830  176.7390  142.1160 C   0  0  0  0  0  0  0  0  0  0  0  0
  189.7320  175.8320  143.8560 C   0  0  0  0  0  0  0  0  0  0  0  0
  190.8360  176.8710  147.2190 C   0  0  0  0  0  1  0  0  0  0  0  0
  190.5770  175.6930  144.8680 C   0  0  0  0  0  0  0  0  0  0  0  0
  193.4430  173.4330  145.7610 C   0  0  0  0  0  2  0  0  0  0  0  0
  189.6670  172.6200  144.6180 C   0  0  0  0  0  1  0  0  0  0  0  0
  187.0780  178.3900  143.8380 C   0  0  0  0  0  3  0  0  0  0  0  0
  187.8940  177.3450  143.3990 C   0  0  0  0  0  0  0  0  0  0  0  0
  190.5990  173.0160  143.4790 C   0  0  2  0  0  3  0  0  0  0  0  0
  188.7870  173.1380  138.9680 O   0  0  0  0  0  0  0  0  0  0  0  0
  189.4090  174.1860  136.9260 C   0  0  0  0  0  1  0  0  0  0  0  0
  188.3450  174.0350  137.9930 C   0  0  0  0  0  2  0  0  0  0  0  0
  1 19  2  0  0  0  0
  2 13  2  0  0  0  0
  2 19  1  0  0  0  0
  3 10  2  0  0  0  0
  4  1  1  1  0  0  0
  4 20  1  0  0  0  0
  5  1  1  0  0  0  0
  6  8  2  0  0  0  0
  7 15  1  1  0  0  0
  7  9  1  0  0  0  0
  8 12  1  0  0  0  0
  9 14  1  0  0  0  0
 10 21  1  0  0  0  0
 11 28  1  6  0  0  0
 11  5  1  0  0  0  0
 11  8  1  0  0  0  0
 12  4  1  0  0  0  0
 12 27  1  0  0  0  0
 13 18  1  0  0  0  0
 15 23  1  0  0  0  0
 16  2  1  0  0  0  0
 17  3  1  0  0  0  0
 18 25  2  0  0  0  0
 19 26  1  0  0  0  0
 20 17  1  0  0  0  0
 20 22  2  0  0  0  0
 22  9  1  0  0  0  0
 22 10  1  0  0  0  0
 23 14  1  0  0  0  0
 26 25  1  0  0  0  0
 26 17  2  0  0  0  0
 27  7  1  0  0  0  0
 27 24  1  1  0  0  0
 29 30  1  0  0  0  0
 30 28  1  0  0  0  0
M  END
>  <MODEL>
7

>  <REMARK>
 VINA RESULT:      -7.2      2.470      3.800
  Name = 
  2 active torsions:
  status: ('A' for Active; 'I' for Inactive)
    1  A    between atoms: C_11  and  O_28
    2  A    between atoms: O_28  and  C_30
                            x       y       z     vdW  Elec       q    Type
                         _______ _______ _______ _____ _____    ______ ____

>  <TORSDO>
F 2

$$$$
=
 OpenBabel11112416193D

 30 35  0  0  1  0  0  0  0  0999 V2000
  189.3860  176.5620  144.6280 C   0  0  0  0  0  0  0  0  0  0  0  0
  190.2950  176.8820  146.9140 C   0  0  0  0  0  0  0  0  0  0  0  0
  192.2610  173.5320  143.9180 N   0  0  0  0  0  0  0  0  0  0  0  0
  189.4810  175.9590  143.2140 C   0  0  0  0  0  0  0  0  0  0  0  0
  188.2520  177.5380  144.8690 C   0  0  0  0  0  2  0  0  0  0  0  0
  185.9420  176.4160  142.4170 O   0  0  0  0  0  0  0  0  0  0  0  0
  188.9900  174.6640  140.5460 C   0  0  1  0  0  3  0  0  0  0  0  0
  187.0980  176.6030  142.8880 C   0  0  0  0  0  0  0  0  0  0  0  0
  190.1740  173.9080  140.9180 N   0  0  0  0  0  0  0  0  0  0  0  0
  191.9390  173.2010  142.7060 C   0  0  0  0  0  0  0  0  0  0  0  0
  187.4170  177.8630  143.6350 C   0  0  1  0  0  3  0  0  0  0  0  0
  188.1430  175.6450  142.6680 N   0  0  0  0  0  0  0  0  0  0  0  0
  191.2150  176.5290  147.8510 N   0  0  0  0  0  0  0  0  0  0  0  0
  190.5650  172.9540  139.9010 C   0  0  0  0  0  2  0  0  0  0  0  0
  188.4800  174.0290  139.2670 C   0  0  0  0  0  2  0  0  0  0  0  0
  189.3770  177.9150  147.2640 N   0  0  0  0  0  1  0  0  0  0  0  0
  191.3410  174.5640  144.2670 C   0  0  2  0  0  3  0  0  0  0  0  0
  192.1550  175.5800  147.6370 C   0  0  0  0  0  3  0  0  0  0  0  0
  190.2910  176.2480  145.6280 C   0  0  0  0  0  0  0  0  0  0  0  0
  190.4390  174.8110  143.1870 C   0  0  0  0  0  0  0  0  0  0  0  0
  192.6680  172.1420  141.9550 C   0  0  0  0  0  1  0  0  0  0  0  0
  190.8070  174.0020  142.2040 C   0  0  0  0  0  0  0  0  0  0  0  0
  189.6290  173.1890  138.7300 C   0  0  0  0  0  2  0  0  0  0  0  0
  187.6810  173.2530  142.2540 C   0  0  0  0  0  1  0  0  0  0  0  0
  192.2060  174.9200  146.4200 C   0  0  0  0  0  3  0  0  0  0  0  0
  191.2880  175.2390  145.4160 C   0  0  0  0  0  0  0  0  0  0  0  0
  187.9120  174.6270  141.6360 C   0  0  2  0  0  3  0  0  0  0  0  0
  186.2500  178.5250  144.0230 O   0  0  0  0  0  0  0  0  0  0  0  0
  184.7010  178.2710  145.8090 C   0  0  0  0  0  1  0  0  0  0  0  0
  186.1590  178.3160  145.4000 C   0  0  0  0  0  2  0  0  0  0  0  0
  1  5  1  0  0  0  0
  1 19  1  0  0  0  0
  2 16  1  0  0  0  0
  2 13  1  0  0  0  0
  3 17  1  0  0  0  0
  4  1  2  0  0  0  0
  6  8  2  0  0  0  0
  7 15  1  6  0  0  0
  7  9  1  0  0  0  0
  7 27  1  0  0  0  0
  8 11  1  0  0  0  0
  9 22  1  0  0  0  0
 10  3  2  0  0  0  0
 11 28  1  1  0  0  0
 11  5  1  0  0  0  0
 12  8  1  0  0  0  0
 12  4  1  0  0  0  0
 14  9  1  0  0  0  0
 17 20  1  6  0  0  0
 17 26  1  0  0  0  0
 18 13  2  0  0  0  0
 19  2  2  0  0  0  0
 20  4  1  0  0  0  0
 21 10  1  0  0  0  0
 22 10  1  0  0  0  0
 22 20  2  0  0  0  0
 23 15  1  0  0  0  0
 23 14  1  0  0  0  0
 25 18  1  0  0  0  0
 26 19  1  0  0  0  0
 26 25  2  0  0  0  0
 27 24  1  1  0  0  0
 27 12  1  0  0  0  0
 28 30  1  0  0  0  0
 30 29  1  0  0  0  0
M  END
>  <MODEL>
8

>  <REMARK>
 VINA RESULT:      -7.2      2.294      4.762
  Name = 
  2 active torsions:
  status: ('A' for Active; 'I' for Inactive)
    1  A    between atoms: C_11  and  O_28
    2  A    between atoms: O_28  and  C_30
                            x       y       z     vdW  Elec       q    Type
                         _______ _______ _______ _____ _____    ______ ____

>  <TORSDO>
F 2

$$$$
=
 OpenBabel11112416193D

 30 35  0  0  1  0  0  0  0  0999 V2000
  189.0300  175.5120  143.0260 C   0  0  0  0  0  0  0  0  0  0  0  0
  187.0300  176.5090  144.1020 C   0  0  0  0  0  0  0  0  0  0  0  0
  191.4060  176.7590  146.3050 N   0  0  0  0  0  0  0  0  0  0  0  0
  190.5550  175.3080  142.9460 C   0  0  0  0  0  0  0  0  0  0  0  0
  188.2110  174.9220  141.8950 C   0  0  0  0  0  2  0  0  0  0  0  0
  190.3830  172.3120  140.8570 O   0  0  0  0  0  0  0  0  0  0  0  0
  193.3550  174.2540  142.6620 C   0  0  1  0  0  3  0  0  0  0  0  0
  190.1210  173.4420  141.3570 C   0  0  0  0  0  0  0  0  0  0  0  0
  193.5470  174.9940  143.8970 N   0  0  0  0  0  0  0  0  0  0  0  0
  192.5600  176.3040  145.9280 C   0  0  2  0  0  3  0  0  0  0  0  0
  189.0330  174.2920  140.7750 C   0  0  1  0  0  3  0  0  0  0  0  0
  190.8960  173.9580  142.4480 N   0  0  0  0  0  0  0  0  0  0  0  0
  186.5050  177.1980  145.1510 N   0  0  0  0  0  0  0  0  0  0  0  0
  194.9080  174.9110  144.3890 C   0  0  0  0  0  2  0  0  0  0  0  0
  194.6480  173.4950  142.4310 C   0  0  0  0  0  2  0  0  0  0  0  0
  186.1350  176.1410  143.0560 N   0  0  0  0  0  1  0  0  0  0  0  0
  190.5120  176.3900  145.2580 C   0  0  0  0  0  0  0  0  0  0  0  0
  187.2500  177.6250  146.1960 C   0  0  0  0  0  3  0  0  0  0  0  0
  188.4310  176.2060  144.0640 C   0  0  0  0  0  0  0  0  0  0  0  0
  191.2100  175.6670  144.2410 C   0  0  0  0  0  0  0  0  0  0  0  0
  193.7890  176.4840  146.7500 C   0  0  0  0  0  1  0  0  0  0  0  0
  192.4800  175.6270  144.6200 C   0  0  0  0  0  0  0  0  0  0  0  0
  195.6850  174.1520  143.3300 C   0  0  0  0  0  2  0  0  0  0  0  0
  192.0860  172.4900  144.0400 C   0  0  0  0  0  1  0  0  0  0  0  0
  188.6090  177.3610  146.2300 C   0  0  0  0  0  3  0  0  0  0  0  0
  189.2080  176.6570  145.1820 C   0  0  0  0  0  0  0  0  0  0  0  0
  192.1670  173.2870  142.7430 C   0  0  2  0  0  3  0  0  0  0  0  0
  188.1940  173.5390  139.9500 O   0  0  0  0  0  0  0  0  0  0  0  0
  188.9040  173.2560  137.6980 C   0  0  0  0  0  1  0  0  0  0  0  0
  188.2470  174.1740  138.7070 C   0  0  0  0  0  2  0  0  0  0  0  0
  1 19  1  0  0  0  0
  2 13  1  0  0  0  0
  4  1  2  0  0  0  0
  4 20  1  0  0  0  0
  5  1  1  0  0  0  0
  6  8  2  0  0  0  0
  7 15  1  1  0  0  0
  7 27  1  0  0  0  0
  7  9  1  0  0  0  0
  8 12  1  0  0  0  0
  9 14  1  0  0  0  0
  9 22  1  0  0  0  0
 10  3  1  0  0  0  0
 10 21  1  6  0  0  0
 11 28  1  6  0  0  0
 11  8  1  0  0  0  0
 11  5  1  0  0  0  0
 12 27  1  0  0  0  0
 12  4  1  0  0  0  0
 13 18  2  0  0  0  0
 15 23  1  0  0  0  0
 16  2  1  0  0  0  0
 17  3  2  0  0  0  0
 18 25  1  0  0  0  0
 19  2  2  0  0  0  0
 19 26  1  0  0  0  0
 20 22  2  0  0  0  0
 20 17  1  0  0  0  0
 22 10  1  0  0  0  0
 23 14  1  0  0  0  0
 26 17  1  0  0  0  0
 26 25  2  0  0  0  0
 27 24  1  1  0  0  0
 29 30  1  0  0  0  0
 30 28  1  0  0  0  0
M  END
>  <MODEL>
9

>  <REMARK>
 VINA RESULT:      -7.1      2.385      3.574
  Name = 
  2 active torsions:
  status: ('A' for Active; 'I' for Inactive)
    1  A    between atoms: C_11  and  O_28
    2  A    between atoms: O_28  and  C_30
                            x       y       z     vdW  Elec       q    Type
                         _______ _______ _______ _____ _____    ______ ____

>  <TORSDO>
F 2

$$$$
