=
 OpenBabel11112417373D

 28 32  0  0  1  0  0  0  0  0999 V2000
  186.7960  177.9470  144.6220 C   0  0  0  0  0  0  0  0  0  0  0  0
  190.1130  177.9420  144.6220 O   0  0  0  0  0  0  0  0  0  0  0  0
  187.7130  172.7170  141.6760 O   0  0  0  0  0  0  0  0  0  0  0  0
  185.7800  177.4690  147.1910 C   0  0  0  0  0  3  0  0  0  0  0  0
  189.5940  173.6170  142.7600 N   0  0  0  0  0  0  0  0  0  0  0  0
  187.2440  178.2550  143.2340 C   0  0  0  0  0  2  0  0  0  0  0  0
  189.8990  177.7970  147.0660 O   0  0  0  0  0  0  0  0  0  0  0  0
  190.3130  177.0600  145.8240 S   0  0  0  0  0  0  0  0  0  0  0  0
  192.3800  175.2980  145.7170 C   0  0  0  0  0  0  0  0  0  0  0  0
  189.3950  175.5750  145.7030 N   0  0  2  0  0  0  0  0  0  0  0  0
  186.8020  177.7690  139.9690 C   0  0  0  0  0  1  0  0  0  0  0  0
  188.6670  175.7120  143.3910 C   0  0  1  0  0  3  0  0  0  0  0  0
  191.5430  174.3910  145.3130 N   0  0  0  0  0  0  0  0  0  0  0  0
  191.9740  176.6440  145.9380 N   0  0  0  0  0  2  0  0  0  0  0  0
  187.2880  177.2100  141.2910 C   0  0  2  0  0  3  0  0  0  0  0  0
  187.2270  176.8050  145.3470 C   0  0  0  0  0  0  0  0  0  0  0  0
  188.2710  173.6760  142.2720 C   0  0  0  0  0  0  0  0  0  0  0  0
  193.7850  174.9120  146.0060 C   0  0  0  0  0  1  0  0  0  0  0  0
  187.3850  175.6880  141.1930 C   0  0  0  0  0  2  0  0  0  0  0  0
  186.7010  176.5850  146.6290 C   0  0  0  0  0  3  0  0  0  0  0  0
  185.8670  178.8230  145.1950 C   0  0  0  0  0  3  0  0  0  0  0  0
  185.3640  178.5900  146.4750 C   0  0  0  0  0  3  0  0  0  0  0  0
  186.4210  177.5970  142.3140 O   0  0  0  0  0  0  0  0  0  0  0  0
  189.9390  174.8500  143.4400 C   0  0  1  0  0  3  0  0  0  0  0  0
  187.6210  174.9790  142.5330 C   0  0  2  0  0  3  0  0  0  0  0  0
  190.1380  174.5780  144.9260 C   0  0  2  0  0  3  0  0  0  0  0  0
  190.5220  172.5230  142.5170 C   0  0  0  0  0  1  0  0  0  0  0  0
  188.2190  175.7680  144.8510 C   0  0  2  0  0  3  0  0  0  0  0  0
  1 21  2  0  0  0  0
  1 16  1  0  0  0  0
  2  8  2  0  0  0  0
  3 17  2  0  0  0  0
  5 24  1  0  0  0  0
  6  1  1  0  0  0  0
  8 14  1  0  0  0  0
  8  7  2  0  0  0  0
  9 14  1  0  0  0  0
  9 18  1  0  0  0  0
 10  8  1  6  0  0  0
 11 15  1  0  0  0  0
 12 24  1  0  0  0  0
 12 28  1  0  0  0  0
 13  9  2  0  0  0  0
 15 23  1  0  0  0  0
 16 20  2  0  0  0  0
 17 25  1  0  0  0  0
 17  5  1  0  0  0  0
 19 15  1  0  0  0  0
 19 25  1  0  0  0  0
 20  4  1  0  0  0  0
 21 22  1  0  0  0  0
 22  4  2  0  0  0  0
 23  6  1  0  0  0  0
 24 26  1  0  0  0  0
 25 12  1  0  0  0  0
 26 13  1  0  0  0  0
 26 10  1  0  0  0  0
 27  5  1  0  0  0  0
 28 16  1  0  0  0  0
 28 10  1  0  0  0  0
M  END
>  <MODEL>
1

>  <REMARK>
 VINA RESULT:      -8.9      0.000      0.000
  Name = 
  0 active torsions:
  status: ('A' for Active; 'I' for Inactive)
                            x       y       z     vdW  Elec       q    Type
                         _______ _______ _______ _____ _____    ______ ____

>  <TORSDO>
F 0

$$$$
=
 OpenBabel11112417373D

 28 32  0  0  1  0  0  0  0  0999 V2000
  191.1050  175.2870  143.9200 C   0  0  0  0  0  0  0  0  0  0  0  0
  188.4690  175.3250  145.9330 O   0  0  0  0  0  0  0  0  0  0  0  0
  186.9300  177.1900  139.9420 O   0  0  0  0  0  0  0  0  0  0  0  0
  192.8900  177.3570  144.5450 C   0  0  0  0  0  3  0  0  0  0  0  0
  186.2920  177.2720  142.2030 N   0  0  0  0  0  0  0  0  0  0  0  0
  190.2410  174.1320  143.5470 C   0  0  0  0  0  2  0  0  0  0  0  0
  189.6940  177.0720  147.1520 O   0  0  0  0  0  0  0  0  0  0  0  0
  188.5030  176.7880  146.2820 S   0  0  0  0  0  0  0  0  0  0  0  0
  186.1040  178.0420  146.5280 C   0  0  0  0  0  0  0  0  0  0  0  0
  188.5790  177.7970  144.8540 N   0  0  2  0  0  0  0  0  0  0  0  0
  188.9080  172.2930  141.1110 C   0  0  0  0  0  1  0  0  0  0  0  0
  188.1590  176.1350  143.1360 C   0  0  1  0  0  3  0  0  0  0  0  0
  186.2200  178.4340  145.2950 N   0  0  0  0  0  0  0  0  0  0  0  0
  187.0690  177.1890  147.1340 N   0  0  0  0  0  2  0  0  0  0  0  0
  188.8990  173.6000  141.8770 C   0  0  2  0  0  3  0  0  0  0  0  0
  190.6340  176.6240  143.9900 C   0  0  0  0  0  0  0  0  0  0  0  0
  187.1440  176.8860  141.1460 C   0  0  0  0  0  0  0  0  0  0  0  0
  184.9650  178.5360  147.3420 C   0  0  0  0  0  1  0  0  0  0  0  0
  188.1660  174.6630  141.0600 C   0  0  0  0  0  2  0  0  0  0  0  0
  191.5470  177.6430  144.3000 C   0  0  0  0  0  3  0  0  0  0  0  0
  192.4560  175.0140  144.1610 C   0  0  0  0  0  3  0  0  0  0  0  0
  193.3450  176.0420  144.4770 C   0  0  0  0  0  3  0  0  0  0  0  0
  190.2100  173.9920  142.1560 O   0  0  0  0  0  0  0  0  0  0  0  0
  186.8240  176.8190  143.4740 C   0  0  1  0  0  3  0  0  0  0  0  0
  188.3030  176.0900  141.6040 C   0  0  2  0  0  3  0  0  0  0  0  0
  187.2340  178.0210  144.3160 C   0  0  2  0  0  3  0  0  0  0  0  0
  185.0050  177.9280  142.0370 C   0  0  0  0  0  1  0  0  0  0  0  0
  189.2020  177.0690  143.7460 C   0  0  2  0  0  3  0  0  0  0  0  0
  1 16  2  0  0  0  0
  1 21  1  0  0  0  0
  2  8  2  0  0  0  0
  3 17  2  0  0  0  0
  5 24  1  0  0  0  0
  6  1  1  0  0  0  0
  8 14  1  0  0  0  0
  8  7  2  0  0  0  0
  9 14  1  0  0  0  0
  9 18  1  0  0  0  0
 10  8  1  1  0  0  0
 11 15  1  0  0  0  0
 12 24  1  0  0  0  0
 12 28  1  0  0  0  0
 13  9  2  0  0  0  0
 15 23  1  0  0  0  0
 16 20  1  0  0  0  0
 17 25  1  0  0  0  0
 17  5  1  0  0  0  0
 19 25  1  0  0  0  0
 19 15  1  0  0  0  0
 20  4  2  0  0  0  0
 21 22  2  0  0  0  0
 22  4  1  0  0  0  0
 23  6  1  0  0  0  0
 24 26  1  0  0  0  0
 25 12  1  0  0  0  0
 26 10  1  0  0  0  0
 26 13  1  0  0  0  0
 27  5  1  0  0  0  0
 28 16  1  0  0  0  0
 28 10  1  0  0  0  0
M  END
>  <MODEL>
2

>  <REMARK>
 VINA RESULT:      -8.3      2.185      5.216
  Name = 
  0 active torsions:
  status: ('A' for Active; 'I' for Inactive)
                            x       y       z     vdW  Elec       q    Type
                         _______ _______ _______ _____ _____    ______ ____

>  <TORSDO>
F 0

$$$$
=
 OpenBabel11112417373D

 28 32  0  0  1  0  0  0  0  0999 V2000
  190.4740  174.7710  141.9820 C   0  0  0  0  0  0  0  0  0  0  0  0
  189.1950  177.8090  142.3510 O   0  0  0  0  0  0  0  0  0  0  0  0
  188.8320  174.3800  147.8140 O   0  0  0  0  0  0  0  0  0  0  0  0
  188.8260  173.1640  140.3810 C   0  0  0  0  0  3  0  0  0  0  0  0
  187.9390  176.2020  146.6270 N   0  0  0  0  0  0  0  0  0  0  0  0
  191.4340  175.5640  142.8010 C   0  0  0  0  0  2  0  0  0  0  0  0
  187.5330  177.0770  140.6960 O   0  0  0  0  0  0  0  0  0  0  0  0
  187.7510  177.4480  142.1360 S   0  0  0  0  0  0  0  0  0  0  0  0
  185.9220  178.7520  143.6660 C   0  0  0  0  0  0  0  0  0  0  0  0
  187.2540  176.1140  143.1550 N   0  0  2  0  0  0  0  0  0  0  0  0
  193.5080  175.6390  145.4050 C   0  0  0  0  0  1  0  0  0  0  0  0
  189.1840  175.9540  144.6170 C   0  0  1  0  0  3  0  0  0  0  0  0
  185.9480  177.7500  144.4930 N   0  0  0  0  0  0  0  0  0  0  0  0
  186.7740  178.8030  142.5280 N   0  0  0  0  0  2  0  0  0  0  0  0
  192.0760  175.6280  144.9110 C   0  0  2  0  0  3  0  0  0  0  0  0
  189.1010  174.6250  142.3110 C   0  0  0  0  0  0  0  0  0  0  0  0
  188.8160  175.1060  146.7850 C   0  0  0  0  0  0  0  0  0  0  0  0
  184.9450  179.8470  143.8860 C   0  0  0  0  0  1  0  0  0  0  0  0
  191.1490  175.2070  146.0510 C   0  0  0  0  0  2  0  0  0  0  0  0
  188.2980  173.8120  141.4970 C   0  0  0  0  0  3  0  0  0  0  0  0
  190.9930  174.1100  140.8630 C   0  0  0  0  0  3  0  0  0  0  0  0
  190.1740  173.3140  140.0620 C   0  0  0  0  0  3  0  0  0  0  0  0
  191.9600  174.7640  143.8200 O   0  0  0  0  0  0  0  0  0  0  0  0
  188.1210  176.8110  145.3230 C   0  0  1  0  0  3  0  0  0  0  0  0
  189.7070  174.9110  145.6210 C   0  0  2  0  0  3  0  0  0  0  0  0
  186.8680  176.6040  144.4810 C   0  0  2  0  0  3  0  0  0  0  0  0
  187.0600  176.7200  147.6630 C   0  0  0  0  0  1  0  0  0  0  0  0
  188.4040  175.2730  143.4940 C   0  0  2  0  0  3  0  0  0  0  0  0
  1 16  1  0  0  0  0
  1  6  1  0  0  0  0
  4 20  1  0  0  0  0
  5 17  1  0  0  0  0
  5 27  1  0  0  0  0
  6 23  1  0  0  0  0
  7  8  2  0  0  0  0
  8  2  2  0  0  0  0
  8 14  1  0  0  0  0
  9 18  1  0  0  0  0
  9 13  2  0  0  0  0
 10  8  1  6  0  0  0
 10 28  1  0  0  0  0
 10 26  1  0  0  0  0
 12 24  1  0  0  0  0
 12 25  1  0  0  0  0
 14  9  1  0  0  0  0
 15 11  1  0  0  0  0
 15 19  1  0  0  0  0
 16 28  1  0  0  0  0
 17  3  2  0  0  0  0
 20 16  2  0  0  0  0
 21  1  2  0  0  0  0
 22  4  2  0  0  0  0
 22 21  1  0  0  0  0
 23 15  1  0  0  0  0
 24  5  1  0  0  0  0
 25 19  1  0  0  0  0
 25 17  1  0  0  0  0
 26 13  1  0  0  0  0
 26 24  1  0  0  0  0
 28 12  1  0  0  0  0
M  END
>  <MODEL>
3

>  <REMARK>
 VINA RESULT:      -8.2      2.506      6.164
  Name = 
  0 active torsions:
  status: ('A' for Active; 'I' for Inactive)
                            x       y       z     vdW  Elec       q    Type
                         _______ _______ _______ _____ _____    ______ ____

>  <TORSDO>
F 0

$$$$
=
 OpenBabel11112417373D

 28 32  0  0  1  0  0  0  0  0999 V2000
  188.4910  176.4890  144.7250 C   0  0  0  0  0  0  0  0  0  0  0  0
  191.5300  177.3370  143.7020 O   0  0  0  0  0  0  0  0  0  0  0  0
  189.1230  172.4390  140.2460 O   0  0  0  0  0  0  0  0  0  0  0  0
  188.5790  175.2210  147.2240 C   0  0  0  0  0  3  0  0  0  0  0  0
  191.0930  173.5350  140.9100 N   0  0  0  0  0  0  0  0  0  0  0  0
  188.3430  177.1950  143.4210 C   0  0  0  0  0  2  0  0  0  0  0  0
  192.2510  176.6160  145.9370 O   0  0  0  0  0  0  0  0  0  0  0  0
  192.2990  176.2980  144.4700 S   0  0  0  0  0  0  0  0  0  0  0  0
  194.4460  175.1940  143.2210 C   0  0  0  0  0  0  0  0  0  0  0  0
  191.6600  174.6890  144.2090 N   0  0  2  0  0  0  0  0  0  0  0  0
  186.8270  177.3320  140.4590 C   0  0  0  0  0  1  0  0  0  0  0  0
  190.1260  175.1320  142.3810 C   0  0  1  0  0  3  0  0  0  0  0  0
  193.6820  174.2110  142.8470 N   0  0  0  0  0  0  0  0  0  0  0  0
  193.9310  176.3090  143.9390 N   0  0  0  0  0  2  0  0  0  0  0  0
  187.8470  176.6440  141.3420 C   0  0  2  0  0  3  0  0  0  0  0  0
  189.3400  175.3670  144.9140 C   0  0  0  0  0  0  0  0  0  0  0  0
  189.6930  173.3560  140.8940 C   0  0  0  0  0  0  0  0  0  0  0  0
  195.9020  175.1280  142.9360 C   0  0  0  0  0  1  0  0  0  0  0  0
  188.1530  175.2560  140.7790 C   0  0  0  0  0  2  0  0  0  0  0  0
  189.3630  174.7470  146.1720 C   0  0  0  0  0  3  0  0  0  0  0  0
  187.7050  176.9510  145.7860 C   0  0  0  0  0  3  0  0  0  0  0  0
  187.7500  176.3240  147.0320 C   0  0  0  0  0  3  0  0  0  0  0  0
  187.3620  176.5630  142.6490 O   0  0  0  0  0  0  0  0  0  0  0  0
  191.4520  174.6370  141.7810 C   0  0  1  0  0  3  0  0  0  0  0  0
  188.9770  174.3590  141.7110 C   0  0  2  0  0  3  0  0  0  0  0  0
  192.2230  174.1100  142.9850 C   0  0  2  0  0  3  0  0  0  0  0  0
  192.0350  172.7960  140.0850 C   0  0  0  0  0  1  0  0  0  0  0  0
  190.2400  174.7540  143.8560 C   0  0  2  0  0  3  0  0  0  0  0  0
  1 16  2  0  0  0  0
  1 21  1  0  0  0  0
  2  8  2  0  0  0  0
  3 17  2  0  0  0  0
  5 24  1  0  0  0  0
  6  1  1  0  0  0  0
  8  7  2  0  0  0  0
  9 14  1  0  0  0  0
 10  8  1  6  0  0  0
 11 15  1  0  0  0  0
 12 28  1  0  0  0  0
 13 26  1  0  0  0  0
 13  9  2  0  0  0  0
 14  8  1  0  0  0  0
 15 23  1  0  0  0  0
 16 20  1  0  0  0  0
 17  5  1  0  0  0  0
 17 25  1  0  0  0  0
 18  9  1  0  0  0  0
 19 15  1  0  0  0  0
 19 25  1  0  0  0  0
 20  4  2  0  0  0  0
 21 22  2  0  0  0  0
 22  4  1  0  0  0  0
 23  6  1  0  0  0  0
 24 12  1  0  0  0  0
 24 26  1  0  0  0  0
 25 12  1  0  0  0  0
 26 10  1  0  0  0  0
 27  5  1  0  0  0  0
 28 10  1  0  0  0  0
 28 16  1  0  0  0  0
M  END
>  <MODEL>
4

>  <REMARK>
 VINA RESULT:      -7.9      2.012      2.515
  Name = 
  0 active torsions:
  status: ('A' for Active; 'I' for Inactive)
                            x       y       z     vdW  Elec       q    Type
                         _______ _______ _______ _____ _____    ______ ____

>  <TORSDO>
F 0

$$$$
=
 OpenBabel11112417373D

 28 32  0  0  1  0  0  0  0  0999 V2000
  191.3450  174.1190  142.8880 C   0  0  0  0  0  0  0  0  0  0  0  0
  189.7410  176.9670  142.3250 O   0  0  0  0  0  0  0  0  0  0  0  0
  191.3920  176.3400  148.5400 O   0  0  0  0  0  0  0  0  0  0  0  0
  189.6110  171.9230  142.7040 C   0  0  0  0  0  3  0  0  0  0  0  0
  189.9370  177.4130  147.0380 N   0  0  0  0  0  0  0  0  0  0  0  0
  192.3480  175.2190  142.9600 C   0  0  0  0  0  2  0  0  0  0  0  0
  187.8390  175.5290  141.7320 O   0  0  0  0  0  0  0  0  0  0  0  0
  188.3690  176.5100  142.7380 S   0  0  0  0  0  0  0  0  0  0  0  0
  186.8270  178.3150  144.0630 C   0  0  0  0  0  0  0  0  0  0  0  0
  188.3790  175.7620  144.3210 N   0  0  2  0  0  0  0  0  0  0  0  0
  194.9990  176.5060  144.5120 C   0  0  0  0  0  1  0  0  0  0  0  0
  190.6280  176.3240  145.0410 C   0  0  1  0  0  3  0  0  0  0  0  0
  187.2300  177.7900  145.1810 N   0  0  0  0  0  0  0  0  0  0  0  0
  187.3260  177.8720  142.8060 N   0  0  0  0  0  2  0  0  0  0  0  0
  193.5080  176.2380  144.5370 C   0  0  2  0  0  3  0  0  0  0  0  0
  190.1500  174.1010  143.6540 C   0  0  0  0  0  0  0  0  0  0  0  0
  190.9880  176.5280  147.3620 C   0  0  0  0  0  0  0  0  0  0  0  0
  185.7800  179.3670  144.0930 C   0  0  0  0  0  1  0  0  0  0  0  0
  192.9960  176.3490  145.9730 C   0  0  0  0  0  2  0  0  0  0  0  0
  189.3010  172.9890  143.5480 C   0  0  0  0  0  3  0  0  0  0  0  0
  191.6480  173.0400  142.0500 C   0  0  0  0  0  3  0  0  0  0  0  0
  190.7850  171.9500  141.9530 C   0  0  0  0  0  3  0  0  0  0  0  0
  193.2470  174.9740  144.0030 O   0  0  0  0  0  0  0  0  0  0  0  0
  189.6670  177.3790  145.6130 C   0  0  1  0  0  3  0  0  0  0  0  0
  191.5580  175.8550  146.1740 C   0  0  2  0  0  3  0  0  0  0  0  0
  188.2850  176.7840  145.3680 C   0  0  2  0  0  3  0  0  0  0  0  0
  189.2930  178.3180  147.9760 C   0  0  0  0  0  1  0  0  0  0  0  0
  189.6970  175.1930  144.6080 C   0  0  2  0  0  3  0  0  0  0  0  0
  1  6  1  0  0  0  0
  1 16  1  0  0  0  0
  2  8  2  0  0  0  0
  4 20  1  0  0  0  0
  5 17  1  0  0  0  0
  5 27  1  0  0  0  0
  6 23  1  0  0  0  0
  7  8  2  0  0  0  0
  8 14  1  0  0  0  0
  9 18  1  0  0  0  0
  9 13  2  0  0  0  0
 10  8  1  6  0  0  0
 10 28  1  0  0  0  0
 10 26  1  0  0  0  0
 11 15  1  0  0  0  0
 12 24  1  0  0  0  0
 12 25  1  0  0  0  0
 13 26  1  0  0  0  0
 14  9  1  0  0  0  0
 15 19  1  0  0  0  0
 16 28  1  0  0  0  0
 17  3  2  0  0  0  0
 19 25  1  0  0  0  0
 20 16  2  0  0  0  0
 21  1  2  0  0  0  0
 22 21  1  0  0  0  0
 22  4  2  0  0  0  0
 23 15  1  0  0  0  0
 24  5  1  0  0  0  0
 25 17  1  0  0  0  0
 26 24  1  0  0  0  0
 28 12  1  0  0  0  0
M  END
>  <MODEL>
5

>  <REMARK>
 VINA RESULT:      -7.5      2.380      6.365
  Name = 
  0 active torsions:
  status: ('A' for Active; 'I' for Inactive)
                            x       y       z     vdW  Elec       q    Type
                         _______ _______ _______ _____ _____    ______ ____

>  <TORSDO>
F 0

$$$$
=
 OpenBabel11112417373D

 28 32  0  0  1  0  0  0  0  0999 V2000
  190.0230  176.8080  145.6310 C   0  0  0  0  0  0  0  0  0  0  0  0
  191.8860  177.3410  142.9400 O   0  0  0  0  0  0  0  0  0  0  0  0
  187.4410  172.7680  141.9050 O   0  0  0  0  0  0  0  0  0  0  0  0
  191.4870  175.5070  147.6380 C   0  0  0  0  0  3  0  0  0  0  0  0
  189.5030  173.6400  141.1870 N   0  0  0  0  0  0  0  0  0  0  0  0
  189.1820  177.5410  144.6430 C   0  0  0  0  0  2  0  0  0  0  0  0
  193.7420  176.5190  144.3250 O   0  0  0  0  0  0  0  0  0  0  0  0
  192.8630  176.2160  143.1450 S   0  0  0  0  0  0  0  0  0  0  0  0
  193.7050  174.9060  140.9170 C   0  0  0  0  0  0  0  0  0  0  0  0
  192.0520  174.6880  143.4090 N   0  0  2  0  0  0  0  0  0  0  0  0
  186.2040  177.8740  143.1910 C   0  0  0  0  0  1  0  0  0  0  0  0
  189.7740  175.3140  142.8540 C   0  0  1  0  0  3  0  0  0  0  0  0
  192.7850  174.0150  141.1330 N   0  0  0  0  0  0  0  0  0  0  0  0
  193.8350  176.0600  141.7390 N   0  0  0  0  0  2  0  0  0  0  0  0
  187.4820  177.0710  143.3170 C   0  0  2  0  0  3  0  0  0  0  0  0
  190.7060  175.6000  145.3320 C   0  0  0  0  0  0  0  0  0  0  0  0
  188.3680  173.6120  142.0270 C   0  0  0  0  0  0  0  0  0  0  0  0
  194.6790  174.6900  139.8170 C   0  0  0  0  0  1  0  0  0  0  0  0
  187.2550  175.6660  142.7600 C   0  0  0  0  0  2  0  0  0  0  0  0
  191.4280  174.9650  146.3540 C   0  0  0  0  0  3  0  0  0  0  0  0
  190.0850  177.3370  146.9250 C   0  0  0  0  0  3  0  0  0  0  0  0
  190.8160  176.6940  147.9240 C   0  0  0  0  0  3  0  0  0  0  0  0
  187.8810  177.0260  144.6540 O   0  0  0  0  0  0  0  0  0  0  0  0
  190.4150  174.6880  141.6040 C   0  0  1  0  0  3  0  0  0  0  0  0
  188.3890  174.6750  143.0550 C   0  0  2  0  0  3  0  0  0  0  0  0
  191.7050  174.0670  142.1280 C   0  0  2  0  0  3  0  0  0  0  0  0
  189.6810  172.8160  140.0030 C   0  0  0  0  0  1  0  0  0  0  0  0
  190.7210  174.9070  143.9800 C   0  0  2  0  0  3  0  0  0  0  0  0
  1 21  1  0  0  0  0
  2  8  2  0  0  0  0
  3 17  2  0  0  0  0
  4 22  1  0  0  0  0
  5 24  1  0  0  0  0
  5 17  1  0  0  0  0
  6 23  1  0  0  0  0
  6  1  1  0  0  0  0
  8  7  2  0  0  0  0
  9 13  2  0  0  0  0
  9 14  1  0  0  0  0
 10  8  1  6  0  0  0
 10 28  1  0  0  0  0
 11 15  1  0  0  0  0
 12 25  1  0  0  0  0
 12 28  1  0  0  0  0
 13 26  1  0  0  0  0
 14  8  1  0  0  0  0
 15 23  1  0  0  0  0
 16  1  2  0  0  0  0
 16 20  1  0  0  0  0
 17 25  1  0  0  0  0
 18  9  1  0  0  0  0
 19 25  1  0  0  0  0
 19 15  1  0  0  0  0
 20  4  2  0  0  0  0
 21 22  2  0  0  0  0
 24 26  1  0  0  0  0
 24 12  1  0  0  0  0
 26 10  1  0  0  0  0
 27  5  1  0  0  0  0
 28 16  1  0  0  0  0
M  END
>  <MODEL>
6

>  <REMARK>
 VINA RESULT:      -7.4      2.580      3.658
  Name = 
  0 active torsions:
  status: ('A' for Active; 'I' for Inactive)
                            x       y       z     vdW  Elec       q    Type
                         _______ _______ _______ _____ _____    ______ ____

>  <TORSDO>
F 0

$$$$
=
 OpenBabel11112417373D

 28 32  0  0  1  0  0  0  0  0999 V2000
  190.3830  174.3360  143.3700 C   0  0  0  0  0  0  0  0  0  0  0  0
  189.1130  176.9230  141.7290 O   0  0  0  0  0  0  0  0  0  0  0  0
  186.6420  176.4150  147.6770 O   0  0  0  0  0  0  0  0  0  0  0  0
  189.4390  171.9100  142.3270 C   0  0  0  0  0  3  0  0  0  0  0  0
  186.2990  177.2910  145.5230 N   0  0  0  0  0  0  0  0  0  0  0  0
  190.9740  175.5710  143.9580 C   0  0  0  0  0  2  0  0  0  0  0  0
  188.1910  175.2310  140.2050 O   0  0  0  0  0  0  0  0  0  0  0  0
  187.8530  176.2580  141.2480 S   0  0  0  0  0  0  0  0  0  0  0  0
  185.6030  177.7820  141.2100 C   0  0  0  0  0  0  0  0  0  0  0  0
  186.9830  175.4860  142.5560 N   0  0  2  0  0  0  0  0  0  0  0  0
  191.9040  177.2050  146.7060 C   0  0  0  0  0  1  0  0  0  0  0  0
  188.2100  176.3610  144.4580 C   0  0  1  0  0  3  0  0  0  0  0  0
  185.2950  177.2990  142.3760 N   0  0  0  0  0  0  0  0  0  0  0  0
  186.8240  177.4470  140.5610 N   0  0  0  0  0  2  0  0  0  0  0  0
  190.7670  176.7180  145.8320 C   0  0  2  0  0  3  0  0  0  0  0  0
  188.9860  174.1230  143.2410 C   0  0  0  0  0  0  0  0  0  0  0  0
  187.0310  176.5660  146.4890 C   0  0  0  0  0  0  0  0  0  0  0  0
  184.6340  178.6660  140.5130 C   0  0  0  0  0  1  0  0  0  0  0  0
  189.4700  176.7190  146.6400 C   0  0  0  0  0  2  0  0  0  0  0  0
  188.5380  172.8990  142.7210 C   0  0  0  0  0  3  0  0  0  0  0  0
  191.2770  173.3330  142.9770 C   0  0  0  0  0  3  0  0  0  0  0  0
  190.8100  172.1280  142.4540 C   0  0  0  0  0  3  0  0  0  0  0  0
  191.0590  175.4410  145.3480 O   0  0  0  0  0  0  0  0  0  0  0  0
  186.9730  177.2480  144.2400 C   0  0  1  0  0  3  0  0  0  0  0  0
  188.2940  176.0120  145.9540 C   0  0  2  0  0  3  0  0  0  0  0  0
  186.1300  176.4590  143.2450 C   0  0  2  0  0  3  0  0  0  0  0  0
  185.1020  178.0690  145.7990 C   0  0  0  0  0  1  0  0  0  0  0  0
  187.9030  175.1130  143.6330 C   0  0  2  0  0  3  0  0  0  0  0  0
  1  6  1  0  0  0  0
  4 22  2  0  0  0  0
  4 20  1  0  0  0  0
  5 27  1  0  0  0  0
  5 17  1  0  0  0  0
  6 23  1  0  0  0  0
  7  8  2  0  0  0  0
  8  2  2  0  0  0  0
  9 13  2  0  0  0  0
 10  8  1  6  0  0  0
 10 26  1  0  0  0  0
 10 28  1  0  0  0  0
 12 25  1  0  0  0  0
 13 26  1  0  0  0  0
 14  9  1  0  0  0  0
 14  8  1  0  0  0  0
 15 19  1  0  0  0  0
 15 11  1  0  0  0  0
 16  1  1  0  0  0  0
 16 28  1  0  0  0  0
 17  3  2  0  0  0  0
 18  9  1  0  0  0  0
 20 16  2  0  0  0  0
 21  1  2  0  0  0  0
 22 21  1  0  0  0  0
 23 15  1  0  0  0  0
 24 12  1  0  0  0  0
 24  5  1  0  0  0  0
 25 17  1  0  0  0  0
 25 19  1  0  0  0  0
 26 24  1  0  0  0  0
 28 12  1  0  0  0  0
M  END
>  <MODEL>
7

>  <REMARK>
 VINA RESULT:      -7.3      2.605      6.409
  Name = 
  0 active torsions:
  status: ('A' for Active; 'I' for Inactive)
                            x       y       z     vdW  Elec       q    Type
                         _______ _______ _______ _____ _____    ______ ____

>  <TORSDO>
F 0

$$$$
=
 OpenBabel11112417373D

 28 32  0  0  1  0  0  0  0  0999 V2000
  188.7960  176.8530  144.6660 C   0  0  0  0  0  0  0  0  0  0  0  0
  189.1740  173.6150  144.0540 O   0  0  0  0  0  0  0  0  0  0  0  0
  194.8390  176.7210  144.0880 O   0  0  0  0  0  0  0  0  0  0  0  0
  187.6230  178.1680  142.4840 C   0  0  0  0  0  3  0  0  0  0  0  0
  193.7040  174.8030  143.3390 N   0  0  0  0  0  0  0  0  0  0  0  0
  189.3780  176.2320  145.8890 C   0  0  0  0  0  2  0  0  0  0  0  0
  187.8910  174.0710  142.0090 O   0  0  0  0  0  0  0  0  0  0  0  0
  189.2410  173.7000  142.5540 S   0  0  0  0  0  0  0  0  0  0  0  0
  190.9750  172.0170  141.3100 C   0  0  0  0  0  0  0  0  0  0  0  0
  190.4200  174.8770  142.0190 N   0  0  2  0  0  0  0  0  0  0  0  0
  191.5660  176.4670  148.3880 C   0  0  0  0  0  1  0  0  0  0  0  0
  191.5290  175.3550  144.1240 C   0  0  1  0  0  3  0  0  0  0  0  0
  191.8510  172.9760  141.3040 N   0  0  0  0  0  0  0  0  0  0  0  0
  189.7040  172.1690  141.9300 N   0  0  0  0  0  2  0  0  0  0  0  0
  191.3330  176.2200  146.9120 C   0  0  2  0  0  3  0  0  0  0  0  0
  189.3700  176.7210  143.3740 C   0  0  0  0  0  0  0  0  0  0  0  0
  193.7820  176.0410  144.0150 C   0  0  0  0  0  0  0  0  0  0  0  0
  191.2870  170.7470  140.6060 C   0  0  0  0  0  1  0  0  0  0  0  0
  192.6450  176.4160  146.1510 C   0  0  0  0  0  2  0  0  0  0  0  0
  188.7680  177.3920  142.2990 C   0  0  0  0  0  3  0  0  0  0  0  0
  187.6520  177.6400  144.8390 C   0  0  0  0  0  3  0  0  0  0  0  0
  187.0640  178.2910  143.7550 C   0  0  0  0  0  3  0  0  0  0  0  0
  190.3420  177.0830  146.4400 O   0  0  0  0  0  0  0  0  0  0  0  0
  192.3500  174.2860  143.3850 C   0  0  1  0  0  3  0  0  0  0  0  0
  192.4950  176.4430  144.6240 C   0  0  2  0  0  3  0  0  0  0  0  0
  191.7570  174.2770  141.9810 C   0  0  2  0  0  3  0  0  0  0  0  0
  194.8400  174.0910  142.7770 C   0  0  0  0  0  1  0  0  0  0  0  0
  190.6100  175.9110  143.0390 C   0  0  2  0  0  3  0  0  0  0  0  0
  1 21  1  0  0  0  0
  1  6  1  0  0  0  0
  4 22  1  0  0  0  0
  5 24  1  0  0  0  0
  5 17  1  0  0  0  0
  6 23  1  0  0  0  0
  7  8  2  0  0  0  0
  8  2  2  0  0  0  0
  9 14  1  0  0  0  0
 10  8  1  1  0  0  0
 10 28  1  0  0  0  0
 12 25  1  0  0  0  0
 13  9  2  0  0  0  0
 13 26  1  0  0  0  0
 14  8  1  0  0  0  0
 15 11  1  0  0  0  0
 16  1  2  0  0  0  0
 17  3  2  0  0  0  0
 17 25  1  0  0  0  0
 18  9  1  0  0  0  0
 19 15  1  0  0  0  0
 20  4  2  0  0  0  0
 20 16  1  0  0  0  0
 22 21  2  0  0  0  0
 23 15  1  0  0  0  0
 24 12  1  0  0  0  0
 25 19  1  0  0  0  0
 26 10  1  0  0  0  0
 26 24  1  0  0  0  0
 27  5  1  0  0  0  0
 28 16  1  0  0  0  0
 28 12  1  0  0  0  0
M  END
>  <MODEL>
8

>  <REMARK>
 VINA RESULT:      -7.3      2.408      5.301
  Name = 
  0 active torsions:
  status: ('A' for Active; 'I' for Inactive)
                            x       y       z     vdW  Elec       q    Type
                         _______ _______ _______ _____ _____    ______ ____

>  <TORSDO>
F 0

$$$$
=
 OpenBabel11112417373D

 28 32  0  0  1  0  0  0  0  0999 V2000
  188.7750  175.8070  144.5120 C   0  0  0  0  0  0  0  0  0  0  0  0
  191.9770  176.4530  143.9320 O   0  0  0  0  0  0  0  0  0  0  0  0
  190.4400  170.3760  142.3680 O   0  0  0  0  0  0  0  0  0  0  0  0
  188.2510  175.6660  147.2630 C   0  0  0  0  0  3  0  0  0  0  0  0
  192.1990  171.8260  142.9390 N   0  0  0  0  0  0  0  0  0  0  0  0
  188.9500  175.9110  143.0360 C   0  0  0  0  0  2  0  0  0  0  0  0
  192.1340  176.7620  146.3640 O   0  0  0  0  0  0  0  0  0  0  0  0
  192.5310  175.8870  145.2100 S   0  0  0  0  0  0  0  0  0  0  0  0
  194.9090  174.5800  145.0390 C   0  0  0  0  0  0  0  0  0  0  0  0
  191.9640  174.2570  145.5020 N   0  0  2  0  0  0  0  0  0  0  0  0
  188.1910  174.7030  140.0270 C   0  0  0  0  0  1  0  0  0  0  0  0
  190.9170  173.7820  143.3640 C   0  0  1  0  0  3  0  0  0  0  0  0
  194.2510  173.4640  144.9450 N   0  0  0  0  0  0  0  0  0  0  0  0
  194.2430  175.8360  145.0990 N   0  0  0  0  0  2  0  0  0  0  0  0
  188.9650  174.5270  141.3170 C   0  0  2  0  0  3  0  0  0  0  0  0
  189.5470  174.9410  145.3310 C   0  0  0  0  0  0  0  0  0  0  0  0
  190.8430  171.5250  142.6880 C   0  0  0  0  0  0  0  0  0  0  0  0
  196.3900  174.5430  145.1370 C   0  0  0  0  0  1  0  0  0  0  0  0
  189.3880  173.0650  141.4600 C   0  0  0  0  0  2  0  0  0  0  0  0
  189.2620  174.8840  146.7040 C   0  0  0  0  0  3  0  0  0  0  0  0
  187.7590  176.5810  145.0850 C   0  0  0  0  0  3  0  0  0  0  0  0
  187.5000  176.5160  146.4540 C   0  0  0  0  0  3  0  0  0  0  0  0
  188.1800  174.9340  142.3980 O   0  0  0  0  0  0  0  0  0  0  0  0
  192.3460  173.2140  143.3320 C   0  0  1  0  0  3  0  0  0  0  0  0
  189.9580  172.7010  142.8370 C   0  0  2  0  0  3  0  0  0  0  0  0
  192.8010  173.2900  144.7850 C   0  0  2  0  0  3  0  0  0  0  0  0
  193.3080  170.9090  142.7240 C   0  0  0  0  0  1  0  0  0  0  0  0
  190.6710  174.0410  144.8490 C   0  0  2  0  0  3  0  0  0  0  0  0
  1 21  2  0  0  0  0
  1 16  1  0  0  0  0
  2  8  2  0  0  0  0
  3 17  2  0  0  0  0
  5 24  1  0  0  0  0
  6  1  1  0  0  0  0
  8  7  2  0  0  0  0
  9 14  1  0  0  0  0
  9 18  1  0  0  0  0
 10  8  1  6  0  0  0
 11 15  1  0  0  0  0
 12 28  1  0  0  0  0
 13  9  2  0  0  0  0
 14  8  1  0  0  0  0
 15 19  1  0  0  0  0
 15 23  1  0  0  0  0
 16 20  2  0  0  0  0
 17 25  1  0  0  0  0
 17  5  1  0  0  0  0
 19 25  1  0  0  0  0
 20  4  1  0  0  0  0
 21 22  1  0  0  0  0
 22  4  2  0  0  0  0
 23  6  1  0  0  0  0
 24 12  1  0  0  0  0
 24 26  1  0  0  0  0
 25 12  1  0  0  0  0
 26 13  1  0  0  0  0
 26 10  1  0  0  0  0
 27  5  1  0  0  0  0
 28 16  1  0  0  0  0
 28 10  1  0  0  0  0
M  END
>  <MODEL>
9

>  <REMARK>
 VINA RESULT:      -7.3      2.157      3.008
  Name = 
  0 active torsions:
  status: ('A' for Active; 'I' for Inactive)
                            x       y       z     vdW  Elec       q    Type
                         _______ _______ _______ _____ _____    ______ ____

>  <TORSDO>
F 0

$$$$
