=
 OpenBabel11112417433D

 28 32  0  0  1  0  0  0  0  0999 V2000
  186.7220  178.2010  144.4430 C   0  0  0  0  0  0  0  0  0  0  0  0
  189.8700  177.9420  144.9270 O   0  0  0  0  0  1  0  0  0  0  0  0
  187.4410  172.6780  141.6290 C   0  0  0  0  0  2  0  0  0  0  0  0
  185.1920  177.6230  146.7220 C   0  0  0  0  0  3  0  0  0  0  0  0
  189.3480  173.6150  142.8590 C   0  0  0  0  0  0  0  0  0  0  0  0
  187.5840  178.6440  142.9400 S   0  0  0  0  0  0  0  0  0  0  0  0
  189.2680  177.7700  147.2130 C   0  0  0  0  0  1  0  0  0  0  0  0
  189.9000  177.0760  146.0230 C   0  0  1  0  0  0  0  0  0  0  0  0
  191.9870  176.1070  145.2410 N   0  0  0  0  0  0  0  0  0  0  0  0
  189.1320  175.7520  145.7330 C   0  0  2  0  0  3  0  0  0  0  0  0
  187.0660  177.5410  139.7020 O   0  0  0  0  0  0  0  0  0  0  0  0
  188.5070  175.7300  143.3720 C   0  0  1  0  0  3  0  0  0  0  0  0
  191.4830  174.7410  145.2350 C   0  0  0  0  0  2  0  0  0  0  0  0
  191.3560  176.7910  146.3620 C   0  0  0  0  0  2  0  0  0  0  0  0
  186.9770  177.0410  140.8540 C   0  0  0  0  0  0  0  0  0  0  0  0
  186.9130  176.9710  145.1250 C   0  0  0  0  0  0  0  0  0  0  0  0
  188.0900  173.7010  142.1720 C   0  0  0  0  0  0  0  0  0  0  0  0
  193.4030  176.0250  145.5450 C   0  0  0  0  0  1  0  0  0  0  0  0
  187.5400  175.7520  141.1050 N   0  0  0  0  0  2  0  0  0  0  0  0
  186.1340  176.7040  146.2590 C   0  0  0  0  0  3  0  0  0  0  0  0
  185.7780  179.1180  144.9210 C   0  0  0  0  0  3  0  0  0  0  0  0
  185.0170  178.8340  146.0550 C   0  0  0  0  0  3  0  0  0  0  0  0
  186.3190  177.8220  141.9330 C   0  0  0  0  0  2  0  0  0  0  0  0
  189.6140  174.7990  143.5840 N   0  0  0  0  0  0  0  0  0  0  0  0
  187.5130  175.0560  142.3880 C   0  0  2  0  0  3  0  0  0  0  0  0
  189.9710  174.6980  144.9910 C   0  0  2  0  0  3  0  0  0  0  0  0
  190.0860  172.5930  142.8990 O   0  0  0  0  0  0  0  0  0  0  0  0
  187.9380  175.9120  144.7780 C   0  0  2  0  0  3  0  0  0  0  0  0
  1 21  2  0  0  0  0
  1 16  1  0  0  0  0
  2  8  1  0  0  0  0
  3 17  2  0  0  0  0
  5 27  2  0  0  0  0
  5 24  1  0  0  0  0
  6  1  1  0  0  0  0
  8 14  1  0  0  0  0
  8  7  1  1  0  0  0
  9 18  1  0  0  0  0
  9 14  1  0  0  0  0
 10  8  1  0  0  0  0
 11 15  2  0  0  0  0
 12 24  1  0  0  0  0
 12 28  1  0  0  0  0
 13  9  1  0  0  0  0
 15 19  1  0  0  0  0
 15 23  1  0  0  0  0
 16 20  2  0  0  0  0
 17 25  1  0  0  0  0
 17  5  1  0  0  0  0
 19 25  1  0  0  0  0
 20  4  1  0  0  0  0
 21 22  1  0  0  0  0
 22  4  2  0  0  0  0
 23  6  1  0  0  0  0
 24 26  1  0  0  0  0
 25 12  1  0  0  0  0
 26 13  1  0  0  0  0
 26 10  1  0  0  0  0
 28 16  1  0  0  0  0
 28 10  1  0  0  0  0
M  END
>  <MODEL>
1

>  <REMARK>
 VINA RESULT:      -8.7      0.000      0.000
  Name = 
  0 active torsions:
  status: ('A' for Active; 'I' for Inactive)
                            x       y       z     vdW  Elec       q    Type
                         _______ _______ _______ _____ _____    ______ ____

>  <TORSDO>
F 0

$$$$
=
 OpenBabel11112417433D

 28 32  0  0  1  0  0  0  0  0999 V2000
  190.8450  175.1900  144.4220 C   0  0  0  0  0  0  0  0  0  0  0  0
  188.3030  175.8490  146.2420 O   0  0  0  0  0  1  0  0  0  0  0  0
  187.1040  177.0760  139.7970 C   0  0  0  0  0  2  0  0  0  0  0  0
  192.8430  177.1550  144.5420 C   0  0  0  0  0  3  0  0  0  0  0  0
  186.3390  177.3790  142.1100 C   0  0  0  0  0  0  0  0  0  0  0  0
  189.6730  173.8440  144.3010 S   0  0  0  0  0  0  0  0  0  0  0  0
  189.6710  177.5740  147.1190 C   0  0  0  0  0  1  0  0  0  0  0  0
  188.4070  177.2370  146.3520 C   0  0  1  0  0  0  0  0  0  0  0  0
  185.9870  177.4460  146.4360 N   0  0  0  0  0  0  0  0  0  0  0  0
  188.4560  177.9250  144.9540 C   0  0  2  0  0  3  0  0  0  0  0  0
  188.4000  172.2840  141.4880 O   0  0  0  0  0  0  0  0  0  0  0  0
  188.0180  176.2290  143.2510 C   0  0  1  0  0  3  0  0  0  0  0  0
  185.9140  178.3750  145.3180 C   0  0  0  0  0  2  0  0  0  0  0  0
  187.2180  177.7400  147.1580 C   0  0  0  0  0  2  0  0  0  0  0  0
  188.7600  173.4510  141.7910 C   0  0  0  0  0  0  0  0  0  0  0  0
  190.5150  176.5450  144.1570 C   0  0  0  0  0  0  0  0  0  0  0  0
  187.1490  176.7760  141.0890 C   0  0  0  0  0  0  0  0  0  0  0  0
  184.8910  177.7790  147.3260 C   0  0  0  0  0  1  0  0  0  0  0  0
  187.9220  174.5560  141.4440 N   0  0  0  0  0  2  0  0  0  0  0  0
  191.5320  177.5080  144.2200 C   0  0  0  0  0  3  0  0  0  0  0  0
  192.1630  174.8490  144.7490 C   0  0  0  0  0  3  0  0  0  0  0  0
  193.1580  175.8250  144.8110 C   0  0  0  0  0  3  0  0  0  0  0  0
  190.0320  173.6480  142.5330 C   0  0  0  0  0  2  0  0  0  0  0  0
  186.8370  177.0790  143.3980 N   0  0  0  0  0  0  0  0  0  0  0  0
  188.2120  175.9570  141.7350 C   0  0  2  0  0  3  0  0  0  0  0  0
  187.0700  178.1680  144.3340 C   0  0  2  0  0  3  0  0  0  0  0  0
  185.3660  178.1530  141.9020 O   0  0  0  0  0  0  0  0  0  0  0  0
  189.1310  177.0810  143.8600 C   0  0  2  0  0  3  0  0  0  0  0  0
  1 21  1  0  0  0  0
  2  8  1  0  0  0  0
  3 17  2  0  0  0  0
  4 22  1  0  0  0  0
  5 24  1  0  0  0  0
  6  1  1  0  0  0  0
  8  7  1  1  0  0  0
  8 14  1  0  0  0  0
  9 14  1  0  0  0  0
  9 18  1  0  0  0  0
 10  8  1  0  0  0  0
 11 15  2  0  0  0  0
 12 24  1  0  0  0  0
 12 28  1  0  0  0  0
 13  9  1  0  0  0  0
 15 23  1  0  0  0  0
 16 20  1  0  0  0  0
 16  1  2  0  0  0  0
 17 25  1  0  0  0  0
 17  5  1  0  0  0  0
 19 25  1  0  0  0  0
 19 15  1  0  0  0  0
 20  4  2  0  0  0  0
 21 22  2  0  0  0  0
 23  6  1  0  0  0  0
 24 26  1  0  0  0  0
 25 12  1  0  0  0  0
 26 10  1  0  0  0  0
 26 13  1  0  0  0  0
 27  5  2  0  0  0  0
 28 16  1  0  0  0  0
 28 10  1  0  0  0  0
M  END
>  <MODEL>
2

>  <REMARK>
 VINA RESULT:      -8.0      2.070      5.124
  Name = 
  0 active torsions:
  status: ('A' for Active; 'I' for Inactive)
                            x       y       z     vdW  Elec       q    Type
                         _______ _______ _______ _____ _____    ______ ____

>  <TORSDO>
F 0

$$$$
=
 OpenBabel11112417433D

 28 32  0  0  1  0  0  0  0  0999 V2000
  189.0070  176.2210  145.0130 C   0  0  0  0  0  0  0  0  0  0  0  0
  191.9670  176.9980  144.0930 O   0  0  0  0  0  1  0  0  0  0  0  0
  189.3170  172.3030  140.1650 C   0  0  0  0  0  2  0  0  0  0  0  0
  188.9410  174.5410  147.2580 C   0  0  0  0  0  3  0  0  0  0  0  0
  191.3560  173.5000  140.8280 C   0  0  0  0  0  0  0  0  0  0  0  0
  188.9130  177.3310  143.6140 S   0  0  0  0  0  0  0  0  0  0  0  0
  192.6130  176.0150  146.1500 C   0  0  0  0  0  1  0  0  0  0  0  0
  192.7000  175.9420  144.6380 C   0  0  1  0  0  0  0  0  0  0  0  0
  194.2770  176.0410  142.7920 N   0  0  0  0  0  0  0  0  0  0  0  0
  192.1660  174.5590  144.1580 C   0  0  2  0  0  3  0  0  0  0  0  0
  187.0990  177.0270  140.6830 O   0  0  0  0  0  0  0  0  0  0  0  0
  190.4800  174.9470  142.4340 C   0  0  1  0  0  3  0  0  0  0  0  0
  194.1140  174.6400  142.4270 C   0  0  0  0  0  2  0  0  0  0  0  0
  194.1590  176.1230  144.2410 C   0  0  0  0  0  2  0  0  0  0  0  0
  187.6870  176.2400  141.4700 C   0  0  0  0  0  0  0  0  0  0  0  0
  189.7450  175.0090  145.0050 C   0  0  0  0  0  0  0  0  0  0  0  0
  189.9340  173.3060  140.7790 C   0  0  0  0  0  0  0  0  0  0  0  0
  195.6440  176.3990  142.4630 C   0  0  0  0  0  1  0  0  0  0  0  0
  188.5400  175.2250  140.9380 N   0  0  0  0  0  2  0  0  0  0  0  0
  189.6940  174.1840  146.1380 C   0  0  0  0  0  3  0  0  0  0  0  0
  188.2610  176.5700  146.1450 C   0  0  0  0  0  3  0  0  0  0  0  0
  188.2280  175.7380  147.2630 C   0  0  0  0  0  3  0  0  0  0  0  0
  187.5060  176.4100  142.9350 C   0  0  0  0  0  2  0  0  0  0  0  0
  191.7060  174.4590  141.8050 N   0  0  0  0  0  0  0  0  0  0  0  0
  189.2840  174.2500  141.7300 C   0  0  2  0  0  3  0  0  0  0  0  0
  192.7190  174.1210  142.7930 C   0  0  2  0  0  3  0  0  0  0  0  0
  192.2020  172.8440  140.1620 O   0  0  0  0  0  0  0  0  0  0  0  0
  190.6520  174.5260  143.8930 C   0  0  2  0  0  3  0  0  0  0  0  0
  1 21  1  0  0  0  0
  2  8  1  0  0  0  0
  3 17  2  0  0  0  0
  4 22  1  0  0  0  0
  5 24  1  0  0  0  0
  6  1  1  0  0  0  0
  8  7  1  1  0  0  0
  9 14  1  0  0  0  0
 10  8  1  0  0  0  0
 11 15  2  0  0  0  0
 12 28  1  0  0  0  0
 13  9  1  0  0  0  0
 13 26  1  0  0  0  0
 14  8  1  0  0  0  0
 15 23  1  0  0  0  0
 16  1  2  0  0  0  0
 16 20  1  0  0  0  0
 17  5  1  0  0  0  0
 17 25  1  0  0  0  0
 18  9  1  0  0  0  0
 19 15  1  0  0  0  0
 19 25  1  0  0  0  0
 20  4  2  0  0  0  0
 21 22  2  0  0  0  0
 23  6  1  0  0  0  0
 24 12  1  0  0  0  0
 24 26  1  0  0  0  0
 25 12  1  0  0  0  0
 26 10  1  0  0  0  0
 27  5  2  0  0  0  0
 28 10  1  0  0  0  0
 28 16  1  0  0  0  0
M  END
>  <MODEL>
3

>  <REMARK>
 VINA RESULT:      -7.8      2.155      3.178
  Name = 
  0 active torsions:
  status: ('A' for Active; 'I' for Inactive)
                            x       y       z     vdW  Elec       q    Type
                         _______ _______ _______ _____ _____    ______ ____

>  <TORSDO>
F 0

$$$$
=
 OpenBabel11112417433D

 28 32  0  0  1  0  0  0  0  0999 V2000
  189.1660  175.8430  144.6500 C   0  0  0  0  0  0  0  0  0  0  0  0
  192.2690  176.4540  144.1920 O   0  0  0  0  0  1  0  0  0  0  0  0
  190.5910  170.4000  141.9500 C   0  0  0  0  0  2  0  0  0  0  0  0
  188.5420  175.1600  147.2980 C   0  0  0  0  0  3  0  0  0  0  0  0
  192.4230  171.9280  142.5280 C   0  0  0  0  0  0  0  0  0  0  0  0
  189.4250  176.3150  142.9450 S   0  0  0  0  0  0  0  0  0  0  0  0
  192.3890  176.3980  146.5590 C   0  0  0  0  0  1  0  0  0  0  0  0
  192.8380  175.7560  145.2610 C   0  0  1  0  0  0  0  0  0  0  0  0
  194.8140  175.2680  143.9340 N   0  0  0  0  0  0  0  0  0  0  0  0
  192.4190  174.2550  145.2590 C   0  0  2  0  0  3  0  0  0  0  0  0
  188.3670  174.7510  140.0460 O   0  0  0  0  0  0  0  0  0  0  0  0
  191.2020  173.8030  143.1890 C   0  0  1  0  0  3  0  0  0  0  0  0
  194.7280  173.8270  144.1250 C   0  0  0  0  0  2  0  0  0  0  0  0
  194.3510  175.8930  145.1650 C   0  0  0  0  0  2  0  0  0  0  0  0
  188.7390  174.3810  141.1890 C   0  0  0  0  0  0  0  0  0  0  0  0
  189.8700  174.7890  145.2890 C   0  0  0  0  0  0  0  0  0  0  0  0
  191.0530  171.6100  142.2410 C   0  0  0  0  0  0  0  0  0  0  0  0
  196.2240  175.5860  143.8090 C   0  0  0  0  0  1  0  0  0  0  0  0
  189.6840  173.3160  141.3090 N   0  0  0  0  0  2  0  0  0  0  0  0
  189.5380  174.4650  146.6110 C   0  0  0  0  0  3  0  0  0  0  0  0
  188.1730  176.5370  145.3520 C   0  0  0  0  0  3  0  0  0  0  0  0
  187.8620  176.2010  146.6690 C   0  0  0  0  0  3  0  0  0  0  0  0
  188.2120  175.0870  142.3860 C   0  0  0  0  0  2  0  0  0  0  0  0
  192.5380  173.2160  143.0990 N   0  0  0  0  0  0  0  0  0  0  0  0
  190.2040  172.7890  142.5680 C   0  0  2  0  0  3  0  0  0  0  0  0
  193.2800  173.3720  144.3410 C   0  0  2  0  0  3  0  0  0  0  0  0
  193.3980  171.1400  142.3850 O   0  0  0  0  0  0  0  0  0  0  0  0
  191.0130  173.9940  144.6930 C   0  0  2  0  0  3  0  0  0  0  0  0
  1 16  2  0  0  0  0
  1 21  1  0  0  0  0
  2  8  1  0  0  0  0
  3 17  2  0  0  0  0
  5 24  1  0  0  0  0
  6  1  1  0  0  0  0
  8  7  1  1  0  0  0
  9 13  1  0  0  0  0
  9 14  1  0  0  0  0
 10  8  1  0  0  0  0
 11 15  2  0  0  0  0
 12 28  1  0  0  0  0
 13 26  1  0  0  0  0
 14  8  1  0  0  0  0
 15 19  1  0  0  0  0
 15 23  1  0  0  0  0
 16 20  1  0  0  0  0
 17  5  1  0  0  0  0
 17 25  1  0  0  0  0
 18  9  1  0  0  0  0
 19 25  1  0  0  0  0
 20  4  2  0  0  0  0
 21 22  2  0  0  0  0
 22  4  1  0  0  0  0
 23  6  1  0  0  0  0
 24 12  1  0  0  0  0
 24 26  1  0  0  0  0
 25 12  1  0  0  0  0
 26 10  1  0  0  0  0
 27  5  2  0  0  0  0
 28 10  1  0  0  0  0
 28 16  1  0  0  0  0
M  END
>  <MODEL>
4

>  <REMARK>
 VINA RESULT:      -7.5      2.384      3.501
  Name = 
  0 active torsions:
  status: ('A' for Active; 'I' for Inactive)
                            x       y       z     vdW  Elec       q    Type
                         _______ _______ _______ _____ _____    ______ ____

>  <TORSDO>
F 0

$$$$
=
 OpenBabel11112417433D

 28 32  0  0  1  0  0  0  0  0999 V2000
  191.3960  174.3260  144.9290 C   0  0  0  0  0  0  0  0  0  0  0  0
  193.9750  175.4460  143.4100 O   0  0  0  0  0  1  0  0  0  0  0  0
  195.2100  169.6060  146.3850 C   0  0  0  0  0  2  0  0  0  0  0  0
  190.9030  175.5990  147.3790 C   0  0  0  0  0  3  0  0  0  0  0  0
  196.1680  171.5800  145.2850 C   0  0  0  0  0  0  0  0  0  0  0  0
  191.5710  173.4750  143.3650 S   0  0  0  0  0  0  0  0  0  0  0  0
  193.9100  177.1540  145.0520 C   0  0  0  0  0  1  0  0  0  0  0  0
  194.6940  175.9920  144.4760 C   0  0  1  0  0  0  0  0  0  0  0  0
  196.7940  175.4340  143.3870 N   0  0  0  0  0  0  0  0  0  0  0  0
  194.9520  174.9400  145.5970 C   0  0  2  0  0  3  0  0  0  0  0  0
  191.5190  170.0820  142.6900 O   0  0  0  0  0  0  0  0  0  0  0  0
  194.2180  172.7580  144.7830 C   0  0  1  0  0  3  0  0  0  0  0  0
  197.3100  174.6740  144.5170 C   0  0  0  0  0  2  0  0  0  0  0  0
  196.0090  176.5330  143.9330 C   0  0  0  0  0  2  0  0  0  0  0  0
  191.9170  170.8110  143.6360 C   0  0  0  0  0  0  0  0  0  0  0  0
  192.4250  174.3950  145.9040 C   0  0  0  0  0  0  0  0  0  0  0  0
  195.0900  170.7040  145.6500 C   0  0  0  0  0  0  0  0  0  0  0  0
  197.9410  176.0270  142.7270 C   0  0  0  0  0  1  0  0  0  0  0  0
  193.2100  170.5850  144.2000 N   0  0  0  0  0  2  0  0  0  0  0  0
  192.1530  175.0340  147.1220 C   0  0  0  0  0  3  0  0  0  0  0  0
  190.1480  174.9010  145.1960 C   0  0  0  0  0  3  0  0  0  0  0  0
  189.9010  175.5360  146.4130 C   0  0  0  0  0  3  0  0  0  0  0  0
  191.0430  171.9120  144.1190 C   0  0  0  0  0  2  0  0  0  0  0  0
  195.6790  172.8060  144.7780 N   0  0  0  0  0  0  0  0  0  0  0  0
  193.7980  171.3530  145.2930 C   0  0  2  0  0  3  0  0  0  0  0  0
  196.1790  174.0500  145.3410 C   0  0  2  0  0  3  0  0  0  0  0  0
  197.3920  171.3420  145.4710 O   0  0  0  0  0  0  0  0  0  0  0  0
  193.8410  173.8870  145.7410 C   0  0  2  0  0  3  0  0  0  0  0  0
  1 21  2  0  0  0  0
  1 16  1  0  0  0  0
  2  8  1  0  0  0  0
  5 27  2  0  0  0  0
  5 17  1  0  0  0  0
  6 23  1  0  0  0  0
  6  1  1  0  0  0  0
  8  7  1  1  0  0  0
  8 10  1  0  0  0  0
  9 14  1  0  0  0  0
  9 13  1  0  0  0  0
 10 28  1  0  0  0  0
 11 15  2  0  0  0  0
 12 25  1  0  0  0  0
 12 28  1  0  0  0  0
 13 26  1  0  0  0  0
 14  8  1  0  0  0  0
 15 23  1  0  0  0  0
 15 19  1  0  0  0  0
 16 20  2  0  0  0  0
 17  3  2  0  0  0  0
 18  9  1  0  0  0  0
 19 25  1  0  0  0  0
 20  4  1  0  0  0  0
 21 22  1  0  0  0  0
 22  4  2  0  0  0  0
 24 12  1  0  0  0  0
 24  5  1  0  0  0  0
 24 26  1  0  0  0  0
 25 17  1  0  0  0  0
 26 10  1  0  0  0  0
 28 16  1  0  0  0  0
M  END
>  <MODEL>
5

>  <REMARK>
 VINA RESULT:      -7.3      4.476      6.786
  Name = 
  0 active torsions:
  status: ('A' for Active; 'I' for Inactive)
                            x       y       z     vdW  Elec       q    Type
                         _______ _______ _______ _____ _____    ______ ____

>  <TORSDO>
F 0

$$$$
=
 OpenBabel11112417433D

 28 32  0  0  1  0  0  0  0  0999 V2000
  191.4720  173.8120  142.6350 C   0  0  0  0  0  0  0  0  0  0  0  0
  189.4190  176.1620  141.9480 O   0  0  0  0  0  1  0  0  0  0  0  0
  191.4040  176.4040  148.3110 C   0  0  0  0  0  2  0  0  0  0  0  0
  190.2360  171.3200  142.9960 C   0  0  0  0  0  3  0  0  0  0  0  0
  189.8020  177.2200  146.6400 C   0  0  0  0  0  0  0  0  0  0  0  0
  192.3830  175.3300  142.3760 S   0  0  0  0  0  0  0  0  0  0  0  0
  187.8530  174.4010  141.6910 C   0  0  0  0  0  1  0  0  0  0  0  0
  188.2340  175.6420  142.4750 C   0  0  1  0  0  0  0  0  0  0  0  0
  187.4650  177.8770  143.0400 N   0  0  0  0  0  0  0  0  0  0  0  0
  188.3850  175.2710  143.9810 C   0  0  2  0  0  3  0  0  0  0  0  0
  194.8180  176.7960  144.3500 O   0  0  0  0  0  0  0  0  0  0  0  0
  190.5590  176.0760  144.7520 C   0  0  1  0  0  3  0  0  0  0  0  0
  187.2450  177.5690  144.4470 C   0  0  0  0  0  2  0  0  0  0  0  0
  187.1340  176.6770  142.2830 C   0  0  0  0  0  2  0  0  0  0  0  0
  193.7770  176.1170  144.5510 C   0  0  0  0  0  0  0  0  0  0  0  0
  190.4070  173.6840  143.5640 C   0  0  0  0  0  0  0  0  0  0  0  0
  191.0070  176.5570  147.0540 C   0  0  0  0  0  0  0  0  0  0  0  0
  186.4850  178.8830  142.6770 C   0  0  0  0  0  1  0  0  0  0  0  0
  192.8450  176.5410  145.5470 N   0  0  0  0  0  2  0  0  0  0  0  0
  189.8080  172.4280  143.7290 C   0  0  0  0  0  3  0  0  0  0  0  0
  191.8900  172.6950  141.9010 C   0  0  0  0  0  3  0  0  0  0  0  0
  191.2760  171.4550  142.0780 C   0  0  0  0  0  3  0  0  0  0  0  0
  193.5270  174.9100  143.7200 C   0  0  0  0  0  2  0  0  0  0  0  0
  189.5090  176.9430  145.2850 N   0  0  0  0  0  0  0  0  0  0  0  0
  191.6010  175.8560  145.8830 C   0  0  2  0  0  3  0  0  0  0  0  0
  188.1820  176.4590  144.9350 C   0  0  2  0  0  3  0  0  0  0  0  0
  189.0420  177.8860  147.3940 O   0  0  0  0  0  0  0  0  0  0  0  0
  189.7960  174.8060  144.3770 C   0  0  2  0  0  3  0  0  0  0  0  0
  1 16  1  0  0  0  0
  2  8  1  0  0  0  0
  4 20  1  0  0  0  0
  5 17  1  0  0  0  0
  5 27  2  0  0  0  0
  6  1  1  0  0  0  0
  6 23  1  0  0  0  0
  8  7  1  6  0  0  0
  8 10  1  0  0  0  0
  9 13  1  0  0  0  0
 10 28  1  0  0  0  0
 10 26  1  0  0  0  0
 11 15  2  0  0  0  0
 12 24  1  0  0  0  0
 12 25  1  0  0  0  0
 13 26  1  0  0  0  0
 14  8  1  0  0  0  0
 14  9  1  0  0  0  0
 15 19  1  0  0  0  0
 16 20  2  0  0  0  0
 16 28  1  0  0  0  0
 17  3  2  0  0  0  0
 18  9  1  0  0  0  0
 19 25  1  0  0  0  0
 21 22  1  0  0  0  0
 21  1  2  0  0  0  0
 22  4  2  0  0  0  0
 23 15  1  0  0  0  0
 24  5  1  0  0  0  0
 25 17  1  0  0  0  0
 26 24  1  0  0  0  0
 28 12  1  0  0  0  0
M  END
>  <MODEL>
6

>  <REMARK>
 VINA RESULT:      -7.2      2.309      6.413
  Name = 
  0 active torsions:
  status: ('A' for Active; 'I' for Inactive)
                            x       y       z     vdW  Elec       q    Type
                         _______ _______ _______ _____ _____    ______ ____

>  <TORSDO>
F 0

$$$$
=
 OpenBabel11112417433D

 28 32  0  0  1  0  0  0  0  0999 V2000
  190.1970  175.1420  142.0040 C   0  0  0  0  0  0  0  0  0  0  0  0
  188.5000  177.8300  142.3270 O   0  0  0  0  0  1  0  0  0  0  0  0
  188.7520  174.3720  148.0260 C   0  0  0  0  0  2  0  0  0  0  0  0
  188.8020  173.0930  140.6890 C   0  0  0  0  0  3  0  0  0  0  0  0
  187.6820  176.2090  146.7970 C   0  0  0  0  0  0  0  0  0  0  0  0
  191.2090  176.3810  142.8040 S   0  0  0  0  0  0  0  0  0  0  0  0
  186.9820  176.7730  140.8450 C   0  0  0  0  0  1  0  0  0  0  0  0
  187.1970  177.3340  142.2370 C   0  0  1  0  0  0  0  0  0  0  0  0
  186.4040  179.0460  143.7690 N   0  0  0  0  0  0  0  0  0  0  0  0
  186.9310  176.2150  143.2890 C   0  0  2  0  0  3  0  0  0  0  0  0
  193.1000  176.1450  145.6910 O   0  0  0  0  0  0  0  0  0  0  0  0
  188.8580  176.0980  144.7850 C   0  0  1  0  0  3  0  0  0  0  0  0
  185.8090  178.0980  144.7010 C   0  0  0  0  0  2  0  0  0  0  0  0
  186.2320  178.4960  142.4310 C   0  0  0  0  0  2  0  0  0  0  0  0
  192.0150  175.6600  145.2780 C   0  0  0  0  0  0  0  0  0  0  0  0
  188.9200  174.7430  142.4790 C   0  0  0  0  0  0  0  0  0  0  0  0
  188.7060  175.2240  147.0090 C   0  0  0  0  0  0  0  0  0  0  0  0
  185.5990  180.2510  143.8320 C   0  0  0  0  0  1  0  0  0  0  0  0
  190.8730  175.6640  146.1370 N   0  0  0  0  0  2  0  0  0  0  0  0
  188.2450  173.7150  141.8070 C   0  0  0  0  0  3  0  0  0  0  0  0
  190.7430  174.5150  140.8780 C   0  0  0  0  0  3  0  0  0  0  0  0
  190.0510  173.4970  140.2210 C   0  0  0  0  0  3  0  0  0  0  0  0
  191.9400  175.1280  143.8930 C   0  0  0  0  0  2  0  0  0  0  0  0
  187.7440  176.7340  145.4860 N   0  0  0  0  0  0  0  0  0  0  0  0
  189.5550  175.1400  145.7890 C   0  0  2  0  0  3  0  0  0  0  0  0
  186.5360  176.7490  144.6750 C   0  0  2  0  0  3  0  0  0  0  0  0
  186.7800  176.5100  147.6260 O   0  0  0  0  0  0  0  0  0  0  0  0
  188.1670  175.3680  143.6340 C   0  0  2  0  0  3  0  0  0  0  0  0
  1 16  1  0  0  0  0
  1  6  1  0  0  0  0
  4 20  1  0  0  0  0
  5 17  1  0  0  0  0
  5 27  2  0  0  0  0
  6 23  1  0  0  0  0
  8  7  1  6  0  0  0
  8  2  1  0  0  0  0
  8 14  1  0  0  0  0
  8 10  1  0  0  0  0
  9 18  1  0  0  0  0
  9 13  1  0  0  0  0
 10 28  1  0  0  0  0
 10 26  1  0  0  0  0
 12 24  1  0  0  0  0
 12 25  1  0  0  0  0
 14  9  1  0  0  0  0
 15 11  2  0  0  0  0
 15 19  1  0  0  0  0
 16 28  1  0  0  0  0
 17  3  2  0  0  0  0
 20 16  2  0  0  0  0
 21  1  2  0  0  0  0
 22  4  2  0  0  0  0
 22 21  1  0  0  0  0
 23 15  1  0  0  0  0
 24  5  1  0  0  0  0
 25 19  1  0  0  0  0
 25 17  1  0  0  0  0
 26 13  1  0  0  0  0
 26 24  1  0  0  0  0
 28 12  1  0  0  0  0
M  END
>  <MODEL>
7

>  <REMARK>
 VINA RESULT:      -7.2      2.240      5.997
  Name = 
  0 active torsions:
  status: ('A' for Active; 'I' for Inactive)
                            x       y       z     vdW  Elec       q    Type
                         _______ _______ _______ _____ _____    ______ ____

>  <TORSDO>
F 0

$$$$
=
 OpenBabel11112417433D

 28 32  0  0  1  0  0  0  0  0999 V2000
  188.5980  176.6810  144.7150 C   0  0  0  0  0  0  0  0  0  0  0  0
  189.2470  173.6590  143.9060 O   0  0  0  0  0  1  0  0  0  0  0  0
  194.8120  177.1650  145.0130 C   0  0  0  0  0  2  0  0  0  0  0  0
  187.8810  178.2910  142.5320 C   0  0  0  0  0  3  0  0  0  0  0  0
  193.8480  175.0980  144.1050 C   0  0  0  0  0  0  0  0  0  0  0  0
  188.9860  175.7500  146.1920 S   0  0  0  0  0  0  0  0  0  0  0  0
  188.3480  174.2750  141.8010 C   0  0  0  0  0  1  0  0  0  0  0  0
  189.5770  173.8100  142.5570 C   0  0  1  0  0  0  0  0  0  0  0  0
  191.1700  171.9800  142.7080 N   0  0  0  0  0  0  0  0  0  0  0  0
  190.7260  174.8430  142.3560 C   0  0  2  0  0  3  0  0  0  0  0  0
  191.1920  176.5030  148.7490 O   0  0  0  0  0  0  0  0  0  0  0  0
  191.5880  175.4670  144.5550 C   0  0  1  0  0  3  0  0  0  0  0  0
  192.2910  172.7630  142.2090 C   0  0  0  0  0  2  0  0  0  0  0  0
  189.9780  172.4460  142.0110 C   0  0  0  0  0  2  0  0  0  0  0  0
  191.1490  176.6920  147.5050 C   0  0  0  0  0  0  0  0  0  0  0  0
  189.4530  176.7540  143.5840 C   0  0  0  0  0  0  0  0  0  0  0  0
  193.8050  176.3120  144.8720 C   0  0  0  0  0  0  0  0  0  0  0  0
  191.3950  170.6120  142.2790 C   0  0  0  0  0  1  0  0  0  0  0  0
  192.3050  176.4160  146.7130 N   0  0  0  0  0  2  0  0  0  0  0  0
  189.0750  177.5680  142.5080 C   0  0  0  0  0  3  0  0  0  0  0  0
  187.4000  177.4060  144.7250 C   0  0  0  0  0  3  0  0  0  0  0  0
  187.0410  178.2060  143.6400 C   0  0  0  0  0  3  0  0  0  0  0  0
  189.8820  177.1650  146.8880 C   0  0  0  0  0  2  0  0  0  0  0  0
  192.5480  174.5830  143.8950 N   0  0  0  0  0  0  0  0  0  0  0  0
  192.3960  176.5860  145.2660 C   0  0  2  0  0  3  0  0  0  0  0  0
  192.1320  174.2510  142.5410 C   0  0  2  0  0  3  0  0  0  0  0  0
  194.8870  174.5940  143.5990 O   0  0  0  0  0  0  0  0  0  0  0  0
  190.7400  175.9800  143.3920 C   0  0  2  0  0  3  0  0  0  0  0  0
  1 21  1  0  0  0  0
  1  6  1  0  0  0  0
  4 22  1  0  0  0  0
  5 17  1  0  0  0  0
  6 23  1  0  0  0  0
  8  7  1  6  0  0  0
  8  2  1  0  0  0  0
 10 26  1  0  0  0  0
 10  8  1  0  0  0  0
 10 28  1  0  0  0  0
 12 25  1  0  0  0  0
 13 26  1  0  0  0  0
 13  9  1  0  0  0  0
 14  8  1  0  0  0  0
 14  9  1  0  0  0  0
 15 11  2  0  0  0  0
 16  1  2  0  0  0  0
 17  3  2  0  0  0  0
 17 25  1  0  0  0  0
 18  9  1  0  0  0  0
 19 15  1  0  0  0  0
 20  4  2  0  0  0  0
 20 16  1  0  0  0  0
 22 21  2  0  0  0  0
 23 15  1  0  0  0  0
 24  5  1  0  0  0  0
 24 12  1  0  0  0  0
 25 19  1  0  0  0  0
 26 24  1  0  0  0  0
 27  5  2  0  0  0  0
 28 16  1  0  0  0  0
 28 12  1  0  0  0  0
M  END
>  <MODEL>
8

>  <REMARK>
 VINA RESULT:      -7.2      2.509      5.460
  Name = 
  0 active torsions:
  status: ('A' for Active; 'I' for Inactive)
                            x       y       z     vdW  Elec       q    Type
                         _______ _______ _______ _____ _____    ______ ____

>  <TORSDO>
F 0

$$$$
=
 OpenBabel11112417433D

 28 32  0  0  1  0  0  0  0  0999 V2000
  192.3610  174.1560  144.4620 C   0  0  0  0  0  0  0  0  0  0  0  0
  189.8740  174.9330  146.3120 O   0  0  0  0  0  1  0  0  0  0  0  0
  188.2480  174.9910  139.8440 C   0  0  0  0  0  2  0  0  0  0  0  0
  194.2040  176.2450  144.1350 C   0  0  0  0  0  3  0  0  0  0  0  0
  187.5840  175.6200  142.1220 C   0  0  0  0  0  0  0  0  0  0  0  0
  191.2920  172.7320  144.6370 S   0  0  0  0  0  0  0  0  0  0  0  0
  191.1480  176.8690  146.8090 C   0  0  0  0  0  1  0  0  0  0  0  0
  189.8760  176.3250  146.1890 C   0  0  1  0  0  0  0  0  0  0  0  0
  187.4550  176.3800  146.3940 N   0  0  0  0  0  0  0  0  0  0  0  0
  189.7980  176.7730  144.6990 C   0  0  2  0  0  3  0  0  0  0  0  0
  189.9970  170.6450  142.2000 O   0  0  0  0  0  0  0  0  0  0  0  0
  189.4040  174.7920  143.3240 C   0  0  1  0  0  3  0  0  0  0  0  0
  187.2510  177.1040  145.1480 C   0  0  0  0  0  2  0  0  0  0  0  0
  188.6950  176.8730  146.9790 C   0  0  0  0  0  2  0  0  0  0  0  0
  190.2810  171.8670  142.2870 C   0  0  0  0  0  0  0  0  0  0  0  0
  191.9130  175.4230  144.0040 C   0  0  0  0  0  0  0  0  0  0  0  0
  188.3840  174.9120  141.1620 C   0  0  0  0  0  0  0  0  0  0  0  0
  186.3840  176.7810  147.2870 C   0  0  0  0  0  1  0  0  0  0  0  0
  189.3430  172.8400  141.8210 N   0  0  0  0  0  2  0  0  0  0  0  0
  192.8540  176.4500  143.8450 C   0  0  0  0  0  3  0  0  0  0  0  0
  193.7160  173.9650  144.7550 C   0  0  0  0  0  3  0  0  0  0  0  0
  194.6340  175.0020  144.5950 C   0  0  0  0  0  3  0  0  0  0  0  0
  191.5710  172.2700  142.9050 C   0  0  0  0  0  2  0  0  0  0  0  0
  188.1700  175.5720  143.4070 N   0  0  0  0  0  0  0  0  0  0  0  0
  189.5390  174.2860  141.8620 C   0  0  2  0  0  3  0  0  0  0  0  0
  188.3670  176.8150  144.1380 C   0  0  2  0  0  3  0  0  0  0  0  0
  186.5440  176.2810  141.8550 O   0  0  0  0  0  0  0  0  0  0  0  0
  190.4780  175.8070  143.7140 C   0  0  2  0  0  3  0  0  0  0  0  0
  1  6  1  0  0  0  0
  1 21  1  0  0  0  0
  3 17  2  0  0  0  0
  4 22  1  0  0  0  0
  5 24  1  0  0  0  0
  8  2  1  0  0  0  0
  8  7  1  1  0  0  0
  8 14  1  0  0  0  0
  9 14  1  0  0  0  0
  9 18  1  0  0  0  0
 10  8  1  0  0  0  0
 11 15  2  0  0  0  0
 12 24  1  0  0  0  0
 12 28  1  0  0  0  0
 13  9  1  0  0  0  0
 15 23  1  0  0  0  0
 16  1  2  0  0  0  0
 17 25  1  0  0  0  0
 17  5  1  0  0  0  0
 19 25  1  0  0  0  0
 19 15  1  0  0  0  0
 20 16  1  0  0  0  0
 20  4  2  0  0  0  0
 22 21  2  0  0  0  0
 23  6  1  0  0  0  0
 24 26  1  0  0  0  0
 25 12  1  0  0  0  0
 26 10  1  0  0  0  0
 26 13  1  0  0  0  0
 27  5  2  0  0  0  0
 28 16  1  0  0  0  0
 28 10  1  0  0  0  0
M  END
>  <MODEL>
9

>  <REMARK>
 VINA RESULT:      -6.9      2.347      5.470
  Name = 
  0 active torsions:
  status: ('A' for Active; 'I' for Inactive)
                            x       y       z     vdW  Elec       q    Type
                         _______ _______ _______ _____ _____    ______ ____

>  <TORSDO>
F 0

$$$$
