=
 OpenBabel11112417373D

 28 31  0  0  1  0  0  0  0  0999 V2000
  191.5150  173.9720  142.7960 C   0  0  0  0  0  0  0  0  0  0  0  0
  188.7030  175.2480  140.6510 O   0  0  0  0  0  0  0  0  0  0  0  0
  189.7420  171.8090  142.9620 C   0  0  0  0  0  3  0  0  0  0  0  0
  192.5240  175.0790  142.8320 C   0  0  0  0  0  2  0  0  0  0  0  0
  187.0650  174.3840  142.2870 O   0  0  0  0  0  0  0  0  0  0  0  0
  187.8240  175.5950  141.8190 S   0  0  0  0  0  0  0  0  0  0  0  0
  186.0020  177.4510  142.6480 C   0  0  2  0  0  3  0  0  0  0  0  0
  188.7510  176.3080  143.0980 N   0  0  1  0  0  0  0  0  0  0  0  0
  193.9510  176.7060  146.0320 C   0  0  0  0  0  1  0  0  0  0  0  0
  189.6850  175.7030  145.2650 C   0  0  2  0  0  3  0  0  0  0  0  0
  187.0020  177.8670  143.7380 C   0  0  0  0  0  2  0  0  0  0  0  0
  186.6670  176.8820  141.3830 C   0  0  0  0  0  2  0  0  0  0  0  0
  193.0480  176.5590  144.8180 C   0  0  2  0  0  3  0  0  0  0  0  0
  190.2000  174.1750  143.2630 C   0  0  0  0  0  0  0  0  0  0  0  0
  185.2070  178.5420  142.3030 O   0  0  0  0  0  1  0  0  0  0  0  0
  191.7290  177.0110  145.0830 O   0  0  0  0  0  0  0  0  0  0  0  0
  189.3330  173.0800  143.3760 C   0  0  0  0  0  3  0  0  0  0  0  0
  191.9190  172.6950  142.3900 C   0  0  0  0  0  3  0  0  0  0  0  0
  191.0310  171.6190  142.4600 C   0  0  0  0  0  3  0  0  0  0  0  0
  193.1480  175.1500  144.2190 C   0  0  0  0  0  2  0  0  0  0  0  0
  188.6360  176.7980  145.4230 C   0  0  1  0  0  3  0  0  0  0  0  0
  191.0490  176.0630  145.8790 C   0  0  1  0  0  3  0  0  0  0  0  0
  187.8190  176.6480  144.1540 C   0  0  2  0  0  3  0  0  0  0  0  0
  189.8080  175.5350  143.7600 C   0  0  1  0  0  3  0  0  0  0  0  0
  191.1260  175.4350  148.0020 C   0  0  0  0  0  1  0  0  0  0  0  0
  190.9030  176.5430  147.1830 O   0  0  0  0  0  0  0  0  0  0  0  0
  187.7830  176.5140  146.6480 C   0  0  0  0  0  2  0  0  0  0  0  0
  187.2410  177.8060  147.2280 C   0  0  0  0  0  1  0  0  0  0  0  0
  1  4  1  0  0  0  0
  1 14  1  0  0  0  0
  2  6  2  0  0  0  0
  3 17  1  0  0  0  0
  4 20  1  0  0  0  0
  6  5  2  0  0  0  0
  7 15  1  6  0  0  0
  7 11  1  0  0  0  0
  8  6  1  6  0  0  0
  8 24  1  0  0  0  0
  8 23  1  0  0  0  0
 10 21  1  0  0  0  0
 10 22  1  0  0  0  0
 11 23  1  0  0  0  0
 12  6  1  0  0  0  0
 12  7  1  0  0  0  0
 13 16  1  0  0  0  0
 13  9  1  0  0  0  0
 14 17  2  0  0  0  0
 14 24  1  0  0  0  0
 16 22  1  0  0  0  0
 18 19  1  0  0  0  0
 18  1  2  0  0  0  0
 19  3  2  0  0  0  0
 20 13  1  0  0  0  0
 21 27  1  0  0  0  0
 22 26  1  0  0  0  0
 23 21  1  0  0  0  0
 24 10  1  0  0  0  0
 26 25  1  0  0  0  0
 27 28  1  0  0  0  0
M  END
>  <MODEL>
1

>  <REMARK>
 VINA RESULT:      -7.3      0.000      0.000
  Name = 
  2 active torsions:
  status: ('A' for Active; 'I' for Inactive)
    1  A    between atoms: C_5  and  C_24
    2  A    between atoms: O_17  and  C_25
                            x       y       z     vdW  Elec       q    Type
                         _______ _______ _______ _____ _____    ______ ____

>  <TORSDO>
F 2

$$$$
=
 OpenBabel11112417373D

 28 31  0  0  1  0  0  0  0  0999 V2000
  187.4760  177.5410  145.2260 C   0  0  0  0  0  0  0  0  0  0  0  0
  190.6760  177.9520  147.1560 O   0  0  0  0  0  0  0  0  0  0  0  0
  186.8590  176.0710  147.5290 C   0  0  0  0  0  3  0  0  0  0  0  0
  187.7010  178.2500  143.9250 C   0  0  0  0  0  2  0  0  0  0  0  0
  190.5900  175.5690  147.8020 O   0  0  0  0  0  0  0  0  0  0  0  0
  191.1710  176.5690  146.8410 S   0  0  0  0  0  0  0  0  0  0  0  0
  193.4640  175.1900  146.2960 C   0  0  2  0  0  3  0  0  0  0  0  0
  190.8310  176.1520  145.1930 N   0  0  1  0  0  0  0  0  0  0  0  0
  187.2660  176.6890  140.4180 C   0  0  0  0  0  1  0  0  0  0  0  0
  189.2630  174.7960  143.9140 C   0  0  2  0  0  3  0  0  0  0  0  0
  192.9020  174.9200  144.8910 C   0  0  0  0  0  2  0  0  0  0  0  0
  192.9530  176.4980  146.9240 C   0  0  0  0  0  2  0  0  0  0  0  0
  188.0050  177.1580  141.6610 C   0  0  2  0  0  3  0  0  0  0  0  0
  188.3010  176.4670  145.6160 C   0  0  0  0  0  0  0  0  0  0  0  0
  194.8560  175.2130  146.2450 O   0  0  0  0  0  1  0  0  0  0  0  0
  189.0720  176.2880  142.0010 O   0  0  0  0  0  0  0  0  0  0  0  0
  187.9630  175.7150  146.7500 C   0  0  0  0  0  3  0  0  0  0  0  0
  186.3680  177.8860  146.0070 C   0  0  0  0  0  3  0  0  0  0  0  0
  186.0670  177.1620  147.1630 C   0  0  0  0  0  3  0  0  0  0  0  0
  187.0280  177.4730  142.8010 C   0  0  0  0  0  2  0  0  0  0  0  0
  190.6830  174.2680  143.7480 C   0  0  1  0  0  3  0  0  0  0  0  0
  188.5600  175.1070  142.5810 C   0  0  1  0  0  3  0  0  0  0  0  0
  191.3820  174.8300  144.9720 C   0  0  2  0  0  3  0  0  0  0  0  0
  189.4430  176.0670  144.7270 C   0  0  1  0  0  3  0  0  0  0  0  0
  187.5560  173.2480  141.9170 C   0  0  0  0  0  1  0  0  0  0  0  0
  188.6830  174.0380  141.6880 O   0  0  0  0  0  0  0  0  0  0  0  0
  190.6700  172.7490  143.7880 C   0  0  0  0  0  2  0  0  0  0  0  0
  189.7370  172.2550  144.8770 C   0  0  0  0  0  1  0  0  0  0  0  0
  1 14  2  0  0  0  0
  1 18  1  0  0  0  0
  4  1  1  0  0  0  0
  6 12  1  0  0  0  0
  6  2  2  0  0  0  0
  6  5  2  0  0  0  0
  7 15  1  6  0  0  0
  7 12  1  0  0  0  0
  8  6  1  1  0  0  0
  9 13  1  0  0  0  0
 10 24  1  0  0  0  0
 11 23  1  0  0  0  0
 11  7  1  0  0  0  0
 13 16  1  0  0  0  0
 13 20  1  0  0  0  0
 14 17  1  0  0  0  0
 16 22  1  0  0  0  0
 17  3  2  0  0  0  0
 18 19  2  0  0  0  0
 19  3  1  0  0  0  0
 20  4  1  0  0  0  0
 21 27  1  0  0  0  0
 21 10  1  0  0  0  0
 21 23  1  0  0  0  0
 22 10  1  0  0  0  0
 23  8  1  0  0  0  0
 24  8  1  0  0  0  0
 24 14  1  0  0  0  0
 26 25  1  0  0  0  0
 26 22  1  0  0  0  0
 27 28  1  0  0  0  0
M  END
>  <MODEL>
2

>  <REMARK>
 VINA RESULT:      -7.2      2.068      6.403
  Name = 
  2 active torsions:
  status: ('A' for Active; 'I' for Inactive)
    1  A    between atoms: C_5  and  C_24
    2  A    between atoms: O_17  and  C_25
                            x       y       z     vdW  Elec       q    Type
                         _______ _______ _______ _____ _____    ______ ____

>  <TORSDO>
F 2

$$$$
=
 OpenBabel11112417373D

 28 31  0  0  1  0  0  0  0  0999 V2000
  188.8530  176.6170  145.6040 C   0  0  0  0  0  0  0  0  0  0  0  0
  192.4410  176.9700  146.6720 O   0  0  0  0  0  0  0  0  0  0  0  0
  189.0620  174.4480  147.3640 C   0  0  0  0  0  3  0  0  0  0  0  0
  188.6260  177.7070  144.6010 C   0  0  0  0  0  2  0  0  0  0  0  0
  192.7340  174.5230  146.4880 O   0  0  0  0  0  0  0  0  0  0  0  0
  192.9240  175.8460  145.8000 S   0  0  0  0  0  0  0  0  0  0  0  0
  195.0510  175.0980  144.2600 C   0  0  2  0  0  3  0  0  0  0  0  0
  192.1440  175.8860  144.2530 N   0  0  1  0  0  0  0  0  0  0  0  0
  187.2920  177.2060  141.0100 C   0  0  0  0  0  1  0  0  0  0  0  0
  190.3760  174.7260  143.0430 C   0  0  2  0  0  3  0  0  0  0  0  0
  194.1200  175.1660  143.0380 C   0  0  0  0  0  2  0  0  0  0  0  0
  194.6500  176.0550  145.3950 C   0  0  0  0  0  2  0  0  0  0  0  0
  188.3280  177.4040  142.1050 C   0  0  2  0  0  3  0  0  0  0  0  0
  189.8370  175.6300  145.3900 C   0  0  0  0  0  0  0  0  0  0  0  0
  196.3590  175.3680  143.8640 O   0  0  0  0  0  1  0  0  0  0  0  0
  189.5120  176.6650  141.8510 O   0  0  0  0  0  0  0  0  0  0  0  0
  189.9100  174.5310  146.2560 C   0  0  0  0  0  3  0  0  0  0  0  0
  188.0040  176.5230  146.7110 C   0  0  0  0  0  3  0  0  0  0  0  0
  188.1160  175.4480  147.5970 C   0  0  0  0  0  3  0  0  0  0  0  0
  187.7130  177.1960  143.4950 C   0  0  0  0  0  2  0  0  0  0  0  0
  191.7190  174.5190  142.3530 C   0  0  1  0  0  3  0  0  0  0  0  0
  189.2870  175.2960  142.1160 C   0  0  1  0  0  3  0  0  0  0  0  0
  192.7040  174.8020  143.4720 C   0  0  2  0  0  3  0  0  0  0  0  0
  190.6900  175.7110  144.1580 C   0  0  1  0  0  3  0  0  0  0  0  0
  188.2630  173.5880  141.1470 C   0  0  0  0  0  1  0  0  0  0  0  0
  189.2210  174.5770  140.9190 O   0  0  0  0  0  0  0  0  0  0  0  0
  191.8350  173.0760  141.8880 C   0  0  0  0  0  2  0  0  0  0  0  0
  191.3420  172.1310  142.9650 C   0  0  0  0  0  1  0  0  0  0  0  0
  1 18  1  0  0  0  0
  3 19  1  0  0  0  0
  4  1  1  0  0  0  0
  6  5  2  0  0  0  0
  6  2  2  0  0  0  0
  7 15  1  6  0  0  0
  7 12  1  0  0  0  0
  8  6  1  1  0  0  0
  9 13  1  0  0  0  0
 10 24  1  0  0  0  0
 11 23  1  0  0  0  0
 11  7  1  0  0  0  0
 12  6  1  0  0  0  0
 13 20  1  0  0  0  0
 14  1  2  0  0  0  0
 14 17  1  0  0  0  0
 16 13  1  0  0  0  0
 16 22  1  0  0  0  0
 17  3  2  0  0  0  0
 18 19  2  0  0  0  0
 20  4  1  0  0  0  0
 21 10  1  0  0  0  0
 21 23  1  0  0  0  0
 22 10  1  0  0  0  0
 23  8  1  0  0  0  0
 24  8  1  0  0  0  0
 24 14  1  0  0  0  0
 26 25  1  0  0  0  0
 26 22  1  0  0  0  0
 27 21  1  0  0  0  0
 27 28  1  0  0  0  0
M  END
>  <MODEL>
3

>  <REMARK>
 VINA RESULT:      -7.0      2.180      6.445
  Name = 
  2 active torsions:
  status: ('A' for Active; 'I' for Inactive)
    1  A    between atoms: C_5  and  C_24
    2  A    between atoms: O_17  and  C_25
                            x       y       z     vdW  Elec       q    Type
                         _______ _______ _______ _____ _____    ______ ____

>  <TORSDO>
F 2

$$$$
=
 OpenBabel11112417373D

 28 31  0  0  1  0  0  0  0  0999 V2000
  190.6260  176.8450  145.6030 C   0  0  0  0  0  0  0  0  0  0  0  0
  194.2980  177.6050  145.3370 O   0  0  0  0  0  0  0  0  0  0  0  0
  191.5660  175.5640  147.9100 C   0  0  0  0  0  3  0  0  0  0  0  0
  190.0050  177.4410  144.3760 C   0  0  0  0  0  2  0  0  0  0  0  0
  194.8250  175.2910  146.0240 O   0  0  0  0  0  0  0  0  0  0  0  0
  194.6600  176.2270  144.8590 S   0  0  0  0  0  0  0  0  0  0  0  0
  196.3620  174.9290  143.1650 C   0  0  2  0  0  3  0  0  0  0  0  0
  193.4900  175.6420  143.7220 N   0  0  1  0  0  0  0  0  0  0  0  0
  187.8170  175.5400  141.8220 C   0  0  0  0  0  1  0  0  0  0  0  0
  191.6140  174.0900  143.6320 C   0  0  2  0  0  3  0  0  0  0  0  0
  195.1340  174.4990  142.3470 C   0  0  0  0  0  2  0  0  0  0  0  0
  196.1730  176.2600  143.9120 C   0  0  0  0  0  2  0  0  0  0  0  0
  189.0790  176.1620  142.3980 C   0  0  2  0  0  3  0  0  0  0  0  0
  191.6270  175.8580  145.5010 C   0  0  0  0  0  0  0  0  0  0  0  0
  197.4710  175.0210  142.3270 O   0  0  0  0  0  1  0  0  0  0  0  0
  190.2300  175.3860  142.1060 O   0  0  0  0  0  0  0  0  0  0  0  0
  192.0650  175.1980  146.6570 C   0  0  0  0  0  3  0  0  0  0  0  0
  190.1270  177.2010  146.8610 C   0  0  0  0  0  3  0  0  0  0  0  0
  190.6050  176.5720  148.0130 C   0  0  0  0  0  3  0  0  0  0  0  0
  188.8940  176.5280  143.8760 C   0  0  0  0  0  2  0  0  0  0  0  0
  192.7340  173.6260  142.7090 C   0  0  1  0  0  3  0  0  0  0  0  0
  190.2540  174.2380  142.9270 C   0  0  1  0  0  3  0  0  0  0  0  0
  193.9440  174.3360  143.2870 C   0  0  2  0  0  3  0  0  0  0  0  0
  192.0970  175.4390  144.1380 C   0  0  1  0  0  3  0  0  0  0  0  0
  189.2010  172.2910  143.0290 C   0  0  0  0  0  1  0  0  0  0  0  0
  189.9530  173.0990  142.1740 O   0  0  0  0  0  0  0  0  0  0  0  0
  192.8930  172.1190  142.8180 C   0  0  0  0  0  2  0  0  0  0  0  0
  192.7650  171.6760  144.2630 C   0  0  0  0  0  1  0  0  0  0  0  0
  1 18  1  0  0  0  0
  3 19  1  0  0  0  0
  4  1  1  0  0  0  0
  6  2  2  0  0  0  0
  6  5  2  0  0  0  0
  7 15  1  6  0  0  0
  7 12  1  0  0  0  0
  8 24  1  0  0  0  0
  8  6  1  1  0  0  0
  9 13  1  0  0  0  0
 10 24  1  0  0  0  0
 11  7  1  0  0  0  0
 11 23  1  0  0  0  0
 12  6  1  0  0  0  0
 13 20  1  0  0  0  0
 14  1  2  0  0  0  0
 14 17  1  0  0  0  0
 16 13  1  0  0  0  0
 16 22  1  0  0  0  0
 17  3  2  0  0  0  0
 18 19  2  0  0  0  0
 20  4  1  0  0  0  0
 21 27  1  0  0  0  0
 21 23  1  0  0  0  0
 21 10  1  0  0  0  0
 22 10  1  0  0  0  0
 23  8  1  0  0  0  0
 24 14  1  0  0  0  0
 26 22  1  0  0  0  0
 26 25  1  0  0  0  0
 27 28  1  0  0  0  0
M  END
>  <MODEL>
4

>  <REMARK>
 VINA RESULT:      -6.9      2.794      6.819
  Name = 
  2 active torsions:
  status: ('A' for Active; 'I' for Inactive)
    1  A    between atoms: C_5  and  C_24
    2  A    between atoms: O_17  and  C_25
                            x       y       z     vdW  Elec       q    Type
                         _______ _______ _______ _____ _____    ______ ____

>  <TORSDO>
F 2

$$$$
=
 OpenBabel11112417373D

 28 31  0  0  1  0  0  0  0  0999 V2000
  191.9350  174.1820  144.7770 C   0  0  0  0  0  0  0  0  0  0  0  0
  189.6670  175.9930  147.1670 O   0  0  0  0  0  0  0  0  0  0  0  0
  193.0240  176.7590  144.6380 C   0  0  0  0  0  3  0  0  0  0  0  0
  191.4140  172.7770  144.7190 C   0  0  0  0  0  2  0  0  0  0  0  0
  189.5630  177.9100  145.6120 O   0  0  0  0  0  0  0  0  0  0  0  0
  188.8730  176.6590  146.0790 S   0  0  0  0  0  0  0  0  0  0  0  0
  186.3330  177.4490  145.4630 C   0  0  2  0  0  3  0  0  0  0  0  0
  188.5750  175.5610  144.7720 N   0  0  1  0  0  0  0  0  0  0  0  0
  190.4010  170.8930  141.5020 C   0  0  0  0  0  1  0  0  0  0  0  0
  189.3840  175.1040  142.5200 C   0  0  2  0  0  3  0  0  0  0  0  0
  186.3460  176.4160  144.3250 C   0  0  0  0  0  2  0  0  0  0  0  0
  187.2330  177.0700  146.6520 C   0  0  0  0  0  2  0  0  0  0  0  0
  190.2030  171.7110  142.7690 C   0  0  2  0  0  3  0  0  0  0  0  0
  191.1180  175.2710  144.4120 C   0  0  0  0  0  0  0  0  0  0  0  0
  185.0270  177.6330  145.9100 O   0  0  0  0  0  1  0  0  0  0  0  0
  189.1780  172.6810  142.6160 O   0  0  0  0  0  0  0  0  0  0  0  0
  191.6810  176.5510  144.3110 C   0  0  0  0  0  3  0  0  0  0  0  0
  193.2800  174.3970  145.0960 C   0  0  0  0  0  3  0  0  0  0  0  0
  193.8200  175.6840  145.0400 C   0  0  0  0  0  3  0  0  0  0  0  0
  191.5390  172.2490  143.2970 C   0  0  0  0  0  2  0  0  0  0  0  0
  187.9230  175.5330  142.4840 C   0  0  1  0  0  3  0  0  0  0  0  0
  189.6490  173.7540  141.8300 C   0  0  1  0  0  3  0  0  0  0  0  0
  187.7710  176.2730  143.8000 C   0  0  2  0  0  3  0  0  0  0  0  0
  189.6970  175.0100  144.0040 C   0  0  1  0  0  3  0  0  0  0  0  0
  190.1320  173.7960  139.6680 C   0  0  0  0  0  1  0  0  0  0  0  0
  189.0630  173.7160  140.5610 O   0  0  0  0  0  0  0  0  0  0  0  0
  187.6950  176.4710  141.3100 C   0  0  0  0  0  2  0  0  0  0  0  0
  188.2040  177.8610  141.6370 C   0  0  0  0  0  1  0  0  0  0  0  0
  1 18  1  0  0  0  0
  3 19  1  0  0  0  0
  4  1  1  0  0  0  0
  5  6  2  0  0  0  0
  6 12  1  0  0  0  0
  6  2  2  0  0  0  0
  7 15  1  1  0  0  0
  7 12  1  0  0  0  0
  8  6  1  1  0  0  0
  9 13  1  0  0  0  0
 10 24  1  0  0  0  0
 11  7  1  0  0  0  0
 13 20  1  0  0  0  0
 14  1  2  0  0  0  0
 16 13  1  0  0  0  0
 17 14  1  0  0  0  0
 17  3  2  0  0  0  0
 19 18  2  0  0  0  0
 20  4  1  0  0  0  0
 21 10  1  0  0  0  0
 21 23  1  0  0  0  0
 22 10  1  0  0  0  0
 22 16  1  0  0  0  0
 23 11  1  0  0  0  0
 23  8  1  0  0  0  0
 24 14  1  0  0  0  0
 24  8  1  0  0  0  0
 25 26  1  0  0  0  0
 26 22  1  0  0  0  0
 27 28  1  0  0  0  0
 27 21  1  0  0  0  0
M  END
>  <MODEL>
5

>  <REMARK>
 VINA RESULT:      -6.8      1.940      4.801
  Name = 
  2 active torsions:
  status: ('A' for Active; 'I' for Inactive)
    1  A    between atoms: C_5  and  C_24
    2  A    between atoms: O_17  and  C_25
                            x       y       z     vdW  Elec       q    Type
                         _______ _______ _______ _____ _____    ______ ____

>  <TORSDO>
F 2

$$$$
=
 OpenBabel11112417373D

 28 31  0  0  1  0  0  0  0  0999 V2000
  192.0230  173.2990  142.0510 C   0  0  0  0  0  0  0  0  0  0  0  0
  189.0290  174.5680  140.1640 O   0  0  0  0  0  0  0  0  0  0  0  0
  190.0720  171.5000  142.9480 C   0  0  0  0  0  3  0  0  0  0  0  0
  193.1440  174.2270  141.6930 C   0  0  0  0  0  2  0  0  0  0  0  0
  187.6370  174.2820  142.1850 O   0  0  0  0  0  0  0  0  0  0  0  0
  188.4310  175.2550  141.3590 S   0  0  0  0  0  0  0  0  0  0  0  0
  187.0250  177.4870  142.0600 C   0  0  2  0  0  3  0  0  0  0  0  0
  189.6580  176.0440  142.2950 N   0  0  1  0  0  0  0  0  0  0  0  0
  195.3250  176.1830  144.2110 C   0  0  0  0  0  1  0  0  0  0  0  0
  190.9030  175.7170  144.3630 C   0  0  2  0  0  3  0  0  0  0  0  0
  188.2540  177.9410  142.8650 C   0  0  0  0  0  2  0  0  0  0  0  0
  187.3710  176.5990  140.8530 C   0  0  0  0  0  2  0  0  0  0  0  0
  194.1990  175.9530  143.2150 C   0  0  2  0  0  3  0  0  0  0  0  0
  190.8520  173.7820  142.6690 C   0  0  0  0  0  0  0  0  0  0  0  0
  186.3140  178.6040  141.6260 O   0  0  0  0  0  1  0  0  0  0  0  0
  193.0160  176.6410  143.5870 O   0  0  0  0  0  0  0  0  0  0  0  0
  189.8990  172.8720  143.1470 C   0  0  0  0  0  3  0  0  0  0  0  0
  192.1920  171.9230  141.8620 C   0  0  0  0  0  3  0  0  0  0  0  0
  191.2130  171.0260  142.2980 C   0  0  0  0  0  3  0  0  0  0  0  0
  194.0200  174.4590  142.9160 C   0  0  0  0  0  2  0  0  0  0  0  0
  190.0380  176.9680  144.4540 C   0  0  1  0  0  3  0  0  0  0  0  0
  192.3900  175.9720  144.6610 C   0  0  1  0  0  3  0  0  0  0  0  0
  188.9860  176.7110  143.3910 C   0  0  2  0  0  3  0  0  0  0  0  0
  190.7220  175.2550  142.9260 C   0  0  1  0  0  3  0  0  0  0  0  0
  192.7370  175.7420  146.8370 C   0  0  0  0  0  1  0  0  0  0  0  0
  192.5470  176.7030  145.8430 O   0  0  0  0  0  0  0  0  0  0  0  0
  189.4010  177.0490  145.8310 C   0  0  0  0  0  2  0  0  0  0  0  0
  188.8030  175.7100  146.2180 C   0  0  0  0  0  1  0  0  0  0  0  0
  1 14  1  0  0  0  0
  2  6  2  0  0  0  0
  3 17  1  0  0  0  0
  4  1  1  0  0  0  0
  4 20  1  0  0  0  0
  6  5  2  0  0  0  0
  7 15  1  6  0  0  0
  7 11  1  0  0  0  0
  8  6  1  1  0  0  0
  8 24  1  0  0  0  0
  8 23  1  0  0  0  0
 10 21  1  0  0  0  0
 10 22  1  0  0  0  0
 11 23  1  0  0  0  0
 12  6  1  0  0  0  0
 12  7  1  0  0  0  0
 13 16  1  0  0  0  0
 13  9  1  0  0  0  0
 14 24  1  0  0  0  0
 14 17  2  0  0  0  0
 16 22  1  0  0  0  0
 18  1  2  0  0  0  0
 18 19  1  0  0  0  0
 19  3  2  0  0  0  0
 20 13  1  0  0  0  0
 21 27  1  0  0  0  0
 22 26  1  0  0  0  0
 23 21  1  0  0  0  0
 24 10  1  0  0  0  0
 26 25  1  0  0  0  0
 27 28  1  0  0  0  0
M  END
>  <MODEL>
6

>  <REMARK>
 VINA RESULT:      -6.8      1.306      1.524
  Name = 
  2 active torsions:
  status: ('A' for Active; 'I' for Inactive)
    1  A    between atoms: C_5  and  C_24
    2  A    between atoms: O_17  and  C_25
                            x       y       z     vdW  Elec       q    Type
                         _______ _______ _______ _____ _____    ______ ____

>  <TORSDO>
F 2

$$$$
=
 OpenBabel11112417373D

 28 31  0  0  1  0  0  0  0  0999 V2000
  186.2290  176.8530  143.2260 C   0  0  0  0  0  0  0  0  0  0  0  0
  187.2510  173.4890  141.8920 O   0  0  0  0  0  0  0  0  0  0  0  0
  187.2790  177.6030  140.7400 C   0  0  0  0  0  3  0  0  0  0  0  0
  185.6910  176.5900  144.6000 C   0  0  0  0  0  2  0  0  0  0  0  0
  189.3580  174.4670  141.0480 O   0  0  0  0  0  0  0  0  0  0  0  0
  188.7120  173.7020  142.1700 S   0  0  0  0  0  0  0  0  0  0  0  0
  190.9530  172.3650  142.9720 C   0  0  2  0  0  3  0  0  0  0  0  0
  188.9410  174.4850  143.6990 N   0  0  1  0  0  0  0  0  0  0  0  0
  186.9120  178.2910  147.8470 C   0  0  0  0  0  1  0  0  0  0  0  0
  189.4800  176.6900  144.5860 C   0  0  2  0  0  3  0  0  0  0  0  0
  190.9540  173.2380  144.2380 C   0  0  0  0  0  2  0  0  0  0  0  0
  189.5530  172.1410  142.3770 C   0  0  0  0  0  2  0  0  0  0  0  0
  186.8090  177.2070  146.7850 C   0  0  2  0  0  3  0  0  0  0  0  0
  187.5540  176.5110  142.8910 C   0  0  0  0  0  0  0  0  0  0  0  0
  191.5400  171.1340  143.2550 O   0  0  0  0  0  1  0  0  0  0  0  0
  188.0570  176.5720  146.5570 O   0  0  0  0  0  0  0  0  0  0  0  0
  188.0820  176.9220  141.6590 C   0  0  0  0  0  3  0  0  0  0  0  0
  185.4330  177.5410  142.3030 C   0  0  0  0  0  3  0  0  0  0  0  0
  185.9530  177.9040  141.0580 C   0  0  0  0  0  3  0  0  0  0  0  0
  186.0980  177.7250  145.5290 C   0  0  0  0  0  2  0  0  0  0  0  0
  190.5740  175.6900  144.9410 C   0  0  1  0  0  3  0  0  0  0  0  0
  188.8960  177.4240  145.8050 C   0  0  1  0  0  3  0  0  0  0  0  0
  190.3720  174.6050  143.9000 C   0  0  2  0  0  3  0  0  0  0  0  0
  188.4130  175.8360  143.9200 C   0  0  1  0  0  3  0  0  0  0  0  0
  190.0660  177.0010  147.6380 C   0  0  0  0  0  1  0  0  0  0  0  0
  189.9120  177.9380  146.6160 O   0  0  0  0  0  0  0  0  0  0  0  0
  191.9360  176.3450  144.7750 C   0  0  0  0  0  2  0  0  0  0  0  0
  191.9410  177.2570  143.5640 C   0  0  0  0  0  1  0  0  0  0  0  0
  1  4  1  0  0  0  0
  2  6  2  0  0  0  0
  3 19  2  0  0  0  0
  3 17  1  0  0  0  0
  4 20  1  0  0  0  0
  5  6  2  0  0  0  0
  6 12  1  0  0  0  0
  7 15  1  1  0  0  0
  7 11  1  0  0  0  0
  8  6  1  6  0  0  0
  8 23  1  0  0  0  0
  8 24  1  0  0  0  0
 10 21  1  0  0  0  0
 10 22  1  0  0  0  0
 12  7  1  0  0  0  0
 13  9  1  0  0  0  0
 14  1  1  0  0  0  0
 14 24  1  0  0  0  0
 16 13  1  0  0  0  0
 17 14  2  0  0  0  0
 18  1  2  0  0  0  0
 19 18  1  0  0  0  0
 20 13  1  0  0  0  0
 22 16  1  0  0  0  0
 22 26  1  0  0  0  0
 23 11  1  0  0  0  0
 23 21  1  0  0  0  0
 24 10  1  0  0  0  0
 26 25  1  0  0  0  0
 27 21  1  0  0  0  0
 28 27  1  0  0  0  0
M  END
>  <MODEL>
7

>  <REMARK>
 VINA RESULT:      -6.6      1.779      5.335
  Name = 
  2 active torsions:
  status: ('A' for Active; 'I' for Inactive)
    1  A    between atoms: C_5  and  C_24
    2  A    between atoms: O_17  and  C_25
                            x       y       z     vdW  Elec       q    Type
                         _______ _______ _______ _____ _____    ______ ____

>  <TORSDO>
F 2

$$$$
=
 OpenBabel11112417373D

 28 31  0  0  1  0  0  0  0  0999 V2000
  189.5540  175.2920  144.7790 C   0  0  0  0  0  0  0  0  0  0  0  0
  189.9530  171.6870  143.7860 O   0  0  0  0  0  0  0  0  0  0  0  0
  189.9300  175.5760  142.0180 C   0  0  0  0  0  3  0  0  0  0  0  0
  189.3960  175.2800  146.2700 C   0  0  0  0  0  2  0  0  0  0  0  0
  191.8070  172.3110  142.2770 O   0  0  0  0  0  0  0  0  0  0  0  0
  191.4450  171.7820  143.6360 S   0  0  0  0  0  0  0  0  0  0  0  0
  193.7290  170.3390  144.0320 C   0  0  2  0  0  3  0  0  0  0  0  0
  192.1340  172.7400  144.9060 N   0  0  1  0  0  0  0  0  0  0  0  0
  191.5660  177.2740  148.7680 C   0  0  0  0  0  1  0  0  0  0  0  0
  193.0350  174.9760  145.2540 C   0  0  2  0  0  3  0  0  0  0  0  0
  194.1330  171.3730  145.0960 C   0  0  0  0  0  2  0  0  0  0  0  0
  192.2080  170.1840  143.8670 C   0  0  0  0  0  2  0  0  0  0  0  0
  191.1070  176.0710  147.9600 C   0  0  2  0  0  3  0  0  0  0  0  0
  190.7120  174.7690  144.1700 C   0  0  0  0  0  0  0  0  0  0  0  0
  194.2900  169.1040  144.3470 O   0  0  0  0  0  1  0  0  0  0  0  0
  192.2010  175.2830  147.5190 O   0  0  0  0  0  0  0  0  0  0  0  0
  190.9080  174.9480  142.7940 C   0  0  0  0  0  3  0  0  0  0  0  0
  188.5820  175.9260  143.9970 C   0  0  0  0  0  3  0  0  0  0  0  0
  188.7640  176.0560  142.6180 C   0  0  0  0  0  3  0  0  0  0  0  0
  190.1150  176.4830  146.8650 C   0  0  0  0  0  2  0  0  0  0  0  0
  194.1180  173.9250  145.4680 C   0  0  1  0  0  3  0  0  0  0  0  0
  192.8560  175.9290  146.4480 C   0  0  1  0  0  3  0  0  0  0  0  0
  193.5690  172.7350  144.7050 C   0  0  2  0  0  3  0  0  0  0  0  0
  191.7750  174.1560  145.0360 C   0  0  1  0  0  3  0  0  0  0  0  0
  194.3160  177.5480  146.0550 C   0  0  0  0  0  1  0  0  0  0  0  0
  194.0860  176.4410  146.8720 O   0  0  0  0  0  0  0  0  0  0  0  0
  195.4220  174.4040  144.8500 C   0  0  0  0  0  2  0  0  0  0  0  0
  196.5810  174.1470  145.7940 C   0  0  0  0  0  1  0  0  0  0  0  0
  1  4  1  0  0  0  0
  3 19  2  0  0  0  0
  3 17  1  0  0  0  0
  4 20  1  0  0  0  0
  5  6  2  0  0  0  0
  6  2  2  0  0  0  0
  6 12  1  0  0  0  0
  7 15  1  1  0  0  0
  7 11  1  0  0  0  0
  8  6  1  6  0  0  0
  8 24  1  0  0  0  0
 10 21  1  0  0  0  0
 10 22  1  0  0  0  0
 12  7  1  0  0  0  0
 13  9  1  0  0  0  0
 14  1  1  0  0  0  0
 14 24  1  0  0  0  0
 16 13  1  0  0  0  0
 17 14  2  0  0  0  0
 18  1  2  0  0  0  0
 19 18  1  0  0  0  0
 20 13  1  0  0  0  0
 22 26  1  0  0  0  0
 22 16  1  0  0  0  0
 23  8  1  0  0  0  0
 23 11  1  0  0  0  0
 23 21  1  0  0  0  0
 24 10  1  0  0  0  0
 25 26  1  0  0  0  0
 27 21  1  0  0  0  0
 27 28  1  0  0  0  0
M  END
>  <MODEL>
8

>  <REMARK>
 VINA RESULT:      -6.5      3.078      6.090
  Name = 
  2 active torsions:
  status: ('A' for Active; 'I' for Inactive)
    1  A    between atoms: C_5  and  C_24
    2  A    between atoms: O_17  and  C_25
                            x       y       z     vdW  Elec       q    Type
                         _______ _______ _______ _____ _____    ______ ____

>  <TORSDO>
F 2

$$$$
=
 OpenBabel11112417373D

 28 31  0  0  1  0  0  0  0  0999 V2000
  188.3920  176.4960  144.4960 C   0  0  0  0  0  0  0  0  0  0  0  0
  187.6380  173.6520  142.1550 O   0  0  0  0  0  0  0  0  0  0  0  0
  188.4320  177.8480  142.0430 C   0  0  0  0  0  3  0  0  0  0  0  0
  188.4520  175.8820  145.8620 C   0  0  0  0  0  2  0  0  0  0  0  0
  189.3560  174.4890  140.5880 O   0  0  0  0  0  0  0  0  0  0  0  0
  189.0610  173.5130  141.6920 S   0  0  0  0  0  0  0  0  0  0  0  0
  190.8920  171.6300  140.9470 C   0  0  2  0  0  3  0  0  0  0  0  0
  190.1610  173.6890  143.0200 N   0  0  1  0  0  0  0  0  0  0  0  0
  191.4210  176.1690  148.3180 C   0  0  0  0  0  1  0  0  0  0  0  0
  191.6830  175.3470  143.9530 C   0  0  2  0  0  3  0  0  0  0  0  0
  191.7120  172.0150  142.1890 C   0  0  0  0  0  2  0  0  0  0  0  0
  189.3790  171.8550  141.1110 C   0  0  0  0  0  2  0  0  0  0  0  0
  190.5380  175.5360  147.2540 C   0  0  2  0  0  3  0  0  0  0  0  0
  189.2620  176.0690  143.4730 C   0  0  0  0  0  0  0  0  0  0  0  0
  191.1310  170.2960  140.6270 O   0  0  0  0  0  1  0  0  0  0  0  0
  191.2990  174.8160  146.2970 O   0  0  0  0  0  0  0  0  0  0  0  0
  189.3000  176.7750  142.2620 C   0  0  0  0  0  3  0  0  0  0  0  0
  187.5300  177.5750  144.2720 C   0  0  0  0  0  3  0  0  0  0  0  0
  187.5410  178.2420  143.0440 C   0  0  0  0  0  3  0  0  0  0  0  0
  189.5510  176.5560  146.6720 C   0  0  0  0  0  2  0  0  0  0  0  0
  192.4540  174.1180  143.4850 C   0  0  1  0  0  3  0  0  0  0  0  0
  191.9450  175.7170  145.4230 C   0  0  1  0  0  3  0  0  0  0  0  0
  191.4950  173.4950  142.4890 C   0  0  2  0  0  3  0  0  0  0  0  0
  190.2270  174.9560  143.7570 C   0  0  1  0  0  3  0  0  0  0  0  0
  193.6910  177.0800  145.4760 C   0  0  0  0  0  1  0  0  0  0  0  0
  193.3160  175.7530  145.6950 O   0  0  0  0  0  0  0  0  0  0  0  0
  193.7370  174.5540  142.7950 C   0  0  0  0  0  2  0  0  0  0  0  0
  193.4880  175.7820  141.9410 C   0  0  0  0  0  1  0  0  0  0  0  0
  1  4  1  0  0  0  0
  3 17  2  0  0  0  0
  3 19  1  0  0  0  0
  4 20  1  0  0  0  0
  5  6  2  0  0  0  0
  6  2  2  0  0  0  0
  7 15  1  1  0  0  0
  7 12  1  0  0  0  0
  7 11  1  0  0  0  0
  8  6  1  6  0  0  0
  8 24  1  0  0  0  0
 10 22  1  0  0  0  0
 11 23  1  0  0  0  0
 12  6  1  0  0  0  0
 13  9  1  0  0  0  0
 14 24  1  0  0  0  0
 14  1  2  0  0  0  0
 16 13  1  0  0  0  0
 17 14  1  0  0  0  0
 18  1  1  0  0  0  0
 19 18  2  0  0  0  0
 20 13  1  0  0  0  0
 21 10  1  0  0  0  0
 22 26  1  0  0  0  0
 22 16  1  0  0  0  0
 23  8  1  0  0  0  0
 23 21  1  0  0  0  0
 24 10  1  0  0  0  0
 25 26  1  0  0  0  0
 27 21  1  0  0  0  0
 28 27  1  0  0  0  0
M  END
>  <MODEL>
9

>  <REMARK>
 VINA RESULT:      -6.4      1.822      5.193
  Name = 
  2 active torsions:
  status: ('A' for Active; 'I' for Inactive)
    1  A    between atoms: C_5  and  C_24
    2  A    between atoms: O_17  and  C_25
                            x       y       z     vdW  Elec       q    Type
                         _______ _______ _______ _____ _____    ______ ____

>  <TORSDO>
F 2

$$$$
