=
 OpenBabel11112417553D

 34 41  0  0  1  0  0  0  0  0999 V2000
  190.5260  174.6620  144.0580 C   0  0  0  0  0  0  0  0  0  0  0  0
  189.6690  176.5370  145.6200 C   0  0  0  0  0  2  0  0  0  0  0  0
  190.9280  172.0310  138.1360 C   0  0  2  0  0  3  0  0  0  0  0  0
  191.1580  172.9820  142.4180 C   0  0  0  0  0  0  0  0  0  0  0  0
  190.0150  172.9900  140.1940 C   0  0  0  0  0  0  0  0  0  0  0  0
  188.8520  173.2050  137.5710 S   0  0  0  0  0  0  0  0  0  0  0  0
  190.3150  172.4140  136.8110 C   0  0  0  0  0  2  0  0  0  0  0  0
  191.4550  170.2730  139.8380 C   0  0  0  0  0  2  0  0  0  0  0  0
  188.7930  176.3470  143.4520 C   0  0  0  0  0  0  0  0  0  0  0  0
  186.6270  178.3010  142.2430 C   0  0  0  0  0  2  0  0  0  0  0  0
  189.2640  174.0300  140.5790 C   0  0  0  0  0  3  0  0  0  0  0  0
  192.0310  171.4470  140.6480 C   0  0  0  0  0  2  0  0  0  0  0  0
  188.6350  175.8140  142.2190 C   0  0  0  0  0  0  0  0  0  0  0  0
  188.5940  177.5570  145.3710 C   0  0  0  0  0  3  0  0  0  0  0  0
  191.0100  172.4200  141.0970 N   0  0  0  0  0  0  0  0  0  0  0  0
  191.3510  170.5870  138.3320 C   0  0  0  0  0  2  0  0  0  0  0  0
  187.0040  178.2450  143.6460 N   0  0  0  0  0  0  0  0  0  0  0  0
  190.3840  174.0950  142.7870 C   0  0  0  0  0  0  0  0  0  0  0  0
  189.6740  172.2880  138.9140 C   0  0  1  0  0  3  0  0  0  0  0  0
  189.4390  174.6610  141.8560 N   0  0  0  0  0  0  0  0  0  0  0  0
  192.2040  173.0130  144.6180 C   0  0  0  0  0  3  0  0  0  0  0  0
  186.4220  176.9120  141.6880 C   0  0  0  0  0  2  0  0  0  0  0  0
  192.0680  172.4470  143.3460 C   0  0  0  0  0  3  0  0  0  0  0  0
  187.7570  176.4330  141.1650 C   0  0  0  0  0  2  0  0  0  0  0  0
  188.1150  177.4600  144.1280 C   0  0  0  0  0  0  0  0  0  0  0  0
  191.4330  174.1230  144.9770 C   0  0  0  0  0  3  0  0  0  0  0  0
  189.7150  175.7930  144.3730 N   0  0  0  0  0  0  0  0  0  0  0  0
  186.1860  179.0240  144.5670 C   0  0  0  0  0  2  0  0  0  0  0  0
  184.8320  178.3600  144.7610 C   0  0  0  0  0  2  0  0  0  0  0  0
  186.0400  176.8810  147.4230 N   0  0  0  0  0  2  0  0  0  0  0  0
  185.4750  179.1050  146.8820 C   0  0  0  0  0  2  0  0  0  0  0  0
  184.5330  178.2520  146.1790 N   0  0  0  0  0  0  0  0  0  0  0  0
  186.1660  178.2410  147.9000 C   0  0  0  0  0  2  0  0  0  0  0  0
  184.8540  176.8840  146.5760 C   0  0  0  0  0  2  0  0  0  0  0  0
  1 27  1  0  0  0  0
  1 26  1  0  0  0  0
  3  7  1  6  0  0  0
  3 16  1  0  0  0  0
  3 19  1  0  0  0  0
  4 18  1  0  0  0  0
  4 23  2  0  0  0  0
  5 11  2  0  0  0  0
  5 15  1  0  0  0  0
  7  6  1  0  0  0  0
  8 12  1  0  0  0  0
  9 25  1  0  0  0  0
  9 27  1  0  0  0  0
 10 17  1  0  0  0  0
 11 20  1  0  0  0  0
 12 15  1  0  0  0  0
 13  9  2  0  0  0  0
 14  2  1  0  0  0  0
 15  4  1  0  0  0  0
 16  8  1  0  0  0  0
 17 25  1  0  0  0  0
 17 28  1  0  0  0  0
 18  1  2  0  0  0  0
 19  6  1  6  0  0  0
 19  5  1  0  0  0  0
 20 13  1  0  0  0  0
 20 18  1  0  0  0  0
 21 26  2  0  0  0  0
 22 10  1  0  0  0  0
 23 21  1  0  0  0  0
 24 22  1  0  0  0  0
 24 13  1  0  0  0  0
 25 14  2  0  0  0  0
 27  2  1  0  0  0  0
 28 29  1  0  0  0  0
 29 32  1  0  0  0  0
 30 33  1  0  0  0  0
 31 33  1  0  0  0  0
 32 34  1  0  0  0  0
 32 31  1  0  0  0  0
 34 30  1  0  0  0  0
M  END
>  <MODEL>
1

>  <REMARK>
 VINA RESULT:      -7.9      0.000      0.000
  Name = 
  3 active torsions:
  status: ('A' for Active; 'I' for Inactive)
    1  A    between atoms: N_17  and  C_28
    2  A    between atoms: C_28  and  C_29
    3  A    between atoms: C_29  and  N_32
                            x       y       z     vdW  Elec       q    Type
                         _______ _______ _______ _____ _____    ______ ____

>  <TORSDO>
F 3

$$$$
=
 OpenBabel11112417553D

 34 41  0  0  1  0  0  0  0  0999 V2000
  192.6080  176.2100  144.6440 C   0  0  0  0  0  0  0  0  0  0  0  0
  190.8620  178.0160  144.0300 C   0  0  0  0  0  2  0  0  0  0  0  0
  195.1190  170.2900  143.7470 C   0  0  2  0  0  3  0  0  0  0  0  0
  194.1000  174.3440  145.0960 C   0  0  0  0  0  0  0  0  0  0  0  0
  193.5220  172.0960  144.1660 C   0  0  0  0  0  0  0  0  0  0  0  0
  192.9400  169.5980  142.8630 S   0  0  0  0  0  0  0  0  0  0  0  0
  194.7110  169.1370  142.8630 C   0  0  0  0  0  2  0  0  0  0  0  0
  195.8290  171.1360  145.9930 C   0  0  0  0  0  2  0  0  0  0  0  0
  190.5820  175.8230  143.2450 C   0  0  0  0  0  0  0  0  0  0  0  0
  188.1980  174.8980  141.3940 C   0  0  0  0  0  2  0  0  0  0  0  0
  192.4020  172.6000  143.6310 C   0  0  0  0  0  3  0  0  0  0  0  0
  195.7930  172.5160  145.3150 C   0  0  0  0  0  2  0  0  0  0  0  0
  190.8790  174.5120  143.0910 C   0  0  0  0  0  0  0  0  0  0  0  0
  189.5870  177.8710  143.2480 C   0  0  0  0  0  3  0  0  0  0  0  0
  194.4340  172.9510  144.9190 N   0  0  0  0  0  0  0  0  0  0  0  0
  195.9490  169.9800  144.9790 C   0  0  0  0  0  2  0  0  0  0  0  0
  188.2640  176.1740  142.0870 N   0  0  0  0  0  0  0  0  0  0  0  0
  192.9390  174.8580  144.4960 C   0  0  0  0  0  0  0  0  0  0  0  0
  193.7160  170.6090  144.1640 C   0  0  1  0  0  3  0  0  0  0  0  0
  192.0800  173.9960  143.7230 N   0  0  0  0  0  0  0  0  0  0  0  0
  194.5810  176.5540  145.9990 C   0  0  0  0  0  3  0  0  0  0  0  0
  188.5930  173.7680  142.3140 C   0  0  0  0  0  2  0  0  0  0  0  0
  194.9170  175.2050  145.8480 C   0  0  0  0  0  3  0  0  0  0  0  0
  190.0900  173.5940  142.1980 C   0  0  0  0  0  2  0  0  0  0  0  0
  189.4440  176.6270  142.7840 C   0  0  0  0  0  0  0  0  0  0  0  0
  193.4260  177.0600  145.3960 C   0  0  0  0  0  3  0  0  0  0  0  0
  191.4190  176.6740  144.0070 N   0  0  0  0  0  0  0  0  0  0  0  0
  187.0560  176.9900  142.0580 C   0  0  0  0  0  2  0  0  0  0  0  0
  186.0870  176.5350  143.1380 C   0  0  0  0  0  2  0  0  0  0  0  0
  185.6060  179.0410  145.1940 N   0  0  0  0  0  2  0  0  0  0  0  0
  185.6350  178.8110  142.8480 C   0  0  0  0  0  2  0  0  0  0  0  0
  185.0980  177.5720  143.3820 N   0  0  0  0  0  0  0  0  0  0  0  0
  185.6150  179.8110  143.9700 C   0  0  0  0  0  2  0  0  0  0  0  0
  185.0240  177.7550  144.8280 C   0  0  0  0  0  2  0  0  0  0  0  0
  1 26  1  0  0  0  0
  3  7  1  6  0  0  0
  3 19  1  0  0  0  0
  3 16  1  0  0  0  0
  4 23  2  0  0  0  0
  5 15  1  0  0  0  0
  7  6  1  0  0  0  0
  9 27  1  0  0  0  0
 10 17  1  0  0  0  0
 10 22  1  0  0  0  0
 11 20  1  0  0  0  0
 11  5  2  0  0  0  0
 12  8  1  0  0  0  0
 13  9  2  0  0  0  0
 13 20  1  0  0  0  0
 14  2  1  0  0  0  0
 15  4  1  0  0  0  0
 15 12  1  0  0  0  0
 16  8  1  0  0  0  0
 17 25  1  0  0  0  0
 18  1  2  0  0  0  0
 18  4  1  0  0  0  0
 19  6  1  6  0  0  0
 19  5  1  0  0  0  0
 20 18  1  0  0  0  0
 23 21  1  0  0  0  0
 24 22  1  0  0  0  0
 24 13  1  0  0  0  0
 25  9  1  0  0  0  0
 25 14  2  0  0  0  0
 26 21  2  0  0  0  0
 27  2  1  0  0  0  0
 27  1  1  0  0  0  0
 28 17  1  0  0  0  0
 28 29  1  0  0  0  0
 29 32  1  0  0  0  0
 31 32  1  0  0  0  0
 31 33  1  0  0  0  0
 32 34  1  0  0  0  0
 33 30  1  0  0  0  0
 34 30  1  0  0  0  0
M  END
>  <MODEL>
2

>  <REMARK>
 VINA RESULT:      -7.8      2.907      4.602
  Name = 
  3 active torsions:
  status: ('A' for Active; 'I' for Inactive)
    1  A    between atoms: N_17  and  C_28
    2  A    between atoms: C_28  and  C_29
    3  A    between atoms: C_29  and  N_32
                            x       y       z     vdW  Elec       q    Type
                         _______ _______ _______ _____ _____    ______ ____

>  <TORSDO>
F 3

$$$$
=
 OpenBabel11112417553D

 34 41  0  0  1  0  0  0  0  0999 V2000
  189.5090  174.4010  144.8250 C   0  0  0  0  0  0  0  0  0  0  0  0
  191.0600  172.4280  144.2030 C   0  0  0  0  0  2  0  0  0  0  0  0
  184.5570  178.3340  143.3500 C   0  0  2  0  0  3  0  0  0  0  0  0
  187.9810  176.2630  145.1610 C   0  0  0  0  0  0  0  0  0  0  0  0
  186.6670  177.1020  143.2060 C   0  0  0  0  0  0  0  0  0  0  0  0
  184.9990  177.8570  140.9870 S   0  0  0  0  0  0  0  0  0  0  0  0
  183.6960  178.4640  142.1180 C   0  0  0  0  0  2  0  0  0  0  0  0
  185.9420  179.4140  145.1340 C   0  0  0  0  0  2  0  0  0  0  0  0
  189.6810  173.3770  142.5590 C   0  0  0  0  0  0  0  0  0  0  0  0
  189.5290  172.3590  139.5750 C   0  0  0  0  0  2  0  0  0  0  0  0
  187.2580  176.1980  142.4150 C   0  0  0  0  0  3  0  0  0  0  0  0
  186.2040  177.9690  145.5910 C   0  0  0  0  0  2  0  0  0  0  0  0
  188.7710  174.2380  142.0470 C   0  0  0  0  0  0  0  0  0  0  0  0
  191.2780  171.7830  142.8630 C   0  0  0  0  0  3  0  0  0  0  0  0
  186.9950  177.1720  144.6270 N   0  0  0  0  0  0  0  0  0  0  0  0
  184.6760  179.5400  144.2640 C   0  0  0  0  0  2  0  0  0  0  0  0
  190.5390  171.9550  140.5390 N   0  0  0  0  0  0  0  0  0  0  0  0
  188.5620  175.3000  144.3200 C   0  0  0  0  0  0  0  0  0  0  0  0
  185.8310  178.1750  142.5760 C   0  0  1  0  0  3  0  0  0  0  0  0
  188.1850  175.2300  142.9300 N   0  0  0  0  0  0  0  0  0  0  0  0
  189.3200  175.4160  147.0110 C   0  0  0  0  0  3  0  0  0  0  0  0
  189.3200  173.8540  139.6110 C   0  0  0  0  0  2  0  0  0  0  0  0
  188.3700  176.3130  146.5110 C   0  0  0  0  0  3  0  0  0  0  0  0
  188.2490  174.1350  140.6400 C   0  0  0  0  0  2  0  0  0  0  0  0
  190.4740  172.3110  141.9360 C   0  0  0  0  0  0  0  0  0  0  0  0
  189.8910  174.4570  146.1700 C   0  0  0  0  0  3  0  0  0  0  0  0
  190.0590  173.4430  143.9230 N   0  0  0  0  0  0  0  0  0  0  0  0
  191.6520  171.1700  140.0200 C   0  0  0  0  0  2  0  0  0  0  0  0
  191.1840  169.7690  139.6550 C   0  0  0  0  0  2  0  0  0  0  0  0
  190.2280  170.4070  136.5870 N   0  0  0  0  0  2  0  0  0  0  0  0
  192.2590  170.6270  137.7630 C   0  0  0  0  0  2  0  0  0  0  0  0
  191.5920  169.4520  138.2970 N   0  0  0  0  0  0  0  0  0  0  0  0
  191.5500  170.9850  136.4870 C   0  0  0  0  0  2  0  0  0  0  0  0
  190.3700  169.2920  137.5140 C   0  0  0  0  0  2  0  0  0  0  0  0
  1 26  1  0  0  0  0
  3  7  1  6  0  0  0
  3 16  1  0  0  0  0
  4 23  2  0  0  0  0
  5 15  1  0  0  0  0
  6  7  1  0  0  0  0
  8 12  1  0  0  0  0
  9 27  1  0  0  0  0
 10 22  1  0  0  0  0
 10 17  1  0  0  0  0
 11 20  1  0  0  0  0
 11  5  2  0  0  0  0
 13  9  2  0  0  0  0
 13 20  1  0  0  0  0
 14  2  1  0  0  0  0
 15  4  1  0  0  0  0
 15 12  1  0  0  0  0
 16  8  1  0  0  0  0
 17 25  1  0  0  0  0
 18  1  2  0  0  0  0
 18  4  1  0  0  0  0
 19  6  1  6  0  0  0
 19  5  1  0  0  0  0
 19  3  1  0  0  0  0
 20 18  1  0  0  0  0
 22 24  1  0  0  0  0
 23 21  1  0  0  0  0
 24 13  1  0  0  0  0
 25  9  1  0  0  0  0
 25 14  2  0  0  0  0
 26 21  2  0  0  0  0
 27  2  1  0  0  0  0
 27  1  1  0  0  0  0
 28 17  1  0  0  0  0
 29 28  1  0  0  0  0
 30 34  1  0  0  0  0
 31 32  1  0  0  0  0
 32 29  1  0  0  0  0
 33 30  1  0  0  0  0
 33 31  1  0  0  0  0
 34 32  1  0  0  0  0
M  END
>  <MODEL>
3

>  <REMARK>
 VINA RESULT:      -7.7      2.143      8.399
  Name = 
  3 active torsions:
  status: ('A' for Active; 'I' for Inactive)
    1  A    between atoms: N_17  and  C_28
    2  A    between atoms: C_28  and  C_29
    3  A    between atoms: C_29  and  N_32
                            x       y       z     vdW  Elec       q    Type
                         _______ _______ _______ _____ _____    ______ ____

>  <TORSDO>
F 3

$$$$
=
 OpenBabel11112417553D

 34 41  0  0  1  0  0  0  0  0999 V2000
  189.6440  174.4050  144.7810 C   0  0  0  0  0  0  0  0  0  0  0  0
  191.2700  172.4720  144.2290 C   0  0  0  0  0  2  0  0  0  0  0  0
  184.6600  178.2090  143.0920 C   0  0  2  0  0  3  0  0  0  0  0  0
  188.0570  176.2270  145.0490 C   0  0  0  0  0  0  0  0  0  0  0  0
  186.8050  177.0310  143.0390 C   0  0  0  0  0  0  0  0  0  0  0  0
  185.2130  177.7410  140.7500 S   0  0  0  0  0  0  0  0  0  0  0  0
  183.8480  178.3160  141.8240 C   0  0  0  0  0  2  0  0  0  0  0  0
  185.9410  179.3250  144.9300 C   0  0  0  0  0  2  0  0  0  0  0  0
  189.9370  173.3830  142.5270 C   0  0  0  0  0  0  0  0  0  0  0  0
  189.9360  172.3590  139.5410 C   0  0  0  0  0  2  0  0  0  0  0  0
  187.4520  176.1410  142.2750 C   0  0  0  0  0  3  0  0  0  0  0  0
  186.2200  177.8880  145.4010 C   0  0  0  0  0  2  0  0  0  0  0  0
  189.0280  174.2200  141.9750 C   0  0  0  0  0  0  0  0  0  0  0  0
  191.5600  171.8310  142.9010 C   0  0  0  0  0  3  0  0  0  0  0  0
  187.0710  177.1100  144.4720 N   0  0  0  0  0  0  0  0  0  0  0  0
  184.7100  179.4180  144.0080 C   0  0  0  0  0  2  0  0  0  0  0  0
  190.9160  171.9820  140.5480 N   0  0  0  0  0  0  0  0  0  0  0  0
  188.6970  175.2790  144.2350 C   0  0  0  0  0  0  0  0  0  0  0  0
  185.9690  178.0820  142.3730 C   0  0  1  0  0  3  0  0  0  0  0  0
  188.3810  175.1980  142.8310 N   0  0  0  0  0  0  0  0  0  0  0  0
  189.3380  175.4170  146.9560 C   0  0  0  0  0  3  0  0  0  0  0  0
  189.6890  173.8480  139.5650 C   0  0  0  0  0  2  0  0  0  0  0  0
  188.3870  176.2880  146.4140 C   0  0  0  0  0  3  0  0  0  0  0  0
  188.5690  174.1030  140.5470 C   0  0  0  0  0  2  0  0  0  0  0  0
  190.7830  172.3370  141.9400 C   0  0  0  0  0  0  0  0  0  0  0  0
  189.9680  174.4720  146.1410 C   0  0  0  0  0  3  0  0  0  0  0  0
  190.2560  173.4600  143.9050 N   0  0  0  0  0  0  0  0  0  0  0  0
  192.0690  171.2250  140.0770 C   0  0  0  0  0  2  0  0  0  0  0  0
  192.9760  172.1110  139.2380 C   0  0  0  0  0  2  0  0  0  0  0  0
  195.6090  174.0500  139.0310 N   0  0  0  0  0  2  0  0  0  0  0  0
  193.4110  174.3300  139.8350 C   0  0  0  0  0  2  0  0  0  0  0  0
  193.7820  172.9530  140.1060 N   0  0  0  0  0  0  0  0  0  0  0  0
  194.6770  175.0600  139.4840 C   0  0  0  0  0  2  0  0  0  0  0  0
  195.1660  172.8140  139.6640 C   0  0  0  0  0  2  0  0  0  0  0  0
  1 26  1  0  0  0  0
  3  7  1  6  0  0  0
  3 16  1  0  0  0  0
  4 23  2  0  0  0  0
  5 15  1  0  0  0  0
  6  7  1  0  0  0  0
  8 12  1  0  0  0  0
  9 27  1  0  0  0  0
 10 22  1  0  0  0  0
 10 17  1  0  0  0  0
 11 20  1  0  0  0  0
 11  5  2  0  0  0  0
 13  9  2  0  0  0  0
 13 20  1  0  0  0  0
 14  2  1  0  0  0  0
 15  4  1  0  0  0  0
 15 12  1  0  0  0  0
 16  8  1  0  0  0  0
 17 25  1  0  0  0  0
 18  1  2  0  0  0  0
 18  4  1  0  0  0  0
 19  6  1  6  0  0  0
 19  5  1  0  0  0  0
 19  3  1  0  0  0  0
 20 18  1  0  0  0  0
 22 24  1  0  0  0  0
 23 21  1  0  0  0  0
 24 13  1  0  0  0  0
 25  9  1  0  0  0  0
 25 14  2  0  0  0  0
 26 21  2  0  0  0  0
 27  2  1  0  0  0  0
 27  1  1  0  0  0  0
 28 17  1  0  0  0  0
 29 28  1  0  0  0  0
 29 32  1  0  0  0  0
 30 33  1  0  0  0  0
 30 34  1  0  0  0  0
 31 32  1  0  0  0  0
 33 31  1  0  0  0  0
 34 32  1  0  0  0  0
M  END
>  <MODEL>
4

>  <REMARK>
 VINA RESULT:      -7.5      2.309      8.037
  Name = 
  3 active torsions:
  status: ('A' for Active; 'I' for Inactive)
    1  A    between atoms: N_17  and  C_28
    2  A    between atoms: C_28  and  C_29
    3  A    between atoms: C_29  and  N_32
                            x       y       z     vdW  Elec       q    Type
                         _______ _______ _______ _____ _____    ______ ____

>  <TORSDO>
F 3

$$$$
=
 OpenBabel11112417553D

 34 41  0  0  1  0  0  0  0  0999 V2000
  190.6400  173.8990  140.9280 C   0  0  0  0  0  0  0  0  0  0  0  0
  188.2530  174.4050  141.7840 C   0  0  0  0  0  2  0  0  0  0  0  0
  197.0770  174.3990  141.6150 C   0  0  2  0  0  3  0  0  0  0  0  0
  192.9670  173.6070  140.2850 C   0  0  0  0  0  0  0  0  0  0  0  0
  194.7080  174.9870  141.4310 C   0  0  0  0  0  0  0  0  0  0  0  0
  196.6880  176.4130  142.9560 S   0  0  0  0  0  0  0  0  0  0  0  0
  197.9380  175.1200  142.6230 C   0  0  0  0  0  2  0  0  0  0  0  0
  196.5610  173.8430  139.2290 C   0  0  0  0  0  2  0  0  0  0  0  0
  190.0820  175.5330  142.7260 C   0  0  0  0  0  0  0  0  0  0  0  0
  189.8480  177.6380  145.0670 C   0  0  0  0  0  2  0  0  0  0  0  0
  193.7590  175.5950  142.1530 C   0  0  0  0  0  3  0  0  0  0  0  0
  195.3670  173.0780  139.8260 C   0  0  0  0  0  2  0  0  0  0  0  0
  191.3820  175.8750  142.8860 C   0  0  0  0  0  0  0  0  0  0  0  0
  187.8100  175.4060  142.8140 C   0  0  0  0  0  3  0  0  0  0  0  0
  194.3570  173.9510  140.4640 N   0  0  0  0  0  0  0  0  0  0  0  0
  197.6820  174.0870  140.2580 C   0  0  0  0  0  2  0  0  0  0  0  0
  188.7250  177.1120  144.3070 N   0  0  0  0  0  0  0  0  0  0  0  0
  191.9910  174.2320  141.0780 C   0  0  0  0  0  0  0  0  0  0  0  0
  196.1060  175.5300  141.4730 C   0  0  1  0  0  3  0  0  0  0  0  0
  192.3760  175.2220  142.0540 N   0  0  0  0  0  0  0  0  0  0  0  0
  191.2120  172.3230  139.1860 C   0  0  0  0  0  3  0  0  0  0  0  0
  190.9810  178.0260  144.1480 C   0  0  0  0  0  2  0  0  0  0  0  0
  192.5640  172.6500  139.3370 C   0  0  0  0  0  3  0  0  0  0  0  0
  191.8550  176.8060  143.9680 C   0  0  0  0  0  2  0  0  0  0  0  0
  188.8570  176.0290  143.3640 C   0  0  0  0  0  0  0  0  0  0  0  0
  190.2470  172.9460  139.9820 C   0  0  0  0  0  3  0  0  0  0  0  0
  189.6970  174.5660  141.7660 N   0  0  0  0  0  0  0  0  0  0  0  0
  187.4340  177.7500  144.5360 C   0  0  0  0  0  2  0  0  0  0  0  0
  186.7060  177.0700  145.6850 C   0  0  0  0  0  2  0  0  0  0  0  0
  184.0910  179.0410  145.7830 N   0  0  0  0  0  2  0  0  0  0  0  0
  185.0700  177.6780  144.1280 C   0  0  0  0  0  2  0  0  0  0  0  0
  185.2820  177.0090  145.3990 N   0  0  0  0  0  0  0  0  0  0  0  0
  184.0420  178.7480  144.3680 C   0  0  0  0  0  2  0  0  0  0  0  0
  184.6130  177.8300  146.4040 C   0  0  0  0  0  2  0  0  0  0  0  0
  1 18  1  0  0  0  0
  1 27  1  0  0  0  0
  2 14  1  0  0  0  0
  3 16  1  6  0  0  0
  3  7  1  0  0  0  0
  4 15  1  0  0  0  0
  4 18  2  0  0  0  0
  5 11  2  0  0  0  0
  7  6  1  0  0  0  0
  8 12  1  0  0  0  0
  8 16  1  0  0  0  0
  9 13  2  0  0  0  0
  9 25  1  0  0  0  0
 12 15  1  0  0  0  0
 13 24  1  0  0  0  0
 14 25  2  0  0  0  0
 15  5  1  0  0  0  0
 17 28  1  0  0  0  0
 17 10  1  0  0  0  0
 18 20  1  0  0  0  0
 19  5  1  1  0  0  0
 19  3  1  0  0  0  0
 19  6  1  0  0  0  0
 20 11  1  0  0  0  0
 20 13  1  0  0  0  0
 21 23  2  0  0  0  0
 21 26  1  0  0  0  0
 22 10  1  0  0  0  0
 23  4  1  0  0  0  0
 24 22  1  0  0  0  0
 25 17  1  0  0  0  0
 26  1  2  0  0  0  0
 27  2  1  0  0  0  0
 27  9  1  0  0  0  0
 28 29  1  0  0  0  0
 30 34  1  0  0  0  0
 31 33  1  0  0  0  0
 31 32  1  0  0  0  0
 32 29  1  0  0  0  0
 32 34  1  0  0  0  0
 33 30  1  0  0  0  0
M  END
>  <MODEL>
5

>  <REMARK>
 VINA RESULT:      -7.3      3.397      4.793
  Name = 
  3 active torsions:
  status: ('A' for Active; 'I' for Inactive)
    1  A    between atoms: N_17  and  C_28
    2  A    between atoms: C_28  and  C_29
    3  A    between atoms: C_29  and  N_32
                            x       y       z     vdW  Elec       q    Type
                         _______ _______ _______ _____ _____    ______ ____

>  <TORSDO>
F 3

$$$$
=
 OpenBabel11112417553D

 34 41  0  0  1  0  0  0  0  0999 V2000
  190.8730  176.2270  146.1840 C   0  0  0  0  0  0  0  0  0  0  0  0
  193.0770  174.9140  146.5070 C   0  0  0  0  0  2  0  0  0  0  0  0
  185.7340  177.7620  142.5230 C   0  0  2  0  0  3  0  0  0  0  0  0
  188.8200  177.4070  145.6290 C   0  0  0  0  0  0  0  0  0  0  0  0
  188.0430  177.4050  143.2520 C   0  0  0  0  0  0  0  0  0  0  0  0
  187.0670  177.1560  140.5570 S   0  0  0  0  0  0  0  0  0  0  0  0
  185.3400  177.3830  141.1170 C   0  0  0  0  0  2  0  0  0  0  0  0
  186.0320  179.5240  144.2770 C   0  0  0  0  0  2  0  0  0  0  0  0
  192.1040  175.0320  144.3750 C   0  0  0  0  0  0  0  0  0  0  0  0
  193.2850  173.6200  141.8110 C   0  0  0  0  0  2  0  0  0  0  0  0
  189.1160  176.6870  142.8970 C   0  0  0  0  0  3  0  0  0  0  0  0
  186.5630  178.3630  145.1350 C   0  0  0  0  0  2  0  0  0  0  0  0
  191.1970  175.4070  143.4430 C   0  0  0  0  0  0  0  0  0  0  0  0
  193.9210  174.2150  145.4780 C   0  0  0  0  0  3  0  0  0  0  0  0
  187.8380  177.7930  144.6440 N   0  0  0  0  0  0  0  0  0  0  0  0
  185.1570  179.0410  143.1030 C   0  0  0  0  0  2  0  0  0  0  0  0
  193.9870  173.7660  143.0760 N   0  0  0  0  0  0  0  0  0  0  0  0
  189.9190  176.6230  145.2390 C   0  0  0  0  0  0  0  0  0  0  0  0
  187.1750  177.9850  142.1760 C   0  0  1  0  0  3  0  0  0  0  0  0
  190.0710  176.2210  143.8630 N   0  0  0  0  0  0  0  0  0  0  0  0
  189.6570  177.3960  147.9160 C   0  0  0  0  0  3  0  0  0  0  0  0
  192.6200  174.9160  141.4140 C   0  0  0  0  0  2  0  0  0  0  0  0
  188.7000  177.7900  146.9760 C   0  0  0  0  0  3  0  0  0  0  0  0
  191.2360  174.9180  142.0210 C   0  0  0  0  0  2  0  0  0  0  0  0
  193.3510  174.2650  144.2710 C   0  0  0  0  0  0  0  0  0  0  0  0
  190.7460  176.6130  147.5230 C   0  0  0  0  0  3  0  0  0  0  0  0
  191.9640  175.4280  145.7280 N   0  0  0  0  0  0  0  0  0  0  0  0
  195.3950  173.3910  143.0810 C   0  0  0  0  0  2  0  0  0  0  0  0
  195.9800  173.5160  141.6830 C   0  0  0  0  0  2  0  0  0  0  0  0
  196.0690  176.7910  141.6360 N   0  0  0  0  0  2  0  0  0  0  0  0
  197.0440  175.1310  142.9970 C   0  0  0  0  0  2  0  0  0  0  0  0
  196.9690  174.5810  141.6550 N   0  0  0  0  0  0  0  0  0  0  0  0
  196.7960  176.6090  142.8730 C   0  0  0  0  0  2  0  0  0  0  0  0
  196.4260  175.6420  140.8140 C   0  0  0  0  0  2  0  0  0  0  0  0
  1 26  1  0  0  0  0
  3  7  1  6  0  0  0
  3 16  1  0  0  0  0
  4 23  2  0  0  0  0
  5 15  1  0  0  0  0
  6  7  1  0  0  0  0
  8 12  1  0  0  0  0
  9 27  1  0  0  0  0
 10 17  1  0  0  0  0
 11  5  2  0  0  0  0
 11 20  1  0  0  0  0
 13 20  1  0  0  0  0
 13  9  2  0  0  0  0
 14  2  1  0  0  0  0
 15 12  1  0  0  0  0
 15  4  1  0  0  0  0
 16  8  1  0  0  0  0
 17 28  1  0  0  0  0
 17 25  1  0  0  0  0
 18  4  1  0  0  0  0
 18  1  2  0  0  0  0
 19  6  1  6  0  0  0
 19  3  1  0  0  0  0
 19  5  1  0  0  0  0
 20 18  1  0  0  0  0
 22 10  1  0  0  0  0
 22 24  1  0  0  0  0
 23 21  1  0  0  0  0
 24 13  1  0  0  0  0
 25  9  1  0  0  0  0
 25 14  2  0  0  0  0
 26 21  2  0  0  0  0
 27  1  1  0  0  0  0
 27  2  1  0  0  0  0
 29 28  1  0  0  0  0
 30 33  1  0  0  0  0
 32 29  1  0  0  0  0
 32 31  1  0  0  0  0
 33 31  1  0  0  0  0
 34 30  1  0  0  0  0
 34 32  1  0  0  0  0
M  END
>  <MODEL>
6

>  <REMARK>
 VINA RESULT:      -7.3      3.103      8.113
  Name = 
  3 active torsions:
  status: ('A' for Active; 'I' for Inactive)
    1  A    between atoms: N_17  and  C_28
    2  A    between atoms: C_28  and  C_29
    3  A    between atoms: C_29  and  N_32
                            x       y       z     vdW  Elec       q    Type
                         _______ _______ _______ _____ _____    ______ ____

>  <TORSDO>
F 3

$$$$
=
 OpenBabel11112417553D

 34 41  0  0  1  0  0  0  0  0999 V2000
  189.3140  175.5540  142.6540 C   0  0  0  0  0  0  0  0  0  0  0  0
  191.5470  174.4280  141.9960 C   0  0  0  0  0  2  0  0  0  0  0  0
  185.8840  179.2660  146.7310 C   0  0  2  0  0  3  0  0  0  0  0  0
  187.3180  176.6470  143.5080 C   0  0  0  0  0  0  0  0  0  0  0  0
  187.3270  177.4900  145.8620 C   0  0  0  0  0  0  0  0  0  0  0  0
  187.4840  178.6610  148.4860 S   0  0  0  0  0  0  0  0  0  0  0  0
  186.2320  179.9190  148.0460 C   0  0  0  0  0  2  0  0  0  0  0  0
  184.3000  177.8980  145.3570 C   0  0  0  0  0  2  0  0  0  0  0  0
  191.3040  175.3460  144.1410 C   0  0  0  0  0  0  0  0  0  0  0  0
  193.5830  175.3630  146.3260 C   0  0  0  0  0  2  0  0  0  0  0  0
  188.5730  177.0280  146.0280 C   0  0  0  0  0  3  0  0  0  0  0  0
  185.3750  178.0290  144.2650 C   0  0  0  0  0  2  0  0  0  0  0  0
  190.6680  175.9670  145.1610 C   0  0  0  0  0  0  0  0  0  0  0  0
  192.7750  174.2020  142.8320 C   0  0  0  0  0  3  0  0  0  0  0  0
  186.6400  177.3290  144.5850 N   0  0  0  0  0  0  0  0  0  0  0  0
  184.4210  178.9880  146.4400 C   0  0  0  0  0  2  0  0  0  0  0  0
  193.6220  174.5950  145.0910 N   0  0  0  0  0  0  0  0  0  0  0  0
  188.6370  176.2030  143.6930 C   0  0  0  0  0  0  0  0  0  0  0  0
  186.5730  177.9780  147.0630 C   0  0  1  0  0  3  0  0  0  0  0  0
  189.3030  176.4150  144.9540 N   0  0  0  0  0  0  0  0  0  0  0  0
  187.3680  175.7700  141.2360 C   0  0  0  0  0  3  0  0  0  0  0  0
  192.2380  175.2290  146.9980 C   0  0  0  0  0  2  0  0  0  0  0  0
  186.6900  176.4240  142.2710 C   0  0  0  0  0  3  0  0  0  0  0  0
  191.3500  176.3240  146.4540 C   0  0  0  0  0  2  0  0  0  0  0  0
  192.6410  174.7460  144.0450 C   0  0  0  0  0  0  0  0  0  0  0  0
  188.6820  175.3350  141.4260 C   0  0  0  0  0  3  0  0  0  0  0  0
  190.6540  175.1310  142.9010 N   0  0  0  0  0  0  0  0  0  0  0  0
  194.7110  173.6350  144.9600 C   0  0  0  0  0  2  0  0  0  0  0  0
  196.0280  174.3600  144.7310 C   0  0  0  0  0  2  0  0  0  0  0  0
  197.3800  176.9360  143.2250 N   0  0  0  0  0  2  0  0  0  0  0  0
  197.2830  174.6240  142.7760 C   0  0  0  0  0  2  0  0  0  0  0  0
  196.0290  174.9790  143.4160 N   0  0  0  0  0  0  0  0  0  0  0  0
  197.9410  175.9130  142.3700 C   0  0  0  0  0  2  0  0  0  0  0  0
  196.0770  176.4220  143.6270 C   0  0  0  0  0  2  0  0  0  0  0  0
  1 27  1  0  0  0  0
  1 18  1  0  0  0  0
  2 14  1  0  0  0  0
  2 27  1  0  0  0  0
  3 16  1  1  0  0  0
  3 19  1  0  0  0  0
  3  7  1  0  0  0  0
  4 18  2  0  0  0  0
  4 15  1  0  0  0  0
  5 11  2  0  0  0  0
  7  6  1  0  0  0  0
  8 16  1  0  0  0  0
  9 13  2  0  0  0  0
 10 22  1  0  0  0  0
 12 15  1  0  0  0  0
 12  8  1  0  0  0  0
 13 24  1  0  0  0  0
 14 25  2  0  0  0  0
 15  5  1  0  0  0  0
 17 10  1  0  0  0  0
 18 20  1  0  0  0  0
 19  5  1  6  0  0  0
 19  6  1  0  0  0  0
 20 13  1  0  0  0  0
 20 11  1  0  0  0  0
 21 26  1  0  0  0  0
 21 23  2  0  0  0  0
 23  4  1  0  0  0  0
 24 22  1  0  0  0  0
 25  9  1  0  0  0  0
 25 17  1  0  0  0  0
 26  1  2  0  0  0  0
 27  9  1  0  0  0  0
 28 17  1  0  0  0  0
 29 28  1  0  0  0  0
 30 34  1  0  0  0  0
 31 32  1  0  0  0  0
 32 34  1  0  0  0  0
 32 29  1  0  0  0  0
 33 31  1  0  0  0  0
 33 30  1  0  0  0  0
M  END
>  <MODEL>
7

>  <REMARK>
 VINA RESULT:      -7.3      3.612      8.955
  Name = 
  3 active torsions:
  status: ('A' for Active; 'I' for Inactive)
    1  A    between atoms: N_17  and  C_28
    2  A    between atoms: C_28  and  C_29
    3  A    between atoms: C_29  and  N_32
                            x       y       z     vdW  Elec       q    Type
                         _______ _______ _______ _____ _____    ______ ____

>  <TORSDO>
F 3

$$$$
=
 OpenBabel11112417553D

 34 41  0  0  1  0  0  0  0  0999 V2000
  189.8940  174.4180  141.7010 C   0  0  0  0  0  0  0  0  0  0  0  0
  187.3820  174.9580  141.9920 C   0  0  0  0  0  2  0  0  0  0  0  0
  195.8430  173.8350  144.2350 C   0  0  2  0  0  3  0  0  0  0  0  0
  192.2930  174.0250  141.6560 C   0  0  0  0  0  0  0  0  0  0  0  0
  193.6630  174.7590  143.6140 C   0  0  0  0  0  0  0  0  0  0  0  0
  195.1480  175.3920  145.9960 S   0  0  0  0  0  0  0  0  0  0  0  0
  196.3890  174.1030  145.6160 C   0  0  0  0  0  2  0  0  0  0  0  0
  196.0440  174.0860  141.7530 C   0  0  0  0  0  2  0  0  0  0  0  0
  188.8870  175.5030  143.7070 C   0  0  0  0  0  0  0  0  0  0  0  0
  188.0440  176.8290  146.4450 C   0  0  0  0  0  2  0  0  0  0  0  0
  192.5650  175.2450  144.2070 C   0  0  0  0  0  3  0  0  0  0  0  0
  194.6980  173.3430  141.7220 C   0  0  0  0  0  2  0  0  0  0  0  0
  190.0910  175.6060  144.3160 C   0  0  0  0  0  0  0  0  0  0  0  0
  186.6900  175.6570  143.1280 C   0  0  0  0  0  3  0  0  0  0  0  0
  193.5780  174.1130  142.3080 N   0  0  0  0  0  0  0  0  0  0  0  0
  196.8140  173.8630  143.0690 C   0  0  0  0  0  2  0  0  0  0  0  0
  187.1810  176.7060  145.2810 N   0  0  0  0  0  0  0  0  0  0  0  0
  191.1490  174.5100  142.3120 C   0  0  0  0  0  0  0  0  0  0  0  0
  195.0040  175.0760  144.2080 C   0  0  1  0  0  3  0  0  0  0  0  0
  191.2620  175.1040  143.6210 N   0  0  0  0  0  0  0  0  0  0  0  0
  190.9000  173.3690  139.7690 C   0  0  0  0  0  3  0  0  0  0  0  0
  189.4150  177.3190  146.0450 C   0  0  0  0  0  2  0  0  0  0  0  0
  192.1550  173.4550  140.3790 C   0  0  0  0  0  3  0  0  0  0  0  0
  190.2540  176.1030  145.7260 C   0  0  0  0  0  2  0  0  0  0  0  0
  187.5470  175.9440  144.1120 C   0  0  0  0  0  0  0  0  0  0  0  0
  189.7650  173.8500  140.4290 C   0  0  0  0  0  3  0  0  0  0  0  0
  188.7700  174.9240  142.4190 N   0  0  0  0  0  0  0  0  0  0  0  0
  185.9070  177.4120  145.3430 C   0  0  0  0  0  2  0  0  0  0  0  0
  186.1330  178.9150  145.2980 C   0  0  0  0  0  2  0  0  0  0  0  0
  185.2320  178.4660  142.1810 N   0  0  0  0  0  2  0  0  0  0  0  0
  184.0720  178.6650  144.2230 C   0  0  0  0  0  2  0  0  0  0  0  0
  185.2420  179.5190  144.3220 N   0  0  0  0  0  0  0  0  0  0  0  0
  183.9220  178.3020  142.7720 C   0  0  0  0  0  2  0  0  0  0  0  0
  185.9120  179.4360  143.0280 C   0  0  0  0  0  2  0  0  0  0  0  0
  1 18  1  0  0  0  0
  1 27  1  0  0  0  0
  2 27  1  0  0  0  0
  2 14  1  0  0  0  0
  3 16  1  6  0  0  0
  3  7  1  0  0  0  0
  4 15  1  0  0  0  0
  4 18  2  0  0  0  0
  5 11  2  0  0  0  0
  7  6  1  0  0  0  0
  8 16  1  0  0  0  0
  9 25  1  0  0  0  0
  9 13  2  0  0  0  0
 12  8  1  0  0  0  0
 12 15  1  0  0  0  0
 13 24  1  0  0  0  0
 14 25  2  0  0  0  0
 15  5  1  0  0  0  0
 17 28  1  0  0  0  0
 17 10  1  0  0  0  0
 18 20  1  0  0  0  0
 19  5  1  1  0  0  0
 19  3  1  0  0  0  0
 19  6  1  0  0  0  0
 20 11  1  0  0  0  0
 20 13  1  0  0  0  0
 21 23  2  0  0  0  0
 21 26  1  0  0  0  0
 22 10  1  0  0  0  0
 23  4  1  0  0  0  0
 24 22  1  0  0  0  0
 25 17  1  0  0  0  0
 26  1  2  0  0  0  0
 27  9  1  0  0  0  0
 29 28  1  0  0  0  0
 30 33  1  0  0  0  0
 30 34  1  0  0  0  0
 31 32  1  0  0  0  0
 32 29  1  0  0  0  0
 33 31  1  0  0  0  0
 34 32  1  0  0  0  0
M  END
>  <MODEL>
8

>  <REMARK>
 VINA RESULT:      -7.2      2.935      4.997
  Name = 
  3 active torsions:
  status: ('A' for Active; 'I' for Inactive)
    1  A    between atoms: N_17  and  C_28
    2  A    between atoms: C_28  and  C_29
    3  A    between atoms: C_29  and  N_32
                            x       y       z     vdW  Elec       q    Type
                         _______ _______ _______ _____ _____    ______ ____

>  <TORSDO>
F 3

$$$$
=
 OpenBabel11112417553D

 34 41  0  0  1  0  0  0  0  0999 V2000
  189.8610  175.5310  142.8440 C   0  0  0  0  0  0  0  0  0  0  0  0
  192.2260  174.8240  142.0740 C   0  0  0  0  0  2  0  0  0  0  0  0
  186.0380  178.8920  146.8740 C   0  0  2  0  0  3  0  0  0  0  0  0
  187.7480  176.2770  143.7880 C   0  0  0  0  0  0  0  0  0  0  0  0
  187.7590  177.3670  146.0380 C   0  0  0  0  0  0  0  0  0  0  0  0
  187.8640  178.8370  148.5090 S   0  0  0  0  0  0  0  0  0  0  0  0
  186.3380  179.7500  148.0800 C   0  0  0  0  0  2  0  0  0  0  0  0
  184.6850  177.0780  145.8040 C   0  0  0  0  0  2  0  0  0  0  0  0
  191.9590  175.9110  144.1350 C   0  0  0  0  0  0  0  0  0  0  0  0
  194.3440  176.6490  146.0670 C   0  0  0  0  0  2  0  0  0  0  0  0
  189.0850  177.1950  146.1200 C   0  0  0  0  0  3  0  0  0  0  0  0
  185.6180  177.3030  144.6010 C   0  0  0  0  0  2  0  0  0  0  0  0
  191.2860  176.4990  145.1510 C   0  0  0  0  0  0  0  0  0  0  0  0
  193.5360  174.9540  142.8000 C   0  0  0  0  0  3  0  0  0  0  0  0
  187.0250  176.9220  144.8570 N   0  0  0  0  0  0  0  0  0  0  0  0
  184.6510  178.2860  146.7610 C   0  0  0  0  0  2  0  0  0  0  0  0
  194.4510  175.7700  144.9140 N   0  0  0  0  0  0  0  0  0  0  0  0
  189.1430  176.1400  143.8790 C   0  0  0  0  0  0  0  0  0  0  0  0
  187.0140  177.8220  147.2570 C   0  0  1  0  0  3  0  0  0  0  0  0
  189.8440  176.6280  145.0410 N   0  0  0  0  0  0  0  0  0  0  0  0
  187.8090  175.1750  141.6160 C   0  0  0  0  0  3  0  0  0  0  0  0
  193.1170  176.3170  146.8820 C   0  0  0  0  0  2  0  0  0  0  0  0
  187.0890  175.7880  142.6470 C   0  0  0  0  0  3  0  0  0  0  0  0
  191.9730  177.1360  146.3280 C   0  0  0  0  0  2  0  0  0  0  0  0
  193.3820  175.5940  143.9620 C   0  0  0  0  0  0  0  0  0  0  0  0
  189.1970  175.0460  141.7120 C   0  0  0  0  0  3  0  0  0  0  0  0
  191.2760  175.4250  142.9940 N   0  0  0  0  0  0  0  0  0  0  0  0
  195.7090  175.0490  144.7660 C   0  0  0  0  0  2  0  0  0  0  0  0
  195.7580  173.8710  145.7270 C   0  0  0  0  0  2  0  0  0  0  0  0
  196.3680  170.6870  146.2030 N   0  0  0  0  0  2  0  0  0  0  0  0
  194.5100  171.9150  145.4310 C   0  0  0  0  0  2  0  0  0  0  0  0
  195.6950  172.6240  144.9820 N   0  0  0  0  0  0  0  0  0  0  0  0
  194.9640  170.5550  145.8830 C   0  0  0  0  0  2  0  0  0  0  0  0
  196.8340  171.8170  145.4100 C   0  0  0  0  0  2  0  0  0  0  0  0
  1 27  1  0  0  0  0
  1 18  1  0  0  0  0
  2 14  1  0  0  0  0
  2 27  1  0  0  0  0
  3 16  1  1  0  0  0
  3 19  1  0  0  0  0
  3  7  1  0  0  0  0
  4 18  2  0  0  0  0
  4 15  1  0  0  0  0
  5 11  2  0  0  0  0
  7  6  1  0  0  0  0
  8 16  1  0  0  0  0
  9 13  2  0  0  0  0
 10 22  1  0  0  0  0
 12 15  1  0  0  0  0
 12  8  1  0  0  0  0
 13 24  1  0  0  0  0
 14 25  2  0  0  0  0
 15  5  1  0  0  0  0
 17 10  1  0  0  0  0
 18 20  1  0  0  0  0
 19  5  1  6  0  0  0
 19  6  1  0  0  0  0
 20 13  1  0  0  0  0
 20 11  1  0  0  0  0
 21 26  1  0  0  0  0
 21 23  2  0  0  0  0
 23  4  1  0  0  0  0
 24 22  1  0  0  0  0
 25  9  1  0  0  0  0
 25 17  1  0  0  0  0
 26  1  2  0  0  0  0
 27  9  1  0  0  0  0
 28 17  1  0  0  0  0
 28 29  1  0  0  0  0
 31 33  1  0  0  0  0
 32 34  1  0  0  0  0
 32 31  1  0  0  0  0
 32 29  1  0  0  0  0
 33 30  1  0  0  0  0
 34 30  1  0  0  0  0
M  END
>  <MODEL>
9

>  <REMARK>
 VINA RESULT:      -7.2      3.575      8.842
  Name = 
  3 active torsions:
  status: ('A' for Active; 'I' for Inactive)
    1  A    between atoms: N_17  and  C_28
    2  A    between atoms: C_28  and  C_29
    3  A    between atoms: C_29  and  N_32
                            x       y       z     vdW  Elec       q    Type
                         _______ _______ _______ _____ _____    ______ ____

>  <TORSDO>
F 3

$$$$
