=
 OpenBabel11112416233D

 30 35  0  0  1  0  0  0  0  0999 V2000
  187.9780  177.1860  145.7300 C   0  0  0  0  0  0  0  0  0  0  0  0
  186.0850  178.2380  146.9690 C   0  0  0  0  0  0  0  0  0  0  0  0
  185.8170  177.2340  142.1380 N   0  0  0  0  0  2  0  0  0  0  0  0
  188.4970  176.6790  144.5150 C   0  0  0  0  0  0  0  0  0  0  0  0
  188.8050  177.1250  146.8990 N   0  0  0  0  0  2  0  0  0  0  0  0
  189.8610  174.3430  146.2550 C   0  0  0  0  0  1  0  0  0  0  0  0
  189.8490  174.6890  142.4140 C   0  0  1  0  0  3  0  0  0  0  0  0
  190.4320  175.6700  145.7680 C   0  0  2  0  0  3  0  0  0  0  0  0
  188.4490  174.9070  141.9830 N   0  0  2  0  0  0  0  0  0  0  0  0
  186.7380  176.5940  141.2030 C   0  0  1  0  0  3  0  0  0  0  0  0
  190.2250  176.7930  146.7920 C   0  0  2  0  0  3  0  0  0  0  0  0
  189.7930  176.0420  144.5050 N   0  0  0  0  0  0  0  0  0  0  0  0
  184.7860  178.7570  146.9520 C   0  0  0  0  0  3  0  0  0  0  0  0
  188.3780  174.3730  140.6170 C   0  0  0  0  0  2  0  0  0  0  0  0
  190.6820  174.3270  141.2090 C   0  0  0  0  0  2  0  0  0  0  0  0
  186.7720  178.2330  148.1760 O   0  0  0  0  0  1  0  0  0  0  0  0
  186.4540  177.2890  143.3980 C   0  0  0  0  0  0  0  0  0  0  0  0
  184.0460  178.7890  145.7710 C   0  0  0  0  0  3  0  0  0  0  0  0
  186.6630  177.7330  145.7780 C   0  0  0  0  0  0  0  0  0  0  0  0
  187.7150  176.7700  143.3600 C   0  0  0  0  0  0  0  0  0  0  0  0
  187.0050  177.5260  140.0360 C   0  0  0  0  0  1  0  0  0  0  0  0
  188.0610  176.3300  141.9750 C   0  0  1  0  0  3  0  0  0  0  0  0
  189.6890  173.6980  140.2800 C   0  0  0  0  0  2  0  0  0  0  0  0
  190.7580  176.9560  142.5620 O   0  0  0  0  0  1  0  0  0  0  0  0
  184.5970  178.3000  144.5880 C   0  0  0  0  0  3  0  0  0  0  0  0
  185.8930  177.7760  144.5800 C   0  0  0  0  0  0  0  0  0  0  0  0
  190.5280  175.7740  143.2730 C   0  0  2  0  0  3  0  0  0  0  0  0
  190.8090  176.4520  148.1600 C   0  0  0  0  0  2  0  0  0  0  0  0
  191.3740  178.2380  149.8080 C   0  0  0  0  0  1  0  0  0  0  0  0
  191.8490  177.4770  148.5840 C   0  0  0  0  0  2  0  0  0  0  0  0
  1 19  1  0  0  0  0
  1  5  1  0  0  0  0
  2 16  1  0  0  0  0
  3 17  1  0  0  0  0
  4  1  2  0  0  0  0
  7 15  1  6  0  0  0
  7 27  1  0  0  0  0
  8  6  1  1  0  0  0
  8 11  1  0  0  0  0
  9 14  1  6  0  0  0
  9  7  1  0  0  0  0
 10 21  1  6  0  0  0
 10 22  1  0  0  0  0
 10  3  1  0  0  0  0
 11  5  1  0  0  0  0
 11 28  1  1  0  0  0
 12  4  1  0  0  0  0
 12  8  1  0  0  0  0
 13  2  1  0  0  0  0
 17 26  1  0  0  0  0
 18 13  2  0  0  0  0
 19  2  2  0  0  0  0
 20 17  2  0  0  0  0
 20  4  1  0  0  0  0
 22  9  1  0  0  0  0
 22 20  1  1  0  0  0
 23 14  1  0  0  0  0
 23 15  1  0  0  0  0
 25 18  1  0  0  0  0
 26 25  2  0  0  0  0
 26 19  1  0  0  0  0
 27 24  1  6  0  0  0
 27 12  1  0  0  0  0
 28 30  1  0  0  0  0
 30 29  1  0  0  0  0
M  END
>  <MODEL>
1

>  <REMARK>
 VINA RESULT:      -8.7      0.000      0.000
  Name = 
  2 active torsions:
  status: ('A' for Active; 'I' for Inactive)
    1  A    between atoms: C_11  and  C_28
    2  A    between atoms: C_28  and  C_30
                            x       y       z     vdW  Elec       q    Type
                         _______ _______ _______ _____ _____    ______ ____

>  <TORSDO>
F 2

$$$$
=
 OpenBabel11112416233D

 30 35  0  0  1  0  0  0  0  0999 V2000
  186.7370  177.4430  143.9680 C   0  0  0  0  0  0  0  0  0  0  0  0
  184.8240  178.3400  145.2950 C   0  0  0  0  0  0  0  0  0  0  0  0
  189.0590  176.9390  147.4220 N   0  0  0  0  0  2  0  0  0  0  0  0
  188.0600  176.9420  143.9370 C   0  0  0  0  0  0  0  0  0  0  0  0
  186.0310  177.5700  142.7270 N   0  0  0  0  0  2  0  0  0  0  0  0
  188.4610  178.6100  141.2160 C   0  0  0  0  0  1  0  0  0  0  0  0
  191.1320  176.5940  143.1330 C   0  0  1  0  0  3  0  0  0  0  0  0
  188.0760  177.1500  141.4300 C   0  0  2  0  0  3  0  0  0  0  0  0
  191.0890  177.0180  144.5520 N   0  0  2  0  0  0  0  0  0  0  0  0
  190.3210  176.4370  146.8870 C   0  0  1  0  0  3  0  0  0  0  0  0
  186.5550  176.9650  141.5050 C   0  0  2  0  0  3  0  0  0  0  0  0
  188.6860  176.6610  142.6660 N   0  0  0  0  0  0  0  0  0  0  0  0
  184.2930  178.6920  146.5410 C   0  0  0  0  0  3  0  0  0  0  0  0
  192.4460  176.7920  145.0640 C   0  0  0  0  0  2  0  0  0  0  0  0
  192.4060  175.8230  142.8910 C   0  0  0  0  0  2  0  0  0  0  0  0
  184.0310  178.5240  144.1690 O   0  0  0  0  0  1  0  0  0  0  0  0
  188.1790  177.1330  146.3340 C   0  0  0  0  0  0  0  0  0  0  0  0
  185.0420  178.5310  147.7060 C   0  0  0  0  0  3  0  0  0  0  0  0
  186.1380  177.8160  145.2050 C   0  0  0  0  0  0  0  0  0  0  0  0
  188.7440  176.7760  145.1440 C   0  0  0  0  0  0  0  0  0  0  0  0
  190.6500  175.1040  147.5310 C   0  0  0  0  0  1  0  0  0  0  0  0
  190.1240  176.2460  145.3570 C   0  0  1  0  0  3  0  0  0  0  0  0
  193.3440  176.3760  143.9190 C   0  0  0  0  0  2  0  0  0  0  0  0
  189.7250  174.5920  143.0960 O   0  0  0  0  0  1  0  0  0  0  0  0
  186.3340  178.0160  147.6410 C   0  0  0  0  0  3  0  0  0  0  0  0
  186.8860  177.6560  146.4070 C   0  0  0  0  0  0  0  0  0  0  0  0
  189.9050  175.8660  142.5490 C   0  0  2  0  0  3  0  0  0  0  0  0
  185.8380  177.5120  140.2740 C   0  0  0  0  0  2  0  0  0  0  0  0
  183.3950  178.0130  140.3310 C   0  0  0  0  0  1  0  0  0  0  0  0
  184.7810  178.5330  140.6630 C   0  0  0  0  0  2  0  0  0  0  0  0
  1 19  1  0  0  0  0
  2 13  1  0  0  0  0
  4  1  2  0  0  0  0
  4 20  1  0  0  0  0
  5  1  1  0  0  0  0
  7 15  1  1  0  0  0
  7  9  1  0  0  0  0
  8  6  1  1  0  0  0
  8 11  1  0  0  0  0
  8 12  1  0  0  0  0
  9 14  1  1  0  0  0
  9 22  1  0  0  0  0
 10  3  1  0  0  0  0
 10 21  1  1  0  0  0
 11 28  1  6  0  0  0
 11  5  1  0  0  0  0
 12  4  1  0  0  0  0
 13 18  2  0  0  0  0
 15 23  1  0  0  0  0
 16  2  1  0  0  0  0
 17 26  1  0  0  0  0
 17  3  1  0  0  0  0
 19  2  2  0  0  0  0
 19 26  1  0  0  0  0
 20 17  2  0  0  0  0
 22 20  1  6  0  0  0
 22 10  1  0  0  0  0
 23 14  1  0  0  0  0
 25 18  1  0  0  0  0
 26 25  2  0  0  0  0
 27 12  1  0  0  0  0
 27 24  1  1  0  0  0
 27  7  1  0  0  0  0
 28 30  1  0  0  0  0
 29 30  1  0  0  0  0
M  END
>  <MODEL>
2

>  <REMARK>
 VINA RESULT:      -8.7      1.781      5.359
  Name = 
  2 active torsions:
  status: ('A' for Active; 'I' for Inactive)
    1  A    between atoms: C_11  and  C_28
    2  A    between atoms: C_28  and  C_30
                            x       y       z     vdW  Elec       q    Type
                         _______ _______ _______ _____ _____    ______ ____

>  <TORSDO>
F 2

$$$$
=
 OpenBabel11112416233D

 30 35  0  0  1  0  0  0  0  0999 V2000
  188.8290  175.8290  144.5630 C   0  0  0  0  0  0  0  0  0  0  0  0
  189.6810  176.7690  146.7120 C   0  0  0  0  0  0  0  0  0  0  0  0
  192.1870  173.3500  144.1730 N   0  0  0  0  0  2  0  0  0  0  0  0
  189.0170  174.9600  143.4630 C   0  0  0  0  0  0  0  0  0  0  0  0
  187.6400  176.6300  144.5990 N   0  0  0  0  0  2  0  0  0  0  0  0
  187.7330  177.2630  141.6220 C   0  0  0  0  0  1  0  0  0  0  0  0
  189.2450  173.9140  140.4530 C   0  0  1  0  0  3  0  0  0  0  0  0
  187.0840  176.0480  142.2770 C   0  0  2  0  0  3  0  0  0  0  0  0
  190.5840  173.7800  141.0730 N   0  0  2  0  0  0  0  0  0  0  0  0
  191.9450  172.6840  142.8960 C   0  0  1  0  0  3  0  0  0  0  0  0
  186.5390  176.3730  143.6730 C   0  0  2  0  0  3  0  0  0  0  0  0
  188.0650  174.9670  142.3770 N   0  0  0  0  0  0  0  0  0  0  0  0
  190.6780  176.8000  147.6920 C   0  0  0  0  0  3  0  0  0  0  0  0
  191.3550  172.9400  140.1490 C   0  0  0  0  0  2  0  0  0  0  0  0
  189.1180  172.9040  139.3400 C   0  0  0  0  0  2  0  0  0  0  0  0
  188.5830  177.6060  146.8680 O   0  0  0  0  0  1  0  0  0  0  0  0
  191.0950  174.2130  144.4210 C   0  0  0  0  0  0  0  0  0  0  0  0
  191.8040  175.9840  147.5890 C   0  0  0  0  0  3  0  0  0  0  0  0
  189.8070  175.9040  145.5960 C   0  0  0  0  0  0  0  0  0  0  0  0
  190.1520  174.1450  143.4370 C   0  0  0  0  0  0  0  0  0  0  0  0
  191.9490  171.1810  143.1010 C   0  0  0  0  0  1  0  0  0  0  0  0
  190.5450  173.1420  142.4020 C   0  0  1  0  0  3  0  0  0  0  0  0
  190.5350  172.6930  138.9020 C   0  0  0  0  0  2  0  0  0  0  0  0
  187.7880  172.6640  141.9710 O   0  0  0  0  0  1  0  0  0  0  0  0
  191.9470  175.1240  146.5020 C   0  0  0  0  0  3  0  0  0  0  0  0
  190.9620  175.0750  145.5100 C   0  0  0  0  0  0  0  0  0  0  0  0
  188.0080  173.9090  141.3730 C   0  0  2  0  0  3  0  0  0  0  0  0
  185.5540  177.5380  143.6610 C   0  0  0  0  0  2  0  0  0  0  0  0
  185.4450  179.9800  144.1580 C   0  0  0  0  0  1  0  0  0  0  0  0
  185.9950  178.6400  144.6100 C   0  0  0  0  0  2  0  0  0  0  0  0
  1  5  1  0  0  0  0
  1 19  1  0  0  0  0
  2 16  1  0  0  0  0
  2 13  1  0  0  0  0
  3 17  1  0  0  0  0
  4  1  2  0  0  0  0
  7 15  1  6  0  0  0
  7  9  1  0  0  0  0
  7 27  1  0  0  0  0
  8  6  1  1  0  0  0
  8 12  1  0  0  0  0
  8 11  1  0  0  0  0
  9 14  1  6  0  0  0
  9 22  1  0  0  0  0
 10 21  1  1  0  0  0
 10  3  1  0  0  0  0
 11 28  1  6  0  0  0
 11  5  1  0  0  0  0
 12  4  1  0  0  0  0
 17 26  1  0  0  0  0
 18 13  2  0  0  0  0
 19  2  2  0  0  0  0
 20  4  1  0  0  0  0
 20 17  2  0  0  0  0
 22 10  1  0  0  0  0
 22 20  1  1  0  0  0
 23 15  1  0  0  0  0
 23 14  1  0  0  0  0
 25 18  1  0  0  0  0
 26 19  1  0  0  0  0
 26 25  2  0  0  0  0
 27 24  1  1  0  0  0
 27 12  1  0  0  0  0
 28 30  1  0  0  0  0
 29 30  1  0  0  0  0
M  END
>  <MODEL>
3

>  <REMARK>
 VINA RESULT:      -7.9      1.970      5.284
  Name = 
  2 active torsions:
  status: ('A' for Active; 'I' for Inactive)
    1  A    between atoms: C_11  and  C_28
    2  A    between atoms: C_28  and  C_30
                            x       y       z     vdW  Elec       q    Type
                         _______ _______ _______ _____ _____    ______ ____

>  <TORSDO>
F 2

$$$$
=
 OpenBabel11112416233D

 30 35  0  0  1  0  0  0  0  0999 V2000
  188.4880  175.7910  142.1630 C   0  0  0  0  0  0  0  0  0  0  0  0
  186.9240  176.7750  140.4860 C   0  0  0  0  0  0  0  0  0  0  0  0
  186.7800  178.0420  145.2600 N   0  0  0  0  0  2  0  0  0  0  0  0
  188.9450  175.7280  143.5000 C   0  0  0  0  0  0  0  0  0  0  0  0
  189.1410  174.9730  141.1830 N   0  0  0  0  0  2  0  0  0  0  0  0
  191.9220  175.4940  142.3060 C   0  0  0  0  0  1  0  0  0  0  0  0
  190.9110  175.7690  146.0170 C   0  0  1  0  0  3  0  0  0  0  0  0
  190.9500  174.4060  142.7480 C   0  0  2  0  0  3  0  0  0  0  0  0
  189.9910  176.9220  146.1530 N   0  0  2  0  0  0  0  0  0  0  0  0
  187.5910  177.6650  146.4140 C   0  0  1  0  0  3  0  0  0  0  0  0
  190.0690  173.9210  141.5890 C   0  0  2  0  0  3  0  0  0  0  0  0
  190.0990  174.9200  143.8210 N   0  0  0  0  0  0  0  0  0  0  0  0
  185.8660  177.6450  140.2030 C   0  0  0  0  0  3  0  0  0  0  0  0
  190.1700  177.3990  147.5300 C   0  0  0  0  0  2  0  0  0  0  0  0
  191.3900  175.3620  147.3890 C   0  0  0  0  0  2  0  0  0  0  0  0
  187.4700  176.0460  139.4360 O   0  0  0  0  0  1  0  0  0  0  0  0
  187.2610  177.3230  144.1430 C   0  0  0  0  0  0  0  0  0  0  0  0
  185.2770  178.4030  141.2140 C   0  0  0  0  0  3  0  0  0  0  0  0
  187.4110  176.6560  141.8110 C   0  0  0  0  0  0  0  0  0  0  0  0
  188.2900  176.4890  144.4710 C   0  0  0  0  0  0  0  0  0  0  0  0
  186.6940  177.1100  147.5030 C   0  0  0  0  0  1  0  0  0  0  0  0
  188.5780  176.5630  145.9360 C   0  0  1  0  0  3  0  0  0  0  0  0
  191.3030  176.6330  148.1760 C   0  0  0  0  0  2  0  0  0  0  0  0
  189.3990  173.8570  145.8030 O   0  0  0  0  0  1  0  0  0  0  0  0
  185.7400  178.3000  142.5250 C   0  0  0  0  0  3  0  0  0  0  0  0
  186.7950  177.4360  142.8320 C   0  0  0  0  0  0  0  0  0  0  0  0
  190.4460  174.5540  145.1910 C   0  0  2  0  0  3  0  0  0  0  0  0
  190.8880  173.4280  140.4000 C   0  0  0  0  0  2  0  0  0  0  0  0
  189.4460  172.1100  138.8490 C   0  0  0  0  0  1  0  0  0  0  0  0
  190.0730  173.4650  139.1170 C   0  0  0  0  0  2  0  0  0  0  0  0
  1  4  1  0  0  0  0
  2 19  1  0  0  0  0
  3 10  1  0  0  0  0
  4 12  1  0  0  0  0
  4 20  2  0  0  0  0
  5 11  1  0  0  0  0
  5  1  1  0  0  0  0
  7  9  1  0  0  0  0
  7 15  1  1  0  0  0
  8  6  1  6  0  0  0
  8 12  1  0  0  0  0
  9 14  1  1  0  0  0
 10 21  1  1  0  0  0
 11 28  1  6  0  0  0
 11  8  1  0  0  0  0
 12 27  1  0  0  0  0
 13  2  2  0  0  0  0
 13 18  1  0  0  0  0
 14 23  1  0  0  0  0
 15 23  1  0  0  0  0
 16  2  1  0  0  0  0
 17 20  1  0  0  0  0
 17  3  1  0  0  0  0
 18 25  2  0  0  0  0
 19  1  2  0  0  0  0
 19 26  1  0  0  0  0
 22 20  1  6  0  0  0
 22  9  1  0  0  0  0
 22 10  1  0  0  0  0
 25 26  1  0  0  0  0
 26 17  2  0  0  0  0
 27 24  1  1  0  0  0
 27  7  1  0  0  0  0
 29 30  1  0  0  0  0
 30 28  1  0  0  0  0
M  END
>  <MODEL>
4

>  <REMARK>
 VINA RESULT:      -7.8      2.029      5.894
  Name = 
  2 active torsions:
  status: ('A' for Active; 'I' for Inactive)
    1  A    between atoms: C_11  and  C_28
    2  A    between atoms: C_28  and  C_30
                            x       y       z     vdW  Elec       q    Type
                         _______ _______ _______ _____ _____    ______ ____

>  <TORSDO>
F 2

$$$$
=
 OpenBabel11112416233D

 30 35  0  0  1  0  0  0  0  0999 V2000
  189.4120  175.8790  144.4560 C   0  0  0  0  0  0  0  0  0  0  0  0
  190.7690  176.5600  146.4360 C   0  0  0  0  0  0  0  0  0  0  0  0
  192.2140  172.9510  143.3850 N   0  0  0  0  0  2  0  0  0  0  0  0
  189.2630  175.0540  143.3160 C   0  0  0  0  0  0  0  0  0  0  0  0
  188.3900  176.8460  144.7320 N   0  0  0  0  0  2  0  0  0  0  0  0
  188.0500  177.6230  141.8080 C   0  0  0  0  0  1  0  0  0  0  0  0
  188.7850  174.1560  140.2880 C   0  0  1  0  0  3  0  0  0  0  0  0
  187.3450  176.4850  142.5370 C   0  0  2  0  0  3  0  0  0  0  0  0
  190.1740  173.7890  140.6470 N   0  0  2  0  0  0  0  0  0  0  0  0
  191.6470  172.4010  142.1570 C   0  0  1  0  0  3  0  0  0  0  0  0
  187.1150  176.8090  144.0190 C   0  0  2  0  0  3  0  0  0  0  0  0
  188.1450  175.2650  142.4250 N   0  0  0  0  0  0  0  0  0  0  0  0
  191.9170  176.3860  147.2160 C   0  0  0  0  0  3  0  0  0  0  0  0
  190.6260  172.8950  139.5730 C   0  0  0  0  0  2  0  0  0  0  0  0
  188.3040  173.2400  139.1910 C   0  0  0  0  0  2  0  0  0  0  0  0
  189.8620  177.5420  146.8150 O   0  0  0  0  0  1  0  0  0  0  0  0
  191.3340  173.9520  143.8540 C   0  0  0  0  0  0  0  0  0  0  0  0
  192.8640  175.4170  146.8850 C   0  0  0  0  0  3  0  0  0  0  0  0
  190.5570  175.7490  145.2930 C   0  0  0  0  0  0  0  0  0  0  0  0
  190.2320  174.0810  143.0590 C   0  0  0  0  0  0  0  0  0  0  0  0
  191.4510  170.9050  142.3160 C   0  0  0  0  0  1  0  0  0  0  0  0
  190.2710  173.0900  141.9420 C   0  0  1  0  0  3  0  0  0  0  0  0
  189.5690  172.8450  138.4930 C   0  0  0  0  0  2  0  0  0  0  0  0
  187.4420  173.0560  142.0140 O   0  0  0  0  0  1  0  0  0  0  0  0
  192.6740  174.6080  145.7670 C   0  0  0  0  0  3  0  0  0  0  0  0
  191.5340  174.7620  144.9730 C   0  0  0  0  0  0  0  0  0  0  0  0
  187.7450  174.2850  141.4200 C   0  0  2  0  0  3  0  0  0  0  0  0
  186.3400  178.1070  144.2200 C   0  0  0  0  0  2  0  0  0  0  0  0
  185.1940  177.1500  146.2180 C   0  0  0  0  0  1  0  0  0  0  0  0
  185.9970  178.3210  145.6850 C   0  0  0  0  0  2  0  0  0  0  0  0
  1  5  1  0  0  0  0
  1 19  1  0  0  0  0
  2 16  1  0  0  0  0
  2 13  1  0  0  0  0
  3 17  1  0  0  0  0
  4  1  2  0  0  0  0
  7 15  1  6  0  0  0
  7  9  1  0  0  0  0
  7 27  1  0  0  0  0
  8  6  1  1  0  0  0
  8 11  1  0  0  0  0
  9 14  1  6  0  0  0
  9 22  1  0  0  0  0
 10 21  1  1  0  0  0
 10  3  1  0  0  0  0
 11 28  1  6  0  0  0
 11  5  1  0  0  0  0
 12  8  1  0  0  0  0
 12  4  1  0  0  0  0
 17 26  1  0  0  0  0
 18 13  2  0  0  0  0
 19  2  2  0  0  0  0
 20  4  1  0  0  0  0
 20 17  2  0  0  0  0
 22 10  1  0  0  0  0
 22 20  1  1  0  0  0
 23 15  1  0  0  0  0
 23 14  1  0  0  0  0
 25 18  1  0  0  0  0
 26 19  1  0  0  0  0
 26 25  2  0  0  0  0
 27 24  1  1  0  0  0
 27 12  1  0  0  0  0
 28 30  1  0  0  0  0
 30 29  1  0  0  0  0
M  END
>  <MODEL>
5

>  <REMARK>
 VINA RESULT:      -7.5      2.080      5.367
  Name = 
  2 active torsions:
  status: ('A' for Active; 'I' for Inactive)
    1  A    between atoms: C_11  and  C_28
    2  A    between atoms: C_28  and  C_30
                            x       y       z     vdW  Elec       q    Type
                         _______ _______ _______ _____ _____    ______ ____

>  <TORSDO>
F 2

$$$$
=
 OpenBabel11112416233D

 30 35  0  0  1  0  0  0  0  0999 V2000
  188.4210  175.1660  141.5770 C   0  0  0  0  0  0  0  0  0  0  0  0
  186.9180  177.1060  141.1250 C   0  0  0  0  0  0  0  0  0  0  0  0
  189.2230  176.5310  145.4580 N   0  0  0  0  0  2  0  0  0  0  0  0
  189.2900  174.4880  142.4640 C   0  0  0  0  0  0  0  0  0  0  0  0
  188.2130  174.6080  140.2730 N   0  0  0  0  0  2  0  0  0  0  0  0
  191.1380  173.8400  139.9130 C   0  0  0  0  0  1  0  0  0  0  0  0
  191.8920  173.0300  143.6070 C   0  0  1  0  0  3  0  0  0  0  0  0
  190.0510  173.0040  140.5810 C   0  0  2  0  0  3  0  0  0  0  0  0
  191.6970  174.2710  144.3930 N   0  0  2  0  0  0  0  0  0  0  0  0
  190.1710  175.5390  145.9560 C   0  0  1  0  0  3  0  0  0  0  0  0
  188.6720  173.2560  139.9580 C   0  0  2  0  0  3  0  0  0  0  0  0
  190.0030  173.3180  142.0090 N   0  0  0  0  0  0  0  0  0  0  0  0
  186.3250  178.2900  141.5760 C   0  0  0  0  0  3  0  0  0  0  0  0
  192.5880  174.1380  145.5520 C   0  0  0  0  0  2  0  0  0  0  0  0
  192.6430  172.0300  144.4510 C   0  0  0  0  0  2  0  0  0  0  0  0
  186.6350  176.6830  139.8320 O   0  0  0  0  0  1  0  0  0  0  0  0
  188.8640  176.1600  144.1430 C   0  0  0  0  0  0  0  0  0  0  0  0
  186.5710  178.7650  142.8630 C   0  0  0  0  0  3  0  0  0  0  0  0
  187.7830  176.3750  141.9780 C   0  0  0  0  0  0  0  0  0  0  0  0
  189.4680  175.0010  143.7520 C   0  0  0  0  0  0  0  0  0  0  0  0
  189.6310  174.9170  147.2290 C   0  0  0  0  0  1  0  0  0  0  0  0
  190.3080  174.4480  144.8570 C   0  0  1  0  0  3  0  0  0  0  0  0
  193.4310  172.8920  145.3890 C   0  0  0  0  0  2  0  0  0  0  0  0
  189.7530  171.8640  143.8440 O   0  0  0  0  0  1  0  0  0  0  0  0
  187.4170  178.0610  143.7190 C   0  0  0  0  0  3  0  0  0  0  0  0
  188.0200  176.8740  143.2910 C   0  0  0  0  0  0  0  0  0  0  0  0
  190.6640  172.3940  142.9250 C   0  0  2  0  0  3  0  0  0  0  0  0
  188.6570  173.0120  138.4520 C   0  0  0  0  0  2  0  0  0  0  0  0
  189.0590  174.4850  136.4800 C   0  0  0  0  0  1  0  0  0  0  0  0
  188.1890  174.2470  137.7000 C   0  0  0  0  0  2  0  0  0  0  0  0
  1 19  2  0  0  0  0
  1  4  1  0  0  0  0
  2 13  2  0  0  0  0
  2 19  1  0  0  0  0
  3 10  1  0  0  0  0
  4 20  2  0  0  0  0
  5  1  1  0  0  0  0
  7  9  1  0  0  0  0
  7 15  1  1  0  0  0
  8  6  1  6  0  0  0
  8 12  1  0  0  0  0
  9 22  1  0  0  0  0
  9 14  1  1  0  0  0
 10 21  1  1  0  0  0
 11 28  1  6  0  0  0
 11  5  1  0  0  0  0
 11  8  1  0  0  0  0
 12  4  1  0  0  0  0
 12 27  1  0  0  0  0
 13 18  1  0  0  0  0
 15 23  1  0  0  0  0
 16  2  1  0  0  0  0
 17  3  1  0  0  0  0
 18 25  2  0  0  0  0
 19 26  1  0  0  0  0
 20 17  1  0  0  0  0
 22 20  1  6  0  0  0
 22 10  1  0  0  0  0
 23 14  1  0  0  0  0
 26 25  1  0  0  0  0
 26 17  2  0  0  0  0
 27  7  1  0  0  0  0
 27 24  1  1  0  0  0
 29 30  1  0  0  0  0
 30 28  1  0  0  0  0
M  END
>  <MODEL>
6

>  <REMARK>
 VINA RESULT:      -7.4      2.791      6.308
  Name = 
  2 active torsions:
  status: ('A' for Active; 'I' for Inactive)
    1  A    between atoms: C_11  and  C_28
    2  A    between atoms: C_28  and  C_30
                            x       y       z     vdW  Elec       q    Type
                         _______ _______ _______ _____ _____    ______ ____

>  <TORSDO>
F 2

$$$$
=
 OpenBabel11112416233D

 30 35  0  0  1  0  0  0  0  0999 V2000
  188.7590  176.5600  144.0680 C   0  0  0  0  0  0  0  0  0  0  0  0
  186.9080  178.1070  143.4310 C   0  0  0  0  0  0  0  0  0  0  0  0
  188.4940  174.5370  140.4060 N   0  0  0  0  0  2  0  0  0  0  0  0
  189.5840  175.4590  143.7380 C   0  0  0  0  0  0  0  0  0  0  0  0
  188.9380  177.1820  145.3470 N   0  0  0  0  0  2  0  0  0  0  0  0
  189.3160  174.5370  146.8070 C   0  0  0  0  0  1  0  0  0  0  0  0
  191.0780  172.6430  143.9470 C   0  0  1  0  0  3  0  0  0  0  0  0
  190.3980  175.3600  146.1160 C   0  0  2  0  0  3  0  0  0  0  0  0
  190.1340  172.5620  142.8080 N   0  0  2  0  0  0  0  0  0  0  0  0
  189.5010  173.4900  140.5460 C   0  0  1  0  0  3  0  0  0  0  0  0
  190.0990  176.8640  146.1760 C   0  0  2  0  0  3  0  0  0  0  0  0
  190.5100  174.9430  144.7190 N   0  0  0  0  0  0  0  0  0  0  0  0
  185.9580  178.5110  142.4880 C   0  0  0  0  0  3  0  0  0  0  0  0
  190.5150  171.3470  142.0780 C   0  0  0  0  0  2  0  0  0  0  0  0
  192.2080  171.6710  143.7170 C   0  0  0  0  0  2  0  0  0  0  0  0
  186.9680  178.7960  144.6370 O   0  0  0  0  0  1  0  0  0  0  0  0
  188.5040  175.3040  141.5920 C   0  0  0  0  0  0  0  0  0  0  0  0
  185.8500  177.8590  141.2610 C   0  0  0  0  0  3  0  0  0  0  0  0
  187.7750  177.0220  143.1480 C   0  0  0  0  0  0  0  0  0  0  0  0
  189.4470  174.8700  142.4780 C   0  0  0  0  0  0  0  0  0  0  0  0
  190.5050  173.5980  139.4140 C   0  0  0  0  0  1  0  0  0  0  0  0
  190.2170  173.7250  141.9050 C   0  0  1  0  0  3  0  0  0  0  0  0
  191.5840  170.6140  142.8570 C   0  0  0  0  0  2  0  0  0  0  0  0
  192.4430  174.6040  143.4170 O   0  0  0  0  0  1  0  0  0  0  0  0
  186.6930  176.7910  140.9600 C   0  0  0  0  0  3  0  0  0  0  0  0
  187.6520  176.3700  141.8870 C   0  0  0  0  0  0  0  0  0  0  0  0
  191.5960  174.0310  144.3720 C   0  0  2  0  0  3  0  0  0  0  0  0
  189.9040  177.3650  147.6030 C   0  0  0  0  0  2  0  0  0  0  0  0
  191.2000  178.2910  149.5240 C   0  0  0  0  0  1  0  0  0  0  0  0
  191.1960  177.2710  148.4000 C   0  0  0  0  0  2  0  0  0  0  0  0
  1  5  1  0  0  0  0
  2 16  1  0  0  0  0
  3 10  1  0  0  0  0
  3 17  1  0  0  0  0
  4  1  1  0  0  0  0
  4 12  1  0  0  0  0
  5 11  1  0  0  0  0
  7 15  1  6  0  0  0
  7 27  1  0  0  0  0
  8 11  1  0  0  0  0
  8  6  1  6  0  0  0
  9 14  1  6  0  0  0
  9  7  1  0  0  0  0
 10 21  1  6  0  0  0
 10 22  1  0  0  0  0
 11 28  1  1  0  0  0
 12  8  1  0  0  0  0
 13  2  2  0  0  0  0
 14 23  1  0  0  0  0
 17 26  2  0  0  0  0
 17 20  1  0  0  0  0
 18 13  1  0  0  0  0
 19  2  1  0  0  0  0
 19  1  2  0  0  0  0
 20  4  2  0  0  0  0
 22 20  1  1  0  0  0
 22  9  1  0  0  0  0
 23 15  1  0  0  0  0
 25 18  2  0  0  0  0
 25 26  1  0  0  0  0
 26 19  1  0  0  0  0
 27 24  1  6  0  0  0
 27 12  1  0  0  0  0
 28 30  1  0  0  0  0
 30 29  1  0  0  0  0
M  END
>  <MODEL>
7

>  <REMARK>
 VINA RESULT:      -7.3      1.995      3.184
  Name = 
  2 active torsions:
  status: ('A' for Active; 'I' for Inactive)
    1  A    between atoms: C_11  and  C_28
    2  A    between atoms: C_28  and  C_30
                            x       y       z     vdW  Elec       q    Type
                         _______ _______ _______ _____ _____    ______ ____

>  <TORSDO>
F 2

$$$$
=
 OpenBabel11112416233D

 30 35  0  0  1  0  0  0  0  0999 V2000
  189.7570  175.3440  143.4530 C   0  0  0  0  0  0  0  0  0  0  0  0
  188.1800  174.5620  141.6850 C   0  0  0  0  0  0  0  0  0  0  0  0
  193.0540  173.8130  141.3650 N   0  0  0  0  0  2  0  0  0  0  0  0
  191.0820  175.4350  143.9390 C   0  0  0  0  0  0  0  0  0  0  0  0
  188.7040  175.9070  144.2460 N   0  0  0  0  0  2  0  0  0  0  0  0
  189.8770  174.9140  146.8750 C   0  0  0  0  0  1  0  0  0  0  0  0
  193.5960  175.2150  145.8980 C   0  0  1  0  0  3  0  0  0  0  0  0
  190.2090  176.2210  146.1640 C   0  0  2  0  0  3  0  0  0  0  0  0
  193.8400  174.3030  144.7570 N   0  0  2  0  0  0  0  0  0  0  0  0
  194.1670  174.1180  142.2590 C   0  0  1  0  0  3  0  0  0  0  0  0
  189.0070  176.7710  145.3850 C   0  0  2  0  0  3  0  0  0  0  0  0
  191.3260  176.0060  145.2430 N   0  0  0  0  0  0  0  0  0  0  0  0
  187.9810  173.9140  140.4610 C   0  0  0  0  0  3  0  0  0  0  0  0
  195.2570  173.9320  144.8560 C   0  0  0  0  0  2  0  0  0  0  0  0
  194.9220  175.6390  146.4780 C   0  0  0  0  0  2  0  0  0  0  0  0
  187.0660  175.0540  142.3540 O   0  0  0  0  0  1  0  0  0  0  0  0
  191.8730  174.3050  141.9660 C   0  0  0  0  0  0  0  0  0  0  0  0
  189.0590  173.3990  139.7440 C   0  0  0  0  0  3  0  0  0  0  0  0
  189.4880  174.6990  142.2110 C   0  0  0  0  0  0  0  0  0  0  0  0
  192.1210  174.9270  143.1550 C   0  0  0  0  0  0  0  0  0  0  0  0
  195.1960  174.9510  141.5210 C   0  0  0  0  0  1  0  0  0  0  0  0
  193.5870  174.9330  143.4480 C   0  0  1  0  0  3  0  0  0  0  0  0
  195.8290  174.4970  146.1380 C   0  0  0  0  0  2  0  0  0  0  0  0
  193.1940  177.3760  144.8220 O   0  0  0  0  0  1  0  0  0  0  0  0
  190.3540  173.5250  140.2420 C   0  0  0  0  0  3  0  0  0  0  0  0
  190.5780  174.1700  141.4620 C   0  0  0  0  0  0  0  0  0  0  0  0
  192.6540  176.4180  145.6860 C   0  0  2  0  0  3  0  0  0  0  0  0
  187.7780  176.9630  146.2670 C   0  0  0  0  0  2  0  0  0  0  0  0
  185.2920  176.7920  146.3920 C   0  0  0  0  0  1  0  0  0  0  0  0
  186.4950  176.7910  145.4690 C   0  0  0  0  0  2  0  0  0  0  0  0
  1  4  1  0  0  0  0
  1  5  1  0  0  0  0
  2 19  1  0  0  0  0
  2 16  1  0  0  0  0
  3 17  1  0  0  0  0
  3 10  1  0  0  0  0
  4 12  1  0  0  0  0
  5 11  1  0  0  0  0
  7 15  1  6  0  0  0
  8  6  1  6  0  0  0
  9 14  1  6  0  0  0
  9  7  1  0  0  0  0
 10 21  1  6  0  0  0
 10 22  1  0  0  0  0
 11  8  1  0  0  0  0
 11 28  1  1  0  0  0
 12 27  1  0  0  0  0
 12  8  1  0  0  0  0
 13  2  2  0  0  0  0
 14 23  1  0  0  0  0
 17 20  1  0  0  0  0
 18 25  2  0  0  0  0
 18 13  1  0  0  0  0
 19  1  2  0  0  0  0
 20  4  2  0  0  0  0
 22 20  1  6  0  0  0
 22  9  1  0  0  0  0
 23 15  1  0  0  0  0
 25 26  1  0  0  0  0
 26 17  2  0  0  0  0
 26 19  1  0  0  0  0
 27 24  1  6  0  0  0
 27  7  1  0  0  0  0
 30 28  1  0  0  0  0
 30 29  1  0  0  0  0
M  END
>  <MODEL>
8

>  <REMARK>
 VINA RESULT:      -7.2      2.749      6.101
  Name = 
  2 active torsions:
  status: ('A' for Active; 'I' for Inactive)
    1  A    between atoms: C_11  and  C_28
    2  A    between atoms: C_28  and  C_30
                            x       y       z     vdW  Elec       q    Type
                         _______ _______ _______ _____ _____    ______ ____

>  <TORSDO>
F 2

$$$$
=
 OpenBabel11112416233D

 30 35  0  0  1  0  0  0  0  0999 V2000
  189.7460  175.1510  142.4780 C   0  0  0  0  0  0  0  0  0  0  0  0
  187.7170  176.5300  142.0220 C   0  0  0  0  0  0  0  0  0  0  0  0
  190.3150  176.9970  146.1990 N   0  0  0  0  0  2  0  0  0  0  0  0
  190.8220  174.8280  143.3380 C   0  0  0  0  0  0  0  0  0  0  0  0
  189.6430  174.4540  141.2300 N   0  0  0  0  0  2  0  0  0  0  0  0
  192.6410  174.5410  140.7020 C   0  0  0  0  0  1  0  0  0  0  0  0
  193.7950  174.2840  144.3720 C   0  0  1  0  0  3  0  0  0  0  0  0
  191.8850  173.4830  141.4980 C   0  0  2  0  0  3  0  0  0  0  0  0
  193.2840  175.4730  145.0930 N   0  0  2  0  0  0  0  0  0  0  0  0
  191.5380  176.3660  146.6850 C   0  0  1  0  0  3  0  0  0  0  0  0
  190.4620  173.2730  140.9650 C   0  0  2  0  0  3  0  0  0  0  0  0
  191.8230  173.8820  142.9040 N   0  0  0  0  0  0  0  0  0  0  0  0
  186.8260  177.5220  142.4420 C   0  0  0  0  0  3  0  0  0  0  0  0
  194.2350  175.6980  146.1890 C   0  0  0  0  0  2  0  0  0  0  0  0
  194.8510  173.6160  145.2170 C   0  0  0  0  0  2  0  0  0  0  0  0
  187.5030  175.9400  140.7810 O   0  0  0  0  0  1  0  0  0  0  0  0
  190.0120  176.4340  144.9390 C   0  0  0  0  0  0  0  0  0  0  0  0
  186.9890  178.1500  143.6760 C   0  0  0  0  0  3  0  0  0  0  0  0
  188.8020  176.1510  142.8500 C   0  0  0  0  0  0  0  0  0  0  0  0
  190.9090  175.4720  144.5760 C   0  0  0  0  0  0  0  0  0  0  0  0
  191.2740  175.7180  148.0300 C   0  0  0  0  0  1  0  0  0  0  0  0
  191.9320  175.2770  145.6470 C   0  0  1  0  0  3  0  0  0  0  0  0
  195.3980  174.7420  146.0400 C   0  0  0  0  0  2  0  0  0  0  0  0
  192.1100  172.5710  144.8380 O   0  0  0  0  0  1  0  0  0  0  0  0
  188.0480  177.7920  144.5080 C   0  0  0  0  0  3  0  0  0  0  0  0
  188.9510  176.8020  144.1090 C   0  0  0  0  0  0  0  0  0  0  0  0
  192.7750  173.2660  143.8230 C   0  0  2  0  0  3  0  0  0  0  0  0
  190.4400  172.9150  139.4820 C   0  0  0  0  0  2  0  0  0  0  0  0
  188.9710  173.8800  137.7120 C   0  0  0  0  0  1  0  0  0  0  0  0
  189.0270  172.9700  138.9240 C   0  0  0  0  0  2  0  0  0  0  0  0
  1 19  2  0  0  0  0
  1  4  1  0  0  0  0
  2 13  2  0  0  0  0
  2 19  1  0  0  0  0
  3 10  1  0  0  0  0
  4 20  2  0  0  0  0
  5  1  1  0  0  0  0
  7  9  1  0  0  0  0
  7 15  1  1  0  0  0
  8  6  1  6  0  0  0
  8 12  1  0  0  0  0
  9 22  1  0  0  0  0
  9 14  1  1  0  0  0
 10 21  1  1  0  0  0
 11 28  1  6  0  0  0
 11  5  1  0  0  0  0
 11  8  1  0  0  0  0
 12  4  1  0  0  0  0
 12 27  1  0  0  0  0
 13 18  1  0  0  0  0
 15 23  1  0  0  0  0
 16  2  1  0  0  0  0
 17  3  1  0  0  0  0
 18 25  2  0  0  0  0
 19 26  1  0  0  0  0
 20 17  1  0  0  0  0
 22 20  1  6  0  0  0
 22 10  1  0  0  0  0
 23 14  1  0  0  0  0
 26 25  1  0  0  0  0
 26 17  2  0  0  0  0
 27  7  1  0  0  0  0
 27 24  1  1  0  0  0
 29 30  1  0  0  0  0
 30 28  1  0  0  0  0
M  END
>  <MODEL>
9

>  <REMARK>
 VINA RESULT:      -7.2      2.603      6.406
  Name = 
  2 active torsions:
  status: ('A' for Active; 'I' for Inactive)
    1  A    between atoms: C_11  and  C_28
    2  A    between atoms: C_28  and  C_30
                            x       y       z     vdW  Elec       q    Type
                         _______ _______ _______ _____ _____    ______ ____

>  <TORSDO>
F 2

$$$$
