=
 OpenBabel11112417043D

 31 35  0  0  1  0  0  0  0  0999 V2000
  184.7760  177.9250  147.1930 C   0  0  1  0  0  3  0  0  0  0  0  0
  187.3910  175.9300  145.0800 C   0  0  2  0  0  3  0  0  0  0  0  0
  187.4310  176.6150  143.7140 C   0  0  0  0  0  0  0  0  0  0  0  0
  186.3560  177.9970  142.0180 C   0  0  0  0  0  0  0  0  0  0  0  0
  186.7830  176.7510  146.2350 C   0  0  2  0  0  3  0  0  0  0  0  0
  185.6270  179.1690  147.4100 C   0  0  0  0  0  2  0  0  0  0  0  0
  186.3720  177.4380  143.2960 C   0  0  0  0  0  3  0  0  0  0  0  0
  189.6950  176.6030  145.9310 C   0  0  2  0  0  3  0  0  0  0  0  0
  183.4590  178.3010  146.9350 O   0  0  0  0  0  1  0  0  0  0  0  0
  189.6430  175.4650  143.1490 C   0  0  0  0  0  2  0  0  0  0  0  0
  185.3310  178.8000  141.6430 F   0  0  0  0  0  0  0  0  0  0  0  0
  189.0390  177.4560  147.0200 C   0  0  0  0  0  2  0  0  0  0  0  0
  188.7800  175.4330  145.5150 C   0  0  2  0  0  3  0  0  0  0  0  0
  185.3140  177.1240  146.0140 C   0  0  0  0  0  2  0  0  0  0  0  0
  187.3900  177.7230  141.1240 C   0  0  0  0  0  3  0  0  0  0  0  0
  187.6680  177.9590  146.5840 C   0  0  2  0  0  3  0  0  0  0  0  0
  187.0610  178.7620  147.7320 C   0  0  0  0  0  2  0  0  0  0  0  0
  189.3960  174.6060  144.3870 C   0  0  0  0  0  2  0  0  0  0  0  0
  188.4590  176.3130  142.7850 C   0  0  0  0  0  0  0  0  0  0  0  0
  188.4370  176.8850  141.5090 C   0  0  0  0  0  3  0  0  0  0  0  0
  192.2330  177.1110  144.7380 O   0  0  0  0  0  0  0  0  0  0  0  0
  192.2100  176.3930  145.7740 C   0  0  0  0  0  0  0  0  0  0  0  0
  190.9690  176.0920  146.4150 N   0  0  0  0  0  2  0  0  0  0  0  0
  195.5900  176.1000  144.3770 C   0  0  0  0  0  0  0  0  0  0  0  0
  194.5690  176.8990  146.5020 C   0  0  0  0  0  2  0  0  0  0  0  0
  193.0190  173.6430  145.4240 O   0  0  0  0  0  1  0  0  0  0  0  0
  196.5820  176.2090  143.5000 C   0  0  0  0  0  2  0  0  0  0  0  0
  195.1760  177.3100  145.1590 C   0  0  0  0  0  2  0  0  0  0  0  0
  194.0150  174.6080  145.5800 C   0  0  2  0  0  3  0  0  0  0  0  0
  193.4800  175.8310  146.3440 C   0  0  2  0  0  3  0  0  0  0  0  0
  194.6030  174.9830  144.2200 C   0  0  0  0  0  2  0  0  0  0  0  0
  1  9  1  6  0  0  0
  1  6  1  0  0  0  0
  2  3  1  6  0  0  0
  2 13  1  0  0  0  0
  2  5  1  0  0  0  0
  4  7  2  0  0  0  0
  5 14  1  6  0  0  0
  5 16  1  0  0  0  0
  6 17  1  0  0  0  0
  7  3  1  0  0  0  0
  8 23  1  1  0  0  0
  8 12  1  0  0  0  0
 10 18  1  0  0  0  0
 11  4  1  0  0  0  0
 13 18  1  6  0  0  0
 13  8  1  0  0  0  0
 14  1  1  0  0  0  0
 15 20  2  0  0  0  0
 15  4  1  0  0  0  0
 16 12  1  1  0  0  0
 16 17  1  0  0  0  0
 19 10  1  0  0  0  0
 19  3  2  0  0  0  0
 20 19  1  0  0  0  0
 21 22  2  0  0  0  0
 22 23  1  0  0  0  0
 24 28  1  0  0  0  0
 27 24  2  0  0  0  0
 28 25  1  0  0  0  0
 29 26  1  6  0  0  0
 29 30  1  0  0  0  0
 30 22  1  6  0  0  0
 30 25  1  0  0  0  0
 31 24  1  0  0  0  0
 31 29  1  0  0  0  0
M  END
>  <MODEL>
1

>  <REMARK>
 VINA RESULT:      -8.6      0.000      0.000
  Name = 
  2 active torsions:
  status: ('A' for Active; 'I' for Inactive)
    1  A    between atoms: C_5  and  C_30
    2  A    between atoms: C_10  and  N_16
                            x       y       z     vdW  Elec       q    Type
                         _______ _______ _______ _____ _____    ______ ____

>  <TORSDO>
F 2

$$$$
=
 OpenBabel11112417043D

 31 35  0  0  1  0  0  0  0  0999 V2000
  192.1260  172.7880  141.8660 C   0  0  1  0  0  3  0  0  0  0  0  0
  191.4930  174.1180  145.4860 C   0  0  2  0  0  3  0  0  0  0  0  0
  192.5350  175.2130  145.7160 C   0  0  0  0  0  0  0  0  0  0  0  0
  194.6890  176.2160  145.1750 C   0  0  0  0  0  0  0  0  0  0  0  0
  191.2280  173.7270  144.0190 C   0  0  2  0  0  3  0  0  0  0  0  0
  191.5780  174.0020  141.1270 C   0  0  0  0  0  2  0  0  0  0  0  0
  193.6900  175.2770  144.9190 C   0  0  0  0  0  3  0  0  0  0  0  0
  189.4030  175.5700  145.3850 C   0  0  2  0  0  3  0  0  0  0  0  0
  193.2770  172.3350  141.2250 O   0  0  0  0  0  1  0  0  0  0  0  0
  191.2220  176.1100  147.7170 C   0  0  0  0  0  2  0  0  0  0  0  0
  195.7880  176.2690  144.3840 F   0  0  0  0  0  0  0  0  0  0  0  0
  189.2230  175.2000  143.9110 C   0  0  0  0  0  2  0  0  0  0  0  0
  190.1470  174.4570  146.1500 C   0  0  2  0  0  3  0  0  0  0  0  0
  192.4580  173.1600  143.3050 C   0  0  0  0  0  2  0  0  0  0  0  0
  194.5610  177.0960  146.2480 C   0  0  0  0  0  3  0  0  0  0  0  0
  190.5580  174.8770  143.2500 C   0  0  2  0  0  3  0  0  0  0  0  0
  190.2950  174.4780  141.7990 C   0  0  0  0  0  2  0  0  0  0  0  0
  190.3870  174.8360  147.6110 C   0  0  0  0  0  2  0  0  0  0  0  0
  192.4310  176.0880  146.8270 C   0  0  0  0  0  0  0  0  0  0  0  0
  193.4340  177.0320  147.0690 C   0  0  0  0  0  3  0  0  0  0  0  0
  188.6650  177.9040  146.8450 O   0  0  0  0  0  0  0  0  0  0  0  0
  187.7920  177.0050  146.7030 C   0  0  0  0  0  0  0  0  0  0  0  0
  188.1000  175.8070  145.9900 N   0  0  0  0  0  2  0  0  0  0  0  0
  184.8010  178.7280  145.4570 C   0  0  0  0  0  0  0  0  0  0  0  0
  185.3360  176.5020  146.4350 C   0  0  0  0  0  2  0  0  0  0  0  0
  187.0450  179.2480  148.3620 O   0  0  0  0  0  1  0  0  0  0  0  0
  184.0290  179.4370  144.6400 C   0  0  0  0  0  2  0  0  0  0  0  0
  185.0470  177.2810  145.1500 C   0  0  0  0  0  2  0  0  0  0  0  0
  186.0510  178.6350  147.5970 C   0  0  2  0  0  3  0  0  0  0  0  0
  186.4200  177.1720  147.2880 C   0  0  2  0  0  3  0  0  0  0  0  0
  185.7840  179.4460  146.3310 C   0  0  0  0  0  2  0  0  0  0  0  0
  1  9  1  6  0  0  0
  1 14  1  0  0  0  0
  2  3  1  6  0  0  0
  2 13  1  0  0  0  0
  3 19  1  0  0  0  0
  4 15  2  0  0  0  0
  5 14  1  6  0  0  0
  5  2  1  0  0  0  0
  6 17  1  0  0  0  0
  6  1  1  0  0  0  0
  7  4  1  0  0  0  0
  7  3  2  0  0  0  0
  8 23  1  1  0  0  0
  8 13  1  0  0  0  0
 11  4  1  0  0  0  0
 12  8  1  0  0  0  0
 13 18  1  1  0  0  0
 15 20  1  0  0  0  0
 16 17  1  6  0  0  0
 16 12  1  0  0  0  0
 16  5  1  0  0  0  0
 18 10  1  0  0  0  0
 19 20  2  0  0  0  0
 19 10  1  0  0  0  0
 22 21  2  0  0  0  0
 23 22  1  0  0  0  0
 24 31  1  0  0  0  0
 25 30  1  0  0  0  0
 27 24  2  0  0  0  0
 28 24  1  0  0  0  0
 28 25  1  0  0  0  0
 29 26  1  6  0  0  0
 30 22  1  6  0  0  0
 30 29  1  0  0  0  0
 31 29  1  0  0  0  0
M  END
>  <MODEL>
2

>  <REMARK>
 VINA RESULT:      -8.4      2.967      7.949
  Name = 
  2 active torsions:
  status: ('A' for Active; 'I' for Inactive)
    1  A    between atoms: C_5  and  C_30
    2  A    between atoms: C_10  and  N_16
                            x       y       z     vdW  Elec       q    Type
                         _______ _______ _______ _____ _____    ______ ____

>  <TORSDO>
F 2

$$$$
=
 OpenBabel11112417043D

 31 35  0  0  1  0  0  0  0  0999 V2000
  194.4730  176.7720  145.0800 C   0  0  1  0  0  3  0  0  0  0  0  0
  190.9450  176.3940  143.4400 C   0  0  2  0  0  3  0  0  0  0  0  0
  190.8410  174.9310  143.0100 C   0  0  0  0  0  0  0  0  0  0  0  0
  191.9200  172.8390  142.3800 C   0  0  0  0  0  0  0  0  0  0  0  0
  192.0300  176.7210  144.4840 C   0  0  2  0  0  3  0  0  0  0  0  0
  194.1600  176.0150  146.3630 C   0  0  0  0  0  2  0  0  0  0  0  0
  191.9960  174.1480  142.8560 C   0  0  0  0  0  3  0  0  0  0  0  0
  189.2470  176.3760  145.3370 C   0  0  2  0  0  3  0  0  0  0  0  0
  195.7500  176.4300  144.6380 O   0  0  0  0  0  1  0  0  0  0  0  0
  188.3040  175.1340  142.7670 C   0  0  0  0  0  2  0  0  0  0  0  0
  193.0470  172.0970  142.2540 F   0  0  0  0  0  0  0  0  0  0  0  0
  190.3730  176.6370  146.3410 C   0  0  0  0  0  2  0  0  0  0  0  0
  189.6000  176.9420  143.9470 C   0  0  2  0  0  3  0  0  0  0  0  0
  193.4530  176.4200  144.0040 C   0  0  0  0  0  2  0  0  0  0  0  0
  190.6850  172.2960  142.0270 C   0  0  0  0  0  3  0  0  0  0  0  0
  191.7030  176.0820  145.8440 C   0  0  2  0  0  3  0  0  0  0  0  0
  192.7800  176.4160  146.8740 C   0  0  0  0  0  2  0  0  0  0  0  0
  188.5120  176.6390  142.9180 C   0  0  0  0  0  2  0  0  0  0  0  0
  189.5940  174.3820  142.6140 C   0  0  0  0  0  0  0  0  0  0  0  0
  189.5280  173.0650  142.1470 C   0  0  0  0  0  3  0  0  0  0  0  0
  187.7620  175.4880  147.6020 O   0  0  0  0  0  0  0  0  0  0  0  0
  187.3220  176.4880  146.9720 C   0  0  0  0  0  0  0  0  0  0  0  0
  188.0140  176.9780  145.8230 N   0  0  0  0  0  2  0  0  0  0  0  0
  185.2010  178.9850  145.3190 C   0  0  0  0  0  0  0  0  0  0  0  0
  184.8660  176.8260  146.5130 C   0  0  0  0  0  2  0  0  0  0  0  0
  187.3010  179.0120  148.3750 O   0  0  0  0  0  1  0  0  0  0  0  0
  184.7770  179.8250  144.3810 C   0  0  0  0  0  2  0  0  0  0  0  0
  184.9470  177.5170  145.1500 C   0  0  0  0  0  2  0  0  0  0  0  0
  186.2050  178.6970  147.5690 C   0  0  2  0  0  3  0  0  0  0  0  0
  186.0600  177.1730  147.4110 C   0  0  2  0  0  3  0  0  0  0  0  0
  186.3160  179.4140  146.2240 C   0  0  0  0  0  2  0  0  0  0  0  0
  1  9  1  6  0  0  0
  1  6  1  0  0  0  0
  2  3  1  1  0  0  0
  2 13  1  0  0  0  0
  2  5  1  0  0  0  0
  4  7  2  0  0  0  0
  5 14  1  6  0  0  0
  5 16  1  0  0  0  0
  6 17  1  0  0  0  0
  7  3  1  0  0  0  0
  8 23  1  1  0  0  0
  8 12  1  0  0  0  0
 10 18  1  0  0  0  0
 11  4  1  0  0  0  0
 13 18  1  6  0  0  0
 13  8  1  0  0  0  0
 14  1  1  0  0  0  0
 15 20  2  0  0  0  0
 15  4  1  0  0  0  0
 16 12  1  1  0  0  0
 16 17  1  0  0  0  0
 19 10  1  0  0  0  0
 19  3  2  0  0  0  0
 20 19  1  0  0  0  0
 22 21  2  0  0  0  0
 23 22  1  0  0  0  0
 24 31  1  0  0  0  0
 25 30  1  0  0  0  0
 27 24  2  0  0  0  0
 28 24  1  0  0  0  0
 28 25  1  0  0  0  0
 29 26  1  1  0  0  0
 30 22  1  6  0  0  0
 30 29  1  0  0  0  0
 31 29  1  0  0  0  0
M  END
>  <MODEL>
3

>  <REMARK>
 VINA RESULT:      -8.4      2.845      7.313
  Name = 
  2 active torsions:
  status: ('A' for Active; 'I' for Inactive)
    1  A    between atoms: C_5  and  C_30
    2  A    between atoms: C_10  and  N_16
                            x       y       z     vdW  Elec       q    Type
                         _______ _______ _______ _____ _____    ______ ____

>  <TORSDO>
F 2

$$$$
=
 OpenBabel11112417043D

 31 35  0  0  1  0  0  0  0  0999 V2000
  185.0550  177.6430  147.0630 C   0  0  1  0  0  3  0  0  0  0  0  0
  187.2790  175.9010  144.3610 C   0  0  2  0  0  3  0  0  0  0  0  0
  186.9680  176.6130  143.0440 C   0  0  0  0  0  0  0  0  0  0  0  0
  185.4490  177.9380  141.6750 C   0  0  0  0  0  0  0  0  0  0  0  0
  186.8820  176.6490  145.6490 C   0  0  2  0  0  3  0  0  0  0  0  0
  185.8410  178.9460  147.1340 C   0  0  0  0  0  2  0  0  0  0  0  0
  185.7860  177.3580  142.8970 C   0  0  0  0  0  3  0  0  0  0  0  0
  189.6590  176.7360  144.7130 C   0  0  2  0  0  3  0  0  0  0  0  0
  183.6900  177.9200  147.1120 O   0  0  0  0  0  1  0  0  0  0  0  0
  189.0790  175.6510  141.9700 C   0  0  0  0  0  2  0  0  0  0  0  0
  184.3110  178.6660  141.5610 F   0  0  0  0  0  0  0  0  0  0  0  0
  189.1990  177.5140  145.9490 C   0  0  0  0  0  2  0  0  0  0  0  0
  188.7620  175.5070  144.4650 C   0  0  2  0  0  3  0  0  0  0  0  0
  185.3780  176.9090  145.7670 C   0  0  0  0  0  2  0  0  0  0  0  0
  186.2780  177.7640  140.5670 C   0  0  0  0  0  3  0  0  0  0  0  0
  187.7320  177.9160  145.8400 C   0  0  2  0  0  3  0  0  0  0  0  0
  187.3360  178.6470  147.1210 C   0  0  0  0  0  2  0  0  0  0  0  0
  189.1730  174.7520  143.2010 C   0  0  0  0  0  2  0  0  0  0  0  0
  187.7850  176.4110  141.9030 C   0  0  0  0  0  0  0  0  0  0  0  0
  187.4420  177.0040  140.6840 C   0  0  0  0  0  3  0  0  0  0  0  0
  191.9300  178.0460  143.5950 O   0  0  0  0  0  0  0  0  0  0  0  0
  192.1370  177.0260  144.3070 C   0  0  0  0  0  0  0  0  0  0  0  0
  191.0420  176.3180  144.8890 N   0  0  0  0  0  2  0  0  0  0  0  0
  193.4630  173.6590  144.9160 C   0  0  0  0  0  0  0  0  0  0  0  0
  194.0150  175.5850  143.4390 C   0  0  0  0  0  2  0  0  0  0  0  0
  193.2900  176.7590  146.9420 O   0  0  0  0  0  1  0  0  0  0  0  0
  193.4670  172.3410  145.0890 C   0  0  0  0  0  2  0  0  0  0  0  0
  193.3510  174.2090  143.5260 C   0  0  0  0  0  2  0  0  0  0  0  0
  193.7410  175.9030  145.9360 C   0  0  2  0  0  3  0  0  0  0  0  0
  193.5350  176.5310  144.5460 C   0  0  2  0  0  3  0  0  0  0  0  0
  193.0650  174.5390  146.0630 C   0  0  0  0  0  2  0  0  0  0  0  0
  1  9  1  6  0  0  0
  1  6  1  0  0  0  0
  2  3  1  6  0  0  0
  2 13  1  0  0  0  0
  2  5  1  0  0  0  0
  4  7  2  0  0  0  0
  5 14  1  6  0  0  0
  5 16  1  0  0  0  0
  7  3  1  0  0  0  0
  8 23  1  1  0  0  0
  8 12  1  0  0  0  0
 10 18  1  0  0  0  0
 11  4  1  0  0  0  0
 13 18  1  6  0  0  0
 13  8  1  0  0  0  0
 14  1  1  0  0  0  0
 15 20  2  0  0  0  0
 15  4  1  0  0  0  0
 16 12  1  1  0  0  0
 16 17  1  0  0  0  0
 17  6  1  0  0  0  0
 19 10  1  0  0  0  0
 19  3  2  0  0  0  0
 20 19  1  0  0  0  0
 21 22  2  0  0  0  0
 22 23  1  0  0  0  0
 24 27  2  0  0  0  0
 24 31  1  0  0  0  0
 25 28  1  0  0  0  0
 25 30  1  0  0  0  0
 28 24  1  0  0  0  0
 29 31  1  0  0  0  0
 29 26  1  1  0  0  0
 30 22  1  6  0  0  0
 30 29  1  0  0  0  0
M  END
>  <MODEL>
4

>  <REMARK>
 VINA RESULT:      -8.2      1.297      1.910
  Name = 
  2 active torsions:
  status: ('A' for Active; 'I' for Inactive)
    1  A    between atoms: C_5  and  C_30
    2  A    between atoms: C_10  and  N_16
                            x       y       z     vdW  Elec       q    Type
                         _______ _______ _______ _____ _____    ______ ____

>  <TORSDO>
F 2

$$$$
=
 OpenBabel11112417043D

 31 35  0  0  1  0  0  0  0  0999 V2000
  187.4420  177.2920  140.8020 C   0  0  1  0  0  3  0  0  0  0  0  0
  188.5820  177.8680  144.4960 C   0  0  2  0  0  3  0  0  0  0  0  0
  187.3050  177.8410  145.3350 C   0  0  0  0  0  0  0  0  0  0  0  0
  184.8880  178.1120  145.5000 C   0  0  0  0  0  0  0  0  0  0  0  0
  188.4870  177.2460  143.0890 C   0  0  2  0  0  3  0  0  0  0  0  0
  187.1060  175.8130  140.9430 C   0  0  0  0  0  2  0  0  0  0  0  0
  186.0520  178.0470  144.7340 C   0  0  0  0  0  3  0  0  0  0  0  0
  189.6300  175.6880  145.2940 C   0  0  2  0  0  3  0  0  0  0  0  0
  186.4760  177.9160  140.0140 O   0  0  0  0  0  1  0  0  0  0  0  0
  188.6610  177.5140  147.4770 C   0  0  0  0  0  2  0  0  0  0  0  0
  183.6890  178.2960  144.8970 F   0  0  0  0  0  0  0  0  0  0  0  0
  189.4520  175.0950  143.8940 C   0  0  0  0  0  2  0  0  0  0  0  0
  189.7690  177.2230  145.2340 C   0  0  2  0  0  3  0  0  0  0  0  0
  187.4810  177.9510  142.1740 C   0  0  0  0  0  2  0  0  0  0  0  0
  184.9590  177.9940  146.8880 C   0  0  0  0  0  3  0  0  0  0  0  0
  188.2690  175.7260  143.1680 C   0  0  2  0  0  3  0  0  0  0  0  0
  188.1810  175.1170  141.7700 C   0  0  0  0  0  2  0  0  0  0  0  0
  189.8880  177.8360  146.6280 C   0  0  0  0  0  2  0  0  0  0  0  0
  187.3700  177.7590  146.7490 C   0  0  0  0  0  0  0  0  0  0  0  0
  186.1970  177.8170  147.5080 C   0  0  0  0  0  3  0  0  0  0  0  0
  192.2980  175.9060  144.3140 O   0  0  0  0  0  0  0  0  0  0  0  0
  192.1200  175.2600  145.3830 C   0  0  0  0  0  0  0  0  0  0  0  0
  190.8070  175.1060  145.9220 N   0  0  0  0  0  2  0  0  0  0  0  0
  195.6780  175.0170  144.5180 C   0  0  0  0  0  0  0  0  0  0  0  0
  194.3370  175.6660  146.5130 C   0  0  0  0  0  2  0  0  0  0  0  0
  192.9600  172.5320  144.9460 O   0  0  0  0  0  1  0  0  0  0  0  0
  196.7980  175.1760  143.8200 C   0  0  0  0  0  2  0  0  0  0  0  0
  195.1520  176.1690  145.3190 C   0  0  0  0  0  2  0  0  0  0  0  0
  193.9240  173.4630  145.3340 C   0  0  2  0  0  3  0  0  0  0  0  0
  193.2810  174.6330  146.1000 C   0  0  2  0  0  3  0  0  0  0  0  0
  194.7230  173.9330  144.1190 C   0  0  0  0  0  2  0  0  0  0  0  0
  1  9  1  6  0  0  0
  1  6  1  0  0  0  0
  1 14  1  0  0  0  0
  2 13  1  0  0  0  0
  2  3  1  1  0  0  0
  3 19  1  0  0  0  0
  4 15  2  0  0  0  0
  5 14  1  1  0  0  0
  5 16  1  0  0  0  0
  5  2  1  0  0  0  0
  6 17  1  0  0  0  0
  7  3  2  0  0  0  0
  7  4  1  0  0  0  0
  8 23  1  6  0  0  0
 11  4  1  0  0  0  0
 12  8  1  0  0  0  0
 13  8  1  0  0  0  0
 13 18  1  1  0  0  0
 15 20  1  0  0  0  0
 16 17  1  6  0  0  0
 16 12  1  0  0  0  0
 18 10  1  0  0  0  0
 19 10  1  0  0  0  0
 19 20  2  0  0  0  0
 21 22  2  0  0  0  0
 22 23  1  0  0  0  0
 24 28  1  0  0  0  0
 27 24  2  0  0  0  0
 28 25  1  0  0  0  0
 29 26  1  6  0  0  0
 29 30  1  0  0  0  0
 30 22  1  6  0  0  0
 30 25  1  0  0  0  0
 31 24  1  0  0  0  0
 31 29  1  0  0  0  0
M  END
>  <MODEL>
5

>  <REMARK>
 VINA RESULT:      -8.1      1.855      3.922
  Name = 
  2 active torsions:
  status: ('A' for Active; 'I' for Inactive)
    1  A    between atoms: C_5  and  C_30
    2  A    between atoms: C_10  and  N_16
                            x       y       z     vdW  Elec       q    Type
                         _______ _______ _______ _____ _____    ______ ____

>  <TORSDO>
F 2

$$$$
=
 OpenBabel11112417043D

 31 35  0  0  1  0  0  0  0  0999 V2000
  188.0900  177.6290  141.8410 C   0  0  1  0  0  3  0  0  0  0  0  0
  191.4310  176.9780  143.7640 C   0  0  2  0  0  3  0  0  0  0  0  0
  191.0560  176.9330  145.2450 C   0  0  0  0  0  0  0  0  0  0  0  0
  189.5390  177.5400  147.0530 C   0  0  0  0  0  0  0  0  0  0  0  0
  190.2740  176.7890  142.7630 C   0  0  2  0  0  3  0  0  0  0  0  0
  187.4900  176.2450  142.0440 C   0  0  0  0  0  2  0  0  0  0  0  0
  189.8510  177.4980  145.6950 C   0  0  0  0  0  3  0  0  0  0  0  0
  192.0120  174.5220  143.4230 C   0  0  2  0  0  3  0  0  0  0  0  0
  187.0970  178.5950  141.9960 O   0  0  0  0  0  1  0  0  0  0  0  0
  193.2810  175.8140  145.8230 C   0  0  0  0  0  2  0  0  0  0  0  0
  188.3640  178.0760  147.4620 F   0  0  0  0  0  0  0  0  0  0  0  0
  190.8110  174.3720  142.4860 C   0  0  0  0  0  2  0  0  0  0  0  0
  192.5410  175.9710  143.4200 C   0  0  2  0  0  3  0  0  0  0  0  0
  189.1960  177.8730  142.8600 C   0  0  0  0  0  2  0  0  0  0  0  0
  190.4400  177.0380  147.9920 C   0  0  0  0  0  3  0  0  0  0  0  0
  189.7050  175.3630  142.8350 C   0  0  2  0  0  3  0  0  0  0  0  0
  188.5630  175.1830  141.8370 C   0  0  0  0  0  2  0  0  0  0  0  0
  193.7050  176.1510  144.3950 C   0  0  0  0  0  2  0  0  0  0  0  0
  191.9810  176.4580  146.2100 C   0  0  0  0  0  0  0  0  0  0  0  0
  191.6550  176.4970  147.5690 C   0  0  0  0  0  3  0  0  0  0  0  0
  193.0730  172.4140  145.0210 O   0  0  0  0  0  0  0  0  0  0  0  0
  193.5470  172.5620  143.8610 C   0  0  0  0  0  0  0  0  0  0  0  0
  193.0650  173.6050  143.0130 N   0  0  0  0  0  2  0  0  0  0  0  0
  195.9350  170.4020  145.6200 C   0  0  0  0  0  0  0  0  0  0  0  0
  194.3660  170.1830  143.7000 C   0  0  0  0  0  2  0  0  0  0  0  0
  196.2800  173.4180  143.4910 O   0  0  0  0  0  1  0  0  0  0  0  0
  196.5550  169.8080  146.6350 C   0  0  0  0  0  2  0  0  0  0  0  0
  194.5980  169.8840  145.1830 C   0  0  0  0  0  2  0  0  0  0  0  0
  196.0450  172.0750  143.7920 C   0  0  2  0  0  3  0  0  0  0  0  0
  194.6310  171.6530  143.3560 C   0  0  2  0  0  3  0  0  0  0  0  0
  196.2980  171.8150  145.2760 C   0  0  0  0  0  2  0  0  0  0  0  0
  1  9  1  1  0  0  0
  1  6  1  0  0  0  0
  1 14  1  0  0  0  0
  2  3  1  1  0  0  0
  3  7  2  0  0  0  0
  3 19  1  0  0  0  0
  4 11  1  0  0  0  0
  4 15  2  0  0  0  0
  5 16  1  0  0  0  0
  5 14  1  1  0  0  0
  5  2  1  0  0  0  0
  7  4  1  0  0  0  0
  8 23  1  6  0  0  0
 10 19  1  0  0  0  0
 12 16  1  0  0  0  0
 12  8  1  0  0  0  0
 13  8  1  0  0  0  0
 13  2  1  0  0  0  0
 13 18  1  1  0  0  0
 16 17  1  6  0  0  0
 17  6  1  0  0  0  0
 18 10  1  0  0  0  0
 19 20  2  0  0  0  0
 20 15  1  0  0  0  0
 22 21  2  0  0  0  0
 23 22  1  0  0  0  0
 24 27  2  0  0  0  0
 25 28  1  0  0  0  0
 28 24  1  0  0  0  0
 29 26  1  1  0  0  0
 29 31  1  0  0  0  0
 30 25  1  0  0  0  0
 30 29  1  0  0  0  0
 30 22  1  1  0  0  0
 31 24  1  0  0  0  0
M  END
>  <MODEL>
6

>  <REMARK>
 VINA RESULT:      -7.6      3.118      5.509
  Name = 
  2 active torsions:
  status: ('A' for Active; 'I' for Inactive)
    1  A    between atoms: C_5  and  C_30
    2  A    between atoms: C_10  and  N_16
                            x       y       z     vdW  Elec       q    Type
                         _______ _______ _______ _____ _____    ______ ____

>  <TORSDO>
F 2

$$$$
=
 OpenBabel11112417043D

 31 35  0  0  1  0  0  0  0  0999 V2000
  186.2960  178.9450  142.7820 C   0  0  1  0  0  3  0  0  0  0  0  0
  189.4430  176.8080  143.6820 C   0  0  2  0  0  3  0  0  0  0  0  0
  189.1030  176.0980  144.9930 C   0  0  0  0  0  0  0  0  0  0  0  0
  187.8080  175.9900  147.0550 C   0  0  0  0  0  0  0  0  0  0  0  0
  188.2510  177.3650  142.8800 C   0  0  2  0  0  3  0  0  0  0  0  0
  185.4000  177.7850  142.3700 C   0  0  0  0  0  2  0  0  0  0  0  0
  188.0700  176.5760  145.8160 C   0  0  0  0  0  3  0  0  0  0  0  0
  189.4390  174.7940  142.1240 C   0  0  2  0  0  3  0  0  0  0  0  0
  185.5540  179.8690  143.5150 O   0  0  0  0  0  1  0  0  0  0  0  0
  191.0260  174.4480  144.6540 C   0  0  0  0  0  2  0  0  0  0  0  0
  186.7970  176.4590  147.8260 F   0  0  0  0  0  0  0  0  0  0  0  0
  188.2130  175.3600  141.4030 C   0  0  0  0  0  2  0  0  0  0  0  0
  190.2850  175.9210  142.7490 C   0  0  2  0  0  3  0  0  0  0  0  0
  187.4520  178.4340  143.6320 C   0  0  0  0  0  2  0  0  0  0  0  0
  188.5910  174.9280  147.5040 C   0  0  0  0  0  3  0  0  0  0  0  0
  187.3720  176.2300  142.3310 C   0  0  2  0  0  3  0  0  0  0  0  0
  186.1970  176.7900  141.5330 C   0  0  0  0  0  2  0  0  0  0  0  0
  191.4810  175.3680  143.5240 C   0  0  0  0  0  2  0  0  0  0  0  0
  189.9160  175.0410  145.4740 C   0  0  0  0  0  0  0  0  0  0  0  0
  189.6400  174.4550  146.7140 C   0  0  0  0  0  3  0  0  0  0  0  0
  189.4360  171.9530  141.8900 O   0  0  0  0  0  0  0  0  0  0  0  0
  190.1890  172.6020  141.1130 C   0  0  0  0  0  0  0  0  0  0  0  0
  190.2440  174.0270  141.1850 N   0  0  0  0  0  2  0  0  0  0  0  0
  191.9170  173.7880  138.1010 C   0  0  0  0  0  0  0  0  0  0  0  0
  192.4880  172.4140  140.0960 C   0  0  0  0  0  2  0  0  0  0  0  0
  189.1390  171.4070  138.7020 O   0  0  0  0  0  1  0  0  0  0  0  0
  192.3360  174.6320  137.1630 C   0  0  0  0  0  2  0  0  0  0  0  0
  192.5970  173.7900  139.4370 C   0  0  0  0  0  2  0  0  0  0  0  0
  190.4560  171.8710  138.6880 C   0  0  2  0  0  3  0  0  0  0  0  0
  191.0480  171.8890  140.1080 C   0  0  2  0  0  3  0  0  0  0  0  0
  190.5240  173.2400  138.0130 C   0  0  0  0  0  2  0  0  0  0  0  0
  1  9  1  1  0  0  0
  1 14  1  0  0  0  0
  2  3  1  1  0  0  0
  3 19  2  0  0  0  0
  3  7  1  0  0  0  0
  4 15  1  0  0  0  0
  4 11  1  0  0  0  0
  5 14  1  1  0  0  0
  5  2  1  0  0  0  0
  6  1  1  0  0  0  0
  7  4  2  0  0  0  0
  8 23  1  6  0  0  0
  8 13  1  0  0  0  0
 10 19  1  0  0  0  0
 12  8  1  0  0  0  0
 13 18  1  1  0  0  0
 13  2  1  0  0  0  0
 16 12  1  6  0  0  0
 16  5  1  0  0  0  0
 17 16  1  0  0  0  0
 17  6  1  0  0  0  0
 18 10  1  0  0  0  0
 19 20  1  0  0  0  0
 20 15  2  0  0  0  0
 22 23  1  0  0  0  0
 22 21  2  0  0  0  0
 24 28  1  0  0  0  0
 25 30  1  0  0  0  0
 27 24  2  0  0  0  0
 28 25  1  0  0  0  0
 29 26  1  1  0  0  0
 29 30  1  0  0  0  0
 30 22  1  1  0  0  0
 31 24  1  0  0  0  0
 31 29  1  0  0  0  0
M  END
>  <MODEL>
7

>  <REMARK>
 VINA RESULT:      -7.6      3.810      5.767
  Name = 
  2 active torsions:
  status: ('A' for Active; 'I' for Inactive)
    1  A    between atoms: C_5  and  C_30
    2  A    between atoms: C_10  and  N_16
                            x       y       z     vdW  Elec       q    Type
                         _______ _______ _______ _____ _____    ______ ____

>  <TORSDO>
F 2

$$$$
=
 OpenBabel11112417043D

 31 35  0  0  1  0  0  0  0  0999 V2000
  185.8590  179.0410  143.1500 C   0  0  1  0  0  3  0  0  0  0  0  0
  189.2260  177.2210  143.9460 C   0  0  2  0  0  3  0  0  0  0  0  0
  188.9600  176.3800  145.1940 C   0  0  0  0  0  0  0  0  0  0  0  0
  187.6680  175.9670  147.2190 C   0  0  0  0  0  0  0  0  0  0  0  0
  187.9840  177.6950  143.1660 C   0  0  2  0  0  3  0  0  0  0  0  0
  185.1080  177.8190  142.6380 C   0  0  0  0  0  2  0  0  0  0  0  0
  187.8710  176.6710  146.0320 C   0  0  0  0  0  3  0  0  0  0  0  0
  189.4710  175.3440  142.2430 C   0  0  2  0  0  3  0  0  0  0  0  0
  185.0070  179.8140  143.9370 O   0  0  0  0  0  1  0  0  0  0  0  0
  191.0650  174.9940  144.7680 C   0  0  0  0  0  2  0  0  0  0  0  0
  186.6020  176.2550  148.0040 F   0  0  0  0  0  0  0  0  0  0  0  0
  188.1950  175.8170  141.5440 C   0  0  0  0  0  2  0  0  0  0  0  0
  190.1750  176.5110  142.9650 C   0  0  2  0  0  3  0  0  0  0  0  0
  187.0600  178.6040  143.9810 C   0  0  0  0  0  2  0  0  0  0  0  0
  188.5660  174.9710  147.6020 C   0  0  0  0  0  3  0  0  0  0  0  0
  187.2490  176.5100  142.5190 C   0  0  2  0  0  3  0  0  0  0  0  0
  186.0230  176.9900  141.7440 C   0  0  0  0  0  2  0  0  0  0  0  0
  191.4200  176.0440  143.7170 C   0  0  0  0  0  2  0  0  0  0  0  0
  189.8870  175.3910  145.6100 C   0  0  0  0  0  0  0  0  0  0  0  0
  189.6700  174.6850  146.7980 C   0  0  0  0  0  3  0  0  0  0  0  0
  189.2180  172.7210  141.1570 O   0  0  0  0  0  0  0  0  0  0  0  0
  190.1800  173.4290  140.7520 C   0  0  0  0  0  0  0  0  0  0  0  0
  190.3700  174.7490  141.2640 N   0  0  0  0  0  2  0  0  0  0  0  0
  190.6450  170.0670  139.3580 C   0  0  0  0  0  0  0  0  0  0  0  0
  190.4470  172.3850  138.4730 C   0  0  0  0  0  2  0  0  0  0  0  0
  192.7390  172.2920  141.4580 O   0  0  0  0  0  1  0  0  0  0  0  0
  190.4410  168.7690  139.1570 C   0  0  0  0  0  2  0  0  0  0  0  0
  189.7260  171.0560  138.7070 C   0  0  0  0  0  2  0  0  0  0  0  0
  192.1120  171.8320  140.2990 C   0  0  2  0  0  3  0  0  0  0  0  0
  191.1490  172.8940  139.7380 C   0  0  2  0  0  3  0  0  0  0  0  0
  191.4140  170.5010  140.5690 C   0  0  0  0  0  2  0  0  0  0  0  0
  1  9  1  1  0  0  0
  1 14  1  0  0  0  0
  2  3  1  1  0  0  0
  3 19  2  0  0  0  0
  3  7  1  0  0  0  0
  4 15  1  0  0  0  0
  4 11  1  0  0  0  0
  5  2  1  0  0  0  0
  5 14  1  1  0  0  0
  6  1  1  0  0  0  0
  7  4  2  0  0  0  0
  8 23  1  6  0  0  0
  8 13  1  0  0  0  0
 10 19  1  0  0  0  0
 12  8  1  0  0  0  0
 13 18  1  1  0  0  0
 13  2  1  0  0  0  0
 16 12  1  6  0  0  0
 16  5  1  0  0  0  0
 17 16  1  0  0  0  0
 17  6  1  0  0  0  0
 18 10  1  0  0  0  0
 19 20  1  0  0  0  0
 20 15  2  0  0  0  0
 22 21  2  0  0  0  0
 22 23  1  0  0  0  0
 24 31  1  0  0  0  0
 25 28  1  0  0  0  0
 25 30  1  0  0  0  0
 27 24  2  0  0  0  0
 28 24  1  0  0  0  0
 29 31  1  0  0  0  0
 29 26  1  1  0  0  0
 30 29  1  0  0  0  0
 30 22  1  1  0  0  0
M  END
>  <MODEL>
8

>  <REMARK>
 VINA RESULT:      -7.5      3.809      5.909
  Name = 
  2 active torsions:
  status: ('A' for Active; 'I' for Inactive)
    1  A    between atoms: C_5  and  C_30
    2  A    between atoms: C_10  and  N_16
                            x       y       z     vdW  Elec       q    Type
                         _______ _______ _______ _____ _____    ______ ____

>  <TORSDO>
F 2

$$$$
=
 OpenBabel11112417043D

 31 35  0  0  1  0  0  0  0  0999 V2000
  186.2620  177.4230  142.4690 C   0  0  1  0  0  3  0  0  0  0  0  0
  189.0490  174.9930  143.7350 C   0  0  2  0  0  3  0  0  0  0  0  0
  189.2540  173.9740  142.6140 C   0  0  0  0  0  0  0  0  0  0  0  0
  188.4010  172.7950  140.6580 C   0  0  0  0  0  0  0  0  0  0  0  0
  188.3360  176.3020  143.3430 C   0  0  2  0  0  3  0  0  0  0  0  0
  187.1100  178.1520  141.4360 C   0  0  0  0  0  2  0  0  0  0  0  0
  188.2650  173.7820  141.6340 C   0  0  0  0  0  3  0  0  0  0  0  0
  191.2600  176.2430  143.5460 C   0  0  2  0  0  3  0  0  0  0  0  0
  184.9890  177.1940  141.9480 O   0  0  0  0  0  1  0  0  0  0  0  0
  191.4890  173.2460  143.6170 C   0  0  0  0  0  2  0  0  0  0  0  0
  187.4410  172.6380  139.7150 F   0  0  0  0  0  0  0  0  0  0  0  0
  190.5070  177.4980  143.0990 C   0  0  0  0  0  2  0  0  0  0  0  0
  190.3720  175.3500  144.4360 C   0  0  2  0  0  3  0  0  0  0  0  0
  186.9090  176.0920  142.8300 C   0  0  0  0  0  2  0  0  0  0  0  0
  189.5210  171.9640  140.6580 C   0  0  0  0  0  3  0  0  0  0  0  0
  189.2030  177.1440  142.3930 C   0  0  2  0  0  3  0  0  0  0  0  0
  188.4910  178.4410  142.0150 C   0  0  0  0  0  2  0  0  0  0  0  0
  191.0890  174.0640  144.8440 C   0  0  0  0  0  2  0  0  0  0  0  0
  190.3710  173.1000  142.6260 C   0  0  0  0  0  0  0  0  0  0  0  0
  190.5020  172.1200  141.6380 C   0  0  0  0  0  3  0  0  0  0  0  0
  193.9320  175.7700  142.6730 O   0  0  0  0  0  0  0  0  0  0  0  0
  193.7750  176.3700  143.7710 C   0  0  0  0  0  0  0  0  0  0  0  0
  192.4620  176.6300  144.2710 N   0  0  0  0  0  2  0  0  0  0  0  0
  196.4710  174.4710  145.3800 C   0  0  0  0  0  0  0  0  0  0  0  0
  196.2910  176.4630  143.8970 C   0  0  0  0  0  2  0  0  0  0  0  0
  193.7260  176.6160  146.6480 O   0  0  0  0  0  1  0  0  0  0  0  0
  197.1890  173.4210  145.7640 C   0  0  0  0  0  2  0  0  0  0  0  0
  196.6050  174.9670  143.9720 C   0  0  0  0  0  2  0  0  0  0  0  0
  194.9420  176.3120  146.0340 C   0  0  2  0  0  3  0  0  0  0  0  0
  194.9620  176.8110  144.5780 C   0  0  2  0  0  3  0  0  0  0  0  0
  195.2250  174.8140  146.1390 C   0  0  0  0  0  2  0  0  0  0  0  0
  1  9  1  6  0  0  0
  1 14  1  0  0  0  0
  2  3  1  6  0  0  0
  2 13  1  0  0  0  0
  3 19  1  0  0  0  0
  4 15  2  0  0  0  0
  4  7  1  0  0  0  0
  5 14  1  6  0  0  0
  5  2  1  0  0  0  0
  6 17  1  0  0  0  0
  6  1  1  0  0  0  0
  7  3  2  0  0  0  0
  8 23  1  1  0  0  0
  8 13  1  0  0  0  0
 10 18  1  0  0  0  0
 11  4  1  0  0  0  0
 12  8  1  0  0  0  0
 13 18  1  6  0  0  0
 15 20  1  0  0  0  0
 16 17  1  1  0  0  0
 16 12  1  0  0  0  0
 16  5  1  0  0  0  0
 19 10  1  0  0  0  0
 20 19  2  0  0  0  0
 21 22  2  0  0  0  0
 22 23  1  0  0  0  0
 24 27  2  0  0  0  0
 24 31  1  0  0  0  0
 25 28  1  0  0  0  0
 25 30  1  0  0  0  0
 28 24  1  0  0  0  0
 29 31  1  0  0  0  0
 29 26  1  6  0  0  0
 30 22  1  6  0  0  0
 30 29  1  0  0  0  0
M  END
>  <MODEL>
9

>  <REMARK>
 VINA RESULT:      -7.5      2.911      3.987
  Name = 
  2 active torsions:
  status: ('A' for Active; 'I' for Inactive)
    1  A    between atoms: C_5  and  C_30
    2  A    between atoms: C_10  and  N_16
                            x       y       z     vdW  Elec       q    Type
                         _______ _______ _______ _____ _____    ______ ____

>  <TORSDO>
F 2

$$$$
