=
 OpenBabel11112417393D

 28 32  0  0  1  0  0  0  0  0999 V2000
  190.5290  175.6970  144.8880 C   0  0  0  0  0  0  0  0  0  0  0  0
  185.5850  176.2600  145.7210 F   0  0  0  0  0  0  0  0  0  0  0  0
  188.9140  174.9720  140.3950 O   0  0  0  0  0  0  0  0  0  0  0  0
  191.3960  178.0890  143.7150 C   0  0  0  0  0  3  0  0  0  0  0  0
  187.3240  176.4210  141.3410 N   0  0  0  0  0  0  0  0  0  0  0  0
  190.0870  174.3800  145.4480 C   0  0  0  0  0  2  0  0  0  0  0  0
  186.5710  177.8550  146.9630 F   0  0  0  0  0  0  0  0  0  0  0  0
  186.1050  177.5460  145.6990 C   0  0  0  0  0  0  0  0  0  0  0  0
  184.6290  178.3070  143.8740 C   0  0  1  0  0  3  0  0  0  0  0  0
  187.2720  177.6680  144.6940 C   0  0  2  0  0  3  0  0  0  0  0  0
  191.0130  174.0450  142.4050 O   0  0  0  0  0  1  0  0  0  0  0  0
  187.4370  175.5140  143.5440 C   0  0  1  0  0  3  0  0  0  0  0  0
  185.6990  178.7180  143.0590 O   0  0  0  0  0  0  0  0  0  0  0  0
  184.9880  178.5110  145.3390 C   0  0  0  0  0  2  0  0  0  0  0  0
  190.2060  173.1820  143.1510 C   0  0  2  0  0  3  0  0  0  0  0  0
  189.5790  176.6450  144.4560 C   0  0  0  0  0  0  0  0  0  0  0  0
  188.2850  175.3910  141.4030 C   0  0  0  0  0  0  0  0  0  0  0  0
  183.4010  179.1260  143.5390 C   0  0  0  0  0  1  0  0  0  0  0  0
  188.7160  173.4090  142.8870 C   0  0  0  0  0  2  0  0  0  0  0  0
  190.0300  177.8320  143.8500 C   0  0  0  0  0  3  0  0  0  0  0  0
  191.8980  175.9710  144.7660 C   0  0  0  0  0  3  0  0  0  0  0  0
  192.3300  177.1630  144.1830 C   0  0  0  0  0  3  0  0  0  0  0  0
  190.5960  173.1860  144.6340 C   0  0  0  0  0  2  0  0  0  0  0  0
  186.6450  176.4750  142.6260 C   0  0  1  0  0  3  0  0  0  0  0  0
  188.4020  174.8210  142.6920 N   0  0  0  0  0  0  0  0  0  0  0  0
  186.8060  177.8540  143.2440 C   0  0  2  0  0  3  0  0  0  0  0  0
  186.7530  176.8340  140.1860 O   0  0  0  0  0  1  0  0  0  0  0  0
  188.0930  176.3800  144.6430 C   0  0  1  0  0  3  0  0  0  0  0  0
  1  6  1  0  0  0  0
  3 17  2  0  0  0  0
  4 20  2  0  0  0  0
  4 22  1  0  0  0  0
  5 17  1  0  0  0  0
  8  2  1  0  0  0  0
  8  7  1  0  0  0  0
  9 18  1  6  0  0  0
  9 14  1  0  0  0  0
 10  8  1  1  0  0  0
 12 25  1  6  0  0  0
 12 28  1  0  0  0  0
 13  9  1  0  0  0  0
 14  8  1  0  0  0  0
 15 11  1  6  0  0  0
 15 23  1  0  0  0  0
 16  1  2  0  0  0  0
 17 25  1  0  0  0  0
 19 15  1  0  0  0  0
 20 16  1  0  0  0  0
 21  1  1  0  0  0  0
 22 21  2  0  0  0  0
 23  6  1  0  0  0  0
 24  5  1  6  0  0  0
 24 26  1  0  0  0  0
 24 12  1  0  0  0  0
 25 19  1  0  0  0  0
 26 13  1  1  0  0  0
 26 10  1  0  0  0  0
 27  5  1  0  0  0  0
 28 16  1  6  0  0  0
 28 10  1  0  0  0  0
M  END
>  <MODEL>
1

>  <REMARK>
 VINA RESULT:      -8.6      0.000      0.000
  Name = 
  0 active torsions:
  status: ('A' for Active; 'I' for Inactive)
                            x       y       z     vdW  Elec       q    Type
                         _______ _______ _______ _____ _____    ______ ____

>  <TORSDO>
F 0

$$$$
=
 OpenBabel11112417393D

 28 32  0  0  1  0  0  0  0  0999 V2000
  189.5340  176.8340  145.3290 C   0  0  0  0  0  0  0  0  0  0  0  0
  194.4830  176.3110  144.5010 F   0  0  0  0  0  0  0  0  0  0  0  0
  189.4290  172.8590  142.5890 O   0  0  0  0  0  0  0  0  0  0  0  0
  188.8740  174.9570  147.3000 C   0  0  0  0  0  3  0  0  0  0  0  0
  191.5110  172.7450  143.6740 N   0  0  0  0  0  0  0  0  0  0  0  0
  189.8370  177.8000  144.2250 C   0  0  0  0  0  2  0  0  0  0  0  0
  194.3150  176.9240  146.6580 F   0  0  0  0  0  0  0  0  0  0  0  0
  194.2730  175.8480  145.7920 C   0  0  0  0  0  0  0  0  0  0  0  0
  195.2150  173.6130  145.3370 C   0  0  1  0  0  3  0  0  0  0  0  0
  192.9010  175.1510  145.9270 C   0  0  2  0  0  3  0  0  0  0  0  0
  187.9370  175.4560  143.1660 O   0  0  0  0  0  1  0  0  0  0  0  0
  191.9170  175.0950  143.6870 C   0  0  1  0  0  3  0  0  0  0  0  0
  194.0550  172.9390  145.7610 O   0  0  0  0  0  0  0  0  0  0  0  0
  195.3960  174.8880  146.1470 C   0  0  0  0  0  2  0  0  0  0  0  0
  188.7340  176.3160  142.4070 C   0  0  2  0  0  3  0  0  0  0  0  0
  190.4770  175.8530  145.6990 C   0  0  0  0  0  0  0  0  0  0  0  0
  190.4220  173.4370  143.1060 C   0  0  0  0  0  0  0  0  0  0  0  0
  196.4170  172.7150  145.5380 C   0  0  0  0  0  1  0  0  0  0  0  0
  190.0730  175.6800  142.0270 C   0  0  0  0  0  2  0  0  0  0  0  0
  190.1220  174.9050  146.6750 C   0  0  0  0  0  3  0  0  0  0  0  0
  188.2910  176.8910  145.9740 C   0  0  0  0  0  3  0  0  0  0  0  0
  187.9620  175.9560  146.9570 C   0  0  0  0  0  3  0  0  0  0  0  0
  188.8500  177.6990  143.0580 C   0  0  0  0  0  2  0  0  0  0  0  0
  192.5610  173.7130  143.9500 C   0  0  1  0  0  3  0  0  0  0  0  0
  190.6050  174.8400  143.0950 N   0  0  0  0  0  0  0  0  0  0  0  0
  192.9060  173.6990  145.4290 C   0  0  2  0  0  3  0  0  0  0  0  0
  191.7580  171.4340  143.4450 O   0  0  0  0  0  1  0  0  0  0  0  0
  191.8500  175.8260  145.0470 C   0  0  1  0  0  3  0  0  0  0  0  0
  1 16  2  0  0  0  0
  1 21  1  0  0  0  0
  2  8  1  0  0  0  0
  3 17  2  0  0  0  0
  6  1  1  0  0  0  0
  8 14  1  0  0  0  0
  8  7  1  0  0  0  0
  9 18  1  1  0  0  0
  9 13  1  0  0  0  0
  9 14  1  0  0  0  0
 10  8  1  6  0  0  0
 12 25  1  1  0  0  0
 12 24  1  0  0  0  0
 12 28  1  0  0  0  0
 15 23  1  0  0  0  0
 15 11  1  1  0  0  0
 16 20  1  0  0  0  0
 17  5  1  0  0  0  0
 19 15  1  0  0  0  0
 19 25  1  0  0  0  0
 20  4  2  0  0  0  0
 21 22  2  0  0  0  0
 22  4  1  0  0  0  0
 23  6  1  0  0  0  0
 24  5  1  1  0  0  0
 24 26  1  0  0  0  0
 25 17  1  0  0  0  0
 26 13  1  6  0  0  0
 26 10  1  0  0  0  0
 27  5  1  0  0  0  0
 28 16  1  1  0  0  0
 28 10  1  0  0  0  0
M  END
>  <MODEL>
2

>  <REMARK>
 VINA RESULT:      -8.4      3.304      6.724
  Name = 
  0 active torsions:
  status: ('A' for Active; 'I' for Inactive)
                            x       y       z     vdW  Elec       q    Type
                         _______ _______ _______ _____ _____    ______ ____

>  <TORSDO>
F 0

$$$$
=
 OpenBabel11112417393D

 28 32  0  0  1  0  0  0  0  0999 V2000
  190.7520  174.1780  143.0620 C   0  0  0  0  0  0  0  0  0  0  0  0
  187.7530  178.1570  143.8540 F   0  0  0  0  0  0  0  0  0  0  0  0
  193.0470  176.1180  146.8420 O   0  0  0  0  0  0  0  0  0  0  0  0
  190.0660  172.2880  145.0130 C   0  0  0  0  0  3  0  0  0  0  0  0
  190.8040  176.7430  147.1590 N   0  0  0  0  0  0  0  0  0  0  0  0
  191.1920  175.1910  142.0500 C   0  0  0  0  0  2  0  0  0  0  0  0
  186.3570  176.4630  143.3680 F   0  0  0  0  0  0  0  0  0  0  0  0
  187.0720  177.0700  144.3830 C   0  0  0  0  0  0  0  0  0  0  0  0
  186.8970  178.0480  146.6420 C   0  0  1  0  0  3  0  0  0  0  0  0
  188.0440  176.0370  144.9960 C   0  0  2  0  0  3  0  0  0  0  0  0
  193.5080  174.6750  144.1940 O   0  0  0  0  0  1  0  0  0  0  0  0
  190.2860  177.0060  144.8460 C   0  0  1  0  0  3  0  0  0  0  0  0
  187.5160  176.9480  147.2630 O   0  0  0  0  0  0  0  0  0  0  0  0
  186.0990  177.5770  145.4340 C   0  0  0  0  0  2  0  0  0  0  0  0
  193.3650  175.7720  143.3420 C   0  0  2  0  0  3  0  0  0  0  0  0
  189.9020  174.5510  144.1240 C   0  0  0  0  0  0  0  0  0  0  0  0
  191.9210  176.4160  146.3630 C   0  0  0  0  0  0  0  0  0  0  0  0
  185.9660  178.7220  147.6270 C   0  0  0  0  0  1  0  0  0  0  0  0
  192.7030  176.9640  144.0380 C   0  0  0  0  0  2  0  0  0  0  0  0
  189.5840  173.5960  145.1070 C   0  0  0  0  0  3  0  0  0  0  0  0
  191.2150  172.8590  142.9650 C   0  0  0  0  0  3  0  0  0  0  0  0
  190.8720  171.9170  143.9370 C   0  0  0  0  0  3  0  0  0  0  0  0
  192.7130  175.3720  142.0130 C   0  0  0  0  0  2  0  0  0  0  0  0
  189.7640  177.2550  146.2820 C   0  0  1  0  0  3  0  0  0  0  0  0
  191.6670  176.5450  144.9770 N   0  0  0  0  0  0  0  0  0  0  0  0
  188.5090  176.4080  146.4100 C   0  0  2  0  0  3  0  0  0  0  0  0
  190.8990  177.0810  148.4660 O   0  0  0  0  0  1  0  0  0  0  0  0
  189.3460  175.9640  144.2000 C   0  0  1  0  0  3  0  0  0  0  0  0
  1 16  1  0  0  0  0
  2  8  1  0  0  0  0
  4 20  1  0  0  0  0
  5 27  1  0  0  0  0
  6  1  1  0  0  0  0
  7  8  1  0  0  0  0
  8 14  1  0  0  0  0
  9 13  1  0  0  0  0
  9 18  1  1  0  0  0
 10  8  1  6  0  0  0
 10 26  1  0  0  0  0
 12 25  1  1  0  0  0
 12 24  1  0  0  0  0
 14  9  1  0  0  0  0
 15 19  1  0  0  0  0
 15 11  1  1  0  0  0
 16 20  2  0  0  0  0
 17  3  2  0  0  0  0
 17  5  1  0  0  0  0
 19 25  1  0  0  0  0
 21  1  2  0  0  0  0
 21 22  1  0  0  0  0
 22  4  2  0  0  0  0
 23  6  1  0  0  0  0
 23 15  1  0  0  0  0
 24 26  1  0  0  0  0
 24  5  1  1  0  0  0
 25 17  1  0  0  0  0
 26 13  1  6  0  0  0
 28 16  1  1  0  0  0
 28 12  1  0  0  0  0
 28 10  1  0  0  0  0
M  END
>  <MODEL>
3

>  <REMARK>
 VINA RESULT:      -8.1      2.954      4.606
  Name = 
  0 active torsions:
  status: ('A' for Active; 'I' for Inactive)
                            x       y       z     vdW  Elec       q    Type
                         _______ _______ _______ _____ _____    ______ ____

>  <TORSDO>
F 0

$$$$
=
 OpenBabel11112417393D

 28 32  0  0  1  0  0  0  0  0999 V2000
  188.2600  177.5340  144.3780 C   0  0  0  0  0  0  0  0  0  0  0  0
  193.0140  176.5810  142.9860 F   0  0  0  0  0  0  0  0  0  0  0  0
  187.6090  173.1860  142.3810 O   0  0  0  0  0  0  0  0  0  0  0  0
  187.8180  176.0410  146.7060 C   0  0  0  0  0  3  0  0  0  0  0  0
  189.8190  173.1190  143.1770 N   0  0  0  0  0  0  0  0  0  0  0  0
  188.4380  178.2910  143.0970 C   0  0  0  0  0  2  0  0  0  0  0  0
  193.1820  177.5410  145.0130 F   0  0  0  0  0  0  0  0  0  0  0  0
  192.9750  176.3450  144.3520 C   0  0  0  0  0  0  0  0  0  0  0  0
  193.7540  174.0110  144.1540 C   0  0  1  0  0  3  0  0  0  0  0  0
  191.6100  175.7640  144.7870 C   0  0  2  0  0  3  0  0  0  0  0  0
  186.3160  175.9290  142.7120 O   0  0  0  0  0  1  0  0  0  0  0  0
  190.3130  175.4110  142.7420 C   0  0  1  0  0  3  0  0  0  0  0  0
  192.6420  173.4870  144.8380 O   0  0  0  0  0  0  0  0  0  0  0  0
  194.1000  175.3860  144.7070 C   0  0  0  0  0  2  0  0  0  0  0  0
  187.0280  176.6050  141.7190 C   0  0  2  0  0  3  0  0  0  0  0  0
  189.2080  176.5690  144.7760 C   0  0  0  0  0  0  0  0  0  0  0  0
  188.6880  173.7770  142.6540 C   0  0  0  0  0  0  0  0  0  0  0  0
  194.9370  173.0850  144.3370 C   0  0  0  0  0  1  0  0  0  0  0  0
  188.2740  175.8360  141.2730 C   0  0  0  0  0  2  0  0  0  0  0  0
  188.9600  175.8120  145.9360 C   0  0  0  0  0  3  0  0  0  0  0  0
  187.1260  177.7700  145.1670 C   0  0  0  0  0  3  0  0  0  0  0  0
  186.9060  177.0260  146.3280 C   0  0  0  0  0  3  0  0  0  0  0  0
  187.2900  178.0650  142.1090 C   0  0  0  0  0  2  0  0  0  0  0  0
  190.9340  174.0510  143.1420 C   0  0  1  0  0  3  0  0  0  0  0  0
  188.9200  175.1460  142.3850 N   0  0  0  0  0  0  0  0  0  0  0  0
  191.4880  174.2540  144.5430 C   0  0  2  0  0  3  0  0  0  0  0  0
  189.9790  171.7760  143.1380 O   0  0  0  0  0  1  0  0  0  0  0  0
  190.4710  176.3530  143.9570 C   0  0  1  0  0  3  0  0  0  0  0  0
  1 16  2  0  0  0  0
  1 21  1  0  0  0  0
  2  8  1  0  0  0  0
  3 17  2  0  0  0  0
  6  1  1  0  0  0  0
  8 14  1  0  0  0  0
  8  7  1  0  0  0  0
  9 18  1  1  0  0  0
  9 14  1  0  0  0  0
  9 13  1  0  0  0  0
 10  8  1  6  0  0  0
 12 25  1  1  0  0  0
 12 24  1  0  0  0  0
 12 28  1  0  0  0  0
 15 23  1  0  0  0  0
 15 11  1  1  0  0  0
 16 20  1  0  0  0  0
 17  5  1  0  0  0  0
 19 15  1  0  0  0  0
 19 25  1  0  0  0  0
 20  4  2  0  0  0  0
 21 22  2  0  0  0  0
 22  4  1  0  0  0  0
 23  6  1  0  0  0  0
 24  5  1  1  0  0  0
 24 26  1  0  0  0  0
 25 17  1  0  0  0  0
 26 10  1  0  0  0  0
 26 13  1  6  0  0  0
 27  5  1  0  0  0  0
 28 16  1  1  0  0  0
 28 10  1  0  0  0  0
M  END
>  <MODEL>
4

>  <REMARK>
 VINA RESULT:      -8.0      2.683      6.006
  Name = 
  0 active torsions:
  status: ('A' for Active; 'I' for Inactive)
                            x       y       z     vdW  Elec       q    Type
                         _______ _______ _______ _____ _____    ______ ____

>  <TORSDO>
F 0

$$$$
=
 OpenBabel11112417393D

 28 32  0  0  1  0  0  0  0  0999 V2000
  191.7440  174.0970  143.1200 C   0  0  0  0  0  0  0  0  0  0  0  0
  188.9950  178.1240  141.8230 F   0  0  0  0  0  0  0  0  0  0  0  0
  191.9070  176.5070  147.3010 O   0  0  0  0  0  0  0  0  0  0  0  0
  190.0530  172.4600  144.6400 C   0  0  0  0  0  3  0  0  0  0  0  0
  189.8540  177.1520  146.3560 N   0  0  0  0  0  0  0  0  0  0  0  0
  192.6950  174.9800  142.3710 C   0  0  0  0  0  2  0  0  0  0  0  0
  187.9430  176.3730  140.8810 F   0  0  0  0  0  0  0  0  0  0  0  0
  188.0780  177.1060  142.0450 C   0  0  0  0  0  0  0  0  0  0  0  0
  186.8360  178.3560  143.7730 C   0  0  1  0  0  3  0  0  0  0  0  0
  188.5420  176.1640  143.1780 C   0  0  2  0  0  3  0  0  0  0  0  0
  193.5660  174.7500  145.4400 O   0  0  0  0  0  1  0  0  0  0  0  0
  190.6000  177.1220  144.0910 C   0  0  1  0  0  3  0  0  0  0  0  0
  186.9880  177.3460  144.7400 O   0  0  0  0  0  0  0  0  0  0  0  0
  186.7370  177.7330  142.3880 C   0  0  0  0  0  2  0  0  0  0  0  0
  193.9390  175.7320  144.5190 C   0  0  2  0  0  3  0  0  0  0  0  0
  190.4950  174.5930  143.5490 C   0  0  0  0  0  0  0  0  0  0  0  0
  191.2000  176.7360  146.2840 C   0  0  0  0  0  0  0  0  0  0  0  0
  185.5740  179.1410  144.0620 C   0  0  0  0  0  1  0  0  0  0  0  0
  193.0860  176.9960  144.6430 C   0  0  0  0  0  2  0  0  0  0  0  0
  189.6680  173.7660  144.3300 C   0  0  0  0  0  3  0  0  0  0  0  0
  192.1150  172.7790  143.4190 C   0  0  0  0  0  3  0  0  0  0  0  0
  191.2720  171.9630  144.1760 C   0  0  0  0  0  3  0  0  0  0  0  0
  194.0310  175.1650  143.0970 C   0  0  0  0  0  2  0  0  0  0  0  0
  189.4370  177.5440  145.0190 C   0  0  1  0  0  3  0  0  0  0  0  0
  191.6940  176.6900  144.9590 N   0  0  0  0  0  0  0  0  0  0  0  0
  188.2440  176.7110  144.5810 C   0  0  2  0  0  3  0  0  0  0  0  0
  189.2920  177.6500  147.4810 O   0  0  0  0  0  1  0  0  0  0  0  0
  190.0610  176.0010  143.1740 C   0  0  1  0  0  3  0  0  0  0  0  0
  1 21  2  0  0  0  0
  1 16  1  0  0  0  0
  2  8  1  0  0  0  0
  5 27  1  0  0  0  0
  6 23  1  0  0  0  0
  6  1  1  0  0  0  0
  7  8  1  0  0  0  0
  8 14  1  0  0  0  0
  9 18  1  1  0  0  0
  9 13  1  0  0  0  0
 10  8  1  6  0  0  0
 10 26  1  0  0  0  0
 12 25  1  1  0  0  0
 12 24  1  0  0  0  0
 14  9  1  0  0  0  0
 15 19  1  0  0  0  0
 15 11  1  1  0  0  0
 16 20  2  0  0  0  0
 17  5  1  0  0  0  0
 17  3  2  0  0  0  0
 19 25  1  0  0  0  0
 20  4  1  0  0  0  0
 21 22  1  0  0  0  0
 22  4  2  0  0  0  0
 23 15  1  0  0  0  0
 24  5  1  1  0  0  0
 25 17  1  0  0  0  0
 26 13  1  6  0  0  0
 26 24  1  0  0  0  0
 28 10  1  0  0  0  0
 28 16  1  1  0  0  0
 28 12  1  0  0  0  0
M  END
>  <MODEL>
5

>  <REMARK>
 VINA RESULT:      -8.0      2.904      4.552
  Name = 
  0 active torsions:
  status: ('A' for Active; 'I' for Inactive)
                            x       y       z     vdW  Elec       q    Type
                         _______ _______ _______ _____ _____    ______ ____

>  <TORSDO>
F 0

$$$$
=
 OpenBabel11112417393D

 28 32  0  0  1  0  0  0  0  0999 V2000
  190.9440  174.3970  142.3380 C   0  0  0  0  0  0  0  0  0  0  0  0
  188.4540  178.7810  142.1680 F   0  0  0  0  0  0  0  0  0  0  0  0
  190.0940  174.9710  147.0570 O   0  0  0  0  0  0  0  0  0  0  0  0
  188.9980  172.4110  142.6810 C   0  0  0  0  0  3  0  0  0  0  0  0
  188.2920  176.0660  146.0190 N   0  0  0  0  0  0  0  0  0  0  0  0
  192.0160  175.4370  142.2250 C   0  0  0  0  0  2  0  0  0  0  0  0
  187.6890  177.6080  140.4080 F   0  0  0  0  0  0  0  0  0  0  0  0
  187.5380  177.8200  141.7650 C   0  0  0  0  0  0  0  0  0  0  0  0
  185.9050  178.3770  143.5300 C   0  0  1  0  0  3  0  0  0  0  0  0
  187.7580  176.4830  142.5070 C   0  0  2  0  0  3  0  0  0  0  0  0
  192.1760  173.9730  145.0640 O   0  0  0  0  0  1  0  0  0  0  0  0
  189.5310  176.8720  144.1480 C   0  0  1  0  0  3  0  0  0  0  0  0
  185.8610  177.0620  144.0290 O   0  0  0  0  0  0  0  0  0  0  0  0
  186.1380  178.3500  142.0260 C   0  0  0  0  0  2  0  0  0  0  0  0
  192.7220  175.2090  144.7100 C   0  0  2  0  0  3  0  0  0  0  0  0
  189.6180  174.7670  142.6450 C   0  0  0  0  0  0  0  0  0  0  0  0
  189.6290  175.6240  146.0850 C   0  0  0  0  0  0  0  0  0  0  0  0
  184.5900  179.0670  143.8220 C   0  0  0  0  0  1  0  0  0  0  0  0
  191.8290  176.3780  145.1330 C   0  0  0  0  0  2  0  0  0  0  0  0
  188.6580  173.7570  142.8350 C   0  0  0  0  0  3  0  0  0  0  0  0
  191.2720  173.0450  142.1670 C   0  0  0  0  0  3  0  0  0  0  0  0
  190.3020  172.0560  142.3370 C   0  0  0  0  0  3  0  0  0  0  0  0
  193.1480  175.2370  143.2380 C   0  0  0  0  0  2  0  0  0  0  0  0
  188.1770  176.9740  144.8900 C   0  0  1  0  0  3  0  0  0  0  0  0
  190.4110  176.0660  144.9920 N   0  0  0  0  0  0  0  0  0  0  0  0
  187.1370  176.4580  143.9100 C   0  0  2  0  0  3  0  0  0  0  0  0
  187.4760  176.1230  147.0980 O   0  0  0  0  0  1  0  0  0  0  0  0
  189.2430  176.2350  142.7700 C   0  0  1  0  0  3  0  0  0  0  0  0
  1 16  1  0  0  0  0
  4 20  1  0  0  0  0
  5 17  1  0  0  0  0
  5 27  1  0  0  0  0
  6  1  1  0  0  0  0
  6 23  1  0  0  0  0
  7  8  1  0  0  0  0
  8 14  1  0  0  0  0
  8  2  1  0  0  0  0
  9 18  1  6  0  0  0
  9 13  1  0  0  0  0
 10  8  1  1  0  0  0
 10 28  1  0  0  0  0
 10 26  1  0  0  0  0
 12 24  1  0  0  0  0
 12 25  1  1  0  0  0
 14  9  1  0  0  0  0
 15 11  1  6  0  0  0
 15 19  1  0  0  0  0
 16 20  2  0  0  0  0
 17  3  2  0  0  0  0
 21 22  1  0  0  0  0
 21  1  2  0  0  0  0
 22  4  2  0  0  0  0
 23 15  1  0  0  0  0
 24  5  1  1  0  0  0
 25 19  1  0  0  0  0
 25 17  1  0  0  0  0
 26 13  1  6  0  0  0
 26 24  1  0  0  0  0
 28 16  1  1  0  0  0
 28 12  1  0  0  0  0
M  END
>  <MODEL>
6

>  <REMARK>
 VINA RESULT:      -7.9      2.572      4.160
  Name = 
  0 active torsions:
  status: ('A' for Active; 'I' for Inactive)
                            x       y       z     vdW  Elec       q    Type
                         _______ _______ _______ _____ _____    ______ ____

>  <TORSDO>
F 0

$$$$
=
 OpenBabel11112417393D

 28 32  0  0  1  0  0  0  0  0999 V2000
  191.5170  174.6380  144.3450 C   0  0  0  0  0  0  0  0  0  0  0  0
  186.9200  176.0610  145.8610 F   0  0  0  0  0  0  0  0  0  0  0  0
  189.1670  174.2100  140.1480 O   0  0  0  0  0  0  0  0  0  0  0  0
  192.6080  176.8400  143.0010 C   0  0  0  0  0  3  0  0  0  0  0  0
  188.0080  175.9160  141.2750 N   0  0  0  0  0  0  0  0  0  0  0  0
  190.9380  173.4180  144.9950 C   0  0  0  0  0  2  0  0  0  0  0  0
  188.3380  177.4570  146.9090 F   0  0  0  0  0  0  0  0  0  0  0  0
  187.6480  177.2360  145.7330 C   0  0  0  0  0  0  0  0  0  0  0  0
  186.0780  178.2450  144.1180 C   0  0  1  0  0  3  0  0  0  0  0  0
  188.6600  177.1510  144.5690 C   0  0  2  0  0  3  0  0  0  0  0  0
  191.3410  172.9270  141.8610 O   0  0  0  0  0  1  0  0  0  0  0  0
  188.2790  175.0020  143.4610 C   0  0  1  0  0  3  0  0  0  0  0  0
  187.0740  178.4620  143.1490 O   0  0  0  0  0  0  0  0  0  0  0  0
  186.6750  178.3820  145.5110 C   0  0  0  0  0  2  0  0  0  0  0  0
  190.5130  172.2190  142.7360 C   0  0  2  0  0  3  0  0  0  0  0  0
  190.6940  175.7380  144.0300 C   0  0  0  0  0  0  0  0  0  0  0  0
  188.7740  174.7330  141.2250 C   0  0  0  0  0  0  0  0  0  0  0  0
  184.9760  179.2680  143.9410 C   0  0  0  0  0  1  0  0  0  0  0  0
  189.0630  172.7050  142.6810 C   0  0  0  0  0  2  0  0  0  0  0  0
  191.2520  176.8270  143.3360 C   0  0  0  0  0  3  0  0  0  0  0  0
  192.8800  174.6670  144.0230 C   0  0  0  0  0  3  0  0  0  0  0  0
  193.4240  175.7650  143.3540 C   0  0  0  0  0  3  0  0  0  0  0  0
  191.1090  172.1540  144.1470 C   0  0  0  0  0  2  0  0  0  0  0  0
  187.5410  176.0870  142.6420 C   0  0  1  0  0  3  0  0  0  0  0  0
  188.9750  174.1500  142.4980 N   0  0  0  0  0  0  0  0  0  0  0  0
  188.0280  177.4160  143.1950 C   0  0  2  0  0  3  0  0  0  0  0  0
  187.3560  176.4230  140.2040 O   0  0  0  0  0  1  0  0  0  0  0  0
  189.2280  175.7390  144.4330 C   0  0  1  0  0  3  0  0  0  0  0  0
  1  6  1  0  0  0  0
  3 17  2  0  0  0  0
  4 20  1  0  0  0  0
  4 22  2  0  0  0  0
  8  2  1  0  0  0  0
  8  7  1  0  0  0  0
  9 18  1  6  0  0  0
  9 14  1  0  0  0  0
 10  8  1  1  0  0  0
 12 25  1  6  0  0  0
 12 28  1  0  0  0  0
 13  9  1  0  0  0  0
 14  8  1  0  0  0  0
 15 11  1  6  0  0  0
 15 23  1  0  0  0  0
 16  1  1  0  0  0  0
 17  5  1  0  0  0  0
 17 25  1  0  0  0  0
 19 15  1  0  0  0  0
 20 16  2  0  0  0  0
 21  1  2  0  0  0  0
 22 21  1  0  0  0  0
 23  6  1  0  0  0  0
 24  5  1  6  0  0  0
 24 26  1  0  0  0  0
 24 12  1  0  0  0  0
 25 19  1  0  0  0  0
 26 13  1  1  0  0  0
 26 10  1  0  0  0  0
 27  5  1  0  0  0  0
 28 16  1  6  0  0  0
 28 10  1  0  0  0  0
M  END
>  <MODEL>
7

>  <REMARK>
 VINA RESULT:      -7.8      1.190      1.379
  Name = 
  0 active torsions:
  status: ('A' for Active; 'I' for Inactive)
                            x       y       z     vdW  Elec       q    Type
                         _______ _______ _______ _____ _____    ______ ____

>  <TORSDO>
F 0

$$$$
=
 OpenBabel11112417393D

 28 32  0  0  1  0  0  0  0  0999 V2000
  188.8600  175.5480  145.9350 C   0  0  0  0  0  0  0  0  0  0  0  0
  190.2380  171.5960  143.1170 F   0  0  0  0  0  0  0  0  0  0  0  0
  193.2730  177.0320  144.6520 O   0  0  0  0  0  0  0  0  0  0  0  0
  188.1410  177.5710  144.1360 C   0  0  0  0  0  3  0  0  0  0  0  0
  192.5880  175.6760  142.8590 N   0  0  0  0  0  0  0  0  0  0  0  0
  189.3030  174.5140  146.9240 C   0  0  0  0  0  2  0  0  0  0  0  0
  188.0790  171.9560  142.6000 F   0  0  0  0  0  0  0  0  0  0  0  0
  189.3770  172.3370  142.3200 C   0  0  0  0  0  0  0  0  0  0  0  0
  191.0240  172.6340  140.5060 C   0  0  1  0  0  3  0  0  0  0  0  0
  189.5220  173.8520  142.5860 C   0  0  2  0  0  3  0  0  0  0  0  0
  191.2870  177.0220  146.9670 O   0  0  0  0  0  1  0  0  0  0  0  0
  191.3610  174.1140  144.1790 C   0  0  1  0  0  3  0  0  0  0  0  0
  190.9300  174.0370  140.5280 O   0  0  0  0  0  0  0  0  0  0  0  0
  189.6780  172.0200  140.8640 C   0  0  0  0  0  2  0  0  0  0  0  0
  191.5360  175.7300  147.4370 C   0  0  2  0  0  3  0  0  0  0  0  0
  189.1450  175.3930  144.5620 C   0  0  0  0  0  0  0  0  0  0  0  0
  192.6110  176.0520  144.2170 C   0  0  0  0  0  0  0  0  0  0  0  0
  191.4290  172.1820  139.1190 C   0  0  0  0  0  1  0  0  0  0  0  0
  192.3020  174.8810  146.4200 C   0  0  0  0  0  2  0  0  0  0  0  0
  188.7960  176.4270  143.6750 C   0  0  0  0  0  3  0  0  0  0  0  0
  188.1850  176.6900  146.3860 C   0  0  0  0  0  3  0  0  0  0  0  0
  187.8260  177.6980  145.4890 C   0  0  0  0  0  3  0  0  0  0  0  0
  190.2610  175.0740  147.9810 C   0  0  0  0  0  2  0  0  0  0  0  0
  191.9260  174.3840  142.7640 C   0  0  1  0  0  3  0  0  0  0  0  0
  191.8900  175.1630  145.0490 N   0  0  0  0  0  0  0  0  0  0  0  0
  190.7130  174.4850  141.8550 C   0  0  2  0  0  3  0  0  0  0  0  0
  193.4970  176.1070  141.9550 O   0  0  0  0  0  1  0  0  0  0  0  0
  189.8210  174.1270  144.0590 C   0  0  1  0  0  3  0  0  0  0  0  0
  1 21  1  0  0  0  0
  1  6  1  0  0  0  0
  4 22  1  0  0  0  0
  5 17  1  0  0  0  0
  6 23  1  0  0  0  0
  8  7  1  0  0  0  0
  8  2  1  0  0  0  0
  9 18  1  6  0  0  0
  9 13  1  0  0  0  0
  9 14  1  0  0  0  0
 10  8  1  1  0  0  0
 10 28  1  0  0  0  0
 12 25  1  1  0  0  0
 14  8  1  0  0  0  0
 15 11  1  6  0  0  0
 15 23  1  0  0  0  0
 16  1  2  0  0  0  0
 17  3  2  0  0  0  0
 17 25  1  0  0  0  0
 19 15  1  0  0  0  0
 20  4  2  0  0  0  0
 20 16  1  0  0  0  0
 22 21  2  0  0  0  0
 24  5  1  1  0  0  0
 24 12  1  0  0  0  0
 25 19  1  0  0  0  0
 26 13  1  6  0  0  0
 26 10  1  0  0  0  0
 26 24  1  0  0  0  0
 27  5  1  0  0  0  0
 28 12  1  0  0  0  0
 28 16  1  6  0  0  0
M  END
>  <MODEL>
8

>  <REMARK>
 VINA RESULT:      -7.7      3.337      5.825
  Name = 
  0 active torsions:
  status: ('A' for Active; 'I' for Inactive)
                            x       y       z     vdW  Elec       q    Type
                         _______ _______ _______ _____ _____    ______ ____

>  <TORSDO>
F 0

$$$$
=
 OpenBabel11112417393D

 28 32  0  0  1  0  0  0  0  0999 V2000
  196.2350  174.6670  144.9590 C   0  0  0  0  0  0  0  0  0  0  0  0
  192.0990  174.9990  147.8280 F   0  0  0  0  0  0  0  0  0  0  0  0
  193.3820  171.6160  142.5340 O   0  0  0  0  0  0  0  0  0  0  0  0
  195.7360  176.2360  142.6920 C   0  0  0  0  0  3  0  0  0  0  0  0
  191.8840  173.1510  143.4960 N   0  0  0  0  0  0  0  0  0  0  0  0
  196.5080  173.7640  146.1230 C   0  0  0  0  0  2  0  0  0  0  0  0
  192.8840  177.1020  147.6930 F   0  0  0  0  0  0  0  0  0  0  0  0
  192.1070  176.1520  147.0570 C   0  0  0  0  0  0  0  0  0  0  0  0
  189.8870  175.7250  146.0680 C   0  0  1  0  0  3  0  0  0  0  0  0
  192.6920  175.8890  145.6510 C   0  0  2  0  0  3  0  0  0  0  0  0
  196.2650  172.0640  143.4250 O   0  0  0  0  0  1  0  0  0  0  0  0
  193.1210  173.4840  145.5070 C   0  0  1  0  0  3  0  0  0  0  0  0
  190.3630  175.7940  144.7460 O   0  0  0  0  0  0  0  0  0  0  0  0
  190.6830  176.6730  146.9540 C   0  0  0  0  0  2  0  0  0  0  0  0
  196.1420  171.6020  144.7380 C   0  0  2  0  0  3  0  0  0  0  0  0
  194.9340  175.1570  144.7240 C   0  0  0  0  0  0  0  0  0  0  0  0
  193.0810  172.4070  143.4680 C   0  0  0  0  0  0  0  0  0  0  0  0
  188.4260  176.1210  146.0950 C   0  0  0  0  0  1  0  0  0  0  0  0
  194.6810  171.4950  145.1790 C   0  0  0  0  0  2  0  0  0  0  0  0
  194.6950  175.9250  143.5700 C   0  0  0  0  0  3  0  0  0  0  0  0
  197.2770  174.9990  144.0830 C   0  0  0  0  0  3  0  0  0  0  0  0
  197.0290  175.7810  142.9540 C   0  0  0  0  0  3  0  0  0  0  0  0
  197.0390  172.3910  145.6990 C   0  0  0  0  0  2  0  0  0  0  0  0
  191.7670  173.7600  144.8110 C   0  0  1  0  0  3  0  0  0  0  0  0
  193.8620  172.5750  144.6360 N   0  0  0  0  0  0  0  0  0  0  0  0
  191.6780  175.2710  144.6790 C   0  0  2  0  0  3  0  0  0  0  0  0
  190.8150  172.8630  142.7180 O   0  0  0  0  0  1  0  0  0  0  0  0
  193.8120  174.8520  145.7050 C   0  0  1  0  0  3  0  0  0  0  0  0
  1  6  1  0  0  0  0
  3 17  2  0  0  0  0
  4 22  2  0  0  0  0
  4 20  1  0  0  0  0
  8  7  1  0  0  0  0
  8  2  1  0  0  0  0
  9 18  1  6  0  0  0
  9 14  1  0  0  0  0
 10 28  1  0  0  0  0
 10  8  1  1  0  0  0
 12 25  1  6  0  0  0
 12 28  1  0  0  0  0
 13  9  1  0  0  0  0
 14  8  1  0  0  0  0
 15 11  1  6  0  0  0
 15 19  1  0  0  0  0
 15 23  1  0  0  0  0
 16  1  1  0  0  0  0
 17  5  1  0  0  0  0
 17 25  1  0  0  0  0
 20 16  2  0  0  0  0
 21  1  2  0  0  0  0
 22 21  1  0  0  0  0
 23  6  1  0  0  0  0
 24  5  1  6  0  0  0
 24 12  1  0  0  0  0
 25 19  1  0  0  0  0
 26 13  1  1  0  0  0
 26 24  1  0  0  0  0
 26 10  1  0  0  0  0
 27  5  1  0  0  0  0
 28 16  1  6  0  0  0
M  END
>  <MODEL>
9

>  <REMARK>
 VINA RESULT:      -7.6      4.041      6.032
  Name = 
  0 active torsions:
  status: ('A' for Active; 'I' for Inactive)
                            x       y       z     vdW  Elec       q    Type
                         _______ _______ _______ _____ _____    ______ ____

>  <TORSDO>
F 0

$$$$
