=
 OpenBabel11112418073D

 34 40  0  0  1  0  0  0  0  0999 V2000
  189.2470  174.5020  141.1780 C   0  0  1  0  0  3  0  0  0  0  0  0
  187.4650  176.1360  141.4100 C   0  0  0  0  0  2  0  0  0  0  0  0
  194.0800  171.5570  144.0570 C   0  0  0  0  0  0  0  0  0  0  0  0
  191.1920  172.8700  141.0930 C   0  0  2  0  0  3  0  0  0  0  0  0
  193.2360  173.3830  142.5070 C   0  0  2  0  0  3  0  0  0  0  0  0
  195.0960  173.8750  144.2230 C   0  0  0  0  0  1  0  0  0  0  0  0
  193.9080  171.5330  145.3050 O   0  0  0  0  0  0  0  0  0  0  0  0
  194.1040  170.3490  141.8440 C   0  0  0  0  0  2  0  0  0  0  0  0
  189.4990  176.5240  142.3150 C   0  0  2  0  0  3  0  0  0  0  0  0
  189.8080  177.9660  145.1370 C   0  0  0  0  0  2  0  0  0  0  0  0
  192.3410  174.3260  143.3110 C   0  0  0  0  0  2  0  0  0  0  0  0
  193.1540  171.2660  141.0510 C   0  0  0  0  0  2  0  0  0  0  0  0
  190.6660  176.0140  143.1690 C   0  0  1  0  0  3  0  0  0  0  0  0
  187.3300  177.4780  142.1240 C   0  0  0  0  0  2  0  0  0  0  0  0
  192.3540  172.2700  141.8940 C   0  0  2  0  0  3  0  0  0  0  0  0
  193.8690  170.3700  143.2870 N   0  0  0  0  0  2  0  0  0  0  0  0
  188.5000  177.7120  144.3620 C   0  0  1  0  0  3  0  0  0  0  0  0
  190.4470  173.9090  141.9550 C   0  0  1  0  0  3  0  0  0  0  0  0
  194.4120  172.8360  143.3430 C   0  0  1  0  0  3  0  0  0  0  0  0
  191.3790  174.9660  142.4120 N   0  0  2  0  0  0  0  0  0  0  0  0
  189.0400  172.3580  139.9010 C   0  0  0  0  0  2  0  0  0  0  0  0
  190.9910  178.3550  144.2480 C   0  0  0  0  0  2  0  0  0  0  0  0
  190.2160  171.7680  140.6710 C   0  0  0  0  0  2  0  0  0  0  0  0
  191.6350  177.1520  143.5440 C   0  0  0  0  0  2  0  0  0  0  0  0
  188.6640  177.6880  142.8250 C   0  0  1  0  0  3  0  0  0  0  0  0
  188.3030  173.3670  140.7740 C   0  0  0  0  0  2  0  0  0  0  0  0
  188.5690  175.4450  142.0610 N   0  0  2  0  0  0  0  0  0  0  0  0
  187.9070  176.5340  144.8270 O   0  0  0  0  0  0  0  0  0  0  0  0
  188.0370  176.5840  146.2180 C   0  0  0  0  0  2  0  0  0  0  0  0
  185.4630  178.7160  146.7820 O   0  0  0  0  0  0  0  0  0  0  0  0
  185.6160  176.7250  145.8010 C   0  0  0  0  0  3  0  0  0  0  0  0
  186.6670  176.7280  146.8590 C   0  0  2  0  0  3  0  0  0  0  0  0
  184.9670  177.8740  145.8060 C   0  0  0  0  0  3  0  0  0  0  0  0
  186.5250  178.1100  147.4960 C   0  0  0  0  0  2  0  0  0  0  0  0
  1 26  1  1  0  0  0
  1 18  1  0  0  0  0
  1 27  1  0  0  0  0
  2 27  1  0  0  0  0
  2 14  1  0  0  0  0
  3  7  2  0  0  0  0
  4 23  1  1  0  0  0
  4 15  1  0  0  0  0
  4 18  1  0  0  0  0
  5 11  1  1  0  0  0
  5 19  1  0  0  0  0
  8 16  1  0  0  0  0
  9 25  1  0  0  0  0
  9 13  1  0  0  0  0
 12  8  1  0  0  0  0
 12 15  1  0  0  0  0
 13 24  1  0  0  0  0
 14 25  1  0  0  0  0
 15  5  1  0  0  0  0
 16  3  1  0  0  0  0
 17 28  1  0  0  0  0
 17 10  1  0  0  0  0
 18 20  1  0  0  0  0
 19  3  1  0  0  0  0
 19  6  1  0  0  0  0
 20 13  1  0  0  0  0
 20 11  1  0  0  0  0
 21 23  1  0  0  0  0
 21 26  1  0  0  0  0
 22 10  1  0  0  0  0
 24 22  1  0  0  0  0
 25 17  1  0  0  0  0
 27  9  1  0  0  0  0
 28 29  1  0  0  0  0
 29 32  1  0  0  0  0
 30 34  1  0  0  0  0
 31 33  2  0  0  0  0
 31 32  1  0  0  0  0
 32 34  1  0  0  0  0
 33 30  1  0  0  0  0
M  END
>  <MODEL>
1

>  <REMARK>
 VINA RESULT:      -7.6      0.000      0.000
  Name = 
  3 active torsions:
  status: ('A' for Active; 'I' for Inactive)
    1  A    between atoms: C_17  and  O_28
    2  A    between atoms: O_28  and  C_29
    3  A    between atoms: C_29  and  C_32
                            x       y       z     vdW  Elec       q    Type
                         _______ _______ _______ _____ _____    ______ ____

>  <TORSDO>
F 3

$$$$
=
 OpenBabel11112418073D

 34 40  0  0  1  0  0  0  0  0999 V2000
  190.2590  176.1580  146.4180 C   0  0  1  0  0  3  0  0  0  0  0  0
  187.8980  176.5990  146.7880 C   0  0  0  0  0  2  0  0  0  0  0  0
  194.9820  176.0600  142.1740 C   0  0  0  0  0  0  0  0  0  0  0  0
  192.6870  175.6870  145.8420 C   0  0  2  0  0  3  0  0  0  0  0  0
  193.2110  174.8250  143.5130 C   0  0  2  0  0  3  0  0  0  0  0  0
  193.6110  174.2580  141.0300 C   0  0  0  0  0  1  0  0  0  0  0  0
  194.7460  176.8550  141.2260 O   0  0  0  0  0  0  0  0  0  0  0  0
  196.2750  175.4930  144.2640 C   0  0  0  0  0  2  0  0  0  0  0  0
  188.5850  175.5370  144.9140 C   0  0  2  0  0  3  0  0  0  0  0  0
  187.2040  176.0880  142.0980 C   0  0  0  0  0  2  0  0  0  0  0  0
  191.8360  175.3510  143.1000 C   0  0  0  0  0  2  0  0  0  0  0  0
  195.0970  175.2130  145.2160 C   0  0  0  0  0  2  0  0  0  0  0  0
  189.5400  175.4930  143.7140 C   0  0  1  0  0  3  0  0  0  0  0  0
  186.6270  176.3650  145.9770 C   0  0  0  0  0  2  0  0  0  0  0  0
  193.7200  175.6650  144.7080 C   0  0  2  0  0  3  0  0  0  0  0  0
  195.9420  176.4110  143.1750 N   0  0  0  0  0  2  0  0  0  0  0  0
  186.7920  176.6690  143.4650 C   0  0  1  0  0  3  0  0  0  0  0  0
  191.3090  176.0930  145.2830 C   0  0  1  0  0  3  0  0  0  0  0  0
  194.2030  174.7850  142.3320 C   0  0  1  0  0  3  0  0  0  0  0  0
  190.8940  175.1680  144.2040 N   0  0  2  0  0  0  0  0  0  0  0  0
  192.0750  176.7380  148.0400 C   0  0  0  0  0  2  0  0  0  0  0  0
  187.6510  174.6250  142.1560 C   0  0  0  0  0  2  0  0  0  0  0  0
  193.1110  176.6850  146.9230 C   0  0  0  0  0  2  0  0  0  0  0  0
  189.0880  174.4550  142.6690 C   0  0  0  0  0  2  0  0  0  0  0  0
  187.0990  175.7490  144.6690 C   0  0  1  0  0  3  0  0  0  0  0  0
  190.7250  177.1620  147.4750 C   0  0  0  0  0  2  0  0  0  0  0  0
  188.9940  176.5830  145.8280 N   0  0  2  0  0  0  0  0  0  0  0  0
  187.3750  177.9300  143.6270 O   0  0  0  0  0  0  0  0  0  0  0  0
  186.8150  178.7230  142.6220 C   0  0  0  0  0  2  0  0  0  0  0  0
  184.0350  178.4570  144.5420 O   0  0  0  0  0  0  0  0  0  0  0  0
  185.8230  179.7780  144.6110 C   0  0  0  0  0  3  0  0  0  0  0  0
  185.6100  179.4720  143.1670 C   0  0  2  0  0  3  0  0  0  0  0  0
  184.9010  179.1790  145.3400 C   0  0  0  0  0  3  0  0  0  0  0  0
  184.3820  178.5630  143.1740 C   0  0  0  0  0  2  0  0  0  0  0  0
  1 26  1  1  0  0  0
  3 19  1  0  0  0  0
  3 16  1  0  0  0  0
  4 23  1  1  0  0  0
  5 11  1  6  0  0  0
  5 15  1  0  0  0  0
  6 19  1  0  0  0  0
  7  3  2  0  0  0  0
  8 12  1  0  0  0  0
  9 27  1  0  0  0  0
 10 22  1  0  0  0  0
 10 17  1  0  0  0  0
 11 20  1  0  0  0  0
 13 20  1  0  0  0  0
 13  9  1  0  0  0  0
 14  2  1  0  0  0  0
 15 12  1  0  0  0  0
 15  4  1  0  0  0  0
 16  8  1  0  0  0  0
 17 28  1  0  0  0  0
 17 25  1  0  0  0  0
 18  4  1  0  0  0  0
 18  1  1  0  0  0  0
 19  5  1  0  0  0  0
 20 18  1  0  0  0  0
 22 24  1  0  0  0  0
 23 21  1  0  0  0  0
 24 13  1  0  0  0  0
 25  9  1  0  0  0  0
 25 14  1  0  0  0  0
 26 21  1  0  0  0  0
 27  1  1  0  0  0  0
 27  2  1  0  0  0  0
 29 32  1  0  0  0  0
 29 28  1  0  0  0  0
 30 33  1  0  0  0  0
 31 33  2  0  0  0  0
 32 34  1  0  0  0  0
 32 31  1  0  0  0  0
 34 30  1  0  0  0  0
M  END
>  <MODEL>
2

>  <REMARK>
 VINA RESULT:      -7.5      2.654      4.795
  Name = 
  3 active torsions:
  status: ('A' for Active; 'I' for Inactive)
    1  A    between atoms: C_17  and  O_28
    2  A    between atoms: O_28  and  C_29
    3  A    between atoms: C_29  and  C_32
                            x       y       z     vdW  Elec       q    Type
                         _______ _______ _______ _____ _____    ______ ____

>  <TORSDO>
F 3

$$$$
=
 OpenBabel11112418073D

 34 40  0  0  1  0  0  0  0  0999 V2000
  192.5940  176.0390  146.2190 C   0  0  1  0  0  3  0  0  0  0  0  0
  194.8380  175.1110  146.1330 C   0  0  0  0  0  2  0  0  0  0  0  0
  187.0330  176.6250  143.2100 C   0  0  0  0  0  0  0  0  0  0  0  0
  190.2380  176.9810  146.1180 C   0  0  2  0  0  3  0  0  0  0  0  0
  189.2970  177.5890  143.8410 C   0  0  2  0  0  3  0  0  0  0  0  0
  188.3750  177.8620  141.4490 C   0  0  0  0  0  1  0  0  0  0  0  0
  186.8540  175.6660  142.4130 O   0  0  0  0  0  0  0  0  0  0  0  0
  186.4680  177.7840  145.3770 C   0  0  0  0  0  2  0  0  0  0  0  0
  193.9020  176.0170  144.2860 C   0  0  2  0  0  3  0  0  0  0  0  0
  194.3620  174.7460  141.4030 C   0  0  0  0  0  2  0  0  0  0  0  0
  190.3870  176.6970  143.2450 C   0  0  0  0  0  2  0  0  0  0  0  0
  187.8870  177.9140  145.9650 C   0  0  0  0  0  2  0  0  0  0  0  0
  192.6920  176.1080  143.3470 C   0  0  1  0  0  3  0  0  0  0  0  0
  195.8720  174.9150  145.0290 C   0  0  0  0  0  2  0  0  0  0  0  0
  188.9680  177.0790  145.2640 C   0  0  2  0  0  3  0  0  0  0  0  0
  186.3210  176.6630  144.4500 N   0  0  0  0  0  2  0  0  0  0  0  0
  194.9980  174.2910  142.7310 C   0  0  1  0  0  3  0  0  0  0  0  0
  191.3150  176.1820  145.3600 C   0  0  1  0  0  3  0  0  0  0  0  0
  188.0570  177.6880  142.9290 C   0  0  1  0  0  3  0  0  0  0  0  0
  191.6030  176.8130  144.0510 N   0  0  2  0  0  0  0  0  0  0  0  0
  191.1910  176.1510  148.2900 C   0  0  0  0  0  2  0  0  0  0  0  0
  194.2360  176.2640  141.2630 C   0  0  0  0  0  2  0  0  0  0  0  0
  189.9290  176.2820  147.4460 C   0  0  0  0  0  2  0  0  0  0  0  0
  193.0440  176.8440  142.0390 C   0  0  0  0  0  2  0  0  0  0  0  0
  195.2010  175.4250  143.7620 C   0  0  1  0  0  3  0  0  0  0  0  0
  192.2380  175.3410  147.5340 C   0  0  0  0  0  2  0  0  0  0  0  0
  193.5530  175.2440  145.4600 N   0  0  2  0  0  0  0  0  0  0  0  0
  194.2460  173.2420  143.2700 O   0  0  0  0  0  0  0  0  0  0  0  0
  193.4890  172.7510  142.2040 C   0  0  0  0  0  2  0  0  0  0  0  0
  191.1280  172.6640  144.6350 O   0  0  0  0  0  0  0  0  0  0  0  0
  191.0370  172.7390  142.4140 C   0  0  0  0  0  3  0  0  0  0  0  0
  192.2860  171.9890  142.7350 C   0  0  2  0  0  3  0  0  0  0  0  0
  190.4240  173.0940  143.5270 C   0  0  0  0  0  3  0  0  0  0  0  0
  192.3050  171.9700  144.2630 C   0  0  0  0  0  2  0  0  0  0  0  0
  1 26  1  1  0  0  0
  3 16  1  0  0  0  0
  4 23  1  1  0  0  0
  5 11  1  6  0  0  0
  5 15  1  0  0  0  0
  6 19  1  0  0  0  0
  7  3  2  0  0  0  0
  8 12  1  0  0  0  0
  9 27  1  0  0  0  0
 10 17  1  0  0  0  0
 11 20  1  0  0  0  0
 13 20  1  0  0  0  0
 13  9  1  0  0  0  0
 14  2  1  0  0  0  0
 15 12  1  0  0  0  0
 15  4  1  0  0  0  0
 16  8  1  0  0  0  0
 17 28  1  0  0  0  0
 17 25  1  0  0  0  0
 18  4  1  0  0  0  0
 18  1  1  0  0  0  0
 19  3  1  0  0  0  0
 19  5  1  0  0  0  0
 20 18  1  0  0  0  0
 22 10  1  0  0  0  0
 22 24  1  0  0  0  0
 23 21  1  0  0  0  0
 24 13  1  0  0  0  0
 25  9  1  0  0  0  0
 25 14  1  0  0  0  0
 26 21  1  0  0  0  0
 27  2  1  0  0  0  0
 27  1  1  0  0  0  0
 29 32  1  0  0  0  0
 29 28  1  0  0  0  0
 31 32  1  0  0  0  0
 31 33  2  0  0  0  0
 32 34  1  0  0  0  0
 33 30  1  0  0  0  0
 34 30  1  0  0  0  0
M  END
>  <MODEL>
3

>  <REMARK>
 VINA RESULT:      -7.5      2.308      7.444
  Name = 
  3 active torsions:
  status: ('A' for Active; 'I' for Inactive)
    1  A    between atoms: C_17  and  O_28
    2  A    between atoms: O_28  and  C_29
    3  A    between atoms: C_29  and  C_32
                            x       y       z     vdW  Elec       q    Type
                         _______ _______ _______ _____ _____    ______ ____

>  <TORSDO>
F 3

$$$$
=
 OpenBabel11112418073D

 34 40  0  0  1  0  0  0  0  0999 V2000
  190.0620  173.7340  141.6430 C   0  0  1  0  0  3  0  0  0  0  0  0
  187.8530  174.7120  141.9010 C   0  0  0  0  0  2  0  0  0  0  0  0
  195.8700  173.1470  144.1420 C   0  0  0  0  0  0  0  0  0  0  0  0
  192.4350  172.8410  141.5030 C   0  0  2  0  0  3  0  0  0  0  0  0
  194.2980  174.2580  142.4840 C   0  0  2  0  0  3  0  0  0  0  0  0
  196.0260  175.6540  143.7930 C   0  0  0  0  0  1  0  0  0  0  0  0
  195.8370  173.3140  145.3900 O   0  0  0  0  0  0  0  0  0  0  0  0
  196.1010  171.6030  142.1620 C   0  0  0  0  0  2  0  0  0  0  0  0
  189.7010  175.9100  142.4060 C   0  0  2  0  0  3  0  0  0  0  0  0
  189.7570  177.8980  144.8930 C   0  0  0  0  0  2  0  0  0  0  0  0
  193.2120  174.9960  143.2660 C   0  0  0  0  0  2  0  0  0  0  0  0
  194.8190  171.9870  141.3980 C   0  0  0  0  0  2  0  0  0  0  0  0
  191.0490  175.9850  143.1340 C   0  0  1  0  0  3  0  0  0  0  0  0
  187.3280  176.0490  142.4150 C   0  0  0  0  0  2  0  0  0  0  0  0
  193.8050  172.8210  142.1940 C   0  0  2  0  0  3  0  0  0  0  0  0
  196.0120  171.8290  143.6040 N   0  0  0  0  0  2  0  0  0  0  0  0
  188.5520  177.0850  144.3800 C   0  0  1  0  0  3  0  0  0  0  0  0
  191.4620  173.7290  142.3030 C   0  0  1  0  0  3  0  0  0  0  0  0
  195.6650  174.2980  143.1990 C   0  0  1  0  0  3  0  0  0  0  0  0
  192.0060  175.0990  142.4430 N   0  0  2  0  0  0  0  0  0  0  0  0
  190.4930  171.4330  140.7550 C   0  0  0  0  0  2  0  0  0  0  0  0
  190.6400  178.4680  143.7810 C   0  0  0  0  0  2  0  0  0  0  0  0
  191.8680  171.4210  141.4120 C   0  0  0  0  0  2  0  0  0  0  0  0
  191.5920  177.4270  143.1750 C   0  0  0  0  0  2  0  0  0  0  0  0
  188.5660  176.8150  142.8580 C   0  0  1  0  0  3  0  0  0  0  0  0
  189.5380  172.2980  141.5690 C   0  0  0  0  0  2  0  0  0  0  0  0
  189.1850  174.5590  142.4680 N   0  0  2  0  0  0  0  0  0  0  0  0
  188.4530  175.8940  145.1060 O   0  0  0  0  0  0  0  0  0  0  0  0
  188.7280  176.2490  146.4290 C   0  0  0  0  0  2  0  0  0  0  0  0
  191.4250  174.2240  146.0900 O   0  0  0  0  0  0  0  0  0  0  0  0
  190.8250  175.7340  147.6090 C   0  0  0  0  0  3  0  0  0  0  0  0
  189.5490  175.1580  147.0960 C   0  0  2  0  0  3  0  0  0  0  0  0
  191.8520  175.1670  147.0050 C   0  0  0  0  0  3  0  0  0  0  0  0
  190.0120  174.1370  146.0590 C   0  0  0  0  0  2  0  0  0  0  0  0
  1 26  1  1  0  0  0
  1 18  1  0  0  0  0
  1 27  1  0  0  0  0
  2 14  1  0  0  0  0
  2 27  1  0  0  0  0
  3  7  2  0  0  0  0
  4 23  1  1  0  0  0
  4 15  1  0  0  0  0
  4 18  1  0  0  0  0
  5 19  1  0  0  0  0
  5 11  1  1  0  0  0
  8 16  1  0  0  0  0
  9 27  1  0  0  0  0
  9 25  1  0  0  0  0
  9 13  1  0  0  0  0
 12  8  1  0  0  0  0
 12 15  1  0  0  0  0
 13 24  1  0  0  0  0
 14 25  1  0  0  0  0
 15  5  1  0  0  0  0
 16  3  1  0  0  0  0
 17 10  1  0  0  0  0
 17 28  1  0  0  0  0
 18 20  1  0  0  0  0
 19  6  1  0  0  0  0
 19  3  1  0  0  0  0
 20 13  1  0  0  0  0
 20 11  1  0  0  0  0
 21 23  1  0  0  0  0
 21 26  1  0  0  0  0
 22 10  1  0  0  0  0
 24 22  1  0  0  0  0
 25 17  1  0  0  0  0
 28 29  1  0  0  0  0
 29 32  1  0  0  0  0
 30 33  1  0  0  0  0
 32 31  1  0  0  0  0
 33 31  2  0  0  0  0
 34 30  1  0  0  0  0
 34 32  1  0  0  0  0
M  END
>  <MODEL>
4

>  <REMARK>
 VINA RESULT:      -7.4      1.779      2.720
  Name = 
  3 active torsions:
  status: ('A' for Active; 'I' for Inactive)
    1  A    between atoms: C_17  and  O_28
    2  A    between atoms: O_28  and  C_29
    3  A    between atoms: C_29  and  C_32
                            x       y       z     vdW  Elec       q    Type
                         _______ _______ _______ _____ _____    ______ ____

>  <TORSDO>
F 3

$$$$
=
 OpenBabel11112418073D

 34 40  0  0  1  0  0  0  0  0999 V2000
  189.2440  174.9270  142.8070 C   0  0  1  0  0  3  0  0  0  0  0  0
  191.4520  173.9200  142.9100 C   0  0  0  0  0  2  0  0  0  0  0  0
  185.4020  179.4100  145.1440 C   0  0  0  0  0  0  0  0  0  0  0  0
  186.9720  176.0600  142.8720 C   0  0  2  0  0  3  0  0  0  0  0  0
  186.1700  176.9890  145.0930 C   0  0  2  0  0  3  0  0  0  0  0  0
  185.6370  178.1500  147.3330 C   0  0  0  0  0  1  0  0  0  0  0  0
  186.0700  180.3690  145.6140 O   0  0  0  0  0  0  0  0  0  0  0  0
  183.9160  178.4790  143.3320 C   0  0  0  0  0  2  0  0  0  0  0  0
  190.3860  174.5370  144.8050 C   0  0  2  0  0  3  0  0  0  0  0  0
  191.9690  175.8150  147.2540 C   0  0  0  0  0  2  0  0  0  0  0  0
  187.6280  176.9340  145.5480 C   0  0  0  0  0  2  0  0  0  0  0  0
  184.7160  177.2090  142.9850 C   0  0  0  0  0  2  0  0  0  0  0  0
  189.6110  175.6140  145.5740 C   0  0  1  0  0  3  0  0  0  0  0  0
  192.4320  173.6050  144.0360 C   0  0  0  0  0  2  0  0  0  0  0  0
  186.1400  177.1530  143.5550 C   0  0  2  0  0  3  0  0  0  0  0  0
  184.7380  179.5550  143.8850 N   0  0  0  0  0  2  0  0  0  0  0  0
  192.5680  175.2720  145.9420 C   0  0  1  0  0  3  0  0  0  0  0  0
  188.3750  176.0000  143.5060 C   0  0  1  0  0  3  0  0  0  0  0  0
  185.3650  178.0770  145.8350 C   0  0  1  0  0  3  0  0  0  0  0  0
  188.2740  175.7580  144.9640 N   0  0  2  0  0  0  0  0  0  0  0  0
  187.9550  175.2910  140.6910 C   0  0  0  0  0  2  0  0  0  0  0  0
  190.8030  174.9830  147.7940 C   0  0  0  0  0  2  0  0  0  0  0  0
  187.1040  176.3540  141.3750 C   0  0  0  0  0  2  0  0  0  0  0  0
  189.4790  175.2600  147.0680 C   0  0  0  0  0  2  0  0  0  0  0  0
  191.7610  174.1200  145.3010 C   0  0  1  0  0  3  0  0  0  0  0  0
  189.3450  175.2590  141.3160 C   0  0  0  0  0  2  0  0  0  0  0  0
  190.5640  174.9500  143.4290 N   0  0  2  0  0  0  0  0  0  0  0  0
  192.7480  176.3290  145.0430 O   0  0  0  0  0  0  0  0  0  0  0  0
  194.1090  176.6390  145.1130 C   0  0  0  0  0  2  0  0  0  0  0  0
  195.6010  176.6990  142.0700 O   0  0  0  0  0  0  0  0  0  0  0  0
  196.3170  176.2050  144.1180 C   0  0  0  0  0  3  0  0  0  0  0  0
  194.8780  175.8140  144.0950 C   0  0  2  0  0  3  0  0  0  0  0  0
  196.6700  176.6980  142.9460 C   0  0  0  0  0  3  0  0  0  0  0  0
  194.4350  176.1750  142.6780 C   0  0  0  0  0  2  0  0  0  0  0  0
  1 26  1  6  0  0  0
  1 27  1  0  0  0  0
  1 18  1  0  0  0  0
  2 27  1  0  0  0  0
  2 14  1  0  0  0  0
  3  7  2  0  0  0  0
  3 19  1  0  0  0  0
  4 23  1  6  0  0  0
  4 18  1  0  0  0  0
  4 15  1  0  0  0  0
  5 11  1  1  0  0  0
  5 19  1  0  0  0  0
  8 16  1  0  0  0  0
  9 25  1  0  0  0  0
  9 13  1  0  0  0  0
 10 22  1  0  0  0  0
 12  8  1  0  0  0  0
 12 15  1  0  0  0  0
 13 24  1  0  0  0  0
 14 25  1  0  0  0  0
 15  5  1  0  0  0  0
 16  3  1  0  0  0  0
 17 10  1  0  0  0  0
 18 20  1  0  0  0  0
 19  6  1  0  0  0  0
 20 11  1  0  0  0  0
 20 13  1  0  0  0  0
 21 26  1  0  0  0  0
 21 23  1  0  0  0  0
 24 22  1  0  0  0  0
 25 17  1  0  0  0  0
 27  9  1  0  0  0  0
 28 29  1  0  0  0  0
 28 17  1  0  0  0  0
 30 34  1  0  0  0  0
 30 33  1  0  0  0  0
 32 31  1  0  0  0  0
 32 29  1  0  0  0  0
 33 31  2  0  0  0  0
 34 32  1  0  0  0  0
M  END
>  <MODEL>
5

>  <REMARK>
 VINA RESULT:      -7.4      2.668      7.788
  Name = 
  3 active torsions:
  status: ('A' for Active; 'I' for Inactive)
    1  A    between atoms: C_17  and  O_28
    2  A    between atoms: O_28  and  C_29
    3  A    between atoms: C_29  and  C_32
                            x       y       z     vdW  Elec       q    Type
                         _______ _______ _______ _____ _____    ______ ____

>  <TORSDO>
F 3

$$$$
=
 OpenBabel11112418073D

 34 40  0  0  1  0  0  0  0  0999 V2000
  190.7560  174.6940  142.1810 C   0  0  1  0  0  3  0  0  0  0  0  0
  189.5500  176.7020  142.8300 C   0  0  0  0  0  2  0  0  0  0  0  0
  193.2550  169.2000  144.1510 C   0  0  0  0  0  0  0  0  0  0  0  0
  192.0560  172.5700  141.6890 C   0  0  2  0  0  3  0  0  0  0  0  0
  193.5520  171.6420  143.5170 C   0  0  2  0  0  3  0  0  0  0  0  0
  194.7740  170.6590  145.5640 C   0  0  0  0  0  1  0  0  0  0  0  0
  192.6690  168.7900  145.1880 O   0  0  0  0  0  0  0  0  0  0  0  0
  193.6840  168.9980  141.6740 C   0  0  0  0  0  2  0  0  0  0  0  0
  191.1740  175.8610  144.1580 C   0  0  2  0  0  3  0  0  0  0  0  0
  190.9030  175.8980  147.3310 C   0  0  0  0  0  2  0  0  0  0  0  0
  192.7470  172.4980  144.4950 C   0  0  0  0  0  2  0  0  0  0  0  0
  193.3660  170.4450  141.2500 C   0  0  0  0  0  2  0  0  0  0  0  0
  191.7820  174.6430  144.8660 C   0  0  1  0  0  3  0  0  0  0  0  0
  189.5720  177.6130  144.0540 C   0  0  0  0  0  2  0  0  0  0  0  0
  192.6520  171.2980  142.3080 C   0  0  2  0  0  3  0  0  0  0  0  0
  192.9870  168.5800  142.8900 N   0  0  0  0  0  2  0  0  0  0  0  0
  189.9240  176.5050  146.3080 C   0  0  1  0  0  3  0  0  0  0  0  0
  191.3950  173.4230  142.7890 C   0  0  1  0  0  3  0  0  0  0  0  0
  194.1620  170.3960  144.1930 C   0  0  1  0  0  3  0  0  0  0  0  0
  192.3760  173.7560  143.8470 N   0  0  2  0  0  0  0  0  0  0  0  0
  190.3900  173.4600  140.0330 C   0  0  0  0  0  2  0  0  0  0  0  0
  192.3770  176.0670  146.9560 C   0  0  0  0  0  2  0  0  0  0  0  0
  191.0100  172.2040  140.6320 C   0  0  0  0  0  2  0  0  0  0  0  0
  192.8480  175.0590  145.8970 C   0  0  0  0  0  2  0  0  0  0  0  0
  190.5870  176.9860  144.9970 C   0  0  1  0  0  3  0  0  0  0  0  0
  189.7220  174.2820  141.1300 C   0  0  0  0  0  2  0  0  0  0  0  0
  190.1180  175.4330  143.2660 N   0  0  2  0  0  0  0  0  0  0  0  0
  188.8960  175.5920  146.0510 O   0  0  0  0  0  0  0  0  0  0  0  0
  187.8600  175.9560  146.9160 C   0  0  0  0  0  2  0  0  0  0  0  0
  184.8000  177.3710  146.5670 O   0  0  0  0  0  0  0  0  0  0  0  0
  186.7210  178.0720  147.4440 C   0  0  0  0  0  3  0  0  0  0  0  0
  187.1030  177.1420  146.3430 C   0  0  2  0  0  3  0  0  0  0  0  0
  185.4070  178.1630  147.5230 C   0  0  0  0  0  3  0  0  0  0  0  0
  185.7580  176.6870  145.7790 C   0  0  0  0  0  2  0  0  0  0  0  0
  1 26  1  6  0  0  0
  1 18  1  0  0  0  0
  1 27  1  0  0  0  0
  2 27  1  0  0  0  0
  2 14  1  0  0  0  0
  3 19  1  0  0  0  0
  3  7  2  0  0  0  0
  4 23  1  6  0  0  0
  4 15  1  0  0  0  0
  4 18  1  0  0  0  0
  5 19  1  0  0  0  0
  5 11  1  1  0  0  0
  8 16  1  0  0  0  0
  9 13  1  0  0  0  0
  9 25  1  0  0  0  0
 12  8  1  0  0  0  0
 12 15  1  0  0  0  0
 13 24  1  0  0  0  0
 14 25  1  0  0  0  0
 15  5  1  0  0  0  0
 16  3  1  0  0  0  0
 17 10  1  0  0  0  0
 18 20  1  0  0  0  0
 19  6  1  0  0  0  0
 20 11  1  0  0  0  0
 20 13  1  0  0  0  0
 21 23  1  0  0  0  0
 21 26  1  0  0  0  0
 22 10  1  0  0  0  0
 24 22  1  0  0  0  0
 25 17  1  0  0  0  0
 27  9  1  0  0  0  0
 28 17  1  0  0  0  0
 28 29  1  0  0  0  0
 30 33  1  0  0  0  0
 31 33  2  0  0  0  0
 32 29  1  0  0  0  0
 32 31  1  0  0  0  0
 34 32  1  0  0  0  0
 34 30  1  0  0  0  0
M  END
>  <MODEL>
6

>  <REMARK>
 VINA RESULT:      -7.4      1.670      2.270
  Name = 
  3 active torsions:
  status: ('A' for Active; 'I' for Inactive)
    1  A    between atoms: C_17  and  O_28
    2  A    between atoms: O_28  and  C_29
    3  A    between atoms: C_29  and  C_32
                            x       y       z     vdW  Elec       q    Type
                         _______ _______ _______ _____ _____    ______ ____

>  <TORSDO>
F 3

$$$$
=
 OpenBabel11112418073D

 34 40  0  0  1  0  0  0  0  0999 V2000
  190.1270  173.3010  142.3330 C   0  0  1  0  0  3  0  0  0  0  0  0
  187.9700  174.4180  142.3800 C   0  0  0  0  0  2  0  0  0  0  0  0
  195.9030  172.9190  144.9450 C   0  0  0  0  0  0  0  0  0  0  0  0
  192.4520  172.2820  142.3870 C   0  0  2  0  0  3  0  0  0  0  0  0
  194.3860  173.7670  143.0920 C   0  0  2  0  0  3  0  0  0  0  0  0
  196.1830  175.3020  144.1220 C   0  0  0  0  0  1  0  0  0  0  0  0
  195.8800  173.3240  146.1380 O   0  0  0  0  0  0  0  0  0  0  0  0
  196.0530  171.0140  143.3000 C   0  0  0  0  0  2  0  0  0  0  0  0
  189.8770  175.5980  142.6610 C   0  0  2  0  0  3  0  0  0  0  0  0
  190.0360  178.0220  144.7200 C   0  0  0  0  0  2  0  0  0  0  0  0
  193.3390  174.6950  143.7090 C   0  0  0  0  0  2  0  0  0  0  0  0
  194.7910  171.3070  142.4660 C   0  0  0  0  0  2  0  0  0  0  0  0
  191.2280  175.7450  143.3720 C   0  0  1  0  0  3  0  0  0  0  0  0
  187.5140  175.8530  142.6240 C   0  0  0  0  0  2  0  0  0  0  0  0
  193.8210  172.3270  143.0790 C   0  0  2  0  0  3  0  0  0  0  0  0
  195.9780  171.5170  144.6710 N   0  0  0  0  0  2  0  0  0  0  0  0
  188.7910  177.1860  144.3630 C   0  0  1  0  0  3  0  0  0  0  0  0
  191.5260  173.3540  142.9930 C   0  0  1  0  0  3  0  0  0  0  0  0
  195.7540  173.8760  143.7970 C   0  0  1  0  0  3  0  0  0  0  0  0
  192.1390  174.6970  142.8710 N   0  0  2  0  0  0  0  0  0  0  0  0
  190.4410  170.8540  141.9070 C   0  0  0  0  0  2  0  0  0  0  0  0
  190.9450  178.3230  143.5260 C   0  0  0  0  0  2  0  0  0  0  0  0
  191.8150  170.9000  142.5650 C   0  0  0  0  0  2  0  0  0  0  0  0
  191.8430  177.1390  143.1390 C   0  0  0  0  0  2  0  0  0  0  0  0
  188.7890  176.6290  142.9210 C   0  0  1  0  0  3  0  0  0  0  0  0
  189.5320  171.9050  142.5320 C   0  0  0  0  0  2  0  0  0  0  0  0
  189.2940  174.3110  142.9770 N   0  0  2  0  0  0  0  0  0  0  0  0
  188.6350  176.1630  145.3040 O   0  0  0  0  0  0  0  0  0  0  0  0
  187.9600  176.7530  146.3760 C   0  0  0  0  0  2  0  0  0  0  0  0
  184.6100  177.2350  146.5560 O   0  0  0  0  0  0  0  0  0  0  0  0
  186.3670  178.5520  146.9090 C   0  0  0  0  0  3  0  0  0  0  0  0
  186.7990  177.5860  145.8580 C   0  0  2  0  0  3  0  0  0  0  0  0
  185.1210  178.3060  147.2640 C   0  0  0  0  0  3  0  0  0  0  0  0
  185.5660  176.7060  145.6570 C   0  0  0  0  0  2  0  0  0  0  0  0
  1 26  1  1  0  0  0
  1 27  1  0  0  0  0
  1 18  1  0  0  0  0
  2 14  1  0  0  0  0
  2 27  1  0  0  0  0
  3  7  2  0  0  0  0
  4 23  1  1  0  0  0
  4 18  1  0  0  0  0
  4 15  1  0  0  0  0
  5 11  1  1  0  0  0
  5 19  1  0  0  0  0
  8 16  1  0  0  0  0
  9 25  1  0  0  0  0
  9 27  1  0  0  0  0
  9 13  1  0  0  0  0
 12 15  1  0  0  0  0
 12  8  1  0  0  0  0
 14 25  1  0  0  0  0
 15  5  1  0  0  0  0
 16  3  1  0  0  0  0
 17 10  1  0  0  0  0
 17 28  1  0  0  0  0
 19  6  1  0  0  0  0
 19  3  1  0  0  0  0
 20 18  1  0  0  0  0
 20 13  1  0  0  0  0
 20 11  1  0  0  0  0
 21 26  1  0  0  0  0
 21 23  1  0  0  0  0
 22 10  1  0  0  0  0
 24 13  1  0  0  0  0
 24 22  1  0  0  0  0
 25 17  1  0  0  0  0
 28 29  1  0  0  0  0
 30 33  1  0  0  0  0
 31 33  2  0  0  0  0
 32 29  1  0  0  0  0
 32 31  1  0  0  0  0
 34 32  1  0  0  0  0
 34 30  1  0  0  0  0
M  END
>  <MODEL>
7

>  <REMARK>
 VINA RESULT:      -7.4      1.401      1.807
  Name = 
  3 active torsions:
  status: ('A' for Active; 'I' for Inactive)
    1  A    between atoms: C_17  and  O_28
    2  A    between atoms: O_28  and  C_29
    3  A    between atoms: C_29  and  C_32
                            x       y       z     vdW  Elec       q    Type
                         _______ _______ _______ _____ _____    ______ ____

>  <TORSDO>
F 3

$$$$
=
 OpenBabel11112418073D

 34 40  0  0  1  0  0  0  0  0999 V2000
  192.4100  176.4210  146.2710 C   0  0  1  0  0  3  0  0  0  0  0  0
  194.6610  175.5150  146.3860 C   0  0  0  0  0  2  0  0  0  0  0  0
  186.8490  176.3000  143.2080 C   0  0  0  0  0  0  0  0  0  0  0  0
  190.0460  177.2990  145.9710 C   0  0  2  0  0  3  0  0  0  0  0  0
  189.1040  177.3960  143.6160 C   0  0  2  0  0  3  0  0  0  0  0  0
  188.1840  177.1400  141.2220 C   0  0  0  0  0  1  0  0  0  0  0  0
  186.6790  175.1900  142.6360 O   0  0  0  0  0  0  0  0  0  0  0  0
  186.2710  177.8930  145.0750 C   0  0  0  0  0  2  0  0  0  0  0  0
  193.7210  175.9940  144.3880 C   0  0  2  0  0  3  0  0  0  0  0  0
  194.1950  174.1370  141.8450 C   0  0  0  0  0  2  0  0  0  0  0  0
  190.2020  176.4060  143.2260 C   0  0  0  0  0  2  0  0  0  0  0  0
  187.6870  178.1590  145.6210 C   0  0  0  0  0  2  0  0  0  0  0  0
  192.5120  175.8720  143.4510 C   0  0  1  0  0  3  0  0  0  0  0  0
  195.6990  175.0950  145.3490 C   0  0  0  0  0  2  0  0  0  0  0  0
  188.7770  177.2010  145.1150 C   0  0  2  0  0  3  0  0  0  0  0  0
  186.1340  176.5980  144.4110 N   0  0  0  0  0  2  0  0  0  0  0  0
  194.8330  173.9840  143.2400 C   0  0  1  0  0  3  0  0  0  0  0  0
  191.1310  176.3650  145.4010 C   0  0  1  0  0  3  0  0  0  0  0  0
  187.8640  177.2860  142.7040 C   0  0  1  0  0  3  0  0  0  0  0  0
  191.4160  176.7020  143.9870 N   0  0  2  0  0  0  0  0  0  0  0  0
  191.0030  176.9650  148.2700 C   0  0  0  0  0  2  0  0  0  0  0  0
  194.0570  175.5880  141.3820 C   0  0  0  0  0  2  0  0  0  0  0  0
  189.7410  176.9010  147.4180 C   0  0  0  0  0  2  0  0  0  0  0  0
  192.8600  176.3110  142.0160 C   0  0  0  0  0  2  0  0  0  0  0  0
  195.0250  175.3150  144.0030 C   0  0  1  0  0  3  0  0  0  0  0  0
  192.0570  176.0200  147.7060 C   0  0  0  0  0  2  0  0  0  0  0  0
  193.3770  175.4890  145.7000 N   0  0  2  0  0  0  0  0  0  0  0  0
  194.0890  173.0700  143.9930 O   0  0  0  0  0  0  0  0  0  0  0  0
  194.8880  171.9260  144.0700 C   0  0  0  0  0  2  0  0  0  0  0  0
  195.7360  169.4060  146.1730 O   0  0  0  0  0  0  0  0  0  0  0  0
  196.5690  171.4340  145.7980 C   0  0  0  0  0  3  0  0  0  0  0  0
  195.1080  171.5490  145.5260 C   0  0  2  0  0  3  0  0  0  0  0  0
  196.8660  170.2000  146.1610 C   0  0  0  0  0  3  0  0  0  0  0  0
  194.5850  170.1380  145.7900 C   0  0  0  0  0  2  0  0  0  0  0  0
  1 26  1  1  0  0  0
  3 16  1  0  0  0  0
  4 23  1  1  0  0  0
  5 11  1  6  0  0  0
  5 15  1  0  0  0  0
  6 19  1  0  0  0  0
  7  3  2  0  0  0  0
  8 12  1  0  0  0  0
  9 27  1  0  0  0  0
 10 17  1  0  0  0  0
 11 20  1  0  0  0  0
 13 20  1  0  0  0  0
 13  9  1  0  0  0  0
 14  2  1  0  0  0  0
 15 12  1  0  0  0  0
 15  4  1  0  0  0  0
 16  8  1  0  0  0  0
 17 28  1  0  0  0  0
 17 25  1  0  0  0  0
 18  4  1  0  0  0  0
 18  1  1  0  0  0  0
 19  3  1  0  0  0  0
 19  5  1  0  0  0  0
 20 18  1  0  0  0  0
 22 10  1  0  0  0  0
 22 24  1  0  0  0  0
 23 21  1  0  0  0  0
 24 13  1  0  0  0  0
 25  9  1  0  0  0  0
 25 14  1  0  0  0  0
 26 21  1  0  0  0  0
 27  1  1  0  0  0  0
 27  2  1  0  0  0  0
 28 29  1  0  0  0  0
 29 32  1  0  0  0  0
 31 33  2  0  0  0  0
 32 34  1  0  0  0  0
 32 31  1  0  0  0  0
 33 30  1  0  0  0  0
 34 30  1  0  0  0  0
M  END
>  <MODEL>
8

>  <REMARK>
 VINA RESULT:      -7.2      2.693      8.296
  Name = 
  3 active torsions:
  status: ('A' for Active; 'I' for Inactive)
    1  A    between atoms: C_17  and  O_28
    2  A    between atoms: O_28  and  C_29
    3  A    between atoms: C_29  and  C_32
                            x       y       z     vdW  Elec       q    Type
                         _______ _______ _______ _____ _____    ______ ____

>  <TORSDO>
F 3

$$$$
=
 OpenBabel11112418073D

 34 40  0  0  1  0  0  0  0  0999 V2000
  192.4030  175.6360  145.2270 C   0  0  1  0  0  3  0  0  0  0  0  0
  190.2340  176.0820  146.2280 C   0  0  0  0  0  2  0  0  0  0  0  0
  195.6610  175.0190  139.8110 C   0  0  0  0  0  0  0  0  0  0  0  0
  194.5770  175.1330  144.0150 C   0  0  2  0  0  3  0  0  0  0  0  0
  194.4420  173.9560  141.7700 C   0  0  2  0  0  3  0  0  0  0  0  0
  194.1260  173.0470  139.3780 C   0  0  0  0  0  1  0  0  0  0  0  0
  195.1080  175.6660  138.8820 O   0  0  0  0  0  0  0  0  0  0  0  0
  197.5450  174.7820  141.4710 C   0  0  0  0  0  2  0  0  0  0  0  0
  190.4010  174.7750  144.3910 C   0  0  2  0  0  3  0  0  0  0  0  0
  188.2200  174.8910  142.0740 C   0  0  0  0  0  2  0  0  0  0  0  0
  192.9770  174.3920  141.7240 C   0  0  0  0  0  2  0  0  0  0  0  0
  196.7190  174.6190  142.7610 C   0  0  0  0  0  2  0  0  0  0  0  0
  190.9600  174.5770  142.9760 C   0  0  1  0  0  3  0  0  0  0  0  0
  188.7970  175.7100  145.8750 C   0  0  0  0  0  2  0  0  0  0  0  0
  195.2290  174.9680  142.6360 C   0  0  2  0  0  3  0  0  0  0  0  0
  196.8500  175.5280  140.4220 N   0  0  0  0  0  2  0  0  0  0  0  0
  188.1950  175.6540  143.4130 C   0  0  1  0  0  3  0  0  0  0  0  0
  193.0740  175.4290  143.8480 C   0  0  1  0  0  3  0  0  0  0  0  0
  195.0420  173.7660  140.3610 C   0  0  1  0  0  3  0  0  0  0  0  0
  192.4160  174.3510  143.0740 N   0  0  2  0  0  0  0  0  0  0  0  0
  194.5780  176.4760  146.1380 C   0  0  0  0  0  2  0  0  0  0  0  0
  188.7520  173.4600  142.1850 C   0  0  0  0  0  2  0  0  0  0  0  0
  195.2400  176.2830  144.7780 C   0  0  0  0  0  2  0  0  0  0  0  0
  190.2840  173.3920  142.2600 C   0  0  0  0  0  2  0  0  0  0  0  0
  188.8990  174.9220  144.5780 C   0  0  1  0  0  3  0  0  0  0  0  0
  193.0980  176.7900  145.9540 C   0  0  0  0  0  2  0  0  0  0  0  0
  190.9970  175.9490  144.9940 N   0  0  2  0  0  0  0  0  0  0  0  0
  188.7220  176.9360  143.2250 O   0  0  0  0  0  0  0  0  0  0  0  0
  187.6530  177.7050  142.7580 C   0  0  0  0  0  2  0  0  0  0  0  0
  185.0760  179.2670  144.3090 O   0  0  0  0  0  0  0  0  0  0  0  0
  185.1960  177.6000  142.8420 C   0  0  0  0  0  3  0  0  0  0  0  0
  186.4430  177.5040  143.6540 C   0  0  2  0  0  3  0  0  0  0  0  0
  184.4620  178.6140  143.2580 C   0  0  0  0  0  3  0  0  0  0  0  0
  186.3160  178.6670  144.6370 C   0  0  0  0  0  2  0  0  0  0  0  0
  1 26  1  6  0  0  0
  3 19  1  0  0  0  0
  3 16  1  0  0  0  0
  4 23  1  6  0  0  0
  5 11  1  6  0  0  0
  5 15  1  0  0  0  0
  6 19  1  0  0  0  0
  7  3  2  0  0  0  0
  8 12  1  0  0  0  0
  9 25  1  0  0  0  0
  9 27  1  0  0  0  0
 10 22  1  0  0  0  0
 10 17  1  0  0  0  0
 11 20  1  0  0  0  0
 13 20  1  0  0  0  0
 13  9  1  0  0  0  0
 14  2  1  0  0  0  0
 15 12  1  0  0  0  0
 15  4  1  0  0  0  0
 16  8  1  0  0  0  0
 17 25  1  0  0  0  0
 18  4  1  0  0  0  0
 18  1  1  0  0  0  0
 19  5  1  0  0  0  0
 20 18  1  0  0  0  0
 22 24  1  0  0  0  0
 23 21  1  0  0  0  0
 24 13  1  0  0  0  0
 25 14  1  0  0  0  0
 26 21  1  0  0  0  0
 27  1  1  0  0  0  0
 27  2  1  0  0  0  0
 28 17  1  0  0  0  0
 29 28  1  0  0  0  0
 29 32  1  0  0  0  0
 30 34  1  0  0  0  0
 31 33  2  0  0  0  0
 31 32  1  0  0  0  0
 32 34  1  0  0  0  0
 33 30  1  0  0  0  0
M  END
>  <MODEL>
9

>  <REMARK>
 VINA RESULT:      -7.1      2.721      4.704
  Name = 
  3 active torsions:
  status: ('A' for Active; 'I' for Inactive)
    1  A    between atoms: C_17  and  O_28
    2  A    between atoms: O_28  and  C_29
    3  A    between atoms: C_29  and  C_32
                            x       y       z     vdW  Elec       q    Type
                         _______ _______ _______ _____ _____    ______ ____

>  <TORSDO>
F 3

$$$$
