=
 OpenBabel11112417353D

 28 32  0  0  1  0  0  0  0  0999 V2000
  189.9670  176.3890  145.3680 C   0  0  0  0  0  0  0  0  0  0  0  0
  189.6550  172.2840  142.5830 O   0  0  0  0  0  0  0  0  0  0  0  0
  184.4970  177.6570  142.3030 O   0  0  0  0  0  0  0  0  0  0  0  0
  192.2130  174.9680  144.4750 C   0  0  0  0  0  3  0  0  0  0  0  0
  186.5280  177.4100  141.1470 N   0  0  0  0  0  0  0  0  0  0  0  0
  188.8590  177.2330  145.8960 C   0  0  0  0  0  2  0  0  0  0  0  0
  187.2220  172.6940  142.6720 O   0  0  0  0  0  0  0  0  0  0  0  0
  188.5080  173.0390  141.9750 S   0  0  0  0  0  0  0  0  0  0  0  0
  188.3410  173.7630  139.3220 C   0  0  0  0  0  0  0  0  0  0  0  0
  188.8110  174.7800  142.0340 C   0  0  1  0  0  3  0  0  0  0  0  0
  185.2430  176.4460  146.2050 O   0  0  0  0  0  1  0  0  0  0  0  0
  187.9250  176.8220  142.9870 C   0  0  1  0  0  3  0  0  0  0  0  0
  188.2160  175.1010  139.7360 O   0  0  0  0  0  0  0  0  0  0  0  0
  188.3870  172.6920  140.2790 N   0  0  0  0  0  2  0  0  0  0  0  0
  186.3750  177.2400  146.0120 C   0  0  2  0  0  3  0  0  0  0  0  0
  189.8770  175.6360  144.1630 C   0  0  0  0  0  0  0  0  0  0  0  0
  185.7250  177.3710  142.3070 C   0  0  0  0  0  0  0  0  0  0  0  0
  188.4270  173.5010  138.0940 O   0  0  0  0  0  0  0  0  0  0  0  0
  186.3230  177.9030  144.6320 C   0  0  0  0  0  2  0  0  0  0  0  0
  191.0220  174.9220  143.7510 C   0  0  0  0  0  3  0  0  0  0  0  0
  191.1710  176.4300  146.0820 C   0  0  0  0  0  3  0  0  0  0  0  0
  192.2880  175.7220  145.6420 C   0  0  0  0  0  3  0  0  0  0  0  0
  187.6300  176.4020  146.2150 C   0  0  0  0  0  2  0  0  0  0  0  0
  187.8360  176.8600  141.4410 C   0  0  1  0  0  3  0  0  0  0  0  0
  186.4650  176.8970  143.4960 C   0  0  2  0  0  3  0  0  0  0  0  0
  187.8500  175.3970  141.0780 C   0  0  2  0  0  3  0  0  0  0  0  0
  186.0340  177.6800  139.8060 C   0  0  0  0  0  1  0  0  0  0  0  0
  188.5740  175.4750  143.3730 C   0  0  2  0  0  3  0  0  0  0  0  0
  1  6  1  0  0  0  0
  1 21  1  0  0  0  0
  3 17  2  0  0  0  0
  4 22  1  0  0  0  0
  5 24  1  0  0  0  0
  5 17  1  0  0  0  0
  6 23  1  0  0  0  0
  8  2  2  0  0  0  0
  8  7  2  0  0  0  0
  9 13  1  0  0  0  0
  9 14  1  0  0  0  0
 10  8  1  1  0  0  0
 10 28  1  0  0  0  0
 12 28  1  0  0  0  0
 12 25  1  0  0  0  0
 13 26  1  0  0  0  0
 14  8  1  0  0  0  0
 15 11  1  0  0  0  0
 15 23  1  0  0  0  0
 16  1  2  0  0  0  0
 17 25  1  0  0  0  0
 18  9  2  0  0  0  0
 19 15  1  0  0  0  0
 20 16  1  0  0  0  0
 20  4  2  0  0  0  0
 22 21  2  0  0  0  0
 24 12  1  0  0  0  0
 25 19  1  0  0  0  0
 26 24  1  0  0  0  0
 26 10  1  0  0  0  0
 27  5  1  0  0  0  0
 28 16  1  0  0  0  0
M  END
>  <MODEL>
1

>  <REMARK>
 VINA RESULT:      -8.4      0.000      0.000
  Name = 
  0 active torsions:
  status: ('A' for Active; 'I' for Inactive)
                            x       y       z     vdW  Elec       q    Type
                         _______ _______ _______ _____ _____    ______ ____

>  <TORSDO>
F 0

$$$$
=
 OpenBabel11112417353D

 28 32  0  0  1  0  0  0  0  0999 V2000
  187.6640  176.3630  146.4350 C   0  0  0  0  0  0  0  0  0  0  0  0
  186.7040  178.9270  142.2870 O   0  0  0  0  0  0  0  0  0  0  0  0
  192.2430  173.9540  142.6710 O   0  0  0  0  0  0  0  0  0  0  0  0
  185.1010  177.2690  145.7520 C   0  0  0  0  0  3  0  0  0  0  0  0
  189.9640  173.6850  142.1660 N   0  0  0  0  0  0  0  0  0  0  0  0
  188.9710  175.8220  146.9050 C   0  0  0  0  0  2  0  0  0  0  0  0
  189.1050  178.6030  141.8130 O   0  0  0  0  0  0  0  0  0  0  0  0
  187.7350  177.9920  141.7230 S   0  0  0  0  0  0  0  0  0  0  0  0
  187.2840  176.2240  139.6570 C   0  0  0  0  0  0  0  0  0  0  0  0
  187.6820  176.4340  142.5580 C   0  0  1  0  0  3  0  0  0  0  0  0
  192.4090  176.6840  145.7970 O   0  0  0  0  0  1  0  0  0  0  0  0
  189.0410  174.9820  143.9390 C   0  0  1  0  0  3  0  0  0  0  0  0
  187.6830  175.1830  140.5140 O   0  0  0  0  0  0  0  0  0  0  0  0
  187.3570  177.5980  140.0760 N   0  0  0  0  0  2  0  0  0  0  0  0
  191.3770  175.8760  146.2790 C   0  0  2  0  0  3  0  0  0  0  0  0
  187.3360  176.5430  145.0620 C   0  0  0  0  0  0  0  0  0  0  0  0
  191.0340  174.2090  142.9210 C   0  0  0  0  0  0  0  0  0  0  0  0
  186.8430  175.9480  138.5120 O   0  0  0  0  0  0  0  0  0  0  0  0
  191.1460  174.6970  145.3290 C   0  0  0  0  0  2  0  0  0  0  0  0
  186.0420  177.0130  144.7550 C   0  0  0  0  0  3  0  0  0  0  0  0
  186.7080  176.6190  147.4250 C   0  0  0  0  0  3  0  0  0  0  0  0
  185.4340  177.0730  147.0880 C   0  0  0  0  0  3  0  0  0  0  0  0
  190.1250  176.7170  146.4900 C   0  0  0  0  0  2  0  0  0  0  0  0
  188.7220  174.3010  142.5860 C   0  0  1  0  0  3  0  0  0  0  0  0
  190.5810  175.1350  143.9830 C   0  0  2  0  0  3  0  0  0  0  0  0
  188.4270  175.4780  141.6900 C   0  0  2  0  0  3  0  0  0  0  0  0
  190.1150  172.8810  140.9630 C   0  0  0  0  0  1  0  0  0  0  0  0
  188.3520  176.3650  143.9280 C   0  0  2  0  0  3  0  0  0  0  0  0
  1  6  1  0  0  0  0
  1 21  1  0  0  0  0
  3 17  2  0  0  0  0
  4 22  1  0  0  0  0
  5 24  1  0  0  0  0
  5 17  1  0  0  0  0
  8  7  2  0  0  0  0
  8  2  2  0  0  0  0
  9 14  1  0  0  0  0
  9 13  1  0  0  0  0
 10  8  1  6  0  0  0
 10 28  1  0  0  0  0
 11 15  1  0  0  0  0
 12 25  1  0  0  0  0
 13 26  1  0  0  0  0
 14  8  1  0  0  0  0
 15 23  1  0  0  0  0
 16  1  2  0  0  0  0
 17 25  1  0  0  0  0
 18  9  2  0  0  0  0
 19 15  1  0  0  0  0
 20 16  1  0  0  0  0
 20  4  2  0  0  0  0
 22 21  2  0  0  0  0
 23  6  1  0  0  0  0
 24 12  1  0  0  0  0
 25 19  1  0  0  0  0
 26 10  1  0  0  0  0
 26 24  1  0  0  0  0
 27  5  1  0  0  0  0
 28 12  1  0  0  0  0
 28 16  1  0  0  0  0
M  END
>  <MODEL>
2

>  <REMARK>
 VINA RESULT:      -8.2      2.228      4.917
  Name = 
  0 active torsions:
  status: ('A' for Active; 'I' for Inactive)
                            x       y       z     vdW  Elec       q    Type
                         _______ _______ _______ _____ _____    ______ ____

>  <TORSDO>
F 0

$$$$
=
 OpenBabel11112417353D

 28 32  0  0  1  0  0  0  0  0999 V2000
  192.3130  176.0400  144.8660 C   0  0  0  0  0  0  0  0  0  0  0  0
  190.1420  174.1430  140.8170 O   0  0  0  0  0  0  0  0  0  0  0  0
  186.1950  177.1070  146.4020 O   0  0  0  0  0  0  0  0  0  0  0  0
  193.5300  176.0210  142.3410 C   0  0  0  0  0  3  0  0  0  0  0  0
  187.1840  178.1030  144.5170 N   0  0  0  0  0  0  0  0  0  0  0  0
  191.7730  176.1180  146.2530 C   0  0  0  0  0  2  0  0  0  0  0  0
  188.2320  173.7270  142.3250 O   0  0  0  0  0  0  0  0  0  0  0  0
  188.9190  174.7400  141.4530 S   0  0  0  0  0  0  0  0  0  0  0  0
  187.3350  176.6740  140.2920 C   0  0  0  0  0  0  0  0  0  0  0  0
  189.3430  176.1860  142.3770 C   0  0  1  0  0  3  0  0  0  0  0  0
  188.9220  174.2900  147.7730 O   0  0  0  0  0  1  0  0  0  0  0  0
  189.3240  177.0610  144.6350 C   0  0  1  0  0  3  0  0  0  0  0  0
  187.5780  177.4870  141.4120 O   0  0  0  0  0  0  0  0  0  0  0  0
  187.8300  175.3240  140.2350 N   0  0  0  0  0  2  0  0  0  0  0  0
  189.8040  175.3510  147.5640 C   0  0  2  0  0  3  0  0  0  0  0  0
  191.4940  176.0500  143.7020 C   0  0  0  0  0  0  0  0  0  0  0  0
  187.1800  177.2280  145.6250 C   0  0  0  0  0  0  0  0  0  0  0  0
  186.6890  177.1380  139.3180 O   0  0  0  0  0  0  0  0  0  0  0  0
  189.0330  176.5950  147.1130 C   0  0  0  0  0  2  0  0  0  0  0  0
  192.1400  176.0250  142.4480 C   0  0  0  0  0  3  0  0  0  0  0  0
  193.7080  176.0400  144.7430 C   0  0  0  0  0  3  0  0  0  0  0  0
  194.3150  176.0270  143.4890 C   0  0  0  0  0  3  0  0  0  0  0  0
  190.8790  174.9330  146.5690 C   0  0  0  0  0  2  0  0  0  0  0  0
  188.3770  177.8830  143.7260 C   0  0  1  0  0  3  0  0  0  0  0  0
  188.4230  176.4320  145.7260 C   0  0  2  0  0  3  0  0  0  0  0  0
  188.0630  176.9090  142.6180 C   0  0  2  0  0  3  0  0  0  0  0  0
  186.0400  178.8860  144.0760 C   0  0  0  0  0  1  0  0  0  0  0  0
  189.9650  175.9650  143.7540 C   0  0  2  0  0  3  0  0  0  0  0  0
  1  6  1  0  0  0  0
  2  8  2  0  0  0  0
  4 20  2  0  0  0  0
  4 22  1  0  0  0  0
  5 17  1  0  0  0  0
  6 23  1  0  0  0  0
  8  7  2  0  0  0  0
  9 13  1  0  0  0  0
 10  8  1  1  0  0  0
 10 26  1  0  0  0  0
 10 28  1  0  0  0  0
 12 25  1  0  0  0  0
 13 26  1  0  0  0  0
 14  9  1  0  0  0  0
 14  8  1  0  0  0  0
 15 11  1  0  0  0  0
 16 28  1  0  0  0  0
 16  1  2  0  0  0  0
 17 25  1  0  0  0  0
 17  3  2  0  0  0  0
 18  9  2  0  0  0  0
 19 15  1  0  0  0  0
 20 16  1  0  0  0  0
 21  1  1  0  0  0  0
 22 21  2  0  0  0  0
 23 15  1  0  0  0  0
 24  5  1  0  0  0  0
 24 12  1  0  0  0  0
 25 19  1  0  0  0  0
 26 24  1  0  0  0  0
 27  5  1  0  0  0  0
 28 12  1  0  0  0  0
M  END
>  <MODEL>
3

>  <REMARK>
 VINA RESULT:      -8.2      1.999      3.079
  Name = 
  0 active torsions:
  status: ('A' for Active; 'I' for Inactive)
                            x       y       z     vdW  Elec       q    Type
                         _______ _______ _______ _____ _____    ______ ____

>  <TORSDO>
F 0

$$$$
=
 OpenBabel11112417353D

 28 32  0  0  1  0  0  0  0  0999 V2000
  188.8290  173.5180  142.5100 C   0  0  0  0  0  0  0  0  0  0  0  0
  192.8630  175.2970  144.8050 O   0  0  0  0  0  0  0  0  0  0  0  0
  186.4190  179.0400  144.6600 O   0  0  0  0  0  0  0  0  0  0  0  0
  190.7920  171.8750  143.6520 C   0  0  0  0  0  3  0  0  0  0  0  0
  187.2050  177.3840  146.1300 N   0  0  0  0  0  0  0  0  0  0  0  0
  187.7170  174.2800  141.8730 C   0  0  0  0  0  2  0  0  0  0  0  0
  191.8710  177.5070  144.3250 O   0  0  0  0  0  0  0  0  0  0  0  0
  191.8820  176.3360  145.2670 S   0  0  0  0  0  0  0  0  0  0  0  0
  191.2640  176.8450  147.9040 C   0  0  0  0  0  0  0  0  0  0  0  0
  190.2650  175.6370  145.4230 C   0  0  1  0  0  3  0  0  0  0  0  0
  187.5890  177.8490  140.8580 O   0  0  0  0  0  1  0  0  0  0  0  0
  188.0260  175.8290  144.5210 C   0  0  1  0  0  3  0  0  0  0  0  0
  189.9180  176.5770  147.5990 O   0  0  0  0  0  0  0  0  0  0  0  0
  192.2680  176.8600  146.8760 N   0  0  0  0  0  2  0  0  0  0  0  0
  187.1030  176.6250  141.3200 C   0  0  2  0  0  3  0  0  0  0  0  0
  189.5930  174.0110  143.6050 C   0  0  0  0  0  0  0  0  0  0  0  0
  186.9930  177.9340  144.8480 C   0  0  0  0  0  0  0  0  0  0  0  0
  191.5970  177.0610  149.0980 O   0  0  0  0  0  0  0  0  0  0  0  0
  186.5130  176.7900  142.7240 C   0  0  0  0  0  2  0  0  0  0  0  0
  190.5820  173.1630  144.1460 C   0  0  0  0  0  3  0  0  0  0  0  0
  189.0480  172.2220  142.0270 C   0  0  0  0  0  3  0  0  0  0  0  0
  190.0250  171.4050  142.5910 C   0  0  0  0  0  3  0  0  0  0  0  0
  188.2100  175.5810  141.2660 C   0  0  0  0  0  2  0  0  0  0  0  0
  188.0400  176.2050  146.0230 C   0  0  1  0  0  3  0  0  0  0  0  0
  187.5760  177.1060  143.7690 C   0  0  2  0  0  3  0  0  0  0  0  0
  189.4790  176.5980  146.2470 C   0  0  2  0  0  3  0  0  0  0  0  0
  186.8870  178.0530  147.3810 C   0  0  0  0  0  1  0  0  0  0  0  0
  189.4710  175.4440  144.1330 C   0  0  2  0  0  3  0  0  0  0  0  0
  1 16  1  0  0  0  0
  2  8  2  0  0  0  0
  3 17  2  0  0  0  0
  4 20  1  0  0  0  0
  5 27  1  0  0  0  0
  6  1  1  0  0  0  0
  7  8  2  0  0  0  0
  8 14  1  0  0  0  0
  9 18  2  0  0  0  0
 10  8  1  6  0  0  0
 10 26  1  0  0  0  0
 11 15  1  0  0  0  0
 12 24  1  0  0  0  0
 13  9  1  0  0  0  0
 14  9  1  0  0  0  0
 15 19  1  0  0  0  0
 16 28  1  0  0  0  0
 16 20  2  0  0  0  0
 17  5  1  0  0  0  0
 19 25  1  0  0  0  0
 21  1  2  0  0  0  0
 21 22  1  0  0  0  0
 22  4  2  0  0  0  0
 23 15  1  0  0  0  0
 23  6  1  0  0  0  0
 24  5  1  0  0  0  0
 24 26  1  0  0  0  0
 25 12  1  0  0  0  0
 25 17  1  0  0  0  0
 26 13  1  0  0  0  0
 28 12  1  0  0  0  0
 28 10  1  0  0  0  0
M  END
>  <MODEL>
4

>  <REMARK>
 VINA RESULT:      -8.1      3.423      5.615
  Name = 
  0 active torsions:
  status: ('A' for Active; 'I' for Inactive)
                            x       y       z     vdW  Elec       q    Type
                         _______ _______ _______ _____ _____    ______ ____

>  <TORSDO>
F 0

$$$$
=
 OpenBabel11112417353D

 28 32  0  0  1  0  0  0  0  0999 V2000
  191.7470  176.2140  146.0480 C   0  0  0  0  0  0  0  0  0  0  0  0
  191.5590  171.5880  144.2410 O   0  0  0  0  0  0  0  0  0  0  0  0
  186.1060  176.5270  143.0480 O   0  0  0  0  0  0  0  0  0  0  0  0
  194.0330  174.7360  145.3780 C   0  0  0  0  0  3  0  0  0  0  0  0
  188.1040  176.1260  141.8770 N   0  0  0  0  0  0  0  0  0  0  0  0
  190.6140  177.1030  146.4330 C   0  0  0  0  0  2  0  0  0  0  0  0
  189.1120  171.8960  144.3560 O   0  0  0  0  0  0  0  0  0  0  0  0
  190.3500  172.1380  143.5390 S   0  0  0  0  0  0  0  0  0  0  0  0
  190.0450  172.2540  140.8030 C   0  0  0  0  0  0  0  0  0  0  0  0
  190.5590  173.8620  143.2040 C   0  0  1  0  0  3  0  0  0  0  0  0
  187.0620  176.2380  147.0790 O   0  0  0  0  0  1  0  0  0  0  0  0
  189.5980  176.0210  143.7310 C   0  0  1  0  0  3  0  0  0  0  0  0
  189.8620  173.6430  140.9220 O   0  0  0  0  0  0  0  0  0  0  0  0
  190.1860  171.4220  141.9670 N   0  0  0  0  0  2  0  0  0  0  0  0
  188.1400  177.0220  146.6640 C   0  0  2  0  0  3  0  0  0  0  0  0
  191.6540  175.2120  145.0420 C   0  0  0  0  0  0  0  0  0  0  0  0
  187.3470  176.3060  143.0540 C   0  0  0  0  0  0  0  0  0  0  0  0
  190.1000  171.7330  139.6590 O   0  0  0  0  0  0  0  0  0  0  0  0
  188.0000  177.3630  145.1770 C   0  0  0  0  0  2  0  0  0  0  0  0
  192.8200  174.4780  144.7400 C   0  0  0  0  0  3  0  0  0  0  0  0
  192.9730  176.4660  146.6780 C   0  0  0  0  0  3  0  0  0  0  0  0
  194.1090  175.7300  146.3490 C   0  0  0  0  0  3  0  0  0  0  0  0
  189.4450  176.3070  146.9840 C   0  0  0  0  0  2  0  0  0  0  0  0
  189.4490  175.7150  142.2200 C   0  0  1  0  0  3  0  0  0  0  0  0
  188.1550  176.1390  144.2820 C   0  0  2  0  0  3  0  0  0  0  0  0
  189.5300  174.2090  142.1840 C   0  0  2  0  0  3  0  0  0  0  0  0
  187.5460  176.0720  140.5350 C   0  0  0  0  0  1  0  0  0  0  0  0
  190.3330  174.8220  144.3700 C   0  0  2  0  0  3  0  0  0  0  0  0
  1  6  1  0  0  0  0
  1 21  1  0  0  0  0
  3 17  2  0  0  0  0
  4 22  1  0  0  0  0
  5 24  1  0  0  0  0
  5 17  1  0  0  0  0
  6 23  1  0  0  0  0
  8  2  2  0  0  0  0
  8  7  2  0  0  0  0
  9 13  1  0  0  0  0
  9 14  1  0  0  0  0
 10  8  1  1  0  0  0
 10 28  1  0  0  0  0
 12 25  1  0  0  0  0
 12 28  1  0  0  0  0
 13 26  1  0  0  0  0
 14  8  1  0  0  0  0
 15 23  1  0  0  0  0
 15 11  1  0  0  0  0
 16  1  2  0  0  0  0
 17 25  1  0  0  0  0
 18  9  2  0  0  0  0
 19 15  1  0  0  0  0
 20 16  1  0  0  0  0
 20  4  2  0  0  0  0
 22 21  2  0  0  0  0
 24 12  1  0  0  0  0
 25 19  1  0  0  0  0
 26 24  1  0  0  0  0
 26 10  1  0  0  0  0
 27  5  1  0  0  0  0
 28 16  1  0  0  0  0
M  END
>  <MODEL>
5

>  <REMARK>
 VINA RESULT:      -8.0      1.796      2.228
  Name = 
  0 active torsions:
  status: ('A' for Active; 'I' for Inactive)
                            x       y       z     vdW  Elec       q    Type
                         _______ _______ _______ _____ _____    ______ ____

>  <TORSDO>
F 0

$$$$
=
 OpenBabel11112417353D

 28 32  0  0  1  0  0  0  0  0999 V2000
  187.5940  176.2540  142.0230 C   0  0  0  0  0  0  0  0  0  0  0  0
  187.8980  175.8910  146.9700 O   0  0  0  0  0  0  0  0  0  0  0  0
  193.2760  173.3490  142.4790 O   0  0  0  0  0  0  0  0  0  0  0  0
  186.3940  178.0880  143.7710 C   0  0  0  0  0  3  0  0  0  0  0  0
  192.9080  175.4860  143.3850 N   0  0  0  0  0  0  0  0  0  0  0  0
  188.1890  175.3560  140.9920 C   0  0  0  0  0  2  0  0  0  0  0  0
  189.3170  173.9250  146.5020 O   0  0  0  0  0  0  0  0  0  0  0  0
  189.2850  175.4220  146.6390 S   0  0  0  0  0  0  0  0  0  0  0  0
  191.6000  176.6510  147.4900 C   0  0  0  0  0  0  0  0  0  0  0  0
  189.8690  176.2030  145.1630 C   0  0  1  0  0  3  0  0  0  0  0  0
  189.5400  171.9180  141.3650 O   0  0  0  0  0  1  0  0  0  0  0  0
  190.5820  175.6890  142.9070 C   0  0  1  0  0  3  0  0  0  0  0  0
  191.9750  176.7900  146.1420 O   0  0  0  0  0  0  0  0  0  0  0  0
  190.4060  175.9390  147.8580 N   0  0  0  0  0  2  0  0  0  0  0  0
  189.4330  173.2090  140.8440 C   0  0  2  0  0  3  0  0  0  0  0  0
  188.1640  176.4580  143.3110 C   0  0  0  0  0  0  0  0  0  0  0  0
  192.4900  174.2950  142.7540 C   0  0  0  0  0  0  0  0  0  0  0  0
  192.3140  177.1700  148.3870 O   0  0  0  0  0  0  0  0  0  0  0  0
  190.7480  173.9680  141.0490 C   0  0  0  0  0  2  0  0  0  0  0  0
  187.5260  177.3780  144.1700 C   0  0  0  0  0  3  0  0  0  0  0  0
  186.4600  176.9780  141.6340 C   0  0  0  0  0  3  0  0  0  0  0  0
  185.8600  177.8870  142.5020 C   0  0  0  0  0  3  0  0  0  0  0  0
  188.2400  173.9170  141.4710 C   0  0  0  0  0  2  0  0  0  0  0  0
  191.7530  176.2910  143.7230 C   0  0  1  0  0  3  0  0  0  0  0  0
  191.0300  174.2590  142.5180 C   0  0  2  0  0  3  0  0  0  0  0  0
  191.3440  175.9960  145.1450 C   0  0  2  0  0  3  0  0  0  0  0  0
  194.2530  175.7310  143.8830 C   0  0  0  0  0  1  0  0  0  0  0  0
  189.3510  175.6450  143.8390 C   0  0  2  0  0  3  0  0  0  0  0  0
  1 16  1  0  0  0  0
  3 17  2  0  0  0  0
  4 20  1  0  0  0  0
  5 24  1  0  0  0  0
  5 27  1  0  0  0  0
  6 23  1  0  0  0  0
  6  1  1  0  0  0  0
  7  8  2  0  0  0  0
  8  2  2  0  0  0  0
  8 14  1  0  0  0  0
  9 14  1  0  0  0  0
  9 18  2  0  0  0  0
 10  8  1  1  0  0  0
 12 24  1  0  0  0  0
 12 28  1  0  0  0  0
 13  9  1  0  0  0  0
 15 19  1  0  0  0  0
 15 11  1  0  0  0  0
 15 23  1  0  0  0  0
 16 28  1  0  0  0  0
 16 20  2  0  0  0  0
 17  5  1  0  0  0  0
 19 25  1  0  0  0  0
 21  1  2  0  0  0  0
 21 22  1  0  0  0  0
 22  4  2  0  0  0  0
 24 26  1  0  0  0  0
 25 17  1  0  0  0  0
 25 12  1  0  0  0  0
 26 10  1  0  0  0  0
 26 13  1  0  0  0  0
 28 10  1  0  0  0  0
M  END
>  <MODEL>
6

>  <REMARK>
 VINA RESULT:      -7.5      3.261      6.614
  Name = 
  0 active torsions:
  status: ('A' for Active; 'I' for Inactive)
                            x       y       z     vdW  Elec       q    Type
                         _______ _______ _______ _____ _____    ______ ____

>  <TORSDO>
F 0

$$$$
=
 OpenBabel11112417353D

 28 32  0  0  1  0  0  0  0  0999 V2000
  187.5530  176.3510  142.8950 C   0  0  0  0  0  0  0  0  0  0  0  0
  189.7880  175.9540  147.3170 O   0  0  0  0  0  0  0  0  0  0  0  0
  192.9960  173.5510  141.0330 O   0  0  0  0  0  0  0  0  0  0  0  0
  187.1130  178.1470  145.0010 C   0  0  0  0  0  3  0  0  0  0  0  0
  192.9850  175.6730  142.0420 N   0  0  0  0  0  0  0  0  0  0  0  0
  187.7070  175.4720  141.7000 C   0  0  0  0  0  2  0  0  0  0  0  0
  190.9350  174.0200  146.2990 O   0  0  0  0  0  0  0  0  0  0  0  0
  190.9390  175.5140  146.4590 S   0  0  0  0  0  0  0  0  0  0  0  0
  193.3840  176.7810  146.3470 C   0  0  0  0  0  0  0  0  0  0  0  0
  190.8820  176.3180  144.8840 C   0  0  1  0  0  3  0  0  0  0  0  0
  189.1440  172.0580  141.4600 O   0  0  0  0  0  1  0  0  0  0  0  0
  190.6560  175.8360  142.5220 C   0  0  1  0  0  3  0  0  0  0  0  0
  193.1950  176.9380  144.9630 O   0  0  0  0  0  0  0  0  0  0  0  0
  192.4420  176.0440  147.1450 N   0  0  0  0  0  2  0  0  0  0  0  0
  188.8220  173.3500  141.0420 C   0  0  2  0  0  3  0  0  0  0  0  0
  188.5820  176.5550  143.8570 C   0  0  0  0  0  0  0  0  0  0  0  0
  192.3680  174.4800  141.6100 C   0  0  0  0  0  0  0  0  0  0  0  0
  194.3850  177.3060  146.8980 O   0  0  0  0  0  0  0  0  0  0  0  0
  190.1000  174.1330  140.7240 C   0  0  0  0  0  2  0  0  0  0  0  0
  188.3210  177.4560  144.9110 C   0  0  0  0  0  3  0  0  0  0  0  0
  186.3470  177.0550  142.9950 C   0  0  0  0  0  3  0  0  0  0  0  0
  186.1250  177.9460  144.0420 C   0  0  0  0  0  3  0  0  0  0  0  0
  187.9630  174.0310  142.0990 C   0  0  0  0  0  2  0  0  0  0  0  0
  192.0440  176.4530  142.8200 C   0  0  1  0  0  3  0  0  0  0  0  0
  190.9340  174.4170  141.9680 C   0  0  2  0  0  3  0  0  0  0  0  0
  192.2330  176.1400  144.2830 C   0  0  2  0  0  3  0  0  0  0  0  0
  194.4130  175.9390  141.9740 C   0  0  0  0  0  1  0  0  0  0  0  0
  189.8920  175.7610  143.8630 C   0  0  2  0  0  3  0  0  0  0  0  0
  1 21  2  0  0  0  0
  1 16  1  0  0  0  0
  3 17  2  0  0  0  0
  5 24  1  0  0  0  0
  6 23  1  0  0  0  0
  6  1  1  0  0  0  0
  7  8  2  0  0  0  0
  8 14  1  0  0  0  0
  8  2  2  0  0  0  0
  9 18  2  0  0  0  0
  9 14  1  0  0  0  0
 10  8  1  1  0  0  0
 12 24  1  0  0  0  0
 12 28  1  0  0  0  0
 13  9  1  0  0  0  0
 15 11  1  0  0  0  0
 15 23  1  0  0  0  0
 16 28  1  0  0  0  0
 16 20  2  0  0  0  0
 17 25  1  0  0  0  0
 17  5  1  0  0  0  0
 19 15  1  0  0  0  0
 19 25  1  0  0  0  0
 20  4  1  0  0  0  0
 21 22  1  0  0  0  0
 22  4  2  0  0  0  0
 24 26  1  0  0  0  0
 25 12  1  0  0  0  0
 26 10  1  0  0  0  0
 26 13  1  0  0  0  0
 27  5  1  0  0  0  0
 28 10  1  0  0  0  0
M  END
>  <MODEL>
7

>  <REMARK>
 VINA RESULT:      -7.4      3.529      6.395
  Name = 
  0 active torsions:
  status: ('A' for Active; 'I' for Inactive)
                            x       y       z     vdW  Elec       q    Type
                         _______ _______ _______ _____ _____    ______ ____

>  <TORSDO>
F 0

$$$$
=
 OpenBabel11112417353D

 28 32  0  0  1  0  0  0  0  0999 V2000
  192.9450  176.0130  144.3650 C   0  0  0  0  0  0  0  0  0  0  0  0
  191.6040  172.2140  141.4550 O   0  0  0  0  0  0  0  0  0  0  0  0
  186.5920  176.4880  144.9430 O   0  0  0  0  0  0  0  0  0  0  0  0
  194.4680  175.1470  142.1770 C   0  0  0  0  0  3  0  0  0  0  0  0
  187.6640  176.7530  142.8680 N   0  0  0  0  0  0  0  0  0  0  0  0
  192.2260  176.5720  145.5450 C   0  0  0  0  0  2  0  0  0  0  0  0
  189.5940  172.1350  142.8870 O   0  0  0  0  0  0  0  0  0  0  0  0
  190.2370  172.7880  141.6960 S   0  0  0  0  0  0  0  0  0  0  0  0
  188.5580  173.7200  139.7190 C   0  0  0  0  0  0  0  0  0  0  0  0
  190.3300  174.5410  141.9100 C   0  0  1  0  0  3  0  0  0  0  0  0
  189.4900  175.0730  147.5590 O   0  0  0  0  0  1  0  0  0  0  0  0
  189.8970  176.2710  143.5480 C   0  0  1  0  0  3  0  0  0  0  0  0
  188.5370  174.9620  140.3780 O   0  0  0  0  0  0  0  0  0  0  0  0
  189.2420  172.5900  140.2880 N   0  0  0  0  0  2  0  0  0  0  0  0
  190.2330  176.0870  146.9510 C   0  0  2  0  0  3  0  0  0  0  0  0
  192.2900  175.3770  143.2740 C   0  0  0  0  0  0  0  0  0  0  0  0
  187.6410  176.4470  144.2450 C   0  0  0  0  0  0  0  0  0  0  0  0
  187.9830  173.6000  138.6070 O   0  0  0  0  0  0  0  0  0  0  0  0
  189.3580  176.8570  145.9580 C   0  0  0  0  0  2  0  0  0  0  0  0
  193.0890  174.9420  142.1960 C   0  0  0  0  0  3  0  0  0  0  0  0
  194.3300  176.2170  144.3310 C   0  0  0  0  0  3  0  0  0  0  0  0
  195.0900  175.7850  143.2460 C   0  0  0  0  0  3  0  0  0  0  0  0
  191.4760  175.4920  146.3020 C   0  0  0  0  0  2  0  0  0  0  0  0
  188.9680  176.4410  142.3210 C   0  0  1  0  0  3  0  0  0  0  0  0
  188.9610  176.0120  144.7540 C   0  0  2  0  0  3  0  0  0  0  0  0
  188.9400  175.0500  141.7390 C   0  0  2  0  0  3  0  0  0  0  0  0
  186.4870  177.0500  142.0670 C   0  0  0  0  0  1  0  0  0  0  0  0
  190.7940  175.0440  143.2750 C   0  0  2  0  0  3  0  0  0  0  0  0
  1  6  1  0  0  0  0
  2  8  2  0  0  0  0
  4 20  2  0  0  0  0
  4 22  1  0  0  0  0
  5 17  1  0  0  0  0
  6 23  1  0  0  0  0
  8  7  2  0  0  0  0
  9 14  1  0  0  0  0
  9 13  1  0  0  0  0
 10  8  1  1  0  0  0
 10 28  1  0  0  0  0
 12 25  1  0  0  0  0
 13 26  1  0  0  0  0
 14  8  1  0  0  0  0
 15 11  1  0  0  0  0
 16 28  1  0  0  0  0
 16  1  2  0  0  0  0
 17 25  1  0  0  0  0
 17  3  2  0  0  0  0
 18  9  2  0  0  0  0
 19 15  1  0  0  0  0
 20 16  1  0  0  0  0
 21  1  1  0  0  0  0
 22 21  2  0  0  0  0
 23 15  1  0  0  0  0
 24  5  1  0  0  0  0
 24 12  1  0  0  0  0
 25 19  1  0  0  0  0
 26 10  1  0  0  0  0
 26 24  1  0  0  0  0
 27  5  1  0  0  0  0
 28 12  1  0  0  0  0
M  END
>  <MODEL>
8

>  <REMARK>
 VINA RESULT:      -7.4      1.786      2.745
  Name = 
  0 active torsions:
  status: ('A' for Active; 'I' for Inactive)
                            x       y       z     vdW  Elec       q    Type
                         _______ _______ _______ _____ _____    ______ ____

>  <TORSDO>
F 0

$$$$
=
 OpenBabel11112417353D

 28 32  0  0  1  0  0  0  0  0999 V2000
  191.6650  175.8050  146.4840 C   0  0  0  0  0  0  0  0  0  0  0  0
  189.4110  174.0600  142.4120 O   0  0  0  0  0  0  0  0  0  0  0  0
  196.5880  172.6690  143.8660 O   0  0  0  0  0  0  0  0  0  0  0  0
  188.9270  175.2100  146.3830 C   0  0  0  0  0  3  0  0  0  0  0  0
  194.6350  171.5510  144.5430 N   0  0  0  0  0  0  0  0  0  0  0  0
  193.1030  176.1500  146.6680 C   0  0  0  0  0  2  0  0  0  0  0  0
  191.6740  174.1130  141.4250 O   0  0  0  0  0  0  0  0  0  0  0  0
  190.7110  173.3230  142.2660 S   0  0  0  0  0  0  0  0  0  0  0  0
  190.9570  170.5780  142.2090 C   0  0  0  0  0  0  0  0  0  0  0  0
  191.4040  172.9670  143.8540 C   0  0  1  0  0  3  0  0  0  0  0  0
  195.7300  176.7250  144.1080 O   0  0  0  0  0  1  0  0  0  0  0  0
  193.3480  173.4410  145.2170 C   0  0  1  0  0  3  0  0  0  0  0  0
  191.8280  170.6730  143.3090 O   0  0  0  0  0  0  0  0  0  0  0  0
  190.4430  171.7580  141.5670 N   0  0  0  0  0  2  0  0  0  0  0  0
  195.1940  176.3240  145.3320 C   0  0  2  0  0  3  0  0  0  0  0  0
  191.2050  174.8110  145.5750 C   0  0  0  0  0  0  0  0  0  0  0  0
  195.4090  172.7080  144.3110 C   0  0  0  0  0  0  0  0  0  0  0  0
  190.6120  169.4440  141.7900 O   0  0  0  0  0  0  0  0  0  0  0  0
  195.4470  174.8300  145.5530 C   0  0  0  0  0  2  0  0  0  0  0  0
  189.8200  174.5470  145.5410 C   0  0  0  0  0  3  0  0  0  0  0  0
  190.7580  176.4590  147.3270 C   0  0  0  0  0  3  0  0  0  0  0  0
  189.3970  176.1680  147.2770 C   0  0  0  0  0  3  0  0  0  0  0  0
  193.7150  176.6850  145.3860 C   0  0  0  0  0  2  0  0  0  0  0  0
  193.2780  171.9320  144.8780 C   0  0  1  0  0  3  0  0  0  0  0  0
  194.6630  173.9560  144.5810 C   0  0  2  0  0  3  0  0  0  0  0  0
  192.4380  171.9180  143.6260 C   0  0  2  0  0  3  0  0  0  0  0  0
  195.0490  170.1970  144.2110 C   0  0  0  0  0  1  0  0  0  0  0  0
  192.1210  174.1140  144.5640 C   0  0  2  0  0  3  0  0  0  0  0  0
  1  6  1  0  0  0  0
  1 21  1  0  0  0  0
  3 17  2  0  0  0  0
  4 22  1  0  0  0  0
  5 24  1  0  0  0  0
  7  8  2  0  0  0  0
  8  2  2  0  0  0  0
  9 13  1  0  0  0  0
 10  8  1  6  0  0  0
 10 28  1  0  0  0  0
 11 15  1  0  0  0  0
 13 26  1  0  0  0  0
 14  9  1  0  0  0  0
 14  8  1  0  0  0  0
 15 23  1  0  0  0  0
 15 19  1  0  0  0  0
 16  1  2  0  0  0  0
 17  5  1  0  0  0  0
 17 25  1  0  0  0  0
 18  9  2  0  0  0  0
 20 16  1  0  0  0  0
 20  4  2  0  0  0  0
 22 21  2  0  0  0  0
 23  6  1  0  0  0  0
 24 12  1  0  0  0  0
 25 12  1  0  0  0  0
 25 19  1  0  0  0  0
 26 10  1  0  0  0  0
 26 24  1  0  0  0  0
 27  5  1  0  0  0  0
 28 12  1  0  0  0  0
 28 16  1  0  0  0  0
M  END
>  <MODEL>
9

>  <REMARK>
 VINA RESULT:      -7.1      3.949      6.940
  Name = 
  0 active torsions:
  status: ('A' for Active; 'I' for Inactive)
                            x       y       z     vdW  Elec       q    Type
                         _______ _______ _______ _____ _____    ______ ____

>  <TORSDO>
F 0

$$$$
