=
 OpenBabel11112417433D

 34 41  0  0  1  0  0  0  0  0999 V2000
  188.2020  177.3410  146.1580 C   0  0  1  0  0  3  0  0  0  0  0  0
  190.0060  176.4550  147.4320 C   0  0  0  0  0  2  0  0  0  0  0  0
  184.7170  177.9410  140.5900 C   0  0  0  0  0  0  0  0  0  0  0  0
  186.5990  178.5800  144.6930 C   0  0  2  0  0  3  0  0  0  0  0  0
  186.4080  177.7360  142.2600 C   0  0  1  0  0  3  0  0  0  0  0  0
  186.5340  177.6800  139.7660 C   0  0  0  0  0  2  0  0  0  0  0  0
  185.2090  177.4170  139.3360 O   0  0  0  0  0  0  0  0  0  0  0  0
  183.3710  178.3190  142.5840 C   0  0  0  0  0  3  0  0  0  0  0  0
  190.0220  176.0040  145.1150 C   0  0  1  0  0  3  0  0  0  0  0  0
  192.5140  175.0810  143.4300 C   0  0  0  0  0  2  0  0  0  0  0  0
  187.8880  177.4830  142.4430 C   0  0  0  0  0  3  0  0  0  0  0  0
  184.3160  178.5900  143.5080 C   0  0  0  0  0  3  0  0  0  0  0  0
  189.8400  176.9800  143.9290 C   0  0  2  0  0  3  0  0  0  0  0  0
  191.3640  175.8910  147.1080 C   0  0  0  0  0  2  0  0  0  0  0  0
  185.8230  178.6580  143.3540 C   0  0  1  0  0  3  0  0  0  0  0  0
  183.5770  177.9390  141.2110 N   0  0  0  0  0  0  0  0  0  0  0  0
  192.3550  174.9900  144.9620 C   0  0  1  0  0  3  0  0  0  0  0  0
  187.4340  177.2960  144.8380 C   0  0  1  0  0  3  0  0  0  0  0  0
  186.0870  178.3830  140.9290 C   0  0  1  0  0  3  0  0  0  0  0  0
  188.3680  177.1960  143.6660 C   0  0  0  0  0  0  0  0  0  0  0  0
  185.8150  177.8850  147.0050 C   0  0  0  0  0  2  0  0  0  0  0  0
  192.0850  176.4260  142.8470 C   0  0  0  0  0  2  0  0  0  0  0  0
  185.8480  179.0070  145.9680 C   0  0  0  0  0  2  0  0  0  0  0  0
  190.5670  176.4680  142.6780 C   0  0  0  0  0  2  0  0  0  0  0  0
  191.4520  176.0480  145.6160 C   0  0  1  0  0  3  0  0  0  0  0  0
  187.2290  177.3850  147.3530 C   0  0  0  0  0  2  0  0  0  0  0  0
  189.1270  176.2050  146.2840 N   0  0  2  0  0  0  0  0  0  0  0  0
  192.1730  173.6770  145.4640 O   0  0  0  0  0  0  0  0  0  0  0  0
  192.5570  172.7370  144.4870 C   0  0  0  0  0  2  0  0  0  0  0  0
  189.2270  172.0170  143.6170 C   0  0  0  0  0  2  0  0  0  0  0  0
  191.3330  171.5940  142.6400 C   0  0  0  0  0  2  0  0  0  0  0  0
  191.3990  171.8130  144.1340 C   0  0  2  0  0  3  0  0  0  0  0  0
  189.9230  171.9260  142.2780 C   0  0  0  0  0  2  0  0  0  0  0  0
  190.1820  172.3490  144.5910 O   0  0  0  0  0  0  0  0  0  0  0  0
  1 27  1  0  0  0  0
  1 26  1  1  0  0  0
  3 19  1  0  0  0  0
  3 16  2  0  0  0  0
  4 18  1  0  0  0  0
  4 23  1  1  0  0  0
  5 11  1  1  0  0  0
  5 15  1  0  0  0  0
  6 19  1  0  0  0  0
  7  6  1  0  0  0  0
  7  3  1  0  0  0  0
  8 12  2  0  0  0  0
  9 25  1  0  0  0  0
  9 27  1  0  0  0  0
 10 17  1  0  0  0  0
 11 20  2  0  0  0  0
 13  9  1  0  0  0  0
 14  2  1  0  0  0  0
 15 12  1  0  0  0  0
 15  4  1  0  0  0  0
 16  8  1  0  0  0  0
 17 28  1  0  0  0  0
 17 25  1  0  0  0  0
 18  1  1  0  0  0  0
 19  5  1  0  0  0  0
 20 13  1  0  0  0  0
 20 18  1  0  0  0  0
 21 26  1  0  0  0  0
 22 10  1  0  0  0  0
 23 21  1  0  0  0  0
 24 22  1  0  0  0  0
 24 13  1  0  0  0  0
 25 14  1  0  0  0  0
 27  2  1  0  0  0  0
 29 28  1  0  0  0  0
 30 34  1  0  0  0  0
 31 32  1  0  0  0  0
 32 29  1  0  0  0  0
 32 34  1  0  0  0  0
 33 31  1  0  0  0  0
 33 30  1  0  0  0  0
M  END
>  <MODEL>
1

>  <REMARK>
 VINA RESULT:      -8.9      0.000      0.000
  Name = 
  3 active torsions:
  status: ('A' for Active; 'I' for Inactive)
    1  A    between atoms: C_17  and  O_28
    2  A    between atoms: O_28  and  C_29
    3  A    between atoms: C_29  and  C_32
                            x       y       z     vdW  Elec       q    Type
                         _______ _______ _______ _____ _____    ______ ____

>  <TORSDO>
F 3

$$$$
=
 OpenBabel11112417433D

 34 41  0  0  1  0  0  0  0  0999 V2000
  191.6230  176.1080  145.7850 C   0  0  1  0  0  3  0  0  0  0  0  0
  189.4510  176.4850  146.6820 C   0  0  0  0  0  2  0  0  0  0  0  0
  195.8710  175.6190  140.7630 C   0  0  0  0  0  0  0  0  0  0  0  0
  193.7690  175.2930  144.7950 C   0  0  2  0  0  3  0  0  0  0  0  0
  193.9950  175.5320  142.2340 C   0  0  1  0  0  3  0  0  0  0  0  0
  194.2300  174.9340  139.8200 C   0  0  0  0  0  2  0  0  0  0  0  0
  195.4130  175.5870  139.3920 O   0  0  0  0  0  0  0  0  0  0  0  0
  196.9480  176.2950  142.8390 C   0  0  0  0  0  3  0  0  0  0  0  0
  189.6150  176.3230  144.3320 C   0  0  1  0  0  3  0  0  0  0  0  0
  187.2400  175.7500  142.3500 C   0  0  0  0  0  2  0  0  0  0  0  0
  192.5170  175.2140  142.2750 C   0  0  0  0  0  3  0  0  0  0  0  0
  196.0430  175.9030  143.7610 C   0  0  0  0  0  3  0  0  0  0  0  0
  190.3200  175.2450  143.4750 C   0  0  2  0  0  3  0  0  0  0  0  0
  188.0450  176.3690  146.1540 C   0  0  0  0  0  2  0  0  0  0  0  0
  194.7090  175.2090  143.5660 C   0  0  1  0  0  3  0  0  0  0  0  0
  196.8240  176.2220  141.4070 N   0  0  0  0  0  0  0  0  0  0  0  0
  187.1230  176.2610  143.8010 C   0  0  1  0  0  3  0  0  0  0  0  0
  192.5080  176.1350  144.5390 C   0  0  1  0  0  3  0  0  0  0  0  0
  194.7270  174.7670  141.1520 C   0  0  1  0  0  3  0  0  0  0  0  0
  191.7880  175.5730  143.3470 C   0  0  0  0  0  0  0  0  0  0  0  0
  193.8870  176.7740  146.8530 C   0  0  0  0  0  2  0  0  0  0  0  0
  188.2160  174.5870  142.1850 C   0  0  0  0  0  2  0  0  0  0  0  0
  194.4260  175.5180  146.1700 C   0  0  0  0  0  2  0  0  0  0  0  0
  189.6490  175.1110  142.1000 C   0  0  0  0  0  2  0  0  0  0  0  0
  188.2450  175.8380  144.7630 C   0  0  1  0  0  3  0  0  0  0  0  0
  192.3540  176.7410  146.9860 C   0  0  0  0  0  2  0  0  0  0  0  0
  190.3360  176.7790  145.5490 N   0  0  2  0  0  0  0  0  0  0  0  0
  186.7310  177.6170  143.9240 O   0  0  0  0  0  0  0  0  0  0  0  0
  185.3320  177.7220  143.7900 C   0  0  0  0  0  2  0  0  0  0  0  0
  184.7800  178.1480  147.2360 C   0  0  0  0  0  2  0  0  0  0  0  0
  185.6010  179.5180  145.4980 C   0  0  0  0  0  2  0  0  0  0  0  0
  184.7160  178.3950  145.0080 C   0  0  2  0  0  3  0  0  0  0  0  0
  185.7970  179.2290  146.9510 C   0  0  0  0  0  2  0  0  0  0  0  0
  184.5160  177.4610  146.0400 O   0  0  0  0  0  0  0  0  0  0  0  0
  1 26  1  1  0  0  0
  3 19  1  0  0  0  0
  3 16  2  0  0  0  0
  4 23  1  1  0  0  0
  5 11  1  1  0  0  0
  5 15  1  0  0  0  0
  6 19  1  0  0  0  0
  7  6  1  0  0  0  0
  7  3  1  0  0  0  0
  8 12  2  0  0  0  0
  9 25  1  0  0  0  0
  9 27  1  0  0  0  0
 10 17  1  0  0  0  0
 11 20  2  0  0  0  0
 13  9  1  0  0  0  0
 14  2  1  0  0  0  0
 15 12  1  0  0  0  0
 15  4  1  0  0  0  0
 16  8  1  0  0  0  0
 17 28  1  0  0  0  0
 17 25  1  0  0  0  0
 18  4  1  0  0  0  0
 18  1  1  0  0  0  0
 19  5  1  0  0  0  0
 20 13  1  0  0  0  0
 20 18  1  0  0  0  0
 21 26  1  0  0  0  0
 22 10  1  0  0  0  0
 23 21  1  0  0  0  0
 24 22  1  0  0  0  0
 24 13  1  0  0  0  0
 25 14  1  0  0  0  0
 27  1  1  0  0  0  0
 27  2  1  0  0  0  0
 29 28  1  0  0  0  0
 29 32  1  0  0  0  0
 31 33  1  0  0  0  0
 32 31  1  0  0  0  0
 32 34  1  0  0  0  0
 33 30  1  0  0  0  0
 34 30  1  0  0  0  0
M  END
>  <MODEL>
2

>  <REMARK>
 VINA RESULT:      -8.9      3.188      7.732
  Name = 
  3 active torsions:
  status: ('A' for Active; 'I' for Inactive)
    1  A    between atoms: C_17  and  O_28
    2  A    between atoms: O_28  and  C_29
    3  A    between atoms: C_29  and  C_32
                            x       y       z     vdW  Elec       q    Type
                         _______ _______ _______ _____ _____    ______ ____

>  <TORSDO>
F 3

$$$$
=
 OpenBabel11112417433D

 34 41  0  0  1  0  0  0  0  0999 V2000
  189.5410  175.5480  142.7790 C   0  0  1  0  0  3  0  0  0  0  0  0
  191.6930  174.7870  142.1080 C   0  0  0  0  0  2  0  0  0  0  0  0
  185.5280  179.0480  146.6720 C   0  0  0  0  0  0  0  0  0  0  0  0
  187.2910  176.0070  143.7690 C   0  0  2  0  0  3  0  0  0  0  0  0
  187.2420  177.6780  145.7370 C   0  0  1  0  0  3  0  0  0  0  0  0
  186.9400  178.6070  148.0360 C   0  0  0  0  0  2  0  0  0  0  0  0
  186.0110  179.6660  147.8860 O   0  0  0  0  0  0  0  0  0  0  0  0
  184.6090  178.7060  144.4430 C   0  0  0  0  0  3  0  0  0  0  0  0
  191.5810  176.0060  144.1260 C   0  0  1  0  0  3  0  0  0  0  0  0
  193.7690  176.0430  146.3870 C   0  0  0  0  0  2  0  0  0  0  0  0
  188.5660  177.0230  146.0640 C   0  0  0  0  0  3  0  0  0  0  0  0
  185.3270  177.6500  144.0060 C   0  0  0  0  0  3  0  0  0  0  0  0
  190.6320  175.8130  145.3320 C   0  0  2  0  0  3  0  0  0  0  0  0
  193.0270  174.6260  142.7880 C   0  0  0  0  0  2  0  0  0  0  0  0
  186.4140  176.8660  144.7140 C   0  0  1  0  0  3  0  0  0  0  0  0
  184.7620  179.4120  145.6880 N   0  0  0  0  0  0  0  0  0  0  0  0
  193.9700  175.6100  144.9190 C   0  0  1  0  0  3  0  0  0  0  0  0
  188.7490  176.4890  143.6860 C   0  0  1  0  0  3  0  0  0  0  0  0
  186.3650  177.8630  146.9570 C   0  0  1  0  0  3  0  0  0  0  0  0
  189.3240  176.5220  145.0730 C   0  0  0  0  0  0  0  0  0  0  0  0
  187.5210  176.0640  141.2420 C   0  0  0  0  0  2  0  0  0  0  0  0
  192.5090  175.4680  147.0290 C   0  0  0  0  0  2  0  0  0  0  0  0
  186.6730  175.5900  142.4210 C   0  0  0  0  0  2  0  0  0  0  0  0
  191.2890  176.2980  146.6330 C   0  0  0  0  0  2  0  0  0  0  0  0
  192.7380  175.0310  144.2060 C   0  0  1  0  0  3  0  0  0  0  0  0
  188.9750  175.5690  141.3450 C   0  0  0  0  0  2  0  0  0  0  0  0
  190.9730  175.8770  142.7760 N   0  0  2  0  0  0  0  0  0  0  0  0
  194.7280  176.5130  144.1320 O   0  0  0  0  0  0  0  0  0  0  0  0
  196.1010  176.2260  144.2680 C   0  0  0  0  0  2  0  0  0  0  0  0
  197.9000  175.4430  141.3510 C   0  0  0  0  0  2  0  0  0  0  0  0
  195.9120  176.6270  141.8150 C   0  0  0  0  0  2  0  0  0  0  0  0
  196.8580  176.5620  142.9910 C   0  0  2  0  0  3  0  0  0  0  0  0
  196.5200  175.7170  140.7980 C   0  0  0  0  0  2  0  0  0  0  0  0
  197.8600  175.6060  142.7450 O   0  0  0  0  0  0  0  0  0  0  0  0
  1 26  1  6  0  0  0
  1 18  1  0  0  0  0
  2 27  1  0  0  0  0
  2 14  1  0  0  0  0
  3 19  1  0  0  0  0
  3  7  1  0  0  0  0
  4 23  1  6  0  0  0
  4 15  1  0  0  0  0
  5 11  1  1  0  0  0
  5 19  1  0  0  0  0
  7  6  1  0  0  0  0
  8 16  1  0  0  0  0
  9 25  1  0  0  0  0
  9 13  1  0  0  0  0
 10 22  1  0  0  0  0
 12  8  2  0  0  0  0
 12 15  1  0  0  0  0
 13 24  1  0  0  0  0
 14 25  1  0  0  0  0
 15  5  1  0  0  0  0
 16  3  2  0  0  0  0
 17 10  1  0  0  0  0
 18  4  1  0  0  0  0
 18 20  1  0  0  0  0
 19  6  1  0  0  0  0
 20 13  1  0  0  0  0
 20 11  2  0  0  0  0
 21 26  1  0  0  0  0
 21 23  1  0  0  0  0
 24 22  1  0  0  0  0
 25 17  1  0  0  0  0
 27  1  1  0  0  0  0
 27  9  1  0  0  0  0
 28 29  1  0  0  0  0
 28 17  1  0  0  0  0
 30 34  1  0  0  0  0
 31 32  1  0  0  0  0
 32 29  1  0  0  0  0
 33 30  1  0  0  0  0
 33 31  1  0  0  0  0
 34 32  1  0  0  0  0
M  END
>  <MODEL>
3

>  <REMARK>
 VINA RESULT:      -8.8      3.119      5.218
  Name = 
  3 active torsions:
  status: ('A' for Active; 'I' for Inactive)
    1  A    between atoms: C_17  and  O_28
    2  A    between atoms: O_28  and  C_29
    3  A    between atoms: C_29  and  C_32
                            x       y       z     vdW  Elec       q    Type
                         _______ _______ _______ _____ _____    ______ ____

>  <TORSDO>
F 3

$$$$
=
 OpenBabel11112417433D

 34 41  0  0  1  0  0  0  0  0999 V2000
  188.4860  176.8490  146.1030 C   0  0  1  0  0  3  0  0  0  0  0  0
  190.2690  175.7960  147.2740 C   0  0  0  0  0  2  0  0  0  0  0  0
  184.8910  177.9450  140.6820 C   0  0  0  0  0  0  0  0  0  0  0  0
  186.9180  178.2540  144.7540 C   0  0  2  0  0  3  0  0  0  0  0  0
  186.6120  177.5550  142.2870 C   0  0  1  0  0  3  0  0  0  0  0  0
  186.6660  177.6260  139.7910 C   0  0  0  0  0  2  0  0  0  0  0  0
  185.3170  177.4630  139.3880 O   0  0  0  0  0  0  0  0  0  0  0  0
  183.6240  178.2910  142.7340 C   0  0  0  0  0  3  0  0  0  0  0  0
  190.1950  175.4700  144.9370 C   0  0  1  0  0  3  0  0  0  0  0  0
  192.5820  174.4990  143.1310 C   0  0  0  0  0  2  0  0  0  0  0  0
  188.0790  177.2090  142.4120 C   0  0  0  0  0  3  0  0  0  0  0  0
  184.6080  178.4580  143.6420 C   0  0  0  0  0  3  0  0  0  0  0  0
  190.0380  176.5170  143.8100 C   0  0  2  0  0  3  0  0  0  0  0  0
  191.5830  175.1740  146.8800 C   0  0  0  0  0  2  0  0  0  0  0  0
  186.1120  178.4490  143.4450 C   0  0  1  0  0  3  0  0  0  0  0  0
  183.7690  177.9740  141.3370 N   0  0  0  0  0  0  0  0  0  0  0  0
  192.4610  174.3350  144.6610 C   0  0  1  0  0  3  0  0  0  0  0  0
  187.6800  176.9190  144.8060 C   0  0  1  0  0  3  0  0  0  0  0  0
  186.2930  178.2900  141.0030 C   0  0  1  0  0  3  0  0  0  0  0  0
  188.5750  176.8300  143.6030 C   0  0  0  0  0  0  0  0  0  0  0  0
  186.1590  177.4820  147.0500 C   0  0  0  0  0  2  0  0  0  0  0  0
  192.2170  175.8950  142.6330 C   0  0  0  0  0  2  0  0  0  0  0  0
  186.2280  178.6540  146.0720 C   0  0  0  0  0  2  0  0  0  0  0  0
  190.7000  176.0320  142.5120 C   0  0  0  0  0  2  0  0  0  0  0  0
  191.6380  175.4050  145.3960 C   0  0  1  0  0  3  0  0  0  0  0  0
  187.5500  176.8840  147.3280 C   0  0  0  0  0  2  0  0  0  0  0  0
  189.3460  175.6580  146.1420 N   0  0  2  0  0  0  0  0  0  0  0  0
  192.2160  173.0090  145.0980 O   0  0  0  0  0  0  0  0  0  0  0  0
  193.2420  172.1600  144.6400 C   0  0  0  0  0  2  0  0  0  0  0  0
  195.9400  170.4760  146.1380 C   0  0  0  0  0  2  0  0  0  0  0  0
  195.5600  172.6830  145.3940 C   0  0  0  0  0  2  0  0  0  0  0  0
  194.2890  171.9340  145.7220 C   0  0  2  0  0  3  0  0  0  0  0  0
  196.6340  171.6480  145.4830 C   0  0  0  0  0  2  0  0  0  0  0  0
  194.5660  170.5620  145.8630 O   0  0  0  0  0  0  0  0  0  0  0  0
  1 27  1  0  0  0  0
  1 26  1  1  0  0  0
  3 19  1  0  0  0  0
  3 16  2  0  0  0  0
  4 18  1  0  0  0  0
  4 23  1  1  0  0  0
  5 11  1  1  0  0  0
  5 15  1  0  0  0  0
  6 19  1  0  0  0  0
  7  6  1  0  0  0  0
  7  3  1  0  0  0  0
  8 12  2  0  0  0  0
  9 25  1  0  0  0  0
  9 27  1  0  0  0  0
 10 17  1  0  0  0  0
 11 20  2  0  0  0  0
 13  9  1  0  0  0  0
 14  2  1  0  0  0  0
 15 12  1  0  0  0  0
 15  4  1  0  0  0  0
 16  8  1  0  0  0  0
 17 28  1  0  0  0  0
 17 25  1  0  0  0  0
 18  1  1  0  0  0  0
 19  5  1  0  0  0  0
 20 13  1  0  0  0  0
 20 18  1  0  0  0  0
 21 26  1  0  0  0  0
 22 10  1  0  0  0  0
 23 21  1  0  0  0  0
 24 22  1  0  0  0  0
 24 13  1  0  0  0  0
 25 14  1  0  0  0  0
 27  2  1  0  0  0  0
 29 28  1  0  0  0  0
 29 32  1  0  0  0  0
 31 33  1  0  0  0  0
 31 32  1  0  0  0  0
 32 34  1  0  0  0  0
 33 30  1  0  0  0  0
 34 30  1  0  0  0  0
M  END
>  <MODEL>
4

>  <REMARK>
 VINA RESULT:      -8.6      1.503      2.294
  Name = 
  3 active torsions:
  status: ('A' for Active; 'I' for Inactive)
    1  A    between atoms: C_17  and  O_28
    2  A    between atoms: O_28  and  C_29
    3  A    between atoms: C_29  and  C_32
                            x       y       z     vdW  Elec       q    Type
                         _______ _______ _______ _____ _____    ______ ____

>  <TORSDO>
F 3

$$$$
=
 OpenBabel11112417433D

 34 41  0  0  1  0  0  0  0  0999 V2000
  192.3260  176.1890  146.1580 C   0  0  1  0  0  3  0  0  0  0  0  0
  194.5680  175.4180  146.3550 C   0  0  0  0  0  2  0  0  0  0  0  0
  186.7190  177.0680  142.7970 C   0  0  0  0  0  0  0  0  0  0  0  0
  190.1530  177.3660  145.7810 C   0  0  2  0  0  3  0  0  0  0  0  0
  188.9810  176.8830  143.5310 C   0  0  1  0  0  3  0  0  0  0  0  0
  188.0050  177.2270  141.2580 C   0  0  0  0  0  2  0  0  0  0  0  0
  186.6510  176.8260  141.3740 O   0  0  0  0  0  0  0  0  0  0  0  0
  186.3580  176.9200  145.2010 C   0  0  0  0  0  3  0  0  0  0  0  0
  193.6020  175.3320  144.2030 C   0  0  1  0  0  3  0  0  0  0  0  0
  195.1660  175.0830  141.4840 C   0  0  0  0  0  2  0  0  0  0  0  0
  190.4060  176.8430  143.0270 C   0  0  0  0  0  3  0  0  0  0  0  0
  187.5880  177.1940  145.6830 C   0  0  0  0  0  3  0  0  0  0  0  0
  192.8440  176.4360  143.4280 C   0  0  2  0  0  3  0  0  0  0  0  0
  195.6860  175.1320  145.3880 C   0  0  0  0  0  2  0  0  0  0  0  0
  188.8650  177.5230  144.9340 C   0  0  1  0  0  3  0  0  0  0  0  0
  185.9700  176.7900  143.8210 N   0  0  0  0  0  0  0  0  0  0  0  0
  195.7030  174.7360  142.8890 C   0  0  1  0  0  3  0  0  0  0  0  0
  191.0630  176.2240  145.2990 C   0  0  1  0  0  3  0  0  0  0  0  0
  188.0600  177.6650  142.6190 C   0  0  1  0  0  3  0  0  0  0  0  0
  191.3940  176.4530  143.8510 C   0  0  0  0  0  0  0  0  0  0  0  0
  190.5170  176.2130  148.0130 C   0  0  0  0  0  2  0  0  0  0  0  0
  194.4230  176.4160  141.4230 C   0  0  0  0  0  2  0  0  0  0  0  0
  190.0050  177.4700  147.3110 C   0  0  0  0  0  2  0  0  0  0  0  0
  192.9870  176.2410  141.9120 C   0  0  0  0  0  2  0  0  0  0  0  0
  195.0990  175.5250  144.0620 C   0  0  1  0  0  3  0  0  0  0  0  0
  191.9740  175.8960  147.6310 C   0  0  0  0  0  2  0  0  0  0  0  0
  193.2970  175.2080  145.6520 N   0  0  2  0  0  0  0  0  0  0  0  0
  195.8610  173.3500  143.1390 O   0  0  0  0  0  0  0  0  0  0  0  0
  195.2600  172.6080  142.1040 C   0  0  0  0  0  2  0  0  0  0  0  0
  192.7200  171.7990  144.3960 C   0  0  0  0  0  2  0  0  0  0  0  0
  192.7890  172.2770  142.0860 C   0  0  0  0  0  2  0  0  0  0  0  0
  194.1040  171.7700  142.6330 C   0  0  2  0  0  3  0  0  0  0  0  0
  191.9380  172.4800  143.2970 C   0  0  0  0  0  2  0  0  0  0  0  0
  194.0780  171.7960  144.0390 O   0  0  0  0  0  0  0  0  0  0  0  0
  1 26  1  1  0  0  0
  3 16  2  0  0  0  0
  4 23  1  1  0  0  0
  5 11  1  6  0  0  0
  5 15  1  0  0  0  0
  6  7  1  0  0  0  0
  6 19  1  0  0  0  0
  7  3  1  0  0  0  0
  8 12  2  0  0  0  0
  9 27  1  0  0  0  0
 10 17  1  0  0  0  0
 11 20  2  0  0  0  0
 13 20  1  0  0  0  0
 13  9  1  0  0  0  0
 14  2  1  0  0  0  0
 15 12  1  0  0  0  0
 15  4  1  0  0  0  0
 16  8  1  0  0  0  0
 17 28  1  0  0  0  0
 17 25  1  0  0  0  0
 18  4  1  0  0  0  0
 18  1  1  0  0  0  0
 19  3  1  0  0  0  0
 19  5  1  0  0  0  0
 20 18  1  0  0  0  0
 22 10  1  0  0  0  0
 22 24  1  0  0  0  0
 23 21  1  0  0  0  0
 24 13  1  0  0  0  0
 25  9  1  0  0  0  0
 25 14  1  0  0  0  0
 26 21  1  0  0  0  0
 27  1  1  0  0  0  0
 27  2  1  0  0  0  0
 29 32  1  0  0  0  0
 29 28  1  0  0  0  0
 31 32  1  0  0  0  0
 31 33  1  0  0  0  0
 32 34  1  0  0  0  0
 33 30  1  0  0  0  0
 34 30  1  0  0  0  0
M  END
>  <MODEL>
5

>  <REMARK>
 VINA RESULT:      -7.8      2.211      3.674
  Name = 
  3 active torsions:
  status: ('A' for Active; 'I' for Inactive)
    1  A    between atoms: C_17  and  O_28
    2  A    between atoms: O_28  and  C_29
    3  A    between atoms: C_29  and  C_32
                            x       y       z     vdW  Elec       q    Type
                         _______ _______ _______ _____ _____    ______ ____

>  <TORSDO>
F 3

$$$$
=
 OpenBabel11112417433D

 34 41  0  0  1  0  0  0  0  0999 V2000
  190.6860  172.7060  142.4600 C   0  0  1  0  0  3  0  0  0  0  0  0
  188.5330  173.6510  142.0960 C   0  0  0  0  0  2  0  0  0  0  0  0
  196.4860  172.4010  145.5880 C   0  0  0  0  0  0  0  0  0  0  0  0
  193.0910  172.0310  142.5670 C   0  0  2  0  0  3  0  0  0  0  0  0
  194.4680  173.0560  144.4960 C   0  0  1  0  0  3  0  0  0  0  0  0
  196.1940  174.3880  145.7140 C   0  0  0  0  0  2  0  0  0  0  0  0
  196.9040  173.4440  146.4970 O   0  0  0  0  0  0  0  0  0  0  0  0
  195.8000  170.2510  144.6730 C   0  0  0  0  0  3  0  0  0  0  0  0
  189.9580  174.8000  143.5870 C   0  0  1  0  0  3  0  0  0  0  0  0
  189.6490  177.7960  144.4980 C   0  0  0  0  0  2  0  0  0  0  0  0
  193.5890  174.2550  144.2200 C   0  0  0  0  0  3  0  0  0  0  0  0
  194.8920  170.6220  143.7460 C   0  0  0  0  0  3  0  0  0  0  0  0
  191.4330  175.2250  143.3950 C   0  0  2  0  0  3  0  0  0  0  0  0
  187.9000  174.9920  142.3560 C   0  0  0  0  0  2  0  0  0  0  0  0
  194.4240  172.0110  143.3580 C   0  0  1  0  0  3  0  0  0  0  0  0
  196.5010  171.1020  145.5970 N   0  0  0  0  0  0  0  0  0  0  0  0
  188.5520  176.9060  143.8760 C   0  0  1  0  0  3  0  0  0  0  0  0
  191.9340  172.6840  143.3420 C   0  0  1  0  0  3  0  0  0  0  0  0
  195.9220  173.4290  144.6870 C   0  0  1  0  0  3  0  0  0  0  0  0
  192.3460  174.0720  143.7390 C   0  0  0  0  0  0  0  0  0  0  0  0
  191.3510  170.2120  142.2410 C   0  0  0  0  0  2  0  0  0  0  0  0
  190.9910  177.7120  143.7740 C   0  0  0  0  0  2  0  0  0  0  0  0
  192.7100  170.7510  141.7980 C   0  0  0  0  0  2  0  0  0  0  0  0
  191.7590  176.4720  144.2300 C   0  0  0  0  0  2  0  0  0  0  0  0
  189.0330  175.8000  142.9230 C   0  0  1  0  0  3  0  0  0  0  0  0
  190.2420  171.2720  142.1080 C   0  0  0  0  0  2  0  0  0  0  0  0
  189.5880  173.4470  143.0960 N   0  0  2  0  0  0  0  0  0  0  0  0
  187.5370  176.4990  144.7770 O   0  0  0  0  0  0  0  0  0  0  0  0
  187.8920  176.8610  146.0910 C   0  0  0  0  0  2  0  0  0  0  0  0
  185.2400  178.7380  147.4330 C   0  0  0  0  0  2  0  0  0  0  0  0
  185.4030  176.7520  146.1700 C   0  0  0  0  0  2  0  0  0  0  0  0
  186.6560  177.0670  146.9550 C   0  0  2  0  0  3  0  0  0  0  0  0
  184.5460  177.9640  146.3370 C   0  0  0  0  0  2  0  0  0  0  0  0
  186.6000  178.3890  147.4310 O   0  0  0  0  0  0  0  0  0  0  0  0
  1 26  1  1  0  0  0
  1 27  1  0  0  0  0
  1 18  1  0  0  0  0
  2 14  1  0  0  0  0
  2 27  1  0  0  0  0
  3 16  2  0  0  0  0
  3  7  1  0  0  0  0
  4 23  1  1  0  0  0
  4 18  1  0  0  0  0
  4 15  1  0  0  0  0
  5 11  1  6  0  0  0
  5 19  1  0  0  0  0
  6  7  1  0  0  0  0
  8 16  1  0  0  0  0
 12  8  2  0  0  0  0
 13  9  1  0  0  0  0
 13 20  1  0  0  0  0
 13 24  1  0  0  0  0
 14 25  1  0  0  0  0
 15 12  1  0  0  0  0
 15  5  1  0  0  0  0
 17 10  1  0  0  0  0
 17 28  1  0  0  0  0
 18 20  1  0  0  0  0
 19  3  1  0  0  0  0
 19  6  1  0  0  0  0
 20 11  2  0  0  0  0
 22 24  1  0  0  0  0
 22 10  1  0  0  0  0
 23 21  1  0  0  0  0
 25  9  1  0  0  0  0
 25 17  1  0  0  0  0
 26 21  1  0  0  0  0
 27  9  1  0  0  0  0
 28 29  1  0  0  0  0
 29 32  1  0  0  0  0
 31 33  1  0  0  0  0
 31 32  1  0  0  0  0
 32 34  1  0  0  0  0
 33 30  1  0  0  0  0
 34 30  1  0  0  0  0
M  END
>  <MODEL>
6

>  <REMARK>
 VINA RESULT:      -7.8      3.118      8.840
  Name = 
  3 active torsions:
  status: ('A' for Active; 'I' for Inactive)
    1  A    between atoms: C_17  and  O_28
    2  A    between atoms: O_28  and  C_29
    3  A    between atoms: C_29  and  C_32
                            x       y       z     vdW  Elec       q    Type
                         _______ _______ _______ _____ _____    ______ ____

>  <TORSDO>
F 3

$$$$
=
 OpenBabel11112417433D

 34 41  0  0  1  0  0  0  0  0999 V2000
  189.5240  175.0480  144.9140 C   0  0  1  0  0  3  0  0  0  0  0  0
  191.0780  173.2470  144.9690 C   0  0  0  0  0  2  0  0  0  0  0  0
  184.5990  178.4380  142.1290 C   0  0  0  0  0  0  0  0  0  0  0  0
  188.1980  177.1450  144.6110 C   0  0  2  0  0  3  0  0  0  0  0  0
  186.5580  177.1680  142.6160 C   0  0  1  0  0  3  0  0  0  0  0  0
  185.4920  177.7920  140.4460 C   0  0  0  0  0  2  0  0  0  0  0  0
  184.1640  178.1590  140.7790 O   0  0  0  0  0  0  0  0  0  0  0  0
  184.6520  178.6800  144.5520 C   0  0  0  0  0  3  0  0  0  0  0  0
  189.8280  173.5100  142.9830 C   0  0  1  0  0  3  0  0  0  0  0  0
  190.5430  172.2830  140.1750 C   0  0  0  0  0  2  0  0  0  0  0  0
  187.6570  176.3590  141.9620 C   0  0  0  0  0  3  0  0  0  0  0  0
  185.9190  178.3150  144.8380 C   0  0  0  0  0  3  0  0  0  0  0  0
  189.5950  174.7840  142.1380 C   0  0  2  0  0  3  0  0  0  0  0  0
  191.7110  172.3530  143.9350 C   0  0  0  0  0  2  0  0  0  0  0  0
  187.0310  177.8800  143.9040 C   0  0  1  0  0  3  0  0  0  0  0  0
  184.0090  178.6650  143.2640 N   0  0  0  0  0  0  0  0  0  0  0  0
  191.0780  171.8170  141.5450 C   0  0  1  0  0  3  0  0  0  0  0  0
  188.3150  175.6640  144.2120 C   0  0  1  0  0  3  0  0  0  0  0  0
  186.0020  178.2410  141.7050 C   0  0  1  0  0  3  0  0  0  0  0  0
  188.4490  175.5790  142.7180 C   0  0  0  0  0  0  0  0  0  0  0  0
  188.3350  176.1430  146.9390 C   0  0  0  0  0  2  0  0  0  0  0  0
  190.5640  173.7990  139.9910 C   0  0  0  0  0  2  0  0  0  0  0  0
  188.4000  177.4260  146.1120 C   0  0  0  0  0  2  0  0  0  0  0  0
  189.3470  174.4290  140.6650 C   0  0  0  0  0  2  0  0  0  0  0  0
  191.1690  172.8910  142.6410 C   0  0  1  0  0  3  0  0  0  0  0  0
  189.3450  175.0910  146.4450 C   0  0  0  0  0  2  0  0  0  0  0  0
  189.7690  173.6710  144.4600 N   0  0  2  0  0  0  0  0  0  0  0  0
  190.5680  170.5720  141.9900 O   0  0  0  0  0  0  0  0  0  0  0  0
  190.8250  169.5800  141.0240 C   0  0  0  0  0  2  0  0  0  0  0  0
  194.2690  169.1860  141.6110 C   0  0  0  0  0  2  0  0  0  0  0  0
  192.3100  168.7980  142.8680 C   0  0  0  0  0  2  0  0  0  0  0  0
  192.0750  168.7860  141.3750 C   0  0  2  0  0  3  0  0  0  0  0  0
  193.7230  169.2590  143.0180 C   0  0  0  0  0  2  0  0  0  0  0  0
  193.1980  169.3130  140.7120 O   0  0  0  0  0  0  0  0  0  0  0  0
  1 26  1  1  0  0  0
  3 16  2  0  0  0  0
  4 23  1  1  0  0  0
  5 11  1  6  0  0  0
  5 15  1  0  0  0  0
  6  7  1  0  0  0  0
  6 19  1  0  0  0  0
  7  3  1  0  0  0  0
  8 12  2  0  0  0  0
  9 27  1  0  0  0  0
 10 17  1  0  0  0  0
 11 20  2  0  0  0  0
 13 20  1  0  0  0  0
 13  9  1  0  0  0  0
 14  2  1  0  0  0  0
 15  4  1  0  0  0  0
 15 12  1  0  0  0  0
 16  8  1  0  0  0  0
 17 28  1  0  0  0  0
 17 25  1  0  0  0  0
 18  4  1  0  0  0  0
 18  1  1  0  0  0  0
 19  3  1  0  0  0  0
 19  5  1  0  0  0  0
 20 18  1  0  0  0  0
 22 10  1  0  0  0  0
 22 24  1  0  0  0  0
 23 21  1  0  0  0  0
 24 13  1  0  0  0  0
 25  9  1  0  0  0  0
 25 14  1  0  0  0  0
 26 21  1  0  0  0  0
 27  1  1  0  0  0  0
 27  2  1  0  0  0  0
 29 32  1  0  0  0  0
 29 28  1  0  0  0  0
 30 33  1  0  0  0  0
 31 33  1  0  0  0  0
 32 31  1  0  0  0  0
 34 32  1  0  0  0  0
 34 30  1  0  0  0  0
M  END
>  <MODEL>
7

>  <REMARK>
 VINA RESULT:      -7.7      2.253      3.458
  Name = 
  3 active torsions:
  status: ('A' for Active; 'I' for Inactive)
    1  A    between atoms: C_17  and  O_28
    2  A    between atoms: O_28  and  C_29
    3  A    between atoms: C_29  and  C_32
                            x       y       z     vdW  Elec       q    Type
                         _______ _______ _______ _____ _____    ______ ____

>  <TORSDO>
F 3

$$$$
=
 OpenBabel11112417433D

 34 41  0  0  1  0  0  0  0  0999 V2000
  189.1140  174.4850  140.8750 C   0  0  1  0  0  3  0  0  0  0  0  0
  188.0570  176.5820  141.2550 C   0  0  0  0  0  2  0  0  0  0  0  0
  192.3160  169.0940  142.9240 C   0  0  0  0  0  0  0  0  0  0  0  0
  190.5990  172.5180  140.4520 C   0  0  2  0  0  3  0  0  0  0  0  0
  191.4830  171.2980  142.5490 C   0  0  1  0  0  3  0  0  0  0  0  0
  193.0580  170.3980  144.2660 C   0  0  0  0  0  2  0  0  0  0  0  0
  192.8390  168.9970  144.2680 O   0  0  0  0  0  0  0  0  0  0  0  0
  191.0210  168.7030  140.8990 C   0  0  0  0  0  3  0  0  0  0  0  0
  189.2030  175.6250  143.0840 C   0  0  1  0  0  3  0  0  0  0  0  0
  190.1580  177.1470  145.6670 C   0  0  0  0  0  2  0  0  0  0  0  0
  191.5140  172.7030  143.1080 C   0  0  0  0  0  3  0  0  0  0  0  0
  190.8450  169.9580  140.4360 C   0  0  0  0  0  3  0  0  0  0  0  0
  190.6370  175.0480  143.1430 C   0  0  2  0  0  3  0  0  0  0  0  0
  188.1540  177.6490  142.3140 C   0  0  0  0  0  2  0  0  0  0  0  0
  191.3340  171.2740  141.0100 C   0  0  1  0  0  3  0  0  0  0  0  0
  191.6610  168.3060  142.1260 N   0  0  0  0  0  0  0  0  0  0  0  0
  189.0790  177.6180  144.6680 C   0  0  1  0  0  3  0  0  0  0  0  0
  189.7480  173.2460  141.5070 C   0  0  1  0  0  3  0  0  0  0  0  0
  192.7340  170.5120  142.8760 C   0  0  1  0  0  3  0  0  0  0  0  0
  190.6310  173.6150  142.6640 C   0  0  0  0  0  0  0  0  0  0  0  0
  188.4370  172.6920  139.1320 C   0  0  0  0  0  2  0  0  0  0  0  0
  191.4240  176.6160  144.9980 C   0  0  0  0  0  2  0  0  0  0  0  0
  189.9320  172.3810  139.0700 C   0  0  0  0  0  2  0  0  0  0  0  0
  191.2200  175.1670  144.5580 C   0  0  0  0  0  2  0  0  0  0  0  0
  189.2390  177.1350  143.2170 C   0  0  1  0  0  3  0  0  0  0  0  0
  188.1660  174.0860  139.7270 C   0  0  0  0  0  2  0  0  0  0  0  0
  188.4050  175.2980  141.8730 N   0  0  2  0  0  0  0  0  0  0  0  0
  187.7510  177.5620  145.1590 O   0  0  0  0  0  0  0  0  0  0  0  0
  187.6830  176.6710  146.2470 C   0  0  0  0  0  2  0  0  0  0  0  0
  185.1580  178.6790  147.6460 C   0  0  0  0  0  2  0  0  0  0  0  0
  185.1920  176.7860  146.2370 C   0  0  0  0  0  2  0  0  0  0  0  0
  186.4370  176.9250  147.0840 C   0  0  2  0  0  3  0  0  0  0  0  0
  184.4410  178.0560  146.4710 C   0  0  0  0  0  2  0  0  0  0  0  0
  186.4810  178.2070  147.6600 O   0  0  0  0  0  0  0  0  0  0  0  0
  1 26  1  6  0  0  0
  1 18  1  0  0  0  0
  1 27  1  0  0  0  0
  2 27  1  0  0  0  0
  2 14  1  0  0  0  0
  3  7  1  0  0  0  0
  4 23  1  6  0  0  0
  4 15  1  0  0  0  0
  4 18  1  0  0  0  0
  5 19  1  0  0  0  0
  5 11  1  6  0  0  0
  6  7  1  0  0  0  0
  8 16  1  0  0  0  0
  9 13  1  0  0  0  0
  9 25  1  0  0  0  0
 12  8  2  0  0  0  0
 12 15  1  0  0  0  0
 13 24  1  0  0  0  0
 14 25  1  0  0  0  0
 15  5  1  0  0  0  0
 16  3  2  0  0  0  0
 17 28  1  0  0  0  0
 17 10  1  0  0  0  0
 18 20  1  0  0  0  0
 19  3  1  0  0  0  0
 19  6  1  0  0  0  0
 20 11  2  0  0  0  0
 20 13  1  0  0  0  0
 21 26  1  0  0  0  0
 22 10  1  0  0  0  0
 23 21  1  0  0  0  0
 24 22  1  0  0  0  0
 25 17  1  0  0  0  0
 27  9  1  0  0  0  0
 28 29  1  0  0  0  0
 29 32  1  0  0  0  0
 30 34  1  0  0  0  0
 31 33  1  0  0  0  0
 31 32  1  0  0  0  0
 32 34  1  0  0  0  0
 33 30  1  0  0  0  0
M  END
>  <MODEL>
8

>  <REMARK>
 VINA RESULT:      -7.7      3.128      8.018
  Name = 
  3 active torsions:
  status: ('A' for Active; 'I' for Inactive)
    1  A    between atoms: C_17  and  O_28
    2  A    between atoms: O_28  and  C_29
    3  A    between atoms: C_29  and  C_32
                            x       y       z     vdW  Elec       q    Type
                         _______ _______ _______ _____ _____    ______ ____

>  <TORSDO>
F 3

$$$$
=
 OpenBabel11112417433D

 34 41  0  0  1  0  0  0  0  0999 V2000
  193.6490  176.1850  142.9500 C   0  0  1  0  0  3  0  0  0  0  0  0
  191.6900  177.5240  143.1190 C   0  0  0  0  0  2  0  0  0  0  0  0
  197.3370  170.9800  144.6310 C   0  0  0  0  0  0  0  0  0  0  0  0
  195.8540  175.0160  143.1170 C   0  0  2  0  0  3  0  0  0  0  0  0
  195.8930  172.8770  144.5630 C   0  0  1  0  0  3  0  0  0  0  0  0
  196.4450  171.2880  146.4080 C   0  0  0  0  0  2  0  0  0  0  0  0
  196.9930  170.1500  145.7630 O   0  0  0  0  0  0  0  0  0  0  0  0
  197.7840  171.7530  142.3650 C   0  0  0  0  0  3  0  0  0  0  0  0
  191.9220  175.7810  144.6940 C   0  0  1  0  0  3  0  0  0  0  0  0
  190.3780  175.5410  147.4250 C   0  0  0  0  0  2  0  0  0  0  0  0
  194.9070  173.6650  145.3970 C   0  0  0  0  0  3  0  0  0  0  0  0
  197.2990  173.0120  142.4020 C   0  0  0  0  0  3  0  0  0  0  0  0
  193.1360  175.4250  145.5840 C   0  0  2  0  0  3  0  0  0  0  0  0
  190.6400  177.7500  144.1750 C   0  0  0  0  0  2  0  0  0  0  0  0
  196.6550  173.7630  143.5510 C   0  0  1  0  0  3  0  0  0  0  0  0
  197.7310  170.7670  143.4120 N   0  0  0  0  0  0  0  0  0  0  0  0
  189.9740  176.4080  146.2130 C   0  0  1  0  0  3  0  0  0  0  0  0
  194.3400  174.8830  143.3550 C   0  0  1  0  0  3  0  0  0  0  0  0
  196.9400  172.1770  145.4020 C   0  0  1  0  0  3  0  0  0  0  0  0
  194.1080  174.5710  144.8060 C   0  0  0  0  0  0  0  0  0  0  0  0
  195.0500  175.7340  140.8180 C   0  0  0  0  0  2  0  0  0  0  0  0
  191.8590  175.6410  147.7850 C   0  0  0  0  0  2  0  0  0  0  0  0
  196.2400  175.6690  141.7750 C   0  0  0  0  0  2  0  0  0  0  0  0
  192.6850  174.7310  146.8770 C   0  0  0  0  0  2  0  0  0  0  0  0
  191.1230  176.9060  145.3210 C   0  0  1  0  0  3  0  0  0  0  0  0
  193.8480  176.4610  141.4460 C   0  0  0  0  0  2  0  0  0  0  0  0
  192.2190  176.1660  143.2890 N   0  0  2  0  0  0  0  0  0  0  0  0
  188.8420  175.9410  145.5000 O   0  0  0  0  0  0  0  0  0  0  0  0
  187.6660  176.3090  146.1810 C   0  0  0  0  0  2  0  0  0  0  0  0
  184.7630  178.0860  145.3000 C   0  0  0  0  0  2  0  0  0  0  0  0
  187.0210  178.1430  144.6200 C   0  0  0  0  0  2  0  0  0  0  0  0
  186.6070  176.8150  145.2110 C   0  0  2  0  0  3  0  0  0  0  0  0
  185.8510  179.0390  144.8650 C   0  0  0  0  0  2  0  0  0  0  0  0
  185.3660  176.9470  145.8580 O   0  0  0  0  0  0  0  0  0  0  0  0
  1 26  1  6  0  0  0
  1 27  1  0  0  0  0
  1 18  1  0  0  0  0
  2 27  1  0  0  0  0
  2 14  1  0  0  0  0
  3 19  1  0  0  0  0
  3  7  1  0  0  0  0
  4 23  1  6  0  0  0
  4 18  1  0  0  0  0
  4 15  1  0  0  0  0
  5 11  1  1  0  0  0
  5 19  1  0  0  0  0
  7  6  1  0  0  0  0
  8 12  2  0  0  0  0
  8 16  1  0  0  0  0
  9 25  1  0  0  0  0
  9 13  1  0  0  0  0
 10 22  1  0  0  0  0
 12 15  1  0  0  0  0
 13 24  1  0  0  0  0
 14 25  1  0  0  0  0
 15  5  1  0  0  0  0
 16  3  2  0  0  0  0
 17 10  1  0  0  0  0
 18 20  1  0  0  0  0
 19  6  1  0  0  0  0
 20 11  2  0  0  0  0
 20 13  1  0  0  0  0
 21 26  1  0  0  0  0
 21 23  1  0  0  0  0
 24 22  1  0  0  0  0
 25 17  1  0  0  0  0
 27  9  1  0  0  0  0
 28 29  1  0  0  0  0
 28 17  1  0  0  0  0
 30 34  1  0  0  0  0
 31 33  1  0  0  0  0
 31 32  1  0  0  0  0
 32 34  1  0  0  0  0
 32 29  1  0  0  0  0
 33 30  1  0  0  0  0
M  END
>  <MODEL>
9

>  <REMARK>
 VINA RESULT:      -7.5      3.688      9.308
  Name = 
  3 active torsions:
  status: ('A' for Active; 'I' for Inactive)
    1  A    between atoms: C_17  and  O_28
    2  A    between atoms: O_28  and  C_29
    3  A    between atoms: C_29  and  C_32
                            x       y       z     vdW  Elec       q    Type
                         _______ _______ _______ _____ _____    ______ ____

>  <TORSDO>
F 3

$$$$
