=
 OpenBabel11112417543D

 34 40  0  0  1  0  0  0  0  0999 V2000
  190.4000  175.6080  142.7720 C   0  0  2  0  0  3  0  0  0  0  0  0
  192.5080  174.2050  142.3660 C   0  0  0  0  0  3  0  0  0  0  0  0
  184.6620  179.2510  145.7600 C   0  0  0  0  0  2  0  0  0  0  0  0
  188.1400  176.3920  143.7260 C   0  0  0  0  0  0  0  0  0  0  0  0
  188.1000  177.1310  146.1500 C   0  0  0  0  0  0  0  0  0  0  0  0
  186.1810  178.1570  147.3930 C   0  0  0  0  0  2  0  0  0  0  0  0
  185.9440  179.4050  146.5600 C   0  0  0  0  0  2  0  0  0  0  0  0
  184.9320  177.3010  144.1410 C   0  0  0  0  0  2  0  0  0  0  0  0
  192.0680  174.8700  144.4880 C   0  0  0  0  0  0  0  0  0  0  0  0
  194.4680  175.6420  146.4020 C   0  0  0  0  0  2  0  0  0  0  0  0
  189.2950  176.6270  146.2720 N   0  0  0  0  0  0  0  0  0  0  0  0
  185.9610  176.5400  144.9790 C   0  0  0  0  0  2  0  0  0  0  0  0
  191.4140  175.5010  145.4760 C   0  0  0  0  0  0  0  0  0  0  0  0
  193.6070  173.9240  143.0640 C   0  0  0  0  0  3  0  0  0  0  0  0
  187.3710  177.1130  144.8110 C   0  0  2  0  0  3  0  0  0  0  0  0
  184.9790  178.8180  144.3350 C   0  0  0  0  0  2  0  0  0  0  0  0
  194.4770  175.3870  144.8970 C   0  0  2  0  0  3  0  0  0  0  0  0
  189.5400  175.9940  143.9600 C   0  0  0  0  0  0  0  0  0  0  0  0
  187.5330  177.7210  147.2910 O   0  0  0  0  0  0  0  0  0  0  0  0
  190.0560  176.0480  145.2010 C   0  0  0  0  0  0  0  0  0  0  0  0
  188.2830  175.2790  141.5350 C   0  0  0  0  0  3  0  0  0  0  0  0
  193.2670  176.4740  146.8280 C   0  0  0  0  0  2  0  0  0  0  0  0
  187.5650  176.0720  142.5570 C   0  0  0  0  0  3  0  0  0  0  0  0
  192.0050  175.6240  146.8460 C   0  0  0  0  0  2  0  0  0  0  0  0
  193.4540  174.3060  144.5160 C   0  0  1  0  0  3  0  0  0  0  0  0
  189.5890  175.0090  141.6560 C   0  0  0  0  0  3  0  0  0  0  0  0
  191.4970  174.7450  143.1980 N   0  0  0  0  0  0  0  0  0  0  0  0
  195.7640  174.9900  144.5210 O   0  0  0  0  0  0  0  0  0  0  0  0
  196.3090  174.4100  145.6700 C   0  0  0  0  0  2  0  0  0  0  0  0
  196.6900  170.9340  144.9460 C   0  0  0  0  0  2  0  0  0  0  0  0
  197.1580  172.9920  143.8000 C   0  0  0  0  0  2  0  0  0  0  0  0
  197.2430  173.2750  145.2900 C   0  0  0  0  0  3  0  0  0  0  0  0
  196.4380  171.6700  143.6530 C   0  0  0  0  0  2  0  0  0  0  0  0
  196.8020  172.0100  146.0040 C   0  0  0  0  0  2  0  0  0  0  0  0
  1 26  1  6  0  0  0
  1 27  1  0  0  0  0
  1 18  1  0  0  0  0
  2 14  2  0  0  0  0
  2 27  1  0  0  0  0
  3  7  1  0  0  0  0
  4 18  1  0  0  0  0
  4 15  1  0  0  0  0
  5 11  2  0  0  0  0
  5 19  1  0  0  0  0
  7  6  1  0  0  0  0
  8 16  1  0  0  0  0
  8 12  1  0  0  0  0
  9 25  1  0  0  0  0
  9 13  2  0  0  0  0
 10 22  1  0  0  0  0
 13 24  1  0  0  0  0
 15 12  1  1  0  0  0
 15  5  1  0  0  0  0
 16  3  1  0  0  0  0
 17 28  1  1  0  0  0
 17 10  1  0  0  0  0
 18 20  2  0  0  0  0
 19  6  1  0  0  0  0
 20 13  1  0  0  0  0
 20 11  1  0  0  0  0
 21 26  2  0  0  0  0
 21 23  1  0  0  0  0
 22 24  1  0  0  0  0
 23  4  2  0  0  0  0
 25 14  1  6  0  0  0
 25 17  1  0  0  0  0
 27  9  1  0  0  0  0
 28 29  1  0  0  0  0
 30 34  1  0  0  0  0
 31 32  1  0  0  0  0
 32 29  1  0  0  0  0
 32 34  1  0  0  0  0
 33 31  1  0  0  0  0
 33 30  1  0  0  0  0
M  END
>  <MODEL>
1

>  <REMARK>
 VINA RESULT:      -8.8      0.000      0.000
  Name = 
  3 active torsions:
  status: ('A' for Active; 'I' for Inactive)
    1  A    between atoms: C_17  and  O_28
    2  A    between atoms: O_28  and  C_29
    3  A    between atoms: C_29  and  C_32
                            x       y       z     vdW  Elec       q    Type
                         _______ _______ _______ _____ _____    ______ ____

>  <TORSDO>
F 3

$$$$
=
 OpenBabel11112417543D

 34 40  0  0  1  0  0  0  0  0999 V2000
  192.2910  176.1420  145.0100 C   0  0  2  0  0  3  0  0  0  0  0  0
  190.1800  177.5460  145.3950 C   0  0  0  0  0  3  0  0  0  0  0  0
  197.1390  170.6830  143.6640 C   0  0  0  0  0  2  0  0  0  0  0  0
  193.9710  174.1920  145.0960 C   0  0  0  0  0  0  0  0  0  0  0  0
  193.3280  172.0560  143.8930 C   0  0  0  0  0  0  0  0  0  0  0  0
  194.7490  170.0190  143.5510 C   0  0  0  0  0  2  0  0  0  0  0  0
  195.9100  170.6160  142.7750 C   0  0  0  0  0  2  0  0  0  0  0  0
  196.6570  172.2420  145.6210 C   0  0  0  0  0  2  0  0  0  0  0  0
  189.9310  175.4770  144.5040 C   0  0  0  0  0  0  0  0  0  0  0  0
  187.6910  174.9850  142.3210 C   0  0  0  0  0  2  0  0  0  0  0  0
  192.1250  172.5430  143.7750 N   0  0  0  0  0  0  0  0  0  0  0  0
  195.1420  172.0270  145.6260 C   0  0  0  0  0  2  0  0  0  0  0  0
  190.3130  174.2890  144.0080 C   0  0  0  0  0  0  0  0  0  0  0  0
  188.9140  177.4820  144.9870 C   0  0  0  0  0  3  0  0  0  0  0  0
  194.4430  172.8620  144.5500 C   0  0  2  0  0  3  0  0  0  0  0  0
  197.2980  172.0830  144.2410 C   0  0  0  0  0  2  0  0  0  0  0  0
  188.2040  176.3020  142.8990 C   0  0  2  0  0  3  0  0  0  0  0  0
  192.6190  174.6810  144.7690 C   0  0  0  0  0  0  0  0  0  0  0  0
  193.5580  170.7780  143.3580 O   0  0  0  0  0  0  0  0  0  0  0  0
  191.7250  173.8550  144.1980 C   0  0  0  0  0  0  0  0  0  0  0  0
  194.2480  176.1790  146.5220 C   0  0  0  0  0  3  0  0  0  0  0  0
  188.8270  174.0160  142.0280 C   0  0  0  0  0  2  0  0  0  0  0  0
  194.7450  174.9290  145.9070 C   0  0  0  0  0  3  0  0  0  0  0  0
  189.3410  173.3870  143.3140 C   0  0  0  0  0  2  0  0  0  0  0  0
  188.5950  176.1400  144.3750 C   0  0  1  0  0  3  0  0  0  0  0  0
  193.0810  176.7190  146.1530 C   0  0  0  0  0  3  0  0  0  0  0  0
  190.8520  176.3200  145.1720 N   0  0  0  0  0  0  0  0  0  0  0  0
  187.2010  177.2670  142.7670 O   0  0  0  0  0  0  0  0  0  0  0  0
  186.0150  176.5940  143.0760 C   0  0  0  0  0  2  0  0  0  0  0  0
  185.2400  179.0200  145.5800 C   0  0  0  0  0  2  0  0  0  0  0  0
  185.2870  178.9790  143.1790 C   0  0  0  0  0  2  0  0  0  0  0  0
  184.9970  177.5640  143.6490 C   0  0  0  0  0  3  0  0  0  0  0  0
  185.8130  179.7330  144.3800 C   0  0  0  0  0  2  0  0  0  0  0  0
  185.1150  177.5700  145.1620 C   0  0  0  0  0  2  0  0  0  0  0  0
  1 27  1  0  0  0  0
  1 26  1  1  0  0  0
  3 16  1  0  0  0  0
  4 23  2  0  0  0  0
  5 15  1  0  0  0  0
  7  6  1  0  0  0  0
  7  3  1  0  0  0  0
  8 12  1  0  0  0  0
  9 27  1  0  0  0  0
 10 17  1  0  0  0  0
 11  5  2  0  0  0  0
 11 20  1  0  0  0  0
 13 20  1  0  0  0  0
 13  9  2  0  0  0  0
 14  2  2  0  0  0  0
 15  4  1  0  0  0  0
 15 12  1  1  0  0  0
 16  8  1  0  0  0  0
 17 28  1  1  0  0  0
 17 25  1  0  0  0  0
 18  1  1  0  0  0  0
 18  4  1  0  0  0  0
 19  6  1  0  0  0  0
 19  5  1  0  0  0  0
 20 18  2  0  0  0  0
 22 10  1  0  0  0  0
 22 24  1  0  0  0  0
 23 21  1  0  0  0  0
 24 13  1  0  0  0  0
 25  9  1  0  0  0  0
 25 14  1  6  0  0  0
 26 21  2  0  0  0  0
 27  2  1  0  0  0  0
 28 29  1  0  0  0  0
 29 32  1  0  0  0  0
 31 32  1  0  0  0  0
 31 33  1  0  0  0  0
 32 34  1  0  0  0  0
 33 30  1  0  0  0  0
 34 30  1  0  0  0  0
M  END
>  <MODEL>
2

>  <REMARK>
 VINA RESULT:      -8.6      1.763      9.257
  Name = 
  3 active torsions:
  status: ('A' for Active; 'I' for Inactive)
    1  A    between atoms: C_17  and  O_28
    2  A    between atoms: O_28  and  C_29
    3  A    between atoms: C_29  and  C_32
                            x       y       z     vdW  Elec       q    Type
                         _______ _______ _______ _____ _____    ______ ____

>  <TORSDO>
F 3

$$$$
=
 OpenBabel11112417543D

 34 40  0  0  1  0  0  0  0  0999 V2000
  190.3640  175.8760  142.8170 C   0  0  2  0  0  3  0  0  0  0  0  0
  192.5030  174.5730  142.2630 C   0  0  0  0  0  3  0  0  0  0  0  0
  184.6210  179.1530  146.1930 C   0  0  0  0  0  2  0  0  0  0  0  0
  188.1160  176.5290  143.8900 C   0  0  0  0  0  0  0  0  0  0  0  0
  188.1430  177.1430  146.3490 C   0  0  0  0  0  0  0  0  0  0  0  0
  186.2370  178.0350  147.7120 C   0  0  0  0  0  2  0  0  0  0  0  0
  185.9260  179.3130  146.9540 C   0  0  0  0  0  2  0  0  0  0  0  0
  184.8970  177.2980  144.4680 C   0  0  0  0  0  2  0  0  0  0  0  0
  192.1200  175.1140  144.4310 C   0  0  0  0  0  0  0  0  0  0  0  0
  194.5630  175.8760  146.2950 C   0  0  0  0  0  2  0  0  0  0  0  0
  189.3580  176.6770  146.4020 N   0  0  0  0  0  0  0  0  0  0  0  0
  185.9820  176.5340  145.2270 C   0  0  0  0  0  2  0  0  0  0  0  0
  191.4830  175.6710  145.4730 C   0  0  0  0  0  0  0  0  0  0  0  0
  193.6360  174.2980  142.9060 C   0  0  0  0  0  3  0  0  0  0  0  0
  187.3640  177.1660  145.0380 C   0  0  2  0  0  3  0  0  0  0  0  0
  184.8980  178.8050  144.7380 C   0  0  0  0  0  2  0  0  0  0  0  0
  194.5240  175.6970  144.7790 C   0  0  2  0  0  3  0  0  0  0  0  0
  189.5370  176.1700  144.0540 C   0  0  0  0  0  0  0  0  0  0  0  0
  187.5990  177.6540  147.5390 O   0  0  0  0  0  0  0  0  0  0  0  0
  190.0970  176.1810  145.2760 C   0  0  0  0  0  0  0  0  0  0  0  0
  188.2150  175.5330  141.6420 C   0  0  0  0  0  3  0  0  0  0  0  0
  193.3510  176.6410  146.8060 C   0  0  0  0  0  2  0  0  0  0  0  0
  187.5080  176.2470  142.7280 C   0  0  0  0  0  3  0  0  0  0  0  0
  192.1210  175.7450  146.8250 C   0  0  0  0  0  2  0  0  0  0  0  0
  193.5250  174.6000  144.3800 C   0  0  1  0  0  3  0  0  0  0  0  0
  189.5320  175.3050  141.7010 C   0  0  0  0  0  3  0  0  0  0  0  0
  191.5060  175.0330  143.1570 N   0  0  0  0  0  0  0  0  0  0  0  0
  195.8080  175.3660  144.3370 O   0  0  0  0  0  0  0  0  0  0  0  0
  196.3220  176.5550  143.8100 C   0  0  0  0  0  2  0  0  0  0  0  0
  197.7700  174.1160  141.6410 C   0  0  0  0  0  2  0  0  0  0  0  0
  196.6480  176.2210  141.3580 C   0  0  0  0  0  2  0  0  0  0  0  0
  197.3290  176.2500  142.7160 C   0  0  0  0  0  3  0  0  0  0  0  0
  196.6160  174.7730  140.9240 C   0  0  0  0  0  2  0  0  0  0  0  0
  197.9090  174.8670  142.9470 C   0  0  0  0  0  2  0  0  0  0  0  0
  1 26  1  6  0  0  0
  1 27  1  0  0  0  0
  1 18  1  0  0  0  0
  2 14  2  0  0  0  0
  2 27  1  0  0  0  0
  3  7  1  0  0  0  0
  4 18  1  0  0  0  0
  4 15  1  0  0  0  0
  5 11  2  0  0  0  0
  5 19  1  0  0  0  0
  7  6  1  0  0  0  0
  8 16  1  0  0  0  0
  8 12  1  0  0  0  0
  9 13  2  0  0  0  0
 10 22  1  0  0  0  0
 13 24  1  0  0  0  0
 15 12  1  1  0  0  0
 15  5  1  0  0  0  0
 16  3  1  0  0  0  0
 17 28  1  1  0  0  0
 17 10  1  0  0  0  0
 18 20  2  0  0  0  0
 19  6  1  0  0  0  0
 20 13  1  0  0  0  0
 20 11  1  0  0  0  0
 21 26  2  0  0  0  0
 21 23  1  0  0  0  0
 22 24  1  0  0  0  0
 23  4  2  0  0  0  0
 25 14  1  6  0  0  0
 25  9  1  0  0  0  0
 25 17  1  0  0  0  0
 27  9  1  0  0  0  0
 29 28  1  0  0  0  0
 30 34  1  0  0  0  0
 31 32  1  0  0  0  0
 32 34  1  0  0  0  0
 32 29  1  0  0  0  0
 33 31  1  0  0  0  0
 33 30  1  0  0  0  0
M  END
>  <MODEL>
3

>  <REMARK>
 VINA RESULT:      -8.6      1.463      1.721
  Name = 
  3 active torsions:
  status: ('A' for Active; 'I' for Inactive)
    1  A    between atoms: C_17  and  O_28
    2  A    between atoms: O_28  and  C_29
    3  A    between atoms: C_29  and  C_32
                            x       y       z     vdW  Elec       q    Type
                         _______ _______ _______ _____ _____    ______ ____

>  <TORSDO>
F 3

$$$$
=
 OpenBabel11112417543D

 34 40  0  0  1  0  0  0  0  0999 V2000
  191.7840  176.7510  145.5780 C   0  0  2  0  0  3  0  0  0  0  0  0
  189.4410  176.8000  146.6220 C   0  0  0  0  0  3  0  0  0  0  0  0
  197.7370  175.4050  141.3530 C   0  0  0  0  0  2  0  0  0  0  0  0
  193.9480  175.8840  144.4850 C   0  0  0  0  0  0  0  0  0  0  0  0
  193.7740  174.9950  142.1180 C   0  0  0  0  0  0  0  0  0  0  0  0
  195.6530  174.2650  140.6290 C   0  0  0  0  0  2  0  0  0  0  0  0
  196.4590  175.5490  140.5460 C   0  0  0  0  0  2  0  0  0  0  0  0
  197.1300  175.0480  143.8020 C   0  0  0  0  0  2  0  0  0  0  0  0
  189.6680  175.8770  144.5640 C   0  0  0  0  0  0  0  0  0  0  0  0
  187.3600  176.2550  142.4310 C   0  0  0  0  0  2  0  0  0  0  0  0
  192.4780  175.0270  142.2540 N   0  0  0  0  0  0  0  0  0  0  0  0
  195.7620  174.4180  143.5360 C   0  0  0  0  0  2  0  0  0  0  0  0
  190.2960  175.5040  143.4380 C   0  0  0  0  0  0  0  0  0  0  0  0
  188.2010  176.6210  146.1720 C   0  0  0  0  0  3  0  0  0  0  0  0
  194.6950  175.4740  143.2360 C   0  0  2  0  0  3  0  0  0  0  0  0
  197.5710  176.0420  142.7250 C   0  0  0  0  0  2  0  0  0  0  0  0
  187.5520  176.9470  143.7790 C   0  0  2  0  0  3  0  0  0  0  0  0
  192.4790  176.0060  144.4550 C   0  0  0  0  0  0  0  0  0  0  0  0
  194.2790  174.5370  140.8910 O   0  0  0  0  0  0  0  0  0  0  0  0
  191.7860  175.5280  143.4070 C   0  0  0  0  0  0  0  0  0  0  0  0
  193.8540  176.4100  146.8880 C   0  0  0  0  0  3  0  0  0  0  0  0
  188.6680  176.1390  141.6630 C   0  0  0  0  0  2  0  0  0  0  0  0
  194.5910  176.1070  145.6420 C   0  0  0  0  0  3  0  0  0  0  0  0
  189.5320  175.0290  142.2420 C   0  0  0  0  0  2  0  0  0  0  0  0
  188.1940  175.9950  144.7980 C   0  0  1  0  0  3  0  0  0  0  0  0
  192.5380  176.6530  146.8760 C   0  0  0  0  0  3  0  0  0  0  0  0
  190.3970  176.3130  145.6970 N   0  0  0  0  0  0  0  0  0  0  0  0
  186.3050  177.3800  144.2380 O   0  0  0  0  0  0  0  0  0  0  0  0
  186.3130  178.7650  144.0420 C   0  0  0  0  0  2  0  0  0  0  0  0
  183.7760  178.3820  146.5270 C   0  0  0  0  0  2  0  0  0  0  0  0
  185.9420  179.4160  146.4230 C   0  0  0  0  0  2  0  0  0  0  0  0
  185.3640  179.4360  145.0180 C   0  0  0  0  0  3  0  0  0  0  0  0
  185.1190  178.4210  147.2130 C   0  0  0  0  0  2  0  0  0  0  0  0
  184.0650  178.6520  145.0660 C   0  0  0  0  0  2  0  0  0  0  0  0
  1 27  1  0  0  0  0
  1 26  1  1  0  0  0
  3 16  1  0  0  0  0
  4 23  2  0  0  0  0
  5 11  2  0  0  0  0
  5 15  1  0  0  0  0
  6 19  1  0  0  0  0
  7  6  1  0  0  0  0
  7  3  1  0  0  0  0
  9 25  1  0  0  0  0
  9 27  1  0  0  0  0
 10 17  1  0  0  0  0
 11 20  1  0  0  0  0
 12  8  1  0  0  0  0
 13  9  2  0  0  0  0
 14  2  2  0  0  0  0
 15 12  1  1  0  0  0
 15  4  1  0  0  0  0
 16  8  1  0  0  0  0
 17 28  1  1  0  0  0
 17 25  1  0  0  0  0
 18  4  1  0  0  0  0
 18  1  1  0  0  0  0
 19  5  1  0  0  0  0
 20 13  1  0  0  0  0
 20 18  2  0  0  0  0
 22 24  1  0  0  0  0
 22 10  1  0  0  0  0
 23 21  1  0  0  0  0
 24 13  1  0  0  0  0
 25 14  1  1  0  0  0
 26 21  2  0  0  0  0
 27  2  1  0  0  0  0
 29 28  1  0  0  0  0
 29 32  1  0  0  0  0
 30 33  1  0  0  0  0
 31 33  1  0  0  0  0
 32 34  1  0  0  0  0
 32 31  1  0  0  0  0
 34 30  1  0  0  0  0
M  END
>  <MODEL>
4

>  <REMARK>
 VINA RESULT:      -8.5      1.837      9.259
  Name = 
  3 active torsions:
  status: ('A' for Active; 'I' for Inactive)
    1  A    between atoms: C_17  and  O_28
    2  A    between atoms: O_28  and  C_29
    3  A    between atoms: C_29  and  C_32
                            x       y       z     vdW  Elec       q    Type
                         _______ _______ _______ _____ _____    ______ ____

>  <TORSDO>
F 3

$$$$
=
 OpenBabel11112417543D

 34 40  0  0  1  0  0  0  0  0999 V2000
  189.0120  176.6440  146.2670 C   0  0  2  0  0  3  0  0  0  0  0  0
  191.2150  176.2360  147.5170 C   0  0  0  0  0  3  0  0  0  0  0  0
  183.8080  178.2910  141.2350 C   0  0  0  0  0  2  0  0  0  0  0  0
  187.2360  177.7230  144.7470 C   0  0  0  0  0  0  0  0  0  0  0  0
  187.6960  177.7310  142.2540 C   0  0  0  0  0  0  0  0  0  0  0  0
  186.1500  178.4780  140.4280 C   0  0  0  0  0  2  0  0  0  0  0  0
  184.9830  177.5300  140.6450 C   0  0  0  0  0  2  0  0  0  0  0  0
  184.4800  179.2020  143.5190 C   0  0  0  0  0  2  0  0  0  0  0  0
  191.3020  176.4900  145.2660 C   0  0  0  0  0  0  0  0  0  0  0  0
  193.3910  174.7990  143.5930 C   0  0  0  0  0  2  0  0  0  0  0  0
  188.9150  177.3630  142.5280 N   0  0  0  0  0  0  0  0  0  0  0  0
  185.9780  179.2840  143.2230 C   0  0  0  0  0  2  0  0  0  0  0  0
  190.8300  176.6590  144.0210 C   0  0  0  0  0  0  0  0  0  0  0  0
  192.4510  175.8900  147.1660 C   0  0  0  0  0  3  0  0  0  0  0  0
  186.6630  177.9210  143.3610 C   0  0  2  0  0  3  0  0  0  0  0  0
  183.7570  178.0970  142.7440 C   0  0  0  0  0  2  0  0  0  0  0  0
  192.9820  174.6540  145.0570 C   0  0  2  0  0  3  0  0  0  0  0  0
  188.5930  177.1690  144.9080 C   0  0  0  0  0  0  0  0  0  0  0  0
  187.3670  177.9090  140.9010 O   0  0  0  0  0  0  0  0  0  0  0  0
  189.4080  177.0680  143.8430 C   0  0  0  0  0  0  0  0  0  0  0  0
  187.1440  177.9740  147.1940 C   0  0  0  0  0  3  0  0  0  0  0  0
  192.1900  175.0490  142.6930 C   0  0  0  0  0  2  0  0  0  0  0  0
  186.5470  178.0730  145.8440 C   0  0  0  0  0  3  0  0  0  0  0  0
  191.7130  176.4880  142.8240 C   0  0  0  0  0  2  0  0  0  0  0  0
  192.6630  176.0220  145.6770 C   0  0  1  0  0  3  0  0  0  0  0  0
  188.3180  177.3620  147.3910 C   0  0  0  0  0  3  0  0  0  0  0  0
  190.4660  176.6680  146.3950 N   0  0  0  0  0  0  0  0  0  0  0  0
  194.0280  174.0390  145.7520 O   0  0  0  0  0  0  0  0  0  0  0  0
  195.1890  174.6370  145.2530 C   0  0  0  0  0  2  0  0  0  0  0  0
  197.3230  171.7820  145.0340 C   0  0  0  0  0  2  0  0  0  0  0  0
  197.6080  174.1600  144.8650 C   0  0  0  0  0  2  0  0  0  0  0  0
  196.4170  173.9120  145.7740 C   0  0  0  0  0  3  0  0  0  0  0  0
  197.8710  172.8620  144.1350 C   0  0  0  0  0  2  0  0  0  0  0  0
  196.1540  172.4170  145.7570 C   0  0  0  0  0  2  0  0  0  0  0  0
  1 27  1  0  0  0  0
  1 26  1  1  0  0  0
  3 16  1  0  0  0  0
  4 18  1  0  0  0  0
  4 23  2  0  0  0  0
  5 11  2  0  0  0  0
  5 15  1  0  0  0  0
  6  7  1  0  0  0  0
  6 19  1  0  0  0  0
  7  3  1  0  0  0  0
  9 25  1  0  0  0  0
  9 27  1  0  0  0  0
 10 17  1  0  0  0  0
 11 20  1  0  0  0  0
 12  8  1  0  0  0  0
 13  9  2  0  0  0  0
 14  2  2  0  0  0  0
 15 12  1  1  0  0  0
 15  4  1  0  0  0  0
 16  8  1  0  0  0  0
 17 25  1  0  0  0  0
 17 28  1  1  0  0  0
 18  1  1  0  0  0  0
 19  5  1  0  0  0  0
 20 13  1  0  0  0  0
 20 18  2  0  0  0  0
 21 26  2  0  0  0  0
 22 24  1  0  0  0  0
 22 10  1  0  0  0  0
 23 21  1  0  0  0  0
 24 13  1  0  0  0  0
 25 14  1  1  0  0  0
 27  2  1  0  0  0  0
 29 28  1  0  0  0  0
 29 32  1  0  0  0  0
 30 34  1  0  0  0  0
 31 32  1  0  0  0  0
 33 31  1  0  0  0  0
 33 30  1  0  0  0  0
 34 32  1  0  0  0  0
M  END
>  <MODEL>
5

>  <REMARK>
 VINA RESULT:      -8.2      2.007      3.734
  Name = 
  3 active torsions:
  status: ('A' for Active; 'I' for Inactive)
    1  A    between atoms: C_17  and  O_28
    2  A    between atoms: O_28  and  C_29
    3  A    between atoms: C_29  and  C_32
                            x       y       z     vdW  Elec       q    Type
                         _______ _______ _______ _____ _____    ______ ____

>  <TORSDO>
F 3

$$$$
=
 OpenBabel11112417543D

 34 40  0  0  1  0  0  0  0  0999 V2000
  189.7130  174.4530  142.1400 C   0  0  2  0  0  3  0  0  0  0  0  0
  187.3420  175.3810  142.4440 C   0  0  0  0  0  3  0  0  0  0  0  0
  197.0630  173.4010  142.0920 C   0  0  0  0  0  2  0  0  0  0  0  0
  192.2320  174.3230  141.6210 C   0  0  0  0  0  0  0  0  0  0  0  0
  193.8020  175.5550  143.1850 C   0  0  0  0  0  0  0  0  0  0  0  0
  196.3080  175.5100  143.1650 C   0  0  0  0  0  2  0  0  0  0  0  0
  196.5620  174.0280  143.3810 C   0  0  0  0  0  2  0  0  0  0  0  0
  195.2450  173.6060  140.3170 C   0  0  0  0  0  2  0  0  0  0  0  0
  189.0310  176.3960  143.5640 C   0  0  0  0  0  0  0  0  0  0  0  0
  188.5000  177.5380  146.4690 C   0  0  0  0  0  2  0  0  0  0  0  0
  192.7550  176.1340  143.6990 N   0  0  0  0  0  0  0  0  0  0  0  0
  194.5880  174.8550  140.9060 C   0  0  0  0  0  2  0  0  0  0  0  0
  190.2860  176.5930  143.9950 C   0  0  0  0  0  0  0  0  0  0  0  0
  186.7530  176.2090  143.3040 C   0  0  0  0  0  3  0  0  0  0  0  0
  193.6620  174.5150  142.0770 C   0  0  2  0  0  3  0  0  0  0  0  0
  195.9190  172.7120  141.3610 C   0  0  0  0  0  2  0  0  0  0  0  0
  187.6190  176.6320  145.6120 C   0  0  2  0  0  3  0  0  0  0  0  0
  191.1300  174.9370  142.3840 C   0  0  0  0  0  0  0  0  0  0  0  0
  195.0540  175.9010  143.7170 O   0  0  0  0  0  0  0  0  0  0  0  0
  191.3960  175.8540  143.3300 C   0  0  0  0  0  0  0  0  0  0  0  0
  190.5540  173.5290  140.0050 C   0  0  0  0  0  3  0  0  0  0  0  0
  189.9640  177.1260  146.4070 C   0  0  0  0  0  2  0  0  0  0  0  0
  191.9410  173.6330  140.5080 C   0  0  0  0  0  3  0  0  0  0  0  0
  190.5890  177.5660  145.0920 C   0  0  0  0  0  2  0  0  0  0  0  0
  187.7670  176.9730  144.1220 C   0  0  1  0  0  3  0  0  0  0  0  0
  189.5170  173.9610  140.7320 C   0  0  0  0  0  3  0  0  0  0  0  0
  188.7520  175.4840  142.5170 N   0  0  0  0  0  0  0  0  0  0  0  0
  186.2910  176.7920  146.0160 O   0  0  0  0  0  0  0  0  0  0  0  0
  186.3180  177.8590  146.9200 C   0  0  0  0  0  2  0  0  0  0  0  0
  184.9200  179.7910  144.2620 C   0  0  0  0  0  2  0  0  0  0  0  0
  184.0670  178.2910  145.9320 C   0  0  0  0  0  2  0  0  0  0  0  0
  185.3260  178.9270  146.4960 C   0  0  0  0  0  3  0  0  0  0  0  0
  184.0860  178.5460  144.4410 C   0  0  0  0  0  2  0  0  0  0  0  0
  185.9370  179.7580  145.3820 C   0  0  0  0  0  2  0  0  0  0  0  0
  1 26  1  6  0  0  0
  1 18  1  0  0  0  0
  1 27  1  0  0  0  0
  2 27  1  0  0  0  0
  2 14  2  0  0  0  0
  3  7  1  0  0  0  0
  4 15  1  0  0  0  0
  4 18  1  0  0  0  0
  5 11  2  0  0  0  0
  5 19  1  0  0  0  0
  6  7  1  0  0  0  0
  6 19  1  0  0  0  0
  8 12  1  0  0  0  0
  8 16  1  0  0  0  0
  9 13  2  0  0  0  0
  9 25  1  0  0  0  0
 13 24  1  0  0  0  0
 15 12  1  6  0  0  0
 15  5  1  0  0  0  0
 16  3  1  0  0  0  0
 17 28  1  1  0  0  0
 17 10  1  0  0  0  0
 18 20  2  0  0  0  0
 20 11  1  0  0  0  0
 20 13  1  0  0  0  0
 21 23  1  0  0  0  0
 21 26  2  0  0  0  0
 22 10  1  0  0  0  0
 23  4  2  0  0  0  0
 24 22  1  0  0  0  0
 25 14  1  6  0  0  0
 25 17  1  0  0  0  0
 27  9  1  0  0  0  0
 28 29  1  0  0  0  0
 30 33  1  0  0  0  0
 30 34  1  0  0  0  0
 31 32  1  0  0  0  0
 32 29  1  0  0  0  0
 33 31  1  0  0  0  0
 34 32  1  0  0  0  0
M  END
>  <MODEL>
6

>  <REMARK>
 VINA RESULT:      -8.1      1.936      8.717
  Name = 
  3 active torsions:
  status: ('A' for Active; 'I' for Inactive)
    1  A    between atoms: C_17  and  O_28
    2  A    between atoms: O_28  and  C_29
    3  A    between atoms: C_29  and  C_32
                            x       y       z     vdW  Elec       q    Type
                         _______ _______ _______ _____ _____    ______ ____

>  <TORSDO>
F 3

$$$$
=
 OpenBabel11112417543D

 34 40  0  0  1  0  0  0  0  0999 V2000
  189.8650  174.3730  142.6390 C   0  0  2  0  0  3  0  0  0  0  0  0
  187.5930  175.5570  142.5160 C   0  0  0  0  0  3  0  0  0  0  0  0
  196.8900  172.4430  144.0670 C   0  0  0  0  0  2  0  0  0  0  0  0
  192.4100  173.9770  142.6620 C   0  0  0  0  0  0  0  0  0  0  0  0
  193.7050  174.8900  144.6410 C   0  0  0  0  0  0  0  0  0  0  0  0
  196.1330  174.5420  145.1560 C   0  0  0  0  0  2  0  0  0  0  0  0
  196.1800  173.0290  145.2740 C   0  0  0  0  0  2  0  0  0  0  0  0
  195.5490  172.9980  141.9720 C   0  0  0  0  0  2  0  0  0  0  0  0
  189.0820  176.2730  144.0680 C   0  0  0  0  0  0  0  0  0  0  0  0
  188.0310  177.2530  146.8890 C   0  0  0  0  0  2  0  0  0  0  0  0
  192.6330  175.5530  144.9740 N   0  0  0  0  0  0  0  0  0  0  0  0
  194.9070  174.2710  142.5270 C   0  0  0  0  0  2  0  0  0  0  0  0
  190.2220  176.2840  144.7760 C   0  0  0  0  0  0  0  0  0  0  0  0
  186.9140  176.3850  143.3070 C   0  0  0  0  0  3  0  0  0  0  0  0
  193.7110  173.9600  143.4320 C   0  0  2  0  0  3  0  0  0  0  0  0
  195.8760  171.9540  143.0430 C   0  0  0  0  0  2  0  0  0  0  0  0
  187.2780  176.5270  145.7770 C   0  0  2  0  0  3  0  0  0  0  0  0
  191.2320  174.6620  143.2280 C   0  0  0  0  0  0  0  0  0  0  0  0
  194.8340  175.0410  145.4620 O   0  0  0  0  0  0  0  0  0  0  0  0
  191.3710  175.4680  144.2950 C   0  0  0  0  0  0  0  0  0  0  0  0
  191.0650  173.5140  140.6530 C   0  0  0  0  0  3  0  0  0  0  0  0
  189.4220  176.6730  147.1030 C   0  0  0  0  0  2  0  0  0  0  0  0
  192.3070  173.4110  141.4500 C   0  0  0  0  0  3  0  0  0  0  0  0
  190.3680  177.1300  146.0030 C   0  0  0  0  0  2  0  0  0  0  0  0
  187.7900  176.9570  144.3950 C   0  0  1  0  0  3  0  0  0  0  0  0
  189.9410  174.0150  141.1800 C   0  0  0  0  0  3  0  0  0  0  0  0
  188.9540  175.4830  142.9000 N   0  0  0  0  0  0  0  0  0  0  0  0
  185.9160  176.8160  145.9010 O   0  0  0  0  0  0  0  0  0  0  0  0
  185.8570  177.8810  146.8050 C   0  0  0  0  0  2  0  0  0  0  0  0
  185.0850  179.7900  143.8880 C   0  0  0  0  0  2  0  0  0  0  0  0
  183.8290  178.5410  145.5090 C   0  0  0  0  0  2  0  0  0  0  0  0
  185.0870  179.0400  146.1990 C   0  0  0  0  0  3  0  0  0  0  0  0
  184.0680  178.6850  144.0220 C   0  0  0  0  0  2  0  0  0  0  0  0
  185.9410  179.7000  145.1330 C   0  0  0  0  0  2  0  0  0  0  0  0
  1 26  1  6  0  0  0
  1 27  1  0  0  0  0
  1 18  1  0  0  0  0
  2 27  1  0  0  0  0
  2 14  2  0  0  0  0
  3  7  1  0  0  0  0
  4 18  1  0  0  0  0
  4 15  1  0  0  0  0
  5 11  2  0  0  0  0
  5 19  1  0  0  0  0
  6  7  1  0  0  0  0
  6 19  1  0  0  0  0
  8 12  1  0  0  0  0
  8 16  1  0  0  0  0
  9 25  1  0  0  0  0
  9 13  2  0  0  0  0
 10 22  1  0  0  0  0
 13 24  1  0  0  0  0
 15 12  1  6  0  0  0
 15  5  1  0  0  0  0
 16  3  1  0  0  0  0
 17 28  1  6  0  0  0
 17 10  1  0  0  0  0
 18 20  2  0  0  0  0
 20 13  1  0  0  0  0
 20 11  1  0  0  0  0
 21 26  2  0  0  0  0
 21 23  1  0  0  0  0
 23  4  2  0  0  0  0
 24 22  1  0  0  0  0
 25 14  1  6  0  0  0
 25 17  1  0  0  0  0
 27  9  1  0  0  0  0
 28 29  1  0  0  0  0
 30 33  1  0  0  0  0
 30 34  1  0  0  0  0
 31 32  1  0  0  0  0
 32 29  1  0  0  0  0
 33 31  1  0  0  0  0
 34 32  1  0  0  0  0
M  END
>  <MODEL>
7

>  <REMARK>
 VINA RESULT:      -8.1      1.428      8.699
  Name = 
  3 active torsions:
  status: ('A' for Active; 'I' for Inactive)
    1  A    between atoms: C_17  and  O_28
    2  A    between atoms: O_28  and  C_29
    3  A    between atoms: C_29  and  C_32
                            x       y       z     vdW  Elec       q    Type
                         _______ _______ _______ _____ _____    ______ ____

>  <TORSDO>
F 3

$$$$
=
 OpenBabel11112417543D

 34 40  0  0  1  0  0  0  0  0999 V2000
  192.2000  175.5230  145.9530 C   0  0  2  0  0  3  0  0  0  0  0  0
  194.7320  175.2340  146.2400 C   0  0  0  0  0  3  0  0  0  0  0  0
  185.3970  177.2470  143.5320 C   0  0  0  0  0  2  0  0  0  0  0  0
  189.9120  176.5780  145.4220 C   0  0  0  0  0  0  0  0  0  0  0  0
  189.4160  177.1070  142.9930 C   0  0  0  0  0  0  0  0  0  0  0  0
  187.2530  177.9290  142.0290 C   0  0  0  0  0  2  0  0  0  0  0  0
  186.3240  176.7920  142.4180 C   0  0  0  0  0  2  0  0  0  0  0  0
  186.7940  177.8200  145.5850 C   0  0  0  0  0  2  0  0  0  0  0  0
  193.9630  175.9010  144.2150 C   0  0  0  0  0  0  0  0  0  0  0  0
  195.4070  174.8770  141.5910 C   0  0  0  0  0  2  0  0  0  0  0  0
  190.6750  176.8840  142.7390 N   0  0  0  0  0  0  0  0  0  0  0  0
  188.0660  178.1800  144.8160 C   0  0  0  0  0  2  0  0  0  0  0  0
  193.0530  176.2200  143.2810 C   0  0  0  0  0  0  0  0  0  0  0  0
  195.7740  175.1480  145.4160 C   0  0  0  0  0  3  0  0  0  0  0  0
  188.8550  176.9350  144.4010 C   0  0  2  0  0  3  0  0  0  0  0  0
  185.9220  176.7780  144.8810 C   0  0  0  0  0  2  0  0  0  0  0  0
  195.5800  174.4090  143.0340 C   0  0  2  0  0  3  0  0  0  0  0  0
  191.2700  176.2160  144.9760 C   0  0  0  0  0  0  0  0  0  0  0  0
  188.5990  177.4750  141.9130 O   0  0  0  0  0  0  0  0  0  0  0  0
  191.6390  176.4340  143.7020 C   0  0  0  0  0  0  0  0  0  0  0  0
  190.7120  176.3650  147.7400 C   0  0  0  0  0  3  0  0  0  0  0  0
  193.9430  175.1020  141.2410 C   0  0  0  0  0  2  0  0  0  0  0  0
  189.6530  176.6160  146.7380 C   0  0  0  0  0  3  0  0  0  0  0  0
  193.4410  176.4030  141.8470 C   0  0  0  0  0  2  0  0  0  0  0  0
  195.4110  175.5780  144.0150 C   0  0  1  0  0  3  0  0  0  0  0  0
  191.9180  175.9120  147.3780 C   0  0  0  0  0  3  0  0  0  0  0  0
  193.5920  175.7430  145.5730 N   0  0  0  0  0  0  0  0  0  0  0  0
  196.8520  173.8440  143.1690 O   0  0  0  0  0  0  0  0  0  0  0  0
  196.7680  172.6130  142.5100 C   0  0  0  0  0  2  0  0  0  0  0  0
  196.8150  171.5820  145.9290 C   0  0  0  0  0  2  0  0  0  0  0  0
  195.5710  170.9770  143.9660 C   0  0  0  0  0  2  0  0  0  0  0  0
  196.9290  171.4770  143.5030 C   0  0  0  0  0  3  0  0  0  0  0  0
  195.4100  171.4300  145.4000 C   0  0  0  0  0  2  0  0  0  0  0  0
  197.6500  171.9930  144.7350 C   0  0  0  0  0  2  0  0  0  0  0  0
  1 26  1  1  0  0  0
  3 16  1  0  0  0  0
  4 23  2  0  0  0  0
  5 15  1  0  0  0  0
  6  7  1  0  0  0  0
  7  3  1  0  0  0  0
  9 27  1  0  0  0  0
 10 17  1  0  0  0  0
 11  5  2  0  0  0  0
 11 20  1  0  0  0  0
 12  8  1  0  0  0  0
 13 20  1  0  0  0  0
 13  9  2  0  0  0  0
 14  2  2  0  0  0  0
 15 12  1  1  0  0  0
 15  4  1  0  0  0  0
 16  8  1  0  0  0  0
 17 28  1  6  0  0  0
 17 25  1  0  0  0  0
 18  4  1  0  0  0  0
 18  1  1  0  0  0  0
 19  6  1  0  0  0  0
 19  5  1  0  0  0  0
 20 18  2  0  0  0  0
 22 10  1  0  0  0  0
 22 24  1  0  0  0  0
 23 21  1  0  0  0  0
 24 13  1  0  0  0  0
 25  9  1  0  0  0  0
 25 14  1  1  0  0  0
 26 21  2  0  0  0  0
 27  1  1  0  0  0  0
 27  2  1  0  0  0  0
 29 28  1  0  0  0  0
 29 32  1  0  0  0  0
 31 33  1  0  0  0  0
 32 31  1  0  0  0  0
 32 34  1  0  0  0  0
 33 30  1  0  0  0  0
 34 30  1  0  0  0  0
M  END
>  <MODEL>
8

>  <REMARK>
 VINA RESULT:      -8.1      1.906      3.711
  Name = 
  3 active torsions:
  status: ('A' for Active; 'I' for Inactive)
    1  A    between atoms: C_17  and  O_28
    2  A    between atoms: O_28  and  C_29
    3  A    between atoms: C_29  and  C_32
                            x       y       z     vdW  Elec       q    Type
                         _______ _______ _______ _____ _____    ______ ____

>  <TORSDO>
F 3

$$$$
=
 OpenBabel11112417543D

 34 40  0  0  1  0  0  0  0  0999 V2000
  191.4070  174.7210  142.7970 C   0  0  2  0  0  3  0  0  0  0  0  0
  189.5230  176.4550  142.6480 C   0  0  0  0  0  3  0  0  0  0  0  0
  197.5130  170.8820  144.5570 C   0  0  0  0  0  2  0  0  0  0  0  0
  193.7550  173.6830  142.9960 C   0  0  0  0  0  0  0  0  0  0  0  0
  194.9670  173.9750  145.2030 C   0  0  0  0  0  0  0  0  0  0  0  0
  197.1530  172.9520  145.8810 C   0  0  0  0  0  2  0  0  0  0  0  0
  196.8160  171.4750  145.7690 C   0  0  0  0  0  2  0  0  0  0  0  0
  196.6260  172.0230  142.4570 C   0  0  0  0  0  2  0  0  0  0  0  0
  190.9290  176.5640  144.4230 C   0  0  0  0  0  0  0  0  0  0  0  0
  189.7930  177.4190  147.2520 C   0  0  0  0  0  2  0  0  0  0  0  0
  194.0550  174.8450  145.5320 N   0  0  0  0  0  0  0  0  0  0  0  0
  196.2450  173.3370  143.1390 C   0  0  0  0  0  2  0  0  0  0  0  0
  191.9370  176.1920  145.2270 C   0  0  0  0  0  0  0  0  0  0  0  0
  188.9690  177.3240  143.4910 C   0  0  0  0  0  3  0  0  0  0  0  0
  194.9040  173.2340  143.8710 C   0  0  2  0  0  3  0  0  0  0  0  0
  196.5510  170.8040  143.3800 C   0  0  0  0  0  2  0  0  0  0  0  0
  189.0360  177.0570  145.9760 C   0  0  2  0  0  3  0  0  0  0  0  0
  192.7160  174.5720  143.5480 C   0  0  0  0  0  0  0  0  0  0  0  0
  195.9840  173.7260  146.1380 O   0  0  0  0  0  0  0  0  0  0  0  0
  192.9070  175.1730  144.7350 C   0  0  0  0  0  0  0  0  0  0  0  0
  192.6080  173.8380  140.8230 C   0  0  0  0  0  3  0  0  0  0  0  0
  190.9630  176.4780  147.5010 C   0  0  0  0  0  2  0  0  0  0  0  0
  193.6750  173.3190  141.7070 C   0  0  0  0  0  3  0  0  0  0  0  0
  192.1250  176.8100  146.5770 C   0  0  0  0  0  2  0  0  0  0  0  0
  189.8100  177.5100  144.7300 C   0  0  1  0  0  3  0  0  0  0  0  0
  191.5800  174.5410  141.3140 C   0  0  0  0  0  3  0  0  0  0  0  0
  190.7650  175.9860  143.1410 N   0  0  0  0  0  0  0  0  0  0  0  0
  187.7800  177.6690  146.0160 O   0  0  0  0  0  0  0  0  0  0  0  0
  186.9730  176.7840  146.7370 C   0  0  0  0  0  2  0  0  0  0  0  0
  184.1090  178.7030  145.8060 C   0  0  0  0  0  2  0  0  0  0  0  0
  185.5740  177.1510  144.7040 C   0  0  0  0  0  2  0  0  0  0  0  0
  185.5620  176.7910  146.1800 C   0  0  0  0  0  3  0  0  0  0  0  0
  184.9960  178.5450  144.5960 C   0  0  0  0  0  2  0  0  0  0  0  0
  184.7530  177.8630  146.8880 C   0  0  0  0  0  2  0  0  0  0  0  0
  1 26  1  6  0  0  0
  1 27  1  0  0  0  0
  1 18  1  0  0  0  0
  2 27  1  0  0  0  0
  2 14  2  0  0  0  0
  3  7  1  0  0  0  0
  4 18  1  0  0  0  0
  4 15  1  0  0  0  0
  5 11  2  0  0  0  0
  5 19  1  0  0  0  0
  6 19  1  0  0  0  0
  7  6  1  0  0  0  0
  8 12  1  0  0  0  0
  8 16  1  0  0  0  0
  9 25  1  0  0  0  0
  9 13  2  0  0  0  0
 10 22  1  0  0  0  0
 13 24  1  0  0  0  0
 15 12  1  6  0  0  0
 15  5  1  0  0  0  0
 16  3  1  0  0  0  0
 17 28  1  1  0  0  0
 17 10  1  0  0  0  0
 18 20  2  0  0  0  0
 20 13  1  0  0  0  0
 20 11  1  0  0  0  0
 21 26  2  0  0  0  0
 21 23  1  0  0  0  0
 23  4  2  0  0  0  0
 24 22  1  0  0  0  0
 25 14  1  6  0  0  0
 25 17  1  0  0  0  0
 27  9  1  0  0  0  0
 28 29  1  0  0  0  0
 30 34  1  0  0  0  0
 31 32  1  0  0  0  0
 32 29  1  0  0  0  0
 32 34  1  0  0  0  0
 33 31  1  0  0  0  0
 33 30  1  0  0  0  0
M  END
>  <MODEL>
9

>  <REMARK>
 VINA RESULT:      -8.0      1.446      8.788
  Name = 
  3 active torsions:
  status: ('A' for Active; 'I' for Inactive)
    1  A    between atoms: C_17  and  O_28
    2  A    between atoms: O_28  and  C_29
    3  A    between atoms: C_29  and  C_32
                            x       y       z     vdW  Elec       q    Type
                         _______ _______ _______ _____ _____    ______ ____

>  <TORSDO>
F 3

$$$$
