=
 OpenBabel11112417463D

 34 40  0  0  1  0  0  0  0  0999 V2000
  189.5530  174.6080  142.8090 C   0  0  0  0  0  0  0  0  0  0  0  0
  191.7690  173.3930  143.0030 C   0  0  0  0  0  2  0  0  0  0  0  0
  185.4940  179.4380  144.9290 C   0  0  0  0  0  3  0  0  0  0  0  0
  187.6650  176.0810  142.6490 C   0  0  0  0  0  0  0  0  0  0  0  0
  187.3120  177.9040  144.3130 N   0  0  1  0  0  0  0  0  0  0  0  0
  184.5010  178.1620  143.0100 C   0  0  0  0  0  2  0  0  0  0  0  0
  190.6940  174.2040  145.0210 C   0  0  2  0  0  3  0  0  0  0  0  0
  192.7480  175.7950  147.0090 C   0  0  0  0  0  2  0  0  0  0  0  0
  188.5670  177.4480  144.9480 C   0  0  0  0  0  2  0  0  0  0  0  0
  185.8120  177.7560  142.3530 C   0  0  0  0  0  2  0  0  0  0  0  0
  190.2140  175.6150  145.4330 C   0  0  1  0  0  3  0  0  0  0  0  0
  192.7030  173.1050  144.1690 C   0  0  0  0  0  2  0  0  0  0  0  0
  186.6740  176.9780  143.3440 C   0  0  1  0  0  3  0  0  0  0  0  0
  184.6660  179.3750  143.8770 C   0  0  0  0  0  3  0  0  0  0  0  0
  193.0470  175.1100  145.6630 C   0  0  1  0  0  3  0  0  0  0  0  0
  188.6950  175.5350  143.4080 C   0  0  0  0  0  0  0  0  0  0  0  0
  186.3880  178.3110  145.3810 C   0  0  2  0  0  3  0  0  0  0  0  0
  188.8260  175.9390  144.8500 C   0  0  2  0  0  3  0  0  0  0  0  0
  188.3780  174.8300  140.7700 C   0  0  0  0  0  3  0  0  0  0  0  0
  191.4530  175.3340  147.6800 C   0  0  0  0  0  2  0  0  0  0  0  0
  187.5160  175.7090  141.3480 N   0  0  0  0  0  0  0  0  0  0  0  0
  190.1930  175.8130  146.9550 C   0  0  0  0  0  2  0  0  0  0  0  0
  192.1580  173.8800  145.3660 C   0  0  1  0  0  3  0  0  0  0  0  0
  189.3900  174.2860  141.4990 N   0  0  0  0  0  0  0  0  0  0  0  0
  190.6030  174.0240  143.5840 N   0  0  0  0  0  0  0  0  0  0  0  0
  185.6140  177.1450  146.0060 C   0  0  0  0  0  2  0  0  0  0  0  0
  186.0280  176.9470  147.4510 C   0  0  0  0  0  1  0  0  0  0  0  0
  192.9870  176.0490  144.6270 O   0  0  0  0  0  0  0  0  0  0  0  0
  194.2580  176.6260  144.5830 C   0  0  0  0  0  2  0  0  0  0  0  0
  195.4000  176.6040  141.3010 C   0  0  0  0  0  2  0  0  0  0  0  0
  196.4330  176.6230  143.3700 C   0  0  0  0  0  2  0  0  0  0  0  0
  195.1250  175.8880  143.5800 C   0  0  2  0  0  3  0  0  0  0  0  0
  196.7050  176.6410  141.9420 N   0  0  0  0  0  2  0  0  0  0  0  0
  194.4520  175.8780  142.2300 C   0  0  0  0  0  2  0  0  0  0  0  0
  1 16  1  0  0  0  0
  1 25  1  0  0  0  0
  2 25  1  0  0  0  0
  2 12  1  0  0  0  0
  3 17  1  0  0  0  0
  4 13  1  0  0  0  0
  4 16  2  0  0  0  0
  5  9  1  1  0  0  0
  5 17  1  0  0  0  0
  6 14  1  0  0  0  0
  7 25  1  6  0  0  0
  7 23  1  0  0  0  0
  7 11  1  0  0  0  0
  8 20  1  0  0  0  0
 10  6  1  0  0  0  0
 11 22  1  1  0  0  0
 13 10  1  6  0  0  0
 13  5  1  0  0  0  0
 14  3  2  0  0  0  0
 15 28  1  6  0  0  0
 15  8  1  0  0  0  0
 16 18  1  0  0  0  0
 17 26  1  6  0  0  0
 18  9  1  6  0  0  0
 18 11  1  0  0  0  0
 19 21  2  0  0  0  0
 19 24  1  0  0  0  0
 21  4  1  0  0  0  0
 22 20  1  0  0  0  0
 23 12  1  6  0  0  0
 23 15  1  0  0  0  0
 24  1  2  0  0  0  0
 26 27  1  0  0  0  0
 29 28  1  0  0  0  0
 30 33  1  0  0  0  0
 30 34  1  0  0  0  0
 31 32  1  0  0  0  0
 32 29  1  1  0  0  0
 33 31  1  0  0  0  0
 34 32  1  0  0  0  0
M  END
>  <MODEL>
1

>  <REMARK>
 VINA RESULT:      -9.1      0.000      0.000
  Name = 
  4 active torsions:
  status: ('A' for Active; 'I' for Inactive)
    1  A    between atoms: C_6  and  C_19
    2  A    between atoms: C_17  and  O_28
    3  A    between atoms: O_28  and  C_29
    4  A    between atoms: C_29  and  C_32
                            x       y       z     vdW  Elec       q    Type
                         _______ _______ _______ _____ _____    ______ ____

>  <TORSDO>
F 4

$$$$
=
 OpenBabel11112417463D

 34 40  0  0  1  0  0  0  0  0999 V2000
  190.6610  176.1880  144.9710 C   0  0  0  0  0  0  0  0  0  0  0  0
  192.3390  174.7680  143.7090 C   0  0  0  0  0  2  0  0  0  0  0  0
  184.3290  177.9500  146.0180 C   0  0  0  0  0  3  0  0  0  0  0  0
  188.8670  177.2060  146.1970 C   0  0  0  0  0  0  0  0  0  0  0  0
  186.4960  176.9260  145.4780 N   0  0  1  0  0  0  0  0  0  0  0  0
  185.9000  179.1590  147.5570 C   0  0  0  0  0  2  0  0  0  0  0  0
  190.3970  175.6170  142.5290 C   0  0  2  0  0  3  0  0  0  0  0  0
  188.9020  173.3330  140.7270 C   0  0  0  0  0  2  0  0  0  0  0  0
  187.0200  176.0840  144.3800 C   0  0  0  0  0  2  0  0  0  0  0  0
  186.9790  178.0880  147.6060 C   0  0  0  0  0  2  0  0  0  0  0  0
  188.8830  175.4780  142.8090 C   0  0  1  0  0  3  0  0  0  0  0  0
  192.3770  174.2040  142.2970 C   0  0  0  0  0  2  0  0  0  0  0  0
  187.4750  177.7820  146.1950 C   0  0  1  0  0  3  0  0  0  0  0  0
  184.5670  178.5860  147.1730 C   0  0  0  0  0  3  0  0  0  0  0  0
  190.1720  173.2030  141.5870 C   0  0  1  0  0  3  0  0  0  0  0  0
  189.3320  176.6190  145.0250 C   0  0  0  0  0  0  0  0  0  0  0  0
  185.3640  177.7020  144.9510 C   0  0  2  0  0  3  0  0  0  0  0  0
  188.3990  176.5010  143.8530 C   0  0  2  0  0  3  0  0  0  0  0  0
  190.9860  176.8890  147.2040 C   0  0  0  0  0  3  0  0  0  0  0  0
  188.5360  174.7710  140.3510 C   0  0  0  0  0  2  0  0  0  0  0  0
  189.7050  177.3430  147.2620 N   0  0  0  0  0  0  0  0  0  0  0  0
  188.0320  175.5960  141.5380 C   0  0  0  0  0  2  0  0  0  0  0  0
  191.0140  174.4960  141.6740 C   0  0  1  0  0  3  0  0  0  0  0  0
  191.4570  176.3140  146.0650 N   0  0  0  0  0  0  0  0  0  0  0  0
  191.1570  175.6010  143.7650 N   0  0  0  0  0  0  0  0  0  0  0  0
  185.7810  178.9780  144.2100 C   0  0  0  0  0  2  0  0  0  0  0  0
  185.5220  178.8370  142.7240 C   0  0  0  0  0  1  0  0  0  0  0  0
  189.8390  172.7190  142.8570 O   0  0  0  0  0  0  0  0  0  0  0  0
  189.8070  171.3300  142.7220 C   0  0  0  0  0  2  0  0  0  0  0  0
  192.4910  169.2050  143.3220 C   0  0  0  0  0  2  0  0  0  0  0  0
  190.9810  169.4490  141.5870 C   0  0  0  0  0  2  0  0  0  0  0  0
  191.1370  170.8330  142.1830 C   0  0  2  0  0  3  0  0  0  0  0  0
  192.1080  168.6460  142.0350 N   0  0  0  0  0  2  0  0  0  0  0  0
  192.1200  170.6710  143.3160 C   0  0  0  0  0  2  0  0  0  0  0  0
  1 16  2  0  0  0  0
  1 24  1  0  0  0  0
  2 25  1  0  0  0  0
  3 14  2  0  0  0  0
  4 21  2  0  0  0  0
  5  9  1  6  0  0  0
  5 13  1  0  0  0  0
  6 10  1  0  0  0  0
  7 11  1  0  0  0  0
  7 25  1  1  0  0  0
  8 15  1  0  0  0  0
 11 22  1  6  0  0  0
 11 18  1  0  0  0  0
 12  2  1  0  0  0  0
 13  4  1  0  0  0  0
 13 10  1  1  0  0  0
 14  6  1  0  0  0  0
 15 23  1  0  0  0  0
 15 28  1  1  0  0  0
 16  4  1  0  0  0  0
 17 26  1  1  0  0  0
 17  5  1  0  0  0  0
 17  3  1  0  0  0  0
 18  9  1  1  0  0  0
 18 16  1  0  0  0  0
 19 21  1  0  0  0  0
 20  8  1  0  0  0  0
 20 22  1  0  0  0  0
 23 12  1  1  0  0  0
 23  7  1  0  0  0  0
 24 19  2  0  0  0  0
 25  1  1  0  0  0  0
 27 26  1  0  0  0  0
 29 28  1  0  0  0  0
 31 33  1  0  0  0  0
 31 32  1  0  0  0  0
 32 29  1  1  0  0  0
 32 34  1  0  0  0  0
 33 30  1  0  0  0  0
 34 30  1  0  0  0  0
M  END
>  <MODEL>
2

>  <REMARK>
 VINA RESULT:      -7.7      2.419      5.120
  Name = 
  4 active torsions:
  status: ('A' for Active; 'I' for Inactive)
    1  A    between atoms: C_6  and  C_19
    2  A    between atoms: C_17  and  O_28
    3  A    between atoms: O_28  and  C_29
    4  A    between atoms: C_29  and  C_32
                            x       y       z     vdW  Elec       q    Type
                         _______ _______ _______ _____ _____    ______ ____

>  <TORSDO>
F 4

$$$$
=
 OpenBabel11112417463D

 34 40  0  0  1  0  0  0  0  0999 V2000
  192.3550  176.3300  146.1990 C   0  0  0  0  0  0  0  0  0  0  0  0
  194.7130  175.4050  146.0990 C   0  0  0  0  0  2  0  0  0  0  0  0
  186.1790  176.4810  143.7230 C   0  0  0  0  0  3  0  0  0  0  0  0
  190.0110  176.8400  146.2470 C   0  0  0  0  0  0  0  0  0  0  0  0
  188.4810  176.0280  144.4530 N   0  0  1  0  0  0  0  0  0  0  0  0
  186.4150  177.9690  145.7300 C   0  0  0  0  0  2  0  0  0  0  0  0
  193.5210  175.8100  144.0250 C   0  0  2  0  0  3  0  0  0  0  0  0
  193.7250  173.3080  141.9280 C   0  0  0  0  0  2  0  0  0  0  0  0
  189.6690  175.3810  143.8550 C   0  0  0  0  0  2  0  0  0  0  0  0
  187.5250  177.1870  146.4160 C   0  0  0  0  0  2  0  0  0  0  0  0
  192.1550  175.3020  143.5090 C   0  0  1  0  0  3  0  0  0  0  0  0
  195.5970  174.9230  144.9590 C   0  0  0  0  0  2  0  0  0  0  0  0
  188.7300  177.0650  145.4870 C   0  0  1  0  0  3  0  0  0  0  0  0
  185.6390  177.1100  144.7760 C   0  0  0  0  0  3  0  0  0  0  0  0
  194.3630  173.4520  143.3220 C   0  0  1  0  0  3  0  0  0  0  0  0
  191.1310  176.4290  145.5320 C   0  0  0  0  0  0  0  0  0  0  0  0
  187.6400  176.5300  143.3570 C   0  0  2  0  0  3  0  0  0  0  0  0
  190.9870  176.1370  144.0650 C   0  0  2  0  0  3  0  0  0  0  0  0
  191.3180  177.0000  148.2150 C   0  0  0  0  0  3  0  0  0  0  0  0
  193.2910  174.6300  141.2910 C   0  0  0  0  0  2  0  0  0  0  0  0
  190.1260  177.1310  147.5730 N   0  0  0  0  0  0  0  0  0  0  0  0
  192.0780  175.2620  141.9770 C   0  0  0  0  0  2  0  0  0  0  0  0
  194.7240  174.9050  143.7070 C   0  0  1  0  0  3  0  0  0  0  0  0
  192.4230  176.6000  147.5300 N   0  0  0  0  0  0  0  0  0  0  0  0
  193.5180  175.9280  145.4710 N   0  0  0  0  0  0  0  0  0  0  0  0
  188.0790  177.8980  142.8180 C   0  0  0  0  0  2  0  0  0  0  0  0
  187.9630  177.9350  141.3080 C   0  0  0  0  0  1  0  0  0  0  0  0
  193.5440  172.8530  144.2850 O   0  0  0  0  0  0  0  0  0  0  0  0
  193.6680  171.4790  144.0670 C   0  0  0  0  0  2  0  0  0  0  0  0
  190.3760  171.8200  143.0080 C   0  0  0  0  0  2  0  0  0  0  0  0
  192.0080  170.2060  142.7160 C   0  0  0  0  0  2  0  0  0  0  0  0
  192.2960  170.8310  144.0660 C   0  0  2  0  0  3  0  0  0  0  0  0
  190.6410  170.5480  142.3540 N   0  0  0  0  0  2  0  0  0  0  0  0
  191.2330  171.8840  144.2530 C   0  0  0  0  0  2  0  0  0  0  0  0
  1 24  1  0  0  0  0
  3 14  2  0  0  0  0
  4 21  2  0  0  0  0
  5  9  1  6  0  0  0
  5 13  1  0  0  0  0
  6 10  1  0  0  0  0
  7 25  1  1  0  0  0
  8 15  1  0  0  0  0
 11 22  1  6  0  0  0
 11  7  1  0  0  0  0
 11 18  1  0  0  0  0
 12  2  1  0  0  0  0
 13  4  1  0  0  0  0
 13 10  1  1  0  0  0
 14  6  1  0  0  0  0
 15 23  1  0  0  0  0
 15 28  1  1  0  0  0
 16  1  2  0  0  0  0
 16  4  1  0  0  0  0
 17 26  1  1  0  0  0
 17  3  1  0  0  0  0
 17  5  1  0  0  0  0
 18  9  1  1  0  0  0
 18 16  1  0  0  0  0
 20  8  1  0  0  0  0
 20 22  1  0  0  0  0
 21 19  1  0  0  0  0
 23  7  1  0  0  0  0
 23 12  1  1  0  0  0
 24 19  2  0  0  0  0
 25  2  1  0  0  0  0
 25  1  1  0  0  0  0
 27 26  1  0  0  0  0
 29 28  1  0  0  0  0
 30 34  1  0  0  0  0
 31 32  1  0  0  0  0
 32 29  1  6  0  0  0
 32 34  1  0  0  0  0
 33 31  1  0  0  0  0
 33 30  1  0  0  0  0
M  END
>  <MODEL>
3

>  <REMARK>
 VINA RESULT:      -7.6      2.256      4.990
  Name = 
  4 active torsions:
  status: ('A' for Active; 'I' for Inactive)
    1  A    between atoms: C_6  and  C_19
    2  A    between atoms: C_17  and  O_28
    3  A    between atoms: O_28  and  C_29
    4  A    between atoms: C_29  and  C_32
                            x       y       z     vdW  Elec       q    Type
                         _______ _______ _______ _____ _____    ______ ____

>  <TORSDO>
F 4

$$$$
=
 OpenBabel11112417463D

 34 40  0  0  1  0  0  0  0  0999 V2000
  191.4240  172.2900  143.6250 C   0  0  0  0  0  0  0  0  0  0  0  0
  193.4180  170.9350  144.4110 C   0  0  0  0  0  2  0  0  0  0  0  0
  188.8320  178.1990  141.9970 C   0  0  0  0  0  3  0  0  0  0  0  0
  189.7870  173.7440  142.6430 C   0  0  0  0  0  0  0  0  0  0  0  0
  190.1730  176.2030  142.4990 N   0  0  1  0  0  0  0  0  0  0  0  0
  187.1700  176.3400  141.7070 C   0  0  0  0  0  2  0  0  0  0  0  0
  193.0810  173.1620  145.3140 C   0  0  2  0  0  3  0  0  0  0  0  0
  195.8120  174.9620  145.3160 C   0  0  0  0  0  2  0  0  0  0  0  0
  191.4830  175.9460  143.1370 C   0  0  0  0  0  2  0  0  0  0  0  0
  188.1720  175.2330  141.4180 C   0  0  0  0  0  2  0  0  0  0  0  0
  192.9340  174.5380  144.6250 C   0  0  1  0  0  3  0  0  0  0  0  0
  194.5960  171.2440  145.3220 C   0  0  0  0  0  2  0  0  0  0  0  0
  189.1660  175.1140  142.5710 C   0  0  1  0  0  3  0  0  0  0  0  0
  187.7380  177.6960  141.4060 C   0  0  0  0  0  3  0  0  0  0  0  0
  195.6200  173.5050  144.8600 C   0  0  1  0  0  3  0  0  0  0  0  0
  190.9070  173.5760  143.4520 C   0  0  0  0  0  0  0  0  0  0  0  0
  189.6550  177.4720  143.0290 C   0  0  2  0  0  3  0  0  0  0  0  0
  191.4960  174.7800  144.1330 C   0  0  2  0  0  3  0  0  0  0  0  0
  189.7600  171.4200  142.1900 C   0  0  0  0  0  3  0  0  0  0  0  0
  194.7110  175.4880  146.2400 C   0  0  0  0  0  2  0  0  0  0  0  0
  189.2260  172.6620  142.0370 N   0  0  0  0  0  0  0  0  0  0  0  0
  193.3740  175.7010  145.5260 C   0  0  0  0  0  2  0  0  0  0  0  0
  194.5250  172.7370  145.6360 C   0  0  1  0  0  3  0  0  0  0  0  0
  190.8530  171.2390  142.9780 N   0  0  0  0  0  0  0  0  0  0  0  0
  192.5620  172.1010  144.4700 N   0  0  0  0  0  0  0  0  0  0  0  0
  188.9390  177.3320  144.3790 C   0  0  0  0  0  2  0  0  0  0  0  0
  189.8700  177.7070  145.5140 C   0  0  0  0  0  1  0  0  0  0  0  0
  195.3960  173.4630  143.4800 O   0  0  0  0  0  0  0  0  0  0  0  0
  196.6470  173.6880  142.9000 C   0  0  0  0  0  2  0  0  0  0  0  0
  194.8310  176.2820  141.4680 C   0  0  0  0  0  2  0  0  0  0  0  0
  197.0740  175.9330  141.9100 C   0  0  0  0  0  2  0  0  0  0  0  0
  196.4930  174.5550  141.6640 C   0  0  2  0  0  3  0  0  0  0  0  0
  196.1400  176.9090  141.3720 N   0  0  0  0  0  2  0  0  0  0  0  0
  195.0300  174.7850  141.3780 C   0  0  0  0  0  2  0  0  0  0  0  0
  1 25  1  0  0  0  0
  2 25  1  0  0  0  0
  2 12  1  0  0  0  0
  3 17  1  0  0  0  0
  4 16  2  0  0  0  0
  5 13  1  0  0  0  0
  5 17  1  0  0  0  0
  5  9  1  1  0  0  0
  7 25  1  6  0  0  0
  7 23  1  0  0  0  0
  8 20  1  0  0  0  0
 10  6  1  0  0  0  0
 11  7  1  0  0  0  0
 11 22  1  1  0  0  0
 13 10  1  6  0  0  0
 13  4  1  0  0  0  0
 14  6  1  0  0  0  0
 14  3  2  0  0  0  0
 15 28  1  6  0  0  0
 15  8  1  0  0  0  0
 15 23  1  0  0  0  0
 16  1  1  0  0  0  0
 16 18  1  0  0  0  0
 17 26  1  1  0  0  0
 18  9  1  6  0  0  0
 18 11  1  0  0  0  0
 19 24  1  0  0  0  0
 21 19  2  0  0  0  0
 21  4  1  0  0  0  0
 22 20  1  0  0  0  0
 23 12  1  6  0  0  0
 24  1  2  0  0  0  0
 26 27  1  0  0  0  0
 29 28  1  0  0  0  0
 32 31  1  0  0  0  0
 32 29  1  1  0  0  0
 33 30  1  0  0  0  0
 33 31  1  0  0  0  0
 34 30  1  0  0  0  0
 34 32  1  0  0  0  0
M  END
>  <MODEL>
4

>  <REMARK>
 VINA RESULT:      -7.5      2.337      3.321
  Name = 
  4 active torsions:
  status: ('A' for Active; 'I' for Inactive)
    1  A    between atoms: C_6  and  C_19
    2  A    between atoms: C_17  and  O_28
    3  A    between atoms: O_28  and  C_29
    4  A    between atoms: C_29  and  C_32
                            x       y       z     vdW  Elec       q    Type
                         _______ _______ _______ _____ _____    ______ ____

>  <TORSDO>
F 4

$$$$
=
 OpenBabel11112417463D

 34 40  0  0  1  0  0  0  0  0999 V2000
  192.4740  176.4240  146.3150 C   0  0  0  0  0  0  0  0  0  0  0  0
  194.8420  175.5420  146.1040 C   0  0  0  0  0  2  0  0  0  0  0  0
  186.1800  176.4290  144.1530 C   0  0  0  0  0  3  0  0  0  0  0  0
  190.1260  176.8900  146.4770 C   0  0  0  0  0  0  0  0  0  0  0  0
  188.5240  176.0290  144.7710 N   0  0  1  0  0  0  0  0  0  0  0  0
  186.4880  177.9450  146.1300 C   0  0  0  0  0  2  0  0  0  0  0  0
  193.5390  175.9010  144.0900 C   0  0  2  0  0  3  0  0  0  0  0  0
  193.6850  173.3790  142.0120 C   0  0  0  0  0  2  0  0  0  0  0  0
  189.6930  175.3970  144.1200 C   0  0  0  0  0  2  0  0  0  0  0  0
  187.6460  177.1920  146.7680 C   0  0  0  0  0  2  0  0  0  0  0  0
  192.1590  175.3610  143.6490 C   0  0  1  0  0  3  0  0  0  0  0  0
  195.6770  175.0640  144.9260 C   0  0  0  0  0  2  0  0  0  0  0  0
  188.8040  177.0820  145.7800 C   0  0  1  0  0  3  0  0  0  0  0  0
  185.6810  177.0600  145.2260 C   0  0  0  0  0  3  0  0  0  0  0  0
  194.3900  173.5510  143.3690 C   0  0  1  0  0  3  0  0  0  0  0  0
  191.2160  176.4910  145.7100 C   0  0  0  0  0  0  0  0  0  0  0  0
  187.6190  176.5030  143.7140 C   0  0  2  0  0  3  0  0  0  0  0  0
  191.0040  176.1800  144.2550 C   0  0  2  0  0  3  0  0  0  0  0  0
  191.5280  177.0970  148.3730 C   0  0  0  0  0  3  0  0  0  0  0  0
  193.1940  174.6850  141.3830 C   0  0  0  0  0  2  0  0  0  0  0  0
  190.3030  177.1980  147.7910 N   0  0  0  0  0  0  0  0  0  0  0  0
  192.0050  175.3020  142.1230 C   0  0  0  0  0  2  0  0  0  0  0  0
  194.7410  175.0140  143.7210 C   0  0  1  0  0  3  0  0  0  0  0  0
  192.6040  176.7100  147.6380 N   0  0  0  0  0  0  0  0  0  0  0  0
  193.6070  176.0350  145.5330 N   0  0  0  0  0  0  0  0  0  0  0  0
  188.0040  177.8720  143.1390 C   0  0  0  0  0  2  0  0  0  0  0  0
  188.1910  177.7830  141.6380 C   0  0  0  0  0  1  0  0  0  0  0  0
  193.6320  172.9470  144.3790 O   0  0  0  0  0  0  0  0  0  0  0  0
  194.0620  171.6190  144.4150 C   0  0  0  0  0  2  0  0  0  0  0  0
  195.9450  169.2910  146.1800 C   0  0  0  0  0  2  0  0  0  0  0  0
  196.2810  171.4880  145.5400 C   0  0  0  0  0  2  0  0  0  0  0  0
  194.7840  171.3470  145.7230 C   0  0  2  0  0  3  0  0  0  0  0  0
  196.9160  170.3720  146.2230 N   0  0  0  0  0  2  0  0  0  0  0  0
  194.5660  169.9140  146.1380 C   0  0  0  0  0  2  0  0  0  0  0  0
  1 24  1  0  0  0  0
  3 14  2  0  0  0  0
  4 21  2  0  0  0  0
  5  9  1  6  0  0  0
  5 13  1  0  0  0  0
  6 10  1  0  0  0  0
  7 25  1  1  0  0  0
  8 15  1  0  0  0  0
 11 22  1  6  0  0  0
 11  7  1  0  0  0  0
 11 18  1  0  0  0  0
 12  2  1  0  0  0  0
 13  4  1  0  0  0  0
 13 10  1  1  0  0  0
 14  6  1  0  0  0  0
 15 23  1  0  0  0  0
 15 28  1  1  0  0  0
 16  1  2  0  0  0  0
 16  4  1  0  0  0  0
 17 26  1  1  0  0  0
 17  3  1  0  0  0  0
 17  5  1  0  0  0  0
 18  9  1  1  0  0  0
 18 16  1  0  0  0  0
 20  8  1  0  0  0  0
 20 22  1  0  0  0  0
 21 19  1  0  0  0  0
 23  7  1  0  0  0  0
 23 12  1  1  0  0  0
 24 19  2  0  0  0  0
 25  2  1  0  0  0  0
 25  1  1  0  0  0  0
 27 26  1  0  0  0  0
 28 29  1  0  0  0  0
 30 33  1  0  0  0  0
 31 32  1  0  0  0  0
 31 33  1  0  0  0  0
 32 29  1  6  0  0  0
 32 34  1  0  0  0  0
 34 30  1  0  0  0  0
M  END
>  <MODEL>
5

>  <REMARK>
 VINA RESULT:      -7.4      2.832      5.006
  Name = 
  4 active torsions:
  status: ('A' for Active; 'I' for Inactive)
    1  A    between atoms: C_6  and  C_19
    2  A    between atoms: C_17  and  O_28
    3  A    between atoms: O_28  and  C_29
    4  A    between atoms: C_29  and  C_32
                            x       y       z     vdW  Elec       q    Type
                         _______ _______ _______ _____ _____    ______ ____

>  <TORSDO>
F 4

$$$$
=
 OpenBabel11112417463D

 34 40  0  0  1  0  0  0  0  0999 V2000
  189.7510  174.6610  142.1670 C   0  0  0  0  0  0  0  0  0  0  0  0
  188.7500  176.9170  142.7430 C   0  0  0  0  0  2  0  0  0  0  0  0
  192.8460  169.1190  144.1680 C   0  0  0  0  0  3  0  0  0  0  0  0
  190.5130  172.3970  141.9340 C   0  0  0  0  0  0  0  0  0  0  0  0
  191.5690  171.1930  143.8450 N   0  0  1  0  0  0  0  0  0  0  0  0
  192.3380  169.0670  141.7100 C   0  0  0  0  0  2  0  0  0  0  0  0
  190.7490  176.1880  143.9070 C   0  0  2  0  0  3  0  0  0  0  0  0
  190.5640  176.6120  147.1460 C   0  0  0  0  0  2  0  0  0  0  0  0
  191.3400  172.4230  144.6330 C   0  0  0  0  0  2  0  0  0  0  0  0
  191.1070  169.9590  141.7530 C   0  0  0  0  0  2  0  0  0  0  0  0
  191.0510  174.9150  144.7320 C   0  0  1  0  0  3  0  0  0  0  0  0
  189.0800  177.9690  143.7900 C   0  0  0  0  0  2  0  0  0  0  0  0
  191.4610  171.3100  142.3690 C   0  0  1  0  0  3  0  0  0  0  0  0
  192.6080  168.4310  143.0420 C   0  0  0  0  0  3  0  0  0  0  0  0
  189.5280  176.9740  146.0660 C   0  0  1  0  0  3  0  0  0  0  0  0
  190.5370  173.6020  142.6300 C   0  0  0  0  0  0  0  0  0  0  0  0
  192.8580  170.6230  144.2620 C   0  0  2  0  0  3  0  0  0  0  0  0
  191.4320  173.7270  143.8310 C   0  0  2  0  0  3  0  0  0  0  0  0
  188.9420  173.3010  140.4110 C   0  0  0  0  0  3  0  0  0  0  0  0
  191.9860  176.4110  146.6170 C   0  0  0  0  0  2  0  0  0  0  0  0
  189.7260  172.2720  140.8300 N   0  0  0  0  0  0  0  0  0  0  0  0
  192.1470  175.1380  145.7840 C   0  0  0  0  0  2  0  0  0  0  0  0
  190.1430  177.3590  144.7010 C   0  0  1  0  0  3  0  0  0  0  0  0
  188.9560  174.4860  141.0780 N   0  0  0  0  0  0  0  0  0  0  0  0
  189.7830  175.9110  142.8610 N   0  0  0  0  0  0  0  0  0  0  0  0
  194.0680  171.2590  143.5680 C   0  0  0  0  0  2  0  0  0  0  0  0
  194.9680  171.9340  144.5840 C   0  0  0  0  0  1  0  0  0  0  0  0
  188.5950  175.9390  145.9360 O   0  0  0  0  0  0  0  0  0  0  0  0
  187.5920  176.2320  146.8620 C   0  0  0  0  0  2  0  0  0  0  0  0
  184.4430  177.6600  146.5110 C   0  0  0  0  0  2  0  0  0  0  0  0
  186.3700  178.2580  147.6420 C   0  0  0  0  0  2  0  0  0  0  0  0
  186.8400  177.4780  146.4300 C   0  0  2  0  0  3  0  0  0  0  0  0
  184.9980  178.6730  147.3950 N   0  0  0  0  0  2  0  0  0  0  0  0
  185.5820  177.0870  145.6960 C   0  0  0  0  0  2  0  0  0  0  0  0
  1 16  1  0  0  0  0
  1 25  1  0  0  0  0
  2 25  1  0  0  0  0
  2 12  1  0  0  0  0
  3 17  1  0  0  0  0
  4 13  1  0  0  0  0
  4 16  2  0  0  0  0
  5 17  1  0  0  0  0
  5  9  1  1  0  0  0
  6 10  1  0  0  0  0
  6 14  1  0  0  0  0
  7 25  1  6  0  0  0
  7 23  1  0  0  0  0
  7 11  1  0  0  0  0
 11 22  1  1  0  0  0
 13 10  1  1  0  0  0
 13  5  1  0  0  0  0
 14  3  2  0  0  0  0
 15 28  1  6  0  0  0
 15  8  1  0  0  0  0
 16 18  1  0  0  0  0
 17 26  1  6  0  0  0
 18  9  1  1  0  0  0
 18 11  1  0  0  0  0
 19 21  2  0  0  0  0
 19 24  1  0  0  0  0
 20  8  1  0  0  0  0
 21  4  1  0  0  0  0
 22 20  1  0  0  0  0
 23 12  1  6  0  0  0
 23 15  1  0  0  0  0
 24  1  2  0  0  0  0
 26 27  1  0  0  0  0
 28 29  1  0  0  0  0
 30 33  1  0  0  0  0
 32 29  1  1  0  0  0
 32 31  1  0  0  0  0
 33 31  1  0  0  0  0
 34 32  1  0  0  0  0
 34 30  1  0  0  0  0
M  END
>  <MODEL>
6

>  <REMARK>
 VINA RESULT:      -7.4      2.724      7.521
  Name = 
  4 active torsions:
  status: ('A' for Active; 'I' for Inactive)
    1  A    between atoms: C_6  and  C_19
    2  A    between atoms: C_17  and  O_28
    3  A    between atoms: O_28  and  C_29
    4  A    between atoms: C_29  and  C_32
                            x       y       z     vdW  Elec       q    Type
                         _______ _______ _______ _____ _____    ______ ____

>  <TORSDO>
F 4

$$$$
=
 OpenBabel11112417463D

 34 40  0  0  1  0  0  0  0  0999 V2000
  192.3270  176.0910  145.8900 C   0  0  0  0  0  0  0  0  0  0  0  0
  189.9990  176.1840  146.8880 C   0  0  0  0  0  2  0  0  0  0  0  0
  196.2070  175.6640  140.5000 C   0  0  0  0  0  3  0  0  0  0  0  0
  194.3980  176.2580  144.6900 C   0  0  0  0  0  0  0  0  0  0  0  0
  194.4750  175.9800  142.2130 N   0  0  1  0  0  0  0  0  0  0  0  0
  197.5580  175.8730  142.6060 C   0  0  0  0  0  2  0  0  0  0  0  0
  190.3920  174.7760  144.9530 C   0  0  2  0  0  3  0  0  0  0  0  0
  188.1190  175.1410  142.6280 C   0  0  0  0  0  2  0  0  0  0  0  0
  193.0090  175.7950  142.2770 C   0  0  0  0  0  2  0  0  0  0  0  0
  196.5300  176.6520  143.4130 C   0  0  0  0  0  2  0  0  0  0  0  0
  190.9630  175.0910  143.5510 C   0  0  1  0  0  3  0  0  0  0  0  0
  188.6620  175.5870  146.4760 C   0  0  0  0  0  2  0  0  0  0  0  0
  195.2230  175.8670  143.4910 C   0  0  1  0  0  3  0  0  0  0  0  0
  197.3350  176.0250  141.1300 C   0  0  0  0  0  3  0  0  0  0  0  0
  188.2070  175.8240  144.0050 C   0  0  1  0  0  3  0  0  0  0  0  0
  193.0720  175.8400  144.7350 C   0  0  0  0  0  0  0  0  0  0  0  0
  195.0010  175.0730  141.1820 C   0  0  2  0  0  3  0  0  0  0  0  0
  192.5020  175.1090  143.5520 C   0  0  2  0  0  3  0  0  0  0  0  0
  194.1920  177.1660  146.8660 C   0  0  0  0  0  3  0  0  0  0  0  0
  188.9500  173.8620  142.5010 C   0  0  0  0  0  2  0  0  0  0  0  0
  194.9390  176.9010  145.7610 N   0  0  0  0  0  0  0  0  0  0  0  0
  190.4580  174.1220  142.4730 C   0  0  0  0  0  2  0  0  0  0  0  0
  188.8710  174.9580  145.1010 C   0  0  1  0  0  3  0  0  0  0  0  0
  192.8950  176.7630  146.9270 N   0  0  0  0  0  0  0  0  0  0  0  0
  190.9690  175.6490  145.9570 N   0  0  0  0  0  0  0  0  0  0  0  0
  195.2310  173.6410  141.6790 C   0  0  0  0  0  2  0  0  0  0  0  0
  194.4110  172.6590  140.8670 C   0  0  0  0  0  1  0  0  0  0  0  0
  188.8370  177.0670  143.8810 O   0  0  0  0  0  0  0  0  0  0  0  0
  187.8680  177.9160  143.3420 C   0  0  0  0  0  2  0  0  0  0  0  0
  185.0090  179.4940  144.5300 C   0  0  0  0  0  2  0  0  0  0  0  0
  185.3990  177.7460  143.0670 C   0  0  0  0  0  2  0  0  0  0  0  0
  186.5450  177.7060  144.0570 C   0  0  2  0  0  3  0  0  0  0  0  0
  184.3370  178.5480  143.6530 N   0  0  0  0  0  2  0  0  0  0  0  0
  186.2910  178.8480  145.0080 C   0  0  0  0  0  2  0  0  0  0  0  0
  1 25  1  0  0  0  0
  1 24  1  0  0  0  0
  3 14  2  0  0  0  0
  3 17  1  0  0  0  0
  4 16  1  0  0  0  0
  4 21  2  0  0  0  0
  5  9  1  1  0  0  0
  5 13  1  0  0  0  0
  6 10  1  0  0  0  0
  7 23  1  0  0  0  0
  7 25  1  1  0  0  0
  8 15  1  0  0  0  0
 11 22  1  6  0  0  0
 11 18  1  0  0  0  0
 11  7  1  0  0  0  0
 12  2  1  0  0  0  0
 13 10  1  6  0  0  0
 13  4  1  0  0  0  0
 14  6  1  0  0  0  0
 15 28  1  6  0  0  0
 15 23  1  0  0  0  0
 16  1  2  0  0  0  0
 17 26  1  1  0  0  0
 17  5  1  0  0  0  0
 18  9  1  6  0  0  0
 18 16  1  0  0  0  0
 19 24  2  0  0  0  0
 20  8  1  0  0  0  0
 21 19  1  0  0  0  0
 22 20  1  0  0  0  0
 23 12  1  1  0  0  0
 25  2  1  0  0  0  0
 27 26  1  0  0  0  0
 29 28  1  0  0  0  0
 30 34  1  0  0  0  0
 31 33  1  0  0  0  0
 31 32  1  0  0  0  0
 32 29  1  6  0  0  0
 32 34  1  0  0  0  0
 33 30  1  0  0  0  0
M  END
>  <MODEL>
7

>  <REMARK>
 VINA RESULT:      -7.3      2.046      8.199
  Name = 
  4 active torsions:
  status: ('A' for Active; 'I' for Inactive)
    1  A    between atoms: C_6  and  C_19
    2  A    between atoms: C_17  and  O_28
    3  A    between atoms: O_28  and  C_29
    4  A    between atoms: C_29  and  C_32
                            x       y       z     vdW  Elec       q    Type
                         _______ _______ _______ _____ _____    ______ ____

>  <TORSDO>
F 4

$$$$
=
 OpenBabel11112417463D

 34 40  0  0  1  0  0  0  0  0999 V2000
  193.7030  175.5480  143.3200 C   0  0  0  0  0  0  0  0  0  0  0  0
  193.7930  176.7450  145.5530 C   0  0  0  0  0  2  0  0  0  0  0  0
  190.1290  172.3410  138.7120 C   0  0  0  0  0  3  0  0  0  0  0  0
  193.3000  174.6250  141.1410 C   0  0  0  0  0  0  0  0  0  0  0  0
  191.0660  173.7050  140.5280 N   0  0  1  0  0  0  0  0  0  0  0  0
  192.5320  172.5810  138.0270 C   0  0  0  0  0  2  0  0  0  0  0  0
  192.3140  174.8390  145.3010 C   0  0  2  0  0  3  0  0  0  0  0  0
  189.3100  175.3940  146.4720 C   0  0  0  0  0  2  0  0  0  0  0  0
  190.6300  174.0930  141.8870 C   0  0  0  0  0  2  0  0  0  0  0  0
  192.8200  173.8630  138.7930 C   0  0  0  0  0  2  0  0  0  0  0  0
  191.1770  174.5470  144.2950 C   0  0  1  0  0  3  0  0  0  0  0  0
  193.0140  176.5950  146.8500 C   0  0  0  0  0  2  0  0  0  0  0  0
  192.5290  173.6620  140.2780 C   0  0  1  0  0  3  0  0  0  0  0  0
  191.0650  172.4140  137.7550 C   0  0  0  0  0  3  0  0  0  0  0  0
  190.5330  176.3300  146.4730 C   0  0  1  0  0  3  0  0  0  0  0  0
  192.9250  174.7500  142.4750 C   0  0  0  0  0  0  0  0  0  0  0  0
  190.4090  172.4340  140.1890 C   0  0  2  0  0  3  0  0  0  0  0  0
  191.7190  173.9990  142.9630 C   0  0  2  0  0  3  0  0  0  0  0  0
  195.1320  176.0790  141.5140 C   0  0  0  0  0  3  0  0  0  0  0  0
  189.6460  173.9140  146.2750 C   0  0  0  0  0  2  0  0  0  0  0  0
  194.4040  175.2810  140.6870 N   0  0  0  0  0  0  0  0  0  0  0  0
  190.1210  173.5850  144.8580 C   0  0  0  0  0  2  0  0  0  0  0  0
  191.8910  175.5990  146.5710 C   0  0  1  0  0  3  0  0  0  0  0  0
  194.7800  176.2100  142.8200 N   0  0  0  0  0  0  0  0  0  0  0  0
  193.3400  175.6690  144.6980 N   0  0  0  0  0  0  0  0  0  0  0  0
  191.1300  171.1990  140.7430 C   0  0  0  0  0  2  0  0  0  0  0  0
  190.3810  170.6370  141.9340 C   0  0  0  0  0  1  0  0  0  0  0  0
  190.4840  177.1770  145.3600 O   0  0  0  0  0  0  0  0  0  0  0  0
  189.1290  177.4490  145.1670 C   0  0  0  0  0  2  0  0  0  0  0  0
  187.2720  178.3550  142.3720 C   0  0  0  0  0  2  0  0  0  0  0  0
  189.4920  177.8120  142.7290 C   0  0  0  0  0  2  0  0  0  0  0  0
  188.7130  177.0300  143.7680 C   0  0  2  0  0  3  0  0  0  0  0  0
  188.5550  178.2300  141.6990 N   0  0  0  0  0  2  0  0  0  0  0  0
  187.2670  177.3870  143.5350 C   0  0  0  0  0  2  0  0  0  0  0  0
  1 25  1  0  0  0  0
  2 12  1  0  0  0  0
  3 17  1  0  0  0  0
  4 16  1  0  0  0  0
  5  9  1  1  0  0  0
  6 10  1  0  0  0  0
  7 25  1  6  0  0  0
  7 23  1  0  0  0  0
  8 15  1  0  0  0  0
 11 22  1  1  0  0  0
 11  7  1  0  0  0  0
 13 10  1  6  0  0  0
 13  5  1  0  0  0  0
 13  4  1  0  0  0  0
 14  6  1  0  0  0  0
 14  3  2  0  0  0  0
 15 28  1  6  0  0  0
 15 23  1  0  0  0  0
 16 18  1  0  0  0  0
 16  1  2  0  0  0  0
 17  5  1  0  0  0  0
 17 26  1  6  0  0  0
 18  9  1  6  0  0  0
 18 11  1  0  0  0  0
 19 24  2  0  0  0  0
 20  8  1  0  0  0  0
 21  4  2  0  0  0  0
 21 19  1  0  0  0  0
 22 20  1  0  0  0  0
 23 12  1  6  0  0  0
 24  1  1  0  0  0  0
 25  2  1  0  0  0  0
 26 27  1  0  0  0  0
 29 28  1  0  0  0  0
 30 34  1  0  0  0  0
 31 32  1  0  0  0  0
 32 29  1  1  0  0  0
 33 30  1  0  0  0  0
 33 31  1  0  0  0  0
 34 32  1  0  0  0  0
M  END
>  <MODEL>
8

>  <REMARK>
 VINA RESULT:      -7.1      2.408      6.563
  Name = 
  4 active torsions:
  status: ('A' for Active; 'I' for Inactive)
    1  A    between atoms: C_6  and  C_19
    2  A    between atoms: C_17  and  O_28
    3  A    between atoms: O_28  and  C_29
    4  A    between atoms: C_29  and  C_32
                            x       y       z     vdW  Elec       q    Type
                         _______ _______ _______ _____ _____    ______ ____

>  <TORSDO>
F 4

$$$$
=
 OpenBabel11112417463D

 34 40  0  0  1  0  0  0  0  0999 V2000
  190.3000  173.2160  142.5280 C   0  0  0  0  0  0  0  0  0  0  0  0
  188.1940  174.5230  141.9960 C   0  0  0  0  0  2  0  0  0  0  0  0
  196.0410  172.7690  145.8640 C   0  0  0  0  0  3  0  0  0  0  0  0
  192.2180  172.0680  143.4000 C   0  0  0  0  0  0  0  0  0  0  0  0
  193.8010  173.2060  144.9540 N   0  0  1  0  0  0  0  0  0  0  0  0
  195.6190  170.7330  144.4580 C   0  0  0  0  0  2  0  0  0  0  0  0
  190.2670  175.7310  142.3550 C   0  0  2  0  0  3  0  0  0  0  0  0
  189.9190  178.2900  144.3630 C   0  0  0  0  0  2  0  0  0  0  0  0
  192.9190  174.3890  144.8460 C   0  0  0  0  0  2  0  0  0  0  0  0
  194.1000  170.7970  144.4830 C   0  0  0  0  0  2  0  0  0  0  0  0
  191.2560  175.7440  143.5430 C   0  0  1  0  0  3  0  0  0  0  0  0
  187.8770  176.0090  141.9280 C   0  0  0  0  0  2  0  0  0  0  0  0
  193.6240  172.1400  143.9350 C   0  0  1  0  0  3  0  0  0  0  0  0
  196.2250  171.4640  145.6210 C   0  0  0  0  0  3  0  0  0  0  0  0
  188.8470  177.3030  143.8650 C   0  0  1  0  0  3  0  0  0  0  0  0
  191.5580  173.2640  143.1360 C   0  0  0  0  0  0  0  0  0  0  0  0
  195.1900  173.6830  145.0210 C   0  0  2  0  0  3  0  0  0  0  0  0
  192.2360  174.5580  143.4840 C   0  0  2  0  0  3  0  0  0  0  0  0
  190.3910  170.8550  142.5090 C   0  0  0  0  0  3  0  0  0  0  0  0
  191.1910  178.3250  143.5130 C   0  0  0  0  0  2  0  0  0  0  0  0
  191.6290  170.8850  143.0710 N   0  0  0  0  0  0  0  0  0  0  0  0
  192.0410  177.0590  143.6460 C   0  0  0  0  0  2  0  0  0  0  0  0
  189.1100  176.7420  142.4490 C   0  0  1  0  0  3  0  0  0  0  0  0
  189.7330  172.0140  142.2420 N   0  0  0  0  0  0  0  0  0  0  0  0
  189.6190  174.4380  142.2320 N   0  0  0  0  0  0  0  0  0  0  0  0
  195.8070  173.9830  143.6490 C   0  0  0  0  0  2  0  0  0  0  0  0
  196.2020  175.4430  143.5520 C   0  0  0  0  0  1  0  0  0  0  0  0
  188.6740  176.2770  144.8000 O   0  0  0  0  0  0  0  0  0  0  0  0
  187.8610  176.8230  145.7960 C   0  0  0  0  0  2  0  0  0  0  0  0
  184.6500  177.9050  146.5660 C   0  0  0  0  0  2  0  0  0  0  0  0
  186.3150  178.6670  145.1540 C   0  0  0  0  0  2  0  0  0  0  0  0
  186.4990  177.1640  145.2200 C   0  0  2  0  0  3  0  0  0  0  0  0
  184.9740  178.9690  145.6290 N   0  0  0  0  0  2  0  0  0  0  0  0
  185.4140  176.6700  146.1430 C   0  0  0  0  0  2  0  0  0  0  0  0
  1 16  1  0  0  0  0
  2 25  1  0  0  0  0
  4 13  1  0  0  0  0
  5  9  1  6  0  0  0
  5 17  1  0  0  0  0
  6 10  1  0  0  0  0
  6 14  1  0  0  0  0
  7 25  1  1  0  0  0
  7 23  1  0  0  0  0
  7 11  1  0  0  0  0
 11 22  1  6  0  0  0
 12  2  1  0  0  0  0
 13 10  1  1  0  0  0
 13  5  1  0  0  0  0
 14  3  2  0  0  0  0
 15  8  1  0  0  0  0
 15 28  1  1  0  0  0
 16  4  2  0  0  0  0
 16 18  1  0  0  0  0
 17 26  1  6  0  0  0
 17  3  1  0  0  0  0
 18 11  1  0  0  0  0
 18  9  1  1  0  0  0
 19 21  2  0  0  0  0
 20 22  1  0  0  0  0
 20  8  1  0  0  0  0
 21  4  1  0  0  0  0
 23 12  1  1  0  0  0
 23 15  1  0  0  0  0
 24 19  1  0  0  0  0
 24  1  2  0  0  0  0
 25  1  1  0  0  0  0
 27 26  1  0  0  0  0
 28 29  1  0  0  0  0
 31 32  1  0  0  0  0
 31 33  1  0  0  0  0
 32 29  1  1  0  0  0
 32 34  1  0  0  0  0
 33 30  1  0  0  0  0
 34 30  1  0  0  0  0
M  END
>  <MODEL>
9

>  <REMARK>
 VINA RESULT:      -7.0      2.281      7.927
  Name = 
  4 active torsions:
  status: ('A' for Active; 'I' for Inactive)
    1  A    between atoms: C_6  and  C_19
    2  A    between atoms: C_17  and  O_28
    3  A    between atoms: O_28  and  C_29
    4  A    between atoms: C_29  and  C_32
                            x       y       z     vdW  Elec       q    Type
                         _______ _______ _______ _____ _____    ______ ____

>  <TORSDO>
F 4

$$$$
