=
 OpenBabel11112417573D

 34 40  0  0  1  0  0  0  0  0999 V2000
  191.1620  176.2540  146.2030 C   0  0  0  0  0  0  0  0  0  0  0  0
  193.6310  176.3810  146.4730 C   0  0  0  0  0  3  0  0  0  0  0  0
  187.4870  178.3860  142.2130 C   0  0  0  0  0  2  0  0  0  0  0  0
  188.8800  176.5370  145.4130 C   0  0  0  0  0  0  0  0  0  0  0  0
  188.2460  175.6300  143.2000 C   0  0  0  0  0  0  0  0  0  0  0  0
  187.5490  176.2400  140.8760 C   0  0  0  0  0  2  0  0  0  0  0  0
  186.9700  177.6540  140.9670 C   0  0  0  0  0  2  0  0  0  0  0  0
  185.8310  177.4660  143.5120 C   0  0  0  0  0  2  0  0  0  0  0  0
  192.7320  174.7890  144.9470 C   0  0  1  0  0  3  0  0  0  0  0  0
  194.2610  175.8000  142.3340 C   0  0  0  0  0  2  0  0  0  0  0  0
  189.4770  175.2430  143.0350 N   0  0  0  0  0  0  0  0  0  0  0  0
  186.4940  176.7520  144.6900 C   0  0  0  0  0  2  0  0  0  0  0  0
  191.8390  174.9850  143.7990 N   0  0  2  0  0  0  0  0  0  0  0  0
  194.5820  176.0480  145.6630 N   0  0  0  0  0  0  0  0  0  0  0  0
  187.8700  176.3250  144.4110 N   0  0  0  0  0  0  0  0  0  0  0  0
  186.4780  178.6670  143.1610 O   0  0  0  0  0  0  0  0  0  0  0  0
  194.8250  174.8960  143.4280 C   0  0  2  0  0  3  0  0  0  0  0  0
  190.1750  176.0230  145.2170 C   0  0  0  0  0  0  0  0  0  0  0  0
  187.3250  175.5020  142.1140 N   0  0  0  0  0  2  0  0  0  0  0  0
  190.4830  175.4140  144.0480 C   0  0  1  0  0  3  0  0  0  0  0  0
  189.5640  177.5640  147.4490 C   0  0  0  0  0  3  0  0  0  0  0  0
  193.0240  175.2110  141.6480 C   0  0  0  0  0  2  0  0  0  0  0  0
  188.6120  177.2880  146.5190 N   0  0  0  0  0  0  0  0  0  0  0  0
  192.1640  174.3170  142.5440 C   0  0  0  0  0  2  0  0  0  0  0  0
  194.1150  175.1640  144.6780 N   0  0  0  0  0  0  0  0  0  0  0  0
  190.8570  177.0620  147.3030 C   0  0  0  0  0  3  0  0  0  0  0  0
  192.3910  175.7430  146.0420 C   0  0  2  0  0  3  0  0  0  0  0  0
  196.3210  175.1230  143.5910 C   0  0  0  0  0  2  0  0  0  0  0  0
  197.0990  173.9650  142.9870 C   0  0  0  0  0  2  0  0  0  0  0  0
  196.9750  173.2400  146.3090 C   0  0  0  0  0  2  0  0  0  0  0  0
  197.0520  172.0130  144.2850 C   0  0  0  0  0  2  0  0  0  0  0  0
  197.7980  173.2400  144.0360 N   0  0  0  0  0  0  0  0  0  0  0  0
  196.9530  171.8350  145.7770 C   0  0  0  0  0  2  0  0  0  0  0  0
  197.6990  174.0450  145.2490 C   0  0  0  0  0  2  0  0  0  0  0  0
  1 26  1  0  0  0  0
  3 16  1  0  0  0  0
  4 23  2  0  0  0  0
  5 15  1  0  0  0  0
  6  7  1  0  0  0  0
  6 19  1  0  0  0  0
  7  3  1  0  0  0  0
  8 12  1  0  0  0  0
  9 25  1  6  0  0  0
  9 27  1  0  0  0  0
 10 17  1  0  0  0  0
 11  5  2  0  0  0  0
 13 24  1  1  0  0  0
 13 20  1  0  0  0  0
 13  9  1  0  0  0  0
 14  2  2  0  0  0  0
 15 12  1  0  0  0  0
 15  4  1  0  0  0  0
 16  8  1  0  0  0  0
 17 28  1  1  0  0  0
 17 25  1  0  0  0  0
 18  4  1  0  0  0  0
 18  1  2  0  0  0  0
 19  5  1  0  0  0  0
 20 11  1  6  0  0  0
 20 18  1  0  0  0  0
 22 10  1  0  0  0  0
 22 24  1  0  0  0  0
 23 21  1  0  0  0  0
 25 14  1  0  0  0  0
 26 21  2  0  0  0  0
 27  1  1  0  0  0  0
 27  2  1  6  0  0  0
 29 28  1  0  0  0  0
 29 32  1  0  0  0  0
 31 33  1  0  0  0  0
 32 31  1  0  0  0  0
 32 34  1  0  0  0  0
 33 30  1  0  0  0  0
 34 30  1  0  0  0  0
M  END
>  <MODEL>
1

>  <REMARK>
 VINA RESULT:      -8.2      0.000      0.000
  Name = 
  3 active torsions:
  status: ('A' for Active; 'I' for Inactive)
    1  A    between atoms: C_17  and  C_28
    2  A    between atoms: C_28  and  C_29
    3  A    between atoms: C_29  and  N_32
                            x       y       z     vdW  Elec       q    Type
                         _______ _______ _______ _____ _____    ______ ____

>  <TORSDO>
F 3

$$$$
=
 OpenBabel11112417573D

 34 40  0  0  1  0  0  0  0  0999 V2000
  191.4110  175.9620  144.9200 C   0  0  0  0  0  0  0  0  0  0  0  0
  189.7720  177.4540  146.0470 C   0  0  0  0  0  3  0  0  0  0  0  0
  190.9800  170.6450  142.5680 C   0  0  0  0  0  2  0  0  0  0  0  0
  192.4820  174.0810  143.8120 C   0  0  0  0  0  0  0  0  0  0  0  0
  191.7080  173.4040  141.5620 C   0  0  0  0  0  0  0  0  0  0  0  0
  190.5580  171.6000  140.2640 C   0  0  0  0  0  2  0  0  0  0  0  0
  190.7110  170.3210  141.0920 C   0  0  0  0  0  2  0  0  0  0  0  0
  193.2350  170.8360  142.1750 C   0  0  0  0  0  2  0  0  0  0  0  0
  189.7940  177.3770  143.6680 C   0  0  1  0  0  3  0  0  0  0  0  0
  186.7540  176.5000  143.2470 C   0  0  0  0  0  2  0  0  0  0  0  0
  190.7980  174.3320  141.6230 N   0  0  0  0  0  0  0  0  0  0  0  0
  193.6870  172.2140  142.6620 C   0  0  0  0  0  2  0  0  0  0  0  0
  189.6470  176.2330  142.7610 N   0  0  2  0  0  0  0  0  0  0  0  0
  188.6340  177.9100  145.6400 N   0  0  0  0  0  0  0  0  0  0  0  0
  192.6080  173.2070  142.6750 N   0  0  0  0  0  0  0  0  0  0  0  0
  192.2640  170.2490  143.0080 O   0  0  0  0  0  0  0  0  0  0  0  0
  187.2660  177.9130  143.5150 C   0  0  2  0  0  3  0  0  0  0  0  0
  191.5360  175.1220  143.7890 C   0  0  0  0  0  0  0  0  0  0  0  0
  191.6960  172.4910  140.4610 N   0  0  0  0  0  2  0  0  0  0  0  0
  190.6910  175.2360  142.7380 C   0  0  1  0  0  3  0  0  0  0  0  0
  193.0780  174.6310  146.0500 C   0  0  0  0  0  3  0  0  0  0  0  0
  187.3370  175.8830  141.9710 C   0  0  0  0  0  2  0  0  0  0  0  0
  193.2240  173.8670  144.9350 N   0  0  0  0  0  0  0  0  0  0  0  0
  188.7480  176.3600  141.6200 C   0  0  0  0  0  2  0  0  0  0  0  0
  188.5320  177.8290  144.2420 N   0  0  0  0  0  0  0  0  0  0  0  0
  192.1630  175.6840  146.0660 C   0  0  0  0  0  3  0  0  0  0  0  0
  190.5350  176.9770  144.8990 C   0  0  2  0  0  3  0  0  0  0  0  0
  186.2380  178.7140  144.3020 C   0  0  0  0  0  2  0  0  0  0  0  0
  184.9770  177.8930  144.5110 C   0  0  0  0  0  2  0  0  0  0  0  0
  186.0660  177.0360  147.6180 C   0  0  0  0  0  2  0  0  0  0  0  0
  185.3330  179.0120  146.5400 C   0  0  0  0  0  2  0  0  0  0  0  0
  184.5970  177.9210  145.9140 N   0  0  0  0  0  0  0  0  0  0  0  0
  185.8690  178.5060  147.8530 C   0  0  0  0  0  2  0  0  0  0  0  0
  185.0900  176.6850  146.5130 C   0  0  0  0  0  2  0  0  0  0  0  0
  1 26  1  0  0  0  0
  3 16  1  0  0  0  0
  4 23  2  0  0  0  0
  5 11  2  0  0  0  0
  5 15  1  0  0  0  0
  6 19  1  0  0  0  0
  6  7  1  0  0  0  0
  7  3  1  0  0  0  0
  8 12  1  0  0  0  0
  8 16  1  0  0  0  0
  9 25  1  1  0  0  0
  9 27  1  0  0  0  0
 10 17  1  0  0  0  0
 12 15  1  0  0  0  0
 13 24  1  6  0  0  0
 13  9  1  0  0  0  0
 14  2  2  0  0  0  0
 15  4  1  0  0  0  0
 17 25  1  0  0  0  0
 17 28  1  1  0  0  0
 18  4  1  0  0  0  0
 18  1  2  0  0  0  0
 19  5  1  0  0  0  0
 20 11  1  1  0  0  0
 20 13  1  0  0  0  0
 20 18  1  0  0  0  0
 21 26  2  0  0  0  0
 22 10  1  0  0  0  0
 23 21  1  0  0  0  0
 24 22  1  0  0  0  0
 25 14  1  0  0  0  0
 27  1  1  0  0  0  0
 27  2  1  1  0  0  0
 28 29  1  0  0  0  0
 29 32  1  0  0  0  0
 30 33  1  0  0  0  0
 31 33  1  0  0  0  0
 32 34  1  0  0  0  0
 32 31  1  0  0  0  0
 34 30  1  0  0  0  0
M  END
>  <MODEL>
2

>  <REMARK>
 VINA RESULT:      -8.1      3.005      7.820
  Name = 
  3 active torsions:
  status: ('A' for Active; 'I' for Inactive)
    1  A    between atoms: C_17  and  C_28
    2  A    between atoms: C_28  and  C_29
    3  A    between atoms: C_29  and  N_32
                            x       y       z     vdW  Elec       q    Type
                         _______ _______ _______ _____ _____    ______ ____

>  <TORSDO>
F 3

$$$$
=
 OpenBabel11112417573D

 34 40  0  0  1  0  0  0  0  0999 V2000
  190.4390  173.0960  143.3680 C   0  0  0  0  0  0  0  0  0  0  0  0
  188.2750  173.6800  142.2910 C   0  0  0  0  0  3  0  0  0  0  0  0
  195.8830  175.0610  142.6700 C   0  0  0  0  0  2  0  0  0  0  0  0
  192.7920  172.9720  143.9700 C   0  0  0  0  0  0  0  0  0  0  0  0
  193.8950  174.9600  144.9480 C   0  0  0  0  0  0  0  0  0  0  0  0
  195.6190  176.7300  144.5520 C   0  0  0  0  0  2  0  0  0  0  0  0
  196.5640  176.1680  143.4860 C   0  0  0  0  0  2  0  0  0  0  0  0
  196.4600  173.4750  144.2280 C   0  0  0  0  0  2  0  0  0  0  0  0
  189.0950  175.0800  144.0340 C   0  0  1  0  0  3  0  0  0  0  0  0
  189.1770  177.8080  142.3790 C   0  0  0  0  0  2  0  0  0  0  0  0
  192.7790  175.6150  144.8090 N   0  0  0  0  0  0  0  0  0  0  0  0
  195.1830  172.7660  144.6790 C   0  0  0  0  0  2  0  0  0  0  0  0
  190.3770  175.7840  144.1520 N   0  0  2  0  0  0  0  0  0  0  0  0
  187.6710  174.8180  142.1840 N   0  0  0  0  0  0  0  0  0  0  0  0
  193.9760  173.5830  144.5150 N   0  0  0  0  0  0  0  0  0  0  0  0
  196.4620  173.7850  142.8550 O   0  0  0  0  0  0  0  0  0  0  0  0
  187.9530  177.1790  143.0390 C   0  0  2  0  0  3  0  0  0  0  0  0
  191.5900  173.7030  143.9220 C   0  0  0  0  0  0  0  0  0  0  0  0
  195.0650  175.6610  145.3760 N   0  0  0  0  0  2  0  0  0  0  0  0
  191.5810  175.0010  144.3040 C   0  0  1  0  0  3  0  0  0  0  0  0
  191.7590  171.1410  142.8540 C   0  0  0  0  0  3  0  0  0  0  0  0
  190.2990  178.1240  143.3760 C   0  0  0  0  0  2  0  0  0  0  0  0
  192.8410  171.7180  143.4390 N   0  0  0  0  0  0  0  0  0  0  0  0
  190.3680  177.1800  144.5770 C   0  0  0  0  0  2  0  0  0  0  0  0
  188.1540  175.7330  143.1320 N   0  0  0  0  0  0  0  0  0  0  0  0
  190.5420  171.8220  142.7990 C   0  0  0  0  0  3  0  0  0  0  0  0
  189.2800  173.7700  143.3450 C   0  0  2  0  0  3  0  0  0  0  0  0
  186.6930  177.5040  142.2490 C   0  0  0  0  0  2  0  0  0  0  0  0
  185.4680  177.3970  143.1430 C   0  0  0  0  0  2  0  0  0  0  0  0
  183.9630  178.8370  145.8330 C   0  0  0  0  0  2  0  0  0  0  0  0
  185.4120  177.0030  145.4530 C   0  0  0  0  0  2  0  0  0  0  0  0
  185.7490  177.9940  144.4390 N   0  0  0  0  0  0  0  0  0  0  0  0
  184.6530  177.7100  146.5460 C   0  0  0  0  0  2  0  0  0  0  0  0
  184.8150  179.1020  144.6080 C   0  0  0  0  0  2  0  0  0  0  0  0
  1 18  1  0  0  0  0
  3 16  1  0  0  0  0
  3  7  1  0  0  0  0
  4 15  1  0  0  0  0
  5 19  1  0  0  0  0
  6 19  1  0  0  0  0
  7  6  1  0  0  0  0
  8 12  1  0  0  0  0
  9 25  1  6  0  0  0
  9 13  1  0  0  0  0
 10 17  1  0  0  0  0
 10 22  1  0  0  0  0
 11  5  2  0  0  0  0
 13 20  1  0  0  0  0
 13 24  1  1  0  0  0
 14  2  2  0  0  0  0
 14 25  1  0  0  0  0
 15 12  1  0  0  0  0
 15  5  1  0  0  0  0
 16  8  1  0  0  0  0
 17 28  1  6  0  0  0
 17 25  1  0  0  0  0
 18  4  2  0  0  0  0
 20 18  1  6  0  0  0
 20 11  1  0  0  0  0
 21 23  2  0  0  0  0
 22 24  1  0  0  0  0
 23  4  1  0  0  0  0
 26 21  1  0  0  0  0
 26  1  2  0  0  0  0
 27  2  1  6  0  0  0
 27  1  1  0  0  0  0
 27  9  1  0  0  0  0
 28 29  1  0  0  0  0
 29 32  1  0  0  0  0
 30 33  1  0  0  0  0
 31 33  1  0  0  0  0
 32 34  1  0  0  0  0
 32 31  1  0  0  0  0
 34 30  1  0  0  0  0
M  END
>  <MODEL>
3

>  <REMARK>
 VINA RESULT:      -8.1      2.723      8.519
  Name = 
  3 active torsions:
  status: ('A' for Active; 'I' for Inactive)
    1  A    between atoms: C_17  and  C_28
    2  A    between atoms: C_28  and  C_29
    3  A    between atoms: C_29  and  N_32
                            x       y       z     vdW  Elec       q    Type
                         _______ _______ _______ _____ _____    ______ ____

>  <TORSDO>
F 3

$$$$
=
 OpenBabel11112417573D

 34 40  0  0  1  0  0  0  0  0999 V2000
  188.2900  176.3880  146.0250 C   0  0  0  0  0  0  0  0  0  0  0  0
  185.8960  177.0590  145.9880 C   0  0  0  0  0  3  0  0  0  0  0  0
  191.4320  172.6920  142.7920 C   0  0  0  0  0  2  0  0  0  0  0  0
  190.4230  175.3130  145.5700 C   0  0  0  0  0  0  0  0  0  0  0  0
  191.5070  175.6600  143.3730 C   0  0  0  0  0  0  0  0  0  0  0  0
  192.1760  174.5430  141.2360 C   0  0  0  0  0  2  0  0  0  0  0  0
  192.2630  173.0470  141.5510 C   0  0  0  0  0  2  0  0  0  0  0  0
  193.1730  173.2380  144.1870 C   0  0  0  0  0  2  0  0  0  0  0  0
  187.3870  178.0670  144.4290 C   0  0  1  0  0  3  0  0  0  0  0  0
  185.8520  177.2100  141.7640 C   0  0  0  0  0  2  0  0  0  0  0  0
  190.4830  176.3760  143.0100 N   0  0  0  0  0  0  0  0  0  0  0  0
  192.6710  174.2810  145.1870 C   0  0  0  0  0  2  0  0  0  0  0  0
  188.2680  177.4480  143.4320 N   0  0  2  0  0  0  0  0  0  0  0  0
  185.1760  177.5470  145.0320 N   0  0  0  0  0  0  0  0  0  0  0  0
  191.5330  175.0620  144.6890 N   0  0  0  0  0  0  0  0  0  0  0  0
  192.2100  172.2550  143.8870 O   0  0  0  0  0  0  0  0  0  0  0  0
  185.5120  178.3880  142.6730 C   0  0  2  0  0  3  0  0  0  0  0  0
  189.3820  176.1640  145.1560 C   0  0  0  0  0  0  0  0  0  0  0  0
  192.5130  175.3450  142.4070 N   0  0  0  0  0  2  0  0  0  0  0  0
  189.3890  176.6650  143.8980 C   0  0  1  0  0  3  0  0  0  0  0  0
  189.2710  174.8430  147.5990 C   0  0  0  0  0  3  0  0  0  0  0  0
  187.2690  177.2900  141.1830 C   0  0  0  0  0  2  0  0  0  0  0  0
  190.3400  174.6810  146.7750 N   0  0  0  0  0  0  0  0  0  0  0  0
  188.2850  177.9970  142.0810 C   0  0  0  0  0  2  0  0  0  0  0  0
  185.9860  178.0970  144.0260 N   0  0  0  0  0  0  0  0  0  0  0  0
  188.2240  175.6900  147.2360 C   0  0  0  0  0  3  0  0  0  0  0  0
  187.3070  177.2210  145.6540 C   0  0  2  0  0  3  0  0  0  0  0  0
  184.0130  178.6540  142.6660 C   0  0  0  0  0  2  0  0  0  0  0  0
  183.4190  178.2880  141.3160 C   0  0  0  0  0  2  0  0  0  0  0  0
  180.2940  179.6340  141.3230 C   0  0  0  0  0  2  0  0  0  0  0  0
  181.4240  177.9230  140.1390 C   0  0  0  0  0  2  0  0  0  0  0  0
  182.0150  177.9420  141.4710 N   0  0  0  0  0  0  0  0  0  0  0  0
  180.1000  178.6360  140.2180 C   0  0  0  0  0  2  0  0  0  0  0  0
  181.3830  179.0410  142.1940 C   0  0  0  0  0  2  0  0  0  0  0  0
  1 26  1  0  0  0  0
  3 16  1  0  0  0  0
  4 23  2  0  0  0  0
  5 15  1  0  0  0  0
  6  7  1  0  0  0  0
  6 19  1  0  0  0  0
  7  3  1  0  0  0  0
  8 12  1  0  0  0  0
  9 25  1  6  0  0  0
  9 27  1  0  0  0  0
 10 17  1  0  0  0  0
 11  5  2  0  0  0  0
 13 24  1  6  0  0  0
 13 20  1  0  0  0  0
 13  9  1  0  0  0  0
 14  2  2  0  0  0  0
 15 12  1  0  0  0  0
 15  4  1  0  0  0  0
 16  8  1  0  0  0  0
 17 28  1  1  0  0  0
 17 25  1  0  0  0  0
 18  4  1  0  0  0  0
 18  1  2  0  0  0  0
 19  5  1  0  0  0  0
 20 11  1  6  0  0  0
 20 18  1  0  0  0  0
 22 10  1  0  0  0  0
 22 24  1  0  0  0  0
 23 21  1  0  0  0  0
 25 14  1  0  0  0  0
 26 21  2  0  0  0  0
 27  2  1  6  0  0  0
 27  1  1  0  0  0  0
 29 32  1  0  0  0  0
 29 28  1  0  0  0  0
 30 34  1  0  0  0  0
 31 33  1  0  0  0  0
 31 32  1  0  0  0  0
 32 34  1  0  0  0  0
 33 30  1  0  0  0  0
M  END
>  <MODEL>
4

>  <REMARK>
 VINA RESULT:      -8.0      3.162      9.261
  Name = 
  3 active torsions:
  status: ('A' for Active; 'I' for Inactive)
    1  A    between atoms: C_17  and  C_28
    2  A    between atoms: C_28  and  C_29
    3  A    between atoms: C_29  and  N_32
                            x       y       z     vdW  Elec       q    Type
                         _______ _______ _______ _____ _____    ______ ____

>  <TORSDO>
F 3

$$$$
=
 OpenBabel11112417573D

 34 40  0  0  1  0  0  0  0  0999 V2000
  193.9130  175.5880  145.5940 C   0  0  0  0  0  0  0  0  0  0  0  0
  192.0730  175.4740  147.2620 C   0  0  0  0  0  3  0  0  0  0  0  0
  194.8730  172.8410  140.5420 C   0  0  0  0  0  2  0  0  0  0  0  0
  195.3530  175.2040  143.6720 C   0  0  0  0  0  0  0  0  0  0  0  0
  194.5030  175.7170  141.4050 C   0  0  0  0  0  0  0  0  0  0  0  0
  193.8150  174.7180  139.2160 C   0  0  0  0  0  2  0  0  0  0  0  0
  194.4990  173.3510  139.1430 C   0  0  0  0  0  2  0  0  0  0  0  0
  196.8560  174.0000  140.4990 C   0  0  0  0  0  2  0  0  0  0  0  0
  191.7530  176.7860  145.3010 C   0  0  1  0  0  3  0  0  0  0  0  0
  189.1350  175.3090  144.2280 C   0  0  0  0  0  2  0  0  0  0  0  0
  193.3630  176.0510  141.9350 N   0  0  0  0  0  0  0  0  0  0  0  0
  196.9060  174.9010  141.7330 C   0  0  0  0  0  2  0  0  0  0  0  0
  191.8480  176.4050  143.8870 N   0  0  2  0  0  0  0  0  0  0  0  0
  190.8000  175.6450  147.1200 N   0  0  0  0  0  0  0  0  0  0  0  0
  195.5790  175.2510  142.2510 N   0  0  0  0  0  0  0  0  0  0  0  0
  196.2660  172.7470  140.7550 O   0  0  0  0  0  0  0  0  0  0  0  0
  189.1970  176.3820  145.3120 C   0  0  2  0  0  3  0  0  0  0  0  0
  194.1280  175.6560  144.1980 C   0  0  0  0  0  0  0  0  0  0  0  0
  194.6190  175.6660  139.9800 N   0  0  0  0  0  2  0  0  0  0  0  0
  193.1420  176.0460  143.3570 C   0  0  1  0  0  3  0  0  0  0  0  0
  196.0740  174.5410  145.8410 C   0  0  0  0  0  3  0  0  0  0  0  0
  189.6830  175.7860  142.8790 C   0  0  0  0  0  2  0  0  0  0  0  0
  196.2870  174.6630  144.5040 N   0  0  0  0  0  0  0  0  0  0  0  0
  190.7920  176.8360  142.9780 C   0  0  0  0  0  2  0  0  0  0  0  0
  190.5170  176.3490  145.9390 N   0  0  0  0  0  0  0  0  0  0  0  0
  194.8810  174.9910  146.4080 C   0  0  0  0  0  3  0  0  0  0  0  0
  192.7640  176.0450  146.1100 C   0  0  2  0  0  3  0  0  0  0  0  0
  188.0980  176.1660  146.3430 C   0  0  0  0  0  2  0  0  0  0  0  0
  187.2700  177.4300  146.5050 C   0  0  0  0  0  2  0  0  0  0  0  0
  184.1310  178.6660  146.0610 C   0  0  0  0  0  2  0  0  0  0  0  0
  186.1570  178.6410  144.8350 C   0  0  0  0  0  2  0  0  0  0  0  0
  186.1360  177.3980  145.5950 N   0  0  0  0  0  0  0  0  0  0  0  0
  184.7460  179.1690  144.7880 C   0  0  0  0  0  2  0  0  0  0  0  0
  184.9300  177.4280  146.4160 C   0  0  0  0  0  2  0  0  0  0  0  0
  1 27  1  0  0  0  0
  1 26  1  0  0  0  0
  3 16  1  0  0  0  0
  4 18  1  0  0  0  0
  4 23  2  0  0  0  0
  5 11  2  0  0  0  0
  5 15  1  0  0  0  0
  6 19  1  0  0  0  0
  7  6  1  0  0  0  0
  7  3  1  0  0  0  0
  8 16  1  0  0  0  0
  8 12  1  0  0  0  0
  9 25  1  1  0  0  0
  9 27  1  0  0  0  0
 10 17  1  0  0  0  0
 12 15  1  0  0  0  0
 13 24  1  6  0  0  0
 13  9  1  0  0  0  0
 14  2  2  0  0  0  0
 15  4  1  0  0  0  0
 17 25  1  0  0  0  0
 17 28  1  1  0  0  0
 18  1  2  0  0  0  0
 19  5  1  0  0  0  0
 20 11  1  6  0  0  0
 20 13  1  0  0  0  0
 20 18  1  0  0  0  0
 21 26  2  0  0  0  0
 22 24  1  0  0  0  0
 22 10  1  0  0  0  0
 23 21  1  0  0  0  0
 25 14  1  0  0  0  0
 27  2  1  6  0  0  0
 28 29  1  0  0  0  0
 30 34  1  0  0  0  0
 31 32  1  0  0  0  0
 32 34  1  0  0  0  0
 32 29  1  0  0  0  0
 33 31  1  0  0  0  0
 33 30  1  0  0  0  0
M  END
>  <MODEL>
5

>  <REMARK>
 VINA RESULT:      -8.0      2.931      8.119
  Name = 
  3 active torsions:
  status: ('A' for Active; 'I' for Inactive)
    1  A    between atoms: C_17  and  C_28
    2  A    between atoms: C_28  and  C_29
    3  A    between atoms: C_29  and  N_32
                            x       y       z     vdW  Elec       q    Type
                         _______ _______ _______ _____ _____    ______ ____

>  <TORSDO>
F 3

$$$$
=
 OpenBabel11112417573D

 34 40  0  0  1  0  0  0  0  0999 V2000
  190.7230  173.8150  141.4750 C   0  0  0  0  0  0  0  0  0  0  0  0
  188.3800  174.6210  141.6840 C   0  0  0  0  0  3  0  0  0  0  0  0
  195.8720  176.5470  141.4010 C   0  0  0  0  0  2  0  0  0  0  0  0
  193.1440  173.6930  141.2760 C   0  0  0  0  0  0  0  0  0  0  0  0
  194.5510  174.4690  143.1580 C   0  0  0  0  0  0  0  0  0  0  0  0
  196.1860  176.2160  143.8890 C   0  0  0  0  0  2  0  0  0  0  0  0
  196.7920  176.7910  142.6060 C   0  0  0  0  0  2  0  0  0  0  0  0
  196.7690  174.4590  141.0640 C   0  0  0  0  0  2  0  0  0  0  0  0
  189.6900  174.4000  143.6600 C   0  0  1  0  0  3  0  0  0  0  0  0
  189.4530  177.4220  144.6610 C   0  0  0  0  0  2  0  0  0  0  0  0
  193.4680  174.8110  143.7930 N   0  0  0  0  0  0  0  0  0  0  0  0
  195.6250  173.4440  141.0740 C   0  0  0  0  0  2  0  0  0  0  0  0
  190.9870  174.9950  144.0010 N   0  0  2  0  0  0  0  0  0  0  0  0
  187.8190  175.3440  142.5970 N   0  0  0  0  0  0  0  0  0  0  0  0
  194.4540  173.8960  141.8340 N   0  0  0  0  0  0  0  0  0  0  0  0
  196.4240  175.6720  140.4380 O   0  0  0  0  0  0  0  0  0  0  0  0
  188.4190  176.3150  144.8510 C   0  0  2  0  0  3  0  0  0  0  0  0
  192.0050  174.0030  142.0420 C   0  0  0  0  0  0  0  0  0  0  0  0
  195.8220  174.8150  143.7140 N   0  0  0  0  0  2  0  0  0  0  0  0
  192.1530  174.5740  143.2600 C   0  0  1  0  0  3  0  0  0  0  0  0
  191.7740  173.1330  139.4110 C   0  0  0  0  0  3  0  0  0  0  0  0
  190.8100  177.0890  145.2920 C   0  0  0  0  0  2  0  0  0  0  0  0
  192.9970  173.2670  139.9890 N   0  0  0  0  0  0  0  0  0  0  0  0
  191.1510  175.5980  145.3190 C   0  0  0  0  0  2  0  0  0  0  0  0
  188.5740  175.3310  143.7800 N   0  0  0  0  0  0  0  0  0  0  0  0
  190.6170  173.4140  140.1390 C   0  0  0  0  0  3  0  0  0  0  0  0
  189.6300  174.0770  142.2050 C   0  0  2  0  0  3  0  0  0  0  0  0
  187.0110  176.8940  144.8600 C   0  0  0  0  0  2  0  0  0  0  0  0
  187.0110  178.2900  144.2590 C   0  0  0  0  0  2  0  0  0  0  0  0
  183.7250  179.0410  144.7250 C   0  0  0  0  0  2  0  0  0  0  0  0
  185.5380  178.3470  146.0820 C   0  0  0  0  0  2  0  0  0  0  0  0
  186.1230  179.1550  145.0190 N   0  0  0  0  0  0  0  0  0  0  0  0
  184.0660  178.6640  146.1380 C   0  0  0  0  0  2  0  0  0  0  0  0
  185.0300  179.5300  144.1280 C   0  0  0  0  0  2  0  0  0  0  0  0
  1 18  1  0  0  0  0
  1 27  1  0  0  0  0
  2 14  2  0  0  0  0
  3  7  1  0  0  0  0
  4 15  1  0  0  0  0
  4 18  2  0  0  0  0
  5 19  1  0  0  0  0
  5 11  2  0  0  0  0
  7  6  1  0  0  0  0
  8 12  1  0  0  0  0
  9 25  1  6  0  0  0
  9 13  1  0  0  0  0
 10 17  1  0  0  0  0
 10 22  1  0  0  0  0
 12 15  1  0  0  0  0
 13 24  1  1  0  0  0
 14 25  1  0  0  0  0
 15  5  1  0  0  0  0
 16  8  1  0  0  0  0
 16  3  1  0  0  0  0
 17 28  1  6  0  0  0
 19  6  1  0  0  0  0
 20 18  1  6  0  0  0
 20 11  1  0  0  0  0
 20 13  1  0  0  0  0
 21 23  2  0  0  0  0
 21 26  1  0  0  0  0
 22 24  1  0  0  0  0
 23  4  1  0  0  0  0
 25 17  1  0  0  0  0
 26  1  2  0  0  0  0
 27  2  1  6  0  0  0
 27  9  1  0  0  0  0
 29 28  1  0  0  0  0
 29 32  1  0  0  0  0
 30 33  1  0  0  0  0
 31 33  1  0  0  0  0
 32 31  1  0  0  0  0
 34 30  1  0  0  0  0
 34 32  1  0  0  0  0
M  END
>  <MODEL>
6

>  <REMARK>
 VINA RESULT:      -7.9      2.808      8.734
  Name = 
  3 active torsions:
  status: ('A' for Active; 'I' for Inactive)
    1  A    between atoms: C_17  and  C_28
    2  A    between atoms: C_28  and  C_29
    3  A    between atoms: C_29  and  N_32
                            x       y       z     vdW  Elec       q    Type
                         _______ _______ _______ _____ _____    ______ ____

>  <TORSDO>
F 3

$$$$
=
 OpenBabel11112417573D

 34 40  0  0  1  0  0  0  0  0999 V2000
  190.2280  173.9000  141.7390 C   0  0  0  0  0  0  0  0  0  0  0  0
  188.2330  175.3080  141.2710 C   0  0  0  0  0  3  0  0  0  0  0  0
  195.7260  175.1620  143.2140 C   0  0  0  0  0  2  0  0  0  0  0  0
  192.4780  173.1300  142.2520 C   0  0  0  0  0  0  0  0  0  0  0  0
  193.4460  173.6240  144.4750 C   0  0  0  0  0  0  0  0  0  0  0  0
  195.2160  174.9190  145.6790 C   0  0  0  0  0  2  0  0  0  0  0  0
  196.2940  175.2300  144.6380 C   0  0  0  0  0  2  0  0  0  0  0  0
  196.0790  172.8950  143.1180 C   0  0  0  0  0  2  0  0  0  0  0  0
  188.8160  174.8750  143.5380 C   0  0  1  0  0  3  0  0  0  0  0  0
  189.1340  177.9090  144.4780 C   0  0  0  0  0  2  0  0  0  0  0  0
  192.3620  174.2800  144.7730 N   0  0  0  0  0  0  0  0  0  0  0  0
  194.7490  172.2210  142.7770 C   0  0  0  0  0  2  0  0  0  0  0  0
  190.0720  175.1270  144.2530 N   0  0  2  0  0  0  0  0  0  0  0  0
  187.6550  176.2110  141.9930 N   0  0  0  0  0  0  0  0  0  0  0  0
  193.5790  173.0140  143.1710 N   0  0  0  0  0  0  0  0  0  0  0  0
  196.2690  174.1130  142.4390 O   0  0  0  0  0  0  0  0  0  0  0  0
  187.8280  177.1300  144.3400 C   0  0  2  0  0  3  0  0  0  0  0  0
  191.2960  173.7780  142.6580 C   0  0  0  0  0  0  0  0  0  0  0  0
  194.5500  173.6560  145.3830 N   0  0  0  0  0  2  0  0  0  0  0  0
  191.2410  174.3660  143.8760 C   0  0  1  0  0  3  0  0  0  0  0  0
  191.5970  172.8350  140.0600 C   0  0  0  0  0  3  0  0  0  0  0  0
  190.1110  177.2700  145.4710 C   0  0  0  0  0  2  0  0  0  0  0  0
  192.5930  172.6770  140.9710 N   0  0  0  0  0  0  0  0  0  0  0  0
  190.0120  175.7470  145.5710 C   0  0  0  0  0  2  0  0  0  0  0  0
  188.0080  176.0740  143.3440 N   0  0  0  0  0  0  0  0  0  0  0  0
  190.4030  173.4570  140.4240 C   0  0  0  0  0  3  0  0  0  0  0  0
  189.0870  174.4880  142.1240 C   0  0  2  0  0  3  0  0  0  0  0  0
  186.6880  178.0600  143.9480 C   0  0  0  0  0  2  0  0  0  0  0  0
  185.3490  177.4030  144.2350 C   0  0  0  0  0  2  0  0  0  0  0  0
  185.9450  177.5690  147.5810 C   0  0  0  0  0  2  0  0  0  0  0  0
  185.5650  179.1120  145.8250 C   0  0  0  0  0  2  0  0  0  0  0  0
  184.8020  177.9200  145.4790 N   0  0  0  0  0  0  0  0  0  0  0  0
  185.8780  179.0420  147.2970 C   0  0  0  0  0  2  0  0  0  0  0  0
  185.0830  176.9280  146.5130 C   0  0  0  0  0  2  0  0  0  0  0  0
  1 27  1  0  0  0  0
  1 18  1  0  0  0  0
  2 14  2  0  0  0  0
  3  7  1  0  0  0  0
  4 18  2  0  0  0  0
  4 15  1  0  0  0  0
  5 11  2  0  0  0  0
  5 19  1  0  0  0  0
  7  6  1  0  0  0  0
  9 25  1  6  0  0  0
  9 13  1  0  0  0  0
 10 22  1  0  0  0  0
 12  8  1  0  0  0  0
 12 15  1  0  0  0  0
 13 24  1  1  0  0  0
 14 25  1  0  0  0  0
 15  5  1  0  0  0  0
 16  8  1  0  0  0  0
 16  3  1  0  0  0  0
 17 28  1  6  0  0  0
 17 10  1  0  0  0  0
 19  6  1  0  0  0  0
 20 18  1  6  0  0  0
 20 13  1  0  0  0  0
 20 11  1  0  0  0  0
 21 26  1  0  0  0  0
 21 23  2  0  0  0  0
 22 24  1  0  0  0  0
 23  4  1  0  0  0  0
 25 17  1  0  0  0  0
 26  1  2  0  0  0  0
 27  2  1  6  0  0  0
 27  9  1  0  0  0  0
 28 29  1  0  0  0  0
 29 32  1  0  0  0  0
 31 33  1  0  0  0  0
 32 31  1  0  0  0  0
 32 34  1  0  0  0  0
 33 30  1  0  0  0  0
 34 30  1  0  0  0  0
M  END
>  <MODEL>
7

>  <REMARK>
 VINA RESULT:      -7.8      2.731      8.584
  Name = 
  3 active torsions:
  status: ('A' for Active; 'I' for Inactive)
    1  A    between atoms: C_17  and  C_28
    2  A    between atoms: C_28  and  C_29
    3  A    between atoms: C_29  and  N_32
                            x       y       z     vdW  Elec       q    Type
                         _______ _______ _______ _____ _____    ______ ____

>  <TORSDO>
F 3

$$$$
=
 OpenBabel11112417573D

 34 40  0  0  1  0  0  0  0  0999 V2000
  187.8590  176.0540  141.0650 C   0  0  0  0  0  0  0  0  0  0  0  0
  188.4120  174.0280  139.7330 C   0  0  0  0  0  3  0  0  0  0  0  0
  185.0580  176.8460  146.1160 C   0  0  0  0  0  2  0  0  0  0  0  0
  187.0000  177.5770  142.7540 C   0  0  0  0  0  0  0  0  0  0  0  0
  187.8430  177.4070  145.0750 C   0  0  0  0  0  0  0  0  0  0  0  0
  187.2220  176.8140  147.4250 C   0  0  0  0  0  2  0  0  0  0  0  0
  185.7000  176.9490  147.5070 C   0  0  0  0  0  2  0  0  0  0  0  0
  185.3850  179.0880  145.7350 C   0  0  0  0  0  2  0  0  0  0  0  0
  189.7870  174.5770  141.5970 C   0  0  1  0  0  3  0  0  0  0  0  0
  189.4280  171.8430  143.2050 C   0  0  0  0  0  2  0  0  0  0  0  0
  188.5700  176.3920  144.7090 N   0  0  0  0  0  0  0  0  0  0  0  0
  186.1750  179.2380  144.4340 C   0  0  0  0  0  2  0  0  0  0  0  0
  189.4280  174.7820  143.0050 N   0  0  2  0  0  0  0  0  0  0  0  0
  189.0530  172.9550  140.0640 N   0  0  0  0  0  0  0  0  0  0  0  0
  186.9880  178.0610  144.1100 N   0  0  0  0  0  0  0  0  0  0  0  0
  184.4410  178.0440  145.6890 O   0  0  0  0  0  0  0  0  0  0  0  0
  190.3760  172.0940  142.0360 C   0  0  2  0  0  3  0  0  0  0  0  0
  187.8700  176.5310  142.3960 C   0  0  0  0  0  0  0  0  0  0  0  0
  187.7810  177.7540  146.4600 N   0  0  0  0  0  2  0  0  0  0  0  0
  188.6190  175.9280  143.3480 C   0  0  1  0  0  3  0  0  0  0  0  0
  186.0700  177.5950  140.5640 C   0  0  0  0  0  3  0  0  0  0  0  0
  189.6920  172.7660  144.4010 C   0  0  0  0  0  2  0  0  0  0  0  0
  186.1310  178.0790  141.8320 N   0  0  0  0  0  0  0  0  0  0  0  0
  190.2440  174.1430  144.0310 C   0  0  0  0  0  2  0  0  0  0  0  0
  189.8350  173.1720  141.2080 N   0  0  0  0  0  0  0  0  0  0  0  0
  186.9240  176.5680  140.1600 C   0  0  0  0  0  3  0  0  0  0  0  0
  188.7040  175.0780  140.7030 C   0  0  2  0  0  3  0  0  0  0  0  0
  190.5680  170.8240  141.2200 C   0  0  0  0  0  2  0  0  0  0  0  0
  191.9150  170.8490  140.5150 C   0  0  0  0  0  2  0  0  0  0  0  0
  189.7180  169.9590  138.0730 C   0  0  0  0  0  2  0  0  0  0  0  0
  191.7680  171.1400  138.1940 C   0  0  0  0  0  2  0  0  0  0  0  0
  191.8230  170.1370  139.2500 N   0  0  0  0  0  0  0  0  0  0  0  0
  190.6950  170.7200  137.2230 C   0  0  0  0  0  2  0  0  0  0  0  0
  190.5370  169.4480  139.2410 C   0  0  0  0  0  2  0  0  0  0  0  0
  1 18  1  0  0  0  0
  2 14  2  0  0  0  0
  3  7  1  0  0  0  0
  4 15  1  0  0  0  0
  5 19  1  0  0  0  0
  6  7  1  0  0  0  0
  9 25  1  1  0  0  0
  9 13  1  0  0  0  0
 10 22  1  0  0  0  0
 11  5  2  0  0  0  0
 12  8  1  0  0  0  0
 13 20  1  0  0  0  0
 13 24  1  1  0  0  0
 14 25  1  0  0  0  0
 15 12  1  0  0  0  0
 15  5  1  0  0  0  0
 16  8  1  0  0  0  0
 16  3  1  0  0  0  0
 17 28  1  6  0  0  0
 17 10  1  0  0  0  0
 18  4  2  0  0  0  0
 19  6  1  0  0  0  0
 20 18  1  1  0  0  0
 20 11  1  0  0  0  0
 21 23  2  0  0  0  0
 23  4  1  0  0  0  0
 24 22  1  0  0  0  0
 25 17  1  0  0  0  0
 26 21  1  0  0  0  0
 26  1  2  0  0  0  0
 27  2  1  1  0  0  0
 27  1  1  0  0  0  0
 27  9  1  0  0  0  0
 29 28  1  0  0  0  0
 30 34  1  0  0  0  0
 31 32  1  0  0  0  0
 32 29  1  0  0  0  0
 33 30  1  0  0  0  0
 33 31  1  0  0  0  0
 34 32  1  0  0  0  0
M  END
>  <MODEL>
8

>  <REMARK>
 VINA RESULT:      -7.8      4.145      6.275
  Name = 
  3 active torsions:
  status: ('A' for Active; 'I' for Inactive)
    1  A    between atoms: C_17  and  C_28
    2  A    between atoms: C_28  and  C_29
    3  A    between atoms: C_29  and  N_32
                            x       y       z     vdW  Elec       q    Type
                         _______ _______ _______ _____ _____    ______ ____

>  <TORSDO>
F 3

$$$$
=
 OpenBabel11112417573D

 34 40  0  0  1  0  0  0  0  0999 V2000
  194.4040  174.7910  144.5860 C   0  0  0  0  0  0  0  0  0  0  0  0
  193.0590  176.7740  145.2530 C   0  0  0  0  0  3  0  0  0  0  0  0
  194.9080  169.4120  146.7770 C   0  0  0  0  0  2  0  0  0  0  0  0
  195.4420  172.5940  144.4970 C   0  0  0  0  0  0  0  0  0  0  0  0
  194.0200  170.6000  144.1400 C   0  0  0  0  0  0  0  0  0  0  0  0
  193.1500  168.5080  145.2000 C   0  0  0  0  0  2  0  0  0  0  0  0
  194.1240  168.1700  146.3310 C   0  0  0  0  0  2  0  0  0  0  0  0
  196.4760  169.0860  145.1300 C   0  0  0  0  0  2  0  0  0  0  0  0
  192.0010  175.0490  143.9990 C   0  0  1  0  0  3  0  0  0  0  0  0
  189.6730  174.3830  146.0790 C   0  0  0  0  0  2  0  0  0  0  0  0
  192.9750  171.3760  144.1440 N   0  0  0  0  0  0  0  0  0  0  0  0
  196.5630  170.3660  144.2970 C   0  0  0  0  0  2  0  0  0  0  0  0
  191.8800  173.6150  144.2850 N   0  0  2  0  0  0  0  0  0  0  0  0
  191.7850  176.9050  145.4230 N   0  0  0  0  0  0  0  0  0  0  0  0
  195.3360  171.1680  144.3350 N   0  0  0  0  0  0  0  0  0  0  0  0
  196.2920  169.3340  146.5040 O   0  0  0  0  0  0  0  0  0  0  0  0
  189.6950  175.5300  145.0710 C   0  0  2  0  0  3  0  0  0  0  0  0
  194.2870  173.3930  144.4080 C   0  0  0  0  0  0  0  0  0  0  0  0
  193.8340  169.1830  144.1030 N   0  0  0  0  0  2  0  0  0  0  0  0
  193.0760  172.8060  144.2640 C   0  0  1  0  0  3  0  0  0  0  0  0
  196.7600  174.5040  145.0270 C   0  0  0  0  0  3  0  0  0  0  0  0
  189.7770  173.0030  145.4190 C   0  0  0  0  0  2  0  0  0  0  0  0
  196.6400  173.1690  144.8000 N   0  0  0  0  0  0  0  0  0  0  0  0
  190.5780  172.9790  144.1170 C   0  0  0  0  0  2  0  0  0  0  0  0
  191.0850  175.8760  144.7750 N   0  0  0  0  0  0  0  0  0  0  0  0
  195.6450  175.3360  144.9350 C   0  0  0  0  0  3  0  0  0  0  0  0
  193.3170  175.5670  144.4740 C   0  0  2  0  0  3  0  0  0  0  0  0
  188.9370  176.7330  145.6130 C   0  0  0  0  0  2  0  0  0  0  0  0
  187.5460  176.7980  145.0050 C   0  0  0  0  0  2  0  0  0  0  0  0
  185.8000  178.5780  147.3200 C   0  0  0  0  0  2  0  0  0  0  0  0
  185.2820  177.1480  145.5050 C   0  0  0  0  0  2  0  0  0  0  0  0
  186.5430  176.6600  146.0490 N   0  0  0  0  0  0  0  0  0  0  0  0
  184.6370  178.0130  146.5560 C   0  0  0  0  0  2  0  0  0  0  0  0
  186.9180  177.5750  147.1230 C   0  0  0  0  0  2  0  0  0  0  0  0
  1 26  1  0  0  0  0
  2 14  2  0  0  0  0
  4 23  2  0  0  0  0
  5 11  2  0  0  0  0
  5 15  1  0  0  0  0
  6  7  1  0  0  0  0
  7  3  1  0  0  0  0
  8 16  1  0  0  0  0
  9 13  1  0  0  0  0
  9 27  1  0  0  0  0
  9 25  1  1  0  0  0
 12 15  1  0  0  0  0
 12  8  1  0  0  0  0
 13 24  1  6  0  0  0
 15  4  1  0  0  0  0
 16  3  1  0  0  0  0
 17 28  1  1  0  0  0
 17 10  1  0  0  0  0
 18  4  1  0  0  0  0
 18  1  2  0  0  0  0
 19  5  1  0  0  0  0
 19  6  1  0  0  0  0
 20 11  1  1  0  0  0
 20 13  1  0  0  0  0
 20 18  1  0  0  0  0
 22 10  1  0  0  0  0
 23 21  1  0  0  0  0
 24 22  1  0  0  0  0
 25 17  1  0  0  0  0
 25 14  1  0  0  0  0
 26 21  2  0  0  0  0
 27  1  1  0  0  0  0
 27  2  1  1  0  0  0
 29 28  1  0  0  0  0
 29 32  1  0  0  0  0
 31 32  1  0  0  0  0
 31 33  1  0  0  0  0
 32 34  1  0  0  0  0
 33 30  1  0  0  0  0
 34 30  1  0  0  0  0
M  END
>  <MODEL>
9

>  <REMARK>
 VINA RESULT:      -7.7      3.508      8.731
  Name = 
  3 active torsions:
  status: ('A' for Active; 'I' for Inactive)
    1  A    between atoms: C_17  and  C_28
    2  A    between atoms: C_28  and  C_29
    3  A    between atoms: C_29  and  N_32
                            x       y       z     vdW  Elec       q    Type
                         _______ _______ _______ _____ _____    ______ ____

>  <TORSDO>
F 3

$$$$
