=
 OpenBabel11112416483D

 31 35  0  0  1  0  0  0  0  0999 V2000
  187.0960  176.6730  140.7390 C   0  0  0  0  0  0  0  0  0  0  0  0
  188.2230  176.8230  144.4060 C   0  0  2  0  0  3  0  0  0  0  0  0
  187.0470  177.5220  145.0830 C   0  0  0  0  0  0  0  0  0  0  0  0
  185.3500  179.2720  145.0590 C   0  0  0  0  0  0  0  0  0  0  0  0
  188.0350  176.3530  142.9660 C   0  0  0  0  0  0  0  0  0  0  0  0
  187.8580  175.6130  140.2530 C   0  0  0  0  0  3  0  0  0  0  0  0
  186.3540  178.5440  144.4160 C   0  0  0  0  0  3  0  0  0  0  0  0
  190.1030  175.1650  144.6480 C   0  0  2  0  0  3  0  0  0  0  0  0
  186.2440  177.3640  139.8890 O   0  0  0  0  0  1  0  0  0  0  0  0
  187.5090  176.2800  147.2640 C   0  0  0  0  0  2  0  0  0  0  0  0
  184.6780  180.2370  144.3860 F   0  0  0  0  0  0  0  0  0  0  0  0
  189.7620  174.4840  143.3250 C   0  0  0  0  0  2  0  0  0  0  0  0
  188.7960  175.6780  145.2540 C   0  0  1  0  0  3  0  0  0  0  0  0
  187.1940  177.0450  142.0810 C   0  0  0  0  0  3  0  0  0  0  0  0
  185.0460  179.0100  146.3940 C   0  0  0  0  0  3  0  0  0  0  0  0
  188.8360  175.2970  142.4500 C   0  0  0  0  0  0  0  0  0  0  0  0
  188.7240  174.9270  141.1070 C   0  0  0  0  0  3  0  0  0  0  0  0
  188.9100  176.0480  146.7210 C   0  0  0  0  0  2  0  0  0  0  0  0
  186.7690  177.3060  146.4580 C   0  0  0  0  0  0  0  0  0  0  0  0
  185.7560  178.0330  147.0910 C   0  0  0  0  0  3  0  0  0  0  0  0
  191.0580  176.2450  144.4030 N   0  0  0  0  0  2  0  0  0  0  0  0
  192.5400  176.1950  142.6080 O   0  0  0  0  0  1  0  0  0  0  0  0
  192.2940  175.6790  143.8820 C   0  0  1  0  0  3  0  0  0  0  0  0
  194.9370  173.2890  145.1000 C   0  0  1  0  0  3  0  0  0  0  0  0
  195.0730  175.9070  143.9190 S   0  0  0  0  0  0  0  0  0  0  0  0
  192.5010  175.4250  146.9470 O   0  0  0  0  0  1  0  0  0  0  0  0
  195.1080  171.7850  145.1190 C   0  0  0  0  0  1  0  0  0  0  0  0
  194.8500  173.8520  143.3740 S   0  0  0  0  0  0  0  0  0  0  0  0
  193.5630  175.1470  146.0860 C   0  0  2  0  0  3  0  0  0  0  0  0
  193.4780  175.9990  144.8080 C   0  0  2  0  0  3  0  0  0  0  0  0
  193.6450  173.6480  145.8180 C   0  0  0  0  0  2  0  0  0  0  0  0
  1 14  1  0  0  0  0
  2  5  1  6  0  0  0
  2  3  1  0  0  0  0
  2 13  1  0  0  0  0
  3 19  1  0  0  0  0
  4 15  2  0  0  0  0
  6  1  2  0  0  0  0
  6 17  1  0  0  0  0
  7  4  1  0  0  0  0
  7  3  2  0  0  0  0
  8 21  1  6  0  0  0
  8 13  1  0  0  0  0
  9  1  1  0  0  0  0
 11  4  1  0  0  0  0
 12  8  1  0  0  0  0
 13 18  1  1  0  0  0
 14  5  2  0  0  0  0
 15 20  1  0  0  0  0
 16  5  1  0  0  0  0
 16 12  1  0  0  0  0
 17 16  2  0  0  0  0
 18 10  1  0  0  0  0
 19 20  2  0  0  0  0
 19 10  1  0  0  0  0
 23 22  1  6  0  0  0
 23 21  1  0  0  0  0
 24 27  1  6  0  0  0
 24 31  1  0  0  0  0
 25 30  1  0  0  0  0
 28 25  1  0  0  0  0
 28 24  1  0  0  0  0
 29 26  1  1  0  0  0
 30 23  1  6  0  0  0
 30 29  1  0  0  0  0
 31 29  1  0  0  0  0
M  END
>  <MODEL>
1

>  <REMARK>
 VINA RESULT:      -8.6      0.000      0.000
  Name = 
  3 active torsions:
  status: ('A' for Active; 'I' for Inactive)
    1  A    between atoms: C_5  and  N_16
    2  A    between atoms: C_5  and  C_30
    3  A    between atoms: C_10  and  N_16
                            x       y       z     vdW  Elec       q    Type
                         _______ _______ _______ _____ _____    ______ ____

>  <TORSDO>
F 3

$$$$
=
 OpenBabel11112416483D

 31 35  0  0  1  0  0  0  0  0999 V2000
  187.1280  176.6920  140.7140 C   0  0  0  0  0  0  0  0  0  0  0  0
  188.2310  176.7300  144.3910 C   0  0  2  0  0  3  0  0  0  0  0  0
  187.1050  177.5100  145.0650 C   0  0  0  0  0  0  0  0  0  0  0  0
  185.5450  179.3830  145.0400 C   0  0  0  0  0  0  0  0  0  0  0  0
  188.0200  176.2850  142.9460 C   0  0  0  0  0  0  0  0  0  0  0  0
  187.8120  175.5810  140.2260 C   0  0  0  0  0  3  0  0  0  0  0  0
  186.4970  178.5860  144.4000 C   0  0  0  0  0  3  0  0  0  0  0  0
  189.9780  174.9320  144.6350 C   0  0  2  0  0  3  0  0  0  0  0  0
  186.3370  177.4520  139.8630 O   0  0  0  0  0  1  0  0  0  0  0  0
  187.4530  176.2210  147.2390 C   0  0  0  0  0  2  0  0  0  0  0  0
  184.9540  180.4010  144.3700 F   0  0  0  0  0  0  0  0  0  0  0  0
  189.5980  174.2890  143.3040 C   0  0  0  0  0  2  0  0  0  0  0  0
  188.7080  175.5390  145.2340 C   0  0  1  0  0  3  0  0  0  0  0  0
  187.2410  177.0460  142.0600 C   0  0  0  0  0  3  0  0  0  0  0  0
  185.2100  179.1360  146.3710 C   0  0  0  0  0  3  0  0  0  0  0  0
  188.7440  175.1760  142.4280 C   0  0  0  0  0  0  0  0  0  0  0  0
  188.6160  174.8260  141.0810 C   0  0  0  0  0  3  0  0  0  0  0  0
  188.8370  175.8880  146.7050 C   0  0  0  0  0  2  0  0  0  0  0  0
  186.7990  177.3060  146.4350 C   0  0  0  0  0  0  0  0  0  0  0  0
  185.8380  178.1030  147.0660 C   0  0  0  0  0  3  0  0  0  0  0  0
  191.0140  175.9390  144.4060 N   0  0  0  0  0  2  0  0  0  0  0  0
  192.0700  174.9120  146.2090 O   0  0  0  0  0  1  0  0  0  0  0  0
  192.2790  175.4500  144.9380 C   0  0  1  0  0  3  0  0  0  0  0  0
  195.7550  175.4050  143.4930 C   0  0  1  0  0  3  0  0  0  0  0  0
  194.1900  173.4210  144.8640 S   0  0  0  0  0  0  0  0  0  0  0  0
  192.4030  175.3690  141.8590 O   0  0  0  0  0  1  0  0  0  0  0  0
  196.8820  176.4060  143.3570 C   0  0  0  0  0  1  0  0  0  0  0  0
  195.4270  175.1200  145.2580 S   0  0  0  0  0  0  0  0  0  0  0  0
  193.4330  174.9020  142.6750 C   0  0  2  0  0  3  0  0  0  0  0  0
  192.8860  174.3820  144.0160 C   0  0  2  0  0  3  0  0  0  0  0  0
  194.5100  175.9710  142.8290 C   0  0  0  0  0  2  0  0  0  0  0  0
  1 14  1  0  0  0  0
  2  5  1  6  0  0  0
  2  3  1  0  0  0  0
  2 13  1  0  0  0  0
  3 19  1  0  0  0  0
  4 15  2  0  0  0  0
  6  1  2  0  0  0  0
  6 17  1  0  0  0  0
  7  4  1  0  0  0  0
  7  3  2  0  0  0  0
  8 21  1  6  0  0  0
  8 13  1  0  0  0  0
  9  1  1  0  0  0  0
 11  4  1  0  0  0  0
 12  8  1  0  0  0  0
 13 18  1  1  0  0  0
 14  5  2  0  0  0  0
 15 20  1  0  0  0  0
 16  5  1  0  0  0  0
 16 12  1  0  0  0  0
 17 16  2  0  0  0  0
 18 10  1  0  0  0  0
 19 20  2  0  0  0  0
 19 10  1  0  0  0  0
 21 23  1  0  0  0  0
 23 22  1  1  0  0  0
 24 27  1  1  0  0  0
 24 28  1  0  0  0  0
 25 28  1  0  0  0  0
 29 26  1  6  0  0  0
 29 31  1  0  0  0  0
 29 30  1  0  0  0  0
 30 25  1  0  0  0  0
 30 23  1  1  0  0  0
 31 24  1  0  0  0  0
M  END
>  <MODEL>
2

>  <REMARK>
 VINA RESULT:      -8.5      1.149      1.980
  Name = 
  3 active torsions:
  status: ('A' for Active; 'I' for Inactive)
    1  A    between atoms: C_5  and  N_16
    2  A    between atoms: C_5  and  C_30
    3  A    between atoms: C_10  and  N_16
                            x       y       z     vdW  Elec       q    Type
                         _______ _______ _______ _____ _____    ______ ____

>  <TORSDO>
F 3

$$$$
=
 OpenBabel11112416483D

 31 35  0  0  1  0  0  0  0  0999 V2000
  191.5860  176.7910  147.6330 C   0  0  0  0  0  0  0  0  0  0  0  0
  189.1220  176.6990  144.6910 C   0  0  2  0  0  3  0  0  0  0  0  0
  187.9330  177.4870  145.2320 C   0  0  0  0  0  0  0  0  0  0  0  0
  186.4210  178.0020  147.0740 C   0  0  0  0  0  0  0  0  0  0  0  0
  190.4200  176.7320  145.4920 C   0  0  0  0  0  0  0  0  0  0  0  0
  192.8030  176.5740  146.9890 C   0  0  0  0  0  3  0  0  0  0  0  0
  187.5710  177.3790  146.5840 C   0  0  0  0  0  3  0  0  0  0  0  0
  190.4550  176.0400  142.6570 C   0  0  2  0  0  3  0  0  0  0  0  0
  191.5470  176.9350  149.0130 O   0  0  0  0  0  1  0  0  0  0  0  0
  187.3300  178.2760  142.8810 C   0  0  0  0  0  2  0  0  0  0  0  0
  186.1060  177.9030  148.3880 F   0  0  0  0  0  0  0  0  0  0  0  0
  191.7830  176.3350  143.3500 C   0  0  0  0  0  2  0  0  0  0  0  0
  189.4160  177.0140  143.2170 C   0  0  1  0  0  3  0  0  0  0  0  0
  190.4060  176.8570  146.8910 C   0  0  0  0  0  3  0  0  0  0  0  0
  185.5950  178.7190  146.2090 C   0  0  0  0  0  3  0  0  0  0  0  0
  191.6630  176.4730  144.8500 C   0  0  0  0  0  0  0  0  0  0  0  0
  192.8400  176.4160  145.6020 C   0  0  0  0  0  3  0  0  0  0  0  0
  188.1520  177.0990  142.3820 C   0  0  0  0  0  2  0  0  0  0  0  0
  187.0530  178.1700  144.3530 C   0  0  0  0  0  0  0  0  0  0  0  0
  185.9090  178.7990  144.8530 C   0  0  0  0  0  3  0  0  0  0  0  0
  190.0860  174.6450  142.8950 N   0  0  0  0  0  2  0  0  0  0  0  0
  191.8400  173.2790  142.2050 O   0  0  0  0  0  1  0  0  0  0  0  0
  190.6150  173.8230  141.8150 C   0  0  1  0  0  3  0  0  0  0  0  0
  188.8260  173.3250  138.5400 C   0  0  1  0  0  3  0  0  0  0  0  0
  190.3500  171.5540  140.2160 S   0  0  0  0  0  0  0  0  0  0  0  0
  187.5400  173.7650  142.0130 O   0  0  0  0  0  1  0  0  0  0  0  0
  188.5770  174.1660  137.3070 C   0  0  0  0  0  1  0  0  0  0  0  0
  190.6150  173.0640  138.7250 S   0  0  0  0  0  0  0  0  0  0  0  0
  188.2480  173.1520  140.9790 C   0  0  2  0  0  3  0  0  0  0  0  0
  189.6370  172.6940  141.4550 C   0  0  2  0  0  3  0  0  0  0  0  0
  188.2910  174.0640  139.7570 C   0  0  0  0  0  2  0  0  0  0  0  0
  1  9  1  0  0  0  0
  2  3  1  1  0  0  0
  2  5  1  0  0  0  0
  3  7  1  0  0  0  0
  4 11  1  0  0  0  0
  5 14  1  0  0  0  0
  6  1  1  0  0  0  0
  7  4  2  0  0  0  0
  8 21  1  1  0  0  0
  8 13  1  0  0  0  0
  8 12  1  0  0  0  0
 10 19  1  0  0  0  0
 12 16  1  0  0  0  0
 13 18  1  6  0  0  0
 13  2  1  0  0  0  0
 14  1  2  0  0  0  0
 15  4  1  0  0  0  0
 16  5  2  0  0  0  0
 16 17  1  0  0  0  0
 17  6  2  0  0  0  0
 18 10  1  0  0  0  0
 19 20  1  0  0  0  0
 19  3  2  0  0  0  0
 20 15  2  0  0  0  0
 23 22  1  1  0  0  0
 23 21  1  0  0  0  0
 24 27  1  6  0  0  0
 24 28  1  0  0  0  0
 24 31  1  0  0  0  0
 25 30  1  0  0  0  0
 28 25  1  0  0  0  0
 29 30  1  0  0  0  0
 29 26  1  1  0  0  0
 30 23  1  6  0  0  0
 31 29  1  0  0  0  0
M  END
>  <MODEL>
3

>  <REMARK>
 VINA RESULT:      -8.4      2.790      5.641
  Name = 
  3 active torsions:
  status: ('A' for Active; 'I' for Inactive)
    1  A    between atoms: C_5  and  N_16
    2  A    between atoms: C_5  and  C_30
    3  A    between atoms: C_10  and  N_16
                            x       y       z     vdW  Elec       q    Type
                         _______ _______ _______ _____ _____    ______ ____

>  <TORSDO>
F 3

$$$$
=
 OpenBabel11112416483D

 31 35  0  0  1  0  0  0  0  0999 V2000
  185.3320  178.2200  146.9690 C   0  0  0  0  0  0  0  0  0  0  0  0
  186.9670  177.1280  143.6720 C   0  0  2  0  0  3  0  0  0  0  0  0
  185.9920  177.6630  142.6280 C   0  0  0  0  0  0  0  0  0  0  0  0
  183.6960  178.0310  141.8950 C   0  0  0  0  0  0  0  0  0  0  0  0
  186.7840  177.5880  145.1160 C   0  0  0  0  0  0  0  0  0  0  0  0
  186.4220  178.2260  147.8370 C   0  0  0  0  0  3  0  0  0  0  0  0
  184.6110  177.6510  142.8800 C   0  0  0  0  0  3  0  0  0  0  0  0
  189.3590  176.5530  144.2130 C   0  0  2  0  0  3  0  0  0  0  0  0
  184.0650  178.5330  147.4430 O   0  0  0  0  0  1  0  0  0  0  0  0
  187.8870  177.9560  140.9440 C   0  0  0  0  0  2  0  0  0  0  0  0
  182.3690  178.0340  142.1700 F   0  0  0  0  0  0  0  0  0  0  0  0
  189.2930  177.2570  145.5660 C   0  0  0  0  0  2  0  0  0  0  0  0
  188.4340  177.3050  143.2550 C   0  0  1  0  0  3  0  0  0  0  0  0
  185.5110  177.8920  145.6240 C   0  0  0  0  0  3  0  0  0  0  0  0
  184.1480  178.3980  140.6280 C   0  0  0  0  0  3  0  0  0  0  0  0
  187.8830  177.5600  146.0180 C   0  0  0  0  0  0  0  0  0  0  0  0
  187.6930  177.8980  147.3620 C   0  0  0  0  0  3  0  0  0  0  0  0
  188.6630  176.9630  141.7940 C   0  0  0  0  0  2  0  0  0  0  0  0
  186.4340  177.9830  141.3170 C   0  0  0  0  0  0  0  0  0  0  0  0
  185.5120  178.3710  140.3410 C   0  0  0  0  0  3  0  0  0  0  0  0
  188.9630  175.1550  144.3770 N   0  0  0  0  0  2  0  0  0  0  0  0
  190.9450  174.0720  144.9410 O   0  0  0  0  0  1  0  0  0  0  0  0
  190.0400  174.2970  143.9020 C   0  0  1  0  0  3  0  0  0  0  0  0
  190.8110  172.6200  140.6200 C   0  0  1  0  0  3  0  0  0  0  0  0
  190.7900  171.6710  143.3350 S   0  0  0  0  0  0  0  0  0  0  0  0
  187.5860  173.7390  142.1220 O   0  0  0  0  0  1  0  0  0  0  0  0
  191.4650  173.0370  139.3210 C   0  0  0  0  0  1  0  0  0  0  0  0
  192.0300  172.7460  141.9630 S   0  0  0  0  0  0  0  0  0  0  0  0
  188.7710  173.0090  142.0350 C   0  0  2  0  0  3  0  0  0  0  0  0
  189.4890  172.9550  143.3940 C   0  0  2  0  0  3  0  0  0  0  0  0
  189.6420  173.5500  140.9050 C   0  0  0  0  0  2  0  0  0  0  0  0
  1  9  1  0  0  0  0
  1  6  1  0  0  0  0
  2  3  1  6  0  0  0
  2  5  1  0  0  0  0
  3  7  1  0  0  0  0
  4 11  1  0  0  0  0
  4  7  2  0  0  0  0
  5 14  1  0  0  0  0
  5 16  2  0  0  0  0
  8 21  1  1  0  0  0
  8 12  1  0  0  0  0
 10 19  1  0  0  0  0
 10 18  1  0  0  0  0
 12 16  1  0  0  0  0
 13 18  1  6  0  0  0
 13  2  1  0  0  0  0
 13  8  1  0  0  0  0
 14  1  2  0  0  0  0
 15  4  1  0  0  0  0
 16 17  1  0  0  0  0
 17  6  2  0  0  0  0
 19  3  2  0  0  0  0
 20 15  2  0  0  0  0
 20 19  1  0  0  0  0
 23 21  1  0  0  0  0
 23 22  1  1  0  0  0
 24 27  1  6  0  0  0
 24 31  1  0  0  0  0
 24 28  1  0  0  0  0
 25 30  1  0  0  0  0
 28 25  1  0  0  0  0
 29 26  1  1  0  0  0
 29 30  1  0  0  0  0
 30 23  1  6  0  0  0
 31 29  1  0  0  0  0
M  END
>  <MODEL>
4

>  <REMARK>
 VINA RESULT:      -8.2      2.823      5.170
  Name = 
  3 active torsions:
  status: ('A' for Active; 'I' for Inactive)
    1  A    between atoms: C_5  and  N_16
    2  A    between atoms: C_5  and  C_30
    3  A    between atoms: C_10  and  N_16
                            x       y       z     vdW  Elec       q    Type
                         _______ _______ _______ _____ _____    ______ ____

>  <TORSDO>
F 3

$$$$
=
 OpenBabel11112416483D

 31 35  0  0  1  0  0  0  0  0999 V2000
  191.4120  176.7120  147.4040 C   0  0  0  0  0  0  0  0  0  0  0  0
  188.7160  176.6280  144.6730 C   0  0  2  0  0  3  0  0  0  0  0  0
  187.6390  177.5450  145.2450 C   0  0  0  0  0  0  0  0  0  0  0  0
  186.3260  178.3020  147.1540 C   0  0  0  0  0  0  0  0  0  0  0  0
  190.0740  176.6080  145.3690 C   0  0  0  0  0  0  0  0  0  0  0  0
  192.5520  176.3550  146.6870 C   0  0  0  0  0  3  0  0  0  0  0  0
  187.3810  177.5560  146.6250 C   0  0  0  0  0  3  0  0  0  0  0  0
  189.8250  175.7310  142.5960 C   0  0  2  0  0  3  0  0  0  0  0  0
  191.4960  176.9500  148.7690 O   0  0  0  0  0  1  0  0  0  0  0  0
  186.9070  178.2250  142.8960 C   0  0  0  0  0  2  0  0  0  0  0  0
  186.1120  178.3160  148.4920 F   0  0  0  0  0  0  0  0  0  0  0  0
  191.2240  175.9620  143.1630 C   0  0  0  0  0  2  0  0  0  0  0  0
  188.9120  176.8210  143.1620 C   0  0  1  0  0  3  0  0  0  0  0  0
  190.1840  176.8260  146.7510 C   0  0  0  0  0  3  0  0  0  0  0  0
  185.4890  179.0250  146.3060 C   0  0  0  0  0  3  0  0  0  0  0  0
  191.2360  176.2070  144.6540 C   0  0  0  0  0  0  0  0  0  0  0  0
  192.4630  176.1040  145.3160 C   0  0  0  0  0  3  0  0  0  0  0  0
  187.5940  176.9540  142.4210 C   0  0  0  0  0  2  0  0  0  0  0  0
  186.7440  178.2380  144.3880 C   0  0  0  0  0  0  0  0  0  0  0  0
  185.6960  178.9900  144.9280 C   0  0  0  0  0  3  0  0  0  0  0  0
  189.3710  174.3900  142.9610 N   0  0  0  0  0  2  0  0  0  0  0  0
  190.9100  172.7670  143.6100 O   0  0  0  0  0  1  0  0  0  0  0  0
  190.3540  173.4150  142.5060 C   0  0  1  0  0  3  0  0  0  0  0  0
  191.6930  172.1960  139.2050 C   0  0  1  0  0  3  0  0  0  0  0  0
  190.6690  170.8270  141.5170 S   0  0  0  0  0  0  0  0  0  0  0  0
  188.4790  173.8620  140.1000 O   0  0  0  0  0  1  0  0  0  0  0  0
  192.7760  172.6420  138.2460 C   0  0  0  0  0  1  0  0  0  0  0  0
  192.4570  171.7510  140.7930 S   0  0  0  0  0  0  0  0  0  0  0  0
  189.4550  172.8660  140.1300 C   0  0  2  0  0  3  0  0  0  0  0  0
  189.7090  172.3820  141.5680 C   0  0  2  0  0  3  0  0  0  0  0  0
  190.7150  173.3410  139.4130 C   0  0  0  0  0  2  0  0  0  0  0  0
  1  9  1  0  0  0  0
  2  3  1  1  0  0  0
  2  5  1  0  0  0  0
  3  7  1  0  0  0  0
  4 11  1  0  0  0  0
  5 14  2  0  0  0  0
  6  1  2  0  0  0  0
  7  4  2  0  0  0  0
  8 21  1  1  0  0  0
  8 13  1  0  0  0  0
  8 12  1  0  0  0  0
 10 19  1  0  0  0  0
 12 16  1  0  0  0  0
 13 18  1  6  0  0  0
 13  2  1  0  0  0  0
 14  1  1  0  0  0  0
 15  4  1  0  0  0  0
 16 17  2  0  0  0  0
 16  5  1  0  0  0  0
 17  6  1  0  0  0  0
 18 10  1  0  0  0  0
 19 20  1  0  0  0  0
 19  3  2  0  0  0  0
 20 15  2  0  0  0  0
 23 21  1  0  0  0  0
 23 22  1  1  0  0  0
 24 27  1  6  0  0  0
 24 31  1  0  0  0  0
 24 28  1  0  0  0  0
 25 30  1  0  0  0  0
 28 25  1  0  0  0  0
 29 26  1  1  0  0  0
 29 30  1  0  0  0  0
 30 23  1  1  0  0  0
 31 29  1  0  0  0  0
M  END
>  <MODEL>
5

>  <REMARK>
 VINA RESULT:      -8.1      2.654      5.200
  Name = 
  3 active torsions:
  status: ('A' for Active; 'I' for Inactive)
    1  A    between atoms: C_5  and  N_16
    2  A    between atoms: C_5  and  C_30
    3  A    between atoms: C_10  and  N_16
                            x       y       z     vdW  Elec       q    Type
                         _______ _______ _______ _____ _____    ______ ____

>  <TORSDO>
F 3

$$$$
=
 OpenBabel11112416483D

 31 35  0  0  1  0  0  0  0  0999 V2000
  191.2800  176.6600  147.3830 C   0  0  0  0  0  0  0  0  0  0  0  0
  188.5300  176.7040  144.7060 C   0  0  2  0  0  3  0  0  0  0  0  0
  187.4270  177.5150  145.3800 C   0  0  0  0  0  0  0  0  0  0  0  0
  186.1260  178.0350  147.3740 C   0  0  0  0  0  0  0  0  0  0  0  0
  189.9020  176.6820  145.3720 C   0  0  0  0  0  0  0  0  0  0  0  0
  192.4180  176.4210  146.6150 C   0  0  0  0  0  3  0  0  0  0  0  0
  187.2000  177.3890  146.7590 C   0  0  0  0  0  3  0  0  0  0  0  0
  189.6290  176.0500  142.5360 C   0  0  2  0  0  3  0  0  0  0  0  0
  191.3840  176.7760  148.7620 O   0  0  0  0  0  1  0  0  0  0  0  0
  186.6140  178.3720  143.1170 C   0  0  0  0  0  2  0  0  0  0  0  0
  185.9410  177.9170  148.7120 F   0  0  0  0  0  0  0  0  0  0  0  0
  191.0290  176.2910  143.0950 C   0  0  0  0  0  2  0  0  0  0  0  0
  188.6830  177.0420  143.2160 C   0  0  1  0  0  3  0  0  0  0  0  0
  190.0330  176.7770  146.7660 C   0  0  0  0  0  3  0  0  0  0  0  0
  185.2390  178.7940  146.6120 C   0  0  0  0  0  3  0  0  0  0  0  0
  191.0650  176.4000  144.6020 C   0  0  0  0  0  0  0  0  0  0  0  0
  192.3100  176.2930  145.2290 C   0  0  0  0  0  3  0  0  0  0  0  0
  187.3440  177.1820  142.5150 C   0  0  0  0  0  2  0  0  0  0  0  0
  186.4840  178.2420  144.6070 C   0  0  0  0  0  0  0  0  0  0  0  0
  185.4170  178.8940  145.2320 C   0  0  0  0  0  3  0  0  0  0  0  0
  189.2420  174.6620  142.7840 N   0  0  0  0  0  2  0  0  0  0  0  0
  188.8130  174.5410  140.4990 O   0  0  0  0  0  1  0  0  0  0  0  0
  189.4360  173.8890  141.5640 C   0  0  1  0  0  3  0  0  0  0  0  0
  191.1740  170.7250  140.4930 C   0  0  1  0  0  3  0  0  0  0  0  0
  191.2270  173.4160  139.4790 S   0  0  0  0  0  0  0  0  0  0  0  0
  191.7130  172.9650  143.4260 O   0  0  0  0  0  1  0  0  0  0  0  0
  190.8170  169.2550  140.4560 C   0  0  0  0  0  1  0  0  0  0  0  0
  190.0430  171.6360  139.4000 S   0  0  0  0  0  0  0  0  0  0  0  0
  191.6450  172.6190  142.0770 C   0  0  2  0  0  3  0  0  0  0  0  0
  190.9320  173.7100  141.2600 C   0  0  2  0  0  3  0  0  0  0  0  0
  191.0250  171.2340  141.9180 C   0  0  0  0  0  2  0  0  0  0  0  0
  1  9  1  0  0  0  0
  2  5  1  1  0  0  0
  2  3  1  0  0  0  0
  3  7  1  0  0  0  0
  4 11  1  0  0  0  0
  5 14  2  0  0  0  0
  6  1  2  0  0  0  0
  7  4  2  0  0  0  0
  8 21  1  1  0  0  0
  8 12  1  0  0  0  0
  8 13  1  0  0  0  0
 10 19  1  0  0  0  0
 12 16  1  0  0  0  0
 13 18  1  6  0  0  0
 13  2  1  0  0  0  0
 14  1  1  0  0  0  0
 15  4  1  0  0  0  0
 16 17  2  0  0  0  0
 16  5  1  0  0  0  0
 17  6  1  0  0  0  0
 18 10  1  0  0  0  0
 19 20  1  0  0  0  0
 19  3  2  0  0  0  0
 20 15  2  0  0  0  0
 23 22  1  6  0  0  0
 23 21  1  0  0  0  0
 24 27  1  1  0  0  0
 24 31  1  0  0  0  0
 25 30  1  0  0  0  0
 28 25  1  0  0  0  0
 28 24  1  0  0  0  0
 29 26  1  1  0  0  0
 30 23  1  6  0  0  0
 30 29  1  0  0  0  0
 31 29  1  0  0  0  0
M  END
>  <MODEL>
6

>  <REMARK>
 VINA RESULT:      -8.1      2.878      4.879
  Name = 
  3 active torsions:
  status: ('A' for Active; 'I' for Inactive)
    1  A    between atoms: C_5  and  N_16
    2  A    between atoms: C_5  and  C_30
    3  A    between atoms: C_10  and  N_16
                            x       y       z     vdW  Elec       q    Type
                         _______ _______ _______ _____ _____    ______ ____

>  <TORSDO>
F 3

$$$$
=
 OpenBabel11112416483D

 31 35  0  0  1  0  0  0  0  0999 V2000
  185.3000  178.3110  147.0880 C   0  0  0  0  0  0  0  0  0  0  0  0
  187.1320  177.1510  143.9200 C   0  0  2  0  0  3  0  0  0  0  0  0
  186.2090  177.6420  142.8080 C   0  0  0  0  0  0  0  0  0  0  0  0
  183.9530  177.9520  141.9390 C   0  0  0  0  0  0  0  0  0  0  0  0
  186.8630  177.6500  145.3370 C   0  0  0  0  0  0  0  0  0  0  0  0
  186.3410  178.3590  148.0140 C   0  0  0  0  0  3  0  0  0  0  0  0
  184.8170  177.6150  142.9830 C   0  0  0  0  0  3  0  0  0  0  0  0
  189.4980  176.6300  144.6090 C   0  0  2  0  0  3  0  0  0  0  0  0
  184.0050  178.6190  147.4810 O   0  0  0  0  0  1  0  0  0  0  0  0
  188.1910  177.9160  141.2240 C   0  0  0  0  0  2  0  0  0  0  0  0
  182.6130  177.9430  142.1390 F   0  0  0  0  0  0  0  0  0  0  0  0
  189.3470  177.3710  145.9350 C   0  0  0  0  0  2  0  0  0  0  0  0
  188.6170  177.3400  143.5790 C   0  0  1  0  0  3  0  0  0  0  0  0
  185.5590  177.9490  145.7650 C   0  0  0  0  0  3  0  0  0  0  0  0
  184.4690  178.2910  140.6890 C   0  0  0  0  0  3  0  0  0  0  0  0
  187.9100  177.6650  146.2990 C   0  0  0  0  0  0  0  0  0  0  0  0
  187.6410  178.0380  147.6200 C   0  0  0  0  0  3  0  0  0  0  0  0
  188.9330  176.9600  142.1440 C   0  0  0  0  0  2  0  0  0  0  0  0
  186.7190  177.9300  141.5150 C   0  0  0  0  0  0  0  0  0  0  0  0
  185.8480  178.2760  140.4780 C   0  0  0  0  0  3  0  0  0  0  0  0
  189.1130  175.2310  144.7910 N   0  0  0  0  0  2  0  0  0  0  0  0
  189.8560  173.8340  143.0840 O   0  0  0  0  0  1  0  0  0  0  0  0
  190.1950  174.3750  144.3250 C   0  0  1  0  0  3  0  0  0  0  0  0
  193.6830  172.9700  144.1320 C   0  0  1  0  0  3  0  0  0  0  0  0
  192.2860  174.9360  142.5670 S   0  0  0  0  0  0  0  0  0  0  0  0
  192.1060  175.3360  146.5450 O   0  0  0  0  0  1  0  0  0  0  0  0
  194.3200  171.6200  144.3820 C   0  0  0  0  0  1  0  0  0  0  0  0
  192.4920  172.8170  142.7680 S   0  0  0  0  0  0  0  0  0  0  0  0
  192.5490  174.8820  145.3030 C   0  0  2  0  0  3  0  0  0  0  0  0
  191.5080  175.1650  144.2060 C   0  0  2  0  0  3  0  0  0  0  0  0
  192.9590  173.4160  145.3920 C   0  0  0  0  0  2  0  0  0  0  0  0
  1  9  1  0  0  0  0
  1  6  1  0  0  0  0
  2  3  1  6  0  0  0
  2  5  1  0  0  0  0
  3  7  1  0  0  0  0
  4 11  1  0  0  0  0
  4  7  2  0  0  0  0
  5 14  1  0  0  0  0
  5 16  2  0  0  0  0
  8 21  1  1  0  0  0
  8 12  1  0  0  0  0
 10 19  1  0  0  0  0
 10 18  1  0  0  0  0
 12 16  1  0  0  0  0
 13 18  1  6  0  0  0
 13  2  1  0  0  0  0
 13  8  1  0  0  0  0
 14  1  2  0  0  0  0
 15  4  1  0  0  0  0
 16 17  1  0  0  0  0
 17  6  2  0  0  0  0
 19  3  2  0  0  0  0
 20 15  2  0  0  0  0
 20 19  1  0  0  0  0
 23 22  1  6  0  0  0
 23 21  1  0  0  0  0
 24 27  1  1  0  0  0
 24 31  1  0  0  0  0
 25 28  1  0  0  0  0
 25 30  1  0  0  0  0
 28 24  1  0  0  0  0
 29 31  1  0  0  0  0
 29 26  1  1  0  0  0
 30 23  1  1  0  0  0
 30 29  1  0  0  0  0
M  END
>  <MODEL>
7

>  <REMARK>
 VINA RESULT:      -7.7      2.361      4.257
  Name = 
  3 active torsions:
  status: ('A' for Active; 'I' for Inactive)
    1  A    between atoms: C_5  and  N_16
    2  A    between atoms: C_5  and  C_30
    3  A    between atoms: C_10  and  N_16
                            x       y       z     vdW  Elec       q    Type
                         _______ _______ _______ _____ _____    ______ ____

>  <TORSDO>
F 3

$$$$
=
 OpenBabel11112416483D

 31 35  0  0  1  0  0  0  0  0999 V2000
  186.0820  178.1240  146.6300 C   0  0  0  0  0  0  0  0  0  0  0  0
  186.6660  176.7570  143.0910 C   0  0  2  0  0  3  0  0  0  0  0  0
  185.6020  177.4870  142.2760 C   0  0  0  0  0  0  0  0  0  0  0  0
  183.3190  178.3160  142.0710 C   0  0  0  0  0  0  0  0  0  0  0  0
  186.9150  177.2310  144.5200 C   0  0  0  0  0  0  0  0  0  0  0  0
  187.3220  177.9030  147.2260 C   0  0  0  0  0  3  0  0  0  0  0  0
  184.3420  177.7510  142.8350 C   0  0  0  0  0  3  0  0  0  0  0  0
  188.9560  175.7080  143.0940 C   0  0  2  0  0  3  0  0  0  0  0  0
  185.0470  178.6820  147.3670 O   0  0  0  0  0  1  0  0  0  0  0  0
  187.0790  177.4090  140.1960 C   0  0  0  0  0  2  0  0  0  0  0  0
  182.1190  178.5840  142.6390 F   0  0  0  0  0  0  0  0  0  0  0  0
  189.3430  176.3980  144.4000 C   0  0  0  0  0  2  0  0  0  0  0  0
  188.0020  176.6400  142.3440 C   0  0  1  0  0  3  0  0  0  0  0  0
  185.8790  177.7800  145.2920 C   0  0  0  0  0  3  0  0  0  0  0  0
  183.5300  178.5970  140.7210 C   0  0  0  0  0  3  0  0  0  0  0  0
  188.1640  176.9740  145.1490 C   0  0  0  0  0  0  0  0  0  0  0  0
  188.3590  177.3300  146.4870 C   0  0  0  0  0  3  0  0  0  0  0  0
  187.8170  176.2720  140.8830 C   0  0  0  0  0  2  0  0  0  0  0  0
  185.7850  177.7240  140.8880 C   0  0  0  0  0  0  0  0  0  0  0  0
  184.7590  178.2990  140.1330 C   0  0  0  0  0  3  0  0  0  0  0  0
  188.3390  174.4160  143.3960 N   0  0  0  0  0  2  0  0  0  0  0  0
  188.5450  173.1530  141.4510 O   0  0  0  0  0  1  0  0  0  0  0  0
  189.0860  173.3630  142.7210 C   0  0  1  0  0  3  0  0  0  0  0  0
  191.9980  171.0050  142.3490 C   0  0  1  0  0  3  0  0  0  0  0  0
  191.2180  173.3790  140.9240 S   0  0  0  0  0  0  0  0  0  0  0  0
  191.2330  173.5960  144.9200 O   0  0  0  0  0  1  0  0  0  0  0  0
  192.2100  169.5160  142.5140 C   0  0  0  0  0  1  0  0  0  0  0  0
  190.7910  171.2860  141.0180 S   0  0  0  0  0  0  0  0  0  0  0  0
  191.5000  173.1000  143.6440 C   0  0  2  0  0  3  0  0  0  0  0  0
  190.5710  173.7370  142.5960 C   0  0  2  0  0  3  0  0  0  0  0  0
  191.4590  171.5750  143.6520 C   0  0  0  0  0  2  0  0  0  0  0  0
  1  6  1  0  0  0  0
  1  9  1  0  0  0  0
  2  3  1  6  0  0  0
  2  5  1  0  0  0  0
  3  7  1  0  0  0  0
  4 11  1  0  0  0  0
  4  7  2  0  0  0  0
  5 16  2  0  0  0  0
  5 14  1  0  0  0  0
  8 21  1  1  0  0  0
  8 12  1  0  0  0  0
 10 18  1  0  0  0  0
 10 19  1  0  0  0  0
 12 16  1  0  0  0  0
 13 18  1  6  0  0  0
 13  2  1  0  0  0  0
 13  8  1  0  0  0  0
 14  1  2  0  0  0  0
 15  4  1  0  0  0  0
 16 17  1  0  0  0  0
 17  6  2  0  0  0  0
 19  3  2  0  0  0  0
 20 15  2  0  0  0  0
 20 19  1  0  0  0  0
 23 22  1  6  0  0  0
 23 21  1  0  0  0  0
 24 27  1  1  0  0  0
 24 31  1  0  0  0  0
 25 28  1  0  0  0  0
 25 30  1  0  0  0  0
 28 24  1  0  0  0  0
 29 31  1  0  0  0  0
 29 26  1  1  0  0  0
 30 23  1  6  0  0  0
 30 29  1  0  0  0  0
M  END
>  <MODEL>
8

>  <REMARK>
 VINA RESULT:      -7.3      3.045      4.734
  Name = 
  3 active torsions:
  status: ('A' for Active; 'I' for Inactive)
    1  A    between atoms: C_5  and  N_16
    2  A    between atoms: C_5  and  C_30
    3  A    between atoms: C_10  and  N_16
                            x       y       z     vdW  Elec       q    Type
                         _______ _______ _______ _____ _____    ______ ____

>  <TORSDO>
F 3

$$$$
=
 OpenBabel11112416483D

 31 35  0  0  1  0  0  0  0  0999 V2000
  189.9460  172.4120  141.0230 C   0  0  0  0  0  0  0  0  0  0  0  0
  189.7320  175.3900  143.4350 C   0  0  2  0  0  3  0  0  0  0  0  0
  191.0770  175.3310  144.1520 C   0  0  0  0  0  0  0  0  0  0  0  0
  192.8320  174.0140  145.2140 C   0  0  0  0  0  0  0  0  0  0  0  0
  189.5420  174.5050  142.2070 C   0  0  0  0  0  0  0  0  0  0  0  0
  189.0220  172.7740  140.0440 C   0  0  0  0  0  3  0  0  0  0  0  0
  191.6590  174.0920  144.4600 C   0  0  0  0  0  3  0  0  0  0  0  0
  187.8570  176.8540  142.6040 C   0  0  2  0  0  3  0  0  0  0  0  0
  190.6160  171.2000  140.9310 O   0  0  0  0  0  1  0  0  0  0  0  0
  191.0650  177.8620  144.4780 C   0  0  0  0  0  2  0  0  0  0  0  0
  193.3880  172.8070  145.4770 F   0  0  0  0  0  0  0  0  0  0  0  0
  187.8290  176.1610  141.2440 C   0  0  0  0  0  2  0  0  0  0  0  0
  189.3020  176.8280  143.1070 C   0  0  1  0  0  3  0  0  0  0  0  0
  190.1930  173.2650  142.0990 C   0  0  0  0  0  3  0  0  0  0  0  0
  193.4260  175.1770  145.7010 C   0  0  0  0  0  3  0  0  0  0  0  0
  188.5730  174.8460  141.2230 C   0  0  0  0  0  0  0  0  0  0  0  0
  188.3390  173.9870  140.1450 C   0  0  0  0  0  3  0  0  0  0  0  0
  189.5630  177.7850  144.2550 C   0  0  0  0  0  2  0  0  0  0  0  0
  191.6590  176.5030  144.7030 C   0  0  0  0  0  0  0  0  0  0  0  0
  192.8390  176.4170  145.4490 C   0  0  0  0  0  3  0  0  0  0  0  0
  186.9450  176.1640  143.5160 N   0  0  0  0  0  2  0  0  0  0  0  0
  185.2870  177.7540  143.8920 O   0  0  0  0  0  1  0  0  0  0  0  0
  186.3970  177.1280  144.4600 C   0  0  1  0  0  3  0  0  0  0  0  0
  186.4600  178.6140  147.9200 C   0  0  1  0  0  3  0  0  0  0  0  0
  184.4550  177.1570  146.4610 S   0  0  0  0  0  0  0  0  0  0  0  0
  188.1440  175.6070  146.4950 O   0  0  0  0  0  1  0  0  0  0  0  0
  187.0650  179.8470  148.5550 C   0  0  0  0  0  1  0  0  0  0  0  0
  185.2580  179.1290  146.6560 S   0  0  0  0  0  0  0  0  0  0  0  0
  187.0700  176.4150  146.8670 C   0  0  2  0  0  3  0  0  0  0  0  0
  185.9890  176.4400  145.7730 C   0  0  2  0  0  3  0  0  0  0  0  0
  187.5670  177.8010  147.2670 C   0  0  0  0  0  2  0  0  0  0  0  0
  1 14  1  0  0  0  0
  2  5  1  6  0  0  0
  2  3  1  0  0  0  0
  3  7  2  0  0  0  0
  3 19  1  0  0  0  0
  4 11  1  0  0  0  0
  4 15  2  0  0  0  0
  6 17  1  0  0  0  0
  6  1  2  0  0  0  0
  7  4  1  0  0  0  0
  8 13  1  0  0  0  0
  8 21  1  1  0  0  0
  9  1  1  0  0  0  0
 10 19  1  0  0  0  0
 12  8  1  0  0  0  0
 13  2  1  0  0  0  0
 13 18  1  1  0  0  0
 14  5  2  0  0  0  0
 16 12  1  0  0  0  0
 16  5  1  0  0  0  0
 17 16  2  0  0  0  0
 18 10  1  0  0  0  0
 19 20  2  0  0  0  0
 20 15  1  0  0  0  0
 21 23  1  0  0  0  0
 23 22  1  6  0  0  0
 24 27  1  6  0  0  0
 25 28  1  0  0  0  0
 28 24  1  0  0  0  0
 29 26  1  6  0  0  0
 29 31  1  0  0  0  0
 30 23  1  6  0  0  0
 30 25  1  0  0  0  0
 30 29  1  0  0  0  0
 31 24  1  0  0  0  0
M  END
>  <MODEL>
9

>  <REMARK>
 VINA RESULT:      -7.0      4.069      6.811
  Name = 
  3 active torsions:
  status: ('A' for Active; 'I' for Inactive)
    1  A    between atoms: C_5  and  N_16
    2  A    between atoms: C_5  and  C_30
    3  A    between atoms: C_10  and  N_16
                            x       y       z     vdW  Elec       q    Type
                         _______ _______ _______ _____ _____    ______ ____

>  <TORSDO>
F 3

$$$$
