=
 OpenBabel11112416133D

 30 35  0  0  1  0  0  0  0  0999 V2000
  186.4890  177.6360  143.7730 C   0  0  0  0  0  0  0  0  0  0  0  0
  184.8630  178.7970  145.3820 C   0  0  0  0  0  0  0  0  0  0  0  0
  188.6880  176.0280  146.9700 N   0  0  0  0  0  2  0  0  0  0  0  0
  187.6000  176.7740  143.5550 C   0  0  0  0  0  0  0  0  0  0  0  0
  185.8500  178.2910  142.5800 C   0  0  0  0  0  2  0  0  0  0  0  0
  187.3650  176.4640  139.9230 O   0  0  0  0  0  0  0  0  0  0  0  0
  190.3220  175.7480  142.4830 C   0  0  1  0  0  3  0  0  0  0  0  0
  187.0470  176.7180  141.1190 C   0  0  0  0  0  0  0  0  0  0  0  0
  190.4440  175.3290  143.8910 C   0  0  0  0  0  0  0  0  0  0  0  0
  189.7610  175.2910  146.3100 C   0  0  1  0  0  3  0  0  0  0  0  0
  185.7110  177.3230  141.4180 C   0  0  2  0  0  3  0  0  0  0  0  0
  187.9250  176.3500  142.2000 N   0  0  0  0  0  0  0  0  0  0  0  0
  184.3590  178.9040  146.7550 C   0  0  0  0  0  3  0  0  0  0  0  0
  191.7070  174.6210  144.0880 C   0  0  0  0  0  2  0  0  0  0  0  0
  191.3610  175.1220  141.7710 O   0  0  0  0  0  0  0  0  0  0  0  0
  184.2490  179.4090  144.4700 O   0  0  0  0  0  0  0  0  0  0  0  0
  187.8620  176.6030  145.9640 C   0  0  0  0  0  0  0  0  0  0  0  0
  185.0310  178.3870  147.7810 C   0  0  0  0  0  3  0  0  0  0  0  0
  186.0530  177.9470  145.0980 C   0  0  0  0  0  0  0  0  0  0  0  0
  188.3000  176.3250  144.6950 C   0  0  0  0  0  0  0  0  0  0  0  0
  189.5980  173.8070  146.5920 C   0  0  0  0  0  1  0  0  0  0  0  0
  189.5440  175.5680  144.8470 C   0  0  0  0  0  0  0  0  0  0  0  0
  192.3420  174.7500  142.7180 C   0  0  0  0  0  2  0  0  0  0  0  0
  188.5170  173.9470  142.1570 C   0  0  0  0  0  1  0  0  0  0  0  0
  186.3740  177.7290  147.6270 C   0  0  0  0  0  2  0  0  0  0  0  0
  186.7420  177.3940  146.2030 C   0  0  0  0  0  0  0  0  0  0  0  0
  188.9720  175.3760  141.8790 C   0  0  2  0  0  3  0  0  0  0  0  0
  185.2040  178.0050  140.2790 O   0  0  0  0  0  0  0  0  0  0  0  0
  182.8590  177.9720  140.4230 C   0  0  0  0  0  2  0  0  0  0  0  0
  183.9830  178.6660  140.3320 C   0  0  0  0  0  3  0  0  0  0  0  0
  1 19  1  0  0  0  0
  2 13  1  0  0  0  0
  4  1  2  0  0  0  0
  4 20  1  0  0  0  0
  5  1  1  0  0  0  0
  6  8  2  0  0  0  0
  7 15  1  6  0  0  0
  7  9  1  0  0  0  0
  8 11  1  0  0  0  0
  8 12  1  0  0  0  0
  9 14  1  0  0  0  0
  9 22  2  0  0  0  0
 10 21  1  6  0  0  0
 10  3  1  0  0  0  0
 11 28  1  6  0  0  0
 11  5  1  0  0  0  0
 12  4  1  0  0  0  0
 13 18  2  0  0  0  0
 15 23  1  0  0  0  0
 16  2  2  0  0  0  0
 17 26  1  0  0  0  0
 17  3  1  0  0  0  0
 19  2  1  0  0  0  0
 19 26  2  0  0  0  0
 20 22  1  0  0  0  0
 20 17  2  0  0  0  0
 22 10  1  0  0  0  0
 23 14  1  0  0  0  0
 25 18  1  0  0  0  0
 26 25  1  0  0  0  0
 27 24  1  1  0  0  0
 27 12  1  0  0  0  0
 27  7  1  0  0  0  0
 28 30  1  0  0  0  0
 30 29  2  0  0  0  0
M  END
>  <MODEL>
1

>  <REMARK>
 VINA RESULT:      -8.6      0.000      0.000
  Name = 
  2 active torsions:
  status: ('A' for Active; 'I' for Inactive)
    1  A    between atoms: C_11  and  O_28
    2  A    between atoms: O_28  and  C_30
                            x       y       z     vdW  Elec       q    Type
                         _______ _______ _______ _____ _____    ______ ____

>  <TORSDO>
F 2

$$$$
=
 OpenBabel11112416133D

 30 35  0  0  1  0  0  0  0  0999 V2000
  186.8950  177.7320  144.0690 C   0  0  0  0  0  0  0  0  0  0  0  0
  185.0200  178.6910  145.5330 C   0  0  0  0  0  0  0  0  0  0  0  0
  189.3810  177.1810  147.4100 N   0  0  0  0  0  2  0  0  0  0  0  0
  188.1840  177.1390  143.9500 C   0  0  0  0  0  0  0  0  0  0  0  0
  186.1310  178.0330  142.8100 C   0  0  0  0  0  2  0  0  0  0  0  0
  188.0720  176.2560  140.4080 O   0  0  0  0  0  0  0  0  0  0  0  0
  191.0850  176.6510  142.9720 C   0  0  1  0  0  3  0  0  0  0  0  0
  187.6890  176.5980  141.5610 C   0  0  0  0  0  0  0  0  0  0  0  0
  191.2890  176.4830  144.4220 C   0  0  0  0  0  0  0  0  0  0  0  0
  190.6070  176.6350  146.8370 C   0  0  1  0  0  3  0  0  0  0  0  0
  186.2420  176.9020  141.8030 C   0  0  2  0  0  3  0  0  0  0  0  0
  188.6170  176.6130  142.6630 N   0  0  0  0  0  0  0  0  0  0  0  0
  184.4900  178.8720  146.8880 C   0  0  0  0  0  3  0  0  0  0  0  0
  192.6820  176.1350  144.6880 C   0  0  0  0  0  2  0  0  0  0  0  0
  192.2520  176.1950  142.3320 O   0  0  0  0  0  0  0  0  0  0  0  0
  184.2870  178.9990  144.5570 O   0  0  0  0  0  0  0  0  0  0  0  0
  188.4520  177.3880  146.3510 C   0  0  0  0  0  0  0  0  0  0  0  0
  185.2550  178.6870  147.9610 C   0  0  0  0  0  3  0  0  0  0  0  0
  186.3830  178.1180  145.3450 C   0  0  0  0  0  0  0  0  0  0  0  0
  188.9590  177.0420  145.1260 C   0  0  0  0  0  0  0  0  0  0  0  0
  190.8030  175.2130  147.3330 C   0  0  0  0  0  1  0  0  0  0  0  0
  190.3470  176.6360  145.3550 C   0  0  0  0  0  0  0  0  0  0  0  0
  193.2830  176.2110  143.2990 C   0  0  0  0  0  2  0  0  0  0  0  0
  189.7710  174.4420  142.9520 C   0  0  0  0  0  1  0  0  0  0  0  0
  186.7180  178.3550  147.8710 C   0  0  0  0  0  2  0  0  0  0  0  0
  187.1730  177.9140  146.5010 C   0  0  0  0  0  0  0  0  0  0  0  0
  189.8710  175.8820  142.4600 C   0  0  2  0  0  3  0  0  0  0  0  0
  185.5990  177.2690  140.5900 O   0  0  0  0  0  0  0  0  0  0  0  0
  183.4690  178.2460  140.4110 C   0  0  0  0  0  2  0  0  0  0  0  0
  184.7800  178.3900  140.5330 C   0  0  0  0  0  3  0  0  0  0  0  0
  1 19  1  0  0  0  0
  2 13  1  0  0  0  0
  4  1  2  0  0  0  0
  4 20  1  0  0  0  0
  5  1  1  0  0  0  0
  6  8  2  0  0  0  0
  7 15  1  6  0  0  0
  7  9  1  0  0  0  0
  8 11  1  0  0  0  0
  8 12  1  0  0  0  0
  9 14  1  0  0  0  0
  9 22  2  0  0  0  0
 10 21  1  1  0  0  0
 10  3  1  0  0  0  0
 11 28  1  6  0  0  0
 11  5  1  0  0  0  0
 12  4  1  0  0  0  0
 13 18  2  0  0  0  0
 15 23  1  0  0  0  0
 16  2  2  0  0  0  0
 17 26  1  0  0  0  0
 17  3  1  0  0  0  0
 19  2  1  0  0  0  0
 19 26  2  0  0  0  0
 20 22  1  0  0  0  0
 20 17  2  0  0  0  0
 22 10  1  0  0  0  0
 23 14  1  0  0  0  0
 25 18  1  0  0  0  0
 26 25  1  0  0  0  0
 27 12  1  0  0  0  0
 27 24  1  1  0  0  0
 27  7  1  0  0  0  0
 29 30  2  0  0  0  0
 30 28  1  0  0  0  0
M  END
>  <MODEL>
2

>  <REMARK>
 VINA RESULT:      -8.6      1.082      1.121
  Name = 
  2 active torsions:
  status: ('A' for Active; 'I' for Inactive)
    1  A    between atoms: C_11  and  O_28
    2  A    between atoms: O_28  and  C_30
                            x       y       z     vdW  Elec       q    Type
                         _______ _______ _______ _____ _____    ______ ____

>  <TORSDO>
F 2

$$$$
=
 OpenBabel11112416133D

 30 35  0  0  1  0  0  0  0  0999 V2000
  188.6170  176.0570  143.3260 C   0  0  0  0  0  0  0  0  0  0  0  0
  186.2290  176.9020  143.7300 C   0  0  0  0  0  0  0  0  0  0  0  0
  189.7580  177.0550  147.2430 N   0  0  0  0  0  2  0  0  0  0  0  0
  189.9250  175.7810  143.8150 C   0  0  0  0  0  0  0  0  0  0  0  0
  188.3340  175.8090  141.8700 C   0  0  0  0  0  2  0  0  0  0  0  0
  191.2310  173.9610  140.9300 O   0  0  0  0  0  0  0  0  0  0  0  0
  193.0200  175.7550  143.9950 C   0  0  1  0  0  3  0  0  0  0  0  0
  190.4120  174.5040  141.7230 C   0  0  0  0  0  0  0  0  0  0  0  0
  192.6990  176.0440  145.4040 C   0  0  0  0  0  0  0  0  0  0  0  0
  191.1690  176.6830  147.2930 C   0  0  1  0  0  3  0  0  0  0  0  0
  188.9510  174.5060  141.3930 C   0  0  2  0  0  3  0  0  0  0  0  0
  190.8630  175.0420  142.9810 N   0  0  0  0  0  0  0  0  0  0  0  0
  185.2210  177.3140  144.7120 C   0  0  0  0  0  3  0  0  0  0  0  0
  193.9320  176.1270  146.1840 C   0  0  0  0  0  2  0  0  0  0  0  0
  194.3890  175.4340  143.9370 O   0  0  0  0  0  0  0  0  0  0  0  0
  185.8700  176.7450  142.5340 O   0  0  0  0  0  0  0  0  0  0  0  0
  189.2620  176.7350  145.9480 C   0  0  0  0  0  0  0  0  0  0  0  0
  185.5580  177.6190  145.9620 C   0  0  0  0  0  3  0  0  0  0  0  0
  187.6280  176.6430  144.1730 C   0  0  0  0  0  0  0  0  0  0  0  0
  190.2230  176.1980  145.1300 C   0  0  0  0  0  0  0  0  0  0  0  0
  191.3520  175.5420  148.2780 C   0  0  0  0  0  1  0  0  0  0  0  0
  191.4700  176.2170  145.8950 C   0  0  0  0  0  0  0  0  0  0  0  0
  194.9830  175.9610  145.1050 C   0  0  0  0  0  2  0  0  0  0  0  0
  192.1030  173.3760  144.3280 C   0  0  0  0  0  1  0  0  0  0  0  0
  186.9830  177.6360  146.4420 C   0  0  0  0  0  2  0  0  0  0  0  0
  187.9600  176.9600  145.5120 C   0  0  0  0  0  0  0  0  0  0  0  0
  192.1880  174.6070  143.4310 C   0  0  2  0  0  3  0  0  0  0  0  0
  188.7540  174.3620  139.9940 O   0  0  0  0  0  0  0  0  0  0  0  0
  188.9310  172.3900  138.7270 C   0  0  0  0  0  2  0  0  0  0  0  0
  188.1950  173.2010  139.4710 C   0  0  0  0  0  3  0  0  0  0  0  0
  1  4  2  0  0  0  0
  1 19  1  0  0  0  0
  2 19  1  0  0  0  0
  2 13  1  0  0  0  0
  3 10  1  0  0  0  0
  4 20  1  0  0  0  0
  5  1  1  0  0  0  0
  6  8  2  0  0  0  0
  7 15  1  1  0  0  0
  7  9  1  0  0  0  0
  8 12  1  0  0  0  0
  9 22  2  0  0  0  0
  9 14  1  0  0  0  0
 10 21  1  1  0  0  0
 11 28  1  6  0  0  0
 11  8  1  0  0  0  0
 11  5  1  0  0  0  0
 12 27  1  0  0  0  0
 12  4  1  0  0  0  0
 13 18  2  0  0  0  0
 15 23  1  0  0  0  0
 16  2  2  0  0  0  0
 17  3  1  0  0  0  0
 18 25  1  0  0  0  0
 19 26  2  0  0  0  0
 20 22  1  0  0  0  0
 20 17  2  0  0  0  0
 22 10  1  0  0  0  0
 23 14  1  0  0  0  0
 26 17  1  0  0  0  0
 26 25  1  0  0  0  0
 27  7  1  0  0  0  0
 27 24  1  1  0  0  0
 29 30  2  0  0  0  0
 30 28  1  0  0  0  0
M  END
>  <MODEL>
3

>  <REMARK>
 VINA RESULT:      -8.2      2.081      3.641
  Name = 
  2 active torsions:
  status: ('A' for Active; 'I' for Inactive)
    1  A    between atoms: C_11  and  O_28
    2  A    between atoms: O_28  and  C_30
                            x       y       z     vdW  Elec       q    Type
                         _______ _______ _______ _____ _____    ______ ____

>  <TORSDO>
F 2

$$$$
=
 OpenBabel11112416133D

 30 35  0  0  1  0  0  0  0  0999 V2000
  187.8630  176.9250  145.9070 C   0  0  0  0  0  0  0  0  0  0  0  0
  185.9930  178.1350  147.1780 C   0  0  0  0  0  0  0  0  0  0  0  0
  185.7180  177.1470  142.3030 N   0  0  0  0  0  2  0  0  0  0  0  0
  188.4050  176.4350  144.6850 C   0  0  0  0  0  0  0  0  0  0  0  0
  188.6270  176.6710  147.1760 C   0  0  0  0  0  2  0  0  0  0  0  0
  191.7410  175.5360  145.8690 O   0  0  0  0  0  0  0  0  0  0  0  0
  189.6750  174.4820  142.6400 C   0  0  1  0  0  3  0  0  0  0  0  0
  190.5930  176.0610  145.8320 C   0  0  0  0  0  0  0  0  0  0  0  0
  188.6410  175.0890  141.7830 C   0  0  0  0  0  0  0  0  0  0  0  0
  186.5870  176.4700  141.3460 C   0  0  1  0  0  3  0  0  0  0  0  0
  190.1180  176.8890  146.9860 C   0  0  2  0  0  3  0  0  0  0  0  0
  189.7740  175.9400  144.6530 N   0  0  0  0  0  0  0  0  0  0  0  0
  184.7720  178.9430  147.0920 C   0  0  0  0  0  3  0  0  0  0  0  0
  188.7360  174.5420  140.4310 C   0  0  0  0  0  2  0  0  0  0  0  0
  190.5390  173.7560  141.7990 O   0  0  0  0  0  0  0  0  0  0  0  0
  186.5300  177.9810  148.3050 O   0  0  0  0  0  0  0  0  0  0  0  0
  186.3680  177.1450  143.5690 C   0  0  0  0  0  0  0  0  0  0  0  0
  184.0860  179.0410  145.9570 C   0  0  0  0  0  3  0  0  0  0  0  0
  186.5820  177.5550  145.9380 C   0  0  0  0  0  0  0  0  0  0  0  0
  187.5840  176.5140  143.5390 C   0  0  0  0  0  0  0  0  0  0  0  0
  187.0660  177.4710  140.3080 C   0  0  0  0  0  1  0  0  0  0  0  0
  187.7430  175.9930  142.1810 C   0  0  0  0  0  0  0  0  0  0  0  0
  189.8330  173.5110  140.6000 C   0  0  0  0  0  2  0  0  0  0  0  0
  190.9380  176.7220  142.6130 C   0  0  0  0  0  1  0  0  0  0  0  0
  184.4580  178.2850  144.7110 C   0  0  0  0  0  2  0  0  0  0  0  0
  185.8430  177.6860  144.7390 C   0  0  0  0  0  0  0  0  0  0  0  0
  190.4630  175.5230  143.4280 C   0  0  2  0  0  3  0  0  0  0  0  0
  190.8140  176.5360  148.1740 O   0  0  0  0  0  0  0  0  0  0  0  0
  191.1920  178.2910  149.6910 C   0  0  0  0  0  2  0  0  0  0  0  0
  191.6670  177.4430  148.7920 C   0  0  0  0  0  3  0  0  0  0  0  0
  1 19  1  0  0  0  0
  1  5  1  0  0  0  0
  2 16  2  0  0  0  0
  3 17  1  0  0  0  0
  4  1  2  0  0  0  0
  7  9  1  6  0  0  0
  7 27  1  0  0  0  0
  8  6  2  0  0  0  0
  8 11  1  0  0  0  0
  9 22  2  0  0  0  0
 10 21  1  6  0  0  0
 10 22  1  0  0  0  0
 10  3  1  0  0  0  0
 11  5  1  0  0  0  0
 11 28  1  1  0  0  0
 12  4  1  0  0  0  0
 12  8  1  0  0  0  0
 13  2  1  0  0  0  0
 14 23  1  0  0  0  0
 14  9  1  0  0  0  0
 15  7  1  0  0  0  0
 17 26  1  0  0  0  0
 18 13  2  0  0  0  0
 19  2  1  0  0  0  0
 20 17  2  0  0  0  0
 20  4  1  0  0  0  0
 22 20  1  0  0  0  0
 23 15  1  0  0  0  0
 25 26  1  0  0  0  0
 25 18  1  0  0  0  0
 26 19  2  0  0  0  0
 27 24  1  6  0  0  0
 27 12  1  0  0  0  0
 28 30  1  0  0  0  0
 30 29  2  0  0  0  0
M  END
>  <MODEL>
4

>  <REMARK>
 VINA RESULT:      -8.1      2.328      5.280
  Name = 
  2 active torsions:
  status: ('A' for Active; 'I' for Inactive)
    1  A    between atoms: C_11  and  O_28
    2  A    between atoms: O_28  and  C_30
                            x       y       z     vdW  Elec       q    Type
                         _______ _______ _______ _____ _____    ______ ____

>  <TORSDO>
F 2

$$$$
=
 OpenBabel11112416133D

 30 35  0  0  1  0  0  0  0  0999 V2000
  187.7750  176.0880  142.2650 C   0  0  0  0  0  0  0  0  0  0  0  0
  185.6670  177.5470  142.1880 C   0  0  0  0  0  0  0  0  0  0  0  0
  188.1090  176.5850  146.4220 N   0  0  0  0  0  2  0  0  0  0  0  0
  188.7990  175.4420  143.0140 C   0  0  0  0  0  0  0  0  0  0  0  0
  187.8150  175.9830  140.7660 C   0  0  0  0  0  2  0  0  0  0  0  0
  190.2730  173.4400  140.3390 O   0  0  0  0  0  0  0  0  0  0  0  0
  191.6310  174.5520  143.9060 C   0  0  1  0  0  3  0  0  0  0  0  0
  189.4500  174.1590  140.9710 C   0  0  0  0  0  0  0  0  0  0  0  0
  191.0520  174.8670  145.2240 C   0  0  0  0  0  0  0  0  0  0  0  0
  189.3140  175.8350  146.7610 C   0  0  1  0  0  3  0  0  0  0  0  0
  188.1720  174.5780  140.3130 C   0  0  2  0  0  3  0  0  0  0  0  0
  189.6920  174.5030  142.3490 N   0  0  0  0  0  0  0  0  0  0  0  0
  184.5860  178.1870  142.9460 C   0  0  0  0  0  3  0  0  0  0  0  0
  192.0250  174.5760  146.2740 C   0  0  0  0  0  2  0  0  0  0  0  0
  192.8390  173.8660  144.1350 O   0  0  0  0  0  0  0  0  0  0  0  0
  185.5940  177.5400  140.9320 O   0  0  0  0  0  0  0  0  0  0  0  0
  187.8910  176.4640  145.0210 C   0  0  0  0  0  0  0  0  0  0  0  0
  184.6640  178.3390  144.2650 C   0  0  0  0  0  3  0  0  0  0  0  0
  186.7920  176.8950  142.9150 C   0  0  0  0  0  0  0  0  0  0  0  0
  188.8530  175.7120  144.3980 C   0  0  0  0  0  0  0  0  0  0  0  0
  188.9400  174.6530  147.6370 C   0  0  0  0  0  1  0  0  0  0  0  0
  189.8270  175.3550  145.4310 C   0  0  0  0  0  0  0  0  0  0  0  0
  193.2340  174.1640  145.4590 C   0  0  0  0  0  2  0  0  0  0  0  0
  190.0750  172.5100  143.7660 C   0  0  0  0  0  1  0  0  0  0  0  0
  185.8750  177.9430  145.0620 C   0  0  0  0  0  2  0  0  0  0  0  0
  186.8450  177.0570  144.3200 C   0  0  0  0  0  0  0  0  0  0  0  0
  190.7010  173.7020  143.0480 C   0  0  2  0  0  3  0  0  0  0  0  0
  188.3050  174.5460  138.8980 O   0  0  0  0  0  0  0  0  0  0  0  0
  187.6580  175.3410  136.7830 C   0  0  0  0  0  2  0  0  0  0  0  0
  187.4410  175.2730  138.0880 C   0  0  0  0  0  3  0  0  0  0  0  0
  1 19  2  0  0  0  0
  1  4  1  0  0  0  0
  2 19  1  0  0  0  0
  2 13  1  0  0  0  0
  3 10  1  0  0  0  0
  4 20  2  0  0  0  0
  5  1  1  0  0  0  0
  6  8  2  0  0  0  0
  7 15  1  1  0  0  0
  7  9  1  0  0  0  0
  8 12  1  0  0  0  0
  9 22  2  0  0  0  0
  9 14  1  0  0  0  0
 10 21  1  1  0  0  0
 11 28  1  6  0  0  0
 11  5  1  0  0  0  0
 11  8  1  0  0  0  0
 12  4  1  0  0  0  0
 12 27  1  0  0  0  0
 13 18  2  0  0  0  0
 15 23  1  0  0  0  0
 16  2  2  0  0  0  0
 17  3  1  0  0  0  0
 18 25  1  0  0  0  0
 19 26  1  0  0  0  0
 20 17  1  0  0  0  0
 20 22  1  0  0  0  0
 22 10  1  0  0  0  0
 23 14  1  0  0  0  0
 26 17  2  0  0  0  0
 26 25  1  0  0  0  0
 27 24  1  1  0  0  0
 27  7  1  0  0  0  0
 29 30  2  0  0  0  0
 30 28  1  0  0  0  0
M  END
>  <MODEL>
5

>  <REMARK>
 VINA RESULT:      -7.9      1.860      3.133
  Name = 
  2 active torsions:
  status: ('A' for Active; 'I' for Inactive)
    1  A    between atoms: C_11  and  O_28
    2  A    between atoms: O_28  and  C_30
                            x       y       z     vdW  Elec       q    Type
                         _______ _______ _______ _____ _____    ______ ____

>  <TORSDO>
F 2

$$$$
=
 OpenBabel11112416133D

 30 35  0  0  1  0  0  0  0  0999 V2000
  187.2800  176.6240  142.1720 C   0  0  0  0  0  0  0  0  0  0  0  0
  185.1210  177.6610  141.2540 C   0  0  0  0  0  0  0  0  0  0  0  0
  186.4110  177.9670  146.0560 N   0  0  0  0  0  2  0  0  0  0  0  0
  188.1280  176.3190  143.2740 C   0  0  0  0  0  0  0  0  0  0  0  0
  187.7380  176.2390  140.7930 C   0  0  0  0  0  2  0  0  0  0  0  0
  190.4910  174.1160  141.5710 O   0  0  0  0  0  0  0  0  0  0  0  0
  190.6920  176.1120  145.0030 C   0  0  1  0  0  3  0  0  0  0  0  0
  189.4510  174.7930  141.8020 C   0  0  0  0  0  0  0  0  0  0  0  0
  189.7440  176.5740  146.0330 C   0  0  0  0  0  0  0  0  0  0  0  0
  187.5560  177.5120  146.8380 C   0  0  1  0  0  3  0  0  0  0  0  0
  188.3620  174.8540  140.7770 C   0  0  2  0  0  3  0  0  0  0  0  0
  189.2680  175.4350  143.0790 N   0  0  0  0  0  0  0  0  0  0  0  0
  183.8100  178.2420  141.5590 C   0  0  0  0  0  3  0  0  0  0  0  0
  190.4210  176.6610  147.3250 C   0  0  0  0  0  2  0  0  0  0  0  0
  191.8610  175.7000  145.6690 O   0  0  0  0  0  0  0  0  0  0  0  0
  185.3940  177.3980  140.0530 O   0  0  0  0  0  0  0  0  0  0  0  0
  186.5970  177.5410  144.7110 C   0  0  0  0  0  0  0  0  0  0  0  0
  183.5070  178.6580  142.7860 C   0  0  0  0  0  3  0  0  0  0  0  0
  186.0720  177.3620  142.3610 C   0  0  0  0  0  0  0  0  0  0  0  0
  187.7720  176.8570  144.5290 C   0  0  0  0  0  0  0  0  0  0  0  0
  187.0940  176.4760  147.8480 C   0  0  0  0  0  1  0  0  0  0  0  0
  188.4620  176.8780  145.8200 C   0  0  0  0  0  0  0  0  0  0  0  0
  191.8450  176.3110  146.9430 C   0  0  0  0  0  2  0  0  0  0  0  0
  189.4740  173.8490  144.9690 C   0  0  0  0  0  1  0  0  0  0  0  0
  184.4930  178.6360  143.9210 C   0  0  0  0  0  2  0  0  0  0  0  0
  185.7220  177.8000  143.6600 C   0  0  0  0  0  0  0  0  0  0  0  0
  190.1330  174.9670  144.1670 C   0  0  2  0  0  3  0  0  0  0  0  0
  188.8770  174.5710  139.4830 O   0  0  0  0  0  0  0  0  0  0  0  0
  188.5140  172.3170  138.9290 C   0  0  0  0  0  2  0  0  0  0  0  0
  188.2910  173.5980  138.6820 C   0  0  0  0  0  3  0  0  0  0  0  0
  1 19  2  0  0  0  0
  1  4  1  0  0  0  0
  2 13  1  0  0  0  0
  2 19  1  0  0  0  0
  3 10  1  0  0  0  0
  4 20  2  0  0  0  0
  5  1  1  0  0  0  0
  6  8  2  0  0  0  0
  7 15  1  1  0  0  0
  7  9  1  0  0  0  0
  8 12  1  0  0  0  0
  9 14  1  0  0  0  0
 10 21  1  1  0  0  0
 11 28  1  6  0  0  0
 11  5  1  0  0  0  0
 11  8  1  0  0  0  0
 12  4  1  0  0  0  0
 12 27  1  0  0  0  0
 13 18  2  0  0  0  0
 15 23  1  0  0  0  0
 16  2  2  0  0  0  0
 17  3  1  0  0  0  0
 18 25  1  0  0  0  0
 19 26  1  0  0  0  0
 20 17  1  0  0  0  0
 20 22  1  0  0  0  0
 22  9  2  0  0  0  0
 22 10  1  0  0  0  0
 23 14  1  0  0  0  0
 26 25  1  0  0  0  0
 26 17  2  0  0  0  0
 27 24  1  1  0  0  0
 27  7  1  0  0  0  0
 30 29  2  0  0  0  0
 30 28  1  0  0  0  0
M  END
>  <MODEL>
6

>  <REMARK>
 VINA RESULT:      -7.8      1.823      3.900
  Name = 
  2 active torsions:
  status: ('A' for Active; 'I' for Inactive)
    1  A    between atoms: C_11  and  O_28
    2  A    between atoms: O_28  and  C_30
                            x       y       z     vdW  Elec       q    Type
                         _______ _______ _______ _____ _____    ______ ____

>  <TORSDO>
F 2

$$$$
=
 OpenBabel11112416133D

 30 35  0  0  1  0  0  0  0  0999 V2000
  188.2810  175.6800  142.1710 C   0  0  0  0  0  0  0  0  0  0  0  0
  186.4170  177.4120  141.8470 C   0  0  0  0  0  0  0  0  0  0  0  0
  189.1480  177.1580  146.0060 N   0  0  0  0  0  2  0  0  0  0  0  0
  189.2750  175.0800  142.9950 C   0  0  0  0  0  0  0  0  0  0  0  0
  188.1370  175.1900  140.7570 C   0  0  0  0  0  2  0  0  0  0  0  0
  190.1270  172.2370  140.8660 O   0  0  0  0  0  0  0  0  0  0  0  0
  192.0260  173.9720  143.8980 C   0  0  1  0  0  3  0  0  0  0  0  0
  189.4960  173.2240  141.3360 C   0  0  0  0  0  0  0  0  0  0  0  0
  191.6510  174.7080  145.1180 C   0  0  0  0  0  0  0  0  0  0  0  0
  190.2590  176.3220  146.4510 C   0  0  1  0  0  3  0  0  0  0  0  0
  188.2280  173.6760  140.6780 C   0  0  2  0  0  3  0  0  0  0  0  0
  189.9390  173.8630  142.5490 N   0  0  0  0  0  0  0  0  0  0  0  0
  185.5350  178.4000  142.4760 C   0  0  0  0  0  3  0  0  0  0  0  0
  192.6820  174.5320  146.1380 C   0  0  0  0  0  2  0  0  0  0  0  0
  193.1360  173.1700  144.2200 O   0  0  0  0  0  0  0  0  0  0  0  0
  186.2030  177.0970  140.6480 O   0  0  0  0  0  0  0  0  0  0  0  0
  188.7590  176.7220  144.7080 C   0  0  0  0  0  0  0  0  0  0  0  0
  185.7820  178.8690  143.6970 C   0  0  0  0  0  3  0  0  0  0  0  0
  187.5070  176.7830  142.6450 C   0  0  0  0  0  0  0  0  0  0  0  0
  189.5230  175.6810  144.2470 C   0  0  0  0  0  0  0  0  0  0  0  0
  189.8140  175.4860  147.6380 C   0  0  0  0  0  1  0  0  0  0  0  0
  190.5430  175.4370  145.2680 C   0  0  0  0  0  0  0  0  0  0  0  0
  193.7180  173.7240  145.3840 C   0  0  0  0  0  2  0  0  0  0  0  0
  190.1780  172.2630  144.4220 C   0  0  0  0  0  1  0  0  0  0  0  0
  187.0020  178.4870  144.4860 C   0  0  0  0  0  2  0  0  0  0  0  0
  187.7410  177.2870  143.9460 C   0  0  0  0  0  0  0  0  0  0  0  0
  190.8890  173.1050  143.3670 C   0  0  2  0  0  3  0  0  0  0  0  0
  188.1960  173.2610  139.3190 O   0  0  0  0  0  0  0  0  0  0  0  0
  188.9660  174.0190  137.2320 C   0  0  0  0  0  2  0  0  0  0  0  0
  188.1910  174.1960  138.2910 C   0  0  0  0  0  3  0  0  0  0  0  0
  1 19  2  0  0  0  0
  1  4  1  0  0  0  0
  2 13  1  0  0  0  0
  2 19  1  0  0  0  0
  3 10  1  0  0  0  0
  4 20  2  0  0  0  0
  5  1  1  0  0  0  0
  6  8  2  0  0  0  0
  7 15  1  1  0  0  0
  7  9  1  0  0  0  0
  8 12  1  0  0  0  0
  9 22  2  0  0  0  0
  9 14  1  0  0  0  0
 10 21  1  1  0  0  0
 11 28  1  6  0  0  0
 11  5  1  0  0  0  0
 11  8  1  0  0  0  0
 12  4  1  0  0  0  0
 12 27  1  0  0  0  0
 13 18  2  0  0  0  0
 15 23  1  0  0  0  0
 16  2  2  0  0  0  0
 17  3  1  0  0  0  0
 18 25  1  0  0  0  0
 19 26  1  0  0  0  0
 20 17  1  0  0  0  0
 20 22  1  0  0  0  0
 22 10  1  0  0  0  0
 23 14  1  0  0  0  0
 26 25  1  0  0  0  0
 26 17  2  0  0  0  0
 27  7  1  0  0  0  0
 27 24  1  1  0  0  0
 29 30  2  0  0  0  0
 30 28  1  0  0  0  0
M  END
>  <MODEL>
7

>  <REMARK>
 VINA RESULT:      -7.6      2.141      3.766
  Name = 
  2 active torsions:
  status: ('A' for Active; 'I' for Inactive)
    1  A    between atoms: C_11  and  O_28
    2  A    between atoms: O_28  and  C_30
                            x       y       z     vdW  Elec       q    Type
                         _______ _______ _______ _____ _____    ______ ____

>  <TORSDO>
F 2

$$$$
=
 OpenBabel11112416133D

 30 35  0  0  1  0  0  0  0  0999 V2000
  188.9810  176.1940  145.5490 C   0  0  0  0  0  0  0  0  0  0  0  0
  187.0500  177.8640  145.7900 C   0  0  0  0  0  0  0  0  0  0  0  0
  187.4550  174.7780  141.9010 N   0  0  0  0  0  2  0  0  0  0  0  0
  189.6620  175.2000  144.7910 C   0  0  0  0  0  0  0  0  0  0  0  0
  189.5110  176.5370  146.9130 C   0  0  0  0  0  2  0  0  0  0  0  0
  192.6780  174.9070  146.8290 O   0  0  0  0  0  0  0  0  0  0  0  0
  191.0580  172.5220  144.0920 C   0  0  1  0  0  3  0  0  0  0  0  0
  191.6010  175.3670  146.3580 C   0  0  0  0  0  0  0  0  0  0  0  0
  190.2290  172.6830  142.8840 C   0  0  0  0  0  0  0  0  0  0  0  0
  188.4000  173.7340  141.5170 C   0  0  1  0  0  3  0  0  0  0  0  0
  191.0270  176.6320  146.9170 C   0  0  2  0  0  3  0  0  0  0  0  0
  190.9700  174.7320  145.2290 N   0  0  0  0  0  0  0  0  0  0  0  0
  185.9340  178.5560  145.1370 C   0  0  0  0  0  3  0  0  0  0  0  0
  190.4860  171.5830  141.9580 C   0  0  0  0  0  2  0  0  0  0  0  0
  191.9750  171.4870  143.8310 O   0  0  0  0  0  0  0  0  0  0  0  0
  187.3880  178.2330  146.9450 O   0  0  0  0  0  0  0  0  0  0  0  0
  187.8960  175.3440  143.1300 C   0  0  0  0  0  0  0  0  0  0  0  0
  185.4460  178.1350  143.9730 C   0  0  0  0  0  3  0  0  0  0  0  0
  187.7720  176.7810  145.0660 C   0  0  0  0  0  0  0  0  0  0  0  0
  189.0410  174.7580  143.6020 C   0  0  0  0  0  0  0  0  0  0  0  0
  189.1230  174.1520  140.2490 C   0  0  0  0  0  1  0  0  0  0  0  0
  189.3640  173.6760  142.6700 C   0  0  0  0  0  0  0  0  0  0  0  0
  191.4470  170.7300  142.7610 C   0  0  0  0  0  2  0  0  0  0  0  0
  192.5030  174.4950  143.3010 C   0  0  0  0  0  1  0  0  0  0  0  0
  185.9400  176.8940  143.2830 C   0  0  0  0  0  2  0  0  0  0  0  0
  187.2440  176.3600  143.8220 C   0  0  0  0  0  0  0  0  0  0  0  0
  191.8020  173.8000  144.4630 C   0  0  2  0  0  3  0  0  0  0  0  0
  191.4940  176.8500  148.2410 O   0  0  0  0  0  0  0  0  0  0  0  0
  191.5600  178.2850  150.1010 C   0  0  0  0  0  2  0  0  0  0  0  0
  190.9050  177.8130  149.0520 C   0  0  0  0  0  3  0  0  0  0  0  0
  1  5  1  0  0  0  0
  2 16  2  0  0  0  0
  3 17  1  0  0  0  0
  4 12  1  0  0  0  0
  4  1  2  0  0  0  0
  5 11  1  0  0  0  0
  7  9  1  6  0  0  0
  7 27  1  0  0  0  0
  8  6  2  0  0  0  0
  8 11  1  0  0  0  0
 10 21  1  6  0  0  0
 10  3  1  0  0  0  0
 10 22  1  0  0  0  0
 11 28  1  1  0  0  0
 12  8  1  0  0  0  0
 13  2  1  0  0  0  0
 14 23  1  0  0  0  0
 14  9  1  0  0  0  0
 15  7  1  0  0  0  0
 17 20  2  0  0  0  0
 17 26  1  0  0  0  0
 18 13  2  0  0  0  0
 19  1  1  0  0  0  0
 19  2  1  0  0  0  0
 20  4  1  0  0  0  0
 22  9  2  0  0  0  0
 22 20  1  0  0  0  0
 23 15  1  0  0  0  0
 25 26  1  0  0  0  0
 25 18  1  0  0  0  0
 26 19  2  0  0  0  0
 27 24  1  6  0  0  0
 27 12  1  0  0  0  0
 28 30  1  0  0  0  0
 30 29  2  0  0  0  0
M  END
>  <MODEL>
8

>  <REMARK>
 VINA RESULT:      -7.4      2.798      5.660
  Name = 
  2 active torsions:
  status: ('A' for Active; 'I' for Inactive)
    1  A    between atoms: C_11  and  O_28
    2  A    between atoms: O_28  and  C_30
                            x       y       z     vdW  Elec       q    Type
                         _______ _______ _______ _____ _____    ______ ____

>  <TORSDO>
F 2

$$$$
=
 OpenBabel11112416133D

 30 35  0  0  1  0  0  0  0  0999 V2000
  189.1880  176.2870  144.8180 C   0  0  0  0  0  0  0  0  0  0  0  0
  190.2380  176.9770  147.0550 C   0  0  0  0  0  0  0  0  0  0  0  0
  192.2450  173.4950  144.1110 N   0  0  0  0  0  2  0  0  0  0  0  0
  189.1830  175.4520  143.6660 C   0  0  0  0  0  0  0  0  0  0  0  0
  188.1430  177.3630  144.9220 C   0  0  0  0  0  2  0  0  0  0  0  0
  185.9410  176.4160  142.2870 O   0  0  0  0  0  0  0  0  0  0  0  0
  189.0990  174.6060  140.6850 C   0  0  1  0  0  3  0  0  0  0  0  0
  186.8920  176.2770  143.1060 C   0  0  0  0  0  0  0  0  0  0  0  0
  190.1830  173.7240  141.1540 C   0  0  0  0  0  0  0  0  0  0  0  0
  191.8980  172.9310  142.8110 C   0  0  1  0  0  3  0  0  0  0  0  0
  186.7790  176.8640  144.4790 C   0  0  2  0  0  3  0  0  0  0  0  0
  188.0440  175.4850  142.7590 N   0  0  0  0  0  0  0  0  0  0  0  0
  191.2060  176.6570  148.1090 C   0  0  0  0  0  3  0  0  0  0  0  0
  190.6430  172.8790  140.0550 C   0  0  0  0  0  2  0  0  0  0  0  0
  188.7310  174.1660  139.4000 O   0  0  0  0  0  0  0  0  0  0  0  0
  189.4240  177.9160  147.2550 O   0  0  0  0  0  0  0  0  0  0  0  0
  191.2490  174.4500  144.4590 C   0  0  0  0  0  0  0  0  0  0  0  0
  192.1720  175.7630  147.9120 C   0  0  0  0  0  3  0  0  0  0  0  0
  190.2150  176.1680  145.8040 C   0  0  0  0  0  0  0  0  0  0  0  0
  190.2810  174.5800  143.4970 C   0  0  0  0  0  0  0  0  0  0  0  0
  191.5530  171.4610  142.9770 C   0  0  0  0  0  1  0  0  0  0  0  0
  190.6790  173.7070  142.3920 C   0  0  0  0  0  0  0  0  0  0  0  0
  189.8140  173.4060  138.9010 C   0  0  0  0  0  2  0  0  0  0  0  0
  187.4330  173.1960  142.0430 C   0  0  0  0  0  1  0  0  0  0  0  0
  192.3910  175.0770  146.5930 C   0  0  0  0  0  2  0  0  0  0  0  0
  191.2430  175.2130  145.6230 C   0  0  0  0  0  0  0  0  0  0  0  0
  187.8880  174.5860  141.6120 C   0  0  2  0  0  3  0  0  0  0  0  0
  185.8460  177.9360  144.4890 O   0  0  0  0  0  0  0  0  0  0  0  0
  184.8710  177.2010  146.4980 C   0  0  0  0  0  2  0  0  0  0  0  0
  184.8160  177.9710  145.4220 C   0  0  0  0  0  3  0  0  0  0  0  0
  1  5  1  0  0  0  0
  1 19  1  0  0  0  0
  2 16  2  0  0  0  0
  2 13  1  0  0  0  0
  3 17  1  0  0  0  0
  4  1  2  0  0  0  0
  6  8  2  0  0  0  0
  7 15  1  6  0  0  0
  7  9  1  0  0  0  0
  7 27  1  0  0  0  0
  8 11  1  0  0  0  0
  9 22  2  0  0  0  0
 10 21  1  1  0  0  0
 10  3  1  0  0  0  0
 11 28  1  6  0  0  0
 11  5  1  0  0  0  0
 12  8  1  0  0  0  0
 12  4  1  0  0  0  0
 14  9  1  0  0  0  0
 17 26  1  0  0  0  0
 18 13  2  0  0  0  0
 19  2  1  0  0  0  0
 20  4  1  0  0  0  0
 20 17  2  0  0  0  0
 22 10  1  0  0  0  0
 22 20  1  0  0  0  0
 23 15  1  0  0  0  0
 23 14  1  0  0  0  0
 25 18  1  0  0  0  0
 26 19  2  0  0  0  0
 26 25  1  0  0  0  0
 27 24  1  1  0  0  0
 27 12  1  0  0  0  0
 28 30  1  0  0  0  0
 30 29  2  0  0  0  0
M  END
>  <MODEL>
9

>  <REMARK>
 VINA RESULT:      -7.3      2.415      4.459
  Name = 
  2 active torsions:
  status: ('A' for Active; 'I' for Inactive)
    1  A    between atoms: C_11  and  O_28
    2  A    between atoms: O_28  and  C_30
                            x       y       z     vdW  Elec       q    Type
                         _______ _______ _______ _____ _____    ______ ____

>  <TORSDO>
F 2

$$$$
