=
 OpenBabel11112417233D

 37 42  0  0  1  0  0  0  0  0999 V2000
  189.3870  172.8250  139.0560 C   0  0  0  0  0  0  0  0  0  0  0  0
  187.9980  176.0780  141.2910 C   0  0  0  0  0  0  0  0  0  0  0  0
  188.1050  175.6610  145.0570 O   0  0  0  0  0  0  0  0  0  0  0  0
  187.9180  174.9100  139.1850 C   0  0  0  0  0  0  0  0  0  0  0  0
  188.5860  175.8820  142.6480 C   0  0  1  0  0  3  0  0  0  0  0  0
  188.3610  175.0440  140.4920 C   0  0  0  0  0  0  0  0  0  0  0  0
  187.5780  176.0680  143.8030 C   0  0  2  0  0  3  0  0  0  0  0  0
  187.0810  175.9160  138.6690 C   0  0  0  0  0  3  0  0  0  0  0  0
  189.1320  174.0830  141.1640 N   0  0  0  0  0  0  0  0  0  0  0  0
  190.7140  173.4450  138.6480 C   0  0  0  0  0  1  0  0  0  0  0  0
  186.7480  178.2040  141.7160 C   0  0  0  0  0  2  0  0  0  0  0  0
  186.7180  177.0160  139.4790 C   0  0  0  0  0  3  0  0  0  0  0  0
  189.3050  172.7490  140.5970 C   0  0  0  0  0  2  0  0  0  0  0  0
  190.4470  175.3210  145.5640 C   0  0  1  0  0  3  0  0  0  0  0  0
  189.3270  176.3230  145.2770 C   0  0  0  0  0  2  0  0  0  0  0  0
  187.1800  177.1020  140.8080 C   0  0  0  0  0  0  0  0  0  0  0  0
  189.1290  174.4310  142.5840 C   0  0  1  0  0  3  0  0  0  0  0  0
  188.2240  173.6400  138.4370 C   0  0  0  0  0  2  0  0  0  0  0  0
  186.9770  177.4960  143.8360 C   0  0  1  0  0  3  0  0  0  0  0  0
  189.3330  171.4180  138.5030 C   0  0  0  0  0  1  0  0  0  0  0  0
  190.4530  174.0730  144.6670 C   0  0  0  0  0  2  0  0  0  0  0  0
  190.5310  174.3650  143.1710 C   0  0  0  0  0  2  0  0  0  0  0  0
  186.0440  177.6610  142.7980 O   0  0  0  0  0  0  0  0  0  0  0  0
  184.9540  177.5230  145.3070 C   0  0  0  0  0  3  0  0  0  0  0  0
  186.3140  177.8050  145.1450 C   0  0  0  0  0  0  0  0  0  0  0  0
  187.0380  178.3760  146.2030 C   0  0  0  0  0  3  0  0  0  0  0  0
  187.1680  179.2670  148.5320 C   0  0  0  0  0  1  0  0  0  0  0  0
  185.0400  178.3800  147.5700 C   0  0  0  0  0  3  0  0  0  0  0  0
  186.4000  178.6620  147.4130 C   0  0  0  0  0  0  0  0  0  0  0  0
  184.3170  177.8110  146.5180 C   0  0  0  0  0  3  0  0  0  0  0  0
  194.5260  176.9390  145.6910 O   0  0  0  0  0  0  0  0  0  0  0  0
  194.2940  175.7110  145.8530 C   0  0  0  0  0  0  0  0  0  0  0  0
  191.7800  175.9960  145.5870 C   0  0  0  0  0  0  0  0  0  0  0  0
  192.9530  175.2070  145.8090 N   0  0  0  0  0  2  0  0  0  0  0  0
  191.8630  177.2410  145.4000 O   0  0  0  0  0  0  0  0  0  0  0  0
  196.3230  174.5490  145.1480 C   0  0  0  0  0  2  0  0  0  0  0  0
  195.4210  174.8040  146.0870 C   0  0  0  0  0  3  0  0  0  0  0  0
  1 13  1  0  0  0  0
  3 15  1  0  0  0  0
  4  6  1  0  0  0  0
  5  2  1  6  0  0  0
  5  7  1  0  0  0  0
  6  9  1  0  0  0  0
  6  2  2  0  0  0  0
  7 19  1  0  0  0  0
  7  3  1  1  0  0  0
  8  4  2  0  0  0  0
  8 12  1  0  0  0  0
  9 17  1  0  0  0  0
 10  1  1  0  0  0  0
 11 23  1  0  0  0  0
 12 16  2  0  0  0  0
 13  9  1  0  0  0  0
 14 33  1  6  0  0  0
 15 14  1  0  0  0  0
 16  2  1  0  0  0  0
 16 11  1  0  0  0  0
 17  5  1  0  0  0  0
 17 22  1  6  0  0  0
 18  1  1  0  0  0  0
 18  4  1  0  0  0  0
 19 25  1  1  0  0  0
 20  1  1  0  0  0  0
 21 14  1  0  0  0  0
 22 21  1  0  0  0  0
 23 19  1  0  0  0  0
 24 30  1  0  0  0  0
 25 24  2  0  0  0  0
 25 26  1  0  0  0  0
 26 29  2  0  0  0  0
 29 28  1  0  0  0  0
 29 27  1  0  0  0  0
 30 28  2  0  0  0  0
 31 32  2  0  0  0  0
 32 37  1  0  0  0  0
 33 34  1  0  0  0  0
 34 32  1  0  0  0  0
 35 33  2  0  0  0  0
 36 37  2  0  0  0  0
M  END
>  <MODEL>
1

>  <REMARK>
 VINA RESULT:      -8.8      0.000      0.000
  Name = 
  3 active torsions:
  status: ('A' for Active; 'I' for Inactive)
    1  A    between atoms: C_4  and  C_37
    2  A    between atoms: C_8  and  C_18
    3  A    between atoms: C_23  and  C_30
                            x       y       z     vdW  Elec       q    Type
                         _______ _______ _______ _____ _____    ______ ____

>  <TORSDO>
F 3

$$$$
=
 OpenBabel11112417233D

 37 42  0  0  1  0  0  0  0  0999 V2000
  189.4570  175.9000  146.0540 C   0  0  0  0  0  0  0  0  0  0  0  0
  193.3470  174.5400  145.3340 C   0  0  0  0  0  0  0  0  0  0  0  0
  193.6770  170.8650  144.4650 O   0  0  0  0  0  0  0  0  0  0  0  0
  191.9670  176.1850  146.4260 C   0  0  0  0  0  0  0  0  0  0  0  0
  193.1670  173.2760  144.5610 C   0  0  1  0  0  3  0  0  0  0  0  0
  192.1300  175.0460  145.6530 C   0  0  0  0  0  0  0  0  0  0  0  0
  194.0290  172.1000  145.0690 C   0  0  2  0  0  3  0  0  0  0  0  0
  193.1250  176.8530  146.8630 C   0  0  0  0  0  3  0  0  0  0  0  0
  191.0720  174.2340  145.2160 N   0  0  0  0  0  0  0  0  0  0  0  0
  189.2840  176.6450  144.7410 C   0  0  0  0  0  1  0  0  0  0  0  0
  195.8480  174.5850  145.4220 C   0  0  0  0  0  2  0  0  0  0  0  0
  194.4010  176.3560  146.5120 C   0  0  0  0  0  3  0  0  0  0  0  0
  189.7320  174.4070  145.7680 C   0  0  0  0  0  2  0  0  0  0  0  0
  192.3800  170.6010  142.4380 C   0  0  1  0  0  3  0  0  0  0  0  0
  193.7130  171.0130  143.0650 C   0  0  0  0  0  2  0  0  0  0  0  0
  194.5180  175.1830  145.7380 C   0  0  0  0  0  0  0  0  0  0  0  0
  191.6510  172.9890  144.7130 C   0  0  1  0  0  3  0  0  0  0  0  0
  190.5840  176.5660  146.8820 C   0  0  0  0  0  2  0  0  0  0  0  0
  195.5470  172.4020  144.9850 C   0  0  1  0  0  3  0  0  0  0  0  0
  188.1640  176.0090  146.8330 C   0  0  0  0  0  1  0  0  0  0  0  0
  191.1280  171.0890  143.1830 C   0  0  0  0  0  2  0  0  0  0  0  0
  191.0480  172.6020  143.3720 C   0  0  0  0  0  2  0  0  0  0  0  0
  195.9250  173.3070  145.9910 O   0  0  0  0  0  0  0  0  0  0  0  0
  197.1500  170.7480  144.0080 C   0  0  0  0  0  3  0  0  0  0  0  0
  196.3810  171.1620  145.1020 C   0  0  0  0  0  0  0  0  0  0  0  0
  196.3960  170.4110  146.2870 C   0  0  0  0  0  3  0  0  0  0  0  0
  197.1890  168.4610  147.6290 C   0  0  0  0  0  1  0  0  0  0  0  0
  197.9410  168.8430  145.2780 C   0  0  0  0  0  3  0  0  0  0  0  0
  197.1750  169.2540  146.3730 C   0  0  0  0  0  0  0  0  0  0  0  0
  197.9280  169.5890  144.0960 C   0  0  0  0  0  3  0  0  0  0  0  0
  191.9100  171.4250  138.1510 O   0  0  0  0  0  0  0  0  0  0  0  0
  191.0940  170.7000  138.7810 C   0  0  0  0  0  0  0  0  0  0  0  0
  192.3360  170.9540  140.9870 C   0  0  0  0  0  0  0  0  0  0  0  0
  191.2700  170.4440  140.1810 N   0  0  0  0  0  2  0  0  0  0  0  0
  193.2220  171.7030  140.4910 O   0  0  0  0  0  0  0  0  0  0  0  0
  189.6960  170.4380  136.7950 C   0  0  0  0  0  2  0  0  0  0  0  0
  189.9590  170.1210  138.0570 C   0  0  0  0  0  3  0  0  0  0  0  0
  1 20  1  0  0  0  0
  1 18  1  0  0  0  0
  2  6  2  0  0  0  0
  2 16  1  0  0  0  0
  4  8  2  0  0  0  0
  4 18  1  0  0  0  0
  5 17  1  0  0  0  0
  5  7  1  0  0  0  0
  5  2  1  1  0  0  0
  6  4  1  0  0  0  0
  7  3  1  6  0  0  0
  9  6  1  0  0  0  0
  9 13  1  0  0  0  0
 10  1  1  0  0  0  0
 11 16  1  0  0  0  0
 11 23  1  0  0  0  0
 12  8  1  0  0  0  0
 13  1  1  0  0  0  0
 14 33  1  6  0  0  0
 14 15  1  0  0  0  0
 14 21  1  0  0  0  0
 15  3  1  0  0  0  0
 16 12  2  0  0  0  0
 17 22  1  6  0  0  0
 17  9  1  0  0  0  0
 19  7  1  0  0  0  0
 19 25  1  1  0  0  0
 19 23  1  0  0  0  0
 21 22  1  0  0  0  0
 24 30  2  0  0  0  0
 24 25  1  0  0  0  0
 25 26  2  0  0  0  0
 26 29  1  0  0  0  0
 28 29  2  0  0  0  0
 29 27  1  0  0  0  0
 30 28  1  0  0  0  0
 31 32  2  0  0  0  0
 32 34  1  0  0  0  0
 34 33  1  0  0  0  0
 35 33  2  0  0  0  0
 36 37  2  0  0  0  0
 37 32  1  0  0  0  0
M  END
>  <MODEL>
2

>  <REMARK>
 VINA RESULT:      -8.1      3.895      9.603
  Name = 
  3 active torsions:
  status: ('A' for Active; 'I' for Inactive)
    1  A    between atoms: C_4  and  C_37
    2  A    between atoms: C_8  and  C_18
    3  A    between atoms: C_23  and  C_30
                            x       y       z     vdW  Elec       q    Type
                         _______ _______ _______ _____ _____    ______ ____

>  <TORSDO>
F 3

$$$$
=
 OpenBabel11112417233D

 37 42  0  0  1  0  0  0  0  0999 V2000
  187.7120  176.4700  143.3150 C   0  0  0  0  0  0  0  0  0  0  0  0
  191.5320  175.5310  144.7410 C   0  0  0  0  0  0  0  0  0  0  0  0
  193.1020  172.3900  143.3110 O   0  0  0  0  0  0  0  0  0  0  0  0
  189.4520  176.6650  145.1740 C   0  0  0  0  0  0  0  0  0  0  0  0
  192.1010  174.6080  143.7150 C   0  0  1  0  0  3  0  0  0  0  0  0
  190.2670  175.8670  144.3870 C   0  0  0  0  0  0  0  0  0  0  0  0
  192.7720  173.3480  144.3050 C   0  0  2  0  0  3  0  0  0  0  0  0
  189.9860  177.1670  146.3740 C   0  0  0  0  0  3  0  0  0  0  0  0
  189.8450  175.2330  143.2090 N   0  0  0  0  0  0  0  0  0  0  0  0
  188.1370  177.6180  142.4150 C   0  0  0  0  0  1  0  0  0  0  0  0
  193.4750  175.6000  146.3170 C   0  0  0  0  0  2  0  0  0  0  0  0
  191.3140  176.8520  146.7420 C   0  0  0  0  0  3  0  0  0  0  0  0
  188.4260  175.1740  142.8700 C   0  0  0  0  0  2  0  0  0  0  0  0
  193.2490  172.8130  140.9330 C   0  0  1  0  0  3  0  0  0  0  0  0
  193.8760  173.0140  142.3140 C   0  0  0  0  0  2  0  0  0  0  0  0
  192.1010  176.0220  145.9170 C   0  0  0  0  0  0  0  0  0  0  0  0
  190.8670  174.2520  142.8470 C   0  0  1  0  0  3  0  0  0  0  0  0
  188.0060  176.8340  144.7920 C   0  0  0  0  0  2  0  0  0  0  0  0
  193.9660  173.6960  145.2300 C   0  0  1  0  0  3  0  0  0  0  0  0
  186.2200  176.2730  143.1580 C   0  0  0  0  0  1  0  0  0  0  0  0
  191.7230  172.9850  140.8760 C   0  0  0  0  0  2  0  0  0  0  0  0
  191.2160  174.3380  141.3690 C   0  0  0  0  0  2  0  0  0  0  0  0
  193.5070  174.2060  146.4560 O   0  0  0  0  0  0  0  0  0  0  0  0
  196.2360  172.6620  145.4210 C   0  0  0  0  0  3  0  0  0  0  0  0
  194.8470  172.5110  145.4910 C   0  0  0  0  0  0  0  0  0  0  0  0
  194.2980  171.2570  145.7960 C   0  0  0  0  0  3  0  0  0  0  0  0
  194.5520  168.8360  146.3530 C   0  0  0  0  0  1  0  0  0  0  0  0
  196.5240  170.3180  145.9580 C   0  0  0  0  0  3  0  0  0  0  0  0
  195.1360  170.1630  146.0300 C   0  0  0  0  0  0  0  0  0  0  0  0
  197.0730  171.5660  145.6530 C   0  0  0  0  0  3  0  0  0  0  0  0
  195.5800  175.3070  138.1710 O   0  0  0  0  0  0  0  0  0  0  0  0
  195.9820  175.0560  139.3390 C   0  0  0  0  0  0  0  0  0  0  0  0
  193.9410  173.6450  139.9020 C   0  0  0  0  0  0  0  0  0  0  0  0
  195.2020  174.2400  140.2230 N   0  0  0  0  0  2  0  0  0  0  0  0
  193.4220  173.8030  138.7630 O   0  0  0  0  0  0  0  0  0  0  0  0
  197.9300  175.1090  140.8110 C   0  0  0  0  0  2  0  0  0  0  0  0
  197.2640  175.6140  139.7800 C   0  0  0  0  0  3  0  0  0  0  0  0
  1 18  1  0  0  0  0
  2 16  1  0  0  0  0
  4  8  2  0  0  0  0
  5  7  1  0  0  0  0
  5  2  1  1  0  0  0
  6  2  2  0  0  0  0
  6  4  1  0  0  0  0
  7  3  1  6  0  0  0
  7 19  1  0  0  0  0
  8 12  1  0  0  0  0
  9  6  1  0  0  0  0
 10  1  1  0  0  0  0
 11 23  1  0  0  0  0
 13  9  1  0  0  0  0
 13  1  1  0  0  0  0
 14 33  1  6  0  0  0
 14 15  1  0  0  0  0
 15  3  1  0  0  0  0
 16 11  1  0  0  0  0
 16 12  2  0  0  0  0
 17 22  1  6  0  0  0
 17  9  1  0  0  0  0
 17  5  1  0  0  0  0
 18  4  1  0  0  0  0
 19 25  1  1  0  0  0
 19 23  1  0  0  0  0
 20  1  1  0  0  0  0
 21 14  1  0  0  0  0
 21 22  1  0  0  0  0
 24 25  2  0  0  0  0
 24 30  1  0  0  0  0
 25 26  1  0  0  0  0
 26 29  2  0  0  0  0
 28 29  1  0  0  0  0
 29 27  1  0  0  0  0
 30 28  2  0  0  0  0
 31 32  2  0  0  0  0
 32 37  1  0  0  0  0
 32 34  1  0  0  0  0
 33 34  1  0  0  0  0
 35 33  2  0  0  0  0
 37 36  2  0  0  0  0
M  END
>  <MODEL>
3

>  <REMARK>
 VINA RESULT:      -8.0      3.562      7.832
  Name = 
  3 active torsions:
  status: ('A' for Active; 'I' for Inactive)
    1  A    between atoms: C_4  and  C_37
    2  A    between atoms: C_8  and  C_18
    3  A    between atoms: C_23  and  C_30
                            x       y       z     vdW  Elec       q    Type
                         _______ _______ _______ _____ _____    ______ ____

>  <TORSDO>
F 3

$$$$
=
 OpenBabel11112417233D

 37 42  0  0  1  0  0  0  0  0999 V2000
  196.8600  169.0400  146.0280 C   0  0  0  0  0  0  0  0  0  0  0  0
  193.4820  171.0410  144.5810 C   0  0  0  0  0  0  0  0  0  0  0  0
  193.0250  174.6020  145.7970 O   0  0  0  0  0  0  0  0  0  0  0  0
  194.4960  168.9110  145.0720 C   0  0  0  0  0  0  0  0  0  0  0  0
  193.7870  172.4880  144.7810 C   0  0  1  0  0  3  0  0  0  0  0  0
  194.5110  170.2970  145.0580 C   0  0  0  0  0  0  0  0  0  0  0  0
  192.6330  173.2910  145.4170 C   0  0  2  0  0  3  0  0  0  0  0  0
  193.3710  168.2610  144.5340 C   0  0  0  0  0  3  0  0  0  0  0  0
  195.5260  171.0780  145.6310 N   0  0  0  0  0  0  0  0  0  0  0  0
  197.6740  169.1180  144.7460 C   0  0  0  0  0  1  0  0  0  0  0  0
  191.2110  171.2630  143.5530 C   0  0  0  0  0  2  0  0  0  0  0  0
  192.3030  169.0220  144.0030 C   0  0  0  0  0  3  0  0  0  0  0  0
  196.5200  170.4680  146.5100 C   0  0  0  0  0  2  0  0  0  0  0  0
  195.0010  175.7660  145.0240 C   0  0  1  0  0  3  0  0  0  0  0  0
  193.6020  175.2470  144.6870 C   0  0  0  0  0  2  0  0  0  0  0  0
  192.3560  170.4310  144.0260 C   0  0  0  0  0  0  0  0  0  0  0  0
  195.0400  172.4550  145.6930 C   0  0  1  0  0  3  0  0  0  0  0  0
  195.5980  168.1760  145.7860 C   0  0  0  0  0  2  0  0  0  0  0  0
  191.3510  173.2740  144.5450 C   0  0  1  0  0  3  0  0  0  0  0  0
  197.7080  168.3660  147.0850 C   0  0  0  0  0  1  0  0  0  0  0  0
  195.8800  174.8000  145.8350 C   0  0  0  0  0  2  0  0  0  0  0  0
  196.0890  173.4340  145.1870 C   0  0  0  0  0  2  0  0  0  0  0  0
  190.7200  172.0210  144.6240 O   0  0  0  0  0  0  0  0  0  0  0  0
  189.7200  174.2420  146.1760 C   0  0  0  0  0  3  0  0  0  0  0  0
  190.3770  174.3410  144.9450 C   0  0  0  0  0  0  0  0  0  0  0  0
  190.1120  175.4290  144.1000 C   0  0  0  0  0  3  0  0  0  0  0  0
  188.9160  177.5610  143.5910 C   0  0  0  0  0  1  0  0  0  0  0  0
  188.5400  176.3070  145.7180 C   0  0  0  0  0  3  0  0  0  0  0  0
  189.1950  176.4100  144.4870 C   0  0  0  0  0  0  0  0  0  0  0  0
  188.8020  175.2240  146.5620 C   0  0  0  0  0  3  0  0  0  0  0  0
  196.7980  176.9970  141.2120 O   0  0  0  0  0  0  0  0  0  0  0  0
  195.8290  176.1940  141.2590 C   0  0  0  0  0  0  0  0  0  0  0  0
  195.7010  176.2600  143.8000 C   0  0  0  0  0  0  0  0  0  0  0  0
  195.2600  175.8050  142.5170 N   0  0  0  0  0  2  0  0  0  0  0  0
  196.6580  177.0760  143.9040 O   0  0  0  0  0  0  0  0  0  0  0  0
  195.8900  174.6790  139.3450 C   0  0  0  0  0  2  0  0  0  0  0  0
  195.2900  175.6610  140.0050 C   0  0  0  0  0  3  0  0  0  0  0  0
  1 13  1  0  0  0  0
  1 20  1  0  0  0  0
  2  6  1  0  0  0  0
  4 18  1  0  0  0  0
  5  2  1  1  0  0  0
  5  7  1  0  0  0  0
  5 17  1  0  0  0  0
  6  4  2  0  0  0  0
  6  9  1  0  0  0  0
  7  3  1  6  0  0  0
  8  4  1  0  0  0  0
  9 17  1  0  0  0  0
  9 13  1  0  0  0  0
 10  1  1  0  0  0  0
 11 16  1  0  0  0  0
 11 23  1  0  0  0  0
 12 16  1  0  0  0  0
 12  8  2  0  0  0  0
 14 33  1  6  0  0  0
 14 21  1  0  0  0  0
 15 14  1  0  0  0  0
 15  3  1  0  0  0  0
 16  2  2  0  0  0  0
 17 22  1  6  0  0  0
 18  1  1  0  0  0  0
 19 23  1  0  0  0  0
 19 25  1  1  0  0  0
 19  7  1  0  0  0  0
 22 21  1  0  0  0  0
 24 30  1  0  0  0  0
 25 24  2  0  0  0  0
 26 29  2  0  0  0  0
 26 25  1  0  0  0  0
 27 29  1  0  0  0  0
 28 30  2  0  0  0  0
 29 28  1  0  0  0  0
 31 32  2  0  0  0  0
 32 34  1  0  0  0  0
 33 35  2  0  0  0  0
 34 33  1  0  0  0  0
 36 37  2  0  0  0  0
 37 32  1  0  0  0  0
M  END
>  <MODEL>
4

>  <REMARK>
 VINA RESULT:      -7.9      3.897      7.462
  Name = 
  3 active torsions:
  status: ('A' for Active; 'I' for Inactive)
    1  A    between atoms: C_4  and  C_37
    2  A    between atoms: C_8  and  C_18
    3  A    between atoms: C_23  and  C_30
                            x       y       z     vdW  Elec       q    Type
                         _______ _______ _______ _____ _____    ______ ____

>  <TORSDO>
F 3

$$$$
=
 OpenBabel11112417233D

 37 42  0  0  1  0  0  0  0  0999 V2000
  186.4730  177.5550  143.2400 C   0  0  0  0  0  0  0  0  0  0  0  0
  190.2320  175.7210  143.1530 C   0  0  0  0  0  0  0  0  0  0  0  0
  190.3200  172.1990  141.7520 O   0  0  0  0  0  0  0  0  0  0  0  0
  188.8380  177.3890  144.1890 C   0  0  0  0  0  0  0  0  0  0  0  0
  190.0930  174.6220  142.1520 C   0  0  1  0  0  3  0  0  0  0  0  0
  189.0430  176.3600  143.2840 C   0  0  0  0  0  0  0  0  0  0  0  0
  190.6620  173.2670  142.6230 C   0  0  2  0  0  3  0  0  0  0  0  0
  189.9290  177.8010  144.9750 C   0  0  0  0  0  3  0  0  0  0  0  0
  188.0310  175.7920  142.4950 N   0  0  0  0  0  0  0  0  0  0  0  0
  186.7070  178.4950  142.0700 C   0  0  0  0  0  1  0  0  0  0  0  0
  192.6270  175.3640  143.7860 C   0  0  0  0  0  2  0  0  0  0  0  0
  191.1840  177.1660  144.8270 C   0  0  0  0  0  3  0  0  0  0  0  0
  186.6290  176.0920  142.7660 C   0  0  0  0  0  2  0  0  0  0  0  0
  189.5210  172.4290  139.4800 C   0  0  1  0  0  3  0  0  0  0  0  0
  190.7060  172.5360  140.4410 C   0  0  0  0  0  2  0  0  0  0  0  0
  191.3410  176.1110  143.9050 C   0  0  0  0  0  0  0  0  0  0  0  0
  188.5610  174.5560  141.9220 C   0  0  1  0  0  3  0  0  0  0  0  0
  187.4420  177.9130  144.3940 C   0  0  0  0  0  2  0  0  0  0  0  0
  192.1810  173.3370  142.9220 C   0  0  1  0  0  3  0  0  0  0  0  0
  185.0540  177.7520  143.7280 C   0  0  0  0  0  1  0  0  0  0  0  0
  188.1940  172.9960  140.0100 C   0  0  0  0  0  2  0  0  0  0  0  0
  188.2530  174.4610  140.4350 C   0  0  0  0  0  2  0  0  0  0  0  0
  192.4140  174.0220  144.1280 O   0  0  0  0  0  0  0  0  0  0  0  0
  192.4230  171.1020  144.0200 C   0  0  0  0  0  3  0  0  0  0  0  0
  192.8100  171.9790  143.0000 C   0  0  0  0  0  0  0  0  0  0  0  0
  193.7820  171.5790  142.0710 C   0  0  0  0  0  3  0  0  0  0  0  0
  195.3910  169.8900  141.1810 C   0  0  0  0  0  1  0  0  0  0  0  0
  193.9720  169.4380  143.1870 C   0  0  0  0  0  3  0  0  0  0  0  0
  194.3610  170.3110  142.1650 C   0  0  0  0  0  0  0  0  0  0  0  0
  193.0040  169.8340  144.1130 C   0  0  0  0  0  3  0  0  0  0  0  0
  190.8620  174.2280  135.7050 O   0  0  0  0  0  0  0  0  0  0  0  0
  191.5000  174.3880  136.7800 C   0  0  0  0  0  0  0  0  0  0  0  0
  189.8660  172.9860  138.1370 C   0  0  0  0  0  0  0  0  0  0  0  0
  191.0410  173.7910  138.0010 N   0  0  0  0  0  2  0  0  0  0  0  0
  189.1350  172.7340  137.1400 O   0  0  0  0  0  0  0  0  0  0  0  0
  192.8410  176.2720  135.9960 C   0  0  0  0  0  2  0  0  0  0  0  0
  192.7230  175.1950  136.7620 C   0  0  0  0  0  3  0  0  0  0  0  0
  1 20  1  0  0  0  0
  1 18  1  0  0  0  0
  2  6  2  0  0  0  0
  2 16  1  0  0  0  0
  4 18  1  0  0  0  0
  4  8  2  0  0  0  0
  5  7  1  0  0  0  0
  5  2  1  1  0  0  0
  6  4  1  0  0  0  0
  7  3  1  6  0  0  0
  7 19  1  0  0  0  0
  9 13  1  0  0  0  0
  9  6  1  0  0  0  0
 10  1  1  0  0  0  0
 11 16  1  0  0  0  0
 11 23  1  0  0  0  0
 12  8  1  0  0  0  0
 13  1  1  0  0  0  0
 14 33  1  6  0  0  0
 14 21  1  0  0  0  0
 14 15  1  0  0  0  0
 15  3  1  0  0  0  0
 16 12  2  0  0  0  0
 17 22  1  6  0  0  0
 17  5  1  0  0  0  0
 17  9  1  0  0  0  0
 19 25  1  1  0  0  0
 19 23  1  0  0  0  0
 21 22  1  0  0  0  0
 24 30  1  0  0  0  0
 25 24  2  0  0  0  0
 26 29  2  0  0  0  0
 26 25  1  0  0  0  0
 27 29  1  0  0  0  0
 28 30  2  0  0  0  0
 29 28  1  0  0  0  0
 31 32  2  0  0  0  0
 32 34  1  0  0  0  0
 34 33  1  0  0  0  0
 35 33  2  0  0  0  0
 36 37  2  0  0  0  0
 37 32  1  0  0  0  0
M  END
>  <MODEL>
5

>  <REMARK>
 VINA RESULT:      -7.9      3.509      8.043
  Name = 
  3 active torsions:
  status: ('A' for Active; 'I' for Inactive)
    1  A    between atoms: C_4  and  C_37
    2  A    between atoms: C_8  and  C_18
    3  A    between atoms: C_23  and  C_30
                            x       y       z     vdW  Elec       q    Type
                         _______ _______ _______ _____ _____    ______ ____

>  <TORSDO>
F 3

$$$$
=
 OpenBabel11112417233D

 37 42  0  0  1  0  0  0  0  0999 V2000
  197.1710  174.8160  138.6430 C   0  0  0  0  0  0  0  0  0  0  0  0
  195.1800  175.0150  142.3170 C   0  0  0  0  0  0  0  0  0  0  0  0
  191.3950  175.1230  142.1410 O   0  0  0  0  0  0  0  0  0  0  0  0
  197.2170  175.4640  141.1130 C   0  0  0  0  0  0  0  0  0  0  0  0
  193.7910  174.5550  142.0190 C   0  0  1  0  0  3  0  0  0  0  0  0
  195.9040  175.0230  141.1710 C   0  0  0  0  0  0  0  0  0  0  0  0
  192.6890  175.4530  142.6210 C   0  0  2  0  0  3  0  0  0  0  0  0
  197.8210  175.8870  142.3100 C   0  0  0  0  0  3  0  0  0  0  0  0
  195.1490  174.6490  140.0480 N   0  0  0  0  0  0  0  0  0  0  0  0
  197.5620  173.3500  138.7330 C   0  0  0  0  0  1  0  0  0  0  0  0
  194.9240  175.4480  144.7690 C   0  0  0  0  0  2  0  0  0  0  0  0
  197.0900  175.8550  143.5200 C   0  0  0  0  0  3  0  0  0  0  0  0
  195.6330  174.9450  138.7030 C   0  0  0  0  0  2  0  0  0  0  0  0
  190.7790  173.0580  141.0410 C   0  0  1  0  0  3  0  0  0  0  0  0
  191.1650  173.7500  142.3490 C   0  0  0  0  0  2  0  0  0  0  0  0
  195.7500  175.4140  143.5270 C   0  0  0  0  0  0  0  0  0  0  0  0
  193.7530  174.5530  140.4690 C   0  0  1  0  0  3  0  0  0  0  0  0
  197.8790  175.6100  139.7690 C   0  0  0  0  0  2  0  0  0  0  0  0
  192.7600  175.5170  144.1680 C   0  0  1  0  0  3  0  0  0  0  0  0
  197.6460  175.3500  137.3090 C   0  0  0  0  0  1  0  0  0  0  0  0
  191.6020  173.4730  139.8120 C   0  0  0  0  0  2  0  0  0  0  0  0
  193.1090  173.2740  139.9580 C   0  0  0  0  0  2  0  0  0  0  0  0
  193.8410  176.3160  144.5780 O   0  0  0  0  0  0  0  0  0  0  0  0
  191.0660  177.3370  144.4350 C   0  0  0  0  0  3  0  0  0  0  0  0
  191.4970  176.0510  144.7740 C   0  0  0  0  0  0  0  0  0  0  0  0
  190.7500  175.2820  145.6790 C   0  0  0  0  0  3  0  0  0  0  0  0
  188.7890  174.9840  147.1960 C   0  0  0  0  0  1  0  0  0  0  0  0
  189.1510  177.0880  145.8970 C   0  0  0  0  0  3  0  0  0  0  0  0
  189.5790  175.8000  146.2380 C   0  0  0  0  0  0  0  0  0  0  0  0
  189.8940  177.8550  144.9960 C   0  0  0  0  0  3  0  0  0  0  0  0
  190.6670  168.6690  141.1310 O   0  0  0  0  0  0  0  0  0  0  0  0
  190.6490  169.3110  140.0470 C   0  0  0  0  0  0  0  0  0  0  0  0
  190.7420  171.5730  141.2080 C   0  0  0  0  0  0  0  0  0  0  0  0
  190.6840  170.7450  140.0430 N   0  0  0  0  0  2  0  0  0  0  0  0
  190.7750  171.0660  142.3630 O   0  0  0  0  0  0  0  0  0  0  0  0
  190.2080  169.1380  137.6510 C   0  0  0  0  0  2  0  0  0  0  0  0
  190.5910  168.5660  138.7860 C   0  0  0  0  0  3  0  0  0  0  0  0
  1 13  1  0  0  0  0
  1 10  1  0  0  0  0
  1 18  1  0  0  0  0
  2 16  1  0  0  0  0
  3 15  1  0  0  0  0
  4  6  1  0  0  0  0
  4  8  2  0  0  0  0
  5  2  1  6  0  0  0
  5  7  1  0  0  0  0
  6  2  2  0  0  0  0
  7  3  1  1  0  0  0
  7 19  1  0  0  0  0
  8 12  1  0  0  0  0
  9 17  1  0  0  0  0
  9  6  1  0  0  0  0
 12 16  2  0  0  0  0
 13  9  1  0  0  0  0
 14 33  1  1  0  0  0
 14 15  1  0  0  0  0
 16 11  1  0  0  0  0
 17 22  1  6  0  0  0
 17  5  1  0  0  0  0
 18  4  1  0  0  0  0
 19 23  1  0  0  0  0
 19 25  1  6  0  0  0
 20  1  1  0  0  0  0
 21 22  1  0  0  0  0
 21 14  1  0  0  0  0
 23 11  1  0  0  0  0
 24 25  2  0  0  0  0
 24 30  1  0  0  0  0
 25 26  1  0  0  0  0
 26 29  2  0  0  0  0
 28 29  1  0  0  0  0
 29 27  1  0  0  0  0
 30 28  2  0  0  0  0
 32 31  2  0  0  0  0
 33 35  2  0  0  0  0
 34 32  1  0  0  0  0
 34 33  1  0  0  0  0
 36 37  2  0  0  0  0
 37 32  1  0  0  0  0
M  END
>  <MODEL>
6

>  <REMARK>
 VINA RESULT:      -7.9      3.801      7.471
  Name = 
  3 active torsions:
  status: ('A' for Active; 'I' for Inactive)
    1  A    between atoms: C_4  and  C_37
    2  A    between atoms: C_8  and  C_18
    3  A    between atoms: C_23  and  C_30
                            x       y       z     vdW  Elec       q    Type
                         _______ _______ _______ _____ _____    ______ ____

>  <TORSDO>
F 3

$$$$
=
 OpenBabel11112417233D

 37 42  0  0  1  0  0  0  0  0999 V2000
  190.7290  170.2590  139.4570 C   0  0  0  0  0  0  0  0  0  0  0  0
  189.5310  173.9230  141.0840 C   0  0  0  0  0  0  0  0  0  0  0  0
  190.0410  174.3170  144.8190 O   0  0  0  0  0  0  0  0  0  0  0  0
  189.2490  172.3340  139.2960 C   0  0  0  0  0  0  0  0  0  0  0  0
  190.2620  174.0170  142.3810 C   0  0  1  0  0  3  0  0  0  0  0  0
  189.8250  172.7400  140.4890 C   0  0  0  0  0  0  0  0  0  0  0  0
  189.3790  174.4510  143.5710 C   0  0  2  0  0  3  0  0  0  0  0  0
  188.3460  173.2120  138.6690 C   0  0  0  0  0  3  0  0  0  0  0  0
  190.6770  171.9390  141.2640 N   0  0  0  0  0  0  0  0  0  0  0  0
  191.9950  170.7680  138.7870 C   0  0  0  0  0  1  0  0  0  0  0  0
  188.2990  176.0990  141.1780 C   0  0  0  0  0  2  0  0  0  0  0  0
  188.0530  174.4620  139.2610 C   0  0  0  0  0  3  0  0  0  0  0  0
  190.8110  170.5140  140.9780 C   0  0  0  0  0  2  0  0  0  0  0  0
  192.4280  174.0770  145.1350 C   0  0  1  0  0  3  0  0  0  0  0  0
  191.2690  175.0030  144.7620 C   0  0  0  0  0  2  0  0  0  0  0  0
  188.6510  174.8260  140.4850 C   0  0  0  0  0  0  0  0  0  0  0  0
  190.8190  172.5820  142.5690 C   0  0  1  0  0  3  0  0  0  0  0  0
  189.4940  170.9320  138.8060 C   0  0  0  0  0  2  0  0  0  0  0  0
  188.7610  175.8580  143.3630 C   0  0  1  0  0  3  0  0  0  0  0  0
  190.6400  168.7670  139.2240 C   0  0  0  0  0  1  0  0  0  0  0  0
  192.3610  172.6660  144.5290 C   0  0  0  0  0  2  0  0  0  0  0  0
  192.2750  172.6320  143.0050 C   0  0  0  0  0  2  0  0  0  0  0  0
  187.7210  175.8040  142.4200 O   0  0  0  0  0  0  0  0  0  0  0  0
  189.1220  177.0720  145.5200 C   0  0  0  0  0  3  0  0  0  0  0  0
  188.2360  176.4420  144.6400 C   0  0  0  0  0  0  0  0  0  0  0  0
  186.8730  176.3610  144.9640 C   0  0  0  0  0  3  0  0  0  0  0  0
  184.9610  176.8180  146.5030 C   0  0  0  0  0  1  0  0  0  0  0  0
  187.2940  177.5340  147.0400 C   0  0  0  0  0  3  0  0  0  0  0  0
  186.4050  176.9060  146.1620 C   0  0  0  0  0  0  0  0  0  0  0  0
  188.6520  177.6160  146.7190 C   0  0  0  0  0  3  0  0  0  0  0  0
  196.1590  176.0940  143.9970 O   0  0  0  0  0  0  0  0  0  0  0  0
  195.1910  175.9900  143.1980 C   0  0  0  0  0  0  0  0  0  0  0  0
  193.7450  174.7320  144.8720 C   0  0  0  0  0  0  0  0  0  0  0  0
  193.9830  175.3250  143.5920 N   0  0  0  0  0  2  0  0  0  0  0  0
  194.6250  174.7690  145.7760 O   0  0  0  0  0  0  0  0  0  0  0  0
  196.3530  176.2870  141.0710 C   0  0  0  0  0  2  0  0  0  0  0  0
  195.3180  176.5620  141.8540 C   0  0  0  0  0  3  0  0  0  0  0  0
  1 13  1  0  0  0  0
  4  6  2  0  0  0  0
  5  2  1  6  0  0  0
  5 17  1  0  0  0  0
  5  7  1  0  0  0  0
  6  2  1  0  0  0  0
  6  9  1  0  0  0  0
  7  3  1  1  0  0  0
  8 12  2  0  0  0  0
  8  4  1  0  0  0  0
  9 17  1  0  0  0  0
 10  1  1  0  0  0  0
 11 23  1  0  0  0  0
 12 16  1  0  0  0  0
 13  9  1  0  0  0  0
 14 33  1  6  0  0  0
 15  3  1  0  0  0  0
 15 14  1  0  0  0  0
 16  2  2  0  0  0  0
 16 11  1  0  0  0  0
 17 22  1  6  0  0  0
 18  4  1  0  0  0  0
 18  1  1  0  0  0  0
 19  7  1  0  0  0  0
 19 25  1  1  0  0  0
 20  1  1  0  0  0  0
 21 14  1  0  0  0  0
 22 21  1  0  0  0  0
 23 19  1  0  0  0  0
 24 30  1  0  0  0  0
 25 26  1  0  0  0  0
 25 24  2  0  0  0  0
 26 29  2  0  0  0  0
 29 27  1  0  0  0  0
 29 28  1  0  0  0  0
 30 28  2  0  0  0  0
 32 34  1  0  0  0  0
 32 31  2  0  0  0  0
 33 35  2  0  0  0  0
 34 33  1  0  0  0  0
 36 37  2  0  0  0  0
 37 32  1  0  0  0  0
M  END
>  <MODEL>
7

>  <REMARK>
 VINA RESULT:      -7.8      2.000      2.936
  Name = 
  3 active torsions:
  status: ('A' for Active; 'I' for Inactive)
    1  A    between atoms: C_4  and  C_37
    2  A    between atoms: C_8  and  C_18
    3  A    between atoms: C_23  and  C_30
                            x       y       z     vdW  Elec       q    Type
                         _______ _______ _______ _____ _____    ______ ____

>  <TORSDO>
F 3

$$$$
=
 OpenBabel11112417233D

 37 42  0  0  1  0  0  0  0  0999 V2000
  189.2380  176.0980  146.3020 C   0  0  0  0  0  0  0  0  0  0  0  0
  193.1780  174.9190  145.5310 C   0  0  0  0  0  0  0  0  0  0  0  0
  193.6300  171.3460  144.3480 O   0  0  0  0  0  0  0  0  0  0  0  0
  191.7330  176.4210  146.7400 C   0  0  0  0  0  0  0  0  0  0  0  0
  193.0470  173.7230  144.6470 C   0  0  1  0  0  3  0  0  0  0  0  0
  191.9410  175.3600  145.8730 C   0  0  0  0  0  0  0  0  0  0  0  0
  193.9360  172.5320  145.0650 C   0  0  2  0  0  3  0  0  0  0  0  0
  192.8640  177.0800  147.2540 C   0  0  0  0  0  3  0  0  0  0  0  0
  190.9150  174.5600  145.3480 N   0  0  0  0  0  0  0  0  0  0  0  0
  189.0620  176.9510  145.0570 C   0  0  0  0  0  1  0  0  0  0  0  0
  195.6740  175.0280  145.6650 C   0  0  0  0  0  2  0  0  0  0  0  0
  194.1600  176.6530  146.8820 C   0  0  0  0  0  3  0  0  0  0  0  0
  189.5620  174.6450  145.8910 C   0  0  0  0  0  2  0  0  0  0  0  0
  192.3710  171.2250  142.2850 C   0  0  1  0  0  3  0  0  0  0  0  0
  193.6820  171.6180  142.9680 C   0  0  0  0  0  2  0  0  0  0  0  0
  194.3230  175.5580  146.0100 C   0  0  0  0  0  0  0  0  0  0  0  0
  191.5380  173.3810  144.7480 C   0  0  1  0  0  3  0  0  0  0  0  0
  190.3330  176.7210  147.2040 C   0  0  0  0  0  2  0  0  0  0  0  0
  195.4450  172.8840  145.0330 C   0  0  1  0  0  3  0  0  0  0  0  0
  187.9310  176.1010  147.0650 C   0  0  0  0  0  1  0  0  0  0  0  0
  191.0940  171.6090  143.0490 C   0  0  0  0  0  2  0  0  0  0  0  0
  190.9660  173.0970  143.3680 C   0  0  0  0  0  2  0  0  0  0  0  0
  195.7820  173.7070  146.1210 O   0  0  0  0  0  0  0  0  0  0  0  0
  197.1250  171.3790  143.9500 C   0  0  0  0  0  3  0  0  0  0  0  0
  196.3150  171.6630  145.0540 C   0  0  0  0  0  0  0  0  0  0  0  0
  196.3210  170.8010  146.1620 C   0  0  0  0  0  3  0  0  0  0  0  0
  197.1390  168.7530  147.3330 C   0  0  0  0  0  1  0  0  0  0  0  0
  197.9410  169.3840  145.0520 C   0  0  0  0  0  3  0  0  0  0  0  0
  197.1340  169.6650  146.1590 C   0  0  0  0  0  0  0  0  0  0  0  0
  197.9360  170.2410  143.9480 C   0  0  0  0  0  3  0  0  0  0  0  0
  192.5480  172.9040  138.2320 O   0  0  0  0  0  0  0  0  0  0  0  0
  193.2400  173.3730  139.1750 C   0  0  0  0  0  0  0  0  0  0  0  0
  192.3370  171.7030  140.8700 C   0  0  0  0  0  0  0  0  0  0  0  0
  193.1630  172.8080  140.4910 N   0  0  0  0  0  2  0  0  0  0  0  0
  191.5980  171.1270  140.0240 O   0  0  0  0  0  0  0  0  0  0  0  0
  194.5870  175.2850  139.8770 C   0  0  0  0  0  2  0  0  0  0  0  0
  194.1260  174.5080  138.9050 C   0  0  0  0  0  3  0  0  0  0  0  0
  1 20  1  0  0  0  0
  1 18  1  0  0  0  0
  2  6  2  0  0  0  0
  2 16  1  0  0  0  0
  4 18  1  0  0  0  0
  4  8  2  0  0  0  0
  5 17  1  0  0  0  0
  5  7  1  0  0  0  0
  5  2  1  1  0  0  0
  6  4  1  0  0  0  0
  7  3  1  6  0  0  0
  9  6  1  0  0  0  0
  9 13  1  0  0  0  0
 10  1  1  0  0  0  0
 11 16  1  0  0  0  0
 11 23  1  0  0  0  0
 12  8  1  0  0  0  0
 13  1  1  0  0  0  0
 14 33  1  6  0  0  0
 14 15  1  0  0  0  0
 14 21  1  0  0  0  0
 15  3  1  0  0  0  0
 16 12  2  0  0  0  0
 17 22  1  6  0  0  0
 17  9  1  0  0  0  0
 19 25  1  1  0  0  0
 19  7  1  0  0  0  0
 19 23  1  0  0  0  0
 21 22  1  0  0  0  0
 24 25  1  0  0  0  0
 25 26  2  0  0  0  0
 28 29  2  0  0  0  0
 29 26  1  0  0  0  0
 29 27  1  0  0  0  0
 30 24  2  0  0  0  0
 30 28  1  0  0  0  0
 31 32  2  0  0  0  0
 32 34  1  0  0  0  0
 34 33  1  0  0  0  0
 35 33  2  0  0  0  0
 37 32  1  0  0  0  0
 37 36  2  0  0  0  0
M  END
>  <MODEL>
8

>  <REMARK>
 VINA RESULT:      -7.8      3.900      9.168
  Name = 
  3 active torsions:
  status: ('A' for Active; 'I' for Inactive)
    1  A    between atoms: C_4  and  C_37
    2  A    between atoms: C_8  and  C_18
    3  A    between atoms: C_23  and  C_30
                            x       y       z     vdW  Elec       q    Type
                         _______ _______ _______ _____ _____    ______ ____

>  <TORSDO>
F 3

$$$$
=
 OpenBabel11112417233D

 37 42  0  0  1  0  0  0  0  0999 V2000
  196.8760  175.2380  140.3810 C   0  0  0  0  0  0  0  0  0  0  0  0
  193.8730  175.6020  143.2730 C   0  0  0  0  0  0  0  0  0  0  0  0
  190.3170  175.2210  142.0180 O   0  0  0  0  0  0  0  0  0  0  0  0
  196.1300  176.1610  142.6430 C   0  0  0  0  0  0  0  0  0  0  0  0
  192.6810  174.9440  142.6630 C   0  0  1  0  0  3  0  0  0  0  0  0
  194.9030  175.5710  142.3890 C   0  0  0  0  0  0  0  0  0  0  0  0
  191.3770  175.7600  142.7920 C   0  0  2  0  0  3  0  0  0  0  0  0
  196.3140  176.7880  143.8880 C   0  0  0  0  0  3  0  0  0  0  0  0
  194.5500  174.9820  141.1650 N   0  0  0  0  0  0  0  0  0  0  0  0
  197.3460  173.8510  140.7880 C   0  0  0  0  0  1  0  0  0  0  0  0
  192.8660  176.2750  145.4620 C   0  0  0  0  0  2  0  0  0  0  0  0
  195.2610  176.8030  144.8320 C   0  0  0  0  0  3  0  0  0  0  0  0
  195.3840  175.1810  139.9840 C   0  0  0  0  0  2  0  0  0  0  0  0
  190.2340  172.9840  141.0980 C   0  0  1  0  0  3  0  0  0  0  0  0
  190.1540  173.8620  142.3480 C   0  0  0  0  0  2  0  0  0  0  0  0
  194.0230  176.2030  144.5240 C   0  0  0  0  0  0  0  0  0  0  0  0
  193.1050  174.7620  141.1830 C   0  0  1  0  0  3  0  0  0  0  0  0
  197.1470  176.2350  141.5350 C   0  0  0  0  0  2  0  0  0  0  0  0
  190.9800  176.0070  144.2700 C   0  0  1  0  0  3  0  0  0  0  0  0
  197.6780  175.6730  139.1740 C   0  0  0  0  0  1  0  0  0  0  0  0
  191.3470  173.3570  140.1060 C   0  0  0  0  0  2  0  0  0  0  0  0
  192.7540  173.3640  140.7000 C   0  0  0  0  0  2  0  0  0  0  0  0
  191.8180  176.9740  144.8500 O   0  0  0  0  0  0  0  0  0  0  0  0
  188.8120  176.0210  145.5190 C   0  0  0  0  0  3  0  0  0  0  0  0
  189.5530  176.4450  144.4100 C   0  0  0  0  0  0  0  0  0  0  0  0
  188.9530  177.2670  143.4450 C   0  0  0  0  0  3  0  0  0  0  0  0
  186.9850  178.5290  142.5670 C   0  0  0  0  0  1  0  0  0  0  0  0
  186.8820  177.2320  144.6990 C   0  0  0  0  0  3  0  0  0  0  0  0
  187.6190  177.6590  143.5910 C   0  0  0  0  0  0  0  0  0  0  0  0
  187.4780  176.4130  145.6620 C   0  0  0  0  0  3  0  0  0  0  0  0
  190.4810  168.6540  141.7860 O   0  0  0  0  0  0  0  0  0  0  0  0
  190.7440  169.1630  140.6640 C   0  0  0  0  0  0  0  0  0  0  0  0
  190.2760  171.5350  141.4600 C   0  0  0  0  0  0  0  0  0  0  0  0
  190.6540  170.5810  140.4630 N   0  0  0  0  0  2  0  0  0  0  0  0
  189.9950  171.1670  142.6340 O   0  0  0  0  0  0  0  0  0  0  0  0
  190.6780  168.4420  138.3320 C   0  0  0  0  0  2  0  0  0  0  0  0
  191.1440  168.2820  139.5640 C   0  0  0  0  0  3  0  0  0  0  0  0
  1 10  1  0  0  0  0
  1 18  1  0  0  0  0
  2 16  1  0  0  0  0
  3 15  1  0  0  0  0
  4  8  2  0  0  0  0
  5  7  1  0  0  0  0
  5  2  1  1  0  0  0
  6  4  1  0  0  0  0
  6  2  2  0  0  0  0
  7  3  1  6  0  0  0
  7 19  1  0  0  0  0
  8 12  1  0  0  0  0
  9 17  1  0  0  0  0
  9  6  1  0  0  0  0
 13  1  1  0  0  0  0
 13  9  1  0  0  0  0
 14 33  1  1  0  0  0
 14 15  1  0  0  0  0
 16 12  2  0  0  0  0
 16 11  1  0  0  0  0
 17 22  1  1  0  0  0
 17  5  1  0  0  0  0
 18  4  1  0  0  0  0
 19 25  1  6  0  0  0
 19 23  1  0  0  0  0
 20  1  1  0  0  0  0
 21 22  1  0  0  0  0
 21 14  1  0  0  0  0
 23 11  1  0  0  0  0
 24 30  1  0  0  0  0
 25 24  2  0  0  0  0
 26 29  2  0  0  0  0
 26 25  1  0  0  0  0
 27 29  1  0  0  0  0
 28 30  2  0  0  0  0
 29 28  1  0  0  0  0
 32 31  2  0  0  0  0
 33 35  2  0  0  0  0
 34 32  1  0  0  0  0
 34 33  1  0  0  0  0
 36 37  2  0  0  0  0
 37 32  1  0  0  0  0
M  END
>  <MODEL>
9

>  <REMARK>
 VINA RESULT:      -7.7      3.281      6.838
  Name = 
  3 active torsions:
  status: ('A' for Active; 'I' for Inactive)
    1  A    between atoms: C_4  and  C_37
    2  A    between atoms: C_8  and  C_18
    3  A    between atoms: C_23  and  C_30
                            x       y       z     vdW  Elec       q    Type
                         _______ _______ _______ _____ _____    ______ ____

>  <TORSDO>
F 3

$$$$
