=
 OpenBabel11112416373D

 32 37  0  0  1  0  0  0  0  0999 V2000
  185.3800  177.5500  144.9440 C   0  0  0  0  0  2  0  0  0  0  0  0
  190.5090  175.1650  143.9720 C   0  0  1  0  0  3  0  0  0  0  0  0
  190.3080  171.4880  140.6560 C   0  0  0  0  0  3  0  0  0  0  0  0
  191.5840  171.0560  141.0190 C   0  0  0  0  0  3  0  0  0  0  0  0
  192.7100  175.3900  145.1800 C   0  0  0  0  0  0  0  0  0  0  0  0
  193.9860  174.7790  145.5670 C   0  0  0  0  0  0  0  0  0  0  0  0
  188.2500  175.9090  144.8590 N   0  0  2  0  0  0  0  0  0  0  0  0
  188.4480  174.8100  142.6300 C   0  0  0  0  0  2  0  0  0  0  0  0
  195.5770  173.1780  145.4930 C   0  0  0  0  0  0  0  0  0  0  0  0
  186.4010  176.0460  143.1840 C   0  0  0  0  0  2  0  0  0  0  0  0
  189.6800  172.4990  141.3850 C   0  0  0  0  0  3  0  0  0  0  0  0
  189.6030  174.1040  143.3430 C   0  0  1  0  0  3  0  0  0  0  0  0
  190.3300  173.1090  142.4690 C   0  0  0  0  0  0  0  0  0  0  0  0
  192.3020  173.2820  143.9900 C   0  0  0  0  0  0  0  0  0  0  0  0
  196.1320  174.3800  145.4910 C   0  0  0  0  0  3  0  0  0  0  0  0
  186.3360  176.9420  145.9730 C   0  0  0  0  0  2  0  0  0  0  0  0
  187.9110  176.0130  143.4200 C   0  0  1  0  0  3  0  0  0  0  0  0
  195.1240  175.3860  145.4940 N   0  0  0  0  0  0  0  0  0  0  0  0
  187.7960  177.0990  145.5720 C   0  0  0  0  0  2  0  0  0  0  0  0
  185.8390  177.4290  143.4880 C   0  0  1  0  0  3  0  0  0  0  0  0
  192.2300  171.6360  142.1120 C   0  0  0  0  0  3  0  0  0  0  0  0
  191.6090  172.6580  142.8460 C   0  0  0  0  0  0  0  0  0  0  0  0
  193.3900  172.7340  144.4680 N   0  0  0  0  0  0  0  0  0  0  0  0
  189.7080  175.8930  145.0690 C   0  0  0  0  0  2  0  0  0  0  0  0
  192.4880  176.8440  145.4520 C   0  0  0  0  0  1  0  0  0  0  0  0
  196.3400  171.9020  145.5270 C   0  0  0  0  0  1  0  0  0  0  0  0
  191.8320  174.6200  144.4890 C   0  0  0  0  0  0  0  0  0  0  0  0
  194.1010  173.3010  145.6140 C   0  0  2  0  0  3  0  0  0  0  0  0
  184.7160  177.7140  142.6090 N   0  0  0  0  0  2  0  0  0  0  0  0
  184.8860  178.1120  141.2470 C   0  0  0  0  0  0  0  0  0  0  0  0
  186.0380  178.2530  140.7570 O   0  0  0  0  0  0  0  0  0  0  0  0
  183.6910  178.3650  140.4000 C   0  0  0  0  0  1  0  0  0  0  0  0
  1 16  1  0  0  0  0
  2 27  1  0  0  0  0
  2 24  1  1  0  0  0
  3  4  2  0  0  0  0
  3 11  1  0  0  0  0
  4 21  1  0  0  0  0
  5 25  1  0  0  0  0
  5  6  1  0  0  0  0
  6 28  1  0  0  0  0
  7 24  1  6  0  0  0
  7 19  1  0  0  0  0
  9 26  1  0  0  0  0
  9 28  1  0  0  0  0
 10 17  1  0  0  0  0
 10 20  1  0  0  0  0
 11 13  2  0  0  0  0
 12  8  1  6  0  0  0
 12  2  1  0  0  0  0
 13 22  1  0  0  0  0
 13 12  1  0  0  0  0
 14 23  2  0  0  0  0
 14 27  1  0  0  0  0
 15  9  2  0  0  0  0
 15 18  1  0  0  0  0
 17  8  1  6  0  0  0
 17  7  1  0  0  0  0
 18  6  2  0  0  0  0
 19 16  1  0  0  0  0
 20 29  1  6  0  0  0
 20  1  1  0  0  0  0
 21 22  2  0  0  0  0
 22 14  1  0  0  0  0
 27  5  2  0  0  0  0
 28 23  1  6  0  0  0
 30 29  1  0  0  0  0
 31 30  2  0  0  0  0
 32 30  1  0  0  0  0
M  END
>  <MODEL>
1

>  <REMARK>
 VINA RESULT:      -8.7      0.000      0.000
  Name = 
  1 active torsions:
  status: ('A' for Active; 'I' for Inactive)
    1  A    between atoms: C_20  and  N_29
                            x       y       z     vdW  Elec       q    Type
                         _______ _______ _______ _____ _____    ______ ____

>  <TORSDO>
F 1

$$$$
=
 OpenBabel11112416373D

 32 37  0  0  1  0  0  0  0  0999 V2000
  190.3620  172.1560  138.4380 C   0  0  0  0  0  2  0  0  0  0  0  0
  188.7600  175.7240  142.6380 C   0  0  1  0  0  3  0  0  0  0  0  0
  191.5680  175.2800  146.6970 C   0  0  0  0  0  3  0  0  0  0  0  0
  190.6410  176.0030  147.4490 C   0  0  0  0  0  3  0  0  0  0  0  0
  186.7050  177.1580  142.9160 C   0  0  0  0  0  0  0  0  0  0  0  0
  185.7460  177.7960  143.8240 C   0  0  0  0  0  0  0  0  0  0  0  0
  189.0380  173.8450  140.9540 N   0  0  2  0  0  0  0  0  0  0  0  0
  190.8620  174.4010  142.5590 C   0  0  0  0  0  2  0  0  0  0  0  0
  184.9920  178.4510  145.8490 C   0  0  0  0  0  0  0  0  0  0  0  0
  191.3720  173.0330  140.5860 C   0  0  0  0  0  2  0  0  0  0  0  0
  191.2670  174.9120  145.3850 C   0  0  0  0  0  3  0  0  0  0  0  0
  189.6610  174.7740  143.4300 C   0  0  1  0  0  3  0  0  0  0  0  0
  190.0470  175.2860  144.7980 C   0  0  0  0  0  0  0  0  0  0  0  0
  187.8150  176.3890  144.9670 C   0  0  0  0  0  0  0  0  0  0  0  0
  184.8200  179.4160  144.9590 C   0  0  0  0  0  3  0  0  0  0  0  0
  188.9760  172.2850  139.0740 C   0  0  0  0  0  2  0  0  0  0  0  0
  190.4780  174.1660  141.0900 C   0  0  1  0  0  3  0  0  0  0  0  0
  185.3360  179.0140  143.6940 N   0  0  0  0  0  0  0  0  0  0  0  0
  188.6840  173.7030  139.5450 C   0  0  0  0  0  2  0  0  0  0  0  0
  191.4430  173.0410  139.0640 C   0  0  1  0  0  3  0  0  0  0  0  0
  189.4140  176.3560  146.8860 C   0  0  0  0  0  3  0  0  0  0  0  0
  189.1060  175.9980  145.5650 C   0  0  0  0  0  0  0  0  0  0  0  0
  186.8630  176.8650  145.7290 N   0  0  0  0  0  0  0  0  0  0  0  0
  188.1910  174.9530  141.4310 C   0  0  0  0  0  2  0  0  0  0  0  0
  186.6570  177.4870  141.4580 C   0  0  0  0  0  1  0  0  0  0  0  0
  184.5360  178.5230  147.2630 C   0  0  0  0  0  1  0  0  0  0  0  0
  187.6680  176.3780  143.4710 C   0  0  0  0  0  0  0  0  0  0  0  0
  185.5590  177.2460  145.1880 C   0  0  2  0  0  3  0  0  0  0  0  0
  192.7510  172.5810  138.6240 N   0  0  0  0  0  2  0  0  0  0  0  0
  193.8290  173.4760  138.3480 C   0  0  0  0  0  0  0  0  0  0  0  0
  193.6760  174.7210  138.4550 O   0  0  0  0  0  0  0  0  0  0  0  0
  195.1470  172.9320  137.9240 C   0  0  0  0  0  1  0  0  0  0  0  0
  1 20  1  0  0  0  0
  1 16  1  0  0  0  0
  2 24  1  6  0  0  0
  2 12  1  0  0  0  0
  2 27  1  0  0  0  0
  3  4  1  0  0  0  0
  5 27  2  0  0  0  0
  5  6  1  0  0  0  0
  7 19  1  6  0  0  0
  7 17  1  0  0  0  0
  7 24  1  0  0  0  0
  9 26  1  0  0  0  0
 11  3  2  0  0  0  0
 12  8  1  6  0  0  0
 12 13  1  0  0  0  0
 13 11  1  0  0  0  0
 13 22  2  0  0  0  0
 14 22  1  0  0  0  0
 14 23  2  0  0  0  0
 15  9  2  0  0  0  0
 16 19  1  0  0  0  0
 17 10  1  1  0  0  0
 17  8  1  0  0  0  0
 18  6  2  0  0  0  0
 18 15  1  0  0  0  0
 20 29  1  1  0  0  0
 20 10  1  0  0  0  0
 21  4  2  0  0  0  0
 22 21  1  0  0  0  0
 25  5  1  0  0  0  0
 27 14  1  0  0  0  0
 28  6  1  6  0  0  0
 28 23  1  0  0  0  0
 28  9  1  0  0  0  0
 30 31  2  0  0  0  0
 30 29  1  0  0  0  0
 32 30  1  0  0  0  0
M  END
>  <MODEL>
2

>  <REMARK>
 VINA RESULT:      -8.6      3.211      8.015
  Name = 
  1 active torsions:
  status: ('A' for Active; 'I' for Inactive)
    1  A    between atoms: C_20  and  N_29
                            x       y       z     vdW  Elec       q    Type
                         _______ _______ _______ _____ _____    ______ ____

>  <TORSDO>
F 1

$$$$
=
 OpenBabel11112416373D

 32 37  0  0  1  0  0  0  0  0999 V2000
  195.7560  174.4310  146.0760 C   0  0  0  0  0  2  0  0  0  0  0  0
  190.2850  175.1880  144.5170 C   0  0  1  0  0  3  0  0  0  0  0  0
  189.4210  173.7910  139.8410 C   0  0  0  0  0  3  0  0  0  0  0  0
  188.1910  174.4500  139.8450 C   0  0  0  0  0  3  0  0  0  0  0  0
  188.3900  176.4260  145.6260 C   0  0  0  0  0  0  0  0  0  0  0  0
  187.1430  177.1840  145.4790 C   0  0  0  0  0  0  0  0  0  0  0  0
  192.7430  175.3980  145.1160 N   0  0  2  0  0  0  0  0  0  0  0  0
  192.0040  173.9040  143.2630 C   0  0  0  0  0  2  0  0  0  0  0  0
  185.3840  177.9950  144.3180 C   0  0  0  0  0  0  0  0  0  0  0  0
  194.2530  173.6270  144.2070 C   0  0  0  0  0  2  0  0  0  0  0  0
  190.2910  173.9320  140.9240 C   0  0  0  0  0  3  0  0  0  0  0  0
  190.9240  174.9800  143.1420 C   0  0  1  0  0  3  0  0  0  0  0  0
  189.9320  174.7130  142.0340 C   0  0  0  0  0  0  0  0  0  0  0  0
  188.3120  176.2260  143.1800 C   0  0  0  0  0  0  0  0  0  0  0  0
  184.9880  177.5370  145.4960 C   0  0  0  0  0  3  0  0  0  0  0  0
  194.9410  175.7250  146.1330 C   0  0  0  0  0  2  0  0  0  0  0  0
  192.8200  174.0270  144.5590 C   0  0  1  0  0  3  0  0  0  0  0  0
  186.0940  176.9880  146.2060 N   0  0  0  0  0  0  0  0  0  0  0  0
  193.4620  175.4670  146.3850 C   0  0  0  0  0  2  0  0  0  0  0  0
  195.0250  173.2350  145.4600 C   0  0  1  0  0  3  0  0  0  0  0  0
  187.8340  175.2520  140.9300 C   0  0  0  0  0  3  0  0  0  0  0  0
  188.7000  175.3930  142.0260 C   0  0  0  0  0  0  0  0  0  0  0  0
  187.2720  177.0170  143.0910 N   0  0  0  0  0  0  0  0  0  0  0  0
  191.3580  175.7610  145.4630 C   0  0  0  0  0  2  0  0  0  0  0  0
  188.8330  176.0140  146.9930 C   0  0  0  0  0  1  0  0  0  0  0  0
  184.4910  178.6660  143.3370 C   0  0  0  0  0  1  0  0  0  0  0  0
  189.0250  176.0390  144.4900 C   0  0  0  0  0  0  0  0  0  0  0  0
  186.8610  177.8780  144.1990 C   0  0  2  0  0  3  0  0  0  0  0  0
  195.9920  172.1950  145.1450 N   0  0  0  0  0  2  0  0  0  0  0  0
  195.7950  170.8260  145.5040 C   0  0  0  0  0  0  0  0  0  0  0  0
  194.7680  170.4690  146.1380 O   0  0  0  0  0  0  0  0  0  0  0  0
  196.8160  169.8130  145.1280 C   0  0  0  0  0  1  0  0  0  0  0  0
  1 16  1  0  0  0  0
  2 24  1  1  0  0  0
  3  4  2  0  0  0  0
  3 11  1  0  0  0  0
  4 21  1  0  0  0  0
  5 25  1  0  0  0  0
  6  5  1  0  0  0  0
  6 18  2  0  0  0  0
  7 24  1  1  0  0  0
  7 19  1  0  0  0  0
  9 15  2  0  0  0  0
 10 17  1  0  0  0  0
 10 20  1  0  0  0  0
 11 13  2  0  0  0  0
 12  8  1  1  0  0  0
 12  2  1  0  0  0  0
 13 12  1  0  0  0  0
 14 27  1  0  0  0  0
 15 18  1  0  0  0  0
 16 19  1  0  0  0  0
 17  8  1  6  0  0  0
 17  7  1  0  0  0  0
 20 29  1  6  0  0  0
 20  1  1  0  0  0  0
 21 22  2  0  0  0  0
 22 13  1  0  0  0  0
 22 14  1  0  0  0  0
 23 14  2  0  0  0  0
 26  9  1  0  0  0  0
 27  2  1  0  0  0  0
 27  5  2  0  0  0  0
 28 23  1  6  0  0  0
 28  9  1  0  0  0  0
 28  6  1  0  0  0  0
 29 30  1  0  0  0  0
 30 31  2  0  0  0  0
 32 30  1  0  0  0  0
M  END
>  <MODEL>
3

>  <REMARK>
 VINA RESULT:      -8.5      2.841      8.185
  Name = 
  1 active torsions:
  status: ('A' for Active; 'I' for Inactive)
    1  A    between atoms: C_20  and  N_29
                            x       y       z     vdW  Elec       q    Type
                         _______ _______ _______ _____ _____    ______ ____

>  <TORSDO>
F 1

$$$$
=
 OpenBabel11112416373D

 32 37  0  0  1  0  0  0  0  0999 V2000
  192.2520  172.2320  139.5130 C   0  0  0  0  0  2  0  0  0  0  0  0
  189.7150  176.0400  142.9770 C   0  0  1  0  0  3  0  0  0  0  0  0
  191.9610  176.4110  147.3790 C   0  0  0  0  0  3  0  0  0  0  0  0
  190.8680  177.0980  147.9080 C   0  0  0  0  0  3  0  0  0  0  0  0
  187.5030  177.2370  142.8070 C   0  0  0  0  0  0  0  0  0  0  0  0
  186.3650  177.8540  143.4960 C   0  0  0  0  0  0  0  0  0  0  0  0
  190.4200  174.0270  141.6010 N   0  0  2  0  0  0  0  0  0  0  0  0
  191.9340  174.9810  143.3360 C   0  0  0  0  0  2  0  0  0  0  0  0
  185.2720  178.6420  145.3080 C   0  0  0  0  0  0  0  0  0  0  0  0
  192.8550  173.4670  141.6370 C   0  0  0  0  0  2  0  0  0  0  0  0
  191.8860  175.8600  146.0990 C   0  0  0  0  0  3  0  0  0  0  0  0
  190.5920  175.3040  143.9930 C   0  0  1  0  0  3  0  0  0  0  0  0
  190.7280  176.0130  145.3200 C   0  0  0  0  0  0  0  0  0  0  0  0
  188.3900  176.8500  145.0630 C   0  0  0  0  0  0  0  0  0  0  0  0
  185.1250  179.4690  144.2850 C   0  0  0  0  0  3  0  0  0  0  0  0
  190.7850  172.2650  139.9480 C   0  0  0  0  0  2  0  0  0  0  0  0
  191.7860  174.5340  141.8730 C   0  0  1  0  0  3  0  0  0  0  0  0
  185.8520  178.9900  143.1580 N   0  0  0  0  0  0  0  0  0  0  0  0
  190.2830  173.6820  140.1890 C   0  0  0  0  0  2  0  0  0  0  0  0
  193.1360  173.3080  140.1480 C   0  0  1  0  0  3  0  0  0  0  0  0
  189.7010  177.2330  147.1550 C   0  0  0  0  0  3  0  0  0  0  0  0
  189.6200  176.6900  145.8640 C   0  0  0  0  0  0  0  0  0  0  0  0
  187.2970  177.2910  145.6310 N   0  0  0  0  0  0  0  0  0  0  0  0
  189.4040  175.0720  141.8200 C   0  0  0  0  0  2  0  0  0  0  0  0
  187.6230  177.3870  141.3240 C   0  0  0  0  0  1  0  0  0  0  0  0
  184.6180  178.8200  146.6320 C   0  0  0  0  0  1  0  0  0  0  0  0
  188.4550  176.6490  143.5750 C   0  0  0  0  0  0  0  0  0  0  0  0
  186.0480  177.4470  144.8860 C   0  0  2  0  0  3  0  0  0  0  0  0
  194.5330  172.9620  139.9400 N   0  0  0  0  0  2  0  0  0  0  0  0
  195.5390  173.9430  139.6790 C   0  0  0  0  0  0  0  0  0  0  0  0
  195.2410  175.1640  139.5980 O   0  0  0  0  0  0  0  0  0  0  0  0
  196.9520  173.5180  139.4990 C   0  0  0  0  0  1  0  0  0  0  0  0
  1 16  1  0  0  0  0
  1 20  1  0  0  0  0
  2 24  1  6  0  0  0
  2 27  1  0  0  0  0
  2 12  1  0  0  0  0
  3  4  1  0  0  0  0
  5  6  1  0  0  0  0
  5 27  2  0  0  0  0
  7 19  1  6  0  0  0
  7 24  1  0  0  0  0
  7 17  1  0  0  0  0
  9 26  1  0  0  0  0
 11  3  2  0  0  0  0
 12  8  1  6  0  0  0
 12 13  1  0  0  0  0
 13 22  2  0  0  0  0
 13 11  1  0  0  0  0
 14 23  2  0  0  0  0
 14 22  1  0  0  0  0
 15  9  2  0  0  0  0
 16 19  1  0  0  0  0
 17 10  1  1  0  0  0
 17  8  1  0  0  0  0
 18  6  2  0  0  0  0
 18 15  1  0  0  0  0
 20 29  1  1  0  0  0
 20 10  1  0  0  0  0
 21  4  2  0  0  0  0
 22 21  1  0  0  0  0
 25  5  1  0  0  0  0
 27 14  1  0  0  0  0
 28  6  1  6  0  0  0
 28  9  1  0  0  0  0
 28 23  1  0  0  0  0
 30 29  1  0  0  0  0
 31 30  2  0  0  0  0
 32 30  1  0  0  0  0
M  END
>  <MODEL>
4

>  <REMARK>
 VINA RESULT:      -8.3      3.122      8.293
  Name = 
  1 active torsions:
  status: ('A' for Active; 'I' for Inactive)
    1  A    between atoms: C_20  and  N_29
                            x       y       z     vdW  Elec       q    Type
                         _______ _______ _______ _____ _____    ______ ____

>  <TORSDO>
F 1

$$$$
=
 OpenBabel11112416373D

 32 37  0  0  1  0  0  0  0  0999 V2000
  184.6830  178.5350  144.8870 C   0  0  0  0  0  2  0  0  0  0  0  0
  189.7790  176.1510  143.7530 C   0  0  1  0  0  3  0  0  0  0  0  0
  189.3810  171.8980  141.2400 C   0  0  0  0  0  3  0  0  0  0  0  0
  190.7110  171.5800  141.5170 C   0  0  0  0  0  3  0  0  0  0  0  0
  192.0910  176.6660  144.6150 C   0  0  0  0  0  0  0  0  0  0  0  0
  193.4330  176.1780  144.9480 C   0  0  0  0  0  0  0  0  0  0  0  0
  187.6030  176.9880  144.7570 N   0  0  2  0  0  0  0  0  0  0  0  0
  187.5960  175.4860  142.7690 C   0  0  0  0  0  2  0  0  0  0  0  0
  195.0840  174.6370  144.9800 C   0  0  0  0  0  0  0  0  0  0  0  0
  185.5670  176.7480  143.3290 C   0  0  0  0  0  2  0  0  0  0  0  0
  188.7920  173.0130  141.8380 C   0  0  0  0  0  3  0  0  0  0  0  0
  188.8610  174.9640  143.4530 C   0  0  1  0  0  3  0  0  0  0  0  0
  189.5310  173.8390  142.6990 C   0  0  0  0  0  0  0  0  0  0  0  0
  191.6550  174.3570  143.9020 C   0  0  0  0  0  0  0  0  0  0  0  0
  195.5730  175.8320  144.6830 C   0  0  0  0  0  3  0  0  0  0  0  0
  185.7810  178.1640  145.8850 C   0  0  0  0  0  2  0  0  0  0  0  0
  187.0940  176.8030  143.3780 C   0  0  1  0  0  3  0  0  0  0  0  0
  194.5220  176.7910  144.6220 N   0  0  0  0  0  0  0  0  0  0  0  0
  187.1750  178.2810  145.2840 C   0  0  0  0  0  2  0  0  0  0  0  0
  184.9740  178.1470  143.4350 C   0  0  1  0  0  3  0  0  0  0  0  0
  191.4500  172.3780  142.3920 C   0  0  0  0  0  3  0  0  0  0  0  0
  190.8670  173.5050  142.9920 C   0  0  0  0  0  0  0  0  0  0  0  0
  192.8190  173.9430  144.3370 N   0  0  0  0  0  0  0  0  0  0  0  0
  189.0750  177.0540  144.7840 C   0  0  0  0  0  2  0  0  0  0  0  0
  191.8280  178.1390  144.6330 C   0  0  0  0  0  1  0  0  0  0  0  0
  195.9110  173.4140  145.1590 C   0  0  0  0  0  1  0  0  0  0  0  0
  191.1790  175.7530  144.1950 C   0  0  0  0  0  0  0  0  0  0  0  0
  193.6280  174.7410  145.2580 C   0  0  2  0  0  3  0  0  0  0  0  0
  183.7440  178.2260  142.6630 N   0  0  0  0  0  2  0  0  0  0  0  0
  183.7320  178.2910  141.2360 C   0  0  0  0  0  0  0  0  0  0  0  0
  184.8090  178.3050  140.5840 O   0  0  0  0  0  0  0  0  0  0  0  0
  182.4340  178.3460  140.5130 C   0  0  0  0  0  1  0  0  0  0  0  0
  1 16  1  0  0  0  0
  2 27  1  0  0  0  0
  2 24  1  1  0  0  0
  3  4  2  0  0  0  0
  3 11  1  0  0  0  0
  4 21  1  0  0  0  0
  5 25  1  0  0  0  0
  5  6  1  0  0  0  0
  6 28  1  0  0  0  0
  7 24  1  6  0  0  0
  7 19  1  0  0  0  0
  9 26  1  0  0  0  0
  9 28  1  0  0  0  0
 10 17  1  0  0  0  0
 10 20  1  0  0  0  0
 11 13  2  0  0  0  0
 12  8  1  6  0  0  0
 12  2  1  0  0  0  0
 13 22  1  0  0  0  0
 13 12  1  0  0  0  0
 14 27  1  0  0  0  0
 14 23  2  0  0  0  0
 15  9  2  0  0  0  0
 17  8  1  1  0  0  0
 17  7  1  0  0  0  0
 18 15  1  0  0  0  0
 18  6  2  0  0  0  0
 19 16  1  0  0  0  0
 20 29  1  6  0  0  0
 20  1  1  0  0  0  0
 21 22  2  0  0  0  0
 22 14  1  0  0  0  0
 27  5  2  0  0  0  0
 28 23  1  6  0  0  0
 30 29  1  0  0  0  0
 31 30  2  0  0  0  0
 32 30  1  0  0  0  0
M  END
>  <MODEL>
5

>  <REMARK>
 VINA RESULT:      -8.2      1.112      1.329
  Name = 
  1 active torsions:
  status: ('A' for Active; 'I' for Inactive)
    1  A    between atoms: C_20  and  N_29
                            x       y       z     vdW  Elec       q    Type
                         _______ _______ _______ _____ _____    ______ ____

>  <TORSDO>
F 1

$$$$
=
 OpenBabel11112416373D

 32 37  0  0  1  0  0  0  0  0999 V2000
  185.2600  178.0370  140.5250 C   0  0  0  0  0  2  0  0  0  0  0  0
  189.2030  175.4730  143.8130 C   0  0  1  0  0  3  0  0  0  0  0  0
  190.0300  177.9050  148.0520 C   0  0  0  0  0  3  0  0  0  0  0  0
  191.1920  177.1660  148.2790 C   0  0  0  0  0  3  0  0  0  0  0  0
  190.8190  173.6000  143.3280 C   0  0  0  0  0  0  0  0  0  0  0  0
  192.1150  172.9710  143.6020 C   0  0  2  0  0  3  0  0  0  0  0  0
  187.8990  176.7910  142.0790 N   0  0  2  0  0  0  0  0  0  0  0  0
  187.6880  177.3170  144.5070 C   0  0  0  0  0  2  0  0  0  0  0  0
  194.0420  172.7070  144.7500 C   0  0  0  0  0  0  0  0  0  0  0  0
  185.9990  178.1640  142.9420 C   0  0  0  0  0  2  0  0  0  0  0  0
  189.3450  177.7740  146.8420 C   0  0  0  0  0  3  0  0  0  0  0  0
  189.1420  176.8420  144.4950 C   0  0  1  0  0  3  0  0  0  0  0  0
  189.7990  176.8840  145.8550 C   0  0  0  0  0  0  0  0  0  0  0  0
  191.4780  175.2230  145.0480 C   0  0  0  0  0  0  0  0  0  0  0  0
  193.5110  171.5280  144.4620 C   0  0  0  0  0  3  0  0  0  0  0  0
  186.6910  177.6580  140.1400 C   0  0  0  0  0  2  0  0  0  0  0  0
  186.9500  176.9960  143.1980 C   0  0  1  0  0  3  0  0  0  0  0  0
  192.2750  171.7010  143.7760 N   0  0  0  0  0  2  0  0  0  0  0  0
  187.1780  176.4130  140.8690 C   0  0  0  0  0  2  0  0  0  0  0  0
  184.8880  177.7540  141.9830 C   0  0  1  0  0  3  0  0  0  0  0  0
  191.6680  176.2980  147.2950 C   0  0  0  0  0  3  0  0  0  0  0  0
  190.9820  176.1550  146.0790 C   0  0  0  0  0  0  0  0  0  0  0  0
  192.6740  174.7040  145.1620 N   0  0  0  0  0  0  0  0  0  0  0  0
  188.7980  175.6520  142.3380 C   0  0  0  0  0  2  0  0  0  0  0  0
  189.8270  172.8770  142.4730 C   0  0  0  0  0  1  0  0  0  0  0  0
  195.3500  172.8930  145.4320 C   0  0  0  0  0  1  0  0  0  0  0  0
  190.5420  174.7670  143.9630 C   0  0  0  0  0  0  0  0  0  0  0  0
  193.2190  173.7920  144.1560 C   0  0  2  0  0  3  0  0  0  0  0  0
  183.6610  178.4620  142.3090 N   0  0  0  0  0  2  0  0  0  0  0  0
  182.4550  178.3000  141.5590 C   0  0  0  0  0  0  0  0  0  0  0  0
  182.4190  177.5410  140.5560 O   0  0  0  0  0  0  0  0  0  0  0  0
  181.2310  179.0400  141.9660 C   0  0  0  0  0  1  0  0  0  0  0  0
  1 20  1  0  0  0  0
  2 24  1  6  0  0  0
  2 27  1  0  0  0  0
  2 12  1  0  0  0  0
  3  4  1  0  0  0  0
  5 27  2  0  0  0  0
  6  5  1  1  0  0  0
  6 18  1  0  0  0  0
  6 28  1  0  0  0  0
  7 19  1  6  0  0  0
  7 24  1  0  0  0  0
  7 17  1  0  0  0  0
  9 26  1  0  0  0  0
 11  3  2  0  0  0  0
 12  8  1  1  0  0  0
 12 13  1  0  0  0  0
 13 22  2  0  0  0  0
 13 11  1  0  0  0  0
 14 23  2  0  0  0  0
 14 22  1  0  0  0  0
 15  9  2  0  0  0  0
 16  1  1  0  0  0  0
 16 19  1  0  0  0  0
 17 10  1  6  0  0  0
 17  8  1  0  0  0  0
 18 15  1  0  0  0  0
 20 29  1  1  0  0  0
 20 10  1  0  0  0  0
 21  4  2  0  0  0  0
 22 21  1  0  0  0  0
 25  5  1  0  0  0  0
 27 14  1  0  0  0  0
 28  9  1  1  0  0  0
 28 23  1  0  0  0  0
 30 32  1  0  0  0  0
 30 29  1  0  0  0  0
 31 30  2  0  0  0  0
M  END
>  <MODEL>
6

>  <REMARK>
 VINA RESULT:      -8.1      1.836      4.372
  Name = 
  1 active torsions:
  status: ('A' for Active; 'I' for Inactive)
    1  A    between atoms: C_20  and  N_29
                            x       y       z     vdW  Elec       q    Type
                         _______ _______ _______ _____ _____    ______ ____

>  <TORSDO>
F 1

$$$$
=
 OpenBabel11112416373D

 32 37  0  0  1  0  0  0  0  0999 V2000
  193.4220  170.8560  143.4320 C   0  0  0  0  0  2  0  0  0  0  0  0
  190.0410  175.3300  144.6520 C   0  0  1  0  0  3  0  0  0  0  0  0
  191.4550  177.7300  148.7520 C   0  0  0  0  0  3  0  0  0  0  0  0
  190.2380  178.4100  148.8040 C   0  0  0  0  0  3  0  0  0  0  0  0
  187.8080  176.0370  143.7220 C   0  0  0  0  0  0  0  0  0  0  0  0
  186.5250  176.7120  143.9420 C   0  0  0  0  0  0  0  0  0  0  0  0
  191.1250  173.0560  144.3360 N   0  0  2  0  0  0  0  0  0  0  0  0
  192.2390  174.8230  145.6970 C   0  0  0  0  0  2  0  0  0  0  0  0
  185.0770  177.9930  145.1100 C   0  0  0  0  0  0  0  0  0  0  0  0
  193.5520  172.9040  144.9110 C   0  0  0  0  0  2  0  0  0  0  0  0
  191.6450  176.7110  147.8160 C   0  0  0  0  0  3  0  0  0  0  0  0
  190.7820  175.1890  145.9850 C   0  0  1  0  0  3  0  0  0  0  0  0
  190.6310  176.3780  146.9040 C   0  0  0  0  0  0  0  0  0  0  0  0
  188.3170  176.7070  146.0280 C   0  0  0  0  0  0  0  0  0  0  0  0
  185.0480  178.3170  143.8260 C   0  0  0  0  0  3  0  0  0  0  0  0
  191.9030  170.8520  143.6230 C   0  0  0  0  0  2  0  0  0  0  0  0
  192.3800  173.8150  144.5460 C   0  0  1  0  0  3  0  0  0  0  0  0
  185.9930  177.5360  143.1010 N   0  0  0  0  0  0  0  0  0  0  0  0
  191.2620  172.1630  143.1900 C   0  0  0  0  0  2  0  0  0  0  0  0
  194.0980  172.2080  143.6710 C   0  0  1  0  0  3  0  0  0  0  0  0
  189.2120  178.0690  147.9210 C   0  0  0  0  0  3  0  0  0  0  0  0
  189.3980  177.0520  146.9720 C   0  0  0  0  0  0  0  0  0  0  0  0
  187.1120  177.1800  146.2180 N   0  0  0  0  0  0  0  0  0  0  0  0
  190.0100  173.9490  143.9710 C   0  0  0  0  0  2  0  0  0  0  0  0
  188.1730  175.6020  142.3380 C   0  0  0  0  0  1  0  0  0  0  0  0
  184.1920  178.5890  146.1450 C   0  0  0  0  0  1  0  0  0  0  0  0
  188.6550  175.9430  144.7780 C   0  0  0  0  0  0  0  0  0  0  0  0
  186.0030  176.8500  145.3230 C   0  0  2  0  0  3  0  0  0  0  0  0
  195.5330  172.0070  143.8040 N   0  0  0  0  0  2  0  0  0  0  0  0
  196.4890  172.9760  143.3720 C   0  0  0  0  0  0  0  0  0  0  0  0
  196.1180  174.0500  142.8300 O   0  0  0  0  0  0  0  0  0  0  0  0
  197.9400  172.7130  143.5620 C   0  0  0  0  0  1  0  0  0  0  0  0
  1 16  1  0  0  0  0
  1 20  1  0  0  0  0
  2 24  1  1  0  0  0
  2 27  1  0  0  0  0
  2 12  1  0  0  0  0
  3  4  1  0  0  0  0
  5  6  1  0  0  0  0
  5 27  2  0  0  0  0
  7 19  1  6  0  0  0
  7 17  1  0  0  0  0
  9 28  1  0  0  0  0
  9 26  1  0  0  0  0
 11  3  2  0  0  0  0
 12  8  1  6  0  0  0
 12 13  1  0  0  0  0
 13 22  2  0  0  0  0
 13 11  1  0  0  0  0
 14 23  2  0  0  0  0
 14 22  1  0  0  0  0
 15  9  2  0  0  0  0
 17 10  1  1  0  0  0
 17  8  1  0  0  0  0
 18 15  1  0  0  0  0
 18  6  2  0  0  0  0
 19 16  1  0  0  0  0
 20 29  1  1  0  0  0
 20 10  1  0  0  0  0
 21  4  2  0  0  0  0
 22 21  1  0  0  0  0
 24  7  1  0  0  0  0
 25  5  1  0  0  0  0
 27 14  1  0  0  0  0
 28  6  1  6  0  0  0
 28 23  1  0  0  0  0
 30 32  1  0  0  0  0
 30 29  1  0  0  0  0
 31 30  2  0  0  0  0
M  END
>  <MODEL>
7

>  <REMARK>
 VINA RESULT:      -8.0      2.716      8.766
  Name = 
  1 active torsions:
  status: ('A' for Active; 'I' for Inactive)
    1  A    between atoms: C_20  and  N_29
                            x       y       z     vdW  Elec       q    Type
                         _______ _______ _______ _____ _____    ______ ____

>  <TORSDO>
F 1

$$$$
=
 OpenBabel11112416373D

 32 37  0  0  1  0  0  0  0  0999 V2000
  186.0670  177.8000  142.1210 C   0  0  0  0  0  2  0  0  0  0  0  0
  190.6620  174.5700  143.3010 C   0  0  1  0  0  3  0  0  0  0  0  0
  193.5260  176.5400  146.8330 C   0  0  0  0  0  3  0  0  0  0  0  0
  194.5660  175.6670  146.5130 C   0  0  0  0  0  3  0  0  0  0  0  0
  191.6560  172.5840  142.1090 C   0  0  0  0  0  0  0  0  0  0  0  0
  192.8510  171.8010  141.7770 C   0  0  0  0  0  0  0  0  0  0  0  0
  188.9290  176.1580  142.3420 N   0  0  2  0  0  0  0  0  0  0  0  0
  189.8430  176.4990  144.6360 C   0  0  0  0  0  2  0  0  0  0  0  0
  195.0300  171.2410  141.9690 C   0  0  0  0  0  0  0  0  0  0  0  0
  187.7750  177.6480  143.9820 C   0  0  0  0  0  2  0  0  0  0  0  0
  192.3810  176.5840  146.0360 C   0  0  0  0  0  3  0  0  0  0  0  0
  191.0770  175.8760  143.9820 C   0  0  1  0  0  3  0  0  0  0  0  0
  192.2500  175.7360  144.9240 C   0  0  0  0  0  0  0  0  0  0  0  0
  193.1920  173.9800  143.4210 C   0  0  0  0  0  0  0  0  0  0  0  0
  194.2780  170.1530  141.9040 C   0  0  0  0  0  3  0  0  0  0  0  0
  187.1350  177.3060  141.1430 C   0  0  0  0  0  2  0  0  0  0  0  0
  188.5820  176.3680  143.7670 C   0  0  1  0  0  3  0  0  0  0  0  0
  192.9020  170.5110  141.8260 N   0  0  0  0  0  0  0  0  0  0  0  0
  187.7180  175.9600  141.5530 C   0  0  0  0  0  2  0  0  0  0  0  0
  186.3190  177.4380  143.5870 C   0  0  1  0  0  3  0  0  0  0  0  0
  194.4600  174.8390  145.3950 C   0  0  0  0  0  3  0  0  0  0  0  0
  193.3090  174.8700  144.5920 C   0  0  0  0  0  0  0  0  0  0  0  0
  194.2430  173.3290  142.9910 N   0  0  0  0  0  0  0  0  0  0  0  0
  189.6950  174.9130  142.1520 C   0  0  0  0  0  2  0  0  0  0  0  0
  190.3090  172.0430  141.7470 C   0  0  0  0  0  1  0  0  0  0  0  0
  196.5160  171.2300  142.0220 C   0  0  0  0  0  1  0  0  0  0  0  0
  191.8320  173.7170  142.8350 C   0  0  0  0  0  0  0  0  0  0  0  0
  194.1820  172.4530  141.8220 C   0  0  2  0  0  3  0  0  0  0  0  0
  185.4520  178.2420  144.4330 N   0  0  0  0  0  2  0  0  0  0  0  0
  184.9550  177.7780  145.6900 C   0  0  0  0  0  0  0  0  0  0  0  0
  185.2370  176.6240  146.1070 O   0  0  0  0  0  0  0  0  0  0  0  0
  184.0910  178.6650  146.5130 C   0  0  0  0  0  1  0  0  0  0  0  0
  1 20  1  0  0  0  0
  2 24  1  6  0  0  0
  2 12  1  0  0  0  0
  4  3  1  0  0  0  0
  5 27  2  0  0  0  0
  6 18  2  0  0  0  0
  6  5  1  0  0  0  0
  7 19  1  6  0  0  0
  7 17  1  0  0  0  0
  9 26  1  0  0  0  0
 11  3  2  0  0  0  0
 12  8  1  1  0  0  0
 12 13  1  0  0  0  0
 13 11  1  0  0  0  0
 14 22  1  0  0  0  0
 15  9  2  0  0  0  0
 16 19  1  0  0  0  0
 16  1  1  0  0  0  0
 17 10  1  6  0  0  0
 17  8  1  0  0  0  0
 18 15  1  0  0  0  0
 20 10  1  0  0  0  0
 20 29  1  1  0  0  0
 21  4  2  0  0  0  0
 22 13  2  0  0  0  0
 22 21  1  0  0  0  0
 23 14  2  0  0  0  0
 24  7  1  0  0  0  0
 25  5  1  0  0  0  0
 27  2  1  0  0  0  0
 27 14  1  0  0  0  0
 28  6  1  1  0  0  0
 28  9  1  0  0  0  0
 28 23  1  0  0  0  0
 29 30  1  0  0  0  0
 30 31  2  0  0  0  0
 30 32  1  0  0  0  0
M  END
>  <MODEL>
8

>  <REMARK>
 VINA RESULT:      -8.0      1.989      4.431
  Name = 
  1 active torsions:
  status: ('A' for Active; 'I' for Inactive)
    1  A    between atoms: C_20  and  N_29
                            x       y       z     vdW  Elec       q    Type
                         _______ _______ _______ _____ _____    ______ ____

>  <TORSDO>
F 1

$$$$
=
 OpenBabel11112416373D

 32 37  0  0  1  0  0  0  0  0999 V2000
  186.1960  178.8860  142.9540 C   0  0  0  0  0  2  0  0  0  0  0  0
  189.4920  174.2400  142.2570 C   0  0  1  0  0  3  0  0  0  0  0  0
  193.0230  173.8670  145.7150 C   0  0  0  0  0  3  0  0  0  0  0  0
  193.6920  172.9000  144.9640 C   0  0  0  0  0  3  0  0  0  0  0  0
  189.7020  172.6140  140.3420 C   0  0  0  0  0  0  0  0  0  0  0  0
  190.5470  171.6860  139.5840 C   0  0  0  0  0  0  0  0  0  0  0  0
  188.3480  176.5040  142.1600 N   0  0  2  0  0  0  0  0  0  0  0  0
  189.4360  175.7120  144.2590 C   0  0  0  0  0  2  0  0  0  0  0  0
  192.4180  170.4740  139.2240 C   0  0  0  0  0  0  0  0  0  0  0  0
  187.8440  177.5770  144.3590 C   0  0  0  0  0  2  0  0  0  0  0  0
  191.9210  174.5310  145.1740 C   0  0  0  0  0  3  0  0  0  0  0  0
  190.3550  175.0280  143.2450 C   0  0  1  0  0  3  0  0  0  0  0  0
  191.4580  174.2180  143.8860 C   0  0  0  0  0  0  0  0  0  0  0  0
  191.6800  172.9230  141.7640 C   0  0  0  0  0  0  0  0  0  0  0  0
  191.3420  169.7570  138.9370 C   0  0  0  0  0  3  0  0  0  0  0  0
  186.9870  178.4820  141.7070 C   0  0  0  0  0  2  0  0  0  0  0  0
  188.1630  176.2820  143.6130 C   0  0  1  0  0  3  0  0  0  0  0  0
  190.1640  170.5110  139.2060 N   0  0  0  0  0  0  0  0  0  0  0  0
  187.1030  176.9710  141.5590 C   0  0  0  0  0  2  0  0  0  0  0  0
  186.3840  177.9650  144.1620 C   0  0  1  0  0  3  0  0  0  0  0  0
  193.2590  172.5990  143.6720 C   0  0  0  0  0  3  0  0  0  0  0  0
  192.1470  173.2560  143.1230 C   0  0  0  0  0  0  0  0  0  0  0  0
  192.4290  172.1900  140.9800 N   0  0  0  0  0  0  0  0  0  0  0  0
  188.6410  175.2430  141.4560 C   0  0  0  0  0  2  0  0  0  0  0  0
  188.2360  172.6660  140.0510 C   0  0  0  0  0  1  0  0  0  0  0  0
  193.8150  170.0040  139.0260 C   0  0  0  0  0  1  0  0  0  0  0  0
  190.2840  173.3040  141.3560 C   0  0  0  0  0  0  0  0  0  0  0  0
  192.0200  171.8510  139.6170 C   0  0  2  0  0  3  0  0  0  0  0  0
  185.8800  178.6310  145.3530 N   0  0  0  0  0  2  0  0  0  0  0  0
  185.2880  177.9200  146.4410 C   0  0  0  0  0  0  0  0  0  0  0  0
  185.1580  176.6680  146.3970 O   0  0  0  0  0  0  0  0  0  0  0  0
  184.8160  178.6660  147.6380 C   0  0  0  0  0  1  0  0  0  0  0  0
  1 20  1  0  0  0  0
  2 24  1  6  0  0  0
  2 12  1  0  0  0  0
  4  3  2  0  0  0  0
  5 27  2  0  0  0  0
  6 28  1  0  0  0  0
  6  5  1  0  0  0  0
  7 24  1  6  0  0  0
  7 17  1  0  0  0  0
 11  3  1  0  0  0  0
 12 13  1  0  0  0  0
 12  8  1  1  0  0  0
 13 11  2  0  0  0  0
 14 22  1  0  0  0  0
 15 18  1  0  0  0  0
 15  9  2  0  0  0  0
 16  1  1  0  0  0  0
 17  8  1  1  0  0  0
 17 10  1  0  0  0  0
 18  6  2  0  0  0  0
 19 16  1  0  0  0  0
 19  7  1  0  0  0  0
 20 10  1  0  0  0  0
 20 29  1  1  0  0  0
 21  4  1  0  0  0  0
 22 21  2  0  0  0  0
 22 13  1  0  0  0  0
 23 14  2  0  0  0  0
 25  5  1  0  0  0  0
 26  9  1  0  0  0  0
 27 14  1  0  0  0  0
 27  2  1  0  0  0  0
 28  9  1  1  0  0  0
 28 23  1  0  0  0  0
 29 30  1  0  0  0  0
 30 32  1  0  0  0  0
 31 30  2  0  0  0  0
M  END
>  <MODEL>
9

>  <REMARK>
 VINA RESULT:      -7.8      2.346      5.081
  Name = 
  1 active torsions:
  status: ('A' for Active; 'I' for Inactive)
    1  A    between atoms: C_20  and  N_29
                            x       y       z     vdW  Elec       q    Type
                         _______ _______ _______ _____ _____    ______ ____

>  <TORSDO>
F 1

$$$$
