=
 OpenBabel11112417293D

 37 42  0  0  1  0  0  0  0  0999 V2000
  194.1620  176.1510  145.8130 C   0  0  0  0  0  0  0  0  0  0  0  0
  190.4140  175.4750  145.4550 C   0  0  1  0  0  3  0  0  0  0  0  0
  189.0950  173.8950  142.9080 O   0  0  0  0  0  0  0  0  0  0  0  0
  192.2540  175.5800  147.2450 N   0  0  2  0  0  0  0  0  0  0  0  0
  190.6820  175.4010  143.9510 C   0  0  2  0  0  3  0  0  0  0  0  0
  191.6760  174.8620  146.0930 C   0  0  2  0  0  3  0  0  0  0  0  0
  189.4280  175.2470  143.0690 C   0  0  2  0  0  3  0  0  0  0  0  0
  191.1890  176.1150  148.0940 C   0  0  0  0  0  2  0  0  0  0  0  0
  192.6800  174.5830  144.9650 C   0  0  2  0  0  3  0  0  0  0  0  0
  194.9380  175.1240  146.3340 F   0  0  0  0  0  0  0  0  0  0  0  0
  188.7650  177.3090  145.5460 N   0  0  0  0  0  2  0  0  0  0  0  0
  190.3330  177.1700  147.3800 C   0  0  0  0  0  2  0  0  0  0  0  0
  193.4600  175.7290  144.6660 O   0  0  0  0  0  0  0  0  0  0  0  0
  190.5010  173.8280  140.8780 C   0  0  0  0  0  2  0  0  0  0  0  0
  189.1230  173.6220  141.5250 C   0  0  0  0  0  2  0  0  0  0  0  0
  190.1360  176.9280  145.8800 C   0  0  1  0  0  3  0  0  0  0  0  0
  191.7360  174.3030  143.7960 C   0  0  2  0  0  3  0  0  0  0  0  0
  193.1700  176.6530  146.8520 C   0  0  0  0  0  2  0  0  0  0  0  0
  188.2100  176.0860  143.5180 C   0  0  1  0  0  3  0  0  0  0  0  0
  194.9940  177.1970  145.4660 F   0  0  0  0  0  0  0  0  0  0  0  0
  191.6110  173.2240  141.7200 C   0  0  0  0  0  2  0  0  0  0  0  0
  192.3300  174.2700  142.4440 N   0  0  0  0  0  0  0  0  0  0  0  0
  188.6200  177.4350  144.1010 C   0  0  0  0  0  2  0  0  0  0  0  0
  187.7500  177.1270  141.2560 C   0  0  0  0  0  2  0  0  0  0  0  0
  187.1780  176.3010  142.4070 C   0  0  2  0  0  3  0  0  0  0  0  0
  185.8610  176.8360  142.9170 C   0  0  0  0  0  3  0  0  0  0  0  0
  183.8750  178.0730  142.7180 O   0  0  0  0  0  1  0  0  0  0  0  0
  185.5290  178.1930  140.8580 C   0  0  0  0  0  2  0  0  0  0  0  0
  185.0880  177.6530  142.1930 C   0  0  0  0  0  0  0  0  0  0  0  0
  186.6540  177.3730  140.2280 C   0  0  0  0  0  2  0  0  0  0  0  0
  193.7220  173.8140  142.4800 C   0  0  0  0  0  2  0  0  0  0  0  0
  194.5930  174.5410  141.4440 C   0  0  1  0  0  3  0  0  0  0  0  0
  195.1050  176.8290  141.1740 O   0  0  0  0  0  0  0  0  0  0  0  0
  194.2350  175.9880  141.3280 C   0  0  0  0  0  3  0  0  0  0  0  0
  196.0780  174.3980  141.7460 C   0  0  0  0  0  2  0  0  0  0  0  0
  196.3130  174.2320  143.2370 C   0  0  0  0  0  2  0  0  0  0  0  0
  196.9550  175.3600  143.7480 O   0  0  0  0  0  1  0  0  0  0  0  0
  1 10  1  0  0  0  0
  1 18  1  0  0  0  0
  2 16  1  0  0  0  0
  2  6  1  0  0  0  0
  3  7  1  0  0  0  0
  4  8  1  0  0  0  0
  5  2  1  0  0  0  0
  6  4  1  0  0  0  0
  7 19  1  0  0  0  0
  7  5  1  0  0  0  0
  9  6  1  0  0  0  0
 11 16  1  0  0  0  0
 12  8  1  0  0  0  0
 13  9  1  0  0  0  0
 13  1  1  0  0  0  0
 14 15  1  0  0  0  0
 14 21  1  0  0  0  0
 15  3  1  0  0  0  0
 16 12  1  0  0  0  0
 17  5  1  0  0  0  0
 17  9  1  0  0  0  0
 18  4  1  0  0  0  0
 19 23  1  0  0  0  0
 20  1  1  0  0  0  0
 21 22  1  0  0  0  0
 22 31  1  0  0  0  0
 22 17  1  0  0  0  0
 23 11  1  0  0  0  0
 24 25  1  0  0  0  0
 25 26  1  0  0  0  0
 25 19  1  0  0  0  0
 28 29  1  0  0  0  0
 29 27  1  0  0  0  0
 29 26  2  0  0  0  0
 30 28  1  0  0  0  0
 30 24  1  0  0  0  0
 32 35  1  0  0  0  0
 32 31  1  0  0  0  0
 33 34  2  0  0  0  0
 34 32  1  0  0  0  0
 35 36  1  0  0  0  0
 36 37  1  0  0  0  0
M  END
>  <MODEL>
1

>  <REMARK>
 VINA RESULT:      -7.7      0.000      0.000
  Name = 
  6 active torsions:
  status: ('A' for Active; 'I' for Inactive)
    1  A    between atoms: C_1  and  C_4
    2  A    between atoms: C_1  and  N_27
    3  A    between atoms: C_4  and  C_12
    4  A    between atoms: C_4  and  C_37
    5  A    between atoms: C_8  and  C_12
    6  A    between atoms: C_23  and  C_30
                            x       y       z     vdW  Elec       q    Type
                         _______ _______ _______ _____ _____    ______ ____

>  <TORSDO>
F 6

$$$$
=
 OpenBabel11112417293D

 37 42  0  0  1  0  0  0  0  0999 V2000
  194.0730  176.3350  145.6180 C   0  0  0  0  0  0  0  0  0  0  0  0
  190.3510  175.5050  145.3180 C   0  0  1  0  0  3  0  0  0  0  0  0
  189.0300  174.0270  142.7110 O   0  0  0  0  0  0  0  0  0  0  0  0
  192.2370  175.5830  147.0600 N   0  0  2  0  0  0  0  0  0  0  0  0
  190.5770  175.5390  143.8060 C   0  0  2  0  0  3  0  0  0  0  0  0
  191.6590  174.9130  145.8810 C   0  0  2  0  0  3  0  0  0  0  0  0
  189.3050  175.3810  142.9500 C   0  0  2  0  0  3  0  0  0  0  0  0
  191.1750  176.0130  147.9710 C   0  0  0  0  0  2  0  0  0  0  0  0
  192.6400  174.7550  144.7110 C   0  0  2  0  0  3  0  0  0  0  0  0
  194.9110  175.3150  146.0500 F   0  0  0  0  0  0  0  0  0  0  0  0
  188.6230  177.2480  145.5720 N   0  0  0  0  0  2  0  0  0  0  0  0
  190.2500  177.0680  147.3500 C   0  0  0  0  0  2  0  0  0  0  0  0
  193.3570  175.9530  144.4660 O   0  0  0  0  0  0  0  0  0  0  0  0
  190.3760  174.1560  140.6440 C   0  0  0  0  0  2  0  0  0  0  0  0
  189.0300  173.8440  141.3130 C   0  0  0  0  0  2  0  0  0  0  0  0
  190.0190  176.9120  145.8430 C   0  0  1  0  0  3  0  0  0  0  0  0
  191.6750  174.5040  143.5520 C   0  0  2  0  0  3  0  0  0  0  0  0
  193.0900  176.7220  146.7130 C   0  0  0  0  0  2  0  0  0  0  0  0
  188.0640  176.1310  143.4850 C   0  0  1  0  0  3  0  0  0  0  0  0
  194.8450  177.4390  145.3160 F   0  0  0  0  0  0  0  0  0  0  0  0
  191.5380  173.5540  141.4150 C   0  0  0  0  0  2  0  0  0  0  0  0
  192.2290  174.5860  142.1850 N   0  0  0  0  0  0  0  0  0  0  0  0
  188.4290  177.4590  144.1430 C   0  0  0  0  0  2  0  0  0  0  0  0
  187.5270  177.1880  141.2470 C   0  0  0  0  0  2  0  0  0  0  0  0
  186.9910  176.3660  142.4180 C   0  0  2  0  0  3  0  0  0  0  0  0
  185.7040  176.9190  142.9840 C   0  0  0  0  0  3  0  0  0  0  0  0
  183.7310  178.1880  142.8720 O   0  0  0  0  0  1  0  0  0  0  0  0
  185.3080  178.2900  140.9450 C   0  0  0  0  0  2  0  0  0  0  0  0
  184.9150  177.7520  142.2960 C   0  0  0  0  0  0  0  0  0  0  0  0
  186.3940  177.4550  140.2670 C   0  0  0  0  0  2  0  0  0  0  0  0
  193.6410  174.1950  142.1540 C   0  0  0  0  0  2  0  0  0  0  0  0
  194.4770  175.1300  141.2670 C   0  0  1  0  0  3  0  0  0  0  0  0
  196.1880  176.7170  141.6250 O   0  0  0  0  0  0  0  0  0  0  0  0
  195.6640  175.6780  141.9930 C   0  0  0  0  0  3  0  0  0  0  0  0
  194.9260  174.4480  139.9830 C   0  0  0  0  0  2  0  0  0  0  0  0
  194.2710  175.0900  138.7730 C   0  0  0  0  0  2  0  0  0  0  0  0
  193.1560  174.3480  138.3820 O   0  0  0  0  0  1  0  0  0  0  0  0
  1 10  1  0  0  0  0
  1 18  1  0  0  0  0
  2 16  1  0  0  0  0
  2  6  1  0  0  0  0
  3  7  1  0  0  0  0
  4  8  1  0  0  0  0
  5  2  1  0  0  0  0
  6  4  1  0  0  0  0
  7 19  1  0  0  0  0
  7  5  1  0  0  0  0
  9  6  1  0  0  0  0
 11 16  1  0  0  0  0
 12  8  1  0  0  0  0
 13  9  1  0  0  0  0
 13  1  1  0  0  0  0
 14 15  1  0  0  0  0
 14 21  1  0  0  0  0
 15  3  1  0  0  0  0
 16 12  1  0  0  0  0
 17  5  1  0  0  0  0
 17  9  1  0  0  0  0
 18  4  1  0  0  0  0
 19 23  1  0  0  0  0
 20  1  1  0  0  0  0
 21 22  1  0  0  0  0
 22 17  1  0  0  0  0
 23 11  1  0  0  0  0
 24 25  1  0  0  0  0
 25 26  1  0  0  0  0
 25 19  1  0  0  0  0
 28 29  1  0  0  0  0
 29 27  1  0  0  0  0
 29 26  2  0  0  0  0
 30 28  1  0  0  0  0
 30 24  1  0  0  0  0
 31 22  1  0  0  0  0
 32 34  1  0  0  0  0
 32 31  1  0  0  0  0
 33 34  2  0  0  0  0
 35 32  1  0  0  0  0
 36 35  1  0  0  0  0
 37 36  1  0  0  0  0
M  END
>  <MODEL>
2

>  <REMARK>
 VINA RESULT:      -7.4      0.949      1.472
  Name = 
  6 active torsions:
  status: ('A' for Active; 'I' for Inactive)
    1  A    between atoms: C_1  and  C_4
    2  A    between atoms: C_1  and  N_27
    3  A    between atoms: C_4  and  C_12
    4  A    between atoms: C_4  and  C_37
    5  A    between atoms: C_8  and  C_12
    6  A    between atoms: C_23  and  C_30
                            x       y       z     vdW  Elec       q    Type
                         _______ _______ _______ _____ _____    ______ ____

>  <TORSDO>
F 6

$$$$
=
 OpenBabel11112417293D

 37 42  0  0  1  0  0  0  0  0999 V2000
  187.4140  176.9610  141.3010 C   0  0  0  0  0  0  0  0  0  0  0  0
  189.4430  174.2560  143.0890 C   0  0  1  0  0  3  0  0  0  0  0  0
  190.2350  174.3900  146.2630 O   0  0  0  0  0  0  0  0  0  0  0  0
  187.6420  174.5190  141.2750 N   0  0  2  0  0  0  0  0  0  0  0  0
  189.8330  175.3560  144.0770 C   0  0  2  0  0  3  0  0  0  0  0  0
  187.9870  174.5920  142.7080 C   0  0  2  0  0  3  0  0  0  0  0  0
  190.8680  174.9430  145.1410 C   0  0  2  0  0  3  0  0  0  0  0  0
  188.3220  173.3860  140.6480 C   0  0  0  0  0  2  0  0  0  0  0  0
  187.6300  175.9320  143.3670 C   0  0  2  0  0  3  0  0  0  0  0  0
  186.0320  176.8910  141.4200 F   0  0  0  0  0  0  0  0  0  0  0  0
  191.6610  173.5600  142.2630 N   0  0  0  0  0  2  0  0  0  0  0  0
  189.8500  173.5250  140.6640 C   0  0  0  0  0  2  0  0  0  0  0  0
  188.0310  177.0310  142.5660 O   0  0  0  0  0  0  0  0  0  0  0  0
  190.1340  176.6420  147.2720 C   0  0  0  0  0  2  0  0  0  0  0  0
  190.5930  175.1800  147.3740 C   0  0  0  0  0  2  0  0  0  0  0  0
  190.4170  174.2340  141.8980 C   0  0  1  0  0  3  0  0  0  0  0  0
  188.5030  175.8830  144.6200 C   0  0  2  0  0  3  0  0  0  0  0  0
  187.9490  175.7530  140.5470 C   0  0  0  0  0  2  0  0  0  0  0  0
  192.0080  174.0370  144.6220 C   0  0  1  0  0  3  0  0  0  0  0  0
  187.7350  178.0970  140.5850 F   0  0  0  0  0  0  0  0  0  0  0  0
  188.6970  176.7450  146.7900 C   0  0  0  0  0  2  0  0  0  0  0  0
  188.6570  177.1380  145.3830 N   0  0  0  0  0  0  0  0  0  0  0  0
  192.4200  174.3840  143.1950 C   0  0  0  0  0  2  0  0  0  0  0  0
  194.0830  175.3010  145.3360 C   0  0  0  0  0  2  0  0  0  0  0  0
  193.2440  174.0390  145.5270 C   0  0  2  0  0  3  0  0  0  0  0  0
  194.0570  172.7700  145.4220 C   0  0  0  0  0  3  0  0  0  0  0  0
  196.0570  171.5420  145.4950 O   0  0  0  0  0  1  0  0  0  0  0  0
  196.1850  174.0190  145.7420 C   0  0  0  0  0  2  0  0  0  0  0  0
  195.3860  172.7540  145.5700 C   0  0  0  0  0  0  0  0  0  0  0  0
  195.3330  175.2020  146.1990 C   0  0  0  0  0  2  0  0  0  0  0  0
  187.4690  177.9890  145.2640 C   0  0  0  0  0  2  0  0  0  0  0  0
  186.4900  177.7760  146.4270 C   0  0  1  0  0  3  0  0  0  0  0  0
  186.7280  179.0670  148.3890 O   0  0  0  0  0  0  0  0  0  0  0  0
  186.3120  179.0160  147.2430 C   0  0  0  0  0  3  0  0  0  0  0  0
  185.1360  177.2720  145.9480 C   0  0  0  0  0  2  0  0  0  0  0  0
  184.1550  178.4210  145.7970 C   0  0  0  0  0  2  0  0  0  0  0  0
  184.0510  178.7870  144.4550 O   0  0  0  0  0  1  0  0  0  0  0  0
  1 10  1  0  0  0  0
  1 13  1  0  0  0  0
  2  5  1  0  0  0  0
  3 15  1  0  0  0  0
  4  6  1  0  0  0  0
  5 17  1  0  0  0  0
  5  7  1  0  0  0  0
  6  2  1  0  0  0  0
  6  9  1  0  0  0  0
  7  3  1  0  0  0  0
  8 12  1  0  0  0  0
  8  4  1  0  0  0  0
  9 17  1  0  0  0  0
 11 23  1  0  0  0  0
 12 16  1  0  0  0  0
 13  9  1  0  0  0  0
 14 15  1  0  0  0  0
 16 11  1  0  0  0  0
 16  2  1  0  0  0  0
 17 22  1  0  0  0  0
 18  4  1  0  0  0  0
 18  1  1  0  0  0  0
 19  7  1  0  0  0  0
 19 25  1  0  0  0  0
 20  1  1  0  0  0  0
 21 14  1  0  0  0  0
 22 21  1  0  0  0  0
 23 19  1  0  0  0  0
 24 25  1  0  0  0  0
 24 30  1  0  0  0  0
 26 25  1  0  0  0  0
 26 29  2  0  0  0  0
 27 29  1  0  0  0  0
 28 30  1  0  0  0  0
 29 28  1  0  0  0  0
 31 22  1  0  0  0  0
 31 32  1  0  0  0  0
 32 34  1  0  0  0  0
 34 33  2  0  0  0  0
 35 32  1  0  0  0  0
 36 35  1  0  0  0  0
 37 36  1  0  0  0  0
M  END
>  <MODEL>
3

>  <REMARK>
 VINA RESULT:      -7.4      3.221      8.402
  Name = 
  6 active torsions:
  status: ('A' for Active; 'I' for Inactive)
    1  A    between atoms: C_1  and  C_4
    2  A    between atoms: C_1  and  N_27
    3  A    between atoms: C_4  and  C_12
    4  A    between atoms: C_4  and  C_37
    5  A    between atoms: C_8  and  C_12
    6  A    between atoms: C_23  and  C_30
                            x       y       z     vdW  Elec       q    Type
                         _______ _______ _______ _____ _____    ______ ____

>  <TORSDO>
F 6

$$$$
=
 OpenBabel11112417293D

 37 42  0  0  1  0  0  0  0  0999 V2000
  193.1030  172.1160  142.9520 C   0  0  0  0  0  0  0  0  0  0  0  0
  190.3330  174.1760  141.3040 C   0  0  1  0  0  3  0  0  0  0  0  0
  189.6060  177.2490  142.1670 O   0  0  0  0  0  0  0  0  0  0  0  0
  192.1360  172.4400  140.7220 N   0  0  2  0  0  0  0  0  0  0  0  0
  190.2950  174.9680  142.6110 C   0  0  2  0  0  3  0  0  0  0  0  0
  191.8230  173.8260  141.1200 C   0  0  2  0  0  3  0  0  0  0  0  0
  189.1790  176.0260  142.7030 C   0  0  2  0  0  3  0  0  0  0  0  0
  191.1430  171.9520  139.7640 C   0  0  0  0  0  2  0  0  0  0  0  0
  192.5720  174.2970  142.3750 C   0  0  2  0  0  3  0  0  0  0  0  0
  194.3960  172.3170  142.4870 F   0  0  0  0  0  0  0  0  0  0  0  0
  188.0120  173.3470  141.1930 N   0  0  0  0  0  2  0  0  0  0  0  0
  189.7320  171.8670  140.3590 C   0  0  0  0  0  2  0  0  0  0  0  0
  192.5310  173.3230  143.4030 O   0  0  0  0  0  0  0  0  0  0  0  0
  190.3900  177.9180  144.4120 C   0  0  0  0  0  2  0  0  0  0  0  0
  189.5030  178.2110  143.1930 C   0  0  0  0  0  2  0  0  0  0  0  0
  189.4050  172.9520  141.3910 C   0  0  1  0  0  3  0  0  0  0  0  0
  191.7200  175.4960  142.7890 C   0  0  2  0  0  3  0  0  0  0  0  0
  192.2260  171.5220  141.8600 C   0  0  0  0  0  2  0  0  0  0  0  0
  187.8180  175.5880  142.1150 C   0  0  1  0  0  3  0  0  0  0  0  0
  193.1500  171.2250  144.0050 F   0  0  0  0  0  0  0  0  0  0  0  0
  191.7910  177.5020  143.9990 C   0  0  0  0  0  2  0  0  0  0  0  0
  191.9560  176.0570  144.1350 N   0  0  0  0  0  0  0  0  0  0  0  0
  187.5390  174.1060  142.3430 C   0  0  0  0  0  2  0  0  0  0  0  0
  186.3910  177.6510  141.7680 C   0  0  0  0  0  2  0  0  0  0  0  0
  186.6380  176.4160  142.6330 C   0  0  2  0  0  3  0  0  0  0  0  0
  186.7420  176.7410  144.1050 C   0  0  0  0  0  3  0  0  0  0  0  0
  186.3660  178.0820  145.9950 O   0  0  0  0  0  1  0  0  0  0  0  0
  185.6790  178.9650  143.7670 C   0  0  0  0  0  2  0  0  0  0  0  0
  186.2620  177.8740  144.6270 C   0  0  0  0  0  0  0  0  0  0  0  0
  185.2650  178.4710  142.3820 C   0  0  0  0  0  2  0  0  0  0  0  0
  193.3480  175.8750  144.5560 C   0  0  0  0  0  2  0  0  0  0  0  0
  193.4560  175.4990  146.0410 C   0  0  1  0  0  3  0  0  0  0  0  0
  194.5660  177.5410  146.4560 O   0  0  0  0  0  0  0  0  0  0  0  0
  193.8280  176.6720  146.8900 C   0  0  0  0  0  3  0  0  0  0  0  0
  192.1750  174.8670  146.5640 C   0  0  0  0  0  2  0  0  0  0  0  0
  191.5510  175.7260  147.6500 C   0  0  0  0  0  2  0  0  0  0  0  0
  190.2080  175.9630  147.3590 O   0  0  0  0  0  1  0  0  0  0  0  0
  1 13  1  0  0  0  0
  1 20  1  0  0  0  0
  2 16  1  0  0  0  0
  2  5  1  0  0  0  0
  3  7  1  0  0  0  0
  3 15  1  0  0  0  0
  4  6  1  0  0  0  0
  4 18  1  0  0  0  0
  5  7  1  0  0  0  0
  5 17  1  0  0  0  0
  6  2  1  0  0  0  0
  6  9  1  0  0  0  0
  8 12  1  0  0  0  0
  8  4  1  0  0  0  0
  9 17  1  0  0  0  0
  9 13  1  0  0  0  0
 10  1  1  0  0  0  0
 11 16  1  0  0  0  0
 11 23  1  0  0  0  0
 12 16  1  0  0  0  0
 15 14  1  0  0  0  0
 17 22  1  0  0  0  0
 18  1  1  0  0  0  0
 19 23  1  0  0  0  0
 19 25  1  0  0  0  0
 19  7  1  0  0  0  0
 21 22  1  0  0  0  0
 21 14  1  0  0  0  0
 22 31  1  0  0  0  0
 24 30  1  0  0  0  0
 24 25  1  0  0  0  0
 25 26  1  0  0  0  0
 26 29  2  0  0  0  0
 28 29  1  0  0  0  0
 29 27  1  0  0  0  0
 30 28  1  0  0  0  0
 31 32  1  0  0  0  0
 32 35  1  0  0  0  0
 32 34  1  0  0  0  0
 33 34  2  0  0  0  0
 35 36  1  0  0  0  0
 37 36  1  0  0  0  0
M  END
>  <MODEL>
4

>  <REMARK>
 VINA RESULT:      -7.0      2.543      4.901
  Name = 
  6 active torsions:
  status: ('A' for Active; 'I' for Inactive)
    1  A    between atoms: C_1  and  C_4
    2  A    between atoms: C_1  and  N_27
    3  A    between atoms: C_4  and  C_12
    4  A    between atoms: C_4  and  C_37
    5  A    between atoms: C_8  and  C_12
    6  A    between atoms: C_23  and  C_30
                            x       y       z     vdW  Elec       q    Type
                         _______ _______ _______ _____ _____    ______ ____

>  <TORSDO>
F 6

$$$$
=
 OpenBabel11112417293D

 37 42  0  0  1  0  0  0  0  0999 V2000
  191.2270  176.1530  147.4990 C   0  0  0  0  0  0  0  0  0  0  0  0
  191.6770  175.7590  143.7210 C   0  0  1  0  0  3  0  0  0  0  0  0
  189.2110  175.9470  141.5750 O   0  0  0  0  0  0  0  0  0  0  0  0
  192.8650  176.7480  145.7730 N   0  0  2  0  0  0  0  0  0  0  0  0
  190.2070  175.3390  143.6990 C   0  0  2  0  0  3  0  0  0  0  0  0
  191.7440  176.8390  144.8190 C   0  0  2  0  0  3  0  0  0  0  0  0
  189.6820  174.8640  142.3310 C   0  0  2  0  0  3  0  0  0  0  0  0
  194.0850  176.3270  145.0830 C   0  0  0  0  0  2  0  0  0  0  0  0
  190.3630  176.9120  145.4870 C   0  0  2  0  0  3  0  0  0  0  0  0
  191.1880  177.4490  147.9950 F   0  0  0  0  0  0  0  0  0  0  0  0
  192.7500  173.7570  142.7580 N   0  0  0  0  0  2  0  0  0  0  0  0
  193.9760  174.9170  144.4880 C   0  0  0  0  0  2  0  0  0  0  0  0
  190.2330  175.9510  146.5210 O   0  0  0  0  0  0  0  0  0  0  0  0
  186.9620  175.5920  142.5340 C   0  0  0  0  0  2  0  0  0  0  0  0
  187.8540  175.6940  141.2880 C   0  0  0  0  0  2  0  0  0  0  0  0
  192.5800  174.5410  143.9800 C   0  0  1  0  0  3  0  0  0  0  0  0
  189.4550  176.5170  144.3220 C   0  0  2  0  0  3  0  0  0  0  0  0
  192.5910  175.8490  146.8970 C   0  0  0  0  0  2  0  0  0  0  0  0
  190.6680  173.9880  141.5250 C   0  0  1  0  0  3  0  0  0  0  0  0
  191.0080  175.2770  148.5430 F   0  0  0  0  0  0  0  0  0  0  0  0
  187.2580  176.7020  143.5270 C   0  0  0  0  0  2  0  0  0  0  0  0
  188.0510  176.1910  144.6430 N   0  0  0  0  0  0  0  0  0  0  0  0
  191.5040  173.0810  142.4220 C   0  0  0  0  0  2  0  0  0  0  0  0
  190.4820  171.7040  140.4470 C   0  0  0  0  0  2  0  0  0  0  0  0
  189.9850  173.1490  140.4400 C   0  0  2  0  0  3  0  0  0  0  0  0
  190.0460  173.7860  139.0720 C   0  0  0  0  0  3  0  0  0  0  0  0
  190.1330  173.7260  136.7260 O   0  0  0  0  0  1  0  0  0  0  0  0
  190.2530  171.5660  137.9650 C   0  0  0  0  0  2  0  0  0  0  0  0
  190.1160  173.0660  137.9470 C   0  0  0  0  0  0  0  0  0  0  0  0
  189.8300  170.9490  139.2980 C   0  0  0  0  0  2  0  0  0  0  0  0
  187.5800  176.9390  145.8130 C   0  0  0  0  0  2  0  0  0  0  0  0
  186.1530  177.4720  145.6180 C   0  0  1  0  0  3  0  0  0  0  0  0
  184.1730  177.3740  146.9010 O   0  0  0  0  0  0  0  0  0  0  0  0
  185.1720  176.7880  146.5150 C   0  0  0  0  0  3  0  0  0  0  0  0
  186.0750  178.9780  145.8190 C   0  0  0  0  0  2  0  0  0  0  0  0
  185.5770  179.6660  144.5610 C   0  0  0  0  0  2  0  0  0  0  0  0
  184.2480  179.3170  144.3190 O   0  0  0  0  0  1  0  0  0  0  0  0
  1 10  1  0  0  0  0
  1 20  1  0  0  0  0
  2 16  1  0  0  0  0
  2  6  1  0  0  0  0
  3  7  1  0  0  0  0
  4 18  1  0  0  0  0
  5  2  1  0  0  0  0
  5 17  1  0  0  0  0
  6  9  1  0  0  0  0
  6  4  1  0  0  0  0
  7  5  1  0  0  0  0
  8  4  1  0  0  0  0
  9 13  1  0  0  0  0
 11 16  1  0  0  0  0
 12  8  1  0  0  0  0
 13  1  1  0  0  0  0
 14 21  1  0  0  0  0
 15  3  1  0  0  0  0
 15 14  1  0  0  0  0
 16 12  1  0  0  0  0
 17 22  1  0  0  0  0
 17  9  1  0  0  0  0
 18  1  1  0  0  0  0
 19  7  1  0  0  0  0
 19 23  1  0  0  0  0
 21 22  1  0  0  0  0
 22 31  1  0  0  0  0
 23 11  1  0  0  0  0
 25 24  1  0  0  0  0
 25 19  1  0  0  0  0
 26 25  1  0  0  0  0
 27 29  1  0  0  0  0
 28 30  1  0  0  0  0
 29 28  1  0  0  0  0
 29 26  2  0  0  0  0
 30 24  1  0  0  0  0
 32 31  1  0  0  0  0
 32 35  1  0  0  0  0
 32 34  1  0  0  0  0
 34 33  2  0  0  0  0
 36 35  1  0  0  0  0
 37 36  1  0  0  0  0
M  END
>  <MODEL>
5

>  <REMARK>
 VINA RESULT:      -6.9      2.614      6.600
  Name = 
  6 active torsions:
  status: ('A' for Active; 'I' for Inactive)
    1  A    between atoms: C_1  and  C_4
    2  A    between atoms: C_1  and  N_27
    3  A    between atoms: C_4  and  C_12
    4  A    between atoms: C_4  and  C_37
    5  A    between atoms: C_8  and  C_12
    6  A    between atoms: C_23  and  C_30
                            x       y       z     vdW  Elec       q    Type
                         _______ _______ _______ _____ _____    ______ ____

>  <TORSDO>
F 6

$$$$
=
 OpenBabel11112417293D

 37 42  0  0  1  0  0  0  0  0999 V2000
  191.1000  170.9800  141.4050 C   0  0  0  0  0  0  0  0  0  0  0  0
  190.1700  174.6830  141.6390 C   0  0  1  0  0  3  0  0  0  0  0  0
  191.1320  176.6400  144.0820 O   0  0  0  0  0  0  0  0  0  0  0  0
  190.7890  172.8930  139.9020 N   0  0  2  0  0  0  0  0  0  0  0  0
  190.3900  174.5310  143.1440 C   0  0  2  0  0  3  0  0  0  0  0  0
  191.2340  173.7630  141.0080 C   0  0  2  0  0  3  0  0  0  0  0  0
  190.0350  175.7710  143.9860 C   0  0  2  0  0  3  0  0  0  0  0  0
  189.8370  173.6060  139.0500 C   0  0  0  0  0  2  0  0  0  0  0  0
  191.9350  173.0100  142.1480 C   0  0  2  0  0  3  0  0  0  0  0  0
  192.3420  170.6780  140.8620 F   0  0  0  0  0  0  0  0  0  0  0  0
  187.8160  175.4210  141.5830 N   0  0  0  0  0  2  0  0  0  0  0  0
  188.5430  173.9780  139.7850 C   0  0  0  0  0  2  0  0  0  0  0  0
  191.2250  171.8400  142.5150 O   0  0  0  0  0  0  0  0  0  0  0  0
  191.8320  175.4720  146.1420 C   0  0  0  0  0  2  0  0  0  0  0  0
  191.4300  176.7830  145.4520 C   0  0  0  0  0  2  0  0  0  0  0  0
  188.7220  174.3180  141.2680 C   0  0  1  0  0  3  0  0  0  0  0  0
  191.8310  174.0330  143.2790 C   0  0  2  0  0  3  0  0  0  0  0  0
  190.2040  171.6330  140.3630 C   0  0  0  0  0  2  0  0  0  0  0  0
  188.7540  176.5140  143.5420 C   0  0  1  0  0  3  0  0  0  0  0  0
  190.5040  169.8050  141.8170 F   0  0  0  0  0  0  0  0  0  0  0  0
  192.8180  174.6770  145.3050 C   0  0  0  0  0  2  0  0  0  0  0  0
  192.1440  173.5610  144.6440 N   0  0  0  0  0  0  0  0  0  0  0  0
  187.6810  175.5600  143.0270 C   0  0  0  0  0  2  0  0  0  0  0  0
  187.7790  176.6070  145.8770 C   0  0  0  0  0  2  0  0  0  0  0  0
  188.1620  177.4090  144.6350 C   0  0  2  0  0  3  0  0  0  0  0  0
  187.0420  178.2910  144.1360 C   0  0  0  0  0  3  0  0  0  0  0  0
  185.0390  179.4920  144.3860 O   0  0  0  0  0  1  0  0  0  0  0  0
  185.8320  178.1090  146.3030 C   0  0  0  0  0  2  0  0  0  0  0  0
  186.0110  178.6500  144.9080 C   0  0  0  0  0  0  0  0  0  0  0  0
  187.1230  177.5370  146.8870 C   0  0  0  0  0  2  0  0  0  0  0  0
  193.1360  172.4820  144.6250 C   0  0  0  0  0  2  0  0  0  0  0  0
  194.5710  173.0170  144.7250 C   0  0  1  0  0  3  0  0  0  0  0  0
  196.4670  172.7050  146.0960 O   0  0  0  0  0  0  0  0  0  0  0  0
  195.3680  172.2930  145.7630 C   0  0  0  0  0  3  0  0  0  0  0  0
  195.2950  172.9620  143.3860 C   0  0  0  0  0  2  0  0  0  0  0  0
  195.5430  174.3610  142.8490 C   0  0  0  0  0  2  0  0  0  0  0  0
  196.0120  175.1880  143.8700 O   0  0  0  0  0  1  0  0  0  0  0  0
  1 20  1  0  0  0  0
  1 13  1  0  0  0  0
  2  5  1  0  0  0  0
  3 15  1  0  0  0  0
  4 18  1  0  0  0  0
  4  6  1  0  0  0  0
  5 17  1  0  0  0  0
  5  7  1  0  0  0  0
  6  2  1  0  0  0  0
  6  9  1  0  0  0  0
  7  3  1  0  0  0  0
  8 12  1  0  0  0  0
  8  4  1  0  0  0  0
  9 13  1  0  0  0  0
  9 17  1  0  0  0  0
 10  1  1  0  0  0  0
 11 23  1  0  0  0  0
 12 16  1  0  0  0  0
 15 14  1  0  0  0  0
 16 11  1  0  0  0  0
 16  2  1  0  0  0  0
 17 22  1  0  0  0  0
 18  1  1  0  0  0  0
 19  7  1  0  0  0  0
 19 25  1  0  0  0  0
 21 14  1  0  0  0  0
 22 21  1  0  0  0  0
 23 19  1  0  0  0  0
 24 30  1  0  0  0  0
 25 24  1  0  0  0  0
 26 25  1  0  0  0  0
 26 29  2  0  0  0  0
 27 29  1  0  0  0  0
 28 30  1  0  0  0  0
 29 28  1  0  0  0  0
 31 22  1  0  0  0  0
 31 32  1  0  0  0  0
 32 34  1  0  0  0  0
 34 33  2  0  0  0  0
 35 32  1  0  0  0  0
 36 35  1  0  0  0  0
 36 37  1  0  0  0  0
M  END
>  <MODEL>
6

>  <REMARK>
 VINA RESULT:      -6.8      2.787      5.105
  Name = 
  6 active torsions:
  status: ('A' for Active; 'I' for Inactive)
    1  A    between atoms: C_1  and  C_4
    2  A    between atoms: C_1  and  N_27
    3  A    between atoms: C_4  and  C_12
    4  A    between atoms: C_4  and  C_37
    5  A    between atoms: C_8  and  C_12
    6  A    between atoms: C_23  and  C_30
                            x       y       z     vdW  Elec       q    Type
                         _______ _______ _______ _____ _____    ______ ____

>  <TORSDO>
F 6

$$$$
=
 OpenBabel11112417293D

 37 42  0  0  1  0  0  0  0  0999 V2000
  194.8420  174.8860  142.5490 C   0  0  0  0  0  0  0  0  0  0  0  0
  191.5280  175.0670  144.4510 C   0  0  1  0  0  3  0  0  0  0  0  0
  188.6460  174.2130  143.1510 O   0  0  0  0  0  0  0  0  0  0  0  0
  194.0070  174.5060  144.8230 N   0  0  2  0  0  0  0  0  0  0  0  0
  190.8690  175.1750  143.0750 C   0  0  2  0  0  3  0  0  0  0  0  0
  192.7180  174.1130  144.2250 C   0  0  2  0  0  3  0  0  0  0  0  0
  189.3490  175.4250  143.0940 C   0  0  2  0  0  3  0  0  0  0  0  0
  193.7920  175.1110  146.1380 C   0  0  0  0  0  2  0  0  0  0  0  0
  192.7950  173.8120  142.7210 C   0  0  2  0  0  3  0  0  0  0  0  0
  195.4770  173.6510  142.5100 F   0  0  0  0  0  0  0  0  0  0  0  0
  190.7640  177.1660  145.5000 N   0  0  0  0  0  2  0  0  0  0  0  0
  192.9920  176.4190  146.0670 C   0  0  0  0  0  2  0  0  0  0  0  0
  193.5340  174.8030  142.0280 O   0  0  0  0  0  0  0  0  0  0  0  0
  188.5830  174.1740  140.6830 C   0  0  0  0  0  2  0  0  0  0  0  0
  187.8160  174.1600  142.0130 C   0  0  0  0  0  2  0  0  0  0  0  0
  191.9270  176.4610  144.9660 C   0  0  1  0  0  3  0  0  0  0  0  0
  191.3220  173.9200  142.3260 C   0  0  2  0  0  3  0  0  0  0  0  0
  194.7820  175.4140  143.9740 C   0  0  0  0  0  2  0  0  0  0  0  0
  188.8670  176.4180  144.1760 C   0  0  1  0  0  3  0  0  0  0  0  0
  195.5690  175.7770  141.7850 F   0  0  0  0  0  0  0  0  0  0  0  0
  189.7720  173.2290  140.7110 C   0  0  0  0  0  2  0  0  0  0  0  0
  191.0150  173.9770  140.8820 N   0  0  0  0  0  0  0  0  0  0  0  0
  189.8680  177.5440  144.4160 C   0  0  0  0  0  2  0  0  0  0  0  0
  187.5220  177.9540  142.6780 C   0  0  0  0  0  2  0  0  0  0  0  0
  187.4870  177.0130  143.8810 C   0  0  2  0  0  3  0  0  0  0  0  0
  186.8380  177.6350  145.0950 C   0  0  0  0  0  3  0  0  0  0  0  0
  185.4400  179.1850  146.1710 O   0  0  0  0  0  1  0  0  0  0  0  0
  185.7840  179.4160  143.7130 C   0  0  0  0  0  2  0  0  0  0  0  0
  186.0250  178.6940  145.0130 C   0  0  0  0  0  0  0  0  0  0  0  0
  186.1440  178.5730  142.4900 C   0  0  0  0  0  2  0  0  0  0  0  0
  192.0080  173.2420  140.0920 C   0  0  0  0  0  2  0  0  0  0  0  0
  192.3500  173.9640  138.7820 C   0  0  1  0  0  3  0  0  0  0  0  0
  194.3020  175.2900  138.7200 O   0  0  0  0  0  0  0  0  0  0  0  0
  193.8220  174.1720  138.6250 C   0  0  0  0  0  3  0  0  0  0  0  0
  191.7980  173.2330  137.5660 C   0  0  0  0  0  2  0  0  0  0  0  0
  190.4740  173.8350  137.1290 C   0  0  0  0  0  2  0  0  0  0  0  0
  189.4720  172.8650  137.1710 O   0  0  0  0  0  1  0  0  0  0  0  0
  1 18  1  0  0  0  0
  2 16  1  0  0  0  0
  4  8  1  0  0  0  0
  5  7  1  0  0  0  0
  5  2  1  0  0  0  0
  6  2  1  0  0  0  0
  6  4  1  0  0  0  0
  7  3  1  0  0  0  0
  7 19  1  0  0  0  0
  9  6  1  0  0  0  0
 10  1  1  0  0  0  0
 12  8  1  0  0  0  0
 13  1  1  0  0  0  0
 13  9  1  0  0  0  0
 14 21  1  0  0  0  0
 14 15  1  0  0  0  0
 15  3  1  0  0  0  0
 16 11  1  0  0  0  0
 16 12  1  0  0  0  0
 17  9  1  0  0  0  0
 17  5  1  0  0  0  0
 18  4  1  0  0  0  0
 19 23  1  0  0  0  0
 20  1  1  0  0  0  0
 21 22  1  0  0  0  0
 22 17  1  0  0  0  0
 23 11  1  0  0  0  0
 24 25  1  0  0  0  0
 25 19  1  0  0  0  0
 25 26  1  0  0  0  0
 28 29  1  0  0  0  0
 29 26  2  0  0  0  0
 29 27  1  0  0  0  0
 30 24  1  0  0  0  0
 30 28  1  0  0  0  0
 31 22  1  0  0  0  0
 32 31  1  0  0  0  0
 34 33  2  0  0  0  0
 34 32  1  0  0  0  0
 35 32  1  0  0  0  0
 36 37  1  0  0  0  0
 36 35  1  0  0  0  0
M  END
>  <MODEL>
7

>  <REMARK>
 VINA RESULT:      -6.8      2.381      3.483
  Name = 
  6 active torsions:
  status: ('A' for Active; 'I' for Inactive)
    1  A    between atoms: C_1  and  C_4
    2  A    between atoms: C_1  and  N_27
    3  A    between atoms: C_4  and  C_12
    4  A    between atoms: C_4  and  C_37
    5  A    between atoms: C_8  and  C_12
    6  A    between atoms: C_23  and  C_30
                            x       y       z     vdW  Elec       q    Type
                         _______ _______ _______ _____ _____    ______ ____

>  <TORSDO>
F 6

$$$$
=
 OpenBabel11112417293D

 37 42  0  0  1  0  0  0  0  0999 V2000
  190.2610  177.7290  144.5750 C   0  0  0  0  0  0  0  0  0  0  0  0
  189.1100  174.4300  143.0160 C   0  0  1  0  0  3  0  0  0  0  0  0
  190.8080  171.6390  143.2290 O   0  0  0  0  0  0  0  0  0  0  0  0
  188.1670  176.5080  144.1990 N   0  0  2  0  0  0  0  0  0  0  0  0
  190.5890  174.0430  143.0110 C   0  0  2  0  0  3  0  0  0  0  0  0
  188.9420  175.2570  144.3070 C   0  0  2  0  0  3  0  0  0  0  0  0
  190.9120  172.7040  142.3220 C   0  0  2  0  0  3  0  0  0  0  0  0
  187.0330  176.3240  143.2930 C   0  0  0  0  0  2  0  0  0  0  0  0
  190.3340  175.4390  144.9290 C   0  0  2  0  0  3  0  0  0  0  0  0
  189.9790  177.9190  145.9210 F   0  0  0  0  0  0  0  0  0  0  0  0
  188.5750  174.2650  140.6140 N   0  0  0  0  0  2  0  0  0  0  0  0
  187.4650  176.0190  141.8520 C   0  0  0  0  0  2  0  0  0  0  0  0
  191.0120  176.5530  144.3730 O   0  0  0  0  0  0  0  0  0  0  0  0
  193.2030  171.9110  143.7690 C   0  0  0  0  0  2  0  0  0  0  0  0
  192.0660  171.0050  143.2720 C   0  0  0  0  0  2  0  0  0  0  0  0
  188.7500  175.1920  141.7290 C   0  0  1  0  0  3  0  0  0  0  0  0
  191.0270  174.1550  144.4730 C   0  0  2  0  0  3  0  0  0  0  0  0
  188.9760  177.6490  143.7640 C   0  0  0  0  0  2  0  0  0  0  0  0
  190.1170  172.4310  141.0250 C   0  0  1  0  0  3  0  0  0  0  0  0
  190.9940  178.8080  144.1240 F   0  0  0  0  0  0  0  0  0  0  0  0
  192.7910  172.7040  144.9970 C   0  0  0  0  0  2  0  0  0  0  0  0
  192.4940  174.0880  144.6350 N   0  0  0  0  0  0  0  0  0  0  0  0
  189.8620  173.7040  140.2240 C   0  0  0  0  0  2  0  0  0  0  0  0
  192.2210  171.7340  139.8000 C   0  0  0  0  0  2  0  0  0  0  0  0
  190.7710  171.3800  140.1220 C   0  0  2  0  0  3  0  0  0  0  0  0
  189.9540  171.0670  138.8910 C   0  0  0  0  0  3  0  0  0  0  0  0
  189.6940  170.4180  136.6490 O   0  0  0  0  0  1  0  0  0  0  0  0
  192.0060  170.7380  137.5220 C   0  0  0  0  0  2  0  0  0  0  0  0
  190.5140  170.7260  137.7250 C   0  0  0  0  0  0  0  0  0  0  0  0
  192.7840  170.6980  138.8370 C   0  0  0  0  0  2  0  0  0  0  0  0
  192.9450  174.8820  145.7810 C   0  0  0  0  0  2  0  0  0  0  0  0
  194.2030  175.6990  145.4560 C   0  0  1  0  0  3  0  0  0  0  0  0
  194.9410  177.9170  145.7860 O   0  0  0  0  0  0  0  0  0  0  0  0
  194.2180  177.0130  146.1710 C   0  0  0  0  0  3  0  0  0  0  0  0
  195.4790  174.9290  145.7640 C   0  0  0  0  0  2  0  0  0  0  0  0
  196.3900  174.8850  144.5490 C   0  0  0  0  0  2  0  0  0  0  0  0
  195.6270  174.8550  143.3820 O   0  0  0  0  0  1  0  0  0  0  0  0
  1 10  1  0  0  0  0
  2  6  1  0  0  0  0
  3 15  1  0  0  0  0
  4  6  1  0  0  0  0
  5  2  1  0  0  0  0
  5 17  1  0  0  0  0
  6  9  1  0  0  0  0
  7  5  1  0  0  0  0
  7  3  1  0  0  0  0
  8  4  1  0  0  0  0
 11 16  1  0  0  0  0
 12  8  1  0  0  0  0
 13  1  1  0  0  0  0
 13  9  1  0  0  0  0
 14 21  1  0  0  0  0
 15 14  1  0  0  0  0
 16 12  1  0  0  0  0
 16  2  1  0  0  0  0
 17 22  1  0  0  0  0
 17  9  1  0  0  0  0
 18  4  1  0  0  0  0
 18  1  1  0  0  0  0
 19  7  1  0  0  0  0
 20  1  1  0  0  0  0
 22 21  1  0  0  0  0
 22 31  1  0  0  0  0
 23 11  1  0  0  0  0
 23 19  1  0  0  0  0
 24 25  1  0  0  0  0
 25 19  1  0  0  0  0
 26 25  1  0  0  0  0
 27 29  1  0  0  0  0
 28 29  1  0  0  0  0
 28 30  1  0  0  0  0
 29 26  2  0  0  0  0
 30 24  1  0  0  0  0
 32 35  1  0  0  0  0
 32 31  1  0  0  0  0
 32 34  1  0  0  0  0
 33 34  2  0  0  0  0
 36 35  1  0  0  0  0
 37 36  1  0  0  0  0
M  END
>  <MODEL>
8

>  <REMARK>
 VINA RESULT:      -6.7      2.711      5.461
  Name = 
  6 active torsions:
  status: ('A' for Active; 'I' for Inactive)
    1  A    between atoms: C_1  and  C_4
    2  A    between atoms: C_1  and  N_27
    3  A    between atoms: C_4  and  C_12
    4  A    between atoms: C_4  and  C_37
    5  A    between atoms: C_8  and  C_12
    6  A    between atoms: C_23  and  C_30
                            x       y       z     vdW  Elec       q    Type
                         _______ _______ _______ _____ _____    ______ ____

>  <TORSDO>
F 6

$$$$
=
 OpenBabel11112417293D

 37 42  0  0  1  0  0  0  0  0999 V2000
  191.2010  170.7210  140.6270 C   0  0  0  0  0  0  0  0  0  0  0  0
  190.3780  174.4100  141.2170 C   0  0  1  0  0  3  0  0  0  0  0  0
  191.6020  176.1640  143.6970 O   0  0  0  0  0  0  0  0  0  0  0  0
  190.7960  172.7460  139.3040 N   0  0  2  0  0  0  0  0  0  0  0  0
  190.7320  174.1430  142.6800 C   0  0  2  0  0  3  0  0  0  0  0  0
  191.3600  173.5230  140.4240 C   0  0  2  0  0  3  0  0  0  0  0  0
  190.4820  175.3210  143.6400 C   0  0  2  0  0  3  0  0  0  0  0  0
  189.7860  173.5350  138.5980 C   0  0  0  0  0  2  0  0  0  0  0  0
  192.1450  172.6770  141.4360 C   0  0  2  0  0  3  0  0  0  0  0  0
  192.3800  170.4410  139.9510 F   0  0  0  0  0  0  0  0  0  0  0  0
  188.0460  175.1860  141.4330 N   0  0  0  0  0  2  0  0  0  0  0  0
  188.5730  173.8700  139.4750 C   0  0  0  0  0  2  0  0  0  0  0  0
  191.4460  171.4940  141.7800 O   0  0  0  0  0  0  0  0  0  0  0  0
  192.4610  174.8340  145.5920 C   0  0  0  0  0  2  0  0  0  0  0  0
  192.0270  176.1990  145.0400 C   0  0  0  0  0  2  0  0  0  0  0  0
  188.8950  174.0960  140.9560 C   0  0  1  0  0  3  0  0  0  0  0  0
  192.1670  173.6130  142.6440 C   0  0  2  0  0  3  0  0  0  0  0  0
  190.2270  171.4640  139.7240 C   0  0  0  0  0  2  0  0  0  0  0  0
  189.1830  176.1140  143.3720 C   0  0  1  0  0  3  0  0  0  0  0  0
  190.6190  169.5280  141.0060 F   0  0  0  0  0  0  0  0  0  0  0  0
  193.3490  174.0890  144.6110 C   0  0  0  0  0  2  0  0  0  0  0  0
  192.5930  173.0360  143.9360 N   0  0  0  0  0  0  0  0  0  0  0  0
  188.0460  175.2180  142.8900 C   0  0  0  0  0  2  0  0  0  0  0  0
  188.3340  176.0400  145.7570 C   0  0  0  0  0  2  0  0  0  0  0  0
  188.7130  176.9340  144.5770 C   0  0  2  0  0  3  0  0  0  0  0  0
  187.6370  177.9360  144.2300 C   0  0  0  0  0  3  0  0  0  0  0  0
  185.7430  179.2400  144.7080 O   0  0  0  0  0  1  0  0  0  0  0  0
  186.5260  177.6220  146.4340 C   0  0  0  0  0  2  0  0  0  0  0  0
  186.6750  178.2860  145.0900 C   0  0  0  0  0  0  0  0  0  0  0  0
  187.7990  176.9070  146.8870 C   0  0  0  0  0  2  0  0  0  0  0  0
  193.5550  171.9460  143.7460 C   0  0  0  0  0  2  0  0  0  0  0  0
  193.4270  170.8700  144.8330 C   0  0  1  0  0  3  0  0  0  0  0  0
  193.3560  169.2590  143.1090 O   0  0  0  0  0  0  0  0  0  0  0  0
  193.0680  169.5360  144.2620 C   0  0  0  0  0  3  0  0  0  0  0  0
  194.6930  170.7510  145.6700 C   0  0  0  0  0  2  0  0  0  0  0  0
  194.7400  169.4160  146.3920 C   0  0  0  0  0  2  0  0  0  0  0  0
  195.9450  169.2910  147.0840 O   0  0  0  0  0  1  0  0  0  0  0  0
  1 20  1  0  0  0  0
  1 13  1  0  0  0  0
  2  5  1  0  0  0  0
  3 15  1  0  0  0  0
  4 18  1  0  0  0  0
  4  6  1  0  0  0  0
  5  7  1  0  0  0  0
  6  2  1  0  0  0  0
  6  9  1  0  0  0  0
  7  3  1  0  0  0  0
  8  4  1  0  0  0  0
  8 12  1  0  0  0  0
  9 13  1  0  0  0  0
  9 17  1  0  0  0  0
 10  1  1  0  0  0  0
 11 23  1  0  0  0  0
 12 16  1  0  0  0  0
 15 14  1  0  0  0  0
 16  2  1  0  0  0  0
 16 11  1  0  0  0  0
 17  5  1  0  0  0  0
 17 22  1  0  0  0  0
 18  1  1  0  0  0  0
 19  7  1  0  0  0  0
 19 25  1  0  0  0  0
 21 14  1  0  0  0  0
 22 21  1  0  0  0  0
 23 19  1  0  0  0  0
 24 30  1  0  0  0  0
 25 24  1  0  0  0  0
 26 25  1  0  0  0  0
 26 29  2  0  0  0  0
 27 29  1  0  0  0  0
 28 30  1  0  0  0  0
 29 28  1  0  0  0  0
 31 22  1  0  0  0  0
 31 32  1  0  0  0  0
 32 35  1  0  0  0  0
 33 34  2  0  0  0  0
 34 32  1  0  0  0  0
 35 36  1  0  0  0  0
 36 37  1  0  0  0  0
M  END
>  <MODEL>
9

>  <REMARK>
 VINA RESULT:      -6.4      3.525      5.732
  Name = 
  6 active torsions:
  status: ('A' for Active; 'I' for Inactive)
    1  A    between atoms: C_1  and  C_4
    2  A    between atoms: C_1  and  N_27
    3  A    between atoms: C_4  and  C_12
    4  A    between atoms: C_4  and  C_37
    5  A    between atoms: C_8  and  C_12
    6  A    between atoms: C_23  and  C_30
                            x       y       z     vdW  Elec       q    Type
                         _______ _______ _______ _____ _____    ______ ____

>  <TORSDO>
F 6

$$$$
