=
 OpenBabel11112417583D

 34 41  0  0  1  0  0  0  0  0999 V2000
  187.4150  177.7600  145.6960 C   0  0  0  0  0  0  0  0  0  0  0  0
  184.9170  178.4050  145.7060 C   0  0  0  0  0  3  0  0  0  0  0  0
  192.2850  174.3100  144.3680 C   0  0  2  0  0  3  0  0  0  0  0  0
  189.7690  177.1280  145.4740 C   0  0  0  0  0  0  0  0  0  0  0  0
  190.6550  176.6710  143.3250 C   0  0  0  0  0  0  0  0  0  0  0  0
  191.7790  174.8590  141.9870 C   0  0  0  0  0  2  0  0  0  0  0  0
  192.6490  174.0100  142.9280 C   0  0  0  0  0  2  0  0  0  0  0  0
  193.0770  175.5720  144.6590 C   0  0  1  0  0  3  0  0  0  0  0  0
  186.0640  177.8890  143.7100 C   0  0  0  0  0  0  0  0  0  0  0  0
  184.7300  177.9270  140.9010 C   0  0  0  0  0  3  0  0  0  0  0  0
  189.4340  176.9190  142.7880 N   0  0  0  0  0  0  0  0  0  0  0  0
  192.1410  176.5360  145.3720 C   0  0  0  0  0  2  0  0  0  0  0  0
  187.1360  177.5240  142.9260 N   0  0  0  0  0  0  0  0  0  0  0  0
  184.0440  178.5010  144.5490 N   0  0  0  0  0  0  0  0  0  0  0  0
  190.8380  176.7610  144.6930 N   0  0  0  0  0  0  0  0  0  0  0  0
  193.4110  174.2840  145.3810 C   0  0  0  0  0  2  0  0  0  0  0  0
  184.1490  178.2040  142.0590 C   0  0  0  0  0  0  0  0  0  0  0  0
  188.5080  177.3890  144.8840 C   0  0  0  0  0  0  0  0  0  0  0  0
  191.7000  176.2520  142.4360 N   0  0  0  0  0  2  0  0  0  0  0  0
  188.3550  177.2800  143.5360 C   0  0  0  0  0  0  0  0  0  0  0  0
  188.8080  177.6180  147.6670 C   0  0  0  0  0  3  0  0  0  0  0  0
  186.1090  177.5350  140.6430 C   0  0  0  0  0  3  0  0  0  0  0  0
  189.8950  177.2480  146.8730 C   0  0  0  0  0  3  0  0  0  0  0  0
  187.1140  177.3660  141.4930 C   0  0  0  0  0  3  0  0  0  0  0  0
  184.8020  178.1780  143.3800 C   0  0  0  0  0  0  0  0  0  0  0  0
  187.5690  177.8740  147.0800 C   0  0  0  0  0  3  0  0  0  0  0  0
  186.1990  178.0060  145.0780 C   0  0  0  0  0  0  0  0  0  0  0  0
  182.7090  178.5920  141.9940 C   0  0  0  0  0  2  0  0  0  0  0  0
  182.1190  178.1990  140.6490 C   0  0  0  0  0  2  0  0  0  0  0  0
  178.7580  177.8440  141.0180 C   0  0  0  0  0  2  0  0  0  0  0  0
  180.4120  179.3770  141.7400 C   0  0  0  0  0  2  0  0  0  0  0  0
  180.8590  178.8910  140.4410 N   0  0  0  0  0  0  0  0  0  0  0  0
  178.9400  179.0750  141.8580 C   0  0  0  0  0  2  0  0  0  0  0  0
  179.8880  177.8900  140.0100 C   0  0  0  0  0  2  0  0  0  0  0  0
  1 26  1  0  0  0  0
  3  7  1  6  0  0  0
  3  8  1  0  0  0  0
  3 16  1  0  0  0  0
  4 23  2  0  0  0  0
  5 15  1  0  0  0  0
  6 19  1  0  0  0  0
  6  7  1  0  0  0  0
  8 12  1  1  0  0  0
  8 16  1  0  0  0  0
  9 27  1  0  0  0  0
 10 17  2  0  0  0  0
 11  5  2  0  0  0  0
 11 20  1  0  0  0  0
 13 20  1  0  0  0  0
 13  9  1  0  0  0  0
 14  2  2  0  0  0  0
 15 12  1  0  0  0  0
 15  4  1  0  0  0  0
 17 25  1  0  0  0  0
 18  4  1  0  0  0  0
 18  1  1  0  0  0  0
 19  5  1  0  0  0  0
 20 18  2  0  0  0  0
 22 10  1  0  0  0  0
 22 24  2  0  0  0  0
 23 21  1  0  0  0  0
 24 13  1  0  0  0  0
 25  9  2  0  0  0  0
 25 14  1  0  0  0  0
 26 21  2  0  0  0  0
 27  1  2  0  0  0  0
 27  2  1  0  0  0  0
 28 17  1  0  0  0  0
 29 28  1  0  0  0  0
 30 33  1  0  0  0  0
 31 33  1  0  0  0  0
 32 29  1  0  0  0  0
 32 31  1  0  0  0  0
 34 32  1  0  0  0  0
 34 30  1  0  0  0  0
M  END
>  <MODEL>
1

>  <REMARK>
 VINA RESULT:      -8.9      0.000      0.000
  Name = 
  3 active torsions:
  status: ('A' for Active; 'I' for Inactive)
    1  A    between atoms: C_17  and  C_28
    2  A    between atoms: C_28  and  C_29
    3  A    between atoms: C_29  and  N_32
                            x       y       z     vdW  Elec       q    Type
                         _______ _______ _______ _____ _____    ______ ____

>  <TORSDO>
F 3

$$$$
=
 OpenBabel11112417583D

 34 41  0  0  1  0  0  0  0  0999 V2000
  191.0340  176.7030  145.8640 C   0  0  0  0  0  0  0  0  0  0  0  0
  193.5180  176.6180  146.5600 C   0  0  0  0  0  3  0  0  0  0  0  0
  186.2640  178.2820  142.3810 C   0  0  2  0  0  3  0  0  0  0  0  0
  188.7410  176.7160  145.0080 C   0  0  0  0  0  0  0  0  0  0  0  0
  188.3300  176.0680  142.7670 C   0  0  0  0  0  0  0  0  0  0  0  0
  187.3590  176.9140  140.6040 C   0  0  0  0  0  2  0  0  0  0  0  0
  186.2110  177.8870  140.9190 C   0  0  0  0  0  2  0  0  0  0  0  0
  185.5640  177.1240  143.0680 C   0  0  1  0  0  3  0  0  0  0  0  0
  192.8110  176.0350  144.3860 C   0  0  0  0  0  0  0  0  0  0  0  0
  194.7510  175.1070  142.1400 C   0  0  0  0  0  3  0  0  0  0  0  0
  189.6610  175.8640  142.6000 N   0  0  0  0  0  0  0  0  0  0  0  0
  186.4070  176.7400  144.2740 C   0  0  0  0  0  2  0  0  0  0  0  0
  191.9170  175.8290  143.3600 N   0  0  0  0  0  0  0  0  0  0  0  0
  194.6380  176.2280  145.7230 N   0  0  0  0  0  0  0  0  0  0  0  0
  187.8470  176.5140  143.9840 N   0  0  0  0  0  0  0  0  0  0  0  0
  184.9390  178.5020  143.0820 C   0  0  0  0  0  2  0  0  0  0  0  0
  195.0770  175.4500  143.3770 C   0  0  0  0  0  0  0  0  0  0  0  0
  190.1250  176.4870  144.8070 C   0  0  0  0  0  0  0  0  0  0  0  0
  187.4780  175.8730  141.6290 N   0  0  0  0  0  2  0  0  0  0  0  0
  190.5710  176.0610  143.5940 C   0  0  0  0  0  0  0  0  0  0  0  0
  189.2190  177.3670  147.3150 C   0  0  0  0  0  3  0  0  0  0  0  0
  193.4360  175.0830  141.5160 C   0  0  0  0  0  3  0  0  0  0  0  0
  188.3110  177.1590  146.2750 C   0  0  0  0  0  3  0  0  0  0  0  0
  192.2500  175.3860  142.0300 C   0  0  0  0  0  3  0  0  0  0  0  0
  194.1390  175.8880  144.4260 C   0  0  0  0  0  0  0  0  0  0  0  0
  190.5790  177.1400  147.1100 C   0  0  0  0  0  3  0  0  0  0  0  0
  192.3790  176.4670  145.6230 C   0  0  0  0  0  0  0  0  0  0  0  0
  196.5260  175.3580  143.7240 C   0  0  0  0  0  2  0  0  0  0  0  0
  197.1450  174.1300  143.0750 C   0  0  0  0  0  2  0  0  0  0  0  0
  196.8400  172.7020  146.1460 C   0  0  0  0  0  2  0  0  0  0  0  0
  197.4320  171.9820  143.9690 C   0  0  0  0  0  2  0  0  0  0  0  0
  197.8820  173.3650  144.0670 N   0  0  0  0  0  0  0  0  0  0  0  0
  197.2160  171.4730  145.3710 C   0  0  0  0  0  2  0  0  0  0  0  0
  197.4620  173.8510  145.3780 C   0  0  0  0  0  2  0  0  0  0  0  0
  1 26  1  0  0  0  0
  3  7  1  6  0  0  0
  3  8  1  0  0  0  0
  3 16  1  0  0  0  0
  4 23  2  0  0  0  0
  5 15  1  0  0  0  0
  6  7  1  0  0  0  0
  6 19  1  0  0  0  0
  8 16  1  1  0  0  0
  8 12  1  0  0  0  0
  9 25  2  0  0  0  0
  9 27  1  0  0  0  0
 10 17  2  0  0  0  0
 11  5  2  0  0  0  0
 11 20  1  0  0  0  0
 13 20  1  0  0  0  0
 13  9  1  0  0  0  0
 14  2  2  0  0  0  0
 15 12  1  0  0  0  0
 15  4  1  0  0  0  0
 17 28  1  0  0  0  0
 17 25  1  0  0  0  0
 18  4  1  0  0  0  0
 18  1  1  0  0  0  0
 19  5  1  0  0  0  0
 20 18  2  0  0  0  0
 22 24  2  0  0  0  0
 22 10  1  0  0  0  0
 23 21  1  0  0  0  0
 24 13  1  0  0  0  0
 25 14  1  0  0  0  0
 26 21  2  0  0  0  0
 27  1  2  0  0  0  0
 27  2  1  0  0  0  0
 29 28  1  0  0  0  0
 29 32  1  0  0  0  0
 31 32  1  0  0  0  0
 31 33  1  0  0  0  0
 32 34  1  0  0  0  0
 33 30  1  0  0  0  0
 34 30  1  0  0  0  0
M  END
>  <MODEL>
2

>  <REMARK>
 VINA RESULT:      -8.6      2.850     10.023
  Name = 
  3 active torsions:
  status: ('A' for Active; 'I' for Inactive)
    1  A    between atoms: C_17  and  C_28
    2  A    between atoms: C_28  and  C_29
    3  A    between atoms: C_29  and  N_32
                            x       y       z     vdW  Elec       q    Type
                         _______ _______ _______ _____ _____    ______ ____

>  <TORSDO>
F 3

$$$$
=
 OpenBabel11112417583D

 34 41  0  0  1  0  0  0  0  0999 V2000
  194.1300  175.2900  145.5180 C   0  0  0  0  0  0  0  0  0  0  0  0
  192.3810  175.6240  147.3850 C   0  0  0  0  0  3  0  0  0  0  0  0
  196.1990  173.4260  140.0750 C   0  0  2  0  0  3  0  0  0  0  0  0
  195.6480  175.0630  143.6110 C   0  0  0  0  0  0  0  0  0  0  0  0
  194.9670  175.8390  141.4790 C   0  0  0  0  0  0  0  0  0  0  0  0
  194.5770  175.0630  139.1170 C   0  0  0  0  0  2  0  0  0  0  0  0
  195.5670  173.9310  138.7950 C   0  0  0  0  0  2  0  0  0  0  0  0
  197.3140  174.4270  140.3180 C   0  0  1  0  0  3  0  0  0  0  0  0
  191.9730  176.2940  145.1590 C   0  0  0  0  0  0  0  0  0  0  0  0
  189.3300  177.6400  144.2260 C   0  0  0  0  0  3  0  0  0  0  0  0
  193.7800  176.2200  142.0170 N   0  0  0  0  0  0  0  0  0  0  0  0
  197.2610  174.8110  141.7890 C   0  0  0  0  0  2  0  0  0  0  0  0
  192.2490  176.4720  143.8220 N   0  0  0  0  0  0  0  0  0  0  0  0
  191.0640  176.2200  147.2400 N   0  0  0  0  0  0  0  0  0  0  0  0
  195.9230  175.2370  142.2760 N   0  0  0  0  0  0  0  0  0  0  0  0
  197.6460  172.9850  140.0000 C   0  0  0  0  0  2  0  0  0  0  0  0
  189.6250  177.2390  145.4540 C   0  0  0  0  0  0  0  0  0  0  0  0
  194.4040  175.4790  144.1460 C   0  0  0  0  0  0  0  0  0  0  0  0
  195.1470  176.0210  140.0680 N   0  0  0  0  0  2  0  0  0  0  0  0
  193.4770  176.0570  143.3340 C   0  0  0  0  0  0  0  0  0  0  0  0
  196.3070  174.2870  145.8330 C   0  0  0  0  0  3  0  0  0  0  0  0
  190.1390  177.5530  143.0180 C   0  0  0  0  0  3  0  0  0  0  0  0
  196.5870  174.4660  144.4780 C   0  0  0  0  0  3  0  0  0  0  0  0
  191.3620  177.0630  142.8520 C   0  0  0  0  0  3  0  0  0  0  0  0
  190.8860  176.6010  145.8730 C   0  0  0  0  0  0  0  0  0  0  0  0
  195.0800  174.6980  146.3540 C   0  0  0  0  0  3  0  0  0  0  0  0
  192.9000  175.7110  146.0000 C   0  0  0  0  0  0  0  0  0  0  0  0
  188.5800  177.4810  146.4920 C   0  0  0  0  0  2  0  0  0  0  0  0
  187.5130  176.4010  146.4260 C   0  0  0  0  0  2  0  0  0  0  0  0
  185.4670  179.0460  147.0350 C   0  0  0  0  0  2  0  0  0  0  0  0
  185.2090  176.8100  146.3000 C   0  0  0  0  0  2  0  0  0  0  0  0
  186.3530  176.8030  147.2030 N   0  0  0  0  0  0  0  0  0  0  0  0
  184.4270  178.0710  146.5650 C   0  0  0  0  0  2  0  0  0  0  0  0
  186.5740  178.1870  147.6120 C   0  0  0  0  0  2  0  0  0  0  0  0
  1 27  2  0  0  0  0
  1 26  1  0  0  0  0
  3  7  1  6  0  0  0
  3  8  1  0  0  0  0
  4 18  1  0  0  0  0
  4 23  2  0  0  0  0
  5 11  2  0  0  0  0
  5 15  1  0  0  0  0
  6 19  1  0  0  0  0
  7  6  1  0  0  0  0
  8 16  1  1  0  0  0
  8 12  1  0  0  0  0
  9 25  2  0  0  0  0
  9 27  1  0  0  0  0
 10 17  2  0  0  0  0
 11 20  1  0  0  0  0
 12 15  1  0  0  0  0
 13  9  1  0  0  0  0
 14  2  2  0  0  0  0
 15  4  1  0  0  0  0
 16  3  1  0  0  0  0
 17 25  1  0  0  0  0
 17 28  1  0  0  0  0
 18  1  1  0  0  0  0
 19  5  1  0  0  0  0
 20 13  1  0  0  0  0
 20 18  2  0  0  0  0
 21 26  2  0  0  0  0
 22 10  1  0  0  0  0
 23 21  1  0  0  0  0
 24 22  2  0  0  0  0
 24 13  1  0  0  0  0
 25 14  1  0  0  0  0
 27  2  1  0  0  0  0
 29 28  1  0  0  0  0
 29 32  1  0  0  0  0
 30 34  1  0  0  0  0
 31 33  1  0  0  0  0
 31 32  1  0  0  0  0
 32 34  1  0  0  0  0
 33 30  1  0  0  0  0
M  END
>  <MODEL>
3

>  <REMARK>
 VINA RESULT:      -8.5      4.031      6.763
  Name = 
  3 active torsions:
  status: ('A' for Active; 'I' for Inactive)
    1  A    between atoms: C_17  and  C_28
    2  A    between atoms: C_28  and  C_29
    3  A    between atoms: C_29  and  N_32
                            x       y       z     vdW  Elec       q    Type
                         _______ _______ _______ _____ _____    ______ ____

>  <TORSDO>
F 3

$$$$
=
 OpenBabel11112417583D

 34 41  0  0  1  0  0  0  0  0999 V2000
  189.7740  174.8340  142.1640 C   0  0  0  0  0  0  0  0  0  0  0  0
  187.2760  175.3670  142.5300 C   0  0  0  0  0  3  0  0  0  0  0  0
  195.7520  176.0660  141.8100 C   0  0  2  0  0  3  0  0  0  0  0  0
  192.1820  174.4220  142.0060 C   0  0  0  0  0  0  0  0  0  0  0  0
  193.6030  175.1290  143.7650 C   0  0  0  0  0  0  0  0  0  0  0  0
  195.5850  176.6050  144.2420 C   0  0  0  0  0  2  0  0  0  0  0  0
  196.4950  176.6340  143.0030 C   0  0  0  0  0  2  0  0  0  0  0  0
  195.9240  174.5690  141.9890 C   0  0  1  0  0  3  0  0  0  0  0  0
  188.9230  175.9600  144.1120 C   0  0  0  0  0  0  0  0  0  0  0  0
  188.2940  177.4260  146.7810 C   0  0  0  0  0  3  0  0  0  0  0  0
  192.5200  175.6230  144.4160 N   0  0  0  0  0  0  0  0  0  0  0  0
  194.5650  173.9290  141.7510 C   0  0  0  0  0  2  0  0  0  0  0  0
  190.1910  176.0620  144.6390 N   0  0  0  0  0  0  0  0  0  0  0  0
  186.6950  176.0430  143.6770 N   0  0  0  0  0  0  0  0  0  0  0  0
  193.4480  174.5250  142.5300 N   0  0  0  0  0  0  0  0  0  0  0  0
  196.5640  175.2700  140.8100 C   0  0  0  0  0  2  0  0  0  0  0  0
  187.4230  177.0640  145.8510 C   0  0  0  0  0  0  0  0  0  0  0  0
  191.0690  174.9400  142.7140 C   0  0  0  0  0  0  0  0  0  0  0  0
  194.8900  175.3210  144.3690 N   0  0  0  0  0  2  0  0  0  0  0  0
  191.2550  175.5400  143.9210 C   0  0  0  0  0  0  0  0  0  0  0  0
  190.6710  173.7050  140.2230 C   0  0  0  0  0  3  0  0  0  0  0  0
  189.7390  177.2450  146.7980 C   0  0  0  0  0  3  0  0  0  0  0  0
  191.9570  173.8070  140.7570 C   0  0  0  0  0  3  0  0  0  0  0  0
  190.5310  176.6730  145.8990 C   0  0  0  0  0  3  0  0  0  0  0  0
  187.7460  176.3710  144.5910 C   0  0  0  0  0  0  0  0  0  0  0  0
  189.5800  174.2170  140.9250 C   0  0  0  0  0  3  0  0  0  0  0  0
  188.7140  175.3550  142.8890 C   0  0  0  0  0  0  0  0  0  0  0  0
  185.9920  177.3810  146.1330 C   0  0  0  0  0  2  0  0  0  0  0  0
  185.8250  178.8700  146.3910 C   0  0  0  0  0  2  0  0  0  0  0  0
  185.4230  179.1480  143.0270 C   0  0  0  0  0  2  0  0  0  0  0  0
  184.1250  178.3800  144.8530 C   0  0  0  0  0  2  0  0  0  0  0  0
  184.9600  179.4530  145.3800 N   0  0  0  0  0  0  0  0  0  0  0  0
  184.1000  178.5180  143.3530 C   0  0  0  0  0  2  0  0  0  0  0  0
  185.8200  179.8920  144.2850 C   0  0  0  0  0  2  0  0  0  0  0  0
  1 18  1  0  0  0  0
  1 27  2  0  0  0  0
  2 27  1  0  0  0  0
  2 14  2  0  0  0  0
  3 16  1  6  0  0  0
  3  8  1  0  0  0  0
  3  7  1  0  0  0  0
  4 15  1  0  0  0  0
  4 18  1  0  0  0  0
  5 19  1  0  0  0  0
  5 11  2  0  0  0  0
  6 19  1  0  0  0  0
  7  6  1  0  0  0  0
  8 16  1  6  0  0  0
  9 25  2  0  0  0  0
  9 13  1  0  0  0  0
 10 22  1  0  0  0  0
 12  8  1  0  0  0  0
 12 15  1  0  0  0  0
 13 24  1  0  0  0  0
 14 25  1  0  0  0  0
 15  5  1  0  0  0  0
 17 28  1  0  0  0  0
 17 10  2  0  0  0  0
 18 20  2  0  0  0  0
 20 11  1  0  0  0  0
 20 13  1  0  0  0  0
 21 23  1  0  0  0  0
 21 26  2  0  0  0  0
 23  4  2  0  0  0  0
 24 22  2  0  0  0  0
 25 17  1  0  0  0  0
 26  1  1  0  0  0  0
 27  9  1  0  0  0  0
 28 29  1  0  0  0  0
 30 33  1  0  0  0  0
 30 34  1  0  0  0  0
 31 32  1  0  0  0  0
 32 29  1  0  0  0  0
 33 31  1  0  0  0  0
 34 32  1  0  0  0  0
M  END
>  <MODEL>
4

>  <REMARK>
 VINA RESULT:      -8.5      2.612      5.403
  Name = 
  3 active torsions:
  status: ('A' for Active; 'I' for Inactive)
    1  A    between atoms: C_17  and  C_28
    2  A    between atoms: C_28  and  C_29
    3  A    between atoms: C_29  and  N_32
                            x       y       z     vdW  Elec       q    Type
                         _______ _______ _______ _____ _____    ______ ____

>  <TORSDO>
F 3

$$$$
=
 OpenBabel11112417583D

 34 41  0  0  1  0  0  0  0  0999 V2000
  192.3070  176.1280  145.1030 C   0  0  0  0  0  0  0  0  0  0  0  0
  190.2470  177.6810  145.0450 C   0  0  0  0  0  3  0  0  0  0  0  0
  195.2630  170.7850  145.4050 C   0  0  2  0  0  3  0  0  0  0  0  0
  194.1700  174.5430  144.9980 C   0  0  0  0  0  0  0  0  0  0  0  0
  194.1200  172.7890  143.4070 C   0  0  0  0  0  0  0  0  0  0  0  0
  194.1690  170.2790  143.2190 C   0  0  0  0  0  2  0  0  0  0  0  0
  195.0250  169.7110  144.3640 C   0  0  0  0  0  2  0  0  0  0  0  0
  196.4300  171.5620  144.8250 C   0  0  1  0  0  3  0  0  0  0  0  0
  190.4660  175.8440  143.5800 C   0  0  0  0  0  0  0  0  0  0  0  0
  188.3410  175.0890  141.4400 C   0  0  0  0  0  3  0  0  0  0  0  0
  192.9130  173.2370  142.9780 N   0  0  0  0  0  0  0  0  0  0  0  0
  196.1010  173.0410  144.9670 C   0  0  0  0  0  2  0  0  0  0  0  0
  191.0650  174.7370  143.0220 N   0  0  0  0  0  0  0  0  0  0  0  0
  189.1040  177.5680  144.1570 N   0  0  0  0  0  0  0  0  0  0  0  0
  194.7660  173.4360  144.4450 N   0  0  0  0  0  0  0  0  0  0  0  0
  196.6060  170.7760  146.1060 C   0  0  0  0  0  2  0  0  0  0  0  0
  188.2830  176.1020  142.2920 C   0  0  0  0  0  0  0  0  0  0  0  0
  192.9130  174.9930  144.5230 C   0  0  0  0  0  0  0  0  0  0  0  0
  194.6440  171.6000  142.7990 N   0  0  0  0  0  2  0  0  0  0  0  0
  192.2950  174.3270  143.5100 C   0  0  0  0  0  0  0  0  0  0  0  0
  194.1770  176.3760  146.6150 C   0  0  0  0  0  3  0  0  0  0  0  0
  189.3830  174.0830  141.2870 C   0  0  0  0  0  3  0  0  0  0  0  0
  194.7840  175.2530  146.0500 C   0  0  0  0  0  3  0  0  0  0  0  0
  190.5230  173.9380  141.9520 C   0  0  0  0  0  3  0  0  0  0  0  0
  189.3040  176.4390  143.3000 C   0  0  0  0  0  0  0  0  0  0  0  0
  192.9400  176.8140  146.1430 C   0  0  0  0  0  3  0  0  0  0  0  0
  191.0770  176.5330  144.6080 C   0  0  0  0  0  0  0  0  0  0  0  0
  187.0770  176.9750  142.1920 C   0  0  0  0  0  2  0  0  0  0  0  0
  185.9810  176.4670  143.1150 C   0  0  0  0  0  2  0  0  0  0  0  0
  185.7050  179.0780  145.2740 C   0  0  0  0  0  2  0  0  0  0  0  0
  185.6660  178.7810  142.9250 C   0  0  0  0  0  2  0  0  0  0  0  0
  185.1030  177.5610  143.4900 N   0  0  0  0  0  0  0  0  0  0  0  0
  185.6040  179.8470  143.9890 C   0  0  0  0  0  2  0  0  0  0  0  0
  185.1840  177.6940  144.9410 C   0  0  0  0  0  2  0  0  0  0  0  0
  1 26  1  0  0  0  0
  3  7  1  6  0  0  0
  3 16  1  0  0  0  0
  4 23  2  0  0  0  0
  5 15  1  0  0  0  0
  6  7  1  0  0  0  0
  8 12  1  1  0  0  0
  8  3  1  0  0  0  0
  8 16  1  0  0  0  0
  9 27  1  0  0  0  0
 10 17  2  0  0  0  0
 11  5  2  0  0  0  0
 11 20  1  0  0  0  0
 13 20  1  0  0  0  0
 13  9  1  0  0  0  0
 14  2  2  0  0  0  0
 15 12  1  0  0  0  0
 15  4  1  0  0  0  0
 17 25  1  0  0  0  0
 18  4  1  0  0  0  0
 18  1  1  0  0  0  0
 19  6  1  0  0  0  0
 19  5  1  0  0  0  0
 20 18  2  0  0  0  0
 22 10  1  0  0  0  0
 22 24  2  0  0  0  0
 23 21  1  0  0  0  0
 24 13  1  0  0  0  0
 25  9  2  0  0  0  0
 25 14  1  0  0  0  0
 26 21  2  0  0  0  0
 27  2  1  0  0  0  0
 27  1  2  0  0  0  0
 28 17  1  0  0  0  0
 28 29  1  0  0  0  0
 29 32  1  0  0  0  0
 31 32  1  0  0  0  0
 31 33  1  0  0  0  0
 32 34  1  0  0  0  0
 33 30  1  0  0  0  0
 34 30  1  0  0  0  0
M  END
>  <MODEL>
5

>  <REMARK>
 VINA RESULT:      -8.5      2.971      5.353
  Name = 
  3 active torsions:
  status: ('A' for Active; 'I' for Inactive)
    1  A    between atoms: C_17  and  C_28
    2  A    between atoms: C_28  and  C_29
    3  A    between atoms: C_29  and  N_32
                            x       y       z     vdW  Elec       q    Type
                         _______ _______ _______ _____ _____    ______ ____

>  <TORSDO>
F 3

$$$$
=
 OpenBabel11112417583D

 34 41  0  0  1  0  0  0  0  0999 V2000
  191.8920  176.4480  145.7990 C   0  0  0  0  0  0  0  0  0  0  0  0
  189.6300  176.6960  147.0150 C   0  0  0  0  0  3  0  0  0  0  0  0
  195.9830  173.8050  142.1040 C   0  0  2  0  0  3  0  0  0  0  0  0
  193.9260  176.1910  144.4630 C   0  0  0  0  0  0  0  0  0  0  0  0
  193.7510  175.8870  142.1200 C   0  0  0  0  0  0  0  0  0  0  0  0
  194.3480  174.2780  140.2780 C   0  0  0  0  0  2  0  0  0  0  0  0
  195.6640  173.5710  140.6410 C   0  0  0  0  0  2  0  0  0  0  0  0
  196.6400  175.1730  142.0900 C   0  0  1  0  0  3  0  0  0  0  0  0
  189.7630  176.3740  144.6820 C   0  0  0  0  0  0  0  0  0  0  0  0
  187.2740  176.2160  142.8240 C   0  0  0  0  0  3  0  0  0  0  0  0
  192.4000  175.9440  142.2310 N   0  0  0  0  0  0  0  0  0  0  0  0
  196.0280  175.9760  143.2280 C   0  0  0  0  0  2  0  0  0  0  0  0
  190.3780  176.1840  143.4650 N   0  0  0  0  0  0  0  0  0  0  0  0
  188.3120  176.6600  146.4060 N   0  0  0  0  0  0  0  0  0  0  0  0
  194.5420  175.9980  143.2490 N   0  0  0  0  0  0  0  0  0  0  0  0
  197.4440  173.9490  142.4740 C   0  0  0  0  0  2  0  0  0  0  0  0
  187.2740  176.3940  144.1360 C   0  0  0  0  0  0  0  0  0  0  0  0
  192.5130  176.2550  144.5470 C   0  0  0  0  0  0  0  0  0  0  0  0
  194.3030  175.6400  140.8190 N   0  0  0  0  0  2  0  0  0  0  0  0
  191.7620  176.1290  143.4200 C   0  0  0  0  0  0  0  0  0  0  0  0
  194.0520  176.5160  146.8810 C   0  0  0  0  0  3  0  0  0  0  0  0
  188.4090  176.0440  141.9270 C   0  0  0  0  0  3  0  0  0  0  0  0
  194.6770  176.3230  145.6480 C   0  0  0  0  0  3  0  0  0  0  0  0
  189.7080  176.0310  142.1980 C   0  0  0  0  0  3  0  0  0  0  0  0
  188.4680  176.4630  144.9970 C   0  0  0  0  0  0  0  0  0  0  0  0
  192.6610  176.5780  146.9580 C   0  0  0  0  0  3  0  0  0  0  0  0
  190.5070  176.5040  145.8360 C   0  0  0  0  0  0  0  0  0  0  0  0
  185.9340  176.5530  144.7760 C   0  0  0  0  0  2  0  0  0  0  0  0
  185.2140  177.7580  144.1940 C   0  0  0  0  0  2  0  0  0  0  0  0
  185.2170  178.0920  147.5780 C   0  0  0  0  0  2  0  0  0  0  0  0
  185.8550  179.4160  145.7210 C   0  0  0  0  0  2  0  0  0  0  0  0
  184.7290  178.6100  145.2670 N   0  0  0  0  0  0  0  0  0  0  0  0
  185.8400  179.4120  147.2280 C   0  0  0  0  0  2  0  0  0  0  0  0
  184.3660  177.7330  146.3760 C   0  0  0  0  0  2  0  0  0  0  0  0
  1 27  2  0  0  0  0
  1 26  1  0  0  0  0
  3  7  1  6  0  0  0
  3 16  1  0  0  0  0
  4 18  1  0  0  0  0
  4 23  2  0  0  0  0
  5 11  2  0  0  0  0
  5 15  1  0  0  0  0
  6  7  1  0  0  0  0
  6 19  1  0  0  0  0
  8  3  1  0  0  0  0
  8 16  1  1  0  0  0
  8 12  1  0  0  0  0
  9 25  2  0  0  0  0
  9 27  1  0  0  0  0
 10 17  2  0  0  0  0
 11 20  1  0  0  0  0
 12 15  1  0  0  0  0
 13  9  1  0  0  0  0
 14  2  2  0  0  0  0
 15  4  1  0  0  0  0
 17 28  1  0  0  0  0
 17 25  1  0  0  0  0
 18  1  1  0  0  0  0
 19  5  1  0  0  0  0
 20 13  1  0  0  0  0
 20 18  2  0  0  0  0
 21 26  2  0  0  0  0
 22 24  2  0  0  0  0
 22 10  1  0  0  0  0
 23 21  1  0  0  0  0
 24 13  1  0  0  0  0
 25 14  1  0  0  0  0
 27  2  1  0  0  0  0
 29 28  1  0  0  0  0
 29 32  1  0  0  0  0
 31 33  1  0  0  0  0
 32 31  1  0  0  0  0
 32 34  1  0  0  0  0
 33 30  1  0  0  0  0
 34 30  1  0  0  0  0
M  END
>  <MODEL>
6

>  <REMARK>
 VINA RESULT:      -8.5      3.138      4.941
  Name = 
  3 active torsions:
  status: ('A' for Active; 'I' for Inactive)
    1  A    between atoms: C_17  and  C_28
    2  A    between atoms: C_28  and  C_29
    3  A    between atoms: C_29  and  N_32
                            x       y       z     vdW  Elec       q    Type
                         _______ _______ _______ _____ _____    ______ ____

>  <TORSDO>
F 3

$$$$
=
 OpenBabel11112417583D

 34 41  0  0  1  0  0  0  0  0999 V2000
  190.8500  176.3050  145.9350 C   0  0  0  0  0  0  0  0  0  0  0  0
  193.3060  175.5350  146.1180 C   0  0  0  0  0  3  0  0  0  0  0  0
  186.0350  179.0390  143.3430 C   0  0  2  0  0  3  0  0  0  0  0  0
  188.5160  176.9440  145.5660 C   0  0  0  0  0  0  0  0  0  0  0  0
  187.4490  176.3410  143.5390 C   0  0  0  0  0  0  0  0  0  0  0  0
  186.2840  177.3320  141.5390 C   0  0  0  0  0  2  0  0  0  0  0  0
  185.5480  178.6100  141.9730 C   0  0  0  0  0  2  0  0  0  0  0  0
  185.2180  178.1670  144.2780 C   0  0  1  0  0  3  0  0  0  0  0  0
  191.9960  175.0830  144.2080 C   0  0  0  0  0  0  0  0  0  0  0  0
  193.0500  173.5300  141.7290 C   0  0  0  0  0  3  0  0  0  0  0  0
  188.6010  175.7520  143.1280 N   0  0  0  0  0  0  0  0  0  0  0  0
  186.1740  177.6110  145.3230 C   0  0  0  0  0  2  0  0  0  0  0  0
  190.8720  175.0990  143.4140 N   0  0  0  0  0  0  0  0  0  0  0  0
  194.0580  174.7980  145.1180 N   0  0  0  0  0  0  0  0  0  0  0  0
  187.3940  176.9640  144.7730 N   0  0  0  0  0  0  0  0  0  0  0  0
  185.0140  179.6660  144.2690 C   0  0  0  0  0  2  0  0  0  0  0  0
  193.7280  173.8190  142.8310 C   0  0  0  0  0  0  0  0  0  0  0  0
  189.7020  176.3140  145.1140 C   0  0  0  0  0  0  0  0  0  0  0  0
  186.3430  176.3500  142.6250 N   0  0  0  0  0  2  0  0  0  0  0  0
  189.7290  175.7210  143.8890 C   0  0  0  0  0  0  0  0  0  0  0  0
  189.6610  177.5340  147.6430 C   0  0  0  0  0  3  0  0  0  0  0  0
  191.6730  173.8590  141.3920 C   0  0  0  0  0  3  0  0  0  0  0  0
  188.5200  177.5500  146.8390 C   0  0  0  0  0  3  0  0  0  0  0  0
  190.7620  174.5170  142.1000 C   0  0  0  0  0  3  0  0  0  0  0  0
  193.2060  174.5590  143.9940 C   0  0  0  0  0  0  0  0  0  0  0  0
  190.8250  176.9120  147.1930 C   0  0  0  0  0  3  0  0  0  0  0  0
  191.9890  175.6780  145.4540 C   0  0  0  0  0  0  0  0  0  0  0  0
  195.1360  173.3260  142.8840 C   0  0  0  0  0  2  0  0  0  0  0  0
  195.7770  173.4190  141.5090 C   0  0  0  0  0  2  0  0  0  0  0  0
  196.1770  176.7920  141.6690 C   0  0  0  0  0  2  0  0  0  0  0  0
  196.9520  174.9110  142.8820 C   0  0  0  0  0  2  0  0  0  0  0  0
  196.7920  174.4590  141.5060 N   0  0  0  0  0  0  0  0  0  0  0  0
  197.0060  176.4170  142.8630 C   0  0  0  0  0  2  0  0  0  0  0  0
  196.2460  175.5860  140.7550 C   0  0  0  0  0  2  0  0  0  0  0  0
  1 26  1  0  0  0  0
  3  7  1  6  0  0  0
  3 16  1  0  0  0  0
  3  8  1  0  0  0  0
  4 23  2  0  0  0  0
  5 15  1  0  0  0  0
  6  7  1  0  0  0  0
  6 19  1  0  0  0  0
  8 16  1  1  0  0  0
  8 12  1  0  0  0  0
  9 27  1  0  0  0  0
 10 17  2  0  0  0  0
 11  5  2  0  0  0  0
 11 20  1  0  0  0  0
 13 20  1  0  0  0  0
 13  9  1  0  0  0  0
 14  2  2  0  0  0  0
 15 12  1  0  0  0  0
 15  4  1  0  0  0  0
 17 28  1  0  0  0  0
 17 25  1  0  0  0  0
 18  4  1  0  0  0  0
 18  1  1  0  0  0  0
 19  5  1  0  0  0  0
 20 18  2  0  0  0  0
 22 10  1  0  0  0  0
 22 24  2  0  0  0  0
 23 21  1  0  0  0  0
 24 13  1  0  0  0  0
 25  9  2  0  0  0  0
 25 14  1  0  0  0  0
 26 21  2  0  0  0  0
 27  1  2  0  0  0  0
 27  2  1  0  0  0  0
 29 28  1  0  0  0  0
 30 33  1  0  0  0  0
 32 29  1  0  0  0  0
 32 31  1  0  0  0  0
 33 31  1  0  0  0  0
 34 32  1  0  0  0  0
 34 30  1  0  0  0  0
M  END
>  <MODEL>
7

>  <REMARK>
 VINA RESULT:      -8.3      2.817      9.378
  Name = 
  3 active torsions:
  status: ('A' for Active; 'I' for Inactive)
    1  A    between atoms: C_17  and  C_28
    2  A    between atoms: C_28  and  C_29
    3  A    between atoms: C_29  and  N_32
                            x       y       z     vdW  Elec       q    Type
                         _______ _______ _______ _____ _____    ______ ____

>  <TORSDO>
F 3

$$$$
=
 OpenBabel11112417583D

 34 41  0  0  1  0  0  0  0  0999 V2000
  188.9800  175.5950  142.3230 C   0  0  0  0  0  0  0  0  0  0  0  0
  190.7040  173.8840  141.4520 C   0  0  0  0  0  3  0  0  0  0  0  0
  184.8230  177.8540  146.1950 C   0  0  2  0  0  3  0  0  0  0  0  0
  187.4500  177.2160  143.3350 C   0  0  0  0  0  0  0  0  0  0  0  0
  187.8100  177.9190  145.5690 C   0  0  0  0  0  0  0  0  0  0  0  0
  186.7050  177.9870  147.8290 C   0  0  0  0  0  2  0  0  0  0  0  0
  185.1870  178.1390  147.6380 C   0  0  0  0  0  2  0  0  0  0  0  0
  185.1130  179.1760  145.5080 C   0  0  1  0  0  3  0  0  0  0  0  0
  190.8080  174.7560  143.6420 C   0  0  0  0  0  0  0  0  0  0  0  0
  192.9970  173.9660  145.7040 C   0  0  0  0  0  3  0  0  0  0  0  0
  188.8910  177.1020  145.6330 N   0  0  0  0  0  0  0  0  0  0  0  0
  185.8760  178.8610  144.2300 C   0  0  0  0  0  2  0  0  0  0  0  0
  190.4180  175.5220  144.7170 N   0  0  0  0  0  0  0  0  0  0  0  0
  191.8270  173.3360  142.1910 N   0  0  0  0  0  0  0  0  0  0  0  0
  187.0580  177.9780  144.4090 N   0  0  0  0  0  0  0  0  0  0  0  0
  183.6910  178.6660  145.5990 C   0  0  0  0  0  2  0  0  0  0  0  0
  192.8780  173.5170  144.4630 C   0  0  0  0  0  0  0  0  0  0  0  0
  188.5900  176.3780  143.4290 C   0  0  0  0  0  0  0  0  0  0  0  0
  187.4510  178.6440  146.7530 N   0  0  0  0  0  2  0  0  0  0  0  0
  189.3010  176.3320  144.5880 C   0  0  0  0  0  0  0  0  0  0  0  0
  187.1290  176.4640  141.0320 C   0  0  0  0  0  3  0  0  0  0  0  0
  192.1530  174.9160  146.4160 C   0  0  0  0  0  3  0  0  0  0  0  0
  186.7330  177.2410  142.1220 C   0  0  0  0  0  3  0  0  0  0  0  0
  191.0730  175.5660  146.0000 C   0  0  0  0  0  3  0  0  0  0  0  0
  191.8290  173.9060  143.5030 C   0  0  0  0  0  0  0  0  0  0  0  0
  188.2510  175.6420  141.1310 C   0  0  0  0  0  3  0  0  0  0  0  0
  190.1000  174.7890  142.4580 C   0  0  0  0  0  0  0  0  0  0  0  0
  193.9200  172.5480  144.0130 C   0  0  0  0  0  2  0  0  0  0  0  0
  195.0360  173.2770  143.2840 C   0  0  0  0  0  2  0  0  0  0  0  0
  196.8160  173.7690  146.1380 C   0  0  0  0  0  2  0  0  0  0  0  0
  196.0840  171.9070  144.8710 C   0  0  0  0  0  2  0  0  0  0  0  0
  196.3130  172.9780  143.9090 N   0  0  0  0  0  0  0  0  0  0  0  0
  196.8160  172.2680  146.1380 C   0  0  0  0  0  2  0  0  0  0  0  0
  196.6970  174.1580  144.6780 C   0  0  0  0  0  2  0  0  0  0  0  0
  1 27  2  0  0  0  0
  1 18  1  0  0  0  0
  2 14  2  0  0  0  0
  2 27  1  0  0  0  0
  3 16  1  1  0  0  0
  3  7  1  0  0  0  0
  4 18  1  0  0  0  0
  4 15  1  0  0  0  0
  5 11  2  0  0  0  0
  5 19  1  0  0  0  0
  7  6  1  0  0  0  0
  8 12  1  6  0  0  0
  8 16  1  0  0  0  0
  8  3  1  0  0  0  0
  9 13  1  0  0  0  0
 10 22  1  0  0  0  0
 12 15  1  0  0  0  0
 13 24  1  0  0  0  0
 14 25  1  0  0  0  0
 15  5  1  0  0  0  0
 17 10  2  0  0  0  0
 18 20  2  0  0  0  0
 19  6  1  0  0  0  0
 20 13  1  0  0  0  0
 20 11  1  0  0  0  0
 21 26  2  0  0  0  0
 21 23  1  0  0  0  0
 23  4  2  0  0  0  0
 24 22  2  0  0  0  0
 25  9  2  0  0  0  0
 25 17  1  0  0  0  0
 26  1  1  0  0  0  0
 27  9  1  0  0  0  0
 28 17  1  0  0  0  0
 29 32  1  0  0  0  0
 29 28  1  0  0  0  0
 30 33  1  0  0  0  0
 31 33  1  0  0  0  0
 32 34  1  0  0  0  0
 32 31  1  0  0  0  0
 34 30  1  0  0  0  0
M  END
>  <MODEL>
8

>  <REMARK>
 VINA RESULT:      -8.2      3.104      9.979
  Name = 
  3 active torsions:
  status: ('A' for Active; 'I' for Inactive)
    1  A    between atoms: C_17  and  C_28
    2  A    between atoms: C_28  and  C_29
    3  A    between atoms: C_29  and  N_32
                            x       y       z     vdW  Elec       q    Type
                         _______ _______ _______ _____ _____    ______ ____

>  <TORSDO>
F 3

$$$$
=
 OpenBabel11112417583D

 34 41  0  0  1  0  0  0  0  0999 V2000
  187.8170  175.8730  140.8840 C   0  0  0  0  0  0  0  0  0  0  0  0
  188.8240  174.1660  139.2330 C   0  0  0  0  0  3  0  0  0  0  0  0
  184.9140  177.7020  145.9450 C   0  0  2  0  0  3  0  0  0  0  0  0
  186.9750  177.3960  142.6060 C   0  0  0  0  0  0  0  0  0  0  0  0
  187.7060  177.1420  144.8450 C   0  0  0  0  0  0  0  0  0  0  0  0
  186.8520  176.7210  147.1740 C   0  0  0  0  0  2  0  0  0  0  0  0
  185.4550  177.3500  147.3150 C   0  0  0  0  0  2  0  0  0  0  0  0
  185.5660  179.0430  145.6600 C   0  0  1  0  0  3  0  0  0  0  0  0
  189.3650  174.1490  141.5290 C   0  0  0  0  0  0  0  0  0  0  0  0
  191.3250  172.1080  142.8180 C   0  0  0  0  0  3  0  0  0  0  0  0
  188.4650  176.0860  144.4580 N   0  0  0  0  0  0  0  0  0  0  0  0
  186.0890  178.9950  144.2330 C   0  0  0  0  0  2  0  0  0  0  0  0
  189.3250  174.5670  142.8400 N   0  0  0  0  0  0  0  0  0  0  0  0
  189.7600  173.1020  139.5520 N   0  0  0  0  0  0  0  0  0  0  0  0
  186.9310  177.8120  143.9140 N   0  0  0  0  0  0  0  0  0  0  0  0
  184.0660  178.9530  145.8420 C   0  0  0  0  0  2  0  0  0  0  0  0
  190.9760  172.1740  141.5420 C   0  0  0  0  0  0  0  0  0  0  0  0
  187.7840  176.2950  142.2300 C   0  0  0  0  0  0  0  0  0  0  0  0
  187.6900  177.4770  146.2400 N   0  0  0  0  0  2  0  0  0  0  0  0
  188.5250  175.6490  143.1710 C   0  0  0  0  0  0  0  0  0  0  0  0
  186.2590  177.6200  140.2800 C   0  0  0  0  0  3  0  0  0  0  0  0
  190.8900  172.9440  143.9280 C   0  0  0  0  0  3  0  0  0  0  0  0
  186.2170  178.0440  141.6090 C   0  0  0  0  0  3  0  0  0  0  0  0
  190.0510  173.9730  143.9340 C   0  0  0  0  0  3  0  0  0  0  0  0
  190.0430  173.1520  140.9530 C   0  0  0  0  0  0  0  0  0  0  0  0
  187.0570  176.5360  139.9170 C   0  0  0  0  0  3  0  0  0  0  0  0
  188.6210  174.7920  140.5600 C   0  0  0  0  0  0  0  0  0  0  0  0
  191.6110  171.1730  140.6350 C   0  0  0  0  0  2  0  0  0  0  0  0
  190.6550  170.0210  140.3720 C   0  0  0  0  0  2  0  0  0  0  0  0
  190.0590  170.5180  137.0620 C   0  0  0  0  0  2  0  0  0  0  0  0
  191.9650  170.2510  138.4430 C   0  0  0  0  0  2  0  0  0  0  0  0
  190.9110  169.4550  139.0590 N   0  0  0  0  0  0  0  0  0  0  0  0
  191.5590  170.5160  137.0150 C   0  0  0  0  0  2  0  0  0  0  0  0
  189.7060  169.6630  138.2620 C   0  0  0  0  0  2  0  0  0  0  0  0
  1 18  1  0  0  0  0
  2 14  2  0  0  0  0
  2 27  1  0  0  0  0
  3 16  1  1  0  0  0
  3  7  1  0  0  0  0
  4 15  1  0  0  0  0
  5 19  1  0  0  0  0
  6  7  1  0  0  0  0
  8 12  1  6  0  0  0
  8 16  1  0  0  0  0
  8  3  1  0  0  0  0
  9 13  1  0  0  0  0
 10 22  1  0  0  0  0
 11  5  2  0  0  0  0
 13 20  1  0  0  0  0
 13 24  1  0  0  0  0
 14 25  1  0  0  0  0
 15 12  1  0  0  0  0
 15  5  1  0  0  0  0
 17 10  2  0  0  0  0
 18  4  1  0  0  0  0
 18 20  2  0  0  0  0
 19  6  1  0  0  0  0
 20 11  1  0  0  0  0
 21 23  1  0  0  0  0
 22 24  2  0  0  0  0
 23  4  2  0  0  0  0
 25  9  2  0  0  0  0
 25 17  1  0  0  0  0
 26 21  2  0  0  0  0
 26  1  1  0  0  0  0
 27  1  2  0  0  0  0
 27  9  1  0  0  0  0
 28 17  1  0  0  0  0
 29 28  1  0  0  0  0
 30 34  1  0  0  0  0
 31 32  1  0  0  0  0
 32 29  1  0  0  0  0
 33 30  1  0  0  0  0
 33 31  1  0  0  0  0
 34 32  1  0  0  0  0
M  END
>  <MODEL>
9

>  <REMARK>
 VINA RESULT:      -8.2      3.423      8.685
  Name = 
  3 active torsions:
  status: ('A' for Active; 'I' for Inactive)
    1  A    between atoms: C_17  and  C_28
    2  A    between atoms: C_28  and  C_29
    3  A    between atoms: C_29  and  N_32
                            x       y       z     vdW  Elec       q    Type
                         _______ _______ _______ _____ _____    ______ ____

>  <TORSDO>
F 3

$$$$
