=
 OpenBabel11112417343D

 28 32  0  0  1  0  0  0  0  0999 V2000
  186.1200  178.3250  144.3100 C   0  0  0  0  0  0  0  0  0  0  0  0
  189.1910  177.7740  147.2370 O   0  0  0  0  0  0  0  0  0  0  0  0
  188.0360  174.3890  140.2010 O   0  0  0  0  0  0  0  0  0  0  0  0
  185.1120  176.9000  146.5040 C   0  0  0  0  0  3  0  0  0  0  0  0
  189.6840  175.0220  141.7720 N   0  0  0  0  0  0  0  0  0  0  0  0
  186.6080  179.1290  143.1470 C   0  0  0  0  0  2  0  0  0  0  0  0
  188.6570  175.3630  147.3780 O   0  0  0  0  0  0  0  0  0  0  0  0
  189.4910  176.4070  146.6920 S   0  0  0  0  0  0  0  0  0  0  0  0
  191.9310  175.5060  145.8250 C   0  0  0  0  0  0  0  0  0  0  0  0
  189.2240  176.3760  144.9860 N   0  0  0  0  0  0  0  0  0  0  0  0
  185.1030  177.6620  140.1550 O   0  0  0  0  0  0  0  0  0  0  0  0
  188.4070  176.5630  142.9270 C   0  0  0  0  0  0  0  0  0  0  0  0
  191.2750  174.9820  144.5750 C   0  0  0  0  0  2  0  0  0  0  0  0
  191.1650  176.0460  146.9070 N   0  0  0  0  0  2  0  0  0  0  0  0
  186.0060  177.9600  140.9790 C   0  0  0  0  0  0  0  0  0  0  0  0
  186.8560  177.2400  144.8390 C   0  0  0  0  0  0  0  0  0  0  0  0
  188.3960  175.1220  141.1600 C   0  0  0  0  0  0  0  0  0  0  0  0
  193.5200  175.2130  146.0510 S   0  0  0  0  0  0  0  0  0  0  0  0
  187.3500  177.3250  140.8440 C   0  0  0  0  0  2  0  0  0  0  0  0
  186.3320  176.5360  145.9320 C   0  0  0  0  0  3  0  0  0  0  0  0
  184.9000  178.6880  144.8950 C   0  0  0  0  0  3  0  0  0  0  0  0
  184.3960  177.9790  145.9860 C   0  0  0  0  0  3  0  0  0  0  0  0
  185.7320  178.9150  142.0050 N   0  0  0  0  0  2  0  0  0  0  0  0
  189.6110  175.9320  142.8540 C   0  0  0  0  0  0  0  0  0  0  0  0
  187.5060  176.1570  141.8030 C   0  0  2  0  0  3  0  0  0  0  0  0
  190.1120  175.8260  144.1340 C   0  0  0  0  0  0  0  0  0  0  0  0
  190.5620  173.8670  141.6810 C   0  0  0  0  0  1  0  0  0  0  0  0
  188.1550  176.8130  144.2690 C   0  0  0  0  0  0  0  0  0  0  0  0
  1 16  2  0  0  0  0
  1 21  1  0  0  0  0
  3 17  2  0  0  0  0
  5 24  1  0  0  0  0
  6  1  1  0  0  0  0
  8 14  1  0  0  0  0
  8  2  2  0  0  0  0
  8  7  2  0  0  0  0
  9 18  2  0  0  0  0
  9 14  1  0  0  0  0
 10  8  1  0  0  0  0
 11 15  2  0  0  0  0
 12 28  2  0  0  0  0
 13  9  1  0  0  0  0
 15 23  1  0  0  0  0
 16 20  1  0  0  0  0
 17  5  1  0  0  0  0
 17 25  1  0  0  0  0
 19 15  1  0  0  0  0
 20  4  2  0  0  0  0
 21 22  2  0  0  0  0
 22  4  1  0  0  0  0
 23  6  1  0  0  0  0
 24 12  1  0  0  0  0
 24 26  2  0  0  0  0
 25 19  1  6  0  0  0
 25 12  1  0  0  0  0
 26 13  1  0  0  0  0
 26 10  1  0  0  0  0
 27  5  1  0  0  0  0
 28 16  1  0  0  0  0
 28 10  1  0  0  0  0
M  END
>  <MODEL>
1

>  <REMARK>
 VINA RESULT:      -9.3      0.000      0.000
  Name = 
  0 active torsions:
  status: ('A' for Active; 'I' for Inactive)
                            x       y       z     vdW  Elec       q    Type
                         _______ _______ _______ _____ _____    ______ ____

>  <TORSDO>
F 0

$$$$
=
 OpenBabel11112417343D

 28 32  0  0  1  0  0  0  0  0999 V2000
  185.8000  177.1710  143.9940 C   0  0  0  0  0  0  0  0  0  0  0  0
  187.6550  173.8740  141.9950 O   0  0  0  0  0  0  0  0  0  0  0  0
  190.0800  178.3310  148.0420 O   0  0  0  0  0  0  0  0  0  0  0  0
  186.7220  177.9720  141.4700 C   0  0  0  0  0  3  0  0  0  0  0  0
  190.2320  176.1840  147.0650 N   0  0  0  0  0  0  0  0  0  0  0  0
  185.2470  176.7670  145.3240 C   0  0  0  0  0  2  0  0  0  0  0  0
  189.6230  175.2740  141.4620 O   0  0  0  0  0  0  0  0  0  0  0  0
  189.0090  174.3320  142.4570 S   0  0  0  0  0  0  0  0  0  0  0  0
  190.8280  172.8450  143.8710 C   0  0  0  0  0  0  0  0  0  0  0  0
  188.8850  175.0800  144.0090 N   0  0  0  0  0  0  0  0  0  0  0  0
  185.8790  179.5490  147.6090 O   0  0  0  0  0  0  0  0  0  0  0  0
  188.3250  176.3200  145.7680 C   0  0  0  0  0  0  0  0  0  0  0  0
  191.0000  173.9960  144.8270 C   0  0  0  0  0  2  0  0  0  0  0  0
  190.0420  172.9680  142.6800 N   0  0  0  0  0  2  0  0  0  0  0  0
  186.0060  178.4040  147.1050 C   0  0  0  0  0  0  0  0  0  0  0  0
  187.1060  176.8190  143.5810 C   0  0  0  0  0  0  0  0  0  0  0  0
  189.5880  177.4380  147.3030 C   0  0  0  0  0  0  0  0  0  0  0  0
  191.7650  171.5240  144.0660 S   0  0  0  0  0  0  0  0  0  0  0  0
  187.1430  177.5410  147.5410 C   0  0  0  0  0  2  0  0  0  0  0  0
  187.5510  177.2350  142.3170 C   0  0  0  0  0  3  0  0  0  0  0  0
  184.9730  177.9050  143.1330 C   0  0  0  0  0  3  0  0  0  0  0  0
  185.4310  178.3060  141.8780 C   0  0  0  0  0  3  0  0  0  0  0  0
  185.0480  177.9490  146.1490 N   0  0  0  0  0  2  0  0  0  0  0  0
  189.4000  175.5570  146.1060 C   0  0  0  0  0  0  0  0  0  0  0  0
  188.2910  177.5960  146.5480 C   0  0  2  0  0  3  0  0  0  0  0  0
  189.7370  174.7880  145.0120 C   0  0  0  0  0  0  0  0  0  0  0  0
  191.6470  175.9220  147.2770 C   0  0  0  0  0  1  0  0  0  0  0  0
  188.0240  176.0390  144.4420 C   0  0  0  0  0  0  0  0  0  0  0  0
  1  6  1  0  0  0  0
  2  8  2  0  0  0  0
  4 22  2  0  0  0  0
  4 20  1  0  0  0  0
  5 27  1  0  0  0  0
  5 17  1  0  0  0  0
  6 23  1  0  0  0  0
  7  8  2  0  0  0  0
  8 14  1  0  0  0  0
  8 10  1  0  0  0  0
  9 18  2  0  0  0  0
  9 13  1  0  0  0  0
 10 28  1  0  0  0  0
 10 26  1  0  0  0  0
 12 24  1  0  0  0  0
 12 25  1  0  0  0  0
 13 26  1  0  0  0  0
 14  9  1  0  0  0  0
 15 19  1  0  0  0  0
 15 11  2  0  0  0  0
 16  1  1  0  0  0  0
 16 28  1  0  0  0  0
 17  3  2  0  0  0  0
 20 16  2  0  0  0  0
 21  1  2  0  0  0  0
 22 21  1  0  0  0  0
 23 15  1  0  0  0  0
 24  5  1  0  0  0  0
 25 17  1  0  0  0  0
 25 19  1  1  0  0  0
 26 24  2  0  0  0  0
 28 12  2  0  0  0  0
M  END
>  <MODEL>
2

>  <REMARK>
 VINA RESULT:      -8.3      2.363      4.818
  Name = 
  0 active torsions:
  status: ('A' for Active; 'I' for Inactive)
                            x       y       z     vdW  Elec       q    Type
                         _______ _______ _______ _____ _____    ______ ____

>  <TORSDO>
F 0

$$$$
=
 OpenBabel11112417343D

 28 32  0  0  1  0  0  0  0  0999 V2000
  189.6720  174.6560  143.4890 C   0  0  0  0  0  0  0  0  0  0  0  0
  190.0270  173.7080  139.3320 O   0  0  0  0  0  0  0  0  0  0  0  0
  184.6720  177.9730  143.2620 O   0  0  0  0  0  0  0  0  0  0  0  0
  188.9810  171.9740  143.0520 C   0  0  0  0  0  3  0  0  0  0  0  0
  185.7490  177.7050  141.1740 N   0  0  0  0  0  0  0  0  0  0  0  0
  190.0860  176.0660  143.7680 C   0  0  0  0  0  2  0  0  0  0  0  0
  187.7730  172.6890  139.3480 O   0  0  0  0  0  0  0  0  0  0  0  0
  188.5590  173.9510  139.1320 S   0  0  0  0  0  0  0  0  0  0  0  0
  187.4330  175.6830  137.3300 C   0  0  0  0  0  0  0  0  0  0  0  0
  188.0130  175.1970  140.1960 N   0  0  0  0  0  0  0  0  0  0  0  0
  187.7850  177.3490  146.3030 O   0  0  0  0  0  0  0  0  0  0  0  0
  187.5690  176.5060  141.9380 C   0  0  0  0  0  0  0  0  0  0  0  0
  186.5550  176.2280  138.4260 C   0  0  0  0  0  2  0  0  0  0  0  0
  188.2770  174.5450  137.5370 N   0  0  0  0  0  2  0  0  0  0  0  0
  188.3160  177.2200  145.1700 C   0  0  0  0  0  0  0  0  0  0  0  0
  188.7960  174.3220  142.4300 C   0  0  0  0  0  0  0  0  0  0  0  0
  185.6610  177.5670  142.5940 C   0  0  0  0  0  0  0  0  0  0  0  0
  187.2190  176.2410  135.8120 S   0  0  0  0  0  0  0  0  0  0  0  0
  187.6670  177.8580  143.9870 C   0  0  0  0  0  2  0  0  0  0  0  0
  188.4580  172.9750  142.2330 C   0  0  0  0  0  3  0  0  0  0  0  0
  190.1970  173.6440  144.3030 C   0  0  0  0  0  3  0  0  0  0  0  0
  189.8540  172.3090  144.0880 C   0  0  0  0  0  3  0  0  0  0  0  0
  189.5370  176.4910  145.0470 N   0  0  0  0  0  2  0  0  0  0  0  0
  186.9440  177.0210  140.8450 C   0  0  0  0  0  0  0  0  0  0  0  0
  186.8440  176.8530  143.2000 C   0  0  2  0  0  3  0  0  0  0  0  0
  187.2290  176.2080  139.7690 C   0  0  0  0  0  0  0  0  0  0  0  0
  184.6180  177.9320  140.2890 C   0  0  0  0  0  1  0  0  0  0  0  0
  188.2150  175.3460  141.5320 C   0  0  0  0  0  0  0  0  0  0  0  0
  1  6  1  0  0  0  0
  1 21  1  0  0  0  0
  4 22  1  0  0  0  0
  5 17  1  0  0  0  0
  6 23  1  0  0  0  0
  8  2  2  0  0  0  0
  8  7  2  0  0  0  0
  8 10  1  0  0  0  0
  9 14  1  0  0  0  0
  9 13  1  0  0  0  0
 10 28  1  0  0  0  0
 12 25  1  0  0  0  0
 13 26  1  0  0  0  0
 14  8  1  0  0  0  0
 15 11  2  0  0  0  0
 16  1  2  0  0  0  0
 17 25  1  0  0  0  0
 17  3  2  0  0  0  0
 18  9  2  0  0  0  0
 19 15  1  0  0  0  0
 20 16  1  0  0  0  0
 20  4  2  0  0  0  0
 22 21  2  0  0  0  0
 23 15  1  0  0  0  0
 24  5  1  0  0  0  0
 24 12  1  0  0  0  0
 25 19  1  1  0  0  0
 26 10  1  0  0  0  0
 26 24  2  0  0  0  0
 27  5  1  0  0  0  0
 28 12  2  0  0  0  0
 28 16  1  0  0  0  0
M  END
>  <MODEL>
3

>  <REMARK>
 VINA RESULT:      -8.0      3.290      6.537
  Name = 
  0 active torsions:
  status: ('A' for Active; 'I' for Inactive)
                            x       y       z     vdW  Elec       q    Type
                         _______ _______ _______ _____ _____    ______ ____

>  <TORSDO>
F 0

$$$$
=
 OpenBabel11112417343D

 28 32  0  0  1  0  0  0  0  0999 V2000
  188.4760  175.8610  145.8090 C   0  0  0  0  0  0  0  0  0  0  0  0
  187.2960  173.9370  142.1740 O   0  0  0  0  0  0  0  0  0  0  0  0
  194.2870  176.7180  144.5640 O   0  0  0  0  0  0  0  0  0  0  0  0
  186.9610  177.6200  144.2380 C   0  0  0  0  0  3  0  0  0  0  0  0
  193.2360  175.0980  143.2000 N   0  0  0  0  0  0  0  0  0  0  0  0
  189.2420  174.9330  146.6980 C   0  0  0  0  0  2  0  0  0  0  0  0
  188.0870  175.8790  140.8630 O   0  0  0  0  0  0  0  0  0  0  0  0
  188.4620  174.5490  141.4500 S   0  0  0  0  0  0  0  0  0  0  0  0
  190.3870  173.1980  140.0410 C   0  0  0  0  0  0  0  0  0  0  0  0
  189.8060  174.7140  142.5220 N   0  0  0  0  0  0  0  0  0  0  0  0
  191.8940  176.9180  148.2460 O   0  0  0  0  0  0  0  0  0  0  0  0
  191.1660  175.1540  144.2240 C   0  0  0  0  0  0  0  0  0  0  0  0
  191.4460  173.9930  140.7590 C   0  0  0  0  0  2  0  0  0  0  0  0
  188.9930  173.4890  140.1970 N   0  0  0  0  0  2  0  0  0  0  0  0
  191.3710  176.0600  147.4880 C   0  0  0  0  0  0  0  0  0  0  0  0
  188.7650  175.9960  144.4310 C   0  0  0  0  0  0  0  0  0  0  0  0
  193.2790  176.0100  144.3000 C   0  0  0  0  0  0  0  0  0  0  0  0
  190.8510  172.1620  138.8700 S   0  0  0  0  0  0  0  0  0  0  0  0
  192.2090  175.4170  146.4330 C   0  0  0  0  0  2  0  0  0  0  0  0
  188.0000  176.8860  143.6640 C   0  0  0  0  0  3  0  0  0  0  0  0
  187.4270  176.5980  146.3740 C   0  0  0  0  0  3  0  0  0  0  0  0
  186.6730  177.4740  145.5950 C   0  0  0  0  0  3  0  0  0  0  0  0
  190.0000  175.7050  147.6710 N   0  0  0  0  0  2  0  0  0  0  0  0
  191.9040  174.6190  143.2140 C   0  0  0  0  0  0  0  0  0  0  0  0
  191.9880  176.0680  145.0790 C   0  0  2  0  0  3  0  0  0  0  0  0
  191.0520  174.3440  142.1660 C   0  0  0  0  0  0  0  0  0  0  0  0
  194.1190  175.1460  142.0450 C   0  0  0  0  0  1  0  0  0  0  0  0
  189.8560  175.2390  143.7750 C   0  0  0  0  0  0  0  0  0  0  0  0
  1 21  1  0  0  0  0
  1  6  1  0  0  0  0
  4 22  1  0  0  0  0
  5 24  1  0  0  0  0
  5 17  1  0  0  0  0
  6 23  1  0  0  0  0
  7  8  2  0  0  0  0
  8  2  2  0  0  0  0
  8 10  1  0  0  0  0
  9 14  1  0  0  0  0
  9 13  1  0  0  0  0
 10 28  1  0  0  0  0
 12 25  1  0  0  0  0
 13 26  1  0  0  0  0
 14  8  1  0  0  0  0
 15 23  1  0  0  0  0
 15 11  2  0  0  0  0
 16  1  2  0  0  0  0
 17  3  2  0  0  0  0
 17 25  1  0  0  0  0
 18  9  2  0  0  0  0
 19 15  1  0  0  0  0
 20  4  2  0  0  0  0
 20 16  1  0  0  0  0
 22 21  2  0  0  0  0
 24 12  1  0  0  0  0
 25 19  1  1  0  0  0
 26 10  1  0  0  0  0
 26 24  2  0  0  0  0
 27  5  1  0  0  0  0
 28 12  2  0  0  0  0
 28 16  1  0  0  0  0
M  END
>  <MODEL>
4

>  <REMARK>
 VINA RESULT:      -7.8      2.809      5.657
  Name = 
  0 active torsions:
  status: ('A' for Active; 'I' for Inactive)
                            x       y       z     vdW  Elec       q    Type
                         _______ _______ _______ _____ _____    ______ ____

>  <TORSDO>
F 0

$$$$
=
 OpenBabel11112417343D

 28 32  0  0  1  0  0  0  0  0999 V2000
  190.4250  173.9420  143.4690 C   0  0  0  0  0  0  0  0  0  0  0  0
  188.7870  175.3860  147.1480 O   0  0  0  0  0  0  0  0  0  0  0  0
  187.1930  177.2600  139.6480 O   0  0  0  0  0  0  0  0  0  0  0  0
  192.2730  175.6130  144.7550 C   0  0  0  0  0  3  0  0  0  0  0  0
  186.2780  177.1280  141.8230 N   0  0  0  0  0  0  0  0  0  0  0  0
  189.4860  173.0030  142.7810 C   0  0  0  0  0  2  0  0  0  0  0  0
  189.4260  177.7000  146.5520 O   0  0  0  0  0  0  0  0  0  0  0  0
  188.3480  176.6560  146.4760 S   0  0  0  0  0  0  0  0  0  0  0  0
  185.8010  177.6690  146.4260 C   0  0  0  0  0  0  0  0  0  0  0  0
  187.9200  176.3410  144.8330 N   0  0  0  0  0  0  0  0  0  0  0  0
  189.7410  173.7050  139.2020 O   0  0  0  0  0  0  0  0  0  0  0  0
  187.8470  175.6830  142.7110 C   0  0  0  0  0  0  0  0  0  0  0  0
  185.9290  177.8720  144.9390 C   0  0  0  0  0  2  0  0  0  0  0  0
  186.9110  177.2480  147.2270 N   0  0  0  0  0  2  0  0  0  0  0  0
  189.2260  173.6740  140.3500 C   0  0  0  0  0  0  0  0  0  0  0  0
  190.0010  175.1870  143.9900 C   0  0  0  0  0  0  0  0  0  0  0  0
  187.2140  176.7630  140.8050 C   0  0  0  0  0  0  0  0  0  0  0  0
  184.4440  178.1870  147.1690 S   0  0  0  0  0  0  0  0  0  0  0  0
  187.9640  174.4310  140.6000 C   0  0  0  0  0  2  0  0  0  0  0  0
  190.9420  176.0110  144.6230 C   0  0  0  0  0  3  0  0  0  0  0  0
  191.7620  173.5490  143.6110 C   0  0  0  0  0  3  0  0  0  0  0  0
  192.6830  174.3800  144.2490 C   0  0  0  0  0  3  0  0  0  0  0  0
  189.8460  172.8970  141.3750 N   0  0  0  0  0  2  0  0  0  0  0  0
  186.7390  176.4300  142.9660 C   0  0  0  0  0  0  0  0  0  0  0  0
  188.2450  175.7650  141.2700 C   0  0  2  0  0  3  0  0  0  0  0  0
  186.7890  176.8280  144.2840 C   0  0  0  0  0  0  0  0  0  0  0  0
  185.4820  178.3440  141.8240 C   0  0  0  0  0  1  0  0  0  0  0  0
  188.6000  175.6550  143.8770 C   0  0  0  0  0  0  0  0  0  0  0  0
  1 21  2  0  0  0  0
  1 16  1  0  0  0  0
  3 17  2  0  0  0  0
  5 27  1  0  0  0  0
  5 24  1  0  0  0  0
  6  1  1  0  0  0  0
  8  7  2  0  0  0  0
  8  2  2  0  0  0  0
  8 14  1  0  0  0  0
  9 18  2  0  0  0  0
  9 14  1  0  0  0  0
 10  8  1  0  0  0  0
 11 15  2  0  0  0  0
 12 24  1  0  0  0  0
 12 28  2  0  0  0  0
 13  9  1  0  0  0  0
 15 19  1  0  0  0  0
 15 23  1  0  0  0  0
 16 20  2  0  0  0  0
 17 25  1  0  0  0  0
 17  5  1  0  0  0  0
 20  4  1  0  0  0  0
 21 22  1  0  0  0  0
 22  4  2  0  0  0  0
 23  6  1  0  0  0  0
 24 26  2  0  0  0  0
 25 19  1  6  0  0  0
 25 12  1  0  0  0  0
 26 10  1  0  0  0  0
 26 13  1  0  0  0  0
 28 16  1  0  0  0  0
 28 10  1  0  0  0  0
M  END
>  <MODEL>
5

>  <REMARK>
 VINA RESULT:      -7.8      1.797      5.262
  Name = 
  0 active torsions:
  status: ('A' for Active; 'I' for Inactive)
                            x       y       z     vdW  Elec       q    Type
                         _______ _______ _______ _____ _____    ______ ____

>  <TORSDO>
F 0

$$$$
=
 OpenBabel11112417343D

 28 32  0  0  1  0  0  0  0  0999 V2000
  187.4050  177.0310  144.8390 C   0  0  0  0  0  0  0  0  0  0  0  0
  187.0860  173.8350  142.0130 O   0  0  0  0  0  0  0  0  0  0  0  0
  193.2030  176.4250  146.2770 O   0  0  0  0  0  0  0  0  0  0  0  0
  187.2360  178.0620  142.2370 C   0  0  0  0  0  3  0  0  0  0  0  0
  192.2610  174.5190  145.2430 N   0  0  0  0  0  0  0  0  0  0  0  0
  187.4420  176.5200  146.2440 C   0  0  0  0  0  2  0  0  0  0  0  0
  188.8890  174.8330  140.6460 O   0  0  0  0  0  0  0  0  0  0  0  0
  188.5660  173.8830  141.7630 S   0  0  0  0  0  0  0  0  0  0  0  0
  190.3200  171.7890  142.0040 C   0  0  0  0  0  0  0  0  0  0  0  0
  189.3970  174.3370  143.2080 N   0  0  0  0  0  0  0  0  0  0  0  0
  189.8300  178.6130  148.0560 O   0  0  0  0  0  0  0  0  0  0  0  0
  190.1000  175.3190  145.0740 C   0  0  0  0  0  0  0  0  0  0  0  0
  191.2380  172.6730  142.8080 C   0  0  0  0  0  2  0  0  0  0  0  0
  189.1440  172.3050  141.3700 N   0  0  0  0  0  2  0  0  0  0  0  0
  189.3740  177.5830  147.4950 C   0  0  0  0  0  0  0  0  0  0  0  0
  188.2070  176.4790  143.8130 C   0  0  0  0  0  0  0  0  0  0  0  0
  192.1910  175.8190  145.8350 C   0  0  0  0  0  0  0  0  0  0  0  0
  190.8170  170.2790  141.6380 S   0  0  0  0  0  0  0  0  0  0  0  0
  190.2820  176.4210  147.2630 C   0  0  0  0  0  2  0  0  0  0  0  0
  188.1130  177.0130  142.5200 C   0  0  0  0  0  3  0  0  0  0  0  0
  186.5230  178.0790  144.5440 C   0  0  0  0  0  3  0  0  0  0  0  0
  186.4390  178.5940  143.2500 C   0  0  0  0  0  3  0  0  0  0  0  0
  187.9970  177.5410  147.1200 N   0  0  0  0  0  2  0  0  0  0  0  0
  190.9390  174.2860  144.7930 C   0  0  0  0  0  0  0  0  0  0  0  0
  190.7990  176.4020  145.8350 C   0  0  2  0  0  3  0  0  0  0  0  0
  190.4930  173.6790  143.6380 C   0  0  0  0  0  0  0  0  0  0  0  0
  193.4690  173.9120  144.7080 C   0  0  0  0  0  1  0  0  0  0  0  0
  189.1510  175.3650  144.0610 C   0  0  0  0  0  0  0  0  0  0  0  0
  1  6  1  0  0  0  0
  4 20  2  0  0  0  0
  4 22  1  0  0  0  0
  5 17  1  0  0  0  0
  6 23  1  0  0  0  0
  7  8  2  0  0  0  0
  8  2  2  0  0  0  0
  8 10  1  0  0  0  0
  9 13  1  0  0  0  0
 10 26  1  0  0  0  0
 10 28  1  0  0  0  0
 12 25  1  0  0  0  0
 13 26  1  0  0  0  0
 14  8  1  0  0  0  0
 14  9  1  0  0  0  0
 15 11  2  0  0  0  0
 16 28  1  0  0  0  0
 16  1  2  0  0  0  0
 17 25  1  0  0  0  0
 17  3  2  0  0  0  0
 18  9  2  0  0  0  0
 19 15  1  0  0  0  0
 20 16  1  0  0  0  0
 21  1  1  0  0  0  0
 22 21  2  0  0  0  0
 23 15  1  0  0  0  0
 24 12  1  0  0  0  0
 24  5  1  0  0  0  0
 25 19  1  1  0  0  0
 26 24  2  0  0  0  0
 27  5  1  0  0  0  0
 28 12  2  0  0  0  0
M  END
>  <MODEL>
6

>  <REMARK>
 VINA RESULT:      -7.5      2.681      5.232
  Name = 
  0 active torsions:
  status: ('A' for Active; 'I' for Inactive)
                            x       y       z     vdW  Elec       q    Type
                         _______ _______ _______ _____ _____    ______ ____

>  <TORSDO>
F 0

$$$$
=
 OpenBabel11112417343D

 28 32  0  0  1  0  0  0  0  0999 V2000
  191.6360  174.9710  142.1490 C   0  0  0  0  0  0  0  0  0  0  0  0
  187.8710  176.5780  140.9040 O   0  0  0  0  0  0  0  0  0  0  0  0
  191.3340  176.3170  147.9930 O   0  0  0  0  0  0  0  0  0  0  0  0
  189.8310  172.8920  141.6200 C   0  0  0  0  0  3  0  0  0  0  0  0
  189.8290  177.5410  146.6420 N   0  0  0  0  0  0  0  0  0  0  0  0
  192.6430  176.0520  142.3890 C   0  0  0  0  0  2  0  0  0  0  0  0
  186.6910  175.1310  142.5260 O   0  0  0  0  0  0  0  0  0  0  0  0
  187.3400  176.4670  142.3050 S   0  0  0  0  0  0  0  0  0  0  0  0
  186.2660  178.5010  143.7980 C   0  0  0  0  0  0  0  0  0  0  0  0
  188.6120  176.7230  143.4450 N   0  0  0  0  0  0  0  0  0  0  0  0
  194.5830  175.0450  145.3190 O   0  0  0  0  0  0  0  0  0  0  0  0
  190.5080  176.6870  144.6050 C   0  0  0  0  0  0  0  0  0  0  0  0
  187.1390  178.0900  144.9550 C   0  0  0  0  0  2  0  0  0  0  0  0
  186.1940  177.7250  142.5970 N   0  0  0  0  0  2  0  0  0  0  0  0
  193.7560  175.7070  144.6400 C   0  0  0  0  0  0  0  0  0  0  0  0
  190.3220  175.0360  142.6670 C   0  0  0  0  0  0  0  0  0  0  0  0
  190.9160  176.6350  146.8480 C   0  0  0  0  0  0  0  0  0  0  0  0
  185.1910  179.7070  144.0240 S   0  0  0  0  0  0  0  0  0  0  0  0
  192.8540  176.6730  145.3350 C   0  0  0  0  0  2  0  0  0  0  0  0
  189.4360  173.9830  142.3970 C   0  0  0  0  0  3  0  0  0  0  0  0
  192.0210  173.8760  141.3660 C   0  0  0  0  0  3  0  0  0  0  0  0
  191.1250  172.8400  141.1030 C   0  0  0  0  0  3  0  0  0  0  0  0
  193.7190  175.5400  143.2230 N   0  0  0  0  0  2  0  0  0  0  0  0
  189.6330  177.5130  145.2400 C   0  0  0  0  0  0  0  0  0  0  0  0
  191.4780  176.0730  145.5660 C   0  0  2  0  0  3  0  0  0  0  0  0
  188.4630  177.5340  144.5110 C   0  0  0  0  0  0  0  0  0  0  0  0
  188.8310  177.8830  147.6420 C   0  0  0  0  0  1  0  0  0  0  0  0
  189.8530  176.1710  143.4960 C   0  0  0  0  0  0  0  0  0  0  0  0
  1  6  1  0  0  0  0
  1 16  1  0  0  0  0
  2  8  2  0  0  0  0
  4 20  1  0  0  0  0
  5 17  1  0  0  0  0
  5 27  1  0  0  0  0
  6 23  1  0  0  0  0
  8  7  2  0  0  0  0
  8 14  1  0  0  0  0
  8 10  1  0  0  0  0
  9 18  2  0  0  0  0
  9 13  1  0  0  0  0
 10 28  1  0  0  0  0
 10 26  1  0  0  0  0
 12 24  1  0  0  0  0
 12 25  1  0  0  0  0
 14  9  1  0  0  0  0
 15 11  2  0  0  0  0
 15 19  1  0  0  0  0
 16 28  1  0  0  0  0
 17  3  2  0  0  0  0
 20 16  2  0  0  0  0
 21  1  2  0  0  0  0
 22 21  1  0  0  0  0
 22  4  2  0  0  0  0
 23 15  1  0  0  0  0
 24  5  1  0  0  0  0
 25 19  1  6  0  0  0
 25 17  1  0  0  0  0
 26 13  1  0  0  0  0
 26 24  2  0  0  0  0
 28 12  2  0  0  0  0
M  END
>  <MODEL>
7

>  <REMARK>
 VINA RESULT:      -7.5      2.646      6.767
  Name = 
  0 active torsions:
  status: ('A' for Active; 'I' for Inactive)
                            x       y       z     vdW  Elec       q    Type
                         _______ _______ _______ _____ _____    ______ ____

>  <TORSDO>
F 0

$$$$
=
 OpenBabel11112417343D

 28 32  0  0  1  0  0  0  0  0999 V2000
  191.3910  174.8990  144.8690 C   0  0  0  0  0  0  0  0  0  0  0  0
  189.5950  175.0310  140.9880 O   0  0  0  0  0  0  0  0  0  0  0  0
  186.9930  177.5060  148.0170 O   0  0  0  0  0  0  0  0  0  0  0  0
  190.5450  172.3350  144.1130 C   0  0  0  0  0  3  0  0  0  0  0  0
  186.8690  177.8880  145.6880 N   0  0  0  0  0  0  0  0  0  0  0  0
  191.9040  176.2420  145.2830 C   0  0  0  0  0  2  0  0  0  0  0  0
  187.6450  173.7590  141.8220 O   0  0  0  0  0  0  0  0  0  0  0  0
  188.2280  175.1250  141.6030 S   0  0  0  0  0  0  0  0  0  0  0  0
  186.3660  177.0810  141.1270 C   0  0  0  0  0  0  0  0  0  0  0  0
  188.3060  175.9990  143.0910 N   0  0  0  0  0  0  0  0  0  0  0  0
  191.2060  176.5730  148.8560 O   0  0  0  0  0  0  0  0  0  0  0  0
  188.8130  176.7830  145.1090 C   0  0  0  0  0  0  0  0  0  0  0  0
  186.1660  177.2300  142.6120 C   0  0  0  0  0  2  0  0  0  0  0  0
  187.1880  176.0440  140.5780 N   0  0  0  0  0  2  0  0  0  0  0  0
  191.0930  176.7890  147.6220 C   0  0  0  0  0  0  0  0  0  0  0  0
  190.0980  174.7200  144.3260 C   0  0  0  0  0  0  0  0  0  0  0  0
  187.5060  177.4020  146.8720 C   0  0  0  0  0  0  0  0  0  0  0  0
  185.4240  177.9560  140.1230 S   0  0  0  0  0  0  0  0  0  0  0  0
  189.9430  177.6040  147.1300 C   0  0  0  0  0  2  0  0  0  0  0  0
  189.6910  173.4280  143.9600 C   0  0  0  0  0  3  0  0  0  0  0  0
  192.2430  173.7970  145.0130 C   0  0  0  0  0  3  0  0  0  0  0  0
  191.8240  172.5200  144.6390 C   0  0  0  0  0  3  0  0  0  0  0  0
  192.0790  176.2730  146.7270 N   0  0  0  0  0  2  0  0  0  0  0  0
  187.7280  177.4610  144.6470 C   0  0  0  0  0  0  0  0  0  0  0  0
  188.8260  176.7200  146.6040 C   0  0  2  0  0  3  0  0  0  0  0  0
  187.4240  176.9740  143.3940 C   0  0  0  0  0  0  0  0  0  0  0  0
  185.4480  178.1730  145.5650 C   0  0  0  0  0  1  0  0  0  0  0  0
  189.1540  175.8460  144.1420 C   0  0  0  0  0  0  0  0  0  0  0  0
  1 21  1  0  0  0  0
  1  6  1  0  0  0  0
  2  8  2  0  0  0  0
  4 22  1  0  0  0  0
  5 17  1  0  0  0  0
  6 23  1  0  0  0  0
  8  7  2  0  0  0  0
  8 10  1  0  0  0  0
  9 13  1  0  0  0  0
 10 26  1  0  0  0  0
 10 28  1  0  0  0  0
 12 25  1  0  0  0  0
 13 26  1  0  0  0  0
 14  9  1  0  0  0  0
 14  8  1  0  0  0  0
 15 11  2  0  0  0  0
 16  1  2  0  0  0  0
 17  3  2  0  0  0  0
 18  9  2  0  0  0  0
 19 15  1  0  0  0  0
 20  4  2  0  0  0  0
 20 16  1  0  0  0  0
 22 21  2  0  0  0  0
 23 15  1  0  0  0  0
 24 12  1  0  0  0  0
 24  5  1  0  0  0  0
 25 17  1  0  0  0  0
 25 19  1  1  0  0  0
 26 24  2  0  0  0  0
 27  5  1  0  0  0  0
 28 16  1  0  0  0  0
 28 12  2  0  0  0  0
M  END
>  <MODEL>
8

>  <REMARK>
 VINA RESULT:      -7.4      2.619      6.725
  Name = 
  0 active torsions:
  status: ('A' for Active; 'I' for Inactive)
                            x       y       z     vdW  Elec       q    Type
                         _______ _______ _______ _____ _____    ______ ____

>  <TORSDO>
F 0

$$$$
=
 OpenBabel11112417343D

 28 32  0  0  1  0  0  0  0  0999 V2000
  190.4170  177.2430  145.4440 C   0  0  0  0  0  0  0  0  0  0  0  0
  194.6760  177.6390  145.4630 O   0  0  0  0  0  0  0  0  0  0  0  0
  189.8940  173.0370  141.1890 O   0  0  0  0  0  0  0  0  0  0  0  0
  191.4820  176.0510  147.7470 C   0  0  0  0  0  3  0  0  0  0  0  0
  191.9770  174.1560  141.1900 N   0  0  0  0  0  0  0  0  0  0  0  0
  189.8080  177.9150  144.2540 C   0  0  0  0  0  2  0  0  0  0  0  0
  194.9220  175.2290  145.9620 O   0  0  0  0  0  0  0  0  0  0  0  0
  194.8260  176.2640  144.8780 S   0  0  0  0  0  0  0  0  0  0  0  0
  196.1760  175.6170  142.5810 C   0  0  0  0  0  0  0  0  0  0  0  0
  193.5020  175.9200  143.8240 N   0  0  0  0  0  0  0  0  0  0  0  0
  187.0610  175.7780  143.1350 O   0  0  0  0  0  0  0  0  0  0  0  0
  191.5030  175.6500  142.8880 C   0  0  0  0  0  0  0  0  0  0  0  0
  194.9890  174.8060  142.1310 C   0  0  0  0  0  2  0  0  0  0  0  0
  196.2380  176.2000  143.8870 N   0  0  0  0  0  2  0  0  0  0  0  0
  188.1880  176.3370  143.1080 C   0  0  0  0  0  0  0  0  0  0  0  0
  191.5320  176.3800  145.3340 C   0  0  0  0  0  0  0  0  0  0  0  0
  190.6300  173.9610  141.6290 C   0  0  0  0  0  0  0  0  0  0  0  0
  197.5200  175.6080  141.6570 S   0  0  0  0  0  0  0  0  0  0  0  0
  189.1920  175.9000  142.0940 C   0  0  0  0  0  2  0  0  0  0  0  0
  192.0460  175.7890  146.4970 C   0  0  0  0  0  3  0  0  0  0  0  0
  189.8620  177.5050  146.7030 C   0  0  0  0  0  3  0  0  0  0  0  0
  190.3900  176.9110  147.8500 C   0  0  0  0  0  3  0  0  0  0  0  0
  188.4690  177.3910  144.0300 N   0  0  0  0  0  2  0  0  0  0  0  0
  192.4480  175.2060  142.0150 C   0  0  0  0  0  0  0  0  0  0  0  0
  190.2010  174.9380  142.6960 C   0  0  2  0  0  3  0  0  0  0  0  0
  193.6840  175.3830  142.6010 C   0  0  0  0  0  0  0  0  0  0  0  0
  192.7930  173.1480  140.5340 C   0  0  0  0  0  1  0  0  0  0  0  0
  192.1670  176.0700  144.0320 C   0  0  0  0  0  0  0  0  0  0  0  0
  1 21  1  0  0  0  0
  3 17  2  0  0  0  0
  4 22  1  0  0  0  0
  5 17  1  0  0  0  0
  5 24  1  0  0  0  0
  6  1  1  0  0  0  0
  8  2  2  0  0  0  0
  8  7  2  0  0  0  0
  9 14  1  0  0  0  0
 10 28  1  0  0  0  0
 10  8  1  0  0  0  0
 12 28  2  0  0  0  0
 13  9  1  0  0  0  0
 13 26  1  0  0  0  0
 14  8  1  0  0  0  0
 15 11  2  0  0  0  0
 15 23  1  0  0  0  0
 16  1  2  0  0  0  0
 16 20  1  0  0  0  0
 17 25  1  0  0  0  0
 18  9  2  0  0  0  0
 19 15  1  0  0  0  0
 20  4  2  0  0  0  0
 21 22  2  0  0  0  0
 23  6  1  0  0  0  0
 24 26  2  0  0  0  0
 24 12  1  0  0  0  0
 25 19  1  6  0  0  0
 25 12  1  0  0  0  0
 26 10  1  0  0  0  0
 27  5  1  0  0  0  0
 28 16  1  0  0  0  0
M  END
>  <MODEL>
9

>  <REMARK>
 VINA RESULT:      -7.4      3.272      4.567
  Name = 
  0 active torsions:
  status: ('A' for Active; 'I' for Inactive)
                            x       y       z     vdW  Elec       q    Type
                         _______ _______ _______ _____ _____    ______ ____

>  <TORSDO>
F 0

$$$$
