=
 OpenBabel11112417423D

 28 32  0  0  1  0  0  0  0  0999 V2000
  191.6750  173.9780  143.5380 C   0  0  0  0  0  0  0  0  0  0  0  0
  189.0780  178.2330  142.2300 O   0  0  0  0  0  0  0  0  0  0  0  0
  191.2560  175.3760  147.9730 C   0  0  0  0  0  1  0  0  0  0  0  0
  189.7950  172.1270  144.4780 C   0  0  0  0  0  3  0  0  0  0  0  0
  189.7820  177.0820  146.9530 C   0  0  2  0  0  3  0  0  0  0  0  0
  192.6150  174.9180  143.1150 O   0  0  0  0  0  0  0  0  0  0  0  0
  188.1930  176.2350  141.1080 O   0  0  0  0  0  0  0  0  0  0  0  0
  188.1400  177.0650  142.3590 S   0  0  0  0  0  0  0  0  0  0  0  0
  186.0220  177.3300  144.0140 C   0  0  2  0  0  3  0  0  0  0  0  0
  188.5670  176.0830  143.7350 N   0  0  2  0  0  0  0  0  0  0  0  0
  195.2270  175.6920  145.6760 C   0  0  0  0  0  1  0  0  0  0  0  0
  190.6740  176.7990  144.7360 C   0  0  1  0  0  3  0  0  0  0  0  0
  187.0910  177.7350  145.0190 C   0  0  0  0  0  2  0  0  0  0  0  0
  186.4840  177.6690  142.6040 C   0  0  0  0  0  2  0  0  0  0  0  0
  193.8370  175.3710  145.1720 C   0  0  1  0  0  3  0  0  0  0  0  0
  190.3650  174.3990  143.8250 C   0  0  0  0  0  0  0  0  0  0  0  0
  191.1930  176.5440  147.0070 C   0  0  2  0  0  3  0  0  0  0  0  0
  184.7390  178.0780  144.3110 C   0  0  0  0  0  1  0  0  0  0  0  0
  192.9190  176.5630  145.4180 C   0  0  0  0  0  2  0  0  0  0  0  0
  189.4340  173.4660  144.3070 C   0  0  0  0  0  3  0  0  0  0  0  0
  192.0360  172.6350  143.7220 C   0  0  0  0  0  3  0  0  0  0  0  0
  191.0970  171.7120  144.1850 C   0  0  0  0  0  3  0  0  0  0  0  0
  193.9150  175.0040  143.6890 C   0  0  0  0  0  2  0  0  0  0  0  0
  189.5450  177.4350  145.5080 C   0  0  1  0  0  3  0  0  0  0  0  0
  191.5590  176.0990  145.6690 N   0  0  2  0  0  0  0  0  0  0  0  0
  188.2820  176.7610  145.0160 C   0  0  2  0  0  3  0  0  0  0  0  0
  189.6830  178.2270  147.7410 O   0  0  0  0  0  1  0  0  0  0  0  0
  190.0110  175.8670  143.7020 C   0  0  1  0  0  3  0  0  0  0  0  0
  1 21  2  0  0  0  0
  1 16  1  0  0  0  0
  2  8  2  0  0  0  0
  5 17  1  0  0  0  0
  5 27  1  1  0  0  0
  6  1  1  0  0  0  0
  6 23  1  0  0  0  0
  7  8  2  0  0  0  0
  8 14  1  0  0  0  0
  9 18  1  1  0  0  0
  9 13  1  0  0  0  0
 10  8  1  6  0  0  0
 10 26  1  0  0  0  0
 12 24  1  0  0  0  0
 12 25  1  0  0  0  0
 14  9  1  0  0  0  0
 15 19  1  0  0  0  0
 15 11  1  0  0  0  0
 16 20  2  0  0  0  0
 17  3  1  0  0  0  0
 19 25  1  0  0  0  0
 20  4  1  0  0  0  0
 21 22  1  0  0  0  0
 22  4  2  0  0  0  0
 23 15  1  0  0  0  0
 24  5  1  0  0  0  0
 25 17  1  0  0  0  0
 26 13  1  0  0  0  0
 26 24  1  0  0  0  0
 28 10  1  0  0  0  0
 28 16  1  0  0  0  0
 28 12  1  0  0  0  0
M  END
>  <MODEL>
1

>  <REMARK>
 VINA RESULT:      -8.5      0.000      0.000
  Name = 
  0 active torsions:
  status: ('A' for Active; 'I' for Inactive)
                            x       y       z     vdW  Elec       q    Type
                         _______ _______ _______ _____ _____    ______ ____

>  <TORSDO>
F 0

$$$$
=
 OpenBabel11112417423D

 28 32  0  0  1  0  0  0  0  0999 V2000
  189.5720  176.4370  145.1200 C   0  0  0  0  0  0  0  0  0  0  0  0
  194.5450  176.2890  143.7790 O   0  0  0  0  0  0  0  0  0  0  0  0
  189.1340  172.2820  143.0360 C   0  0  0  0  0  1  0  0  0  0  0  0
  189.2750  174.7780  147.3560 C   0  0  0  0  0  3  0  0  0  0  0  0
  191.5980  172.4610  142.8940 C   0  0  2  0  0  3  0  0  0  0  0  0
  189.7120  177.2250  143.9770 O   0  0  0  0  0  0  0  0  0  0  0  0
  194.2470  176.9200  146.1340 O   0  0  0  0  0  0  0  0  0  0  0  0
  194.3640  175.7680  145.1770 S   0  0  0  0  0  0  0  0  0  0  0  0
  195.3400  173.3130  145.7410 C   0  0  2  0  0  3  0  0  0  0  0  0
  192.9370  174.7700  145.2810 N   0  0  2  0  0  0  0  0  0  0  0  0
  187.5370  176.1510  141.1320 C   0  0  0  0  0  1  0  0  0  0  0  0
  191.6330  174.8450  143.2200 C   0  0  1  0  0  3  0  0  0  0  0  0
  194.5220  172.9090  144.5220 C   0  0  0  0  0  2  0  0  0  0  0  0
  195.7690  174.7670  145.6170 C   0  0  0  0  0  2  0  0  0  0  0  0
  188.4390  175.9600  142.3320 C   0  0  1  0  0  3  0  0  0  0  0  0
  190.6120  175.5660  145.4830 C   0  0  0  0  0  0  0  0  0  0  0  0
  190.2890  173.0800  142.4620 C   0  0  2  0  0  3  0  0  0  0  0  0
  196.5710  172.4370  145.8380 C   0  0  0  0  0  1  0  0  0  0  0  0
  189.7350  175.2880  141.8930 C   0  0  0  0  0  2  0  0  0  0  0  0
  190.4490  174.7290  146.5990 C   0  0  0  0  0  3  0  0  0  0  0  0
  188.3910  176.4750  145.8760 C   0  0  0  0  0  3  0  0  0  0  0  0
  188.2470  175.6510  146.9940 C   0  0  0  0  0  3  0  0  0  0  0  0
  188.6920  177.3190  142.9890 C   0  0  0  0  0  2  0  0  0  0  0  0
  192.5150  173.6210  143.1770 C   0  0  1  0  0  3  0  0  0  0  0  0
  190.2460  174.4460  142.9680 N   0  0  2  0  0  0  0  0  0  0  0  0
  193.0980  173.4880  144.5670 C   0  0  2  0  0  3  0  0  0  0  0  0
  192.1200  171.6890  141.8560 O   0  0  0  0  0  1  0  0  0  0  0  0
  191.8470  175.4760  144.6110 C   0  0  1  0  0  3  0  0  0  0  0  0
  1 16  2  0  0  0  0
  1 21  1  0  0  0  0
  2  8  2  0  0  0  0
  5 27  1  6  0  0  0
  5 24  1  0  0  0  0
  6  1  1  0  0  0  0
  8 14  1  0  0  0  0
  8  7  2  0  0  0  0
  9 18  1  6  0  0  0
 10  8  1  6  0  0  0
 11 15  1  0  0  0  0
 12 28  1  0  0  0  0
 13 26  1  0  0  0  0
 13  9  1  0  0  0  0
 14  9  1  0  0  0  0
 15 23  1  0  0  0  0
 16 20  1  0  0  0  0
 17  5  1  0  0  0  0
 17 25  1  0  0  0  0
 17  3  1  0  0  0  0
 19 15  1  0  0  0  0
 19 25  1  0  0  0  0
 20  4  2  0  0  0  0
 21 22  2  0  0  0  0
 22  4  1  0  0  0  0
 23  6  1  0  0  0  0
 24 12  1  0  0  0  0
 24 26  1  0  0  0  0
 25 12  1  0  0  0  0
 26 10  1  0  0  0  0
 28 10  1  0  0  0  0
 28 16  1  0  0  0  0
M  END
>  <MODEL>
2

>  <REMARK>
 VINA RESULT:      -7.8      2.471      6.571
  Name = 
  0 active torsions:
  status: ('A' for Active; 'I' for Inactive)
                            x       y       z     vdW  Elec       q    Type
                         _______ _______ _______ _____ _____    ______ ____

>  <TORSDO>
F 0

$$$$
=
 OpenBabel11112417423D

 28 32  0  0  1  0  0  0  0  0999 V2000
  190.7280  176.9470  144.8200 C   0  0  0  0  0  0  0  0  0  0  0  0
  195.1130  175.3850  142.6100 O   0  0  0  0  0  0  0  0  0  0  0  0
  189.4340  172.4610  144.8650 C   0  0  0  0  0  1  0  0  0  0  0  0
  190.9430  176.3850  147.5550 C   0  0  0  0  0  3  0  0  0  0  0  0
  191.7680  172.1190  144.1200 C   0  0  2  0  0  3  0  0  0  0  0  0
  190.6030  177.1820  143.4500 O   0  0  0  0  0  0  0  0  0  0  0  0
  195.5230  176.9340  144.4710 O   0  0  0  0  0  0  0  0  0  0  0  0
  195.2880  175.4980  144.0980 S   0  0  0  0  0  0  0  0  0  0  0  0
  196.2030  173.3300  145.4260 C   0  0  2  0  0  3  0  0  0  0  0  0
  193.8780  174.8980  144.9300 N   0  0  2  0  0  0  0  0  0  0  0  0
  187.6550  175.4880  141.8950 C   0  0  0  0  0  1  0  0  0  0  0  0
  192.0640  174.3900  143.3800 C   0  0  1  0  0  3  0  0  0  0  0  0
  195.0530  172.6340  144.7100 C   0  0  0  0  0  2  0  0  0  0  0  0
  196.6840  174.5150  144.6010 C   0  0  0  0  0  2  0  0  0  0  0  0
  188.8370  175.6250  142.8300 C   0  0  1  0  0  3  0  0  0  0  0  0
  191.7620  176.1150  145.2810 C   0  0  0  0  0  0  0  0  0  0  0  0
  190.4390  172.7450  143.7650 C   0  0  2  0  0  3  0  0  0  0  0  0
  197.3460  172.3560  145.6130 C   0  0  0  0  0  1  0  0  0  0  0  0
  189.9100  174.6120  142.4460 C   0  0  0  0  0  2  0  0  0  0  0  0
  191.8550  175.8300  146.6530 C   0  0  0  0  0  3  0  0  0  0  0  0
  189.8080  177.4920  145.7280 C   0  0  0  0  0  3  0  0  0  0  0  0
  189.9200  177.2150  147.0920 C   0  0  0  0  0  3  0  0  0  0  0  0
  189.3590  177.0620  142.7690 C   0  0  0  0  0  2  0  0  0  0  0  0
  192.8090  173.1110  143.6690 C   0  0  1  0  0  3  0  0  0  0  0  0
  190.6360  174.1830  143.6350 N   0  0  2  0  0  0  0  0  0  0  0  0
  193.7420  173.4320  144.8170 C   0  0  2  0  0  3  0  0  0  0  0  0
  191.9260  170.9210  143.4250 O   0  0  0  0  0  1  0  0  0  0  0  0
  192.6980  175.4670  144.2820 C   0  0  1  0  0  3  0  0  0  0  0  0
  1 16  2  0  0  0  0
  1 21  1  0  0  0  0
  2  8  2  0  0  0  0
  5 27  1  6  0  0  0
  6  1  1  0  0  0  0
  8  7  2  0  0  0  0
  8 14  1  0  0  0  0
  9 18  1  6  0  0  0
 10  8  1  6  0  0  0
 11 15  1  0  0  0  0
 12 25  1  0  0  0  0
 12 24  1  0  0  0  0
 12 28  1  0  0  0  0
 13 26  1  0  0  0  0
 13  9  1  0  0  0  0
 14  9  1  0  0  0  0
 16 20  1  0  0  0  0
 17  5  1  0  0  0  0
 17  3  1  0  0  0  0
 19 15  1  0  0  0  0
 19 25  1  0  0  0  0
 20  4  2  0  0  0  0
 21 22  2  0  0  0  0
 22  4  1  0  0  0  0
 23 15  1  0  0  0  0
 23  6  1  0  0  0  0
 24  5  1  0  0  0  0
 24 26  1  0  0  0  0
 25 17  1  0  0  0  0
 26 10  1  0  0  0  0
 28 10  1  0  0  0  0
 28 16  1  0  0  0  0
M  END
>  <MODEL>
3

>  <REMARK>
 VINA RESULT:      -7.5      2.573      6.752
  Name = 
  0 active torsions:
  status: ('A' for Active; 'I' for Inactive)
                            x       y       z     vdW  Elec       q    Type
                         _______ _______ _______ _____ _____    ______ ____

>  <TORSDO>
F 0

$$$$
=
 OpenBabel11112417423D

 28 32  0  0  1  0  0  0  0  0999 V2000
  187.2910  176.8070  144.3980 C   0  0  0  0  0  0  0  0  0  0  0  0
  189.3520  172.2250  143.2500 O   0  0  0  0  0  0  0  0  0  0  0  0
  191.5500  178.6130  143.7620 C   0  0  0  0  0  1  0  0  0  0  0  0
  186.9100  178.1640  141.9790 C   0  0  0  0  0  3  0  0  0  0  0  0
  192.0420  176.3250  142.9570 C   0  0  2  0  0  3  0  0  0  0  0  0
  187.5270  176.1490  145.6060 O   0  0  0  0  0  0  0  0  0  0  0  0
  187.2610  172.6260  142.0240 O   0  0  0  0  0  0  0  0  0  0  0  0
  188.7470  172.8500  142.0240 S   0  0  0  0  0  0  0  0  0  0  0  0
  190.3220  173.1300  139.8470 C   0  0  2  0  0  3  0  0  0  0  0  0
  189.0840  174.5600  141.9750 N   0  0  2  0  0  0  0  0  0  0  0  0
  189.7360  178.0480  147.9500 C   0  0  0  0  0  1  0  0  0  0  0  0
  190.1350  175.3310  144.0380 C   0  0  1  0  0  3  0  0  0  0  0  0
  191.2530  173.8190  140.8360 C   0  0  0  0  0  2  0  0  0  0  0  0
  189.4620  172.1060  140.5730 C   0  0  0  0  0  2  0  0  0  0  0  0
  189.2580  177.5370  146.6070 C   0  0  1  0  0  3  0  0  0  0  0  0
  187.8890  176.3190  143.2240 C   0  0  0  0  0  0  0  0  0  0  0  0
  191.6130  177.1480  144.1500 C   0  0  2  0  0  3  0  0  0  0  0  0
  191.1420  172.4280  138.7850 C   0  0  0  0  0  1  0  0  0  0  0  0
  190.3060  176.5980  146.0190 C   0  0  0  0  0  2  0  0  0  0  0  0
  187.7010  177.0130  142.0180 C   0  0  0  0  0  3  0  0  0  0  0  0
  186.5070  177.9690  144.3560 C   0  0  0  0  0  3  0  0  0  0  0  0
  186.3130  178.6420  143.1480 C   0  0  0  0  0  3  0  0  0  0  0  0
  187.9060  176.8440  146.7890 C   0  0  0  0  0  2  0  0  0  0  0  0
  191.2220  175.0640  143.0260 C   0  0  1  0  0  3  0  0  0  0  0  0
  190.2930  176.6890  144.5640 N   0  0  2  0  0  0  0  0  0  0  0  0
  190.5080  174.8430  141.7090 C   0  0  2  0  0  3  0  0  0  0  0  0
  193.3970  176.0130  143.0620 O   0  0  0  0  0  1  0  0  0  0  0  0
  188.8000  175.1110  143.2990 C   0  0  1  0  0  3  0  0  0  0  0  0
  1  6  1  0  0  0  0
  3 17  1  0  0  0  0
  4 20  2  0  0  0  0
  4 22  1  0  0  0  0
  5 24  1  0  0  0  0
  5 27  1  1  0  0  0
  5 17  1  0  0  0  0
  6 23  1  0  0  0  0
  7  8  2  0  0  0  0
  8  2  2  0  0  0  0
  9 18  1  6  0  0  0
  9 14  1  0  0  0  0
  9 13  1  0  0  0  0
 10  8  1  1  0  0  0
 10 28  1  0  0  0  0
 12 25  1  0  0  0  0
 13 26  1  0  0  0  0
 14  8  1  0  0  0  0
 15 23  1  0  0  0  0
 15 11  1  0  0  0  0
 16 28  1  0  0  0  0
 16  1  2  0  0  0  0
 17 25  1  0  0  0  0
 19 15  1  0  0  0  0
 20 16  1  0  0  0  0
 21  1  1  0  0  0  0
 22 21  2  0  0  0  0
 24 12  1  0  0  0  0
 25 19  1  0  0  0  0
 26 10  1  0  0  0  0
 26 24  1  0  0  0  0
 28 12  1  0  0  0  0
M  END
>  <MODEL>
4

>  <REMARK>
 VINA RESULT:      -7.5      2.512      5.569
  Name = 
  0 active torsions:
  status: ('A' for Active; 'I' for Inactive)
                            x       y       z     vdW  Elec       q    Type
                         _______ _______ _______ _____ _____    ______ ____

>  <TORSDO>
F 0

$$$$
=
 OpenBabel11112417423D

 28 32  0  0  1  0  0  0  0  0999 V2000
  188.7740  177.1750  144.5710 C   0  0  0  0  0  0  0  0  0  0  0  0
  193.6190  176.0490  143.2230 O   0  0  0  0  0  0  0  0  0  0  0  0
  187.5410  173.1220  142.6100 C   0  0  0  0  0  1  0  0  0  0  0  0
  188.1860  175.6660  146.8550 C   0  0  0  0  0  3  0  0  0  0  0  0
  189.9930  172.8260  142.4560 C   0  0  2  0  0  3  0  0  0  0  0  0
  189.0520  177.8900  143.4060 O   0  0  0  0  0  0  0  0  0  0  0  0
  193.4640  176.7910  145.5600 O   0  0  0  0  0  0  0  0  0  0  0  0
  193.3520  175.6110  144.6370 S   0  0  0  0  0  0  0  0  0  0  0  0
  193.8500  173.0320  145.2690 C   0  0  2  0  0  3  0  0  0  0  0  0
  191.7640  174.9060  144.7720 N   0  0  2  0  0  0  0  0  0  0  0  0
  186.6910  177.1690  140.5970 C   0  0  0  0  0  1  0  0  0  0  0  0
  190.4810  175.1680  142.7130 C   0  0  1  0  0  3  0  0  0  0  0  0
  192.9610  172.7570  144.0640 C   0  0  0  0  0  2  0  0  0  0  0  0
  194.5460  174.3750  145.1020 C   0  0  0  0  0  2  0  0  0  0  0  0
  187.5500  176.8440  141.8010 C   0  0  1  0  0  3  0  0  0  0  0  0
  189.6330  176.1330  144.9570 C   0  0  0  0  0  0  0  0  0  0  0  0
  188.8210  173.6700  142.0100 C   0  0  2  0  0  3  0  0  0  0  0  0
  194.8940  171.9420  145.3890 C   0  0  0  0  0  1  0  0  0  0  0  0
  188.6910  175.9260  141.3790 C   0  0  0  0  0  2  0  0  0  0  0  0
  189.3230  175.3740  146.0970 C   0  0  0  0  0  3  0  0  0  0  0  0
  187.6280  177.4580  145.3290 C   0  0  0  0  0  3  0  0  0  0  0  0
  187.3390  176.7070  146.4700 C   0  0  0  0  0  3  0  0  0  0  0  0
  188.0610  178.1480  142.4170 C   0  0  0  0  0  2  0  0  0  0  0  0
  191.1150  173.7990  142.7030 C   0  0  1  0  0  3  0  0  0  0  0  0
  189.0420  175.0330  142.4760 N   0  0  2  0  0  0  0  0  0  0  0  0
  191.6730  173.5970  144.0960 C   0  0  2  0  0  3  0  0  0  0  0  0
  190.3500  171.9410  141.4400 O   0  0  0  0  0  1  0  0  0  0  0  0
  190.8220  175.7860  144.0850 C   0  0  1  0  0  3  0  0  0  0  0  0
  1 16  2  0  0  0  0
  1 21  1  0  0  0  0
  2  8  2  0  0  0  0
  5 27  1  6  0  0  0
  5 24  1  0  0  0  0
  6  1  1  0  0  0  0
  8 14  1  0  0  0  0
  8  7  2  0  0  0  0
  9 18  1  6  0  0  0
 10  8  1  6  0  0  0
 11 15  1  0  0  0  0
 12 28  1  0  0  0  0
 13 26  1  0  0  0  0
 13  9  1  0  0  0  0
 14  9  1  0  0  0  0
 15 23  1  0  0  0  0
 16 20  1  0  0  0  0
 17  5  1  0  0  0  0
 17 25  1  0  0  0  0
 17  3  1  0  0  0  0
 19 15  1  0  0  0  0
 19 25  1  0  0  0  0
 20  4  2  0  0  0  0
 21 22  2  0  0  0  0
 22  4  1  0  0  0  0
 23  6  1  0  0  0  0
 24 12  1  0  0  0  0
 24 26  1  0  0  0  0
 25 12  1  0  0  0  0
 26 10  1  0  0  0  0
 28 10  1  0  0  0  0
 28 16  1  0  0  0  0
M  END
>  <MODEL>
5

>  <REMARK>
 VINA RESULT:      -7.2      2.244      6.437
  Name = 
  0 active torsions:
  status: ('A' for Active; 'I' for Inactive)
                            x       y       z     vdW  Elec       q    Type
                         _______ _______ _______ _____ _____    ______ ____

>  <TORSDO>
F 0

$$$$
=
 OpenBabel11112417423D

 28 32  0  0  1  0  0  0  0  0999 V2000
  191.3080  173.6140  141.4480 C   0  0  0  0  0  0  0  0  0  0  0  0
  189.3170  178.2910  142.2990 O   0  0  0  0  0  0  0  0  0  0  0  0
  193.0680  173.8410  145.7670 C   0  0  0  0  0  1  0  0  0  0  0  0
  189.6620  171.7700  142.7630 C   0  0  0  0  0  3  0  0  0  0  0  0
  191.6790  175.8860  145.8730 C   0  0  2  0  0  3  0  0  0  0  0  0
  192.1540  174.5390  140.8330 O   0  0  0  0  0  0  0  0  0  0  0  0
  187.6630  176.7480  141.3410 O   0  0  0  0  0  0  0  0  0  0  0  0
  188.3050  177.2250  142.6130 S   0  0  0  0  0  0  0  0  0  0  0  0
  187.1710  177.2500  145.0650 C   0  0  2  0  0  3  0  0  0  0  0  0
  189.0590  175.8820  143.4310 N   0  0  2  0  0  0  0  0  0  0  0  0
  195.6930  174.3650  142.0270 C   0  0  0  0  0  1  0  0  0  0  0  0
  191.4880  176.1080  143.4840 C   0  0  1  0  0  3  0  0  0  0  0  0
  188.6190  177.2740  145.5330 C   0  0  0  0  0  2  0  0  0  0  0  0
  187.0600  177.8980  143.6930 C   0  0  0  0  0  2  0  0  0  0  0  0
  194.1860  174.3200  142.1570 C   0  0  1  0  0  3  0  0  0  0  0  0
  190.3520  174.0690  142.3720 C   0  0  0  0  0  0  0  0  0  0  0  0
  192.8450  175.2210  145.1780 C   0  0  2  0  0  3  0  0  0  0  0  0
  186.3080  178.0130  146.0480 C   0  0  0  0  0  1  0  0  0  0  0  0
  193.7150  175.4890  143.0150 C   0  0  0  0  0  2  0  0  0  0  0  0
  189.5400  173.1360  143.0350 C   0  0  0  0  0  3  0  0  0  0  0  0
  191.4360  172.2420  141.1860 C   0  0  0  0  0  3  0  0  0  0  0  0
  190.6100  171.3250  141.8390 C   0  0  0  0  0  3  0  0  0  0  0  0
  193.5630  174.3470  140.7600 C   0  0  0  0  0  2  0  0  0  0  0  0
  190.9370  176.6250  144.7900 C   0  0  1  0  0  3  0  0  0  0  0  0
  192.5220  175.1070  143.7610 N   0  0  2  0  0  0  0  0  0  0  0  0
  189.4770  176.2260  144.8040 C   0  0  2  0  0  3  0  0  0  0  0  0
  192.1510  176.7900  146.8230 O   0  0  0  0  0  1  0  0  0  0  0  0
  190.2820  175.5450  142.7050 C   0  0  1  0  0  3  0  0  0  0  0  0
  1 16  1  0  0  0  0
  2  8  2  0  0  0  0
  4 20  1  0  0  0  0
  5 27  1  1  0  0  0
  6  1  1  0  0  0  0
  7  8  2  0  0  0  0
  8 14  1  0  0  0  0
  9 13  1  0  0  0  0
  9 18  1  1  0  0  0
 10  8  1  6  0  0  0
 10 26  1  0  0  0  0
 11 15  1  0  0  0  0
 12 25  1  0  0  0  0
 12 24  1  0  0  0  0
 14  9  1  0  0  0  0
 15 19  1  0  0  0  0
 16 28  1  0  0  0  0
 16 20  2  0  0  0  0
 17  3  1  0  0  0  0
 17  5  1  0  0  0  0
 19 25  1  0  0  0  0
 21  1  2  0  0  0  0
 21 22  1  0  0  0  0
 22  4  2  0  0  0  0
 23  6  1  0  0  0  0
 23 15  1  0  0  0  0
 24 26  1  0  0  0  0
 24  5  1  0  0  0  0
 25 17  1  0  0  0  0
 26 13  1  0  0  0  0
 28 10  1  0  0  0  0
 28 12  1  0  0  0  0
M  END
>  <MODEL>
6

>  <REMARK>
 VINA RESULT:      -7.2      1.695      2.185
  Name = 
  0 active torsions:
  status: ('A' for Active; 'I' for Inactive)
                            x       y       z     vdW  Elec       q    Type
                         _______ _______ _______ _____ _____    ______ ____

>  <TORSDO>
F 0

$$$$
=
 OpenBabel11112417423D

 28 32  0  0  1  0  0  0  0  0999 V2000
  194.0690  173.9190  145.1980 C   0  0  0  0  0  0  0  0  0  0  0  0
  189.4130  174.5470  147.3150 O   0  0  0  0  0  0  0  0  0  0  0  0
  191.8550  172.8630  141.2250 C   0  0  0  0  0  1  0  0  0  0  0  0
  194.6030  176.2190  143.6940 C   0  0  0  0  0  3  0  0  0  0  0  0
  189.8740  173.5860  142.5210 C   0  0  2  0  0  3  0  0  0  0  0  0
  193.7810  172.7530  145.9090 O   0  0  0  0  0  0  0  0  0  0  0  0
  190.9210  176.4130  147.8420 O   0  0  0  0  0  0  0  0  0  0  0  0
  189.9510  175.8650  146.8330 S   0  0  0  0  0  0  0  0  0  0  0  0
  188.4180  177.3070  145.1400 C   0  0  2  0  0  3  0  0  0  0  0  0
  190.7480  175.6770  145.2930 N   0  0  2  0  0  0  0  0  0  0  0  0
  193.8820  169.6530  143.8210 C   0  0  0  0  0  1  0  0  0  0  0  0
  190.9450  173.3290  144.6610 C   0  0  1  0  0  3  0  0  0  0  0  0
  188.3920  176.0080  144.3480 C   0  0  0  0  0  2  0  0  0  0  0  0
  188.6030  177.0070  146.6200 C   0  0  0  0  0  2  0  0  0  0  0  0
  193.5930  171.1080  144.1240 C   0  0  1  0  0  3  0  0  0  0  0  0
  193.0340  174.8290  144.9270 C   0  0  0  0  0  0  0  0  0  0  0  0
  190.9960  172.5750  142.4410 C   0  0  2  0  0  3  0  0  0  0  0  0
  187.1120  178.0480  144.9410 C   0  0  0  0  0  1  0  0  0  0  0  0
  192.0870  171.3400  144.1120 C   0  0  0  0  0  2  0  0  0  0  0  0
  193.3090  175.9740  144.1620 C   0  0  0  0  0  3  0  0  0  0  0  0
  195.3640  174.1640  144.7180 C   0  0  0  0  0  3  0  0  0  0  0  0
  195.6290  175.3140  143.9730 C   0  0  0  0  0  3  0  0  0  0  0  0
  194.2170  171.4700  145.4730 C   0  0  0  0  0  2  0  0  0  0  0  0
  189.7220  173.8990  143.9860 C   0  0  1  0  0  3  0  0  0  0  0  0
  191.7970  172.6930  143.6520 N   0  0  2  0  0  0  0  0  0  0  0  0
  189.7950  175.3950  144.2010 C   0  0  2  0  0  3  0  0  0  0  0  0
  188.6960  173.0220  142.0330 O   0  0  0  0  0  1  0  0  0  0  0  0
  191.6240  174.5110  145.3810 C   0  0  1  0  0  3  0  0  0  0  0  0
  1  6  1  0  0  0  0
  3 17  1  0  0  0  0
  4 22  2  0  0  0  0
  4 20  1  0  0  0  0
  5 27  1  1  0  0  0
  5 24  1  0  0  0  0
  8  2  2  0  0  0  0
  8  7  2  0  0  0  0
  9 18  1  1  0  0  0
  9 14  1  0  0  0  0
 10 28  1  0  0  0  0
 10  8  1  1  0  0  0
 11 15  1  0  0  0  0
 12 28  1  0  0  0  0
 13  9  1  0  0  0  0
 14  8  1  0  0  0  0
 15 23  1  0  0  0  0
 16  1  1  0  0  0  0
 16 28  1  0  0  0  0
 17  5  1  0  0  0  0
 17 25  1  0  0  0  0
 19 15  1  0  0  0  0
 20 16  2  0  0  0  0
 21  1  2  0  0  0  0
 22 21  1  0  0  0  0
 23  6  1  0  0  0  0
 24 26  1  0  0  0  0
 24 12  1  0  0  0  0
 25 19  1  0  0  0  0
 25 12  1  0  0  0  0
 26 13  1  0  0  0  0
 26 10  1  0  0  0  0
M  END
>  <MODEL>
7

>  <REMARK>
 VINA RESULT:      -7.2      2.292      4.807
  Name = 
  0 active torsions:
  status: ('A' for Active; 'I' for Inactive)
                            x       y       z     vdW  Elec       q    Type
                         _______ _______ _______ _____ _____    ______ ____

>  <TORSDO>
F 0

$$$$
=
 OpenBabel11112417423D

 28 32  0  0  1  0  0  0  0  0999 V2000
  188.3940  175.8480  145.2260 C   0  0  0  0  0  0  0  0  0  0  0  0
  189.5020  171.6340  142.4750 O   0  0  0  0  0  0  0  0  0  0  0  0
  192.7430  177.2880  144.3230 C   0  0  0  0  0  1  0  0  0  0  0  0
  187.8770  177.9070  143.4000 C   0  0  0  0  0  3  0  0  0  0  0  0
  192.7370  175.3130  142.8330 C   0  0  2  0  0  3  0  0  0  0  0  0
  188.6990  174.8340  146.1340 O   0  0  0  0  0  0  0  0  0  0  0  0
  187.3430  172.6120  141.8290 O   0  0  0  0  0  0  0  0  0  0  0  0
  188.8280  172.6630  141.6100 S   0  0  0  0  0  0  0  0  0  0  0  0
  190.0850  173.4160  139.3400 C   0  0  2  0  0  3  0  0  0  0  0  0
  189.4230  174.2600  141.9780 N   0  0  2  0  0  0  0  0  0  0  0  0
  191.5080  175.6830  148.4520 C   0  0  0  0  0  1  0  0  0  0  0  0
  190.8790  174.2510  143.9350 C   0  0  1  0  0  3  0  0  0  0  0  0
  191.2500  173.6670  140.2870 C   0  0  0  0  0  2  0  0  0  0  0  0
  189.1900  172.3200  139.9010 C   0  0  0  0  0  2  0  0  0  0  0  0
  190.7600  175.6560  147.1360 C   0  0  1  0  0  3  0  0  0  0  0  0
  188.7240  175.6770  143.8710 C   0  0  0  0  0  0  0  0  0  0  0  0
  192.6280  175.7770  144.2670 C   0  0  2  0  0  3  0  0  0  0  0  0
  190.6140  172.9840  137.9890 C   0  0  0  0  0  1  0  0  0  0  0  0
  191.5440  174.8320  146.1220 C   0  0  0  0  0  2  0  0  0  0  0  0
  188.4710  176.7190  142.9660 C   0  0  0  0  0  3  0  0  0  0  0  0
  187.8080  177.0460  145.6600 C   0  0  0  0  0  3  0  0  0  0  0  0
  187.5450  178.0700  144.7470 C   0  0  0  0  0  3  0  0  0  0  0  0
  189.3570  175.0930  147.3700 C   0  0  0  0  0  2  0  0  0  0  0  0
  191.7460  174.1870  142.7020 C   0  0  1  0  0  3  0  0  0  0  0  0
  191.3290  175.3600  144.7800 N   0  0  2  0  0  0  0  0  0  0  0  0
  190.8180  174.4540  141.5360 C   0  0  2  0  0  3  0  0  0  0  0  0
  194.0250  174.8390  142.5880 O   0  0  0  0  0  1  0  0  0  0  0  0
  189.4310  174.4120  143.4310 C   0  0  1  0  0  3  0  0  0  0  0  0
  1 21  1  0  0  0  0
  1  6  1  0  0  0  0
  4 22  1  0  0  0  0
  5 27  1  1  0  0  0
  5 17  1  0  0  0  0
  6 23  1  0  0  0  0
  8  7  2  0  0  0  0
  8  2  2  0  0  0  0
  9 18  1  6  0  0  0
  9 14  1  0  0  0  0
  9 13  1  0  0  0  0
 10  8  1  1  0  0  0
 10 28  1  0  0  0  0
 12 25  1  0  0  0  0
 13 26  1  0  0  0  0
 14  8  1  0  0  0  0
 15 23  1  0  0  0  0
 15 11  1  0  0  0  0
 16  1  2  0  0  0  0
 17  3  1  0  0  0  0
 17 25  1  0  0  0  0
 19 15  1  0  0  0  0
 20  4  2  0  0  0  0
 20 16  1  0  0  0  0
 22 21  2  0  0  0  0
 24  5  1  0  0  0  0
 24 12  1  0  0  0  0
 25 19  1  0  0  0  0
 26 10  1  0  0  0  0
 26 24  1  0  0  0  0
 28 16  1  0  0  0  0
 28 12  1  0  0  0  0
M  END
>  <MODEL>
8

>  <REMARK>
 VINA RESULT:      -7.0      2.665      5.275
  Name = 
  0 active torsions:
  status: ('A' for Active; 'I' for Inactive)
                            x       y       z     vdW  Elec       q    Type
                         _______ _______ _______ _____ _____    ______ ____

>  <TORSDO>
F 0

$$$$
=
 OpenBabel11112417423D

 28 32  0  0  1  0  0  0  0  0999 V2000
  193.4850  173.7450  141.7960 C   0  0  0  0  0  0  0  0  0  0  0  0
  190.5930  177.8980  142.7650 O   0  0  0  0  0  0  0  0  0  0  0  0
  195.5980  174.5600  145.8790 C   0  0  0  0  0  1  0  0  0  0  0  0
  192.4470  171.6460  143.3310 C   0  0  0  0  0  3  0  0  0  0  0  0
  193.8030  176.2490  146.0980 C   0  0  2  0  0  3  0  0  0  0  0  0
  194.0310  174.8030  141.0690 O   0  0  0  0  0  0  0  0  0  0  0  0
  189.2370  175.9840  142.0370 O   0  0  0  0  0  0  0  0  0  0  0  0
  189.8860  176.6510  143.2160 S   0  0  0  0  0  0  0  0  0  0  0  0
  189.0440  176.5400  145.7800 C   0  0  2  0  0  3  0  0  0  0  0  0
  191.0070  175.5490  143.9720 N   0  0  2  0  0  0  0  0  0  0  0  0
  197.6240  175.4750  141.8540 C   0  0  0  0  0  1  0  0  0  0  0  0
  193.3140  176.3100  143.7420 C   0  0  1  0  0  3  0  0  0  0  0  0
  190.4910  176.9070  146.0790 C   0  0  0  0  0  2  0  0  0  0  0  0
  188.6440  177.0820  144.4160 C   0  0  0  0  0  2  0  0  0  0  0  0
  196.1890  175.1030  142.1560 C   0  0  1  0  0  3  0  0  0  0  0  0
  192.5550  174.0200  142.8120 C   0  0  0  0  0  0  0  0  0  0  0  0
  195.0070  175.8260  145.2890 C   0  0  2  0  0  3  0  0  0  0  0  0
  188.1400  177.1380  146.8380 C   0  0  0  0  0  1  0  0  0  0  0  0
  195.5600  176.1780  143.0360 C   0  0  0  0  0  2  0  0  0  0  0  0
  192.0500  172.9620  143.5850 C   0  0  0  0  0  3  0  0  0  0  0  0
  193.8900  172.4240  141.5530 C   0  0  0  0  0  3  0  0  0  0  0  0
  193.3670  171.3780  142.3150 C   0  0  0  0  0  3  0  0  0  0  0  0
  195.4300  174.9260  140.8390 C   0  0  0  0  0  2  0  0  0  0  0  0
  192.8030  176.7530  145.0910 C   0  0  1  0  0  3  0  0  0  0  0  0
  194.5700  175.5770  143.9220 N   0  0  2  0  0  0  0  0  0  0  0  0
  191.4800  176.0410  145.2800 C   0  0  2  0  0  3  0  0  0  0  0  0
  194.1570  177.2790  146.9680 O   0  0  0  0  0  1  0  0  0  0  0  0
  192.1900  175.4570  143.1190 C   0  0  1  0  0  3  0  0  0  0  0  0
  1 16  1  0  0  0  0
  2  8  2  0  0  0  0
  4 20  1  0  0  0  0
  5 27  1  1  0  0  0
  6  1  1  0  0  0  0
  7  8  2  0  0  0  0
  8 14  1  0  0  0  0
  9 13  1  0  0  0  0
  9 18  1  1  0  0  0
 10  8  1  6  0  0  0
 10 26  1  0  0  0  0
 11 15  1  0  0  0  0
 12 25  1  0  0  0  0
 12 24  1  0  0  0  0
 14  9  1  0  0  0  0
 15 19  1  0  0  0  0
 16 28  1  0  0  0  0
 16 20  2  0  0  0  0
 17  3  1  0  0  0  0
 17  5  1  0  0  0  0
 19 25  1  0  0  0  0
 21  1  2  0  0  0  0
 21 22  1  0  0  0  0
 22  4  2  0  0  0  0
 23  6  1  0  0  0  0
 23 15  1  0  0  0  0
 24 26  1  0  0  0  0
 24  5  1  0  0  0  0
 25 17  1  0  0  0  0
 26 13  1  0  0  0  0
 28 12  1  0  0  0  0
 28 10  1  0  0  0  0
M  END
>  <MODEL>
9

>  <REMARK>
 VINA RESULT:      -6.9      2.145      3.313
  Name = 
  0 active torsions:
  status: ('A' for Active; 'I' for Inactive)
                            x       y       z     vdW  Elec       q    Type
                         _______ _______ _______ _____ _____    ______ ____

>  <TORSDO>
F 0

$$$$
