=
 OpenBabel11112416293D

 32 37  0  0  1  0  0  0  0  0999 V2000
  180.6910  178.7240  140.2730 O   0  0  0  0  0  0  0  0  0  0  0  0
  185.5180  177.6300  143.0620 C   0  0  0  0  0  0  0  0  0  0  0  0
  185.9780  179.1410  147.7310 C   0  0  0  0  0  3  0  0  0  0  0  0
  187.0690  178.2920  147.9170 C   0  0  0  0  0  3  0  0  0  0  0  0
  187.2020  176.0090  142.0320 C   0  0  2  0  0  3  0  0  0  0  0  0
  188.3800  175.1320  142.3620 C   0  0  0  0  0  0  0  0  0  0  0  0
  183.6130  178.2100  141.7410 C   0  0  0  0  0  0  0  0  0  0  0  0
  183.7170  178.8960  144.0560 C   0  0  0  0  0  3  0  0  0  0  0  0
  190.0620  174.0740  143.4800 C   0  0  2  0  0  3  0  0  0  0  0  0
  181.7240  179.4440  142.7800 N   0  0  0  0  0  2  0  0  0  0  0  0
  185.2950  179.1430  146.5130 C   0  0  0  0  0  3  0  0  0  0  0  0
  184.9700  178.2870  144.1790 C   0  0  0  0  0  0  0  0  0  0  0  0
  185.7020  178.3010  145.4660 C   0  0  0  0  0  0  0  0  0  0  0  0
  187.2010  176.4800  144.5540 C   0  0  2  0  0  3  0  0  0  0  0  0
  189.9810  173.4730  142.1380 N   0  0  0  0  0  2  0  0  0  0  0  0
  181.6110  177.6630  140.3230 C   0  0  0  0  0  2  0  0  0  0  0  0
  183.0240  178.8580  142.8450 C   0  0  0  0  0  0  0  0  0  0  0  0
  188.9300  174.1580  141.5040 N   0  0  0  0  0  0  0  0  0  0  0  0
  183.0140  178.2400  140.3660 C   0  0  0  0  0  2  0  0  0  0  0  0
  180.5460  178.5890  142.7560 C   0  0  0  0  0  2  0  0  0  0  0  0
  187.4820  177.4480  146.8840 C   0  0  0  0  0  3  0  0  0  0  0  0
  186.8220  177.4590  145.6440 C   0  0  0  0  0  0  0  0  0  0  0  0
  188.6630  176.0260  144.6500 C   0  0  0  0  0  2  0  0  0  0  0  0
  184.8380  177.6370  141.8810 N   0  0  0  0  0  0  0  0  0  0  0  0
  187.4680  176.7200  140.7150 C   0  0  0  0  0  1  0  0  0  0  0  0
  189.7670  172.7940  144.7360 S   0  0  0  0  0  1  0  0  0  0  0  0
  186.9150  177.0500  143.1430 C   0  0  2  0  0  3  0  0  0  0  0  0
  188.9770  175.0930  143.5250 C   0  0  1  0  0  3  0  0  0  0  0  0
  179.8380  178.6690  141.3990 C   0  0  2  0  0  3  0  0  0  0  0  0
  178.7680  177.6340  141.2540 C   0  0  0  0  0  0  0  0  0  0  0  0
  178.1170  177.4580  140.0380 O   0  0  0  0  0  0  0  0  0  0  0  0
  178.4360  176.9350  142.2460 O   0  0  0  0  0  1  0  0  0  0  0  0
  1 16  1  0  0  0  0
  1 29  1  0  0  0  0
  2 12  1  0  0  0  0
  3  4  1  0  0  0  0
  5 25  1  6  0  0  0
  5  6  1  0  0  0  0
  5 27  1  0  0  0  0
  6 28  1  0  0  0  0
  7 24  1  0  0  0  0
  7 17  2  0  0  0  0
  8 12  2  0  0  0  0
  9 28  1  0  0  0  0
  9 26  1  1  0  0  0
 10 17  1  0  0  0  0
 11  3  2  0  0  0  0
 12 13  1  0  0  0  0
 13 22  2  0  0  0  0
 13 11  1  0  0  0  0
 14 23  1  6  0  0  0
 14 22  1  0  0  0  0
 15  9  1  0  0  0  0
 16 19  1  0  0  0  0
 17  8  1  0  0  0  0
 18 15  1  0  0  0  0
 18  6  2  0  0  0  0
 19  7  1  0  0  0  0
 20 10  1  0  0  0  0
 21  4  2  0  0  0  0
 22 21  1  0  0  0  0
 24  2  2  0  0  0  0
 27  2  1  1  0  0  0
 27 14  1  0  0  0  0
 28 23  1  6  0  0  0
 29 30  1  6  0  0  0
 29 20  1  0  0  0  0
 30 32  1  0  0  0  0
 31 30  2  0  0  0  0
M  END
>  <MODEL>
1

>  <REMARK>
 VINA RESULT:      -9.0      0.000      0.000
  Name = 
  1 active torsions:
  status: ('A' for Active; 'I' for Inactive)
    1  A    between atoms: C_29  and  C_30
                            x       y       z     vdW  Elec       q    Type
                         _______ _______ _______ _____ _____    ______ ____

>  <TORSDO>
F 1

$$$$
=
 OpenBabel11112416293D

 32 37  0  0  1  0  0  0  0  0999 V2000
  185.8450  177.6760  143.5540 O   0  0  0  0  0  0  0  0  0  0  0  0
  190.5950  174.5610  143.5310 C   0  0  0  0  0  0  0  0  0  0  0  0
  194.4740  176.0930  146.1560 C   0  0  0  0  0  3  0  0  0  0  0  0
  195.0590  174.8300  146.0640 C   0  0  0  0  0  3  0  0  0  0  0  0
  190.5290  172.2110  142.5310 C   0  0  2  0  0  3  0  0  0  0  0  0
  191.2580  170.8940  142.5110 C   0  0  0  0  0  0  0  0  0  0  0  0
  188.6240  175.8940  143.3150 C   0  0  0  0  0  0  0  0  0  0  0  0
  190.4420  176.6640  144.7090 C   0  0  0  0  0  3  0  0  0  0  0  0
  192.7880  169.2460  142.8870 C   0  0  2  0  0  3  0  0  0  0  0  0
  188.4310  178.0200  144.5870 N   0  0  0  0  0  2  0  0  0  0  0  0
  193.2100  176.3190  145.6080 C   0  0  0  0  0  3  0  0  0  0  0  0
  191.1740  175.5160  144.3860 C   0  0  0  0  0  0  0  0  0  0  0  0
  192.5220  175.2860  144.9530 C   0  0  0  0  0  0  0  0  0  0  0  0
  192.3420  172.8720  144.2210 C   0  0  2  0  0  3  0  0  0  0  0  0
  191.6530  168.6370  142.1720 N   0  0  0  0  0  2  0  0  0  0  0  0
  186.1540  176.3060  143.5360 C   0  0  0  0  0  2  0  0  0  0  0  0
  189.1630  176.8620  144.1870 C   0  0  0  0  0  0  0  0  0  0  0  0
  190.7470  169.6940  141.9760 N   0  0  0  0  0  0  0  0  0  0  0  0
  187.3230  176.0850  142.5930 C   0  0  0  0  0  2  0  0  0  0  0  0
  187.3360  177.8900  145.5370 C   0  0  0  0  0  2  0  0  0  0  0  0
  194.3830  173.7930  145.4180 C   0  0  0  0  0  3  0  0  0  0  0  0
  193.1230  174.0130  144.8370 C   0  0  0  0  0  0  0  0  0  0  0  0
  193.2480  171.7470  143.7050 C   0  0  0  0  0  2  0  0  0  0  0  0
  189.3590  174.7930  143.0060 N   0  0  0  0  0  0  0  0  0  0  0  0
  190.0760  172.5470  141.1190 C   0  0  0  0  0  1  0  0  0  0  0  0
  192.9960  168.4340  144.4990 S   0  0  0  0  0  1  0  0  0  0  0  0
  191.4060  173.3600  143.0890 C   0  0  2  0  0  3  0  0  0  0  0  0
  192.4150  170.6750  143.0790 C   0  0  1  0  0  3  0  0  0  0  0  0
  185.9900  178.1820  144.8670 C   0  0  2  0  0  3  0  0  0  0  0  0
  184.8290  177.8300  145.7440 C   0  0  0  0  0  0  0  0  0  0  0  0
  183.6920  178.6300  145.7630 O   0  0  0  0  0  0  0  0  0  0  0  0
  184.8940  176.8180  146.4880 O   0  0  0  0  0  1  0  0  0  0  0  0
  1 29  1  0  0  0  0
  2 12  1  0  0  0  0
  4  3  1  0  0  0  0
  5 25  1  6  0  0  0
  5 27  1  0  0  0  0
  6  5  1  0  0  0  0
  6 28  1  0  0  0  0
  7 17  2  0  0  0  0
  9 28  1  0  0  0  0
  9 26  1  1  0  0  0
 10 20  1  0  0  0  0
 11  3  2  0  0  0  0
 12  8  2  0  0  0  0
 12 13  1  0  0  0  0
 13 11  1  0  0  0  0
 14 23  1  6  0  0  0
 14 22  1  0  0  0  0
 15  9  1  0  0  0  0
 16  1  1  0  0  0  0
 17 10  1  0  0  0  0
 17  8  1  0  0  0  0
 18 15  1  0  0  0  0
 18  6  2  0  0  0  0
 19  7  1  0  0  0  0
 19 16  1  0  0  0  0
 21  4  2  0  0  0  0
 22 13  2  0  0  0  0
 22 21  1  0  0  0  0
 24  7  1  0  0  0  0
 24  2  2  0  0  0  0
 27  2  1  1  0  0  0
 27 14  1  0  0  0  0
 28 23  1  6  0  0  0
 29 20  1  0  0  0  0
 29 30  1  1  0  0  0
 30 31  2  0  0  0  0
 30 32  1  0  0  0  0
M  END
>  <MODEL>
2

>  <REMARK>
 VINA RESULT:      -8.1      3.966      6.643
  Name = 
  1 active torsions:
  status: ('A' for Active; 'I' for Inactive)
    1  A    between atoms: C_29  and  C_30
                            x       y       z     vdW  Elec       q    Type
                         _______ _______ _______ _____ _____    ______ ____

>  <TORSDO>
F 1

$$$$
=
 OpenBabel11112416293D

 32 37  0  0  1  0  0  0  0  0999 V2000
  194.5580  173.4520  140.1240 O   0  0  0  0  0  0  0  0  0  0  0  0
  190.5350  175.4020  143.6280 C   0  0  0  0  0  0  0  0  0  0  0  0
  191.8070  176.8370  148.1680 C   0  0  0  0  0  3  0  0  0  0  0  0
  190.5920  177.5060  148.3180 C   0  0  0  0  0  3  0  0  0  0  0  0
  188.2180  175.9210  142.6860 C   0  0  2  0  0  3  0  0  0  0  0  0
  186.9520  176.6860  142.9660 C   0  0  0  0  0  0  0  0  0  0  0  0
  192.1110  174.3850  142.1490 C   0  0  0  0  0  0  0  0  0  0  0  0
  192.8360  175.1620  144.3190 C   0  0  0  0  0  3  0  0  0  0  0  0
  185.3750  177.9960  143.9620 C   0  0  2  0  0  3  0  0  0  0  0  0
  194.4960  174.2070  142.8250 N   0  0  0  0  0  2  0  0  0  0  0  0
  192.1140  176.2080  146.9610 C   0  0  0  0  0  3  0  0  0  0  0  0
  191.5320  175.5820  144.6040 C   0  0  0  0  0  0  0  0  0  0  0  0
  191.2040  176.2330  145.8920 C   0  0  0  0  0  0  0  0  0  0  0  0
  189.0240  177.0030  144.8680 C   0  0  2  0  0  3  0  0  0  0  0  0
  184.9090  177.7130  142.5940 N   0  0  0  0  0  0  0  0  0  0  0  0
  193.3960  174.2320  139.9940 C   0  0  0  0  0  2  0  0  0  0  0  0
  193.1420  174.5690  143.0940 C   0  0  0  0  0  0  0  0  0  0  0  0
  185.9190  176.9120  142.0330 N   0  0  0  0  0  0  0  0  0  0  0  0
  192.3100  173.6320  140.8670 C   0  0  0  0  0  2  0  0  0  0  0  0
  195.2940  175.0160  141.9160 C   0  0  0  0  0  2  0  0  0  0  0  0
  189.6800  177.5410  147.2610 C   0  0  0  0  0  3  0  0  0  0  0  0
  189.9630  176.8880  146.0490 C   0  0  0  0  0  0  0  0  0  0  0  0
  187.5720  177.2580  145.2900 C   0  0  0  0  0  2  0  0  0  0  0  0
  190.8500  174.7900  142.4530 N   0  0  0  0  0  0  0  0  0  0  0  0
  187.8570  174.5540  142.1290 C   0  0  0  0  0  1  0  0  0  0  0  0
  185.5660  179.7910  144.1770 S   0  0  0  0  0  1  0  0  0  0  0  0
  189.0980  175.7580  143.9500 C   0  0  2  0  0  3  0  0  0  0  0  0
  186.6980  177.3230  144.0790 C   0  0  0  0  0  0  0  0  0  0  0  0
  195.6120  174.2460  140.6310 C   0  0  2  0  0  3  0  0  0  0  0  0
  196.2240  175.1190  139.5810 C   0  0  0  0  0  0  0  0  0  0  0  0
  195.9510  174.9000  138.2350 O   0  0  0  0  0  0  0  0  0  0  0  0
  197.0110  176.0410  139.9160 O   0  0  0  0  0  1  0  0  0  0  0  0
  1 29  1  0  0  0  0
  2 12  1  0  0  0  0
  3  4  1  0  0  0  0
  5 25  1  1  0  0  0
  5  6  1  0  0  0  0
  5 27  1  0  0  0  0
  6 28  2  0  0  0  0
  7 24  1  0  0  0  0
  7 17  2  0  0  0  0
  8 12  2  0  0  0  0
  9 28  1  0  0  0  0
  9 26  1  6  0  0  0
 10 17  1  0  0  0  0
 11  3  2  0  0  0  0
 12 13  1  0  0  0  0
 13 22  2  0  0  0  0
 13 11  1  0  0  0  0
 14 23  1  1  0  0  0
 14 22  1  0  0  0  0
 15  9  1  0  0  0  0
 16  1  1  0  0  0  0
 16 19  1  0  0  0  0
 17  8  1  0  0  0  0
 18 15  2  0  0  0  0
 18  6  1  0  0  0  0
 19  7  1  0  0  0  0
 20 10  1  0  0  0  0
 21  4  2  0  0  0  0
 22 21  1  0  0  0  0
 24  2  2  0  0  0  0
 27  2  1  6  0  0  0
 27 14  1  0  0  0  0
 28 23  1  0  0  0  0
 29 30  1  6  0  0  0
 29 20  1  0  0  0  0
 30 32  1  0  0  0  0
 31 30  2  0  0  0  0
M  END
>  <MODEL>
3

>  <REMARK>
 VINA RESULT:      -7.9      5.873      9.608
  Name = 
  1 active torsions:
  status: ('A' for Active; 'I' for Inactive)
    1  A    between atoms: C_29  and  C_30
                            x       y       z     vdW  Elec       q    Type
                         _______ _______ _______ _____ _____    ______ ____

>  <TORSDO>
F 1

$$$$
=
 OpenBabel11112416293D

 32 37  0  0  1  0  0  0  0  0999 V2000
  192.6400  171.5390  142.4870 O   0  0  0  0  0  0  0  0  0  0  0  0
  188.9890  175.8630  142.9770 C   0  0  0  0  0  0  0  0  0  0  0  0
  186.1990  177.0890  139.1040 C   0  0  0  0  0  3  0  0  0  0  0  0
  185.3540  177.8350  139.9260 C   0  0  0  0  0  3  0  0  0  0  0  0
  188.5210  176.8310  145.2950 C   0  0  2  0  0  3  0  0  0  0  0  0
  187.5330  177.6580  146.0730 C   0  0  0  0  0  0  0  0  0  0  0  0
  190.6910  174.1940  142.8160 C   0  0  0  0  0  0  0  0  0  0  0  0
  189.2910  174.6630  140.9030 C   0  0  0  0  0  3  0  0  0  0  0  0
  185.7370  178.9430  146.6380 C   0  0  2  0  0  3  0  0  0  0  0  0
  190.9530  172.9020  140.7090 N   0  0  0  0  0  2  0  0  0  0  0  0
  187.2620  176.3750  139.6600 C   0  0  0  0  0  3  0  0  0  0  0  0
  188.6120  175.6400  141.6410 C   0  0  0  0  0  0  0  0  0  0  0  0
  187.4970  176.4090  141.0440 C   0  0  0  0  0  0  0  0  0  0  0  0
  186.8470  177.1410  143.3750 C   0  0  2  0  0  3  0  0  0  0  0  0
  186.4290  178.5830  147.8870 N   0  0  0  0  0  0  0  0  0  0  0  0
  191.8020  172.0440  143.4950 C   0  0  0  0  0  2  0  0  0  0  0  0
  190.3260  173.9270  141.4800 C   0  0  0  0  0  0  0  0  0  0  0  0
  187.5160  177.7910  147.4760 N   0  0  0  0  0  0  0  0  0  0  0  0
  191.8800  173.5590  143.4750 C   0  0  0  0  0  2  0  0  0  0  0  0
  190.6540  171.5050  140.9850 C   0  0  0  0  0  2  0  0  0  0  0  0
  185.5750  177.8740  141.3040 C   0  0  0  0  0  3  0  0  0  0  0  0
  186.6580  177.1830  141.8740 C   0  0  0  0  0  0  0  0  0  0  0  0
  186.2490  178.3650  144.0810 C   0  0  0  0  0  2  0  0  0  0  0  0
  190.0260  175.1570  143.5080 N   0  0  0  0  0  0  0  0  0  0  0  0
  189.9300  177.2440  145.6880 C   0  0  0  0  0  1  0  0  0  0  0  0
  184.0350  178.3070  146.6830 S   0  0  0  0  0  1  0  0  0  0  0  0
  188.3370  176.9810  143.7640 C   0  0  2  0  0  3  0  0  0  0  0  0
  186.5040  178.2750  145.5520 C   0  0  0  0  0  0  0  0  0  0  0  0
  191.8770  170.7870  141.5640 C   0  0  2  0  0  3  0  0  0  0  0  0
  191.5450  169.4210  142.0790 C   0  0  0  0  0  0  0  0  0  0  0  0
  192.3820  168.7870  142.9880 O   0  0  0  0  0  1  0  0  0  0  0  0
  190.5130  168.8320  141.6640 O   0  0  0  0  0  0  0  0  0  0  0  0
  1 16  1  0  0  0  0
  2 24  1  0  0  0  0
  3 11  2  0  0  0  0
  3  4  1  0  0  0  0
  4 21  2  0  0  0  0
  5 25  1  6  0  0  0
  5  6  1  0  0  0  0
  6 18  1  0  0  0  0
  7 19  1  0  0  0  0
  7 24  2  0  0  0  0
  8 17  2  0  0  0  0
  8 12  1  0  0  0  0
  9 26  1  1  0  0  0
  9 15  1  0  0  0  0
 10 20  1  0  0  0  0
 10 17  1  0  0  0  0
 11 13  1  0  0  0  0
 12  2  2  0  0  0  0
 13 12  1  0  0  0  0
 13 22  2  0  0  0  0
 14 27  1  0  0  0  0
 14 23  1  1  0  0  0
 17  7  1  0  0  0  0
 18 15  2  0  0  0  0
 19 16  1  0  0  0  0
 20 29  1  0  0  0  0
 21 22  1  0  0  0  0
 22 14  1  0  0  0  0
 23 28  1  0  0  0  0
 27  2  1  6  0  0  0
 27  5  1  0  0  0  0
 28  6  2  0  0  0  0
 28  9  1  0  0  0  0
 29 30  1  1  0  0  0
 29  1  1  0  0  0  0
 30 31  1  0  0  0  0
 32 30  2  0  0  0  0
M  END
>  <MODEL>
4

>  <REMARK>
 VINA RESULT:      -7.8      5.493      8.991
  Name = 
  1 active torsions:
  status: ('A' for Active; 'I' for Inactive)
    1  A    between atoms: C_29  and  C_30
                            x       y       z     vdW  Elec       q    Type
                         _______ _______ _______ _____ _____    ______ ____

>  <TORSDO>
F 1

$$$$
=
 OpenBabel11112416293D

 32 37  0  0  1  0  0  0  0  0999 V2000
  186.1190  178.8090  142.6160 O   0  0  0  0  0  0  0  0  0  0  0  0
  190.0070  174.6860  142.2230 C   0  0  0  0  0  0  0  0  0  0  0  0
  193.2970  174.1460  145.8520 C   0  0  0  0  0  3  0  0  0  0  0  0
  193.6260  172.8720  145.3890 C   0  0  0  0  0  3  0  0  0  0  0  0
  189.7420  172.9030  140.4120 C   0  0  2  0  0  3  0  0  0  0  0  0
  190.1780  171.5170  140.0190 C   0  0  0  0  0  0  0  0  0  0  0  0
  188.4600  176.5060  142.1960 C   0  0  0  0  0  0  0  0  0  0  0  0
  189.9700  176.2470  144.0650 C   0  0  0  0  0  3  0  0  0  0  0  0
  191.2050  169.4820  139.9970 C   0  0  2  0  0  3  0  0  0  0  0  0
  188.3650  178.0690  144.1260 N   0  0  0  0  0  2  0  0  0  0  0  0
  192.2880  174.8780  145.2240 C   0  0  0  0  0  3  0  0  0  0  0  0
  190.5210  175.1110  143.4610 C   0  0  0  0  0  0  0  0  0  0  0  0
  191.6030  174.3460  144.1190 C   0  0  0  0  0  0  0  0  0  0  0  0
  191.1490  172.4510  142.5090 C   0  0  2  0  0  3  0  0  0  0  0  0
  190.1970  169.4770  138.9230 N   0  0  0  0  0  2  0  0  0  0  0  0
  186.1470  177.4900  142.1330 C   0  0  0  0  0  2  0  0  0  0  0  0
  188.9340  176.9490  143.4480 C   0  0  0  0  0  0  0  0  0  0  0  0
  189.5980  170.7470  138.9900 N   0  0  0  0  0  0  0  0  0  0  0  0
  187.4530  177.2740  141.3910 C   0  0  0  0  0  2  0  0  0  0  0  0
  187.0580  177.9450  144.7550 C   0  0  0  0  0  2  0  0  0  0  0  0
  192.9500  172.3310  144.2930 C   0  0  0  0  0  3  0  0  0  0  0  0
  191.9520  173.0670  143.6340 C   0  0  0  0  0  0  0  0  0  0  0  0
  191.9190  171.3510  141.7660 C   0  0  0  0  0  2  0  0  0  0  0  0
  189.0190  175.4080  141.6230 N   0  0  0  0  0  0  0  0  0  0  0  0
  189.7440  173.7910  139.1780 C   0  0  0  0  0  1  0  0  0  0  0  0
  190.8250  168.1660  141.1900 S   0  0  0  0  0  1  0  0  0  0  0  0
  190.6520  173.5190  141.5040 C   0  0  2  0  0  3  0  0  0  0  0  0
  191.0830  170.8150  140.6490 C   0  0  1  0  0  3  0  0  0  0  0  0
  186.0150  178.7990  144.0270 C   0  0  2  0  0  3  0  0  0  0  0  0
  184.6220  178.5170  144.4930 C   0  0  0  0  0  0  0  0  0  0  0  0
  183.5300  179.0370  143.8080 O   0  0  0  0  0  0  0  0  0  0  0  0
  184.4380  177.8270  145.5290 O   0  0  0  0  0  1  0  0  0  0  0  0
  1 29  1  0  0  0  0
  2 12  1  0  0  0  0
  4  3  1  0  0  0  0
  5 25  1  6  0  0  0
  5 27  1  0  0  0  0
  6  5  1  0  0  0  0
  6 28  1  0  0  0  0
  7 17  2  0  0  0  0
  9 28  1  0  0  0  0
  9 26  1  1  0  0  0
 10 20  1  0  0  0  0
 11  3  2  0  0  0  0
 12  8  2  0  0  0  0
 12 13  1  0  0  0  0
 13 11  1  0  0  0  0
 14 23  1  6  0  0  0
 14 22  1  0  0  0  0
 15 18  1  0  0  0  0
 15  9  1  0  0  0  0
 16  1  1  0  0  0  0
 17  8  1  0  0  0  0
 17 10  1  0  0  0  0
 18  6  2  0  0  0  0
 19 16  1  0  0  0  0
 19  7  1  0  0  0  0
 21  4  2  0  0  0  0
 22 13  2  0  0  0  0
 22 21  1  0  0  0  0
 24  7  1  0  0  0  0
 24  2  2  0  0  0  0
 27  2  1  1  0  0  0
 27 14  1  0  0  0  0
 28 23  1  6  0  0  0
 29 30  1  6  0  0  0
 29 20  1  0  0  0  0
 30 32  1  0  0  0  0
 31 30  2  0  0  0  0
M  END
>  <MODEL>
5

>  <REMARK>
 VINA RESULT:      -7.7      3.561      6.292
  Name = 
  1 active torsions:
  status: ('A' for Active; 'I' for Inactive)
    1  A    between atoms: C_29  and  C_30
                            x       y       z     vdW  Elec       q    Type
                         _______ _______ _______ _____ _____    ______ ____

>  <TORSDO>
F 1

$$$$
=
 OpenBabel11112416293D

 32 37  0  0  1  0  0  0  0  0999 V2000
  185.8920  177.1110  145.6290 O   0  0  0  0  0  0  0  0  0  0  0  0
  190.5180  174.9940  143.1020 C   0  0  0  0  0  0  0  0  0  0  0  0
  190.0760  172.9170  138.6550 C   0  0  0  0  0  3  0  0  0  0  0  0
  191.4560  172.9880  138.4640 C   0  0  0  0  0  3  0  0  0  0  0  0
  192.8160  175.5240  144.0840 C   0  0  2  0  0  3  0  0  0  0  0  0
  194.2850  175.5530  143.7540 C   0  0  0  0  0  0  0  0  0  0  0  0
  188.6090  175.7350  144.3330 C   0  0  0  0  0  0  0  0  0  0  0  0
  188.3210  174.8260  142.1120 C   0  0  0  0  0  3  0  0  0  0  0  0
  196.2750  175.3540  142.6600 C   0  0  2  0  0  3  0  0  0  0  0  0
  186.3570  175.6360  143.2880 N   0  0  0  0  0  2  0  0  0  0  0  0
  189.5030  173.4440  139.8130 C   0  0  0  0  0  3  0  0  0  0  0  0
  189.7020  174.6180  142.0200 C   0  0  0  0  0  0  0  0  0  0  0  0
  190.3070  174.0410  140.7980 C   0  0  0  0  0  0  0  0  0  0  0  0
  192.5630  174.8240  141.6290 C   0  0  2  0  0  3  0  0  0  0  0  0
  196.5380  176.0600  143.9260 N   0  0  0  0  0  0  0  0  0  0  0  0
  187.2470  177.4690  145.5400 C   0  0  0  0  0  2  0  0  0  0  0  0
  187.7620  175.3910  143.2590 C   0  0  0  0  0  0  0  0  0  0  0  0
  195.2810  176.1570  144.5480 N   0  0  0  0  0  0  0  0  0  0  0  0
  188.0890  176.2120  145.6570 C   0  0  0  0  0  2  0  0  0  0  0  0
  185.8570  176.9950  143.1410 C   0  0  0  0  0  2  0  0  0  0  0  0
  192.2650  173.5830  139.4340 C   0  0  0  0  0  3  0  0  0  0  0  0
  191.7060  174.0930  140.6180 C   0  0  0  0  0  0  0  0  0  0  0  0
  194.0300  174.3760  141.5950 C   0  0  0  0  0  2  0  0  0  0  0  0
  189.9460  175.5120  144.2250 N   0  0  0  0  0  0  0  0  0  0  0  0
  192.6340  174.9540  145.4810 C   0  0  0  0  0  1  0  0  0  0  0  0
  196.7510  176.4160  141.2640 S   0  0  0  0  0  1  0  0  0  0  0  0
  192.0010  174.6890  143.0650 C   0  0  2  0  0  3  0  0  0  0  0  0
  194.8070  175.1100  142.6400 C   0  0  0  0  0  0  0  0  0  0  0  0
  185.2190  177.4890  144.4430 C   0  0  2  0  0  3  0  0  0  0  0  0
  184.9090  178.9530  144.4060 C   0  0  0  0  0  0  0  0  0  0  0  0
  185.5660  179.7910  143.5130 O   0  0  0  0  0  0  0  0  0  0  0  0
  184.0660  179.4330  145.2080 O   0  0  0  0  0  1  0  0  0  0  0  0
  2 24  1  0  0  0  0
  3 11  1  0  0  0  0
  4  3  2  0  0  0  0
  4 21  1  0  0  0  0
  5 25  1  1  0  0  0
  6  5  1  0  0  0  0
  6 18  1  0  0  0  0
  7 19  1  0  0  0  0
  8 17  2  0  0  0  0
  9 26  1  6  0  0  0
  9 15  1  0  0  0  0
 11 13  2  0  0  0  0
 12  8  1  0  0  0  0
 12  2  2  0  0  0  0
 13 12  1  0  0  0  0
 14 23  1  1  0  0  0
 14 27  1  0  0  0  0
 15 18  2  0  0  0  0
 16  1  1  0  0  0  0
 16 19  1  0  0  0  0
 17 10  1  0  0  0  0
 17  7  1  0  0  0  0
 20 10  1  0  0  0  0
 20 29  1  0  0  0  0
 21 22  2  0  0  0  0
 22 13  1  0  0  0  0
 22 14  1  0  0  0  0
 23 28  1  0  0  0  0
 24  7  2  0  0  0  0
 27  2  1  6  0  0  0
 27  5  1  0  0  0  0
 28  9  1  0  0  0  0
 28  6  2  0  0  0  0
 29 30  1  6  0  0  0
 29  1  1  0  0  0  0
 30 32  1  0  0  0  0
 31 30  2  0  0  0  0
M  END
>  <MODEL>
6

>  <REMARK>
 VINA RESULT:      -7.4      4.197      7.400
  Name = 
  1 active torsions:
  status: ('A' for Active; 'I' for Inactive)
    1  A    between atoms: C_29  and  C_30
                            x       y       z     vdW  Elec       q    Type
                         _______ _______ _______ _____ _____    ______ ____

>  <TORSDO>
F 1

$$$$
=
 OpenBabel11112416293D

 32 37  0  0  1  0  0  0  0  0999 V2000
  186.4330  177.4550  144.8940 O   0  0  0  0  0  0  0  0  0  0  0  0
  191.0440  174.7690  142.9440 C   0  0  0  0  0  0  0  0  0  0  0  0
  190.5230  171.4010  139.3840 C   0  0  0  0  0  3  0  0  0  0  0  0
  191.8920  171.4430  139.1190 C   0  0  0  0  0  3  0  0  0  0  0  0
  193.3530  175.6330  143.6100 C   0  0  2  0  0  3  0  0  0  0  0  0
  194.8080  175.5940  143.2220 C   0  0  0  0  0  0  0  0  0  0  0  0
  189.1530  175.8100  143.9690 C   0  0  0  0  0  0  0  0  0  0  0  0
  188.8210  174.2490  142.1540 C   0  0  0  0  0  3  0  0  0  0  0  0
  196.7640  175.1120  142.1560 C   0  0  2  0  0  3  0  0  0  0  0  0
  186.8700  175.3370  143.1080 N   0  0  0  0  0  2  0  0  0  0  0  0
  189.9720  172.2490  140.3460 C   0  0  0  0  0  3  0  0  0  0  0  0
  190.2040  174.0550  142.0690 C   0  0  0  0  0  0  0  0  0  0  0  0
  190.7870  173.1420  141.0610 C   0  0  0  0  0  0  0  0  0  0  0  0
  193.0400  174.1990  141.5060 C   0  0  2  0  0  3  0  0  0  0  0  0
  197.0450  176.1840  143.1270 N   0  0  0  0  0  0  0  0  0  0  0  0
  187.7710  177.8000  144.6380 C   0  0  0  0  0  2  0  0  0  0  0  0
  188.2820  175.1280  143.0940 C   0  0  0  0  0  0  0  0  0  0  0  0
  195.8080  176.4390  143.7440 N   0  0  0  0  0  0  0  0  0  0  0  0
  188.6620  176.6630  145.1020 C   0  0  0  0  0  2  0  0  0  0  0  0
  186.3160  176.5700  142.5690 C   0  0  0  0  0  2  0  0  0  0  0  0
  192.7120  172.3290  139.8200 C   0  0  0  0  0  3  0  0  0  0  0  0
  192.1760  173.1690  140.8110 C   0  0  0  0  0  0  0  0  0  0  0  0
  194.5200  173.7980  141.5470 C   0  0  0  0  0  2  0  0  0  0  0  0
  190.4920  175.5960  143.8760 N   0  0  0  0  0  0  0  0  0  0  0  0
  193.2420  175.5220  145.1220 C   0  0  0  0  0  1  0  0  0  0  0  0
  197.1520  175.6980  140.4800 S   0  0  0  0  0  1  0  0  0  0  0  0
  192.5350  174.5030  142.9380 C   0  0  2  0  0  3  0  0  0  0  0  0
  195.3060  174.8390  142.2780 C   0  0  0  0  0  0  0  0  0  0  0  0
  185.7060  177.4290  143.6820 C   0  0  2  0  0  3  0  0  0  0  0  0
  185.3410  178.8010  143.2070 C   0  0  0  0  0  0  0  0  0  0  0  0
  185.0120  179.7980  144.1170 O   0  0  0  0  0  1  0  0  0  0  0  0
  185.3070  179.0450  141.9730 O   0  0  0  0  0  0  0  0  0  0  0  0
  2 24  1  0  0  0  0
  3 11  1  0  0  0  0
  4  3  2  0  0  0  0
  4 21  1  0  0  0  0
  5 25  1  1  0  0  0
  6  5  1  0  0  0  0
  6 18  1  0  0  0  0
  7 19  1  0  0  0  0
  8 17  2  0  0  0  0
  9 26  1  6  0  0  0
  9 28  1  0  0  0  0
  9 15  1  0  0  0  0
 11 13  2  0  0  0  0
 12  8  1  0  0  0  0
 12  2  2  0  0  0  0
 13 12  1  0  0  0  0
 14 23  1  1  0  0  0
 14 27  1  0  0  0  0
 15 18  2  0  0  0  0
 16  1  1  0  0  0  0
 16 19  1  0  0  0  0
 17 10  1  0  0  0  0
 17  7  1  0  0  0  0
 20 10  1  0  0  0  0
 20 29  1  0  0  0  0
 21 22  2  0  0  0  0
 22 13  1  0  0  0  0
 22 14  1  0  0  0  0
 23 28  1  0  0  0  0
 24  7  2  0  0  0  0
 27  2  1  6  0  0  0
 27  5  1  0  0  0  0
 28  6  2  0  0  0  0
 29 30  1  6  0  0  0
 29  1  1  0  0  0  0
 30 31  1  0  0  0  0
 32 30  2  0  0  0  0
M  END
>  <MODEL>
7

>  <REMARK>
 VINA RESULT:      -7.2      4.366      7.774
  Name = 
  1 active torsions:
  status: ('A' for Active; 'I' for Inactive)
    1  A    between atoms: C_29  and  C_30
                            x       y       z     vdW  Elec       q    Type
                         _______ _______ _______ _____ _____    ______ ____

>  <TORSDO>
F 1

$$$$
=
 OpenBabel11112416293D

 32 37  0  0  1  0  0  0  0  0999 V2000
  195.7220  171.0030  145.2060 O   0  0  0  0  0  0  0  0  0  0  0  0
  191.4410  174.4070  143.6700 C   0  0  0  0  0  0  0  0  0  0  0  0
  189.3360  173.7610  139.2610 C   0  0  0  0  0  3  0  0  0  0  0  0
  188.2410  174.5330  139.6500 C   0  0  0  0  0  3  0  0  0  0  0  0
  190.3760  175.9250  145.4260 C   0  0  2  0  0  3  0  0  0  0  0  0
  189.1390  176.7280  145.7280 C   0  0  0  0  0  0  0  0  0  0  0  0
  193.3720  173.1630  144.3300 C   0  0  0  0  0  0  0  0  0  0  0  0
  192.3300  172.7130  142.1960 C   0  0  0  0  0  3  0  0  0  0  0  0
  187.0940  177.7220  145.5610 C   0  0  2  0  0  3  0  0  0  0  0  0
  194.2420  171.3650  142.8510 N   0  0  0  0  0  2  0  0  0  0  0  0
  190.3600  173.4930  140.1710 C   0  0  0  0  0  3  0  0  0  0  0  0
  191.3790  173.7060  142.4510 C   0  0  0  0  0  0  0  0  0  0  0  0
  190.3040  174.0020  141.4780 C   0  0  0  0  0  0  0  0  0  0  0  0
  189.0960  175.2690  143.3020 C   0  0  2  0  0  3  0  0  0  0  0  0
  187.5670  177.9190  146.9420 N   0  0  0  0  0  0  0  0  0  0  0  0
  194.6330  171.6110  145.8520 C   0  0  0  0  0  2  0  0  0  0  0  0
  193.3270  172.4250  143.1290 C   0  0  0  0  0  0  0  0  0  0  0  0
  188.8210  177.2840  146.9840 N   0  0  0  0  0  0  0  0  0  0  0  0
  194.4850  173.0260  145.3260 C   0  0  0  0  0  2  0  0  0  0  0  0
  194.1070  170.0930  143.5430 C   0  0  0  0  0  2  0  0  0  0  0  0
  188.1720  175.0420  140.9490 C   0  0  0  0  0  3  0  0  0  0  0  0
  189.2080  174.8040  141.8670 C   0  0  0  0  0  0  0  0  0  0  0  0
  188.1920  176.4990  143.4560 C   0  0  0  0  0  2  0  0  0  0  0  0
  192.4440  174.1320  144.5500 N   0  0  0  0  0  0  0  0  0  0  0  0
  191.5990  176.7240  145.8480 C   0  0  0  0  0  1  0  0  0  0  0  0
  185.5340  176.7920  145.5820 S   0  0  0  0  0  1  0  0  0  0  0  0
  190.4840  175.5520  143.9270 C   0  0  2  0  0  3  0  0  0  0  0  0
  188.1560  176.9250  144.8880 C   0  0  0  0  0  0  0  0  0  0  0  0
  195.2820  169.8610  144.4990 C   0  0  2  0  0  3  0  0  0  0  0  0
  195.0620  168.6850  145.3970 C   0  0  0  0  0  0  0  0  0  0  0  0
  193.7850  168.1660  145.5800 O   0  0  0  0  0  0  0  0  0  0  0  0
  196.0350  168.1780  146.0120 O   0  0  0  0  0  1  0  0  0  0  0  0
  1 16  1  0  0  0  0
  2 24  1  0  0  0  0
  3  4  2  0  0  0  0
  3 11  1  0  0  0  0
  4 21  1  0  0  0  0
  5  6  1  0  0  0  0
  5 25  1  6  0  0  0
  6 18  1  0  0  0  0
  7 24  2  0  0  0  0
  7 19  1  0  0  0  0
  8 12  1  0  0  0  0
  8 17  2  0  0  0  0
  9 26  1  1  0  0  0
  9 15  1  0  0  0  0
 10 17  1  0  0  0  0
 10 20  1  0  0  0  0
 11 13  2  0  0  0  0
 12  2  2  0  0  0  0
 13 22  1  0  0  0  0
 13 12  1  0  0  0  0
 14 23  1  6  0  0  0
 14 27  1  0  0  0  0
 15 18  2  0  0  0  0
 17  7  1  0  0  0  0
 19 16  1  0  0  0  0
 20 29  1  0  0  0  0
 21 22  2  0  0  0  0
 22 14  1  0  0  0  0
 23 28  1  0  0  0  0
 27  2  1  1  0  0  0
 27  5  1  0  0  0  0
 28  9  1  0  0  0  0
 28  6  2  0  0  0  0
 29  1  1  0  0  0  0
 29 30  1  1  0  0  0
 30 31  2  0  0  0  0
 30 32  1  0  0  0  0
M  END
>  <MODEL>
8

>  <REMARK>
 VINA RESULT:      -7.0      7.005     11.062
  Name = 
  1 active torsions:
  status: ('A' for Active; 'I' for Inactive)
    1  A    between atoms: C_29  and  C_30
                            x       y       z     vdW  Elec       q    Type
                         _______ _______ _______ _____ _____    ______ ____

>  <TORSDO>
F 1

$$$$
=
 OpenBabel11112416293D

 32 37  0  0  1  0  0  0  0  0999 V2000
  187.1150  177.4590  144.5760 O   0  0  0  0  0  0  0  0  0  0  0  0
  191.1410  174.5960  141.7710 C   0  0  0  0  0  0  0  0  0  0  0  0
  189.8000  171.0700  138.6000 C   0  0  0  0  0  3  0  0  0  0  0  0
  191.0730  171.0730  138.0290 C   0  0  0  0  0  3  0  0  0  0  0  0
  193.5480  175.4480  141.8490 C   0  0  2  0  0  3  0  0  0  0  0  0
  194.8750  175.3630  141.1440 C   0  0  0  0  0  0  0  0  0  0  0  0
  189.5410  175.7210  143.1430 C   0  0  0  0  0  0  0  0  0  0  0  0
  188.7940  174.0790  141.5340 C   0  0  0  0  0  3  0  0  0  0  0  0
  196.5350  174.7940  139.6880 C   0  0  2  0  0  3  0  0  0  0  0  0
  187.1190  175.2490  142.8480 N   0  0  0  0  0  2  0  0  0  0  0  0
  189.4880  171.9730  139.6170 C   0  0  0  0  0  3  0  0  0  0  0  0
  190.1200  173.8560  141.1470 C   0  0  0  0  0  0  0  0  0  0  0  0
  190.4510  172.8840  140.0810 C   0  0  0  0  0  0  0  0  0  0  0  0
  192.7540  173.9200  139.9480 C   0  0  2  0  0  3  0  0  0  0  0  0
  197.0370  175.9060  140.5140 N   0  0  0  0  0  0  0  0  0  0  0  0
  188.3620  177.7660  144.0050 C   0  0  0  0  0  2  0  0  0  0  0  0
  188.4890  175.0140  142.5240 C   0  0  0  0  0  0  0  0  0  0  0  0
  195.9750  176.2140  141.3810 N   0  0  0  0  0  0  0  0  0  0  0  0
  189.3270  176.6360  144.3120 C   0  0  0  0  0  2  0  0  0  0  0  0
  186.4660  176.4640  142.3860 C   0  0  0  0  0  2  0  0  0  0  0  0
  192.0370  171.9770  138.4800 C   0  0  0  0  0  3  0  0  0  0  0  0
  191.7470  172.8730  139.5210 C   0  0  0  0  0  0  0  0  0  0  0  0
  194.2020  173.4940  139.6730 C   0  0  0  0  0  2  0  0  0  0  0  0
  190.8220  175.4780  142.7590 N   0  0  0  0  0  0  0  0  0  0  0  0
  193.7820  175.4130  143.3510 C   0  0  0  0  0  1  0  0  0  0  0  0
  196.5340  175.2900  137.9400 S   0  0  0  0  0  1  0  0  0  0  0  0
  192.5900  174.3030  141.4400 C   0  0  2  0  0  3  0  0  0  0  0  0
  195.1400  174.5540  140.1510 C   0  0  0  0  0  0  0  0  0  0  0  0
  186.1310  177.3880  143.5630 C   0  0  2  0  0  3  0  0  0  0  0  0
  185.6770  178.7410  143.1130 C   0  0  0  0  0  0  0  0  0  0  0  0
  185.5490  179.7820  144.0260 O   0  0  0  0  0  1  0  0  0  0  0  0
  185.3850  178.9310  141.9040 O   0  0  0  0  0  0  0  0  0  0  0  0
  2 24  1  0  0  0  0
  3 11  1  0  0  0  0
  4 21  1  0  0  0  0
  4  3  2  0  0  0  0
  5 25  1  1  0  0  0
  6 18  1  0  0  0  0
  6  5  1  0  0  0  0
  7 19  1  0  0  0  0
  8 17  2  0  0  0  0
  9 26  1  6  0  0  0
  9 28  1  0  0  0  0
  9 15  1  0  0  0  0
 11 13  2  0  0  0  0
 12  8  1  0  0  0  0
 12  2  2  0  0  0  0
 13 12  1  0  0  0  0
 14 23  1  1  0  0  0
 14 27  1  0  0  0  0
 15 18  2  0  0  0  0
 16 19  1  0  0  0  0
 16  1  1  0  0  0  0
 17 10  1  0  0  0  0
 17  7  1  0  0  0  0
 20 10  1  0  0  0  0
 20 29  1  0  0  0  0
 21 22  2  0  0  0  0
 22 14  1  0  0  0  0
 22 13  1  0  0  0  0
 23 28  1  0  0  0  0
 24  7  2  0  0  0  0
 27  2  1  6  0  0  0
 27  5  1  0  0  0  0
 28  6  2  0  0  0  0
 29 30  1  6  0  0  0
 29  1  1  0  0  0  0
 30 31  1  0  0  0  0
 32 30  2  0  0  0  0
M  END
>  <MODEL>
9

>  <REMARK>
 VINA RESULT:      -6.8      4.786      8.136
  Name = 
  1 active torsions:
  status: ('A' for Active; 'I' for Inactive)
    1  A    between atoms: C_29  and  C_30
                            x       y       z     vdW  Elec       q    Type
                         _______ _______ _______ _____ _____    ______ ____

>  <TORSDO>
F 1

$$$$
