=
 OpenBabel11112416453D

 31 35  0  0  1  0  0  0  0  0999 V2000
  184.9040  177.7530  146.6080 C   0  0  0  0  0  0  0  0  0  0  0  0
  187.3420  176.3170  144.1360 N   0  0  0  0  0  0  0  0  0  0  0  0
  186.9080  176.6710  142.7970 C   0  0  0  0  0  0  0  0  0  0  0  0
  185.3590  177.7680  141.2720 C   0  0  0  0  0  0  0  0  0  0  0  0
  186.7970  176.9680  145.3020 C   0  0  0  0  0  0  0  0  0  0  0  0
  185.7750  178.2500  147.5800 C   0  0  0  0  0  3  0  0  0  0  0  0
  185.7180  177.3810  142.5660 C   0  0  0  0  0  3  0  0  0  0  0  0
  189.6420  176.7110  144.8440 C   0  0  2  0  0  3  0  0  0  0  0  0
  183.5660  177.8930  146.7620 F   0  0  0  0  0  0  0  0  0  0  0  0
  188.9190  175.6610  141.9090 O   0  0  0  0  0  0  0  0  0  0  0  0
  184.0940  178.5140  141.0450 C   0  0  0  0  0  1  0  0  0  0  0  0
  189.1640  177.2540  146.2010 C   0  0  0  0  0  2  0  0  0  0  0  0
  188.6450  175.6670  144.3380 C   0  0  2  0  0  3  0  0  0  0  0  0
  185.4120  177.1110  145.4760 C   0  0  0  0  0  3  0  0  0  0  0  0
  186.1950  177.4660  140.1950 C   0  0  0  0  0  3  0  0  0  0  0  0
  187.6740  177.4650  146.2910 C   0  0  0  0  0  0  0  0  0  0  0  0
  187.1540  178.1000  147.4240 C   0  0  0  0  0  3  0  0  0  0  0  0
  189.1180  174.9000  143.0940 C   0  0  0  0  0  2  0  0  0  0  0  0
  187.7340  176.3610  141.7030 C   0  0  0  0  0  0  0  0  0  0  0  0
  187.3840  176.7660  140.4110 C   0  0  0  0  0  3  0  0  0  0  0  0
  191.0350  176.1150  145.0100 C   0  0  0  0  0  2  0  0  0  0  0  0
  191.5590  178.1330  143.8240 O   0  0  0  0  0  1  0  0  0  0  0  0
  192.1090  177.1160  144.6110 C   0  0  2  0  0  3  0  0  0  0  0  0
  193.9780  173.8810  144.9840 C   0  0  1  0  0  3  0  0  0  0  0  0
  192.8500  175.0300  143.3980 C   0  0  0  0  0  2  0  0  0  0  0  0
  194.9040  177.4630  145.3780 O   0  0  0  0  0  1  0  0  0  0  0  0
  193.9180  172.8110  145.8770 O   0  0  0  0  0  1  0  0  0  0  0  0
  192.6910  174.1390  144.4770 O   0  0  0  0  0  0  0  0  0  0  0  0
  194.5760  176.2790  144.7190 C   0  0  2  0  0  3  0  0  0  0  0  0
  193.2750  176.4150  143.8990 C   0  0  2  0  0  3  0  0  0  0  0  0
  194.5100  175.1170  145.7070 C   0  0  0  0  0  2  0  0  0  0  0  0
  1  9  1  0  0  0  0
  1  6  1  0  0  0  0
  2 13  1  0  0  0  0
  2  5  1  0  0  0  0
  3  2  1  0  0  0  0
  4  7  2  0  0  0  0
  5 14  1  0  0  0  0
  5 16  2  0  0  0  0
  7  3  1  0  0  0  0
  8 21  1  1  0  0  0
  8 12  1  0  0  0  0
 10 18  1  0  0  0  0
 11  4  1  0  0  0  0
 12 16  1  0  0  0  0
 13 18  1  6  0  0  0
 13  8  1  0  0  0  0
 14  1  2  0  0  0  0
 15 20  2  0  0  0  0
 15  4  1  0  0  0  0
 16 17  1  0  0  0  0
 17  6  2  0  0  0  0
 19 10  1  0  0  0  0
 19  3  2  0  0  0  0
 20 19  1  0  0  0  0
 23 22  1  6  0  0  0
 23 21  1  0  0  0  0
 24 31  1  0  0  0  0
 24 27  1  1  0  0  0
 25 30  1  0  0  0  0
 25 28  1  0  0  0  0
 28 24  1  0  0  0  0
 29 26  1  1  0  0  0
 29 31  1  0  0  0  0
 30 23  1  1  0  0  0
 30 29  1  0  0  0  0
M  END
>  <MODEL>
1

>  <REMARK>
 VINA RESULT:      -8.8      0.000      0.000
  Name = 
  3 active torsions:
  status: ('A' for Active; 'I' for Inactive)
    1  A    between atoms: C_5  and  C_16
    2  A    between atoms: C_5  and  C_30
    3  A    between atoms: C_10  and  C_16
                            x       y       z     vdW  Elec       q    Type
                         _______ _______ _______ _____ _____    ______ ____

>  <TORSDO>
F 3

$$$$
=
 OpenBabel11112416453D

 31 35  0  0  1  0  0  0  0  0999 V2000
  184.6620  178.3250  146.5490 C   0  0  0  0  0  0  0  0  0  0  0  0
  187.3570  176.3080  144.8800 N   0  0  0  0  0  0  0  0  0  0  0  0
  187.2250  176.4550  143.4430 C   0  0  0  0  0  0  0  0  0  0  0  0
  186.1180  177.3820  141.4820 C   0  0  0  0  0  0  0  0  0  0  0  0
  186.6740  177.1880  145.7950 C   0  0  0  0  0  0  0  0  0  0  0  0
  185.3810  178.9170  147.5900 C   0  0  0  0  0  3  0  0  0  0  0  0
  186.1820  177.2000  142.8660 C   0  0  0  0  0  3  0  0  0  0  0  0
  189.5110  176.6480  145.9740 C   0  0  2  0  0  3  0  0  0  0  0  0
  183.3420  178.5870  146.4030 F   0  0  0  0  0  0  0  0  0  0  0  0
  189.2490  175.1620  143.1520 O   0  0  0  0  0  0  0  0  0  0  0  0
  185.0060  178.1690  140.8890 C   0  0  0  0  0  1  0  0  0  0  0  0
  188.8450  177.4520  147.1040 C   0  0  0  0  0  2  0  0  0  0  0  0
  188.5220  175.6080  145.4430 C   0  0  2  0  0  3  0  0  0  0  0  0
  185.3050  177.4610  145.6580 C   0  0  0  0  0  3  0  0  0  0  0  0
  187.1060  176.8390  140.6590 C   0  0  0  0  0  3  0  0  0  0  0  0
  187.3960  177.7840  146.8540 C   0  0  0  0  0  0  0  0  0  0  0  0
  186.7420  178.6410  147.7440 C   0  0  0  0  0  3  0  0  0  0  0  0
  189.1370  174.6050  144.4560 C   0  0  0  0  0  2  0  0  0  0  0  0
  188.2060  175.9010  142.6020 C   0  0  0  0  0  0  0  0  0  0  0  0
  188.1510  176.1000  141.2200 C   0  0  0  0  0  3  0  0  0  0  0  0
  190.7760  175.9890  146.5110 C   0  0  0  0  0  2  0  0  0  0  0  0
  191.8890  176.7470  144.5260 O   0  0  0  0  0  1  0  0  0  0  0  0
  192.0200  176.6270  145.9120 C   0  0  2  0  0  3  0  0  0  0  0  0
  195.5100  176.2460  144.5770 C   0  0  1  0  0  3  0  0  0  0  0  0
  194.4680  176.7820  146.5100 C   0  0  0  0  0  2  0  0  0  0  0  0
  192.6040  173.9450  144.9160 O   0  0  0  0  0  1  0  0  0  0  0  0
  196.1980  176.7510  143.4750 O   0  0  0  0  0  1  0  0  0  0  0  0
  194.9120  177.3080  145.2820 O   0  0  0  0  0  0  0  0  0  0  0  0
  193.6950  174.7180  145.3170 C   0  0  2  0  0  3  0  0  0  0  0  0
  193.2800  175.8370  146.2970 C   0  0  2  0  0  3  0  0  0  0  0  0
  194.4370  175.2670  144.1020 C   0  0  0  0  0  2  0  0  0  0  0  0
  1  6  1  0  0  0  0
  2 13  1  0  0  0  0
  2  5  1  0  0  0  0
  3  2  1  0  0  0  0
  4  7  2  0  0  0  0
  5 16  2  0  0  0  0
  6 17  2  0  0  0  0
  7  3  1  0  0  0  0
  8 21  1  1  0  0  0
  8 12  1  0  0  0  0
  9  1  1  0  0  0  0
 10 18  1  0  0  0  0
 11  4  1  0  0  0  0
 13 18  1  6  0  0  0
 13  8  1  0  0  0  0
 14  5  1  0  0  0  0
 14  1  2  0  0  0  0
 15 20  2  0  0  0  0
 15  4  1  0  0  0  0
 16 12  1  0  0  0  0
 16 17  1  0  0  0  0
 19 10  1  0  0  0  0
 19  3  2  0  0  0  0
 20 19  1  0  0  0  0
 23 22  1  6  0  0  0
 23 21  1  0  0  0  0
 24 27  1  6  0  0  0
 24 28  1  0  0  0  0
 28 25  1  0  0  0  0
 29 26  1  6  0  0  0
 29 30  1  0  0  0  0
 30 23  1  6  0  0  0
 30 25  1  0  0  0  0
 31 24  1  0  0  0  0
 31 29  1  0  0  0  0
M  END
>  <MODEL>
2

>  <REMARK>
 VINA RESULT:      -8.8      1.072      1.973
  Name = 
  3 active torsions:
  status: ('A' for Active; 'I' for Inactive)
    1  A    between atoms: C_5  and  C_16
    2  A    between atoms: C_5  and  C_30
    3  A    between atoms: C_10  and  C_16
                            x       y       z     vdW  Elec       q    Type
                         _______ _______ _______ _____ _____    ______ ____

>  <TORSDO>
F 3

$$$$
=
 OpenBabel11112416453D

 31 35  0  0  1  0  0  0  0  0999 V2000
  185.4070  177.0680  146.7300 C   0  0  0  0  0  0  0  0  0  0  0  0
  186.9160  176.6280  143.3180 N   0  0  0  0  0  0  0  0  0  0  0  0
  185.9900  177.1460  142.3290 C   0  0  0  0  0  0  0  0  0  0  0  0
  183.8830  178.2060  141.7240 C   0  0  0  0  0  0  0  0  0  0  0  0
  186.7670  176.9230  144.7210 C   0  0  0  0  0  0  0  0  0  0  0  0
  186.5130  177.5200  147.4520 C   0  0  0  0  0  3  0  0  0  0  0  0
  184.7280  177.6500  142.6880 C   0  0  0  0  0  3  0  0  0  0  0  0
  189.2600  177.3030  143.3030 C   0  0  2  0  0  3  0  0  0  0  0  0
  184.2100  176.9190  147.3460 F   0  0  0  0  0  0  0  0  0  0  0  0
  187.6360  176.7280  140.6060 O   0  0  0  0  0  0  0  0  0  0  0  0
  182.5500  178.7300  142.1200 C   0  0  0  0  0  1  0  0  0  0  0  0
  189.2540  177.4720  144.8310 C   0  0  0  0  0  2  0  0  0  0  0  0
  188.2660  176.2080  142.9100 C   0  0  2  0  0  3  0  0  0  0  0  0
  185.5340  176.7660  145.3710 C   0  0  0  0  0  3  0  0  0  0  0  0
  184.2970  178.2840  140.3930 C   0  0  0  0  0  3  0  0  0  0  0  0
  187.8850  177.3760  145.4570 C   0  0  0  0  0  0  0  0  0  0  0  0
  187.7490  177.6680  146.8180 C   0  0  0  0  0  3  0  0  0  0  0  0
  188.3330  175.8020  141.4310 C   0  0  0  0  0  2  0  0  0  0  0  0
  186.3890  177.2180  140.9830 C   0  0  0  0  0  0  0  0  0  0  0  0
  185.5510  177.7920  140.0230 C   0  0  0  0  0  3  0  0  0  0  0  0
  190.6730  176.9600  142.8460 C   0  0  0  0  0  2  0  0  0  0  0  0
  192.4190  177.7510  144.2900 O   0  0  0  0  0  1  0  0  0  0  0  0
  191.5750  176.6660  144.0360 C   0  0  2  0  0  3  0  0  0  0  0  0
  190.9290  172.9840  144.3920 C   0  0  1  0  0  3  0  0  0  0  0  0
  191.6410  174.4510  142.8270 C   0  0  0  0  0  2  0  0  0  0  0  0
  193.1860  175.3920  146.1120 O   0  0  0  0  0  1  0  0  0  0  0  0
  189.8510  172.2150  144.8280 O   0  0  0  0  0  1  0  0  0  0  0  0
  190.4890  173.8990  143.4180 O   0  0  0  0  0  0  0  0  0  0  0  0
  192.7120  174.5690  145.0900 C   0  0  2  0  0  3  0  0  0  0  0  0
  192.3680  175.3690  143.8150 C   0  0  2  0  0  3  0  0  0  0  0  0
  191.5300  173.7360  145.5790 C   0  0  0  0  0  2  0  0  0  0  0  0
  1  9  1  0  0  0  0
  1  6  1  0  0  0  0
  2  5  1  0  0  0  0
  3  7  1  0  0  0  0
  3  2  1  0  0  0  0
  4 11  1  0  0  0  0
  4  7  2  0  0  0  0
  5 14  1  0  0  0  0
  5 16  2  0  0  0  0
  8 21  1  1  0  0  0
  8 12  1  0  0  0  0
 10 19  1  0  0  0  0
 10 18  1  0  0  0  0
 12 16  1  0  0  0  0
 13 18  1  6  0  0  0
 13  8  1  0  0  0  0
 13  2  1  0  0  0  0
 14  1  2  0  0  0  0
 15  4  1  0  0  0  0
 16 17  1  0  0  0  0
 17  6  2  0  0  0  0
 19  3  2  0  0  0  0
 20 15  2  0  0  0  0
 20 19  1  0  0  0  0
 21 23  1  0  0  0  0
 23 22  1  6  0  0  0
 24 27  1  1  0  0  0
 24 31  1  0  0  0  0
 25 28  1  0  0  0  0
 25 30  1  0  0  0  0
 28 24  1  0  0  0  0
 29 31  1  0  0  0  0
 29 26  1  1  0  0  0
 30 23  1  1  0  0  0
 30 29  1  0  0  0  0
M  END
>  <MODEL>
3

>  <REMARK>
 VINA RESULT:      -8.4      1.530      1.919
  Name = 
  3 active torsions:
  status: ('A' for Active; 'I' for Inactive)
    1  A    between atoms: C_5  and  C_16
    2  A    between atoms: C_5  and  C_30
    3  A    between atoms: C_10  and  C_16
                            x       y       z     vdW  Elec       q    Type
                         _______ _______ _______ _____ _____    ______ ____

>  <TORSDO>
F 3

$$$$
=
 OpenBabel11112416453D

 31 35  0  0  1  0  0  0  0  0999 V2000
  186.9880  177.4250  140.9680 C   0  0  0  0  0  0  0  0  0  0  0  0
  188.3050  177.1930  144.4800 N   0  0  0  0  0  0  0  0  0  0  0  0
  187.2780  177.6590  145.3920 C   0  0  0  0  0  0  0  0  0  0  0  0
  185.0510  178.5390  145.8350 C   0  0  0  0  0  0  0  0  0  0  0  0
  188.0050  176.8740  143.1060 C   0  0  0  0  0  0  0  0  0  0  0  0
  187.4310  176.2110  140.4390 C   0  0  0  0  0  3  0  0  0  0  0  0
  186.0480  178.1610  144.9330 C   0  0  0  0  0  3  0  0  0  0  0  0
  189.4300  175.0620  144.8540 C   0  0  2  0  0  3  0  0  0  0  0  0
  186.2790  178.2820  140.1960 F   0  0  0  0  0  0  0  0  0  0  0  0
  188.6940  177.0460  147.2560 O   0  0  0  0  0  0  0  0  0  0  0  0
  183.7580  179.0700  145.3310 C   0  0  0  0  0  1  0  0  0  0  0  0
  189.3220  174.7070  143.3620 C   0  0  0  0  0  2  0  0  0  0  0  0
  189.5340  176.5810  145.0080 C   0  0  2  0  0  3  0  0  0  0  0  0
  187.2780  177.7570  142.2940 C   0  0  0  0  0  3  0  0  0  0  0  0
  185.2630  178.4030  147.2080 C   0  0  0  0  0  3  0  0  0  0  0  0
  188.4570  175.6500  142.5640 C   0  0  0  0  0  0  0  0  0  0  0  0
  188.1680  175.3300  141.2340 C   0  0  0  0  0  3  0  0  0  0  0  0
  189.8560  177.0470  146.4340 C   0  0  0  0  0  2  0  0  0  0  0  0
  187.4850  177.5420  146.7780 C   0  0  0  0  0  0  0  0  0  0  0  0
  186.4790  177.9020  147.6790 C   0  0  0  0  0  3  0  0  0  0  0  0
  190.6460  174.3600  145.4460 C   0  0  0  0  0  2  0  0  0  0  0  0
  192.3340  173.7020  143.8720 O   0  0  0  0  0  1  0  0  0  0  0  0
  191.9160  174.7470  144.7020 C   0  0  2  0  0  3  0  0  0  0  0  0
  195.4300  176.0470  144.4550 C   0  0  1  0  0  3  0  0  0  0  0  0
  193.4630  176.6110  145.4140 C   0  0  0  0  0  2  0  0  0  0  0  0
  193.9210  172.9040  145.7560 O   0  0  0  0  0  1  0  0  0  0  0  0
  196.3040  176.3170  143.4030 O   0  0  0  0  0  1  0  0  0  0  0  0
  194.2000  176.6880  144.2170 O   0  0  0  0  0  0  0  0  0  0  0  0
  194.2650  174.2560  145.7240 C   0  0  2  0  0  3  0  0  0  0  0  0
  193.0200  175.1680  145.6840 C   0  0  2  0  0  3  0  0  0  0  0  0
  195.2180  174.5380  144.5660 C   0  0  0  0  0  2  0  0  0  0  0  0
  1 14  1  0  0  0  0
  2 13  1  0  0  0  0
  2  3  1  0  0  0  0
  3 19  1  0  0  0  0
  4 15  2  0  0  0  0
  5  2  1  0  0  0  0
  6  1  2  0  0  0  0
  6 17  1  0  0  0  0
  7  3  2  0  0  0  0
  7  4  1  0  0  0  0
  8 13  1  0  0  0  0
  8 21  1  6  0  0  0
  9  1  1  0  0  0  0
 11  4  1  0  0  0  0
 12  8  1  0  0  0  0
 13 18  1  1  0  0  0
 14  5  2  0  0  0  0
 15 20  1  0  0  0  0
 16  5  1  0  0  0  0
 16 12  1  0  0  0  0
 17 16  2  0  0  0  0
 18 10  1  0  0  0  0
 19 10  1  0  0  0  0
 19 20  2  0  0  0  0
 23 22  1  1  0  0  0
 23 21  1  0  0  0  0
 24 27  1  6  0  0  0
 24 31  1  0  0  0  0
 25 30  1  0  0  0  0
 28 24  1  0  0  0  0
 28 25  1  0  0  0  0
 29 26  1  6  0  0  0
 30 23  1  6  0  0  0
 30 29  1  0  0  0  0
 31 29  1  0  0  0  0
M  END
>  <MODEL>
4

>  <REMARK>
 VINA RESULT:      -8.4      1.992      4.384
  Name = 
  3 active torsions:
  status: ('A' for Active; 'I' for Inactive)
    1  A    between atoms: C_5  and  C_16
    2  A    between atoms: C_5  and  C_30
    3  A    between atoms: C_10  and  C_16
                            x       y       z     vdW  Elec       q    Type
                         _______ _______ _______ _____ _____    ______ ____

>  <TORSDO>
F 3

$$$$
=
 OpenBabel11112416453D

 31 35  0  0  1  0  0  0  0  0999 V2000
  194.8680  175.2020  144.9870 C   0  0  0  0  0  0  0  0  0  0  0  0
  191.3480  175.1220  143.6750 N   0  0  0  0  0  0  0  0  0  0  0  0
  191.0630  173.7840  143.1920 C   0  0  0  0  0  0  0  0  0  0  0  0
  191.7160  171.4730  142.7890 C   0  0  0  0  0  0  0  0  0  0  0  0
  192.4940  175.3950  144.5080 C   0  0  0  0  0  0  0  0  0  0  0  0
  194.6960  175.9390  146.1610 C   0  0  0  0  0  3  0  0  0  0  0  0
  192.0370  172.7700  143.1960 C   0  0  0  0  0  3  0  0  0  0  0  0
  189.8170  176.2460  145.2050 C   0  0  2  0  0  3  0  0  0  0  0  0
  196.0970  174.7470  144.6470 F   0  0  0  0  0  0  0  0  0  0  0  0
  188.7780  174.4550  142.7650 O   0  0  0  0  0  0  0  0  0  0  0  0
  192.7590  170.4140  142.7960 C   0  0  0  0  0  1  0  0  0  0  0  0
  190.9910  176.7450  146.0630 C   0  0  0  0  0  2  0  0  0  0  0  0
  190.2710  176.1210  143.7490 C   0  0  2  0  0  3  0  0  0  0  0  0
  193.7730  174.9350  144.1620 C   0  0  0  0  0  3  0  0  0  0  0  0
  190.4130  171.1680  142.3900 C   0  0  0  0  0  3  0  0  0  0  0  0
  192.3250  176.1460  145.6930 C   0  0  0  0  0  0  0  0  0  0  0  0
  193.4290  176.4140  146.5080 C   0  0  0  0  0  3  0  0  0  0  0  0
  189.1340  175.8320  142.7600 C   0  0  0  0  0  2  0  0  0  0  0  0
  189.7590  173.4670  142.7750 C   0  0  0  0  0  0  0  0  0  0  0  0
  189.4340  172.1640  142.3860 C   0  0  0  0  0  3  0  0  0  0  0  0
  188.6520  177.2200  145.3420 C   0  0  0  0  0  2  0  0  0  0  0  0
  188.1540  175.6080  147.0480 O   0  0  0  0  0  1  0  0  0  0  0  0
  187.7470  176.8290  146.5010 C   0  0  2  0  0  3  0  0  0  0  0  0
  185.4420  179.0310  144.5170 C   0  0  1  0  0  3  0  0  0  0  0  0
  186.1660  176.8900  144.5340 C   0  0  0  0  0  2  0  0  0  0  0  0
  185.5650  177.9580  148.0780 O   0  0  0  0  0  1  0  0  0  0  0  0
  185.5670  180.2720  143.8940 O   0  0  0  0  0  1  0  0  0  0  0  0
  186.4880  178.1890  144.0960 O   0  0  0  0  0  0  0  0  0  0  0  0
  185.3570  177.8510  146.7030 C   0  0  2  0  0  3  0  0  0  0  0  0
  186.2770  176.7910  146.0590 C   0  0  2  0  0  3  0  0  0  0  0  0
  185.5000  179.2150  146.0330 C   0  0  0  0  0  2  0  0  0  0  0  0
  1  6  1  0  0  0  0
  2 13  1  0  0  0  0
  2  5  1  0  0  0  0
  3  7  1  0  0  0  0
  3  2  1  0  0  0  0
  4 11  1  0  0  0  0
  4  7  2  0  0  0  0
  5 16  2  0  0  0  0
  6 17  2  0  0  0  0
  8 21  1  6  0  0  0
  8 12  1  0  0  0  0
  9  1  1  0  0  0  0
 10 19  1  0  0  0  0
 13 18  1  6  0  0  0
 13  8  1  0  0  0  0
 14  5  1  0  0  0  0
 14  1  2  0  0  0  0
 15  4  1  0  0  0  0
 16 12  1  0  0  0  0
 16 17  1  0  0  0  0
 18 10  1  0  0  0  0
 19  3  2  0  0  0  0
 20 15  2  0  0  0  0
 20 19  1  0  0  0  0
 21 23  1  0  0  0  0
 23 22  1  6  0  0  0
 24 27  1  6  0  0  0
 24 31  1  0  0  0  0
 25 30  1  0  0  0  0
 28 24  1  0  0  0  0
 28 25  1  0  0  0  0
 29 26  1  1  0  0  0
 30 23  1  6  0  0  0
 30 29  1  0  0  0  0
 31 29  1  0  0  0  0
M  END
>  <MODEL>
5

>  <REMARK>
 VINA RESULT:      -8.3      3.689      7.452
  Name = 
  3 active torsions:
  status: ('A' for Active; 'I' for Inactive)
    1  A    between atoms: C_5  and  C_16
    2  A    between atoms: C_5  and  C_30
    3  A    between atoms: C_10  and  C_16
                            x       y       z     vdW  Elec       q    Type
                         _______ _______ _______ _____ _____    ______ ____

>  <TORSDO>
F 3

$$$$
=
 OpenBabel11112416453D

 31 35  0  0  1  0  0  0  0  0999 V2000
  185.8970  178.2210  140.7540 C   0  0  0  0  0  0  0  0  0  0  0  0
  188.1200  177.7420  143.7450 N   0  0  0  0  0  0  0  0  0  0  0  0
  187.3230  177.9020  144.9470 C   0  0  0  0  0  0  0  0  0  0  0  0
  185.2000  178.3260  146.0630 C   0  0  0  0  0  0  0  0  0  0  0  0
  187.5080  177.5650  142.4520 C   0  0  0  0  0  0  0  0  0  0  0  0
  186.3340  177.1810  139.9310 C   0  0  0  0  0  3  0  0  0  0  0  0
  185.9610  178.2460  144.8940 C   0  0  0  0  0  3  0  0  0  0  0  0
  189.5670  175.7990  143.4590 C   0  0  2  0  0  3  0  0  0  0  0  0
  184.9040  179.0430  140.3390 F   0  0  0  0  0  0  0  0  0  0  0  0
  189.2510  177.2890  146.2740 O   0  0  0  0  0  0  0  0  0  0  0  0
  183.7630  178.6950  145.9890 C   0  0  0  0  0  1  0  0  0  0  0  0
  189.1110  175.6360  142.0000 C   0  0  0  0  0  2  0  0  0  0  0  0
  189.5130  177.2800  143.8440 C   0  0  2  0  0  3  0  0  0  0  0  0
  186.4840  178.4150  142.0070 C   0  0  0  0  0  3  0  0  0  0  0  0
  185.7870  178.0440  147.2990 C   0  0  0  0  0  3  0  0  0  0  0  0
  187.9510  176.5190  141.6120 C   0  0  0  0  0  0  0  0  0  0  0  0
  187.3620  176.3380  140.3570 C   0  0  0  0  0  3  0  0  0  0  0  0
  190.1410  177.5960  145.2080 C   0  0  0  0  0  2  0  0  0  0  0  0
  187.9040  177.6340  146.1980 C   0  0  0  0  0  0  0  0  0  0  0  0
  187.1380  177.6960  147.3660 C   0  0  0  0  0  3  0  0  0  0  0  0
  190.9760  175.2380  143.6060 C   0  0  0  0  0  2  0  0  0  0  0  0
  191.9270  174.7660  145.7580 O   0  0  0  0  0  1  0  0  0  0  0  0
  191.0590  174.2720  144.7790 C   0  0  2  0  0  3  0  0  0  0  0  0
  190.5970  172.1920  141.6860 C   0  0  1  0  0  3  0  0  0  0  0  0
  192.2720  172.9550  142.9990 C   0  0  0  0  0  2  0  0  0  0  0  0
  189.4390  171.8820  145.2100 O   0  0  0  0  0  1  0  0  0  0  0  0
  189.9250  172.3680  140.4780 O   0  0  0  0  0  1  0  0  0  0  0  0
  191.4290  173.3010  141.9250 O   0  0  0  0  0  0  0  0  0  0  0  0
  190.3270  171.8530  144.1340 C   0  0  2  0  0  3  0  0  0  0  0  0
  191.4750  172.8710  144.3060 C   0  0  2  0  0  3  0  0  0  0  0  0
  189.5790  172.0510  142.8180 C   0  0  0  0  0  2  0  0  0  0  0  0
  1 14  1  0  0  0  0
  2 13  1  0  0  0  0
  2  3  1  0  0  0  0
  3 19  1  0  0  0  0
  4 15  2  0  0  0  0
  5  2  1  0  0  0  0
  6 17  1  0  0  0  0
  6  1  2  0  0  0  0
  7  3  2  0  0  0  0
  7  4  1  0  0  0  0
  8 21  1  6  0  0  0
  8 13  1  0  0  0  0
  9  1  1  0  0  0  0
 11  4  1  0  0  0  0
 12  8  1  0  0  0  0
 13 18  1  1  0  0  0
 14  5  2  0  0  0  0
 15 20  1  0  0  0  0
 16 12  1  0  0  0  0
 16  5  1  0  0  0  0
 17 16  2  0  0  0  0
 18 10  1  0  0  0  0
 19 10  1  0  0  0  0
 19 20  2  0  0  0  0
 21 23  1  0  0  0  0
 23 22  1  1  0  0  0
 24 27  1  6  0  0  0
 24 28  1  0  0  0  0
 24 31  1  0  0  0  0
 25 30  1  0  0  0  0
 28 25  1  0  0  0  0
 29 30  1  0  0  0  0
 29 26  1  1  0  0  0
 30 23  1  6  0  0  0
 31 29  1  0  0  0  0
M  END
>  <MODEL>
6

>  <REMARK>
 VINA RESULT:      -8.2      2.339      4.933
  Name = 
  3 active torsions:
  status: ('A' for Active; 'I' for Inactive)
    1  A    between atoms: C_5  and  C_16
    2  A    between atoms: C_5  and  C_30
    3  A    between atoms: C_10  and  C_16
                            x       y       z     vdW  Elec       q    Type
                         _______ _______ _______ _____ _____    ______ ____

>  <TORSDO>
F 3

$$$$
=
 OpenBabel11112416453D

 31 35  0  0  1  0  0  0  0  0999 V2000
  185.9930  177.5540  146.1440 C   0  0  0  0  0  0  0  0  0  0  0  0
  187.7060  175.6320  143.4070 N   0  0  0  0  0  0  0  0  0  0  0  0
  187.2300  176.1220  142.1280 C   0  0  0  0  0  0  0  0  0  0  0  0
  185.8440  177.6140  140.7920 C   0  0  0  0  0  0  0  0  0  0  0  0
  187.4730  176.3630  144.6290 C   0  0  0  0  0  0  0  0  0  0  0  0
  187.0620  177.7890  147.0110 C   0  0  0  0  0  3  0  0  0  0  0  0
  186.2360  177.1120  142.0350 C   0  0  0  0  0  3  0  0  0  0  0  0
  190.0960  175.4220  143.8480 C   0  0  2  0  0  3  0  0  0  0  0  0
  184.7580  178.0160  146.4510 F   0  0  0  0  0  0  0  0  0  0  0  0
  188.8140  174.6720  141.0130 O   0  0  0  0  0  0  0  0  0  0  0  0
  184.7890  178.6570  140.7120 C   0  0  0  0  0  1  0  0  0  0  0  0
  189.9220  176.0260  145.2510 C   0  0  0  0  0  2  0  0  0  0  0  0
  188.8200  174.6730  143.4580 C   0  0  2  0  0  3  0  0  0  0  0  0
  186.1970  176.8400  144.9600 C   0  0  0  0  0  3  0  0  0  0  0  0
  186.4540  177.1470  139.6250 C   0  0  0  0  0  3  0  0  0  0  0  0
  188.5510  176.5970  145.5120 C   0  0  0  0  0  0  0  0  0  0  0  0
  188.3350  177.3070  146.6980 C   0  0  0  0  0  3  0  0  0  0  0  0
  188.9450  173.8510  142.1670 C   0  0  0  0  0  2  0  0  0  0  0  0
  187.8250  175.6500  140.9450 C   0  0  0  0  0  0  0  0  0  0  0  0
  187.4470  176.1670  139.7030 C   0  0  0  0  0  3  0  0  0  0  0  0
  191.3050  174.4940  143.8520 C   0  0  0  0  0  2  0  0  0  0  0  0
  192.2840  174.5890  141.6640 O   0  0  0  0  0  1  0  0  0  0  0  0
  192.4210  175.0470  142.9780 C   0  0  2  0  0  3  0  0  0  0  0  0
  194.5040  176.1600  145.8970 C   0  0  1  0  0  3  0  0  0  0  0  0
  193.6710  174.2510  145.0210 C   0  0  0  0  0  2  0  0  0  0  0  0
  194.8860  176.4070  142.2040 O   0  0  0  0  0  1  0  0  0  0  0  0
  194.3520  177.1140  146.9030 O   0  0  0  0  0  1  0  0  0  0  0  0
  193.3580  175.3440  145.8510 O   0  0  0  0  0  0  0  0  0  0  0  0
  194.8670  175.8080  143.4640 C   0  0  2  0  0  3  0  0  0  0  0  0
  193.7980  174.6990  143.5610 C   0  0  2  0  0  3  0  0  0  0  0  0
  194.6970  176.8630  144.5540 C   0  0  0  0  0  2  0  0  0  0  0  0
  1  9  1  0  0  0  0
  1  6  1  0  0  0  0
  2 13  1  0  0  0  0
  2  5  1  0  0  0  0
  3  2  1  0  0  0  0
  4  7  2  0  0  0  0
  5 14  1  0  0  0  0
  5 16  2  0  0  0  0
  7  3  1  0  0  0  0
  8 21  1  1  0  0  0
  8 12  1  0  0  0  0
 10 18  1  0  0  0  0
 11  4  1  0  0  0  0
 12 16  1  0  0  0  0
 13 18  1  6  0  0  0
 13  8  1  0  0  0  0
 14  1  2  0  0  0  0
 15 20  2  0  0  0  0
 15  4  1  0  0  0  0
 16 17  1  0  0  0  0
 17  6  2  0  0  0  0
 19 10  1  0  0  0  0
 19  3  2  0  0  0  0
 20 19  1  0  0  0  0
 23 22  1  6  0  0  0
 23 21  1  0  0  0  0
 24 27  1  1  0  0  0
 25 28  1  0  0  0  0
 28 24  1  0  0  0  0
 29 26  1  6  0  0  0
 29 30  1  0  0  0  0
 29 31  1  0  0  0  0
 30 23  1  1  0  0  0
 30 25  1  0  0  0  0
 31 24  1  0  0  0  0
M  END
>  <MODEL>
7

>  <REMARK>
 VINA RESULT:      -7.8      1.384      1.910
  Name = 
  3 active torsions:
  status: ('A' for Active; 'I' for Inactive)
    1  A    between atoms: C_5  and  C_16
    2  A    between atoms: C_5  and  C_30
    3  A    between atoms: C_10  and  C_16
                            x       y       z     vdW  Elec       q    Type
                         _______ _______ _______ _____ _____    ______ ____

>  <TORSDO>
F 3

$$$$
=
 OpenBabel11112416453D

 31 35  0  0  1  0  0  0  0  0999 V2000
  184.9290  177.7600  146.6380 C   0  0  0  0  0  0  0  0  0  0  0  0
  187.2880  176.5320  143.9830 N   0  0  0  0  0  0  0  0  0  0  0  0
  186.7480  176.8830  142.6840 C   0  0  0  0  0  0  0  0  0  0  0  0
  185.0380  177.9100  141.2860 C   0  0  0  0  0  0  0  0  0  0  0  0
  186.7790  177.1230  145.1970 C   0  0  0  0  0  0  0  0  0  0  0  0
  185.8280  178.2920  147.5640 C   0  0  0  0  0  3  0  0  0  0  0  0
  185.5030  177.5200  142.5440 C   0  0  0  0  0  3  0  0  0  0  0  0
  189.6000  177.0570  144.5550 C   0  0  2  0  0  3  0  0  0  0  0  0
  183.5980  177.8120  146.8790 F   0  0  0  0  0  0  0  0  0  0  0  0
  188.7570  176.0210  141.6470 O   0  0  0  0  0  0  0  0  0  0  0  0
  183.7180  178.5790  141.1570 C   0  0  0  0  0  1  0  0  0  0  0  0
  189.1780  177.5410  145.9520 C   0  0  0  0  0  2  0  0  0  0  0  0
  188.6400  175.9610  144.0870 C   0  0  2  0  0  3  0  0  0  0  0  0
  185.4030  177.1750  145.4610 C   0  0  0  0  0  3  0  0  0  0  0  0
  185.8210  177.6830  140.1510 C   0  0  0  0  0  3  0  0  0  0  0  0
  187.6860  177.6560  146.1410 C   0  0  0  0  0  0  0  0  0  0  0  0
  187.2020  178.2330  147.3190 C   0  0  0  0  0  3  0  0  0  0  0  0
  189.0780  175.2510  142.7990 C   0  0  0  0  0  2  0  0  0  0  0  0
  187.5200  176.6490  141.5320 C   0  0  0  0  0  0  0  0  0  0  0  0
  187.0630  177.0560  140.2760 C   0  0  0  0  0  3  0  0  0  0  0  0
  191.0350  176.5470  144.6190 C   0  0  0  0  0  2  0  0  0  0  0  0
  190.8640  174.9400  146.3920 O   0  0  0  0  0  1  0  0  0  0  0  0
  191.0760  175.0790  145.0170 C   0  0  2  0  0  3  0  0  0  0  0  0
  192.7100  174.1600  141.7630 C   0  0  1  0  0  3  0  0  0  0  0  0
  193.1660  175.3530  143.6280 C   0  0  0  0  0  2  0  0  0  0  0  0
  191.4070  172.2020  144.6470 O   0  0  0  0  0  1  0  0  0  0  0  0
  192.3360  174.2390  140.4220 O   0  0  0  0  0  1  0  0  0  0  0  0
  192.5310  175.4150  142.3730 O   0  0  0  0  0  0  0  0  0  0  0  0
  192.2730  173.0310  143.9340 C   0  0  2  0  0  3  0  0  0  0  0  0
  192.3960  174.4280  144.5780 C   0  0  2  0  0  3  0  0  0  0  0  0
  191.8510  173.1110  142.4690 C   0  0  0  0  0  2  0  0  0  0  0  0
  1  9  1  0  0  0  0
  1  6  1  0  0  0  0
  2 13  1  0  0  0  0
  2  5  1  0  0  0  0
  3  2  1  0  0  0  0
  4  7  2  0  0  0  0
  5 14  1  0  0  0  0
  5 16  2  0  0  0  0
  7  3  1  0  0  0  0
  8 21  1  1  0  0  0
  8 12  1  0  0  0  0
 10 18  1  0  0  0  0
 11  4  1  0  0  0  0
 12 16  1  0  0  0  0
 13 18  1  6  0  0  0
 13  8  1  0  0  0  0
 14  1  2  0  0  0  0
 15 20  2  0  0  0  0
 15  4  1  0  0  0  0
 16 17  1  0  0  0  0
 17  6  2  0  0  0  0
 19 10  1  0  0  0  0
 19  3  2  0  0  0  0
 20 19  1  0  0  0  0
 21 23  1  0  0  0  0
 23 22  1  1  0  0  0
 24 27  1  6  0  0  0
 24 28  1  0  0  0  0
 24 31  1  0  0  0  0
 25 30  1  0  0  0  0
 28 25  1  0  0  0  0
 29 30  1  0  0  0  0
 29 26  1  1  0  0  0
 30 23  1  6  0  0  0
 31 29  1  0  0  0  0
M  END
>  <MODEL>
8

>  <REMARK>
 VINA RESULT:      -7.8      1.409      2.283
  Name = 
  3 active torsions:
  status: ('A' for Active; 'I' for Inactive)
    1  A    between atoms: C_5  and  C_16
    2  A    between atoms: C_5  and  C_30
    3  A    between atoms: C_10  and  C_16
                            x       y       z     vdW  Elec       q    Type
                         _______ _______ _______ _____ _____    ______ ____

>  <TORSDO>
F 3

$$$$
=
 OpenBabel11112416453D

 31 35  0  0  1  0  0  0  0  0999 V2000
  188.0720  174.6410  139.7720 C   0  0  0  0  0  0  0  0  0  0  0  0
  188.5840  176.5060  142.9930 N   0  0  0  0  0  0  0  0  0  0  0  0
  187.3840  177.2660  143.2860 C   0  0  0  0  0  0  0  0  0  0  0  0
  185.1180  177.9740  142.7450 C   0  0  0  0  0  0  0  0  0  0  0  0
  188.5920  175.4600  142.0000 C   0  0  0  0  0  0  0  0  0  0  0  0
  188.6150  173.3970  140.0980 C   0  0  0  0  0  3  0  0  0  0  0  0
  186.2880  177.2880  142.4070 C   0  0  0  0  0  3  0  0  0  0  0  0
  189.5910  175.0680  144.6870 C   0  0  2  0  0  3  0  0  0  0  0  0
  187.5530  174.8520  138.5390 F   0  0  0  0  0  0  0  0  0  0  0  0
  188.3540  177.9320  145.4000 O   0  0  0  0  0  0  0  0  0  0  0  0
  183.9690  177.9900  141.8030 C   0  0  0  0  0  1  0  0  0  0  0  0
  189.8120  173.9520  143.6530 C   0  0  0  0  0  2  0  0  0  0  0  0
  189.6650  176.4270  143.9890 C   0  0  2  0  0  3  0  0  0  0  0  0
  188.0650  175.6700  140.7170 C   0  0  0  0  0  3  0  0  0  0  0  0
  185.0230  178.6300  143.9740 C   0  0  0  0  0  3  0  0  0  0  0  0
  189.1470  174.2010  142.3230 C   0  0  0  0  0  0  0  0  0  0  0  0
  189.1560  173.1810  141.3670 C   0  0  0  0  0  3  0  0  0  0  0  0
  189.6680  177.6260  144.9480 C   0  0  0  0  0  2  0  0  0  0  0  0
  187.2810  177.9430  144.5130 C   0  0  0  0  0  0  0  0  0  0  0  0
  186.1030  178.6120  144.8590 C   0  0  0  0  0  3  0  0  0  0  0  0
  190.6450  174.9480  145.7820 C   0  0  0  0  0  2  0  0  0  0  0  0
  192.7200  173.7870  146.1060 O   0  0  0  0  0  1  0  0  0  0  0  0
  191.9980  174.5670  145.1980 C   0  0  2  0  0  3  0  0  0  0  0  0
  195.6010  175.4570  144.6260 C   0  0  1  0  0  3  0  0  0  0  0  0
  193.6270  175.5290  143.5270 C   0  0  0  0  0  2  0  0  0  0  0  0
  193.0290  176.5380  147.0890 O   0  0  0  0  0  1  0  0  0  0  0  0
  196.8110  174.7760  144.7530 O   0  0  0  0  0  1  0  0  0  0  0  0
  194.7140  174.6920  143.8460 O   0  0  0  0  0  0  0  0  0  0  0  0
  193.6820  176.4440  145.8590 C   0  0  2  0  0  3  0  0  0  0  0  0
  192.7830  175.8170  144.7730 C   0  0  2  0  0  3  0  0  0  0  0  0
  195.0030  175.6940  146.0120 C   0  0  0  0  0  2  0  0  0  0  0  0
  1  6  2  0  0  0  0
  1 14  1  0  0  0  0
  2  3  1  0  0  0  0
  2 13  1  0  0  0  0
  3 19  1  0  0  0  0
  4 15  2  0  0  0  0
  5 16  1  0  0  0  0
  5  2  1  0  0  0  0
  6 17  1  0  0  0  0
  7  4  1  0  0  0  0
  7  3  2  0  0  0  0
  8 21  1  1  0  0  0
  9  1  1  0  0  0  0
 11  4  1  0  0  0  0
 12  8  1  0  0  0  0
 13  8  1  0  0  0  0
 13 18  1  1  0  0  0
 14  5  2  0  0  0  0
 15 20  1  0  0  0  0
 16 12  1  0  0  0  0
 17 16  2  0  0  0  0
 18 10  1  0  0  0  0
 19 20  2  0  0  0  0
 19 10  1  0  0  0  0
 23 21  1  0  0  0  0
 23 22  1  1  0  0  0
 24 27  1  1  0  0  0
 24 31  1  0  0  0  0
 25 28  1  0  0  0  0
 25 30  1  0  0  0  0
 28 24  1  0  0  0  0
 29 31  1  0  0  0  0
 29 26  1  1  0  0  0
 30 23  1  1  0  0  0
 30 29  1  0  0  0  0
M  END
>  <MODEL>
9

>  <REMARK>
 VINA RESULT:      -7.7      2.532      4.286
  Name = 
  3 active torsions:
  status: ('A' for Active; 'I' for Inactive)
    1  A    between atoms: C_5  and  C_16
    2  A    between atoms: C_5  and  C_30
    3  A    between atoms: C_10  and  C_16
                            x       y       z     vdW  Elec       q    Type
                         _______ _______ _______ _____ _____    ______ ____

>  <TORSDO>
F 3

$$$$
