=
 OpenBabel11112417353D

 28 32  0  0  1  0  0  0  0  0999 V2000
  185.3650  177.5380  145.4170 C   0  0  0  0  0  0  0  0  0  0  0  0
  186.1760  178.1240  140.8900 O   0  0  0  0  0  0  0  0  0  0  0  0
  191.4610  177.1190  145.7580 O   0  0  0  0  0  0  0  0  0  0  0  0
  184.6630  179.8530  143.9940 C   0  0  0  0  0  3  0  0  0  0  0  0
  190.3620  175.8200  144.0900 C   0  0  1  0  0  3  0  0  0  0  0  0
  185.7050  176.3570  146.2810 C   0  0  0  0  0  2  0  0  0  0  0  0
  188.6080  178.1710  141.2650 O   0  0  0  0  0  0  0  0  0  0  0  0
  187.3920  177.2910  141.1780 S   0  0  0  0  0  0  0  0  0  0  0  0
  188.1650  174.8870  140.2640 C   0  0  0  0  0  0  0  0  0  0  0  0
  187.1590  176.3940  142.6560 N   0  0  1  0  0  0  0  0  0  0  0  0
  187.4750  178.8350  147.7780 N   0  0  0  0  0  2  0  0  0  0  0  0
  188.1190  176.4180  144.8550 C   0  0  1  0  0  3  0  0  0  0  0  0
  188.8990  174.7600  141.5580 C   0  0  0  0  0  2  0  0  0  0  0  0
  187.5880  176.1380  139.9170 N   0  0  0  0  0  2  0  0  0  0  0  0
  187.5160  177.5690  147.5800 C   0  0  0  0  0  0  0  0  0  0  0  0
  186.1680  177.9620  144.3160 C   0  0  0  0  0  0  0  0  0  0  0  0
  190.4140  176.7490  145.2490 C   0  0  0  0  0  0  0  0  0  0  0  0
  188.3140  173.9560  139.3370 C   0  0  0  0  0  2  0  0  0  0  0  0
  188.8070  176.9270  147.1600 C   0  0  0  0  0  2  0  0  0  0  0  0
  185.8000  179.1290  143.6330 C   0  0  0  0  0  3  0  0  0  0  0  0
  184.2240  178.2730  145.7650 C   0  0  0  0  0  3  0  0  0  0  0  0
  183.8710  179.4210  145.0560 C   0  0  0  0  0  3  0  0  0  0  0  0
  186.2440  176.7710  147.6570 C   0  0  0  0  0  2  0  0  0  0  0  0
  188.8840  175.3740  144.0870 C   0  0  1  0  0  3  0  0  0  0  0  0
  189.0810  177.2330  145.6920 C   0  0  2  0  0  3  0  0  0  0  0  0
  188.0930  175.2470  142.7830 C   0  0  1  0  0  3  0  0  0  0  0  0
  190.7960  176.5940  142.8520 C   0  0  0  0  0  1  0  0  0  0  0  0
  187.4180  177.2590  143.8110 C   0  0  2  0  0  3  0  0  0  0  0  0
  1 21  1  0  0  0  0
  1  6  1  0  0  0  0
  2  8  2  0  0  0  0
  4 22  1  0  0  0  0
  5 27  1  6  0  0  0
  5 17  1  0  0  0  0
  6 23  1  0  0  0  0
  8  7  2  0  0  0  0
  9 13  1  0  0  0  0
 10  8  1  6  0  0  0
 10 26  1  0  0  0  0
 10 28  1  0  0  0  0
 12 25  1  0  0  0  0
 13 26  1  0  0  0  0
 14  9  1  0  0  0  0
 14  8  1  0  0  0  0
 15 23  1  0  0  0  0
 15 11  2  0  0  0  0
 16  1  2  0  0  0  0
 17 25  1  0  0  0  0
 17  3  2  0  0  0  0
 18  9  2  0  0  0  0
 19 15  1  0  0  0  0
 20  4  2  0  0  0  0
 20 16  1  0  0  0  0
 22 21  2  0  0  0  0
 24  5  1  0  0  0  0
 24 12  1  0  0  0  0
 25 19  1  0  0  0  0
 26 24  1  0  0  0  0
 28 16  1  0  0  0  0
 28 12  1  0  0  0  0
M  END
>  <MODEL>
1

>  <REMARK>
 VINA RESULT:      -8.3      0.000      0.000
  Name = 
  0 active torsions:
  status: ('A' for Active; 'I' for Inactive)
                            x       y       z     vdW  Elec       q    Type
                         _______ _______ _______ _____ _____    ______ ____

>  <TORSDO>
F 0

$$$$
=
 OpenBabel11112417353D

 28 32  0  0  1  0  0  0  0  0999 V2000
  186.1680  178.5380  144.8810 C   0  0  0  0  0  0  0  0  0  0  0  0
  188.5330  175.7860  147.7670 O   0  0  0  0  0  0  0  0  0  0  0  0
  188.4590  174.8440  140.5730 O   0  0  0  0  0  0  0  0  0  0  0  0
  184.9700  176.9970  146.8970 C   0  0  0  0  0  3  0  0  0  0  0  0
  189.9730  175.7060  142.2000 C   0  0  1  0  0  3  0  0  0  0  0  0
  186.6970  179.3930  143.7640 C   0  0  0  0  0  2  0  0  0  0  0  0
  189.1520  174.2770  145.9240 O   0  0  0  0  0  0  0  0  0  0  0  0
  189.4300  175.6020  146.5770 S   0  0  0  0  0  0  0  0  0  0  0  0
  192.0200  176.1990  146.1880 C   0  0  0  0  0  0  0  0  0  0  0  0
  189.2000  176.9160  145.4530 N   0  0  1  0  0  0  0  0  0  0  0  0
  184.6310  177.2820  142.0940 N   0  0  0  0  0  2  0  0  0  0  0  0
  188.3010  177.1530  143.2420 C   0  0  1  0  0  3  0  0  0  0  0  0
  191.6570  176.3120  144.7440 C   0  0  0  0  0  2  0  0  0  0  0  0
  191.0680  175.6700  147.1000 N   0  0  0  0  0  2  0  0  0  0  0  0
  185.7070  177.9560  141.9210 C   0  0  0  0  0  0  0  0  0  0  0  0
  186.7470  177.2880  145.2530 C   0  0  0  0  0  0  0  0  0  0  0  0
  188.6490  175.5680  141.5390 C   0  0  0  0  0  0  0  0  0  0  0  0
  193.2880  176.2970  146.5500 C   0  0  0  0  0  2  0  0  0  0  0  0
  186.8820  177.3160  141.2400 C   0  0  0  0  0  2  0  0  0  0  0  0
  186.1190  176.5340  146.2530 C   0  0  0  0  0  3  0  0  0  0  0  0
  185.0170  178.9910  145.5380 C   0  0  0  0  0  3  0  0  0  0  0  0
  184.4230  178.2290  146.5440 C   0  0  0  0  0  3  0  0  0  0  0  0
  185.8120  179.3360  142.5110 C   0  0  0  0  0  2  0  0  0  0  0  0
  189.7840  176.9730  143.0620 C   0  0  1  0  0  3  0  0  0  0  0  0
  187.5650  176.3440  142.1950 C   0  0  2  0  0  3  0  0  0  0  0  0
  190.3240  177.0510  144.4920 C   0  0  1  0  0  3  0  0  0  0  0  0
  190.2330  174.4300  142.9920 C   0  0  0  0  0  1  0  0  0  0  0  0
  188.0000  176.6780  144.6450 C   0  0  2  0  0  3  0  0  0  0  0  0
  1 16  2  0  0  0  0
  1 21  1  0  0  0  0
  3 17  2  0  0  0  0
  5 27  1  1  0  0  0
  5 24  1  0  0  0  0
  6  1  1  0  0  0  0
  7  8  2  0  0  0  0
  8 14  1  0  0  0  0
  8  2  2  0  0  0  0
  9 18  2  0  0  0  0
  9 14  1  0  0  0  0
 10  8  1  1  0  0  0
 12 28  1  0  0  0  0
 13  9  1  0  0  0  0
 15 11  2  0  0  0  0
 15 23  1  0  0  0  0
 16 20  1  0  0  0  0
 17 25  1  0  0  0  0
 17  5  1  0  0  0  0
 19 15  1  0  0  0  0
 19 25  1  0  0  0  0
 20  4  2  0  0  0  0
 21 22  2  0  0  0  0
 22  4  1  0  0  0  0
 23  6  1  0  0  0  0
 24 12  1  0  0  0  0
 24 26  1  0  0  0  0
 25 12  1  0  0  0  0
 26 13  1  0  0  0  0
 26 10  1  0  0  0  0
 28 16  1  0  0  0  0
 28 10  1  0  0  0  0
M  END
>  <MODEL>
2

>  <REMARK>
 VINA RESULT:      -8.2      2.422      4.897
  Name = 
  0 active torsions:
  status: ('A' for Active; 'I' for Inactive)
                            x       y       z     vdW  Elec       q    Type
                         _______ _______ _______ _____ _____    ______ ____

>  <TORSDO>
F 0

$$$$
=
 OpenBabel11112417353D

 28 32  0  0  1  0  0  0  0  0999 V2000
  185.7840  177.0390  144.1770 C   0  0  0  0  0  0  0  0  0  0  0  0
  189.3990  175.7990  141.5520 O   0  0  0  0  0  0  0  0  0  0  0  0
  190.1050  178.3710  148.3000 O   0  0  0  0  0  0  0  0  0  0  0  0
  186.4210  178.2510  141.7270 C   0  0  0  0  0  3  0  0  0  0  0  0
  190.2290  176.2480  147.2250 C   0  0  1  0  0  3  0  0  0  0  0  0
  185.3560  176.4750  145.5020 C   0  0  0  0  0  2  0  0  0  0  0  0
  190.9900  176.6190  143.2420 O   0  0  0  0  0  0  0  0  0  0  0  0
  190.0410  175.5110  142.8800 S   0  0  0  0  0  0  0  0  0  0  0  0
  190.9680  173.2320  143.9550 C   0  0  0  0  0  0  0  0  0  0  0  0
  188.8110  175.3130  144.1010 N   0  0  1  0  0  0  0  0  0  0  0  0
  185.9700  179.7160  146.3000 N   0  0  0  0  0  2  0  0  0  0  0  0
  188.1060  176.5260  146.0470 C   0  0  1  0  0  3  0  0  0  0  0  0
  190.6660  173.8660  145.2730 C   0  0  0  0  0  2  0  0  0  0  0  0
  190.8890  174.0190  142.7760 N   0  0  0  0  0  2  0  0  0  0  0  0
  185.9990  178.5450  146.8210 C   0  0  0  0  0  0  0  0  0  0  0  0
  187.1480  177.1350  143.7690 C   0  0  0  0  0  0  0  0  0  0  0  0
  189.6110  177.5650  147.5270 C   0  0  0  0  0  0  0  0  0  0  0  0
  191.5870  172.0630  143.9230 C   0  0  0  0  0  2  0  0  0  0  0  0
  187.1770  178.1360  147.6570 C   0  0  0  0  0  2  0  0  0  0  0  0
  187.4360  177.7570  142.5470 C   0  0  0  0  0  3  0  0  0  0  0  0
  184.7750  177.5360  143.3410 C   0  0  0  0  0  3  0  0  0  0  0  0
  185.0890  178.1340  142.1210 C   0  0  0  0  0  3  0  0  0  0  0  0
  184.9090  177.5650  146.4870 C   0  0  0  0  0  2  0  0  0  0  0  0
  189.0720  175.4850  146.5430 C   0  0  1  0  0  3  0  0  0  0  0  0
  188.3690  177.8370  146.7570 C   0  0  2  0  0  3  0  0  0  0  0  0
  189.3130  174.6110  145.3100 C   0  0  1  0  0  3  0  0  0  0  0  0
  191.4410  176.4940  146.3360 C   0  0  0  0  0  1  0  0  0  0  0  0
  188.3440  176.6260  144.5570 C   0  0  2  0  0  3  0  0  0  0  0  0
  1  6  1  0  0  0  0
  2  8  2  0  0  0  0
  4 22  2  0  0  0  0
  4 20  1  0  0  0  0
  5 27  1  6  0  0  0
  5 17  1  0  0  0  0
  6 23  1  0  0  0  0
  8  7  2  0  0  0  0
  9 13  1  0  0  0  0
 10  8  1  6  0  0  0
 10 28  1  0  0  0  0
 10 26  1  0  0  0  0
 11 15  2  0  0  0  0
 12 24  1  0  0  0  0
 12 25  1  0  0  0  0
 13 26  1  0  0  0  0
 14  8  1  0  0  0  0
 14  9  1  0  0  0  0
 15 19  1  0  0  0  0
 16  1  1  0  0  0  0
 16 28  1  0  0  0  0
 17  3  2  0  0  0  0
 18  9  2  0  0  0  0
 20 16  2  0  0  0  0
 21  1  2  0  0  0  0
 22 21  1  0  0  0  0
 23 15  1  0  0  0  0
 24  5  1  0  0  0  0
 25 17  1  0  0  0  0
 25 19  1  0  0  0  0
 26 24  1  0  0  0  0
 28 12  1  0  0  0  0
M  END
>  <MODEL>
3

>  <REMARK>
 VINA RESULT:      -8.2      2.493      3.068
  Name = 
  0 active torsions:
  status: ('A' for Active; 'I' for Inactive)
                            x       y       z     vdW  Elec       q    Type
                         _______ _______ _______ _____ _____    ______ ____

>  <TORSDO>
F 0

$$$$
=
 OpenBabel11112417353D

 28 32  0  0  1  0  0  0  0  0999 V2000
  187.4930  177.9190  144.8390 C   0  0  0  0  0  0  0  0  0  0  0  0
  190.6810  176.3890  147.8380 O   0  0  0  0  0  0  0  0  0  0  0  0
  189.9320  173.6950  141.1430 O   0  0  0  0  0  0  0  0  0  0  0  0
  186.8720  176.7520  147.3150 C   0  0  0  0  0  3  0  0  0  0  0  0
  191.4300  175.1670  142.2690 C   0  0  1  0  0  3  0  0  0  0  0  0
  187.7060  178.5450  143.4900 C   0  0  0  0  0  2  0  0  0  0  0  0
  191.3590  174.5910  146.3000 O   0  0  0  0  0  0  0  0  0  0  0  0
  191.4480  176.0640  146.5880 S   0  0  0  0  0  0  0  0  0  0  0  0
  193.8040  176.9570  145.6590 C   0  0  0  0  0  0  0  0  0  0  0  0
  190.8310  177.0030  145.2540 N   0  0  1  0  0  0  0  0  0  0  0  0
  185.9100  175.7800  142.6890 N   0  0  0  0  0  2  0  0  0  0  0  0
  189.6440  176.5360  143.2220 C   0  0  1  0  0  3  0  0  0  0  0  0
  193.2560  176.6490  144.3050 C   0  0  0  0  0  2  0  0  0  0  0  0
  193.0910  176.5240  146.8090 N   0  0  0  0  0  2  0  0  0  0  0  0
  186.8040  176.5560  142.1980 C   0  0  0  0  0  0  0  0  0  0  0  0
  188.3470  176.9110  145.3800 C   0  0  0  0  0  0  0  0  0  0  0  0
  190.0900  174.6570  141.8790 C   0  0  0  0  0  0  0  0  0  0  0  0
  195.0630  177.3460  145.7790 C   0  0  0  0  0  2  0  0  0  0  0  0
  187.9910  175.9660  141.4940 C   0  0  0  0  0  2  0  0  0  0  0  0
  188.0030  176.3370  146.6110 C   0  0  0  0  0  3  0  0  0  0  0  0
  186.3630  178.3280  145.5590 C   0  0  0  0  0  3  0  0  0  0  0  0
  186.0550  177.7520  146.7910 C   0  0  0  0  0  3  0  0  0  0  0  0
  186.7060  178.0370  142.4420 C   0  0  0  0  0  2  0  0  0  0  0  0
  191.1010  176.5600  142.8480 C   0  0  1  0  0  3  0  0  0  0  0  0
  188.9620  175.3850  142.5150 C   0  0  2  0  0  3  0  0  0  0  0  0
  191.7830  177.0760  144.1170 C   0  0  1  0  0  3  0  0  0  0  0  0
  192.0290  174.1870  143.2700 C   0  0  0  0  0  1  0  0  0  0  0  0
  189.6130  176.3810  144.7260 C   0  0  2  0  0  3  0  0  0  0  0  0
  1 16  2  0  0  0  0
  1 21  1  0  0  0  0
  3 17  2  0  0  0  0
  5 24  1  0  0  0  0
  5 27  1  1  0  0  0
  6  1  1  0  0  0  0
  7  8  2  0  0  0  0
  8 14  1  0  0  0  0
  8  2  2  0  0  0  0
  9 18  2  0  0  0  0
  9 14  1  0  0  0  0
 10  8  1  1  0  0  0
 12 28  1  0  0  0  0
 13  9  1  0  0  0  0
 15 23  1  0  0  0  0
 15 11  2  0  0  0  0
 16 20  1  0  0  0  0
 17  5  1  0  0  0  0
 17 25  1  0  0  0  0
 19 15  1  0  0  0  0
 19 25  1  0  0  0  0
 20  4  2  0  0  0  0
 21 22  2  0  0  0  0
 22  4  1  0  0  0  0
 23  6  1  0  0  0  0
 24 12  1  0  0  0  0
 24 26  1  0  0  0  0
 25 12  1  0  0  0  0
 26 13  1  0  0  0  0
 26 10  1  0  0  0  0
 28 10  1  0  0  0  0
 28 16  1  0  0  0  0
M  END
>  <MODEL>
4

>  <REMARK>
 VINA RESULT:      -8.1      2.791      5.324
  Name = 
  0 active torsions:
  status: ('A' for Active; 'I' for Inactive)
                            x       y       z     vdW  Elec       q    Type
                         _______ _______ _______ _____ _____    ______ ____

>  <TORSDO>
F 0

$$$$
=
 OpenBabel11112417353D

 28 32  0  0  1  0  0  0  0  0999 V2000
  191.9420  175.1930  144.6760 C   0  0  0  0  0  0  0  0  0  0  0  0
  189.0170  173.5750  141.4630 O   0  0  0  0  0  0  0  0  0  0  0  0
  186.8370  177.3940  147.2340 O   0  0  0  0  0  0  0  0  0  0  0  0
  191.6040  172.4660  144.1070 C   0  0  0  0  0  3  0  0  0  0  0  0
  187.1570  177.7890  144.9060 C   0  0  1  0  0  3  0  0  0  0  0  0
  192.1950  176.6200  145.0730 C   0  0  0  0  0  2  0  0  0  0  0  0
  187.0680  174.3260  142.7650 O   0  0  0  0  0  0  0  0  0  0  0  0
  188.1910  174.7630  141.8670 S   0  0  0  0  0  0  0  0  0  0  0  0
  187.3690  176.9150  140.4870 C   0  0  0  0  0  0  0  0  0  0  0  0
  189.2030  175.9460  142.6560 N   0  0  1  0  0  0  0  0  0  0  0  0
  191.0680  175.2860  147.9830 N   0  0  0  0  0  2  0  0  0  0  0  0
  189.4060  176.8310  144.8760 C   0  0  1  0  0  3  0  0  0  0  0  0
  187.3580  177.6130  141.8070 C   0  0  0  0  0  2  0  0  0  0  0  0
  187.5590  175.5080  140.4520 N   0  0  0  0  0  2  0  0  0  0  0  0
  191.0880  176.3980  147.3460 C   0  0  0  0  0  0  0  0  0  0  0  0
  190.6690  174.7130  144.2450 C   0  0  0  0  0  0  0  0  0  0  0  0
  187.5520  177.2900  146.2490 C   0  0  0  0  0  0  0  0  0  0  0  0
  186.9090  177.5410  139.4160 C   0  0  0  0  0  2  0  0  0  0  0  0
  189.8390  177.2270  147.2640 C   0  0  0  0  0  2  0  0  0  0  0  0
  190.5270  173.3440  143.9820 C   0  0  0  0  0  3  0  0  0  0  0  0
  193.0140  174.3000  144.7930 C   0  0  0  0  0  3  0  0  0  0  0  0
  192.8500  172.9450  144.5070 C   0  0  0  0  0  3  0  0  0  0  0  0
  192.3290  176.7910  146.5930 C   0  0  0  0  0  2  0  0  0  0  0  0
  188.4980  177.7790  144.1400 C   0  0  1  0  0  3  0  0  0  0  0  0
  188.8670  176.6000  146.2720 C   0  0  2  0  0  3  0  0  0  0  0  0
  188.5840  177.2950  142.6910 C   0  0  1  0  0  3  0  0  0  0  0  0
  186.1000  176.8450  144.3490 C   0  0  0  0  0  1  0  0  0  0  0  0
  189.4220  175.5620  144.0540 C   0  0  2  0  0  3  0  0  0  0  0  0
  1 21  1  0  0  0  0
  1  6  1  0  0  0  0
  2  8  2  0  0  0  0
  4 22  1  0  0  0  0
  5 27  1  6  0  0  0
  5 17  1  0  0  0  0
  6 23  1  0  0  0  0
  8  7  2  0  0  0  0
  9 13  1  0  0  0  0
 10  8  1  1  0  0  0
 10 26  1  0  0  0  0
 10 28  1  0  0  0  0
 12 25  1  0  0  0  0
 13 26  1  0  0  0  0
 14  9  1  0  0  0  0
 14  8  1  0  0  0  0
 15 11  2  0  0  0  0
 16  1  2  0  0  0  0
 17 25  1  0  0  0  0
 17  3  2  0  0  0  0
 18  9  2  0  0  0  0
 19 15  1  0  0  0  0
 20  4  2  0  0  0  0
 20 16  1  0  0  0  0
 22 21  2  0  0  0  0
 23 15  1  0  0  0  0
 24 12  1  0  0  0  0
 24  5  1  0  0  0  0
 25 19  1  0  0  0  0
 26 24  1  0  0  0  0
 28 16  1  0  0  0  0
 28 12  1  0  0  0  0
M  END
>  <MODEL>
5

>  <REMARK>
 VINA RESULT:      -7.7      2.630      5.216
  Name = 
  0 active torsions:
  status: ('A' for Active; 'I' for Inactive)
                            x       y       z     vdW  Elec       q    Type
                         _______ _______ _______ _____ _____    ______ ____

>  <TORSDO>
F 0

$$$$
=
 OpenBabel11112417353D

 28 32  0  0  1  0  0  0  0  0999 V2000
  188.9050  177.0030  144.6840 C   0  0  0  0  0  0  0  0  0  0  0  0
  192.2240  174.7270  146.9860 O   0  0  0  0  0  0  0  0  0  0  0  0
  190.1060  172.9210  140.2860 O   0  0  0  0  0  0  0  0  0  0  0  0
  188.4800  175.6640  147.1140 C   0  0  0  0  0  3  0  0  0  0  0  0
  191.9600  174.0390  141.2830 C   0  0  1  0  0  3  0  0  0  0  0  0
  189.0120  177.7390  143.3790 C   0  0  0  0  0  2  0  0  0  0  0  0
  192.3890  173.0360  145.2060 O   0  0  0  0  0  0  0  0  0  0  0  0
  192.7420  174.4410  145.6060 S   0  0  0  0  0  0  0  0  0  0  0  0
  195.0460  175.1010  144.3940 C   0  0  0  0  0  0  0  0  0  0  0  0
  192.0880  175.5980  144.4760 N   0  0  1  0  0  0  0  0  0  0  0  0
  186.7180  175.3520  142.6350 N   0  0  0  0  0  2  0  0  0  0  0  0
  190.5610  175.5270  142.6270 C   0  0  1  0  0  3  0  0  0  0  0  0
  194.2660  175.0230  143.1240 C   0  0  0  0  0  2  0  0  0  0  0  0
  194.4500  174.6440  145.6000 N   0  0  0  0  0  2  0  0  0  0  0  0
  187.6380  176.0480  142.0780 C   0  0  0  0  0  0  0  0  0  0  0  0
  189.6640  175.8330  144.9900 C   0  0  0  0  0  0  0  0  0  0  0  0
  190.5150  173.7640  141.0700 C   0  0  0  0  0  0  0  0  0  0  0  0
  196.3540  175.2980  144.3440 C   0  0  0  0  0  2  0  0  0  0  0  0
  188.6070  175.3830  141.1430 C   0  0  0  0  0  2  0  0  0  0  0  0
  189.4200  175.1790  146.2040 C   0  0  0  0  0  3  0  0  0  0  0  0
  187.9670  177.4800  145.6090 C   0  0  0  0  0  3  0  0  0  0  0  0
  187.7580  176.8190  146.8190 C   0  0  0  0  0  3  0  0  0  0  0  0
  187.8040  177.4920  142.4650 C   0  0  0  0  0  2  0  0  0  0  0  0
  191.9340  175.3920  142.0280 C   0  0  1  0  0  3  0  0  0  0  0  0
  189.6150  174.5650  141.9400 C   0  0  2  0  0  3  0  0  0  0  0  0
  192.8640  175.6660  143.2120 C   0  0  1  0  0  3  0  0  0  0  0  0
  192.5420  172.8820  142.0840 C   0  0  0  0  0  1  0  0  0  0  0  0
  190.7260  175.2110  144.0970 C   0  0  2  0  0  3  0  0  0  0  0  0
  1 16  2  0  0  0  0
  1 21  1  0  0  0  0
  3 17  2  0  0  0  0
  5 24  1  0  0  0  0
  5 27  1  1  0  0  0
  6  1  1  0  0  0  0
  7  8  2  0  0  0  0
  8  2  2  0  0  0  0
  9 14  1  0  0  0  0
 10  8  1  1  0  0  0
 12 28  1  0  0  0  0
 13 26  1  0  0  0  0
 13  9  1  0  0  0  0
 14  8  1  0  0  0  0
 15 23  1  0  0  0  0
 15 11  2  0  0  0  0
 16 20  1  0  0  0  0
 17  5  1  0  0  0  0
 17 25  1  0  0  0  0
 18  9  2  0  0  0  0
 19 25  1  0  0  0  0
 19 15  1  0  0  0  0
 20  4  2  0  0  0  0
 21 22  2  0  0  0  0
 22  4  1  0  0  0  0
 23  6  1  0  0  0  0
 24 12  1  0  0  0  0
 24 26  1  0  0  0  0
 25 12  1  0  0  0  0
 26 10  1  0  0  0  0
 28 10  1  0  0  0  0
 28 16  1  0  0  0  0
M  END
>  <MODEL>
6

>  <REMARK>
 VINA RESULT:      -7.5      3.479      5.964
  Name = 
  0 active torsions:
  status: ('A' for Active; 'I' for Inactive)
                            x       y       z     vdW  Elec       q    Type
                         _______ _______ _______ _____ _____    ______ ____

>  <TORSDO>
F 0

$$$$
=
 OpenBabel11112417353D

 28 32  0  0  1  0  0  0  0  0999 V2000
  194.2600  174.9990  142.7690 C   0  0  0  0  0  0  0  0  0  0  0  0
  190.0910  173.6380  141.2620 O   0  0  0  0  0  0  0  0  0  0  0  0
  191.1860  176.4670  147.8530 O   0  0  0  0  0  0  0  0  0  0  0  0
  193.6520  172.3590  142.0360 C   0  0  0  0  0  3  0  0  0  0  0  0
  190.2830  177.2000  145.7730 C   0  0  1  0  0  3  0  0  0  0  0  0
  194.6940  176.3720  143.1980 C   0  0  0  0  0  2  0  0  0  0  0  0
  189.0830  174.0660  143.4660 O   0  0  0  0  0  0  0  0  0  0  0  0
  189.5980  174.6990  142.2040 S   0  0  0  0  0  0  0  0  0  0  0  0
  188.2100  176.9580  141.7760 C   0  0  0  0  0  0  0  0  0  0  0  0
  190.8810  175.8300  142.5470 N   0  0  1  0  0  0  0  0  0  0  0  0
  195.1900  174.5760  146.0340 N   0  0  0  0  0  2  0  0  0  0  0  0
  192.1940  176.4140  144.4680 C   0  0  1  0  0  3  0  0  0  0  0  0
  188.8780  177.4660  143.0110 C   0  0  0  0  0  2  0  0  0  0  0  0
  188.3410  175.5860  141.4340 N   0  0  0  0  0  2  0  0  0  0  0  0
  194.8940  175.7640  145.6530 C   0  0  0  0  0  0  0  0  0  0  0  0
  192.9400  174.4950  142.9700 C   0  0  0  0  0  0  0  0  0  0  0  0
  191.3000  176.5500  146.6400 C   0  0  0  0  0  0  0  0  0  0  0  0
  187.2750  177.6910  141.1930 C   0  0  0  0  0  2  0  0  0  0  0  0
  193.7850  176.5080  146.3400 C   0  0  0  0  0  2  0  0  0  0  0  0
  192.6700  173.1690  142.6070 C   0  0  0  0  0  3  0  0  0  0  0  0
  195.2340  174.1760  142.1910 C   0  0  0  0  0  3  0  0  0  0  0  0
  194.9330  172.8650  141.8210 C   0  0  0  0  0  3  0  0  0  0  0  0
  195.5840  176.3420  144.4480 C   0  0  0  0  0  2  0  0  0  0  0  0
  191.0480  177.3880  144.4450 C   0  0  1  0  0  3  0  0  0  0  0  0
  192.4380  175.9560  145.8900 C   0  0  2  0  0  3  0  0  0  0  0  0
  190.3800  177.1160  143.0960 C   0  0  1  0  0  3  0  0  0  0  0  0
  189.0800  176.2700  145.6870 C   0  0  0  0  0  1  0  0  0  0  0  0
  191.7770  175.2740  143.5650 C   0  0  2  0  0  3  0  0  0  0  0  0
  1 16  1  0  0  0  0
  1  6  1  0  0  0  0
  2  8  2  0  0  0  0
  4 20  1  0  0  0  0
  5 27  1  6  0  0  0
  5 17  1  0  0  0  0
  6 23  1  0  0  0  0
  8  7  2  0  0  0  0
  9 13  1  0  0  0  0
 10  8  1  1  0  0  0
 10 26  1  0  0  0  0
 10 28  1  0  0  0  0
 12 25  1  0  0  0  0
 13 26  1  0  0  0  0
 14  9  1  0  0  0  0
 14  8  1  0  0  0  0
 15 11  2  0  0  0  0
 15 19  1  0  0  0  0
 16 28  1  0  0  0  0
 17  3  2  0  0  0  0
 18  9  2  0  0  0  0
 20 16  2  0  0  0  0
 21  1  2  0  0  0  0
 22  4  2  0  0  0  0
 22 21  1  0  0  0  0
 23 15  1  0  0  0  0
 24 12  1  0  0  0  0
 24  5  1  0  0  0  0
 25 19  1  0  0  0  0
 25 17  1  0  0  0  0
 26 24  1  0  0  0  0
 28 12  1  0  0  0  0
M  END
>  <MODEL>
7

>  <REMARK>
 VINA RESULT:      -7.4      3.714      6.748
  Name = 
  0 active torsions:
  status: ('A' for Active; 'I' for Inactive)
                            x       y       z     vdW  Elec       q    Type
                         _______ _______ _______ _____ _____    ______ ____

>  <TORSDO>
F 0

$$$$
=
 OpenBabel11112417353D

 28 32  0  0  1  0  0  0  0  0999 V2000
  190.2880  173.2210  143.3230 C   0  0  0  0  0  0  0  0  0  0  0  0
  190.6660  176.7220  146.3390 O   0  0  0  0  0  0  0  0  0  0  0  0
  187.2030  177.3240  139.9910 O   0  0  0  0  0  0  0  0  0  0  0  0
  192.7390  174.3240  144.1330 C   0  0  0  0  0  3  0  0  0  0  0  0
  186.6020  177.0970  142.2860 C   0  0  1  0  0  3  0  0  0  0  0  0
  189.0390  172.5630  142.8090 C   0  0  0  0  0  2  0  0  0  0  0  0
  189.6160  178.2860  144.7550 O   0  0  0  0  0  0  0  0  0  0  0  0
  189.3680  177.1630  145.7220 S   0  0  0  0  0  0  0  0  0  0  0  0
  186.9160  177.4850  146.7680 C   0  0  0  0  0  0  0  0  0  0  0  0
  188.5990  175.8110  144.9330 N   0  0  1  0  0  0  0  0  0  0  0  0
  190.4070  173.7680  139.9480 N   0  0  0  0  0  2  0  0  0  0  0  0
  188.0940  175.1990  142.6690 C   0  0  1  0  0  3  0  0  0  0  0  0
  186.4170  177.2020  145.3900 C   0  0  0  0  0  2  0  0  0  0  0  0
  188.3070  177.6840  146.9720 N   0  0  0  0  0  2  0  0  0  0  0  0
  189.2640  173.5020  140.4630 C   0  0  0  0  0  0  0  0  0  0  0  0
  190.3650  174.6070  143.6560 C   0  0  0  0  0  0  0  0  0  0  0  0
  187.3570  176.7450  141.0560 C   0  0  0  0  0  0  0  0  0  0  0  0
  186.0590  177.8450  147.7090 C   0  0  0  0  0  2  0  0  0  0  0  0
  188.1380  174.4840  140.3160 C   0  0  0  0  0  2  0  0  0  0  0  0
  191.6040  175.1320  144.0440 C   0  0  0  0  0  3  0  0  0  0  0  0
  191.4340  172.4220  143.4210 C   0  0  0  0  0  3  0  0  0  0  0  0
  192.6520  172.9670  143.8280 C   0  0  0  0  0  3  0  0  0  0  0  0
  189.1080  172.2660  141.3050 C   0  0  0  0  0  2  0  0  0  0  0  0
  186.8570  175.8740  143.1950 C   0  0  1  0  0  3  0  0  0  0  0  0
  188.3590  175.6650  141.2530 C   0  0  2  0  0  3  0  0  0  0  0  0
  187.1520  176.0390  144.6870 C   0  0  1  0  0  3  0  0  0  0  0  0
  187.1620  178.4110  142.8170 C   0  0  0  0  0  1  0  0  0  0  0  0
  189.2060  175.5910  143.6160 C   0  0  2  0  0  3  0  0  0  0  0  0
  1 21  2  0  0  0  0
  1 16  1  0  0  0  0
  3 17  2  0  0  0  0
  5 27  1  1  0  0  0
  5 24  1  0  0  0  0
  6  1  1  0  0  0  0
  7  8  2  0  0  0  0
  8  2  2  0  0  0  0
  8 14  1  0  0  0  0
  9 14  1  0  0  0  0
  9 18  2  0  0  0  0
 10  8  1  6  0  0  0
 11 15  2  0  0  0  0
 12 24  1  0  0  0  0
 12 28  1  0  0  0  0
 13  9  1  0  0  0  0
 15 23  1  0  0  0  0
 16 20  2  0  0  0  0
 17 25  1  0  0  0  0
 17  5  1  0  0  0  0
 19 15  1  0  0  0  0
 19 25  1  0  0  0  0
 20  4  1  0  0  0  0
 21 22  1  0  0  0  0
 22  4  2  0  0  0  0
 23  6  1  0  0  0  0
 24 26  1  0  0  0  0
 25 12  1  0  0  0  0
 26 10  1  0  0  0  0
 26 13  1  0  0  0  0
 28 16  1  0  0  0  0
 28 10  1  0  0  0  0
M  END
>  <MODEL>
8

>  <REMARK>
 VINA RESULT:      -7.4      2.210      6.645
  Name = 
  0 active torsions:
  status: ('A' for Active; 'I' for Inactive)
                            x       y       z     vdW  Elec       q    Type
                         _______ _______ _______ _____ _____    ______ ____

>  <TORSDO>
F 0

$$$$
=
 OpenBabel11112417353D

 28 32  0  0  1  0  0  0  0  0999 V2000
  193.5200  175.2320  142.5030 C   0  0  0  0  0  0  0  0  0  0  0  0
  189.1830  174.6400  140.9750 O   0  0  0  0  0  0  0  0  0  0  0  0
  190.8580  175.1910  148.0130 O   0  0  0  0  0  0  0  0  0  0  0  0
  192.6760  172.9920  141.0370 C   0  0  0  0  0  3  0  0  0  0  0  0
  189.8960  176.5870  146.3390 C   0  0  1  0  0  3  0  0  0  0  0  0
  194.0800  176.3750  143.3010 C   0  0  0  0  0  2  0  0  0  0  0  0
  188.3360  174.4060  143.2740 O   0  0  0  0  0  0  0  0  0  0  0  0
  188.8250  175.3760  142.2340 S   0  0  0  0  0  0  0  0  0  0  0  0
  187.5890  177.7260  142.6360 C   0  0  0  0  0  0  0  0  0  0  0  0
  190.2070  176.2700  142.8100 N   0  0  1  0  0  0  0  0  0  0  0  0
  194.5990  173.7540  145.3940 N   0  0  0  0  0  2  0  0  0  0  0  0
  191.6660  176.1500  144.7110 C   0  0  1  0  0  3  0  0  0  0  0  0
  188.3610  177.7830  143.9120 C   0  0  0  0  0  2  0  0  0  0  0  0
  187.5960  176.5250  141.8760 N   0  0  0  0  0  2  0  0  0  0  0  0
  194.3720  175.0160  145.4240 C   0  0  0  0  0  0  0  0  0  0  0  0
  192.1790  174.7620  142.6390 C   0  0  0  0  0  0  0  0  0  0  0  0
  190.9090  175.6440  146.8800 C   0  0  0  0  0  0  0  0  0  0  0  0
  186.6800  178.6540  142.3830 C   0  0  0  0  0  2  0  0  0  0  0  0
  193.3630  175.5640  146.3910 C   0  0  0  0  0  2  0  0  0  0  0  0
  191.7910  173.6340  141.9050 C   0  0  0  0  0  3  0  0  0  0  0  0
  194.3960  174.5810  141.6250 C   0  0  0  0  0  3  0  0  0  0  0  0
  193.9760  173.4710  140.8920 C   0  0  0  0  0  3  0  0  0  0  0  0
  195.0340  175.9050  144.4080 C   0  0  0  0  0  2  0  0  0  0  0  0
  190.5980  177.1420  145.0800 C   0  0  1  0  0  3  0  0  0  0  0  0
  191.9550  175.2560  145.8980 C   0  0  2  0  0  3  0  0  0  0  0  0
  189.8360  177.3430  143.7680 C   0  0  1  0  0  3  0  0  0  0  0  0
  188.6240  175.7970  146.0620 C   0  0  0  0  0  1  0  0  0  0  0  0
  191.1150  175.3750  143.5350 C   0  0  2  0  0  3  0  0  0  0  0  0
  1 16  1  0  0  0  0
  1  6  1  0  0  0  0
  2  8  2  0  0  0  0
  4 20  1  0  0  0  0
  5 27  1  6  0  0  0
  5 17  1  0  0  0  0
  6 23  1  0  0  0  0
  8  7  2  0  0  0  0
  9 13  1  0  0  0  0
 10  8  1  1  0  0  0
 10 28  1  0  0  0  0
 10 26  1  0  0  0  0
 11 15  2  0  0  0  0
 12 24  1  0  0  0  0
 12 25  1  0  0  0  0
 14  8  1  0  0  0  0
 14  9  1  0  0  0  0
 15 19  1  0  0  0  0
 16 28  1  0  0  0  0
 17  3  2  0  0  0  0
 18  9  2  0  0  0  0
 20 16  2  0  0  0  0
 21  1  2  0  0  0  0
 22  4  2  0  0  0  0
 22 21  1  0  0  0  0
 23 15  1  0  0  0  0
 24  5  1  0  0  0  0
 25 19  1  0  0  0  0
 25 17  1  0  0  0  0
 26 13  1  0  0  0  0
 26 24  1  0  0  0  0
 28 12  1  0  0  0  0
M  END
>  <MODEL>
9

>  <REMARK>
 VINA RESULT:      -7.3      3.258      6.420
  Name = 
  0 active torsions:
  status: ('A' for Active; 'I' for Inactive)
                            x       y       z     vdW  Elec       q    Type
                         _______ _______ _______ _____ _____    ______ ____

>  <TORSDO>
F 0

$$$$
