=
 OpenBabel11112416413D

 32 37  0  0  1  0  0  0  0  0999 V2000
  194.7090  175.8680  146.5000 C   0  0  0  0  0  2  0  0  0  0  0  0
  189.8030  176.2150  144.3650 C   0  0  2  0  0  3  0  0  0  0  0  0
  190.3250  173.9370  140.0060 C   0  0  0  0  0  2  0  0  0  0  0  0
  188.8180  173.7130  139.9300 C   0  0  0  0  0  2  0  0  0  0  0  0
  187.4650  176.8950  145.1900 C   0  0  0  0  0  0  0  0  0  0  0  0
  186.2270  177.5420  144.6160 C   0  0  1  0  0  3  0  0  0  0  0  0
  191.8540  176.7010  145.7910 C   0  0  2  0  0  3  0  0  0  0  0  0
  192.0000  175.3980  143.5960 C   0  0  0  0  0  2  0  0  0  0  0  0
  185.7530  177.9750  142.2800 C   0  0  2  0  0  3  0  0  0  0  0  0
  193.9210  176.8120  144.3580 N   0  0  0  0  0  2  0  0  0  0  0  0
  190.7780  173.9550  141.4630 C   0  0  0  0  0  2  0  0  0  0  0  0
  190.5360  175.1560  143.6260 N   0  0  2  0  0  0  0  0  0  0  0  0
  190.0610  175.0790  142.2300 C   0  0  2  0  0  3  0  0  0  0  0  0
  187.8060  175.8920  142.9420 C   0  0  1  0  0  3  0  0  0  0  0  0
  185.8380  179.2570  143.0750 C   0  0  0  0  0  2  0  0  0  0  0  0
  193.6000  176.5360  147.0510 O   0  0  0  0  0  0  0  0  0  0  0  0
  192.4620  176.6390  144.3750 C   0  0  2  0  0  3  0  0  0  0  0  0
  186.4870  178.9530  144.3440 N   0  0  0  0  0  2  0  0  0  0  0  0
  192.5320  175.8530  146.6790 O   0  0  0  0  0  0  0  0  0  0  0  0
  194.5820  175.6670  144.9850 C   0  0  1  0  0  3  0  0  0  0  0  0
  188.0880  174.8060  140.7050 C   0  0  0  0  0  2  0  0  0  0  0  0
  188.5440  174.8140  142.1650 C   0  0  1  0  0  3  0  0  0  0  0  0
  186.3640  175.6720  142.9190 N   0  0  0  0  0  2  0  0  0  0  0  0
  190.3710  176.3290  145.7860 C   0  0  0  0  0  2  0  0  0  0  0  0
  187.6380  176.9700  146.4570 N   0  0  0  0  0  2  0  0  0  0  0  0
  184.4970  177.9690  141.4340 C   0  0  0  0  0  1  0  0  0  0  0  0
  188.2930  175.9130  144.3830 C   0  0  1  0  0  3  0  0  0  0  0  0
  185.6760  176.9000  143.3350 C   0  0  1  0  0  3  0  0  0  0  0  0
  195.9080  175.4770  144.4100 N   0  0  0  0  0  2  0  0  0  0  0  0
  196.2130  174.4450  143.4670 C   0  0  0  0  0  0  0  0  0  0  0  0
  197.4310  174.2910  143.0660 N   0  0  0  0  0  2  0  0  0  0  0  0
  195.1670  173.4920  142.9960 C   0  0  0  0  0  1  0  0  0  0  0  0
  1 16  1  0  0  0  0
  2 27  1  0  0  0  0
  2 24  1  1  0  0  0
  3 11  1  0  0  0  0
  4  3  1  0  0  0  0
  4 21  1  0  0  0  0
  5 25  2  0  0  0  0
  6 18  1  6  0  0  0
  6  5  1  0  0  0  0
  7 24  1  6  0  0  0
  7 19  1  0  0  0  0
  9 26  1  6  0  0  0
  9 15  1  0  0  0  0
  9 28  1  0  0  0  0
 10 17  1  0  0  0  0
 10 20  1  0  0  0  0
 12  8  1  6  0  0  0
 12  2  1  0  0  0  0
 13 11  1  6  0  0  0
 13 12  1  0  0  0  0
 14 23  1  1  0  0  0
 14 27  1  0  0  0  0
 15 18  1  0  0  0  0
 17  8  1  1  0  0  0
 17  7  1  0  0  0  0
 19 16  1  0  0  0  0
 20 29  1  6  0  0  0
 20  1  1  0  0  0  0
 22 21  1  6  0  0  0
 22 13  1  0  0  0  0
 22 14  1  0  0  0  0
 27  5  1  1  0  0  0
 28 23  1  6  0  0  0
 28  6  1  0  0  0  0
 30 29  1  0  0  0  0
 31 30  2  0  0  0  0
 32 30  1  0  0  0  0
M  END
>  <MODEL>
1

>  <REMARK>
 VINA RESULT:      -8.1      0.000      0.000
  Name = 
  1 active torsions:
  status: ('A' for Active; 'I' for Inactive)
    1  A    between atoms: C_20  and  N_29
                            x       y       z     vdW  Elec       q    Type
                         _______ _______ _______ _____ _____    ______ ____

>  <TORSDO>
F 1

$$$$
=
 OpenBabel11112416413D

 32 37  0  0  1  0  0  0  0  0999 V2000
  185.3540  177.2590  142.0770 C   0  0  0  0  0  2  0  0  0  0  0  0
  190.3890  175.7190  143.0830 C   0  0  2  0  0  3  0  0  0  0  0  0
  190.7540  176.2490  147.9860 C   0  0  0  0  0  2  0  0  0  0  0  0
  191.9410  175.2910  148.0130 C   0  0  0  0  0  2  0  0  0  0  0  0
  192.2730  174.5600  141.7700 C   0  0  0  0  0  0  0  0  0  0  0  0
  193.7820  174.5870  141.7320 C   0  0  1  0  0  3  0  0  0  0  0  0
  188.3280  176.5850  141.8670 C   0  0  2  0  0  3  0  0  0  0  0  0
  188.5470  176.6760  144.4130 C   0  0  0  0  0  2  0  0  0  0  0  0
  195.2660  175.6390  143.3330 C   0  0  2  0  0  3  0  0  0  0  0  0
  187.2260  178.4200  143.1930 N   0  0  0  0  0  2  0  0  0  0  0  0
  189.8160  175.8870  146.8400 C   0  0  0  0  0  2  0  0  0  0  0  0
  189.6480  175.6830  144.3680 N   0  0  2  0  0  0  0  0  0  0  0  0
  190.5590  175.9650  145.4960 C   0  0  2  0  0  3  0  0  0  0  0  0
  192.4710  174.9970  144.2080 C   0  0  1  0  0  3  0  0  0  0  0  0
  195.3980  176.2600  141.9620 C   0  0  0  0  0  2  0  0  0  0  0  0
  186.3230  176.8890  141.1260 O   0  0  0  0  0  0  0  0  0  0  0  0
  188.3560  177.4840  143.1200 C   0  0  2  0  0  3  0  0  0  0  0  0
  194.2410  175.8560  141.1740 N   0  0  0  0  0  2  0  0  0  0  0  0
  187.0780  175.9710  141.7030 O   0  0  0  0  0  0  0  0  0  0  0  0
  185.9730  177.6960  143.4090 C   0  0  1  0  0  3  0  0  0  0  0  0
  192.6790  175.3370  146.6790 C   0  0  0  0  0  2  0  0  0  0  0  0
  191.7320  174.9670  145.5360 C   0  0  1  0  0  3  0  0  0  0  0  0
  193.5840  174.0540  144.1960 N   0  0  0  0  0  2  0  0  0  0  0  0
  189.4070  175.5030  141.9240 C   0  0  0  0  0  2  0  0  0  0  0  0
  191.6610  174.1660  140.7150 N   0  0  0  0  0  2  0  0  0  0  0  0
  196.6340  175.3050  143.8880 C   0  0  0  0  0  1  0  0  0  0  0  0
  191.5100  174.6610  143.0770 C   0  0  1  0  0  3  0  0  0  0  0  0
  194.4830  174.3750  143.0810 C   0  0  1  0  0  3  0  0  0  0  0  0
  185.0260  178.5380  144.1290 N   0  0  0  0  0  2  0  0  0  0  0  0
  184.6330  178.2960  145.4830 C   0  0  0  0  0  0  0  0  0  0  0  0
  183.7270  179.0410  146.0240 N   0  0  0  0  0  2  0  0  0  0  0  0
  185.1920  177.1520  146.2590 C   0  0  0  0  0  1  0  0  0  0  0  0
  1 20  1  0  0  0  0
  2 24  1  6  0  0  0
  2 12  1  0  0  0  0
  3  4  1  0  0  0  0
  6 18  1  1  0  0  0
  6  5  1  0  0  0  0
  6 28  1  0  0  0  0
  7 24  1  1  0  0  0
  7 17  1  0  0  0  0
  9 26  1  6  0  0  0
 10 20  1  0  0  0  0
 11  3  1  0  0  0  0
 12  8  1  6  0  0  0
 12 13  1  0  0  0  0
 13 22  1  0  0  0  0
 13 11  1  1  0  0  0
 14 23  1  1  0  0  0
 14 22  1  0  0  0  0
 15  9  1  0  0  0  0
 16 19  1  0  0  0  0
 16  1  1  0  0  0  0
 17 10  1  0  0  0  0
 17  8  1  1  0  0  0
 18 15  1  0  0  0  0
 19  7  1  0  0  0  0
 20 29  1  6  0  0  0
 21  4  1  0  0  0  0
 22 21  1  1  0  0  0
 25  5  2  0  0  0  0
 27  5  1  6  0  0  0
 27  2  1  0  0  0  0
 27 14  1  0  0  0  0
 28  9  1  0  0  0  0
 28 23  1  1  0  0  0
 29 30  1  0  0  0  0
 30 31  2  0  0  0  0
 30 32  1  0  0  0  0
M  END
>  <MODEL>
2

>  <REMARK>
 VINA RESULT:      -8.0      2.691      8.188
  Name = 
  1 active torsions:
  status: ('A' for Active; 'I' for Inactive)
    1  A    between atoms: C_20  and  N_29
                            x       y       z     vdW  Elec       q    Type
                         _______ _______ _______ _____ _____    ______ ____

>  <TORSDO>
F 1

$$$$
=
 OpenBabel11112416413D

 32 37  0  0  1  0  0  0  0  0999 V2000
  186.0360  176.6370  143.5240 C   0  0  0  0  0  2  0  0  0  0  0  0
  191.1230  175.1700  142.6770 C   0  0  2  0  0  3  0  0  0  0  0  0
  193.4200  176.7110  146.7770 C   0  0  0  0  0  2  0  0  0  0  0  0
  194.5660  175.7390  146.5130 C   0  0  0  0  0  2  0  0  0  0  0  0
  192.3710  173.6970  140.9780 C   0  0  0  0  0  0  0  0  0  0  0  0
  193.7300  173.6630  140.3220 C   0  0  1  0  0  3  0  0  0  0  0  0
  188.7000  175.8310  142.2600 C   0  0  2  0  0  3  0  0  0  0  0  0
  189.9300  176.4500  144.4150 C   0  0  0  0  0  2  0  0  0  0  0  0
  195.6760  174.9770  140.9210 C   0  0  2  0  0  3  0  0  0  0  0  0
  188.1320  177.9410  143.5110 N   0  0  0  0  0  2  0  0  0  0  0  0
  192.1180  176.1470  146.2170 C   0  0  0  0  0  2  0  0  0  0  0  0
  190.9710  175.4320  144.1300 N   0  0  2  0  0  0  0  0  0  0  0  0
  192.2450  175.9150  144.7020 C   0  0  2  0  0  3  0  0  0  0  0  0
  193.5190  174.6310  142.9750 C   0  0  1  0  0  3  0  0  0  0  0  0
  195.2050  175.2910  139.5210 C   0  0  0  0  0  2  0  0  0  0  0  0
  186.5540  176.0410  142.3590 O   0  0  0  0  0  0  0  0  0  0  0  0
  189.1860  176.9730  143.1770 C   0  0  2  0  0  3  0  0  0  0  0  0
  193.8510  174.7690  139.3770 N   0  0  0  0  0  2  0  0  0  0  0  0
  187.5280  175.2400  142.7520 O   0  0  0  0  0  0  0  0  0  0  0  0
  187.1180  177.3230  144.3650 C   0  0  1  0  0  3  0  0  0  0  0  0
  194.6950  175.4770  145.0160 C   0  0  0  0  0  2  0  0  0  0  0  0
  193.3870  174.9070  144.4640 C   0  0  1  0  0  3  0  0  0  0  0  0
  194.5810  173.6690  142.7030 N   0  0  0  0  0  2  0  0  0  0  0  0
  189.7670  174.7490  142.0930 C   0  0  0  0  0  2  0  0  0  0  0  0
  191.4060  173.1100  140.3720 N   0  0  0  0  0  2  0  0  0  0  0  0
  197.1680  174.7210  140.9240 C   0  0  0  0  0  1  0  0  0  0  0  0
  192.2010  174.0980  142.4320 C   0  0  1  0  0  3  0  0  0  0  0  0
  194.9300  173.7160  141.2790 C   0  0  1  0  0  3  0  0  0  0  0  0
  186.5010  178.3300  145.2180 N   0  0  0  0  0  2  0  0  0  0  0  0
  186.1880  178.1060  146.5960 C   0  0  0  0  0  0  0  0  0  0  0  0
  185.5660  179.0210  147.2640 N   0  0  0  0  0  2  0  0  0  0  0  0
  186.4940  176.8060  147.2580 C   0  0  0  0  0  1  0  0  0  0  0  0
  1 20  1  0  0  0  0
  2 24  1  1  0  0  0
  2 12  1  0  0  0  0
  4  3  1  0  0  0  0
  6 18  1  6  0  0  0
  6  5  1  0  0  0  0
  6 28  1  0  0  0  0
  7 24  1  1  0  0  0
  7 19  1  0  0  0  0
  7 17  1  0  0  0  0
  9 26  1  6  0  0  0
  9 28  1  0  0  0  0
 10 20  1  0  0  0  0
 11  3  1  0  0  0  0
 12  8  1  6  0  0  0
 12 13  1  0  0  0  0
 13 11  1  1  0  0  0
 14 23  1  1  0  0  0
 14 22  1  0  0  0  0
 15  9  1  0  0  0  0
 16 19  1  0  0  0  0
 16  1  1  0  0  0  0
 17 10  1  0  0  0  0
 17  8  1  1  0  0  0
 18 15  1  0  0  0  0
 20 29  1  6  0  0  0
 21  4  1  0  0  0  0
 22 13  1  0  0  0  0
 22 21  1  6  0  0  0
 25  5  2  0  0  0  0
 27  5  1  6  0  0  0
 27  2  1  0  0  0  0
 27 14  1  0  0  0  0
 28 23  1  1  0  0  0
 29 30  1  0  0  0  0
 30 32  1  0  0  0  0
 30 31  2  0  0  0  0
M  END
>  <MODEL>
3

>  <REMARK>
 VINA RESULT:      -7.9      2.700      8.037
  Name = 
  1 active torsions:
  status: ('A' for Active; 'I' for Inactive)
    1  A    between atoms: C_20  and  N_29
                            x       y       z     vdW  Elec       q    Type
                         _______ _______ _______ _____ _____    ______ ____

>  <TORSDO>
F 1

$$$$
=
 OpenBabel11112416413D

 32 37  0  0  1  0  0  0  0  0999 V2000
  190.4600  171.1440  139.5200 C   0  0  0  0  0  2  0  0  0  0  0  0
  189.0280  174.9110  143.0550 C   0  0  2  0  0  3  0  0  0  0  0  0
  192.6540  174.7190  146.4130 C   0  0  0  0  0  2  0  0  0  0  0  0
  192.3040  176.1260  146.8880 C   0  0  0  0  0  2  0  0  0  0  0  0
  187.2830  176.7980  143.1510 C   0  0  0  0  0  0  0  0  0  0  0  0
  186.4500  177.4900  144.2030 C   0  0  1  0  0  3  0  0  0  0  0  0
  188.9030  173.1450  141.2270 C   0  0  2  0  0  3  0  0  0  0  0  0
  190.8190  173.2210  142.9180 C   0  0  0  0  0  2  0  0  0  0  0  0
  186.6810  177.3030  146.6080 C   0  0  2  0  0  3  0  0  0  0  0  0
  190.0670  171.0350  141.9550 N   0  0  0  0  0  2  0  0  0  0  0  0
  192.3200  174.5680  144.9330 C   0  0  0  0  0  2  0  0  0  0  0  0
  190.4670  174.6170  143.2760 N   0  0  2  0  0  0  0  0  0  0  0  0
  190.8220  174.8250  144.6950 C   0  0  2  0  0  3  0  0  0  0  0  0
  189.0320  176.5580  144.9010 C   0  0  1  0  0  3  0  0  0  0  0  0
  185.3400  176.7910  146.1380 C   0  0  0  0  0  2  0  0  0  0  0  0
  189.2810  171.9100  139.4960 O   0  0  0  0  0  0  0  0  0  0  0  0
  189.6610  172.3940  142.3400 C   0  0  2  0  0  3  0  0  0  0  0  0
  185.4210  176.5810  144.6980 N   0  0  0  0  0  2  0  0  0  0  0  0
  189.5920  173.0880  140.0070 O   0  0  0  0  0  0  0  0  0  0  0  0
  191.0940  171.0810  140.9150 C   0  0  1  0  0  3  0  0  0  0  0  0
  190.8260  176.4090  146.6390 C   0  0  0  0  0  2  0  0  0  0  0  0
  190.5010  176.2610  145.1520 C   0  0  1  0  0  3  0  0  0  0  0  0
  188.6850  177.9160  145.3070 N   0  0  0  0  0  2  0  0  0  0  0  0
  188.6680  174.6110  141.5940 C   0  0  0  0  0  2  0  0  0  0  0  0
  186.8590  176.8330  141.9430 N   0  0  0  0  0  2  0  0  0  0  0  0
  186.4970  178.2580  147.7680 C   0  0  0  0  0  1  0  0  0  0  0  0
  188.7140  176.3730  143.4240 C   0  0  1  0  0  3  0  0  0  0  0  0
  187.2270  178.0380  145.4090 C   0  0  1  0  0  3  0  0  0  0  0  0
  191.9500  169.9050  141.0040 N   0  0  0  0  0  2  0  0  0  0  0  0
  193.2390  169.9190  141.6250 C   0  0  0  0  0  0  0  0  0  0  0  0
  193.9720  168.8550  141.5910 N   0  0  0  0  0  2  0  0  0  0  0  0
  193.7880  171.1600  142.2430 C   0  0  0  0  0  1  0  0  0  0  0  0
  1 20  1  0  0  0  0
  2 24  1  6  0  0  0
  2 12  1  0  0  0  0
  2 27  1  0  0  0  0
  3  4  1  0  0  0  0
  6  5  1  6  0  0  0
  6 18  1  0  0  0  0
  6 28  1  0  0  0  0
  7 24  1  1  0  0  0
  7 17  1  0  0  0  0
  9 26  1  1  0  0  0
 10 17  1  0  0  0  0
 11  3  1  0  0  0  0
 12  8  1  1  0  0  0
 12 13  1  0  0  0  0
 13 11  1  6  0  0  0
 13 22  1  0  0  0  0
 14 22  1  0  0  0  0
 14 23  1  6  0  0  0
 15  9  1  0  0  0  0
 16  1  1  0  0  0  0
 16 19  1  0  0  0  0
 17  8  1  6  0  0  0
 18 15  1  0  0  0  0
 19  7  1  0  0  0  0
 20 29  1  6  0  0  0
 20 10  1  0  0  0  0
 21  4  1  0  0  0  0
 22 21  1  1  0  0  0
 25  5  2  0  0  0  0
 27  5  1  1  0  0  0
 27 14  1  0  0  0  0
 28 23  1  6  0  0  0
 28  9  1  0  0  0  0
 29 30  1  0  0  0  0
 30 32  1  0  0  0  0
 31 30  2  0  0  0  0
M  END
>  <MODEL>
4

>  <REMARK>
 VINA RESULT:      -7.7      3.249      5.416
  Name = 
  1 active torsions:
  status: ('A' for Active; 'I' for Inactive)
    1  A    between atoms: C_20  and  N_29
                            x       y       z     vdW  Elec       q    Type
                         _______ _______ _______ _____ _____    ______ ____

>  <TORSDO>
F 1

$$$$
=
 OpenBabel11112416413D

 32 37  0  0  1  0  0  0  0  0999 V2000
  185.3620  177.3890  143.7450 C   0  0  0  0  0  2  0  0  0  0  0  0
  189.7110  174.6210  142.2710 C   0  0  2  0  0  3  0  0  0  0  0  0
  192.6680  175.0160  146.2160 C   0  0  0  0  0  2  0  0  0  0  0  0
  193.4540  173.7880  145.7630 C   0  0  0  0  0  2  0  0  0  0  0  0
  190.3350  173.0320  140.3480 C   0  0  0  0  0  0  0  0  0  0  0  0
  191.5700  172.6780  139.5540 C   0  0  1  0  0  3  0  0  0  0  0  0
  187.5660  175.9870  142.1560 C   0  0  2  0  0  3  0  0  0  0  0  0
  189.0850  176.0060  144.2130 C   0  0  0  0  0  2  0  0  0  0  0  0
  193.8560  173.3120  140.0460 C   0  0  2  0  0  3  0  0  0  0  0  0
  187.7430  178.0330  143.6130 N   0  0  0  0  0  2  0  0  0  0  0  0
  191.2190  174.9080  145.7530 C   0  0  0  0  0  2  0  0  0  0  0  0
  189.7550  174.7670  143.7480 N   0  0  2  0  0  0  0  0  0  0  0  0
  191.1550  174.8040  144.2190 C   0  0  2  0  0  3  0  0  0  0  0  0
  191.8570  173.3910  142.2790 C   0  0  1  0  0  3  0  0  0  0  0  0
  193.3920  173.8870  138.7280 C   0  0  0  0  0  2  0  0  0  0  0  0
  185.5900  176.7910  142.4920 O   0  0  0  0  0  0  0  0  0  0  0  0
  188.4350  176.8420  143.1010 C   0  0  2  0  0  3  0  0  0  0  0  0
  191.9380  173.7930  138.6860 N   0  0  0  0  0  2  0  0  0  0  0  0
  186.3130  175.7090  142.7220 O   0  0  0  0  0  0  0  0  0  0  0  0
  186.6600  177.6480  144.5190 C   0  0  1  0  0  3  0  0  0  0  0  0
  193.3840  173.6540  144.2450 C   0  0  0  0  0  2  0  0  0  0  0  0
  191.9270  173.5410  143.7900 C   0  0  1  0  0  3  0  0  0  0  0  0
  192.5660  172.1980  141.8290 N   0  0  0  0  0  2  0  0  0  0  0  0
  188.2510  174.6670  141.8000 C   0  0  0  0  0  2  0  0  0  0  0  0
  189.1970  172.8110  139.8020 N   0  0  0  0  0  2  0  0  0  0  0  0
  195.2020  172.6400  139.8750 C   0  0  0  0  0  1  0  0  0  0  0  0
  190.4030  173.3160  141.8370 C   0  0  1  0  0  3  0  0  0  0  0  0
  192.8020  172.2880  140.3830 C   0  0  1  0  0  3  0  0  0  0  0  0
  186.4340  178.6980  145.5040 N   0  0  0  0  0  2  0  0  0  0  0  0
  186.2150  178.4360  146.8930 C   0  0  0  0  0  0  0  0  0  0  0  0
  185.9410  179.4160  147.6890 N   0  0  0  0  0  2  0  0  0  0  0  0
  186.2190  177.0440  147.4290 C   0  0  0  0  0  1  0  0  0  0  0  0
  1 20  1  0  0  0  0
  2 24  1  1  0  0  0
  2 12  1  0  0  0  0
  4  3  1  0  0  0  0
  6 18  1  1  0  0  0
  6  5  1  0  0  0  0
  6 28  1  0  0  0  0
  7 24  1  1  0  0  0
  7 19  1  0  0  0  0
  7 17  1  0  0  0  0
  9 26  1  6  0  0  0
  9 28  1  0  0  0  0
 10 20  1  0  0  0  0
 11  3  1  0  0  0  0
 12  8  1  6  0  0  0
 12 13  1  0  0  0  0
 13 11  1  1  0  0  0
 14 23  1  1  0  0  0
 14 22  1  0  0  0  0
 15  9  1  0  0  0  0
 16 19  1  0  0  0  0
 16  1  1  0  0  0  0
 17 10  1  0  0  0  0
 17  8  1  1  0  0  0
 18 15  1  0  0  0  0
 20 29  1  1  0  0  0
 21  4  1  0  0  0  0
 22 13  1  0  0  0  0
 22 21  1  6  0  0  0
 25  5  2  0  0  0  0
 27  5  1  6  0  0  0
 27  2  1  0  0  0  0
 27 14  1  0  0  0  0
 28 23  1  1  0  0  0
 29 30  1  0  0  0  0
 30 32  1  0  0  0  0
 30 31  2  0  0  0  0
M  END
>  <MODEL>
5

>  <REMARK>
 VINA RESULT:      -7.4      2.999      7.767
  Name = 
  1 active torsions:
  status: ('A' for Active; 'I' for Inactive)
    1  A    between atoms: C_20  and  N_29
                            x       y       z     vdW  Elec       q    Type
                         _______ _______ _______ _____ _____    ______ ____

>  <TORSDO>
F 1

$$$$
=
 OpenBabel11112416413D

 32 37  0  0  1  0  0  0  0  0999 V2000
  185.3180  178.6620  142.5720 C   0  0  0  0  0  2  0  0  0  0  0  0
  188.7140  174.9360  140.7470 C   0  0  2  0  0  3  0  0  0  0  0  0
  190.6500  173.0700  144.8970 C   0  0  0  0  0  2  0  0  0  0  0  0
  191.0640  171.8060  144.1490 C   0  0  0  0  0  2  0  0  0  0  0  0
  189.1950  173.8140  138.4840 C   0  0  0  0  0  0  0  0  0  0  0  0
  190.3880  173.2380  137.7590 C   0  0  1  0  0  3  0  0  0  0  0  0
  187.2310  177.0020  140.8600 C   0  0  2  0  0  3  0  0  0  0  0  0
  188.1580  175.8730  142.9590 C   0  0  0  0  0  2  0  0  0  0  0  0
  192.5790  172.7770  138.6860 C   0  0  2  0  0  3  0  0  0  0  0  0
  187.7400  178.3420  142.9300 N   0  0  0  0  0  2  0  0  0  0  0  0
  189.3940  173.6620  144.2670 C   0  0  0  0  0  2  0  0  0  0  0  0
  188.4650  174.6470  142.1820 N   0  0  2  0  0  0  0  0  0  0  0  0
  189.6510  174.0100  142.7910 C   0  0  2  0  0  3  0  0  0  0  0  0
  190.2670  173.0180  140.5800 C   0  0  1  0  0  3  0  0  0  0  0  0
  192.6460  173.8200  137.5960 C   0  0  0  0  0  2  0  0  0  0  0  0
  185.6140  178.3860  141.2250 O   0  0  0  0  0  0  0  0  0  0  0  0
  188.0950  177.1630  142.1280 C   0  0  2  0  0  3  0  0  0  0  0  0
  191.2940  174.3120  137.3630 N   0  0  0  0  0  2  0  0  0  0  0  0
  185.8630  177.0900  141.1570 O   0  0  0  0  0  0  0  0  0  0  0  0
  186.4150  178.1780  143.5280 C   0  0  1  0  0  3  0  0  0  0  0  0
  191.3020  172.1250  142.6760 C   0  0  0  0  0  2  0  0  0  0  0  0
  190.0360  172.7140  142.0510 C   0  0  1  0  0  3  0  0  0  0  0  0
  190.6210  171.8140  139.8360 N   0  0  0  0  0  2  0  0  0  0  0  0
  187.5000  175.6700  140.1590 C   0  0  0  0  0  2  0  0  0  0  0  0
  188.2050  174.2080  137.7730 N   0  0  0  0  0  2  0  0  0  0  0  0
  193.6260  171.7090  138.4510 C   0  0  0  0  0  1  0  0  0  0  0  0
  189.0120  173.6340  139.9790 C   0  0  1  0  0  3  0  0  0  0  0  0
  191.1970  172.1920  138.5410 C   0  0  1  0  0  3  0  0  0  0  0  0
  186.3330  178.9240  144.7760 N   0  0  0  0  0  2  0  0  0  0  0  0
  185.9830  178.3230  146.0270 C   0  0  0  0  0  0  0  0  0  0  0  0
  185.8520  179.0680  147.0750 N   0  0  0  0  0  2  0  0  0  0  0  0
  185.6910  176.8650  146.1310 C   0  0  0  0  0  1  0  0  0  0  0  0
  1 20  1  0  0  0  0
  2 24  1  6  0  0  0
  2 12  1  0  0  0  0
  4  3  1  0  0  0  0
  6 18  1  1  0  0  0
  6  5  1  0  0  0  0
  6 28  1  0  0  0  0
  7 24  1  1  0  0  0
  7 19  1  0  0  0  0
  7 17  1  0  0  0  0
  9 26  1  6  0  0  0
 10 20  1  0  0  0  0
 11  3  1  0  0  0  0
 12 13  1  0  0  0  0
 12  8  1  1  0  0  0
 13 11  1  1  0  0  0
 14 23  1  6  0  0  0
 14 22  1  0  0  0  0
 15  9  1  0  0  0  0
 16  1  1  0  0  0  0
 17 10  1  0  0  0  0
 17  8  1  1  0  0  0
 18 15  1  0  0  0  0
 19 16  1  0  0  0  0
 20 29  1  1  0  0  0
 21  4  1  0  0  0  0
 22 21  1  1  0  0  0
 22 13  1  0  0  0  0
 25  5  2  0  0  0  0
 27  5  1  6  0  0  0
 27 14  1  0  0  0  0
 27  2  1  0  0  0  0
 28  9  1  0  0  0  0
 28 23  1  1  0  0  0
 29 30  1  0  0  0  0
 30 32  1  0  0  0  0
 30 31  2  0  0  0  0
M  END
>  <MODEL>
6

>  <REMARK>
 VINA RESULT:      -7.3      4.061      7.834
  Name = 
  1 active torsions:
  status: ('A' for Active; 'I' for Inactive)
    1  A    between atoms: C_20  and  N_29
                            x       y       z     vdW  Elec       q    Type
                         _______ _______ _______ _____ _____    ______ ____

>  <TORSDO>
F 1

$$$$
=
 OpenBabel11112416413D

 32 37  0  0  1  0  0  0  0  0999 V2000
  186.2840  178.5880  144.0940 C   0  0  0  0  0  2  0  0  0  0  0  0
  189.8880  174.8800  142.6760 C   0  0  2  0  0  3  0  0  0  0  0  0
  188.1660  173.2620  138.3320 C   0  0  0  0  0  2  0  0  0  0  0  0
  189.5480  172.7260  137.9710 C   0  0  0  0  0  2  0  0  0  0  0  0
  192.2110  174.1420  143.4960 C   0  0  0  0  0  0  0  0  0  0  0  0
  193.0100  172.8630  143.5680 C   0  0  1  0  0  3  0  0  0  0  0  0
  188.4730  176.4540  144.0910 C   0  0  2  0  0  3  0  0  0  0  0  0
  187.7400  175.6800  141.7670 C   0  0  0  0  0  2  0  0  0  0  0  0
  192.4890  170.7510  142.5020 C   0  0  2  0  0  3  0  0  0  0  0  0
  186.0340  176.1980  143.5250 N   0  0  0  0  0  2  0  0  0  0  0  0
  188.2990  174.4780  139.2430 C   0  0  0  0  0  2  0  0  0  0  0  0
  189.1260  175.2490  141.4570 N   0  0  2  0  0  0  0  0  0  0  0  0
  189.0470  174.0990  140.5320 C   0  0  2  0  0  3  0  0  0  0  0  0
  191.2270  173.2380  141.4000 C   0  0  1  0  0  3  0  0  0  0  0  0
  192.4900  170.6260  144.0070 C   0  0  0  0  0  2  0  0  0  0  0  0
  187.3860  178.1560  144.8550 O   0  0  0  0  0  0  0  0  0  0  0  0
  187.3980  175.7200  143.2640 C   0  0  2  0  0  3  0  0  0  0  0  0
  192.4290  171.9710  144.5670 N   0  0  0  0  0  2  0  0  0  0  0  0
  188.3360  177.8460  143.9910 O   0  0  0  0  0  0  0  0  0  0  0  0
  185.8650  177.5650  143.0320 C   0  0  1  0  0  3  0  0  0  0  0  0
  190.3160  172.3660  139.2390 C   0  0  0  0  0  2  0  0  0  0  0  0
  190.4490  173.5920  140.1440 C   0  0  1  0  0  3  0  0  0  0  0  0
  192.5700  172.7640  141.0800 N   0  0  0  0  0  2  0  0  0  0  0  0
  189.8860  176.0640  143.6530 C   0  0  0  0  0  2  0  0  0  0  0  0
  192.5160  175.0780  144.3160 N   0  0  0  0  0  2  0  0  0  0  0  0
  193.3150  169.6410  141.8870 C   0  0  0  0  0  1  0  0  0  0  0  0
  191.3220  174.4560  142.3070 C   0  0  1  0  0  3  0  0  0  0  0  0
  193.1400  172.0870  142.2500 C   0  0  1  0  0  3  0  0  0  0  0  0
  184.4750  177.7960  142.6610 N   0  0  0  0  0  2  0  0  0  0  0  0
  184.0550  178.0680  141.3210 C   0  0  0  0  0  0  0  0  0  0  0  0
  182.8140  178.3420  141.0870 N   0  0  0  0  0  2  0  0  0  0  0  0
  185.0340  178.1180  140.1980 C   0  0  0  0  0  1  0  0  0  0  0  0
  1 16  1  0  0  0  0
  2 24  1  1  0  0  0
  3 11  1  0  0  0  0
  4  3  1  0  0  0  0
  4 21  1  0  0  0  0
  5 25  2  0  0  0  0
  6  5  1  6  0  0  0
  6 18  1  0  0  0  0
  7 24  1  6  0  0  0
  9 26  1  6  0  0  0
  9 15  1  0  0  0  0
 12  8  1  1  0  0  0
 12  2  1  0  0  0  0
 13 11  1  6  0  0  0
 13 12  1  0  0  0  0
 14 23  1  6  0  0  0
 14 27  1  0  0  0  0
 15 18  1  0  0  0  0
 17  8  1  6  0  0  0
 17 10  1  0  0  0  0
 17  7  1  0  0  0  0
 19  7  1  0  0  0  0
 19 16  1  0  0  0  0
 20 29  1  1  0  0  0
 20 10  1  0  0  0  0
 20  1  1  0  0  0  0
 22 21  1  6  0  0  0
 22 13  1  0  0  0  0
 22 14  1  0  0  0  0
 27  2  1  0  0  0  0
 27  5  1  1  0  0  0
 28 23  1  6  0  0  0
 28  9  1  0  0  0  0
 28  6  1  0  0  0  0
 30 29  1  0  0  0  0
 31 30  2  0  0  0  0
 32 30  1  0  0  0  0
M  END
>  <MODEL>
7

>  <REMARK>
 VINA RESULT:      -7.3      2.648      7.619
  Name = 
  1 active torsions:
  status: ('A' for Active; 'I' for Inactive)
    1  A    between atoms: C_20  and  N_29
                            x       y       z     vdW  Elec       q    Type
                         _______ _______ _______ _____ _____    ______ ____

>  <TORSDO>
F 1

$$$$
=
 OpenBabel11112416413D

 32 37  0  0  1  0  0  0  0  0999 V2000
  197.5060  175.4820  141.8600 C   0  0  0  0  0  2  0  0  0  0  0  0
  192.6390  175.2310  144.0930 C   0  0  2  0  0  3  0  0  0  0  0  0
  189.7570  173.8440  140.3210 C   0  0  0  0  0  2  0  0  0  0  0  0
  188.6940  173.3520  141.2990 C   0  0  0  0  0  2  0  0  0  0  0  0
  191.6870  175.3050  146.4810 C   0  0  0  0  0  0  0  0  0  0  0  0
  190.4300  175.7890  147.1630 C   0  0  1  0  0  3  0  0  0  0  0  0
  195.0680  175.8590  143.6650 C   0  0  2  0  0  3  0  0  0  0  0  0
  193.5380  174.9880  141.8100 C   0  0  0  0  0  2  0  0  0  0  0  0
  188.3720  176.5020  146.1010 C   0  0  2  0  0  3  0  0  0  0  0  0
  195.3810  176.5980  141.2780 N   0  0  0  0  0  2  0  0  0  0  0  0
  191.1420  173.7090  140.9430 C   0  0  0  0  0  2  0  0  0  0  0  0
  192.5850  174.4680  142.8210 N   0  0  2  0  0  0  0  0  0  0  0  0
  191.2280  174.5330  142.2390 C   0  0  2  0  0  3  0  0  0  0  0  0
  190.2470  174.7700  144.5270 C   0  0  1  0  0  3  0  0  0  0  0  0
  189.0140  177.6270  146.8780 C   0  0  0  0  0  2  0  0  0  0  0  0
  197.1720  175.8260  143.1830 O   0  0  0  0  0  0  0  0  0  0  0  0
  194.4210  176.1480  142.2950 C   0  0  2  0  0  3  0  0  0  0  0  0
  190.3930  177.2490  147.1560 N   0  0  0  0  0  2  0  0  0  0  0  0
  196.1860  175.0220  143.5380 O   0  0  0  0  0  0  0  0  0  0  0  0
  196.2960  175.5130  140.9200 C   0  0  1  0  0  3  0  0  0  0  0  0
  188.7770  174.1420  142.6020 C   0  0  0  0  0  2  0  0  0  0  0  0
  190.1680  173.9960  143.2220 C   0  0  1  0  0  3  0  0  0  0  0  0
  189.2680  174.2850  145.4940 N   0  0  0  0  0  2  0  0  0  0  0  0
  194.0750  175.2160  144.6340 C   0  0  0  0  0  2  0  0  0  0  0  0
  192.7460  175.2020  147.1950 N   0  0  0  0  0  2  0  0  0  0  0  0
  186.9040  176.3950  146.4540 C   0  0  0  0  0  1  0  0  0  0  0  0
  191.6450  174.6460  145.1150 C   0  0  1  0  0  3  0  0  0  0  0  0
  189.1120  175.2740  146.5670 C   0  0  1  0  0  3  0  0  0  0  0  0
  196.7540  175.6780  139.5470 N   0  0  0  0  0  2  0  0  0  0  0  0
  196.2290  174.9260  138.4490 C   0  0  0  0  0  0  0  0  0  0  0  0
  196.7450  175.0710  137.2740 N   0  0  0  0  0  2  0  0  0  0  0  0
  195.1480  173.9170  138.6470 C   0  0  0  0  0  1  0  0  0  0  0  0
  1 16  1  0  0  0  0
  2 24  1  1  0  0  0
  2 27  1  0  0  0  0
  3 11  1  0  0  0  0
  3  4  1  0  0  0  0
  4 21  1  0  0  0  0
  5 25  2  0  0  0  0
  6  5  1  6  0  0  0
  7 24  1  1  0  0  0
  9 26  1  1  0  0  0
  9 28  1  0  0  0  0
  9 15  1  0  0  0  0
 10 17  1  0  0  0  0
 12  8  1  6  0  0  0
 12  2  1  0  0  0  0
 13 11  1  6  0  0  0
 13 12  1  0  0  0  0
 13 22  1  0  0  0  0
 14 27  1  0  0  0  0
 14 23  1  1  0  0  0
 15 18  1  0  0  0  0
 16 19  1  0  0  0  0
 17  8  1  6  0  0  0
 17  7  1  0  0  0  0
 18  6  1  0  0  0  0
 19  7  1  0  0  0  0
 20 29  1  6  0  0  0
 20 10  1  0  0  0  0
 20  1  1  0  0  0  0
 22 21  1  6  0  0  0
 22 14  1  0  0  0  0
 27  5  1  1  0  0  0
 28 23  1  6  0  0  0
 28  6  1  0  0  0  0
 30 32  1  0  0  0  0
 30 29  1  0  0  0  0
 31 30  2  0  0  0  0
M  END
>  <MODEL>
8

>  <REMARK>
 VINA RESULT:      -7.2      2.894      4.125
  Name = 
  1 active torsions:
  status: ('A' for Active; 'I' for Inactive)
    1  A    between atoms: C_20  and  N_29
                            x       y       z     vdW  Elec       q    Type
                         _______ _______ _______ _____ _____    ______ ____

>  <TORSDO>
F 1

$$$$
=
 OpenBabel11112416413D

 32 37  0  0  1  0  0  0  0  0999 V2000
  187.7400  178.4230  147.5730 C   0  0  0  0  0  2  0  0  0  0  0  0
  191.0800  175.2180  144.8690 C   0  0  2  0  0  3  0  0  0  0  0  0
  188.4950  174.0930  140.8060 C   0  0  0  0  0  2  0  0  0  0  0  0
  189.7820  173.7140  140.0790 C   0  0  0  0  0  2  0  0  0  0  0  0
  193.5550  174.5430  145.0480 C   0  0  0  0  0  0  0  0  0  0  0  0
  194.4010  173.3280  144.7530 C   0  0  1  0  0  3  0  0  0  0  0  0
  189.9560  176.4750  146.7760 C   0  0  2  0  0  3  0  0  0  0  0  0
  188.7530  175.9770  144.5760 C   0  0  0  0  0  2  0  0  0  0  0  0
  193.7390  171.3510  143.5190 C   0  0  2  0  0  3  0  0  0  0  0  0
  187.4640  176.1230  146.7180 N   0  0  0  0  0  2  0  0  0  0  0  0
  188.7790  175.1780  141.8390 C   0  0  0  0  0  2  0  0  0  0  0  0
  190.0500  175.6950  143.9130 N   0  0  2  0  0  0  0  0  0  0  0  0
  189.8120  174.6810  142.8650 C   0  0  2  0  0  3  0  0  0  0  0  0
  192.1650  173.8680  143.1020 C   0  0  1  0  0  3  0  0  0  0  0  0
  194.0830  171.0210  144.9520 C   0  0  0  0  0  2  0  0  0  0  0  0
  189.0010  177.9710  148.0040 O   0  0  0  0  0  0  0  0  0  0  0  0
  188.7540  175.7860  146.1000 C   0  0  2  0  0  3  0  0  0  0  0  0
  194.0950  172.2670  145.7080 N   0  0  0  0  0  2  0  0  0  0  0  0
  189.7450  177.8540  146.9190 O   0  0  0  0  0  0  0  0  0  0  0  0
  187.1340  177.5290  146.4850 C   0  0  1  0  0  3  0  0  0  0  0  0
  190.8280  173.2390  141.0820 C   0  0  0  0  0  2  0  0  0  0  0  0
  191.1110  174.3350  142.1110 C   0  0  1  0  0  3  0  0  0  0  0  0
  193.4190  173.5420  142.4320 N   0  0  0  0  0  2  0  0  0  0  0  0
  191.2500  176.2520  145.9910 C   0  0  0  0  0  2  0  0  0  0  0  0
  193.9990  175.3770  145.9140 N   0  0  0  0  0  2  0  0  0  0  0  0
  194.4510  170.3990  142.5800 C   0  0  0  0  0  1  0  0  0  0  0  0
  192.4110  174.9530  144.1400 C   0  0  1  0  0  3  0  0  0  0  0  0
  194.2640  172.7530  143.3360 C   0  0  1  0  0  3  0  0  0  0  0  0
  185.6880  177.7070  146.4620 N   0  0  0  0  0  2  0  0  0  0  0  0
  185.0250  178.6220  145.5850 C   0  0  0  0  0  0  0  0  0  0  0  0
  183.7460  178.7820  145.6820 N   0  0  0  0  0  2  0  0  0  0  0  0
  185.7890  179.4550  144.6120 C   0  0  0  0  0  1  0  0  0  0  0  0
  1 16  1  0  0  0  0
  2 24  1  1  0  0  0
  3 11  1  0  0  0  0
  4  3  1  0  0  0  0
  4 21  1  0  0  0  0
  5 25  2  0  0  0  0
  6  5  1  6  0  0  0
  6 18  1  0  0  0  0
  7 24  1  6  0  0  0
  7 19  1  0  0  0  0
  9 26  1  6  0  0  0
  9 15  1  0  0  0  0
 12  8  1  1  0  0  0
 12  2  1  0  0  0  0
 13 11  1  6  0  0  0
 13 12  1  0  0  0  0
 14 23  1  6  0  0  0
 14 27  1  0  0  0  0
 15 18  1  0  0  0  0
 17  8  1  6  0  0  0
 17 10  1  0  0  0  0
 17  7  1  0  0  0  0
 19 16  1  0  0  0  0
 20 29  1  1  0  0  0
 20 10  1  0  0  0  0
 20  1  1  0  0  0  0
 22 21  1  6  0  0  0
 22 13  1  0  0  0  0
 22 14  1  0  0  0  0
 27  2  1  0  0  0  0
 27  5  1  1  0  0  0
 28 23  1  6  0  0  0
 28  9  1  0  0  0  0
 28  6  1  0  0  0  0
 30 31  2  0  0  0  0
 30 29  1  0  0  0  0
 32 30  1  0  0  0  0
M  END
>  <MODEL>
9

>  <REMARK>
 VINA RESULT:      -7.0      2.124      7.366
  Name = 
  1 active torsions:
  status: ('A' for Active; 'I' for Inactive)
    1  A    between atoms: C_20  and  N_29
                            x       y       z     vdW  Elec       q    Type
                         _______ _______ _______ _____ _____    ______ ____

>  <TORSDO>
F 1

$$$$
