=
 OpenBabel11112416313D

 32 37  0  0  1  0  0  0  0  0999 V2000
  194.8450  175.6210  145.1930 C   0  0  0  0  0  2  0  0  0  0  0  0
  189.3950  175.1160  145.1070 C   0  0  1  0  0  3  0  0  0  0  0  0
  189.9590  172.6630  140.8670 C   0  0  0  0  0  2  0  0  0  0  0  0
  188.7000  173.1940  140.3530 N   0  0  0  0  0  2  0  0  0  0  0  0
  187.8120  177.0820  145.2770 C   0  0  1  0  0  3  0  0  0  0  0  0
  186.7490  177.8420  144.5410 C   0  0  0  0  0  0  0  0  0  0  0  0
  191.5670  175.4980  145.5780 C   0  0  1  0  0  3  0  0  0  0  0  0
  190.9410  173.1650  145.0010 C   0  0  0  0  0  2  0  0  0  0  0  0
  185.4140  178.4370  142.9080 N   0  0  0  0  0  0  0  0  0  0  0  0
  193.3150  173.6540  145.6080 C   0  0  0  0  0  2  0  0  0  0  0  0
  189.8880  172.5610  142.3880 C   0  0  0  0  0  2  0  0  0  0  0  0
  189.6320  173.7480  144.4350 C   0  0  2  0  0  3  0  0  0  0  0  0
  189.6940  173.8940  142.9690 N   0  0  2  0  0  0  0  0  0  0  0  0
  188.0810  175.7930  143.0600 C   0  0  1  0  0  3  0  0  0  0  0  0
  185.3460  179.3270  143.9190 C   0  0  0  0  0  3  0  0  0  0  0  0
  193.7420  176.5560  144.7130 C   0  0  0  0  0  2  0  0  0  0  0  0
  192.0660  174.1930  144.9330 C   0  0  2  0  0  3  0  0  0  0  0  0
  186.1700  178.9930  144.9430 N   0  0  0  0  0  0  0  0  0  0  0  0
  192.6220  176.5990  145.7470 C   0  0  0  0  0  2  0  0  0  0  0  0
  194.5460  174.1580  144.8670 C   0  0  2  0  0  3  0  0  0  0  0  0
  188.4800  174.5180  140.9310 C   0  0  0  0  0  2  0  0  0  0  0  0
  188.4090  174.4170  142.4600 C   0  0  1  0  0  3  0  0  0  0  0  0
  186.7160  176.2850  142.5490 C   0  0  0  0  0  2  0  0  0  0  0  0
  190.4720  175.9900  144.8490 O   0  0  0  0  0  0  0  0  0  0  0  0
  187.3930  176.8720  146.7230 C   0  0  0  0  0  1  0  0  0  0  0  0
  184.6660  178.4820  141.6640 C   0  0  0  0  0  1  0  0  0  0  0  0
  188.0850  175.7170  144.6060 C   0  0  1  0  0  3  0  0  0  0  0  0
  186.3110  177.5180  143.2890 C   0  0  0  0  0  0  0  0  0  0  0  0
  195.6900  173.3330  145.2290 N   0  0  0  0  0  2  0  0  0  0  0  0
  196.0890  172.1940  144.4670 C   0  0  0  0  0  0  0  0  0  0  0  0
  195.4380  171.8400  143.4480 O   0  0  0  0  0  0  0  0  0  0  0  0
  197.5240  171.2550  144.9680 S   0  0  0  0  0  1  0  0  0  0  0  0
  2 24  1  6  0  0  0
  3 11  1  0  0  0  0
  4  3  1  0  0  0  0
  4 21  1  0  0  0  0
  5 25  1  1  0  0  0
  6 18  1  0  0  0  0
  6  5  1  0  0  0  0
  7 19  1  6  0  0  0
  9 28  1  0  0  0  0
  9 15  1  0  0  0  0
 12  8  1  1  0  0  0
 12  2  1  0  0  0  0
 13 11  1  6  0  0  0
 13 12  1  0  0  0  0
 14 23  1  6  0  0  0
 14 27  1  0  0  0  0
 15 18  2  0  0  0  0
 16  1  1  0  0  0  0
 16 19  1  0  0  0  0
 17  8  1  1  0  0  0
 17  7  1  0  0  0  0
 17 10  1  0  0  0  0
 20  1  1  0  0  0  0
 20 29  1  1  0  0  0
 20 10  1  0  0  0  0
 22 21  1  6  0  0  0
 22 13  1  0  0  0  0
 22 14  1  0  0  0  0
 23 28  1  0  0  0  0
 24  7  1  0  0  0  0
 26  9  1  0  0  0  0
 27  2  1  0  0  0  0
 27  5  1  0  0  0  0
 28  6  2  0  0  0  0
 30 32  1  0  0  0  0
 30 29  1  0  0  0  0
 31 30  2  0  0  0  0
M  END
>  <MODEL>
1

>  <REMARK>
 VINA RESULT:      -8.5      0.000      0.000
  Name = 
  1 active torsions:
  status: ('A' for Active; 'I' for Inactive)
    1  A    between atoms: C_20  and  N_29
                            x       y       z     vdW  Elec       q    Type
                         _______ _______ _______ _____ _____    ______ ____

>  <TORSDO>
F 1

$$$$
=
 OpenBabel11112416313D

 32 37  0  0  1  0  0  0  0  0999 V2000
  191.0430  170.9280  142.2630 C   0  0  0  0  0  2  0  0  0  0  0  0
  189.4470  176.1590  142.4980 C   0  0  1  0  0  3  0  0  0  0  0  0
  191.3870  176.2660  147.0300 C   0  0  0  0  0  2  0  0  0  0  0  0
  190.3620  177.2030  147.4830 N   0  0  0  0  0  2  0  0  0  0  0  0
  187.0680  176.9080  142.0780 C   0  0  1  0  0  3  0  0  0  0  0  0
  185.8790  177.5640  142.7170 C   0  0  0  0  0  0  0  0  0  0  0  0
  189.9720  174.0360  141.9470 C   0  0  1  0  0  3  0  0  0  0  0  0
  191.8070  175.4430  142.8530 C   0  0  0  0  0  2  0  0  0  0  0  0
  184.6280  178.4720  144.2690 N   0  0  0  0  0  0  0  0  0  0  0  0
  192.3260  173.1020  142.1490 C   0  0  0  0  0  2  0  0  0  0  0  0
  191.6420  176.4700  145.5400 C   0  0  0  0  0  2  0  0  0  0  0  0
  190.7090  176.4020  143.3510 C   0  0  2  0  0  3  0  0  0  0  0  0
  190.4170  176.1940  144.7810 N   0  0  2  0  0  0  0  0  0  0  0  0
  188.0780  176.9910  144.4490 C   0  0  1  0  0  3  0  0  0  0  0  0
  183.9100  178.2720  143.1450 C   0  0  0  0  0  3  0  0  0  0  0  0
  189.7110  171.5720  142.6230 C   0  0  0  0  0  2  0  0  0  0  0  0
  191.2780  174.0160  142.7610 C   0  0  2  0  0  3  0  0  0  0  0  0
  184.6540  177.7000  142.1660 N   0  0  0  0  0  0  0  0  0  0  0  0
  189.3790  172.6620  141.6110 C   0  0  0  0  0  2  0  0  0  0  0  0
  192.2340  171.7260  142.7940 C   0  0  2  0  0  3  0  0  0  0  0  0
  189.1350  176.9540  146.7290 C   0  0  0  0  0  2  0  0  0  0  0  0
  189.3910  177.1570  145.2300 C   0  0  1  0  0  3  0  0  0  0  0  0
  187.0490  178.0390  144.9070 C   0  0  0  0  0  2  0  0  0  0  0  0
  189.0180  174.8210  142.6160 O   0  0  0  0  0  0  0  0  0  0  0  0
  187.2820  177.4700  140.6820 C   0  0  0  0  0  1  0  0  0  0  0  0
  184.1510  179.0670  145.5060 C   0  0  0  0  0  1  0  0  0  0  0  0
  188.3410  177.1170  142.9290 C   0  0  1  0  0  3  0  0  0  0  0  0
  185.8560  178.0060  144.0080 C   0  0  0  0  0  0  0  0  0  0  0  0
  193.4670  170.9960  142.5340 N   0  0  0  0  0  2  0  0  0  0  0  0
  194.0690  170.1340  143.5000 C   0  0  0  0  0  0  0  0  0  0  0  0
  193.5590  169.9910  144.6430 O   0  0  0  0  0  0  0  0  0  0  0  0
  195.5670  169.2540  143.0850 S   0  0  0  0  0  1  0  0  0  0  0  0
  1 16  1  0  0  0  0
  1 20  1  0  0  0  0
  2 24  1  1  0  0  0
  2 27  1  0  0  0  0
  2 12  1  0  0  0  0
  3  4  1  0  0  0  0
  5 25  1  6  0  0  0
  5  6  1  0  0  0  0
  5 27  1  0  0  0  0
  6 28  2  0  0  0  0
  7 19  1  1  0  0  0
  7 24  1  0  0  0  0
  7 17  1  0  0  0  0
  9 26  1  0  0  0  0
 10 20  1  0  0  0  0
 11  3  1  0  0  0  0
 12  8  1  6  0  0  0
 12 13  1  0  0  0  0
 13 22  1  0  0  0  0
 13 11  1  1  0  0  0
 14 23  1  1  0  0  0
 14 22  1  0  0  0  0
 15  9  1  0  0  0  0
 17 10  1  6  0  0  0
 17  8  1  0  0  0  0
 18  6  1  0  0  0  0
 18 15  2  0  0  0  0
 19 16  1  0  0  0  0
 20 29  1  6  0  0  0
 21  4  1  0  0  0  0
 22 21  1  1  0  0  0
 27 14  1  0  0  0  0
 28  9  1  0  0  0  0
 28 23  1  0  0  0  0
 29 30  1  0  0  0  0
 30 31  2  0  0  0  0
 32 30  1  0  0  0  0
M  END
>  <MODEL>
2

>  <REMARK>
 VINA RESULT:      -8.2      2.407      4.286
  Name = 
  1 active torsions:
  status: ('A' for Active; 'I' for Inactive)
    1  A    between atoms: C_20  and  N_29
                            x       y       z     vdW  Elec       q    Type
                         _______ _______ _______ _____ _____    ______ ____

>  <TORSDO>
F 1

$$$$
=
 OpenBabel11112416313D

 32 37  0  0  1  0  0  0  0  0999 V2000
  190.3850  171.7460  140.8790 C   0  0  0  0  0  2  0  0  0  0  0  0
  189.3070  176.6660  143.0230 C   0  0  1  0  0  3  0  0  0  0  0  0
  192.0460  175.2860  146.8840 C   0  0  0  0  0  2  0  0  0  0  0  0
  191.2040  176.0530  147.7970 N   0  0  0  0  0  2  0  0  0  0  0  0
  186.9630  177.5630  143.3390 C   0  0  1  0  0  3  0  0  0  0  0  0
  185.9710  178.0090  144.3730 C   0  0  0  0  0  0  0  0  0  0  0  0
  189.5400  174.8170  141.7540 C   0  0  1  0  0  3  0  0  0  0  0  0
  191.6220  175.8220  142.6600 C   0  0  0  0  0  2  0  0  0  0  0  0
  185.1070  178.4050  146.3470 N   0  0  0  0  0  0  0  0  0  0  0  0
  191.8040  173.8150  141.1830 C   0  0  0  0  0  2  0  0  0  0  0  0
  192.0410  175.9470  145.5080 C   0  0  0  0  0  2  0  0  0  0  0  0
  190.7200  176.5970  143.6380 C   0  0  2  0  0  3  0  0  0  0  0  0
  190.6780  175.9530  144.9630 N   0  0  2  0  0  0  0  0  0  0  0  0
  188.3940  176.8660  145.3680 C   0  0  1  0  0  3  0  0  0  0  0  0
  184.1810  178.5880  145.3840 C   0  0  0  0  0  3  0  0  0  0  0  0
  189.2010  172.2720  141.6790 C   0  0  0  0  0  2  0  0  0  0  0  0
  190.9670  174.5100  142.2420 C   0  0  2  0  0  3  0  0  0  0  0  0
  184.6820  178.3400  144.1480 N   0  0  0  0  0  0  0  0  0  0  0  0
  188.7810  173.6340  141.1380 C   0  0  0  0  0  2  0  0  0  0  0  0
  191.7160  172.3070  141.3790 C   0  0  2  0  0  3  0  0  0  0  0  0
  189.8440  176.0830  147.2660 C   0  0  0  0  0  2  0  0  0  0  0  0
  189.8360  176.7470  145.8820 C   0  0  1  0  0  3  0  0  0  0  0  0
  187.5580  177.7380  146.3210 C   0  0  0  0  0  2  0  0  0  0  0  0
  188.7950  175.3690  142.8080 O   0  0  0  0  0  0  0  0  0  0  0  0
  186.9640  178.5330  142.1700 C   0  0  0  0  0  1  0  0  0  0  0  0
  184.9170  178.5870  147.7760 C   0  0  0  0  0  1  0  0  0  0  0  0
  188.3830  177.4630  143.9400 C   0  0  1  0  0  3  0  0  0  0  0  0
  186.2220  178.0190  145.7140 C   0  0  0  0  0  0  0  0  0  0  0  0
  192.8140  171.6700  140.6660 N   0  0  0  0  0  2  0  0  0  0  0  0
  194.0490  171.3310  141.2990 C   0  0  0  0  0  0  0  0  0  0  0  0
  194.2450  171.6000  142.5130 O   0  0  0  0  0  0  0  0  0  0  0  0
  195.3320  170.5240  140.3530 S   0  0  0  0  0  1  0  0  0  0  0  0
  1 20  1  0  0  0  0
  1 16  1  0  0  0  0
  2 24  1  1  0  0  0
  2 12  1  0  0  0  0
  2 27  1  0  0  0  0
  3  4  1  0  0  0  0
  5 25  1  6  0  0  0
  5 27  1  0  0  0  0
  5  6  1  0  0  0  0
  6 28  2  0  0  0  0
  7 19  1  1  0  0  0
  7 17  1  0  0  0  0
  7 24  1  0  0  0  0
  9 26  1  0  0  0  0
 10 20  1  0  0  0  0
 11  3  1  0  0  0  0
 12  8  1  6  0  0  0
 12 13  1  0  0  0  0
 13 11  1  1  0  0  0
 13 22  1  0  0  0  0
 14 22  1  0  0  0  0
 14 23  1  1  0  0  0
 15  9  1  0  0  0  0
 17 10  1  6  0  0  0
 17  8  1  0  0  0  0
 18  6  1  0  0  0  0
 18 15  2  0  0  0  0
 19 16  1  0  0  0  0
 20 29  1  6  0  0  0
 21  4  1  0  0  0  0
 22 21  1  1  0  0  0
 27 14  1  0  0  0  0
 28 23  1  0  0  0  0
 28  9  1  0  0  0  0
 29 30  1  0  0  0  0
 30 31  2  0  0  0  0
 32 30  1  0  0  0  0
M  END
>  <MODEL>
3

>  <REMARK>
 VINA RESULT:      -8.0      2.444      4.567
  Name = 
  1 active torsions:
  status: ('A' for Active; 'I' for Inactive)
    1  A    between atoms: C_20  and  N_29
                            x       y       z     vdW  Elec       q    Type
                         _______ _______ _______ _____ _____    ______ ____

>  <TORSDO>
F 1

$$$$
=
 OpenBabel11112416313D

 32 37  0  0  1  0  0  0  0  0999 V2000
  188.0440  176.0400  147.1530 C   0  0  0  0  0  2  0  0  0  0  0  0
  192.6590  174.9980  144.3980 C   0  0  1  0  0  3  0  0  0  0  0  0
  189.8170  172.8690  140.9770 C   0  0  0  0  0  2  0  0  0  0  0  0
  190.8560  171.8870  140.6780 N   0  0  0  0  0  2  0  0  0  0  0  0
  194.6330  173.7760  145.4020 C   0  0  1  0  0  3  0  0  0  0  0  0
  195.4700  172.5360  145.2850 C   0  0  0  0  0  0  0  0  0  0  0  0
  191.0420  175.6830  145.8140 C   0  0  1  0  0  3  0  0  0  0  0  0
  190.7470  176.2580  143.4160 C   0  0  0  0  0  2  0  0  0  0  0  0
  196.1420  170.5780  144.5700 N   0  0  0  0  0  0  0  0  0  0  0  0
  189.0360  177.0470  145.0580 C   0  0  0  0  0  2  0  0  0  0  0  0
  190.4630  174.1650  141.4570 C   0  0  0  0  0  2  0  0  0  0  0  0
  191.8210  175.1950  143.1180 C   0  0  2  0  0  3  0  0  0  0  0  0
  191.2170  173.9210  142.6920 N   0  0  2  0  0  0  0  0  0  0  0  0
  193.1680  172.6590  143.5960 C   0  0  1  0  0  3  0  0  0  0  0  0
  196.8420  170.9440  145.6630 C   0  0  0  0  0  3  0  0  0  0  0  0
  189.0650  174.9160  147.2630 C   0  0  0  0  0  2  0  0  0  0  0  0
  190.0030  175.9300  144.7060 C   0  0  2  0  0  3  0  0  0  0  0  0
  196.4420  172.1490  146.1380 N   0  0  0  0  0  0  0  0  0  0  0  0
  190.4740  175.4970  147.2260 C   0  0  0  0  0  2  0  0  0  0  0  0
  187.7910  176.4520  145.7030 C   0  0  2  0  0  3  0  0  0  0  0  0
  191.6280  171.6380  141.8920 C   0  0  0  0  0  2  0  0  0  0  0  0
  192.2780  172.9410  142.3770 C   0  0  1  0  0  3  0  0  0  0  0  0
  194.2890  171.6750  143.2220 C   0  0  0  0  0  2  0  0  0  0  0  0
  191.8400  174.5800  145.4680 O   0  0  0  0  0  0  0  0  0  0  0  0
  195.5250  174.9860  145.6170 C   0  0  0  0  0  1  0  0  0  0  0  0
  196.3110  169.3540  143.8040 C   0  0  0  0  0  1  0  0  0  0  0  0
  193.7650  173.9800  144.1390 C   0  0  1  0  0  3  0  0  0  0  0  0
  195.2660  171.5660  144.3470 C   0  0  0  0  0  0  0  0  0  0  0  0
  186.7160  177.4330  145.6540 N   0  0  0  0  0  2  0  0  0  0  0  0
  185.7440  177.4580  144.6080 C   0  0  0  0  0  0  0  0  0  0  0  0
  185.7990  176.6330  143.6580 O   0  0  0  0  0  0  0  0  0  0  0  0
  184.4410  178.6800  144.6430 S   0  0  0  0  0  1  0  0  0  0  0  0
  1 16  1  0  0  0  0
  2 24  1  1  0  0  0
  3 11  1  0  0  0  0
  4  3  1  0  0  0  0
  4 21  1  0  0  0  0
  5 25  1  6  0  0  0
  6  5  1  0  0  0  0
  6 18  1  0  0  0  0
  7 19  1  1  0  0  0
  9 15  1  0  0  0  0
 10 20  1  0  0  0  0
 12  8  1  1  0  0  0
 12  2  1  0  0  0  0
 13 11  1  6  0  0  0
 13 12  1  0  0  0  0
 14 23  1  6  0  0  0
 14 27  1  0  0  0  0
 15 18  2  0  0  0  0
 17  8  1  6  0  0  0
 17 10  1  0  0  0  0
 17  7  1  0  0  0  0
 19 16  1  0  0  0  0
 20 29  1  1  0  0  0
 20  1  1  0  0  0  0
 22 21  1  1  0  0  0
 22 13  1  0  0  0  0
 22 14  1  0  0  0  0
 23 28  1  0  0  0  0
 24  7  1  0  0  0  0
 26  9  1  0  0  0  0
 27  2  1  0  0  0  0
 27  5  1  0  0  0  0
 28  9  1  0  0  0  0
 28  6  2  0  0  0  0
 30 32  1  0  0  0  0
 30 29  1  0  0  0  0
 31 30  2  0  0  0  0
M  END
>  <MODEL>
4

>  <REMARK>
 VINA RESULT:      -7.9      3.321      8.103
  Name = 
  1 active torsions:
  status: ('A' for Active; 'I' for Inactive)
    1  A    between atoms: C_20  and  N_29
                            x       y       z     vdW  Elec       q    Type
                         _______ _______ _______ _____ _____    ______ ____

>  <TORSDO>
F 1

$$$$
=
 OpenBabel11112416313D

 32 37  0  0  1  0  0  0  0  0999 V2000
  187.3690  176.9660  146.5370 C   0  0  0  0  0  2  0  0  0  0  0  0
  192.1230  175.9660  144.0150 C   0  0  1  0  0  3  0  0  0  0  0  0
  189.6590  172.7150  141.2430 C   0  0  0  0  0  2  0  0  0  0  0  0
  190.8310  171.8470  141.1630 N   0  0  0  0  0  2  0  0  0  0  0  0
  194.2350  175.3030  145.2380 C   0  0  1  0  0  3  0  0  0  0  0  0
  195.2410  174.2010  145.3990 C   0  0  0  0  0  0  0  0  0  0  0  0
  190.4060  176.7290  145.2610 C   0  0  1  0  0  3  0  0  0  0  0  0
  190.0670  176.6790  142.8020 C   0  0  0  0  0  2  0  0  0  0  0  0
  196.1930  172.2440  145.1490 N   0  0  0  0  0  0  0  0  0  0  0  0
  188.2390  177.5820  144.2460 C   0  0  0  0  0  2  0  0  0  0  0  0
  190.1090  174.1660  141.3930 C   0  0  0  0  0  2  0  0  0  0  0  0
  191.2840  175.7370  142.7400 C   0  0  2  0  0  3  0  0  0  0  0  0
  190.8720  174.3260  142.6360 N   0  0  2  0  0  0  0  0  0  0  0  0
  192.9690  173.6000  143.7730 C   0  0  1  0  0  3  0  0  0  0  0  0
  196.8180  172.9510  146.1130 C   0  0  0  0  0  3  0  0  0  0  0  0
  188.5370  176.0530  146.8880 C   0  0  0  0  0  2  0  0  0  0  0  0
  189.3580  176.5600  144.1470 C   0  0  2  0  0  3  0  0  0  0  0  0
  196.2450  174.1660  146.3000 N   0  0  0  0  0  0  0  0  0  0  0  0
  189.8500  176.8020  146.6890 C   0  0  0  0  0  2  0  0  0  0  0  0
  187.0810  176.9860  145.0360 C   0  0  2  0  0  3  0  0  0  0  0  0
  191.6130  172.0010  142.3860 C   0  0  0  0  0  2  0  0  0  0  0  0
  192.0650  173.4590  142.5390 C   0  0  1  0  0  3  0  0  0  0  0  0
  194.2230  172.7230  143.6180 C   0  0  0  0  0  2  0  0  0  0  0  0
  191.3560  175.7000  145.1680 O   0  0  0  0  0  0  0  0  0  0  0  0
  194.9450  176.6430  145.1460 C   0  0  0  0  0  1  0  0  0  0  0  0
  196.5440  170.9110  144.6890 C   0  0  0  0  0  1  0  0  0  0  0  0
  193.3660  175.0810  143.9800 C   0  0  1  0  0  3  0  0  0  0  0  0
  195.1900  173.0190  144.7190 C   0  0  0  0  0  0  0  0  0  0  0  0
  185.8790  177.7670  144.7800 N   0  0  0  0  0  2  0  0  0  0  0  0
  185.1620  177.6940  143.5470 C   0  0  0  0  0  0  0  0  0  0  0  0
  185.5660  176.9550  142.6100 O   0  0  0  0  0  0  0  0  0  0  0  0
  183.6790  178.6660  143.3290 S   0  0  0  0  0  1  0  0  0  0  0  0
  1 16  1  0  0  0  0
  2 24  1  1  0  0  0
  3 11  1  0  0  0  0
  4  3  1  0  0  0  0
  4 21  1  0  0  0  0
  5 25  1  6  0  0  0
  5  6  1  0  0  0  0
  6 18  1  0  0  0  0
  7 19  1  1  0  0  0
  9 15  1  0  0  0  0
 10 20  1  0  0  0  0
 12  8  1  1  0  0  0
 12  2  1  0  0  0  0
 13 11  1  6  0  0  0
 13 12  1  0  0  0  0
 14 23  1  6  0  0  0
 14 27  1  0  0  0  0
 15 18  2  0  0  0  0
 17  8  1  6  0  0  0
 17 10  1  0  0  0  0
 17  7  1  0  0  0  0
 19 16  1  0  0  0  0
 20 29  1  1  0  0  0
 20  1  1  0  0  0  0
 22 21  1  1  0  0  0
 22 13  1  0  0  0  0
 22 14  1  0  0  0  0
 23 28  1  0  0  0  0
 24  7  1  0  0  0  0
 26  9  1  0  0  0  0
 27  2  1  0  0  0  0
 27  5  1  0  0  0  0
 28  9  1  0  0  0  0
 28  6  2  0  0  0  0
 30 29  1  0  0  0  0
 31 30  2  0  0  0  0
 32 30  1  0  0  0  0
M  END
>  <MODEL>
5

>  <REMARK>
 VINA RESULT:      -7.9      3.378      7.978
  Name = 
  1 active torsions:
  status: ('A' for Active; 'I' for Inactive)
    1  A    between atoms: C_20  and  N_29
                            x       y       z     vdW  Elec       q    Type
                         _______ _______ _______ _____ _____    ______ ____

>  <TORSDO>
F 1

$$$$
=
 OpenBabel11112416313D

 32 37  0  0  1  0  0  0  0  0999 V2000
  189.7080  172.0850  142.9120 C   0  0  0  0  0  2  0  0  0  0  0  0
  187.4520  177.0400  142.3390 C   0  0  1  0  0  3  0  0  0  0  0  0
  187.4300  177.3020  147.2640 C   0  0  0  0  0  2  0  0  0  0  0  0
  186.1920  178.0770  147.2500 N   0  0  0  0  0  2  0  0  0  0  0  0
  185.3490  177.4650  141.0000 C   0  0  1  0  0  3  0  0  0  0  0  0
  183.9280  177.9360  141.1020 C   0  0  0  0  0  0  0  0  0  0  0  0
  188.4340  175.0230  142.1040 C   0  0  1  0  0  3  0  0  0  0  0  0
  189.5580  176.6460  143.6110 C   0  0  0  0  0  2  0  0  0  0  0  0
  182.0590  178.6250  142.0130 N   0  0  0  0  0  0  0  0  0  0  0  0
  190.6240  174.4170  143.2400 C   0  0  0  0  0  2  0  0  0  0  0  0
  188.2180  177.5760  145.9860 C   0  0  0  0  0  2  0  0  0  0  0  0
  188.2340  177.4330  143.6100 C   0  0  2  0  0  3  0  0  0  0  0  0
  187.4370  177.1520  144.8170 N   0  0  2  0  0  0  0  0  0  0  0  0
  185.3290  177.6280  143.5730 C   0  0  1  0  0  3  0  0  0  0  0  0
  181.8720  178.3560  140.7050 C   0  0  0  0  0  3  0  0  0  0  0  0
  188.2670  172.5310  142.7030 C   0  0  0  0  0  2  0  0  0  0  0  0
  189.3070  175.1630  143.3640 C   0  0  2  0  0  3  0  0  0  0  0  0
  183.0100  177.9160  140.1130 N   0  0  0  0  0  0  0  0  0  0  0  0
  188.2120  173.5900  141.6070 C   0  0  0  0  0  2  0  0  0  0  0  0
  190.4750  173.0260  143.8410 C   0  0  2  0  0  3  0  0  0  0  0  0
  185.4050  177.6810  146.0850 C   0  0  0  0  0  2  0  0  0  0  0  0
  186.1960  177.9540  144.7990 C   0  0  1  0  0  3  0  0  0  0  0  0
  184.0720  178.5140  143.5590 C   0  0  0  0  0  2  0  0  0  0  0  0
  187.1970  175.6530  142.3220 O   0  0  0  0  0  0  0  0  0  0  0  0
  186.0130  178.0850  139.7810 C   0  0  0  0  0  1  0  0  0  0  0  0
  181.0600  179.1190  142.9460 C   0  0  0  0  0  1  0  0  0  0  0  0
  186.1460  177.8270  142.2740 C   0  0  1  0  0  3  0  0  0  0  0  0
  183.3420  178.3390  142.2670 C   0  0  0  0  0  0  0  0  0  0  0  0
  191.7980  172.4790  144.1060 N   0  0  0  0  0  2  0  0  0  0  0  0
  192.6960  173.0600  145.0520 C   0  0  0  0  0  0  0  0  0  0  0  0
  192.3790  174.1020  145.6850 O   0  0  0  0  0  0  0  0  0  0  0  0
  194.2890  172.3050  145.3360 S   0  0  0  0  0  1  0  0  0  0  0  0
  1 20  1  0  0  0  0
  2 24  1  1  0  0  0
  2 12  1  0  0  0  0
  4  3  1  0  0  0  0
  5 25  1  6  0  0  0
  5  6  1  0  0  0  0
  5 27  1  0  0  0  0
  6 28  2  0  0  0  0
  7 19  1  1  0  0  0
  7 24  1  0  0  0  0
  7 17  1  0  0  0  0
  9 28  1  0  0  0  0
  9 26  1  0  0  0  0
 10 20  1  0  0  0  0
 11  3  1  0  0  0  0
 12  8  1  1  0  0  0
 12 13  1  0  0  0  0
 13 11  1  1  0  0  0
 14 23  1  6  0  0  0
 14 22  1  0  0  0  0
 15  9  1  0  0  0  0
 16  1  1  0  0  0  0
 17 10  1  6  0  0  0
 17  8  1  0  0  0  0
 18 15  2  0  0  0  0
 18  6  1  0  0  0  0
 19 16  1  0  0  0  0
 20 29  1  6  0  0  0
 21  4  1  0  0  0  0
 22 13  1  0  0  0  0
 22 21  1  1  0  0  0
 27  2  1  0  0  0  0
 27 14  1  0  0  0  0
 28 23  1  0  0  0  0
 29 30  1  0  0  0  0
 30 32  1  0  0  0  0
 30 31  2  0  0  0  0
M  END
>  <MODEL>
6

>  <REMARK>
 VINA RESULT:      -7.8      2.458      5.110
  Name = 
  1 active torsions:
  status: ('A' for Active; 'I' for Inactive)
    1  A    between atoms: C_20  and  N_29
                            x       y       z     vdW  Elec       q    Type
                         _______ _______ _______ _____ _____    ______ ____

>  <TORSDO>
F 1

$$$$
=
 OpenBabel11112416313D

 32 37  0  0  1  0  0  0  0  0999 V2000
  195.0830  175.9140  143.5730 C   0  0  0  0  0  2  0  0  0  0  0  0
  189.8000  174.8920  144.5780 C   0  0  1  0  0  3  0  0  0  0  0  0
  189.3270  174.0230  139.7470 C   0  0  0  0  0  2  0  0  0  0  0  0
  187.9670  174.5560  139.7510 N   0  0  0  0  0  2  0  0  0  0  0  0
  188.2700  176.5170  145.7680 C   0  0  1  0  0  3  0  0  0  0  0  0
  187.0380  177.3580  145.6010 C   0  0  0  0  0  0  0  0  0  0  0  0
  192.0120  175.3270  144.6370 C   0  0  1  0  0  3  0  0  0  0  0  0
  191.3100  173.2560  143.4600 C   0  0  0  0  0  2  0  0  0  0  0  0
  185.3220  178.3060  144.6230 N   0  0  0  0  0  0  0  0  0  0  0  0
  193.7490  173.7680  143.6330 C   0  0  0  0  0  2  0  0  0  0  0  0
  189.6450  173.4250  141.1150 C   0  0  0  0  0  2  0  0  0  0  0  0
  189.8890  173.8500  143.4440 C   0  0  2  0  0  3  0  0  0  0  0  0
  189.5750  174.4690  142.1440 N   0  0  2  0  0  0  0  0  0  0  0  0
  187.9970  176.0540  143.2460 C   0  0  1  0  0  3  0  0  0  0  0  0
  185.4920  178.8080  145.8640 C   0  0  0  0  0  3  0  0  0  0  0  0
  193.8750  176.8310  143.7080 C   0  0  0  0  0  2  0  0  0  0  0  0
  192.3590  174.3620  143.4890 C   0  0  2  0  0  3  0  0  0  0  0  0
  186.5550  178.2480  146.4930 N   0  0  0  0  0  0  0  0  0  0  0  0
  193.0510  176.4180  144.9230 C   0  0  0  0  0  2  0  0  0  0  0  0
  194.7430  174.6130  142.8460 C   0  0  2  0  0  3  0  0  0  0  0  0
  187.8730  175.5890  140.7790 C   0  0  0  0  0  2  0  0  0  0  0  0
  188.1920  174.9900  142.1550 C   0  0  1  0  0  3  0  0  0  0  0  0
  186.5370  176.5390  143.2620 C   0  0  0  0  0  2  0  0  0  0  0  0
  190.7580  175.9100  144.3920 O   0  0  0  0  0  0  0  0  0  0  0  0
  188.2330  175.8060  147.1110 C   0  0  0  0  0  1  0  0  0  0  0  0
  184.2830  178.6740  143.6770 C   0  0  0  0  0  1  0  0  0  0  0  0
  188.3930  175.4810  144.6280 C   0  0  1  0  0  3  0  0  0  0  0  0
  186.3060  177.4140  144.4500 C   0  0  0  0  0  0  0  0  0  0  0  0
  195.9580  173.8410  142.6310 N   0  0  0  0  0  2  0  0  0  0  0  0
  196.4220  173.4820  141.3290 C   0  0  0  0  0  0  0  0  0  0  0  0
  195.7690  173.8050  140.3010 O   0  0  0  0  0  0  0  0  0  0  0  0
  197.9400  172.5570  141.1570 S   0  0  0  0  0  1  0  0  0  0  0  0
  1 16  1  0  0  0  0
  2 24  1  6  0  0  0
  2 27  1  0  0  0  0
  3  4  1  0  0  0  0
  3 11  1  0  0  0  0
  4 21  1  0  0  0  0
  5 25  1  1  0  0  0
  6  5  1  0  0  0  0
  6 18  1  0  0  0  0
  7 19  1  6  0  0  0
  9 15  1  0  0  0  0
 12  8  1  6  0  0  0
 12  2  1  0  0  0  0
 13 11  1  6  0  0  0
 13 22  1  0  0  0  0
 13 12  1  0  0  0  0
 14 23  1  1  0  0  0
 14 27  1  0  0  0  0
 15 18  2  0  0  0  0
 16 19  1  0  0  0  0
 17  8  1  1  0  0  0
 17 10  1  0  0  0  0
 17  7  1  0  0  0  0
 20 29  1  1  0  0  0
 20  1  1  0  0  0  0
 20 10  1  0  0  0  0
 22 21  1  6  0  0  0
 22 14  1  0  0  0  0
 23 28  1  0  0  0  0
 24  7  1  0  0  0  0
 26  9  1  0  0  0  0
 27  5  1  0  0  0  0
 28  9  1  0  0  0  0
 28  6  2  0  0  0  0
 30 29  1  0  0  0  0
 31 30  2  0  0  0  0
 32 30  1  0  0  0  0
M  END
>  <MODEL>
7

>  <REMARK>
 VINA RESULT:      -7.3      1.691      1.789
  Name = 
  1 active torsions:
  status: ('A' for Active; 'I' for Inactive)
    1  A    between atoms: C_20  and  N_29
                            x       y       z     vdW  Elec       q    Type
                         _______ _______ _______ _____ _____    ______ ____

>  <TORSDO>
F 1

$$$$
=
 OpenBabel11112416313D

 32 37  0  0  1  0  0  0  0  0999 V2000
  190.0400  176.7000  147.7070 C   0  0  0  0  0  2  0  0  0  0  0  0
  193.0270  175.9250  143.1850 C   0  0  1  0  0  3  0  0  0  0  0  0
  189.3410  173.0770  141.5650 C   0  0  0  0  0  2  0  0  0  0  0  0
  190.2800  172.2040  140.8660 N   0  0  0  0  0  2  0  0  0  0  0  0
  195.4110  175.0810  143.2200 C   0  0  1  0  0  3  0  0  0  0  0  0
  196.2970  173.9490  142.7870 C   0  0  0  0  0  0  0  0  0  0  0  0
  192.1310  176.5640  145.1540 C   0  0  1  0  0  3  0  0  0  0  0  0
  190.7010  176.8160  143.1390 C   0  0  0  0  0  2  0  0  0  0  0  0
  196.8850  172.0190  141.9340 N   0  0  0  0  0  0  0  0  0  0  0  0
  189.8070  177.5720  145.3470 C   0  0  0  0  0  2  0  0  0  0  0  0
  189.9130  174.4910  141.6320 C   0  0  0  0  0  2  0  0  0  0  0  0
  191.6840  175.8670  142.4290 C   0  0  2  0  0  3  0  0  0  0  0  0
  191.1700  174.4860  142.3890 N   0  0  2  0  0  0  0  0  0  0  0  0
  193.4960  173.5900  142.3480 C   0  0  1  0  0  3  0  0  0  0  0  0
  197.9310  172.5930  142.5630 C   0  0  0  0  0  3  0  0  0  0  0  0
  191.1700  175.7310  147.3850 C   0  0  0  0  0  2  0  0  0  0  0  0
  190.6800  176.5490  144.6410 C   0  0  2  0  0  3  0  0  0  0  0  0
  197.5960  173.7870  143.1120 N   0  0  0  0  0  0  0  0  0  0  0  0
  192.2970  176.4740  146.6760 C   0  0  0  0  0  2  0  0  0  0  0  0
  189.0990  176.9070  146.5200 C   0  0  2  0  0  3  0  0  0  0  0  0
  191.5440  172.1950  141.5970 C   0  0  0  0  0  2  0  0  0  0  0  0
  192.1200  173.6160  141.6650 C   0  0  1  0  0  3  0  0  0  0  0  0
  194.4730  172.7150  141.5440 C   0  0  0  0  0  2  0  0  0  0  0  0
  192.8560  175.5350  144.5300 O   0  0  0  0  0  0  0  0  0  0  0  0
  196.0940  176.4090  142.9420 C   0  0  0  0  0  1  0  0  0  0  0  0
  196.8900  170.7460  141.2350 C   0  0  0  0  0  1  0  0  0  0  0  0
  194.0490  175.0280  142.4920 C   0  0  1  0  0  3  0  0  0  0  0  0
  195.8550  172.8580  142.0950 C   0  0  0  0  0  0  0  0  0  0  0  0
  187.9740  177.7340  146.9280 N   0  0  0  0  0  2  0  0  0  0  0  0
  186.6630  177.5720  146.3840 C   0  0  0  0  0  0  0  0  0  0  0  0
  186.4360  176.7070  145.4970 O   0  0  0  0  0  0  0  0  0  0  0  0
  185.3320  178.6140  146.9640 S   0  0  0  0  0  1  0  0  0  0  0  0
  2 24  1  1  0  0  0
  3 11  1  0  0  0  0
  4  3  1  0  0  0  0
  4 21  1  0  0  0  0
  5 25  1  6  0  0  0
  6 18  1  0  0  0  0
  6  5  1  0  0  0  0
  7 19  1  1  0  0  0
  9 28  1  0  0  0  0
  9 15  1  0  0  0  0
 10 20  1  0  0  0  0
 12  8  1  1  0  0  0
 12  2  1  0  0  0  0
 13 11  1  6  0  0  0
 13 12  1  0  0  0  0
 14 23  1  6  0  0  0
 14 27  1  0  0  0  0
 15 18  2  0  0  0  0
 16  1  1  0  0  0  0
 17  8  1  6  0  0  0
 17  7  1  0  0  0  0
 17 10  1  0  0  0  0
 19 16  1  0  0  0  0
 20 29  1  1  0  0  0
 20  1  1  0  0  0  0
 22 21  1  1  0  0  0
 22 14  1  0  0  0  0
 22 13  1  0  0  0  0
 23 28  1  0  0  0  0
 24  7  1  0  0  0  0
 26  9  1  0  0  0  0
 27  2  1  0  0  0  0
 27  5  1  0  0  0  0
 28  6  2  0  0  0  0
 30 29  1  0  0  0  0
 30 32  1  0  0  0  0
 31 30  2  0  0  0  0
M  END
>  <MODEL>
8

>  <REMARK>
 VINA RESULT:      -6.9      3.670      7.937
  Name = 
  1 active torsions:
  status: ('A' for Active; 'I' for Inactive)
    1  A    between atoms: C_20  and  N_29
                            x       y       z     vdW  Elec       q    Type
                         _______ _______ _______ _____ _____    ______ ____

>  <TORSDO>
F 1

$$$$
=
 OpenBabel11112416313D

 32 37  0  0  1  0  0  0  0  0999 V2000
  187.3650  178.0000  142.9140 C   0  0  0  0  0  2  0  0  0  0  0  0
  191.4320  174.3370  143.0070 C   0  0  1  0  0  3  0  0  0  0  0  0
  193.1920  176.7910  146.9060 C   0  0  0  0  0  2  0  0  0  0  0  0
  194.5660  176.4950  146.5130 N   0  0  0  0  0  2  0  0  0  0  0  0
  192.8990  173.8360  141.0080 C   0  0  1  0  0  3  0  0  0  0  0  0
  194.3100  173.8950  140.5030 C   0  0  0  0  0  0  0  0  0  0  0  0
  189.5720  175.5580  142.6400 C   0  0  1  0  0  3  0  0  0  0  0  0
  189.9550  174.7750  144.9650 C   0  0  0  0  0  2  0  0  0  0  0  0
  196.4560  174.3350  140.4650 N   0  0  0  0  0  0  0  0  0  0  0  0
  187.8780  176.0700  144.4630 C   0  0  0  0  0  2  0  0  0  0  0  0
  192.2710  175.6730  146.4240 C   0  0  0  0  0  2  0  0  0  0  0  0
  191.4100  174.5000  144.5410 C   0  0  2  0  0  3  0  0  0  0  0  0
  192.3110  175.5890  144.9600 N   0  0  2  0  0  0  0  0  0  0  0  0
  193.8380  175.1000  143.0510 C   0  0  1  0  0  3  0  0  0  0  0  0
  196.0460  173.8940  139.2580 C   0  0  0  0  0  3  0  0  0  0  0  0
  188.6780  177.9160  142.1490 C   0  0  0  0  0  2  0  0  0  0  0  0
  189.3480  175.8940  144.1250 C   0  0  2  0  0  3  0  0  0  0  0  0
  194.7180  173.6220  139.2450 N   0  0  0  0  0  0  0  0  0  0  0  0
  188.8830  176.4940  141.6380 C   0  0  0  0  0  2  0  0  0  0  0  0
  187.5110  177.5460  144.3660 C   0  0  2  0  0  3  0  0  0  0  0  0
  194.6260  176.3930  145.0570 C   0  0  0  0  0  2  0  0  0  0  0  0
  193.7000  175.2700  144.5710 C   0  0  1  0  0  3  0  0  0  0  0  0
  195.2830  174.7210  142.6850 C   0  0  0  0  0  2  0  0  0  0  0  0
  190.9500  175.5040  142.3770 O   0  0  0  0  0  0  0  0  0  0  0  0
  192.2680  172.5070  140.6290 C   0  0  0  0  0  1  0  0  0  0  0  0
  197.8100  174.7110  140.8340 C   0  0  0  0  0  1  0  0  0  0  0  0
  192.8510  174.0220  142.5420 C   0  0  1  0  0  3  0  0  0  0  0  0
  195.3630  174.3580  141.2380 C   0  0  0  0  0  0  0  0  0  0  0  0
  186.2620  177.7720  145.0780 N   0  0  0  0  0  2  0  0  0  0  0  0
  186.2080  177.9910  146.4890 C   0  0  0  0  0  0  0  0  0  0  0  0
  187.2580  177.9700  147.1840 O   0  0  0  0  0  0  0  0  0  0  0  0
  184.6330  178.2910  147.2760 S   0  0  0  0  0  1  0  0  0  0  0  0
  1 20  1  0  0  0  0
  2 24  1  6  0  0  0
  2 12  1  0  0  0  0
  4  3  1  0  0  0  0
  5 25  1  1  0  0  0
  5 27  1  0  0  0  0
  6  5  1  0  0  0  0
  6 28  2  0  0  0  0
  7 19  1  6  0  0  0
  7 17  1  0  0  0  0
  9 26  1  0  0  0  0
  9 28  1  0  0  0  0
 11  3  1  0  0  0  0
 12 13  1  0  0  0  0
 12  8  1  6  0  0  0
 13 11  1  1  0  0  0
 14 23  1  1  0  0  0
 14 22  1  0  0  0  0
 15  9  1  0  0  0  0
 16  1  1  0  0  0  0
 17 10  1  6  0  0  0
 17  8  1  0  0  0  0
 18 15  2  0  0  0  0
 18  6  1  0  0  0  0
 19 16  1  0  0  0  0
 20 10  1  0  0  0  0
 20 29  1  1  0  0  0
 21  4  1  0  0  0  0
 22 13  1  0  0  0  0
 22 21  1  6  0  0  0
 24  7  1  0  0  0  0
 27  2  1  0  0  0  0
 27 14  1  0  0  0  0
 28 23  1  0  0  0  0
 29 30  1  0  0  0  0
 30 31  2  0  0  0  0
 30 32  1  0  0  0  0
M  END
>  <MODEL>
9

>  <REMARK>
 VINA RESULT:      -6.9      3.884      8.358
  Name = 
  1 active torsions:
  status: ('A' for Active; 'I' for Inactive)
    1  A    between atoms: C_20  and  N_29
                            x       y       z     vdW  Elec       q    Type
                         _______ _______ _______ _____ _____    ______ ____

>  <TORSDO>
F 1

$$$$
