=
 OpenBabel11112417513D

 34 41  0  0  1  0  0  0  0  0999 V2000
  189.3960  174.6020  142.8740 C   0  0  0  0  0  0  0  0  0  0  0  0
  191.6780  173.5760  142.9170 C   0  0  0  0  0  2  0  0  0  0  0  0
  185.4630  179.1220  145.6580 C   0  0  2  0  0  3  0  0  0  0  0  0
  187.7410  176.3490  142.7560 C   0  0  0  0  0  0  0  0  0  0  0  0
  187.4740  178.0440  144.6100 N   0  0  1  0  0  0  0  0  0  0  0  0
  185.6810  177.0200  145.8350 O   0  0  0  0  0  0  0  0  0  0  0  0
  184.5810  177.8980  145.7520 C   0  0  0  0  0  2  0  0  0  0  0  0
  185.0260  179.0100  143.0890 C   0  0  0  0  0  2  0  0  0  0  0  0
  190.6800  174.1500  145.0750 C   0  0  2  0  0  3  0  0  0  0  0  0
  192.9080  175.6390  146.9770 C   0  0  0  0  0  2  0  0  0  0  0  0
  188.7820  177.5360  145.0510 C   0  0  0  0  0  2  0  0  0  0  0  0
  186.2810  178.3870  142.4980 C   0  0  0  0  0  2  0  0  0  0  0  0
  190.2980  175.6030  145.4430 C   0  0  1  0  0  3  0  0  0  0  0  0
  192.6480  173.1430  143.9920 C   0  0  0  0  0  2  0  0  0  0  0  0
  186.8540  177.3530  143.4530 C   0  0  1  0  0  3  0  0  0  0  0  0
  185.3390  179.8740  144.3130 C   0  0  0  0  0  2  0  0  0  0  0  0
  193.1030  175.0360  145.5770 C   0  0  1  0  0  3  0  0  0  0  0  0
  188.7080  175.6550  143.4930 C   0  0  0  0  0  0  0  0  0  0  0  0
  186.5800  178.1040  145.7800 C   0  0  2  0  0  3  0  0  0  0  0  0
  188.9140  176.0160  144.9320 C   0  0  2  0  0  3  0  0  0  0  0  0
  188.1970  174.9960  140.8690 C   0  0  0  0  0  3  0  0  0  0  0  0
  191.5930  175.2560  147.6530 C   0  0  0  0  0  2  0  0  0  0  0  0
  187.5010  175.9990  141.4640 N   0  0  0  0  0  0  0  0  0  0  0  0
  190.3670  175.8510  146.9590 C   0  0  0  0  0  2  0  0  0  0  0  0
  192.1850  173.8310  145.2640 C   0  0  1  0  0  3  0  0  0  0  0  0
  189.1250  174.3020  141.5750 N   0  0  0  0  0  0  0  0  0  0  0  0
  190.3560  173.7330  143.6350 C   0  0  1  0  0  3  0  0  0  0  0  0
  192.9960  176.0330  144.6000 O   0  0  0  0  0  0  0  0  0  0  0  0
  194.2520  176.6420  144.5610 C   0  0  0  0  0  2  0  0  0  0  0  0
  195.5810  176.6090  141.3990 C   0  0  0  0  0  2  0  0  0  0  0  0
  196.4600  176.6370  143.4450 C   0  0  0  0  0  2  0  0  0  0  0  0
  195.1630  175.8810  143.6160 C   0  0  2  0  0  3  0  0  0  0  0  0
  196.8030  176.6300  142.0860 O   0  0  0  0  0  0  0  0  0  0  0  0
  194.5800  175.8470  142.2330 C   0  0  0  0  0  2  0  0  0  0  0  0
  1 18  1  0  0  0  0
  1 27  1  0  0  0  0
  2 27  1  0  0  0  0
  2 14  1  0  0  0  0
  3 16  1  6  0  0  0
  3  7  1  0  0  0  0
  3 19  1  0  0  0  0
  4 15  1  0  0  0  0
  4 18  2  0  0  0  0
  5 11  1  1  0  0  0
  5 19  1  0  0  0  0
  7  6  1  0  0  0  0
  8 16  1  0  0  0  0
  9 25  1  0  0  0  0
  9 13  1  0  0  0  0
 10 22  1  0  0  0  0
 12  8  1  0  0  0  0
 12 15  1  0  0  0  0
 13 24  1  0  0  0  0
 14 25  1  0  0  0  0
 15  5  1  0  0  0  0
 17 10  1  0  0  0  0
 18 20  1  0  0  0  0
 19  6  1  0  0  0  0
 20 11  1  0  0  0  0
 20 13  1  0  0  0  0
 21 23  2  0  0  0  0
 21 26  1  0  0  0  0
 23  4  1  0  0  0  0
 24 22  1  0  0  0  0
 25 17  1  0  0  0  0
 26  1  2  0  0  0  0
 27  9  1  0  0  0  0
 28 17  1  0  0  0  0
 29 28  1  0  0  0  0
 30 33  1  0  0  0  0
 30 34  1  0  0  0  0
 31 32  1  0  0  0  0
 32 29  1  0  0  0  0
 33 31  1  0  0  0  0
 34 32  1  0  0  0  0
M  END
>  <MODEL>
1

>  <REMARK>
 VINA RESULT:      -9.4      0.000      0.000
  Name = 
  3 active torsions:
  status: ('A' for Active; 'I' for Inactive)
    1  A    between atoms: C_17  and  O_28
    2  A    between atoms: O_28  and  C_29
    3  A    between atoms: C_29  and  C_32
                            x       y       z     vdW  Elec       q    Type
                         _______ _______ _______ _____ _____    ______ ____

>  <TORSDO>
F 3

$$$$
=
 OpenBabel11112417513D

 34 41  0  0  1  0  0  0  0  0999 V2000
  189.5400  174.0170  143.6900 C   0  0  0  0  0  0  0  0  0  0  0  0
  191.8570  173.0960  143.9100 C   0  0  0  0  0  2  0  0  0  0  0  0
  185.6440  179.1840  145.0210 C   0  0  2  0  0  3  0  0  0  0  0  0
  187.8170  175.5950  143.1000 C   0  0  0  0  0  0  0  0  0  0  0  0
  187.6160  177.8280  144.2620 N   0  0  1  0  0  0  0  0  0  0  0  0
  185.9510  177.2800  145.9030 O   0  0  0  0  0  0  0  0  0  0  0  0
  184.8170  178.0620  145.6040 C   0  0  0  0  0  2  0  0  0  0  0  0
  185.0350  178.1740  142.6950 C   0  0  0  0  0  2  0  0  0  0  0  0
  190.9900  174.3780  145.8030 C   0  0  2  0  0  3  0  0  0  0  0  0
  193.2870  176.4630  146.8880 C   0  0  0  0  0  2  0  0  0  0  0  0
  188.9690  177.5210  144.7490 C   0  0  0  0  0  2  0  0  0  0  0  0
  186.2680  177.3970  142.2620 C   0  0  0  0  0  2  0  0  0  0  0  0
  190.5790  175.8640  145.6700 C   0  0  1  0  0  3  0  0  0  0  0  0
  192.9130  173.0770  144.9900 C   0  0  0  0  0  2  0  0  0  0  0  0
  186.9440  176.7700  143.4700 C   0  0  1  0  0  3  0  0  0  0  0  0
  185.4000  179.4160  143.5130 C   0  0  0  0  0  2  0  0  0  0  0  0
  193.4070  175.4090  145.7750 C   0  0  1  0  0  3  0  0  0  0  0  0
  188.8580  175.2120  143.9550 C   0  0  0  0  0  0  0  0  0  0  0  0
  186.8040  178.2850  145.4030 C   0  0  2  0  0  3  0  0  0  0  0  0
  189.1490  176.0570  145.1570 C   0  0  2  0  0  3  0  0  0  0  0  0
  188.1910  173.6710  141.7740 C   0  0  0  0  0  3  0  0  0  0  0  0
  192.0370  176.3270  147.7550 C   0  0  0  0  0  2  0  0  0  0  0  0
  187.5020  174.8110  142.0340 N   0  0  0  0  0  0  0  0  0  0  0  0
  190.7450  176.6280  146.9940 C   0  0  0  0  0  2  0  0  0  0  0  0
  192.5140  174.1620  145.9740 C   0  0  1  0  0  3  0  0  0  0  0  0
  189.1910  173.2780  142.6030 N   0  0  0  0  0  0  0  0  0  0  0  0
  190.5820  173.4800  144.6290 C   0  0  1  0  0  3  0  0  0  0  0  0
  193.1950  175.9990  144.5240 O   0  0  0  0  0  0  0  0  0  0  0  0
  194.4590  176.4160  144.0980 C   0  0  0  0  0  2  0  0  0  0  0  0
  194.5660  173.9600  141.7050 C   0  0  0  0  0  2  0  0  0  0  0  0
  193.2790  175.7490  142.0280 C   0  0  0  0  0  2  0  0  0  0  0  0
  194.6140  176.1500  142.6120 C   0  0  2  0  0  3  0  0  0  0  0  0
  193.4800  174.6630  141.1640 O   0  0  0  0  0  0  0  0  0  0  0  0
  195.4850  174.9510  142.3780 C   0  0  0  0  0  2  0  0  0  0  0  0
  1 18  1  0  0  0  0
  1 27  1  0  0  0  0
  2 27  1  0  0  0  0
  2 14  1  0  0  0  0
  3 16  1  6  0  0  0
  3 19  1  0  0  0  0
  3  7  1  0  0  0  0
  4 15  1  0  0  0  0
  4 18  2  0  0  0  0
  5 11  1  1  0  0  0
  5 19  1  0  0  0  0
  7  6  1  0  0  0  0
  8 16  1  0  0  0  0
  9 25  1  0  0  0  0
 10 22  1  0  0  0  0
 11 20  1  0  0  0  0
 12  8  1  0  0  0  0
 12 15  1  0  0  0  0
 13  9  1  0  0  0  0
 13 24  1  0  0  0  0
 14 25  1  0  0  0  0
 15  5  1  0  0  0  0
 17 25  1  0  0  0  0
 17 10  1  0  0  0  0
 18 20  1  0  0  0  0
 19  6  1  0  0  0  0
 20 13  1  0  0  0  0
 21 23  2  0  0  0  0
 21 26  1  0  0  0  0
 23  4  1  0  0  0  0
 24 22  1  0  0  0  0
 26  1  2  0  0  0  0
 27  9  1  0  0  0  0
 28 17  1  0  0  0  0
 29 28  1  0  0  0  0
 30 34  1  0  0  0  0
 31 32  1  0  0  0  0
 32 29  1  0  0  0  0
 33 30  1  0  0  0  0
 33 31  1  0  0  0  0
 34 32  1  0  0  0  0
M  END
>  <MODEL>
2

>  <REMARK>
 VINA RESULT:      -8.6      1.142      1.344
  Name = 
  3 active torsions:
  status: ('A' for Active; 'I' for Inactive)
    1  A    between atoms: C_17  and  O_28
    2  A    between atoms: O_28  and  C_29
    3  A    between atoms: C_29  and  C_32
                            x       y       z     vdW  Elec       q    Type
                         _______ _______ _______ _____ _____    ______ ____

>  <TORSDO>
F 3

$$$$
=
 OpenBabel11112417513D

 34 41  0  0  1  0  0  0  0  0999 V2000
  187.9280  175.3270  141.0150 C   0  0  0  0  0  0  0  0  0  0  0  0
  189.7460  173.9950  139.9270 C   0  0  0  0  0  2  0  0  0  0  0  0
  185.9680  178.1840  146.6410 C   0  0  2  0  0  3  0  0  0  0  0  0
  186.9290  177.1390  142.2500 C   0  0  0  0  0  0  0  0  0  0  0  0
  187.4080  177.4890  144.7050 N   0  0  1  0  0  0  0  0  0  0  0  0
  185.5060  176.3670  145.6490 O   0  0  0  0  0  0  0  0  0  0  0  0
  184.7490  177.3500  146.3200 C   0  0  0  0  0  2  0  0  0  0  0  0
  185.2720  179.6500  144.5980 C   0  0  0  0  0  2  0  0  0  0  0  0
  189.2020  173.4400  142.2460 C   0  0  2  0  0  3  0  0  0  0  0  0
  191.9660  173.0590  143.9820 C   0  0  0  0  0  2  0  0  0  0  0  0
  188.5150  176.5520  144.4620 C   0  0  0  0  0  2  0  0  0  0  0  0
  186.1940  179.2190  143.4670 C   0  0  0  0  0  2  0  0  0  0  0  0
  189.3500  174.4670  143.3930 C   0  0  1  0  0  3  0  0  0  0  0  0
  190.6210  172.8300  140.3290 C   0  0  0  0  0  2  0  0  0  0  0  0
  186.4880  177.7320  143.5670 C   0  0  1  0  0  3  0  0  0  0  0  0
  185.9660  179.5720  145.9610 C   0  0  0  0  0  2  0  0  0  0  0  0
  191.8180  173.3340  142.4770 C   0  0  1  0  0  3  0  0  0  0  0  0
  187.6830  175.9600  142.2420 C   0  0  0  0  0  0  0  0  0  0  0  0
  186.7000  177.0650  145.9250 C   0  0  2  0  0  3  0  0  0  0  0  0
  188.1340  175.3840  143.5490 C   0  0  2  0  0  3  0  0  0  0  0  0
  186.7350  177.0380  139.8930 C   0  0  0  0  0  3  0  0  0  0  0  0
  190.6690  172.6550  144.6820 C   0  0  0  0  0  2  0  0  0  0  0  0
  186.4640  177.6470  141.0760 N   0  0  0  0  0  0  0  0  0  0  0  0
  189.6430  173.7870  144.7410 C   0  0  0  0  0  2  0  0  0  0  0  0
  190.5320  172.7540  141.8430 C   0  0  1  0  0  3  0  0  0  0  0  0
  187.4500  175.8860  139.8710 N   0  0  0  0  0  0  0  0  0  0  0  0
  188.6220  173.9970  140.9400 C   0  0  1  0  0  3  0  0  0  0  0  0
  191.9470  174.7030  142.2190 O   0  0  0  0  0  0  0  0  0  0  0  0
  193.3120  174.9720  142.3480 C   0  0  0  0  0  2  0  0  0  0  0  0
  192.2660  176.8120  145.0480 C   0  0  0  0  0  2  0  0  0  0  0  0
  194.2360  176.0010  144.3990 C   0  0  0  0  0  2  0  0  0  0  0  0
  193.5100  176.2740  143.1030 C   0  0  2  0  0  3  0  0  0  0  0  0
  193.6160  176.7350  145.4200 O   0  0  0  0  0  0  0  0  0  0  0  0
  192.1890  176.8370  143.5410 C   0  0  0  0  0  2  0  0  0  0  0  0
  1 18  1  0  0  0  0
  2 14  1  0  0  0  0
  2 27  1  0  0  0  0
  3 16  1  6  0  0  0
  4 15  1  0  0  0  0
  5 11  1  6  0  0  0
  5 19  1  0  0  0  0
  6 19  1  0  0  0  0
  6  7  1  0  0  0  0
  7  3  1  0  0  0  0
  8 16  1  0  0  0  0
  9 13  1  0  0  0  0
 10 22  1  0  0  0  0
 12 15  1  0  0  0  0
 12  8  1  0  0  0  0
 13 20  1  0  0  0  0
 13 24  1  0  0  0  0
 14 25  1  0  0  0  0
 15  5  1  0  0  0  0
 17 10  1  0  0  0  0
 18  4  2  0  0  0  0
 18 20  1  0  0  0  0
 19  3  1  0  0  0  0
 20 11  1  0  0  0  0
 21 23  2  0  0  0  0
 22 24  1  0  0  0  0
 23  4  1  0  0  0  0
 25  9  1  0  0  0  0
 25 17  1  0  0  0  0
 26 21  1  0  0  0  0
 26  1  2  0  0  0  0
 27  1  1  0  0  0  0
 27  9  1  0  0  0  0
 28 29  1  0  0  0  0
 28 17  1  0  0  0  0
 29 32  1  0  0  0  0
 30 33  1  0  0  0  0
 31 33  1  0  0  0  0
 32 34  1  0  0  0  0
 32 31  1  0  0  0  0
 34 30  1  0  0  0  0
M  END
>  <MODEL>
3

>  <REMARK>
 VINA RESULT:      -8.3      1.701      2.752
  Name = 
  3 active torsions:
  status: ('A' for Active; 'I' for Inactive)
    1  A    between atoms: C_17  and  O_28
    2  A    between atoms: O_28  and  C_29
    3  A    between atoms: C_29  and  C_32
                            x       y       z     vdW  Elec       q    Type
                         _______ _______ _______ _____ _____    ______ ____

>  <TORSDO>
F 3

$$$$
=
 OpenBabel11112417513D

 34 41  0  0  1  0  0  0  0  0999 V2000
  192.2520  176.4440  145.9470 C   0  0  0  0  0  0  0  0  0  0  0  0
  194.4440  175.2920  146.3140 C   0  0  0  0  0  2  0  0  0  0  0  0
  186.9600  176.8380  142.0120 C   0  0  2  0  0  3  0  0  0  0  0  0
  189.8810  176.6540  145.5810 C   0  0  0  0  0  0  0  0  0  0  0  0
  188.8020  175.8880  143.4300 N   0  0  1  0  0  0  0  0  0  0  0  0
  188.7330  177.9770  142.2480 O   0  0  0  0  0  0  0  0  0  0  0  0
  187.3720  178.2910  142.0610 C   0  0  0  0  0  2  0  0  0  0  0  0
  186.2530  177.1480  144.5040 C   0  0  0  0  0  2  0  0  0  0  0  0
  193.8340  175.8050  144.0020 C   0  0  2  0  0  3  0  0  0  0  0  0
  194.4540  173.2120  142.0800 C   0  0  0  0  0  2  0  0  0  0  0  0
  190.0820  175.1950  143.2170 C   0  0  0  0  0  2  0  0  0  0  0  0
  187.3780  176.5260  145.3170 C   0  0  0  0  0  2  0  0  0  0  0  0
  192.5660  175.2200  143.3370 C   0  0  1  0  0  3  0  0  0  0  0  0
  195.5890  174.8440  145.4350 C   0  0  0  0  0  2  0  0  0  0  0  0
  188.7130  176.7550  144.6290 C   0  0  1  0  0  3  0  0  0  0  0  0
  186.0360  176.4160  143.1770 C   0  0  0  0  0  2  0  0  0  0  0  0
  194.7480  173.3770  143.5800 C   0  0  1  0  0  3  0  0  0  0  0  0
  191.1540  176.3560  145.0810 C   0  0  0  0  0  0  0  0  0  0  0  0
  188.4470  176.5980  142.1890 C   0  0  2  0  0  3  0  0  0  0  0  0
  191.2990  176.0280  143.6270 C   0  0  2  0  0  3  0  0  0  0  0  0
  190.8070  177.0600  147.7210 C   0  0  0  0  0  3  0  0  0  0  0  0
  194.0770  174.5080  141.3630 C   0  0  0  0  0  2  0  0  0  0  0  0
  189.7370  177.0080  146.8870 N   0  0  0  0  0  0  0  0  0  0  0  0
  192.7300  175.0720  141.8150 C   0  0  0  0  0  2  0  0  0  0  0  0
  195.0390  174.8310  144.0200 C   0  0  1  0  0  3  0  0  0  0  0  0
  192.0500  176.7910  147.2470 N   0  0  0  0  0  0  0  0  0  0  0  0
  193.6600  176.2610  145.4560 C   0  0  1  0  0  3  0  0  0  0  0  0
  193.7220  172.8050  144.3410 O   0  0  0  0  0  0  0  0  0  0  0  0
  193.8580  171.4260  144.1590 C   0  0  0  0  0  2  0  0  0  0  0  0
  190.7330  171.6150  142.7560 C   0  0  0  0  0  2  0  0  0  0  0  0
  192.3160  170.0490  142.7990 C   0  0  0  0  0  2  0  0  0  0  0  0
  192.4870  170.7770  144.1120 C   0  0  2  0  0  3  0  0  0  0  0  0
  191.0340  170.3230  142.3030 O   0  0  0  0  0  0  0  0  0  0  0  0
  191.4090  171.8200  144.0900 C   0  0  0  0  0  2  0  0  0  0  0  0
  1 26  1  0  0  0  0
  3  7  1  1  0  0  0
  3 19  1  0  0  0  0
  3 16  1  0  0  0  0
  4 23  2  0  0  0  0
  5 11  1  6  0  0  0
  5 15  1  0  0  0  0
  7  6  1  0  0  0  0
  8 12  1  0  0  0  0
  9 25  1  0  0  0  0
  9 27  1  0  0  0  0
 10 17  1  0  0  0  0
 11 20  1  0  0  0  0
 13 20  1  0  0  0  0
 13  9  1  0  0  0  0
 14  2  1  0  0  0  0
 15 12  1  0  0  0  0
 15  4  1  0  0  0  0
 16  8  1  0  0  0  0
 17 25  1  0  0  0  0
 17 28  1  0  0  0  0
 18  4  1  0  0  0  0
 18  1  2  0  0  0  0
 19  6  1  0  0  0  0
 19  5  1  0  0  0  0
 20 18  1  0  0  0  0
 22 24  1  0  0  0  0
 22 10  1  0  0  0  0
 23 21  1  0  0  0  0
 24 13  1  0  0  0  0
 25 14  1  0  0  0  0
 26 21  2  0  0  0  0
 27  1  1  0  0  0  0
 27  2  1  0  0  0  0
 29 28  1  0  0  0  0
 30 34  1  0  0  0  0
 31 32  1  0  0  0  0
 32 29  1  0  0  0  0
 33 30  1  0  0  0  0
 33 31  1  0  0  0  0
 34 32  1  0  0  0  0
M  END
>  <MODEL>
4

>  <REMARK>
 VINA RESULT:      -7.9      2.469      4.937
  Name = 
  3 active torsions:
  status: ('A' for Active; 'I' for Inactive)
    1  A    between atoms: C_17  and  O_28
    2  A    between atoms: O_28  and  C_29
    3  A    between atoms: C_29  and  C_32
                            x       y       z     vdW  Elec       q    Type
                         _______ _______ _______ _____ _____    ______ ____

>  <TORSDO>
F 3

$$$$
=
 OpenBabel11112417513D

 34 41  0  0  1  0  0  0  0  0999 V2000
  192.6480  176.3720  145.9230 C   0  0  0  0  0  0  0  0  0  0  0  0
  194.8880  175.2760  146.1380 C   0  0  0  0  0  2  0  0  0  0  0  0
  187.2060  176.8300  142.2060 C   0  0  2  0  0  3  0  0  0  0  0  0
  190.2590  176.5200  145.6530 C   0  0  0  0  0  0  0  0  0  0  0  0
  189.1290  175.8570  143.4940 N   0  0  1  0  0  0  0  0  0  0  0  0
  188.9470  178.0140  142.4550 O   0  0  0  0  0  0  0  0  0  0  0  0
  187.5700  178.2910  142.3360 C   0  0  0  0  0  2  0  0  0  0  0  0
  186.5800  176.9530  144.7360 C   0  0  0  0  0  2  0  0  0  0  0  0
  194.1780  175.9150  143.8870 C   0  0  2  0  0  3  0  0  0  0  0  0
  194.8120  173.4750  141.7790 C   0  0  0  0  0  2  0  0  0  0  0  0
  190.4220  175.2240  143.1930 C   0  0  0  0  0  2  0  0  0  0  0  0
  187.7530  176.3210  145.4670 C   0  0  0  0  0  2  0  0  0  0  0  0
  192.9070  175.3290  143.2290 C   0  0  1  0  0  3  0  0  0  0  0  0
  196.0140  174.9260  145.1930 C   0  0  0  0  0  2  0  0  0  0  0  0
  189.0540  176.6410  144.7500 C   0  0  1  0  0  3  0  0  0  0  0  0
  186.3390  176.3010  143.3720 C   0  0  0  0  0  2  0  0  0  0  0  0
  195.1550  173.5530  143.2760 C   0  0  1  0  0  3  0  0  0  0  0  0
  191.5220  176.3010  145.0920 C   0  0  0  0  0  0  0  0  0  0  0  0
  188.7050  176.6320  142.3150 C   0  0  2  0  0  3  0  0  0  0  0  0
  191.6240  176.0720  143.6150 C   0  0  2  0  0  3  0  0  0  0  0  0
  191.2490  176.8200  147.7820 C   0  0  0  0  0  3  0  0  0  0  0  0
  194.3670  174.8000  141.1620 C   0  0  0  0  0  2  0  0  0  0  0  0
  190.1510  176.7840  146.9830 N   0  0  0  0  0  0  0  0  0  0  0  0
  193.0190  175.2860  141.6960 C   0  0  0  0  0  2  0  0  0  0  0  0
  195.4140  174.9850  143.8000 C   0  0  1  0  0  3  0  0  0  0  0  0
  192.4820  176.6260  147.2490 N   0  0  0  0  0  0  0  0  0  0  0  0
  194.0420  176.2700  145.3730 C   0  0  1  0  0  3  0  0  0  0  0  0
  194.1770  172.8970  144.0320 O   0  0  0  0  0  0  0  0  0  0  0  0
  194.6260  171.5790  144.1450 C   0  0  0  0  0  2  0  0  0  0  0  0
  195.8730  169.1910  146.2680 C   0  0  0  0  0  2  0  0  0  0  0  0
  196.4730  171.2750  145.7620 C   0  0  0  0  0  2  0  0  0  0  0  0
  194.9730  171.2760  145.5910 C   0  0  2  0  0  3  0  0  0  0  0  0
  196.8300  170.1750  146.5550 O   0  0  0  0  0  0  0  0  0  0  0  0
  194.5670  169.8770  145.9490 C   0  0  0  0  0  2  0  0  0  0  0  0
  1 26  1  0  0  0  0
  3 19  1  0  0  0  0
  3  7  1  1  0  0  0
  3 16  1  0  0  0  0
  4 23  2  0  0  0  0
  5 11  1  6  0  0  0
  5 15  1  0  0  0  0
  7  6  1  0  0  0  0
  8 12  1  0  0  0  0
  9 27  1  0  0  0  0
 10 17  1  0  0  0  0
 11 20  1  0  0  0  0
 13 20  1  0  0  0  0
 13  9  1  0  0  0  0
 14  2  1  0  0  0  0
 15 12  1  0  0  0  0
 15  4  1  0  0  0  0
 16  8  1  0  0  0  0
 17 25  1  0  0  0  0
 17 28  1  0  0  0  0
 18  4  1  0  0  0  0
 18  1  2  0  0  0  0
 19  6  1  0  0  0  0
 19  5  1  0  0  0  0
 20 18  1  0  0  0  0
 22 24  1  0  0  0  0
 22 10  1  0  0  0  0
 23 21  1  0  0  0  0
 24 13  1  0  0  0  0
 25  9  1  0  0  0  0
 25 14  1  0  0  0  0
 26 21  2  0  0  0  0
 27  1  1  0  0  0  0
 27  2  1  0  0  0  0
 28 29  1  0  0  0  0
 29 32  1  0  0  0  0
 30 33  1  0  0  0  0
 31 33  1  0  0  0  0
 32 31  1  0  0  0  0
 32 34  1  0  0  0  0
 34 30  1  0  0  0  0
M  END
>  <MODEL>
5

>  <REMARK>
 VINA RESULT:      -7.7      2.894      5.082
  Name = 
  3 active torsions:
  status: ('A' for Active; 'I' for Inactive)
    1  A    between atoms: C_17  and  O_28
    2  A    between atoms: O_28  and  C_29
    3  A    between atoms: C_29  and  C_32
                            x       y       z     vdW  Elec       q    Type
                         _______ _______ _______ _____ _____    ______ ____

>  <TORSDO>
F 3

$$$$
=
 OpenBabel11112417513D

 34 41  0  0  1  0  0  0  0  0999 V2000
  192.3600  175.9830  145.8720 C   0  0  0  0  0  0  0  0  0  0  0  0
  189.9800  176.4540  146.4850 C   0  0  0  0  0  2  0  0  0  0  0  0
  196.4320  174.3390  140.9360 C   0  0  2  0  0  3  0  0  0  0  0  0
  194.4310  176.1930  144.6580 C   0  0  0  0  0  0  0  0  0  0  0  0
  194.6220  175.4920  142.2390 N   0  0  1  0  0  0  0  0  0  0  0  0
  195.5160  173.2830  142.5300 O   0  0  0  0  0  0  0  0  0  0  0  0
  196.8040  173.2890  141.9570 C   0  0  0  0  0  2  0  0  0  0  0  0
  197.5980  176.0400  142.5340 C   0  0  0  0  0  2  0  0  0  0  0  0
  190.3740  174.6600  144.8700 C   0  0  2  0  0  3  0  0  0  0  0  0
  188.2520  174.9160  142.3740 C   0  0  0  0  0  2  0  0  0  0  0  0
  193.1520  175.4850  142.2870 C   0  0  0  0  0  2  0  0  0  0  0  0
  196.4630  176.7360  143.2710 C   0  0  0  0  0  2  0  0  0  0  0  0
  191.0610  174.9170  143.5080 C   0  0  1  0  0  3  0  0  0  0  0  0
  188.6370  175.8550  146.1390 C   0  0  0  0  0  2  0  0  0  0  0  0
  195.3230  175.7620  143.5180 C   0  0  1  0  0  3  0  0  0  0  0  0
  197.2050  175.6680  141.1020 C   0  0  0  0  0  2  0  0  0  0  0  0
  188.3290  175.7700  143.6500 C   0  0  1  0  0  3  0  0  0  0  0  0
  193.1140  175.7220  144.7190 C   0  0  0  0  0  0  0  0  0  0  0  0
  195.0710  174.2440  141.5990 C   0  0  2  0  0  3  0  0  0  0  0  0
  192.5900  174.8970  143.5840 C   0  0  2  0  0  3  0  0  0  0  0  0
  194.1900  177.1670  146.8020 C   0  0  0  0  0  3  0  0  0  0  0  0
  189.0950  173.6430  142.4150 C   0  0  0  0  0  2  0  0  0  0  0  0
  194.9420  176.8970  145.7040 N   0  0  0  0  0  0  0  0  0  0  0  0
  190.5990  173.9200  142.4330 C   0  0  0  0  0  2  0  0  0  0  0  0
  188.8680  175.0220  144.8910 C   0  0  1  0  0  3  0  0  0  0  0  0
  192.9170  176.7030  146.8830 N   0  0  0  0  0  0  0  0  0  0  0  0
  190.9870  175.4070  146.0620 C   0  0  1  0  0  3  0  0  0  0  0  0
  189.0480  176.9460  143.4040 O   0  0  0  0  0  0  0  0  0  0  0  0
  188.1420  177.8040  142.7780 C   0  0  0  0  0  2  0  0  0  0  0  0
  185.5690  179.6030  144.1610 C   0  0  0  0  0  2  0  0  0  0  0  0
  185.7080  178.1410  142.4870 C   0  0  0  0  0  2  0  0  0  0  0  0
  186.7840  177.6970  143.4490 C   0  0  2  0  0  3  0  0  0  0  0  0
  184.8040  178.9590  143.1780 O   0  0  0  0  0  0  0  0  0  0  0  0
  186.6780  178.6710  144.5850 C   0  0  0  0  0  2  0  0  0  0  0  0
  1 27  1  0  0  0  0
  1 26  1  0  0  0  0
  3 16  1  1  0  0  0
  3 19  1  0  0  0  0
  3  7  1  0  0  0  0
  4 18  1  0  0  0  0
  4 23  2  0  0  0  0
  5 11  1  1  0  0  0
  5 15  1  0  0  0  0
  7  6  1  0  0  0  0
  8 12  1  0  0  0  0
  9 25  1  0  0  0  0
  9 27  1  0  0  0  0
 10 22  1  0  0  0  0
 10 17  1  0  0  0  0
 11 20  1  0  0  0  0
 12 15  1  0  0  0  0
 13 20  1  0  0  0  0
 13  9  1  0  0  0  0
 14  2  1  0  0  0  0
 15  4  1  0  0  0  0
 16  8  1  0  0  0  0
 17 25  1  0  0  0  0
 18  1  2  0  0  0  0
 19  5  1  0  0  0  0
 19  6  1  0  0  0  0
 20 18  1  0  0  0  0
 21 26  2  0  0  0  0
 22 24  1  0  0  0  0
 23 21  1  0  0  0  0
 24 13  1  0  0  0  0
 25 14  1  0  0  0  0
 27  2  1  0  0  0  0
 28 17  1  0  0  0  0
 29 28  1  0  0  0  0
 29 32  1  0  0  0  0
 30 34  1  0  0  0  0
 31 33  1  0  0  0  0
 31 32  1  0  0  0  0
 32 34  1  0  0  0  0
 33 30  1  0  0  0  0
M  END
>  <MODEL>
6

>  <REMARK>
 VINA RESULT:      -7.6      2.562      8.220
  Name = 
  3 active torsions:
  status: ('A' for Active; 'I' for Inactive)
    1  A    between atoms: C_17  and  O_28
    2  A    between atoms: O_28  and  C_29
    3  A    between atoms: C_29  and  C_32
                            x       y       z     vdW  Elec       q    Type
                         _______ _______ _______ _____ _____    ______ ____

>  <TORSDO>
F 3

$$$$
=
 OpenBabel11112417513D

 34 41  0  0  1  0  0  0  0  0999 V2000
  191.0840  172.6530  142.7060 C   0  0  0  0  0  0  0  0  0  0  0  0
  188.7190  173.4020  142.3690 C   0  0  0  0  0  2  0  0  0  0  0  0
  196.9510  174.3060  145.2540 C   0  0  2  0  0  3  0  0  0  0  0  0
  193.1060  172.1360  143.9090 C   0  0  0  0  0  0  0  0  0  0  0  0
  194.4770  173.9390  145.0260 N   0  0  1  0  0  0  0  0  0  0  0  0
  196.1090  174.3260  143.3080 O   0  0  0  0  0  0  0  0  0  0  0  0
  197.3580  173.9480  143.8430 C   0  0  0  0  0  2  0  0  0  0  0  0
  196.5170  171.7540  145.5770 C   0  0  0  0  0  2  0  0  0  0  0  0
  190.4610  175.1070  142.1690 C   0  0  2  0  0  3  0  0  0  0  0  0
  189.5530  177.8260  143.7740 C   0  0  0  0  0  2  0  0  0  0  0  0
  193.2770  174.7630  144.8180 C   0  0  0  0  0  2  0  0  0  0  0  0
  195.0090  171.5890  145.4680 C   0  0  0  0  0  2  0  0  0  0  0  0
  191.4000  175.4640  143.3450 C   0  0  1  0  0  3  0  0  0  0  0  0
  188.0390  174.7000  142.0020 C   0  0  0  0  0  2  0  0  0  0  0  0
  194.4460  172.5720  144.4540 C   0  0  1  0  0  3  0  0  0  0  0  0
  196.9010  173.0930  146.2110 C   0  0  0  0  0  2  0  0  0  0  0  0
  188.7490  176.5330  143.5630 C   0  0  1  0  0  3  0  0  0  0  0  0
  192.2380  173.0920  143.3680 C   0  0  0  0  0  0  0  0  0  0  0  0
  195.6520  174.7110  144.5840 C   0  0  2  0  0  3  0  0  0  0  0  0
  192.6150  174.5390  143.4560 C   0  0  2  0  0  3  0  0  0  0  0  0
  191.6710  170.4050  143.1700 C   0  0  0  0  0  3  0  0  0  0  0  0
  190.8050  177.9420  142.9060 C   0  0  0  0  0  2  0  0  0  0  0  0
  192.8080  170.8140  143.7900 N   0  0  0  0  0  0  0  0  0  0  0  0
  191.8840  176.9220  143.2720 C   0  0  0  0  0  2  0  0  0  0  0  0
  189.0710  175.7870  142.2460 C   0  0  1  0  0  3  0  0  0  0  0  0
  190.8280  171.3190  142.6270 N   0  0  0  0  0  0  0  0  0  0  0  0
  190.1710  173.6100  141.9950 C   0  0  1  0  0  3  0  0  0  0  0  0
  188.8790  175.6940  144.6750 O   0  0  0  0  0  0  0  0  0  0  0  0
  188.0480  176.2490  145.6500 C   0  0  0  0  0  2  0  0  0  0  0  0
  190.8860  175.2630  147.3040 C   0  0  0  0  0  2  0  0  0  0  0  0
  189.7290  177.1640  147.2180 C   0  0  0  0  0  2  0  0  0  0  0  0
  188.6840  176.0910  147.0190 C   0  0  2  0  0  3  0  0  0  0  0  0
  190.8640  176.5770  147.7930 O   0  0  0  0  0  0  0  0  0  0  0  0
  189.4620  174.8100  147.0950 C   0  0  0  0  0  2  0  0  0  0  0  0
  1 18  1  0  0  0  0
  3  7  1  6  0  0  0
  3 16  1  0  0  0  0
  4 15  1  0  0  0  0
  5 11  1  6  0  0  0
  6  7  1  0  0  0  0
  6 19  1  0  0  0  0
  8 16  1  0  0  0  0
  9 25  1  0  0  0  0
  9 13  1  0  0  0  0
 12  8  1  0  0  0  0
 13 20  1  0  0  0  0
 14 25  1  0  0  0  0
 14  2  1  0  0  0  0
 15  5  1  0  0  0  0
 15 12  1  0  0  0  0
 17 10  1  0  0  0  0
 17 28  1  0  0  0  0
 18 20  1  0  0  0  0
 18  4  2  0  0  0  0
 19  5  1  0  0  0  0
 19  3  1  0  0  0  0
 20 11  1  0  0  0  0
 21 23  2  0  0  0  0
 22 24  1  0  0  0  0
 22 10  1  0  0  0  0
 23  4  1  0  0  0  0
 24 13  1  0  0  0  0
 25 17  1  0  0  0  0
 26  1  2  0  0  0  0
 26 21  1  0  0  0  0
 27  9  1  0  0  0  0
 27  2  1  0  0  0  0
 27  1  1  0  0  0  0
 28 29  1  0  0  0  0
 29 32  1  0  0  0  0
 30 33  1  0  0  0  0
 31 33  1  0  0  0  0
 32 34  1  0  0  0  0
 32 31  1  0  0  0  0
 34 30  1  0  0  0  0
M  END
>  <MODEL>
7

>  <REMARK>
 VINA RESULT:      -7.6      2.970      7.600
  Name = 
  3 active torsions:
  status: ('A' for Active; 'I' for Inactive)
    1  A    between atoms: C_17  and  O_28
    2  A    between atoms: O_28  and  C_29
    3  A    between atoms: C_29  and  C_32
                            x       y       z     vdW  Elec       q    Type
                         _______ _______ _______ _____ _____    ______ ____

>  <TORSDO>
F 3

$$$$
=
 OpenBabel11112417513D

 34 41  0  0  1  0  0  0  0  0999 V2000
  193.7520  175.0360  143.6230 C   0  0  0  0  0  0  0  0  0  0  0  0
  193.7440  176.5610  145.6080 C   0  0  0  0  0  2  0  0  0  0  0  0
  189.9720  171.4170  139.5910 C   0  0  2  0  0  3  0  0  0  0  0  0
  193.1390  174.2170  141.4420 C   0  0  0  0  0  0  0  0  0  0  0  0
  190.8190  173.3420  140.9630 N   0  0  1  0  0  0  0  0  0  0  0  0
  191.2050  170.9910  141.2630 O   0  0  0  0  0  0  0  0  0  0  0  0
  190.9920  170.3830  140.0090 C   0  0  0  0  0  2  0  0  0  0  0  0
  191.9170  172.5220  138.2490 C   0  0  0  0  0  2  0  0  0  0  0  0
  192.1880  174.6750  145.6530 C   0  0  2  0  0  3  0  0  0  0  0  0
  189.2410  175.6810  146.7040 C   0  0  0  0  0  2  0  0  0  0  0  0
  190.4780  173.9950  142.2350 C   0  0  0  0  0  2  0  0  0  0  0  0
  192.3680  173.6990  139.0990 C   0  0  0  0  0  2  0  0  0  0  0  0
  191.0710  174.5050  144.5960 C   0  0  1  0  0  3  0  0  0  0  0  0
  193.0230  176.6020  146.9360 C   0  0  0  0  0  2  0  0  0  0  0  0
  192.2500  173.3570  140.5750 C   0  0  1  0  0  3  0  0  0  0  0  0
  190.4120  172.2680  138.3790 C   0  0  0  0  0  2  0  0  0  0  0  0
  190.5390  176.4950  146.5890 C   0  0  1  0  0  3  0  0  0  0  0  0
  192.8240  174.3890  142.7950 C   0  0  0  0  0  0  0  0  0  0  0  0
  190.2480  171.9840  140.9700 C   0  0  2  0  0  3  0  0  0  0  0  0
  191.5450  173.8100  143.3170 C   0  0  2  0  0  3  0  0  0  0  0  0
  195.1960  175.3390  141.7710 C   0  0  0  0  0  3  0  0  0  0  0  0
  189.4270  174.1710  146.5640 C   0  0  0  0  0  2  0  0  0  0  0  0
  194.3210  174.6880  140.9620 N   0  0  0  0  0  0  0  0  0  0  0  0
  189.8560  173.7480  145.1590 C   0  0  0  0  0  2  0  0  0  0  0  0
  191.8330  175.6710  146.7860 C   0  0  1  0  0  3  0  0  0  0  0  0
  194.9130  175.4990  143.0880 N   0  0  0  0  0  0  0  0  0  0  0  0
  193.5400  175.1480  145.1060 C   0  0  1  0  0  3  0  0  0  0  0  0
  190.5600  177.2060  145.3830 O   0  0  0  0  0  0  0  0  0  0  0  0
  189.2270  177.5410  145.1330 C   0  0  0  0  0  2  0  0  0  0  0  0
  187.4220  178.3460  142.3300 C   0  0  0  0  0  2  0  0  0  0  0  0
  189.5670  177.8820  142.7070 C   0  0  0  0  0  2  0  0  0  0  0  0
  188.8310  177.0700  143.7460 C   0  0  2  0  0  3  0  0  0  0  0  0
  188.6640  178.2290  141.6920 O   0  0  0  0  0  0  0  0  0  0  0  0
  187.3840  177.3700  143.4800 C   0  0  0  0  0  2  0  0  0  0  0  0
  1 27  1  0  0  0  0
  2 14  1  0  0  0  0
  3 16  1  6  0  0  0
  3  7  1  0  0  0  0
  3 19  1  0  0  0  0
  4 18  1  0  0  0  0
  5 19  1  0  0  0  0
  5 11  1  1  0  0  0
  7  6  1  0  0  0  0
  8 16  1  0  0  0  0
  8 12  1  0  0  0  0
  9 25  1  0  0  0  0
 11 20  1  0  0  0  0
 12 15  1  0  0  0  0
 13 24  1  0  0  0  0
 13  9  1  0  0  0  0
 15  5  1  0  0  0  0
 15  4  1  0  0  0  0
 17 10  1  0  0  0  0
 17 25  1  0  0  0  0
 18 20  1  0  0  0  0
 18  1  2  0  0  0  0
 19  6  1  0  0  0  0
 20 13  1  0  0  0  0
 21 26  2  0  0  0  0
 22 10  1  0  0  0  0
 23  4  2  0  0  0  0
 23 21  1  0  0  0  0
 24 22  1  0  0  0  0
 25 14  1  0  0  0  0
 26  1  1  0  0  0  0
 27  2  1  0  0  0  0
 27  9  1  0  0  0  0
 28 17  1  0  0  0  0
 29 28  1  0  0  0  0
 30 34  1  0  0  0  0
 31 32  1  0  0  0  0
 32 29  1  0  0  0  0
 33 30  1  0  0  0  0
 33 31  1  0  0  0  0
 34 32  1  0  0  0  0
M  END
>  <MODEL>
8

>  <REMARK>
 VINA RESULT:      -7.5      2.896      6.607
  Name = 
  3 active torsions:
  status: ('A' for Active; 'I' for Inactive)
    1  A    between atoms: C_17  and  O_28
    2  A    between atoms: O_28  and  C_29
    3  A    between atoms: C_29  and  C_32
                            x       y       z     vdW  Elec       q    Type
                         _______ _______ _______ _____ _____    ______ ____

>  <TORSDO>
F 3

$$$$
=
 OpenBabel11112417513D

 34 41  0  0  1  0  0  0  0  0999 V2000
  190.3890  173.1410  142.4130 C   0  0  0  0  0  0  0  0  0  0  0  0
  188.2720  174.4690  142.2810 C   0  0  0  0  0  2  0  0  0  0  0  0
  196.3160  172.7170  145.2990 C   0  0  2  0  0  3  0  0  0  0  0  0
  192.1730  171.8910  143.4410 C   0  0  0  0  0  0  0  0  0  0  0  0
  193.8400  172.9940  144.9850 N   0  0  1  0  0  0  0  0  0  0  0  0
  195.6160  173.4170  143.4240 O   0  0  0  0  0  0  0  0  0  0  0  0
  196.7160  172.6420  143.8440 C   0  0  0  0  0  2  0  0  0  0  0  0
  195.3120  170.3350  144.9540 C   0  0  0  0  0  2  0  0  0  0  0  0
  190.3550  175.7260  142.5260 C   0  0  2  0  0  3  0  0  0  0  0  0
  189.9770  178.0890  144.7790 C   0  0  0  0  0  2  0  0  0  0  0  0
  192.8660  174.0950  144.9980 C   0  0  0  0  0  2  0  0  0  0  0  0
  193.8140  170.5510  144.8060 C   0  0  0  0  0  2  0  0  0  0  0  0
  191.2790  175.5530  143.7550 C   0  0  1  0  0  3  0  0  0  0  0  0
  187.9170  175.9380  142.2610 C   0  0  0  0  0  2  0  0  0  0  0  0
  193.5410  171.8580  144.0800 C   0  0  1  0  0  3  0  0  0  0  0  0
  195.9440  171.3480  145.9120 C   0  0  0  0  0  2  0  0  0  0  0  0
  188.9220  177.1090  144.2410 C   0  0  1  0  0  3  0  0  0  0  0  0
  191.5710  173.1240  143.1660 C   0  0  0  0  0  0  0  0  0  0  0  0
  195.1800  173.5630  144.7570 C   0  0  2  0  0  3  0  0  0  0  0  0
  192.2520  174.3780  143.6240 C   0  0  2  0  0  3  0  0  0  0  0  0
  190.4370  170.7760  142.2830 C   0  0  0  0  0  3  0  0  0  0  0  0
  191.2720  178.1300  143.9700 C   0  0  0  0  0  2  0  0  0  0  0  0
  191.5980  170.7460  142.9860 N   0  0  0  0  0  0  0  0  0  0  0  0
  192.0760  176.8320  144.0600 C   0  0  0  0  0  2  0  0  0  0  0  0
  189.1470  176.6640  142.7770 C   0  0  1  0  0  3  0  0  0  0  0  0
  189.8500  171.9640  141.9930 N   0  0  0  0  0  0  0  0  0  0  0  0
  189.7520  174.4280  141.9730 C   0  0  1  0  0  3  0  0  0  0  0  0
  188.7980  176.0110  145.1000 O   0  0  0  0  0  0  0  0  0  0  0  0
  188.1890  176.5150  146.2520 C   0  0  0  0  0  2  0  0  0  0  0  0
  184.8290  177.1490  146.5210 C   0  0  0  0  0  2  0  0  0  0  0  0
  186.6650  178.2790  147.0800 C   0  0  0  0  0  2  0  0  0  0  0  0
  187.0830  177.4800  145.8680 C   0  0  2  0  0  3  0  0  0  0  0  0
  185.2650  178.3460  147.1070 O   0  0  0  0  0  0  0  0  0  0  0  0
  185.8400  176.7330  145.4810 C   0  0  0  0  0  2  0  0  0  0  0  0
  1 18  1  0  0  0  0
  3  7  1  6  0  0  0
  3 16  1  0  0  0  0
  4 15  1  0  0  0  0
  5 11  1  6  0  0  0
  6  7  1  0  0  0  0
  6 19  1  0  0  0  0
  8 16  1  0  0  0  0
  9 25  1  0  0  0  0
  9 13  1  0  0  0  0
 12  8  1  0  0  0  0
 13 24  1  0  0  0  0
 14  2  1  0  0  0  0
 14 25  1  0  0  0  0
 15 12  1  0  0  0  0
 15  5  1  0  0  0  0
 17 10  1  0  0  0  0
 17 28  1  0  0  0  0
 18  4  2  0  0  0  0
 18 20  1  0  0  0  0
 19  5  1  0  0  0  0
 19  3  1  0  0  0  0
 20 13  1  0  0  0  0
 20 11  1  0  0  0  0
 21 23  2  0  0  0  0
 22 24  1  0  0  0  0
 22 10  1  0  0  0  0
 23  4  1  0  0  0  0
 25 17  1  0  0  0  0
 26 21  1  0  0  0  0
 26  1  2  0  0  0  0
 27  2  1  0  0  0  0
 27  1  1  0  0  0  0
 27  9  1  0  0  0  0
 28 29  1  0  0  0  0
 30 33  1  0  0  0  0
 31 33  1  0  0  0  0
 32 29  1  0  0  0  0
 32 31  1  0  0  0  0
 34 32  1  0  0  0  0
 34 30  1  0  0  0  0
M  END
>  <MODEL>
9

>  <REMARK>
 VINA RESULT:      -7.2      2.706      7.978
  Name = 
  3 active torsions:
  status: ('A' for Active; 'I' for Inactive)
    1  A    between atoms: C_17  and  O_28
    2  A    between atoms: O_28  and  C_29
    3  A    between atoms: C_29  and  C_32
                            x       y       z     vdW  Elec       q    Type
                         _______ _______ _______ _____ _____    ______ ____

>  <TORSDO>
F 3

$$$$
