=
 OpenBabel11112416313D

 32 37  0  0  1  0  0  0  0  0999 V2000
  186.6090  176.5030  146.2680 O   0  0  0  0  0  0  0  0  0  0  0  0
  191.2450  175.9430  144.1810 N   0  0  1  0  0  0  0  0  0  0  0  0
  190.6020  173.4690  139.9450 C   0  0  0  0  0  3  0  0  0  0  0  0
  191.9870  173.3460  139.8230 C   0  0  0  0  0  3  0  0  0  0  0  0
  193.4640  175.6260  145.3700 C   0  0  0  0  0  0  0  0  0  0  0  0
  194.9470  175.6050  145.0520 C   0  0  1  0  0  3  0  0  0  0  0  0
  189.4190  177.1370  145.2730 C   0  0  1  0  0  3  0  0  0  0  0  0
  189.0830  176.1280  143.0010 C   0  0  0  0  0  2  0  0  0  0  0  0
  196.5540  174.6280  143.6640 C   0  0  2  0  0  3  0  0  0  0  0  0
  187.1600  177.3670  144.0840 C   0  0  0  0  0  2  0  0  0  0  0  0
  190.0520  174.0950  141.0660 C   0  0  0  0  0  3  0  0  0  0  0  0
  190.2740  175.2170  143.3250 C   0  0  1  0  0  3  0  0  0  0  0  0
  190.8830  174.6190  142.0700 C   0  0  0  0  0  0  0  0  0  0  0  0
  193.1630  175.0410  143.0100 C   0  0  2  0  0  3  0  0  0  0  0  0
  196.9300  174.3220  145.1050 C   0  0  0  0  0  2  0  0  0  0  0  0
  187.6500  176.8160  147.1790 C   0  0  0  0  0  2  0  0  0  0  0  0
  188.4030  176.5070  144.3100 C   0  0  2  0  0  3  0  0  0  0  0  0
  195.6980  174.6240  145.9160 C   0  0  0  0  0  2  0  0  0  0  0  0
  188.8450  177.6220  146.6120 C   0  0  0  0  0  2  0  0  0  0  0  0
  186.3970  177.5900  145.3950 C   0  0  1  0  0  3  0  0  0  0  0  0
  192.8230  173.8370  140.8280 C   0  0  0  0  0  3  0  0  0  0  0  0
  192.2760  174.4450  141.9660 C   0  0  0  0  0  0  0  0  0  0  0  0
  194.3670  174.3470  143.1740 O   0  0  0  0  0  0  0  0  0  0  0  0
  190.5780  176.1680  145.4700 C   0  0  0  0  0  2  0  0  0  0  0  0
  193.1090  175.9810  146.4830 O   0  0  0  0  0  0  0  0  0  0  0  0
  197.5950  175.5410  143.0460 C   0  0  0  0  0  1  0  0  0  0  0  0
  192.4520  175.1110  144.3550 C   0  0  2  0  0  3  0  0  0  0  0  0
  195.2470  175.2780  143.6440 N   0  0  1  0  0  0  0  0  0  0  0  0
  184.9160  177.7510  145.1010 C   0  0  0  0  0  2  0  0  0  0  0  0
  184.7010  178.7790  144.0440 C   0  0  0  0  0  0  0  0  0  0  0  0
  185.0940  179.9600  144.2260 O   0  0  0  0  0  0  0  0  0  0  0  0
  184.0790  178.4190  142.8150 N   0  0  0  0  0  1  0  0  0  0  0  0
  1 16  1  0  0  0  0
  2 27  1  0  0  0  0
  2 24  1  1  0  0  0
  3 11  1  0  0  0  0
  4  3  2  0  0  0  0
  4 21  1  0  0  0  0
  5 25  2  0  0  0  0
  6  5  1  0  0  0  0
  6 18  1  1  0  0  0
  7 24  1  1  0  0  0
  7 19  1  0  0  0  0
  9 26  1  1  0  0  0
  9 15  1  0  0  0  0
 10 17  1  0  0  0  0
 10 20  1  0  0  0  0
 11 13  2  0  0  0  0
 12  8  1  6  0  0  0
 12  2  1  0  0  0  0
 13 12  1  0  0  0  0
 14 22  1  6  0  0  0
 14 23  1  0  0  0  0
 14 27  1  0  0  0  0
 15 18  1  0  0  0  0
 17  8  1  6  0  0  0
 17  7  1  0  0  0  0
 19 16  1  0  0  0  0
 20 29  1  6  0  0  0
 20  1  1  0  0  0  0
 21 22  2  0  0  0  0
 22 13  1  0  0  0  0
 27  5  1  1  0  0  0
 28 23  1  1  0  0  0
 28  9  1  0  0  0  0
 28  6  1  0  0  0  0
 30 31  2  0  0  0  0
 30 29  1  0  0  0  0
 32 30  1  0  0  0  0
M  END
>  <MODEL>
1

>  <REMARK>
 VINA RESULT:      -8.2      0.000      0.000
  Name = 
  2 active torsions:
  status: ('A' for Active; 'I' for Inactive)
    1  A    between atoms: C_20  and  C_29
    2  A    between atoms: C_29  and  C_30
                            x       y       z     vdW  Elec       q    Type
                         _______ _______ _______ _____ _____    ______ ____

>  <TORSDO>
F 2

$$$$
=
 OpenBabel11112416313D

 32 37  0  0  1  0  0  0  0  0999 V2000
  186.1940  178.4360  141.5870 O   0  0  0  0  0  0  0  0  0  0  0  0
  189.9520  175.9020  143.9580 N   0  0  1  0  0  0  0  0  0  0  0  0
  190.4110  177.9260  148.4490 C   0  0  0  0  0  3  0  0  0  0  0  0
  191.5680  177.1720  148.6550 C   0  0  0  0  0  3  0  0  0  0  0  0
  192.0430  174.8940  142.9330 C   0  0  0  0  0  0  0  0  0  0  0  0
  193.1920  173.9850  143.3240 C   0  0  1  0  0  3  0  0  0  0  0  0
  187.9220  176.1510  142.6260 C   0  0  1  0  0  3  0  0  0  0  0  0
  187.9860  176.9800  144.9930 C   0  0  0  0  0  2  0  0  0  0  0  0
  194.8840  173.6750  144.9090 C   0  0  2  0  0  3  0  0  0  0  0  0
  185.8510  177.2520  143.6600 C   0  0  0  0  0  2  0  0  0  0  0  0
  189.7360  177.8510  147.2280 C   0  0  0  0  0  3  0  0  0  0  0  0
  189.5130  177.0010  144.8530 C   0  0  1  0  0  3  0  0  0  0  0  0
  190.2020  177.0080  146.2060 C   0  0  0  0  0  0  0  0  0  0  0  0
  191.8700  175.3600  145.3320 C   0  0  2  0  0  3  0  0  0  0  0  0
  195.5380  173.7980  143.5420 C   0  0  0  0  0  2  0  0  0  0  0  0
  186.9420  177.6250  140.6950 C   0  0  0  0  0  2  0  0  0  0  0  0
  187.3780  177.1940  143.6130 C   0  0  2  0  0  3  0  0  0  0  0  0
  194.4790  174.3700  142.6380 C   0  0  0  0  0  2  0  0  0  0  0  0
  187.3390  176.2190  141.2080 C   0  0  0  0  0  2  0  0  0  0  0  0
  185.2720  177.6400  142.2950 C   0  0  1  0  0  3  0  0  0  0  0  0
  192.0580  176.3520  147.6360 C   0  0  0  0  0  3  0  0  0  0  0  0
  191.3980  176.2910  146.4020 C   0  0  0  0  0  0  0  0  0  0  0  0
  193.2590  175.1890  145.3230 O   0  0  0  0  0  0  0  0  0  0  0  0
  189.4440  176.2280  142.6180 C   0  0  0  0  0  2  0  0  0  0  0  0
  191.6840  174.9140  141.7660 O   0  0  0  0  0  0  0  0  0  0  0  0
  195.0880  172.2740  145.4510 C   0  0  0  0  0  1  0  0  0  0  0  0
  191.4270  175.8390  143.9560 C   0  0  2  0  0  3  0  0  0  0  0  0
  193.4560  173.9540  144.7770 N   0  0  1  0  0  0  0  0  0  0  0  0
  183.9660  178.3910  142.4910 C   0  0  0  0  0  2  0  0  0  0  0  0
  183.1030  178.2630  141.2830 C   0  0  0  0  0  0  0  0  0  0  0  0
  183.6190  178.2850  140.1360 O   0  0  0  0  0  0  0  0  0  0  0  0
  181.6980  178.0850  141.4270 N   0  0  0  0  0  1  0  0  0  0  0  0
  1 20  1  0  0  0  0
  2 24  1  6  0  0  0
  2 12  1  0  0  0  0
  3  4  1  0  0  0  0
  5  6  1  0  0  0  0
  6 18  1  6  0  0  0
  6 28  1  0  0  0  0
  7 19  1  6  0  0  0
  7 17  1  0  0  0  0
  9 26  1  6  0  0  0
 11  3  2  0  0  0  0
 12  8  1  1  0  0  0
 12 13  1  0  0  0  0
 13 22  2  0  0  0  0
 13 11  1  0  0  0  0
 14 23  1  6  0  0  0
 14 22  1  0  0  0  0
 15  9  1  0  0  0  0
 16 19  1  0  0  0  0
 16  1  1  0  0  0  0
 17 10  1  1  0  0  0
 17  8  1  0  0  0  0
 18 15  1  0  0  0  0
 20 29  1  1  0  0  0
 20 10  1  0  0  0  0
 21  4  2  0  0  0  0
 22 21  1  0  0  0  0
 24  7  1  0  0  0  0
 25  5  2  0  0  0  0
 27  5  1  6  0  0  0
 27  2  1  0  0  0  0
 27 14  1  0  0  0  0
 28  9  1  0  0  0  0
 28 23  1  6  0  0  0
 30 32  1  0  0  0  0
 30 29  1  0  0  0  0
 31 30  2  0  0  0  0
M  END
>  <MODEL>
2

>  <REMARK>
 VINA RESULT:      -8.2      2.155      4.491
  Name = 
  2 active torsions:
  status: ('A' for Active; 'I' for Inactive)
    1  A    between atoms: C_20  and  C_29
    2  A    between atoms: C_29  and  C_30
                            x       y       z     vdW  Elec       q    Type
                         _______ _______ _______ _____ _____    ______ ____

>  <TORSDO>
F 2

$$$$
=
 OpenBabel11112416313D

 32 37  0  0  1  0  0  0  0  0999 V2000
  187.1210  178.2890  142.7070 O   0  0  0  0  0  0  0  0  0  0  0  0
  190.5550  174.5940  143.5550 N   0  0  1  0  0  0  0  0  0  0  0  0
  194.0670  176.5570  146.4330 C   0  0  0  0  0  3  0  0  0  0  0  0
  194.8370  175.4060  146.2560 C   0  0  0  0  0  3  0  0  0  0  0  0
  191.2660  172.7340  141.9820 C   0  0  0  0  0  0  0  0  0  0  0  0
  192.0860  171.4580  142.0060 C   0  0  1  0  0  3  0  0  0  0  0  0
  188.3270  175.5720  143.3810 C   0  0  1  0  0  3  0  0  0  0  0  0
  189.9670  176.4660  145.0540 C   0  0  0  0  0  2  0  0  0  0  0  0
  194.1800  170.5840  142.5710 C   0  0  2  0  0  3  0  0  0  0  0  0
  187.6650  177.5090  144.9240 C   0  0  0  0  0  2  0  0  0  0  0  0
  192.8380  176.6840  145.7820 C   0  0  0  0  0  3  0  0  0  0  0  0
  191.0640  175.8370  144.1850 C   0  0  1  0  0  3  0  0  0  0  0  0
  192.3580  175.6530  144.9580 C   0  0  0  0  0  0  0  0  0  0  0  0
  192.6320  173.4000  143.9040 C   0  0  2  0  0  3  0  0  0  0  0  0
  193.9470  170.3240  141.0920 C   0  0  0  0  0  2  0  0  0  0  0  0
  186.9400  177.1780  141.8440 C   0  0  0  0  0  2  0  0  0  0  0  0
  188.7890  176.8150  144.1550 C   0  0  2  0  0  3  0  0  0  0  0  0
  192.8020  171.2190  140.7000 C   0  0  0  0  0  2  0  0  0  0  0  0
  187.1000  175.7750  142.4810 C   0  0  0  0  0  2  0  0  0  0  0  0
  186.5700  178.0040  143.9720 C   0  0  1  0  0  3  0  0  0  0  0  0
  194.3840  174.3860  145.4170 C   0  0  0  0  0  3  0  0  0  0  0  0
  193.1620  174.5180  144.7430 C   0  0  0  0  0  0  0  0  0  0  0  0
  193.6380  172.6640  143.2660 O   0  0  0  0  0  0  0  0  0  0  0  0
  189.5100  175.0050  142.6070 C   0  0  0  0  0  2  0  0  0  0  0  0
  190.3390  172.8180  141.1930 O   0  0  0  0  0  0  0  0  0  0  0  0
  194.2100  169.2690  143.3250 C   0  0  0  0  0  1  0  0  0  0  0  0
  191.6640  173.9210  142.8500 C   0  0  2  0  0  3  0  0  0  0  0  0
  193.0990  171.4240  143.0800 N   0  0  1  0  0  0  0  0  0  0  0  0
  185.9130  179.2440  144.5540 C   0  0  0  0  0  2  0  0  0  0  0  0
  184.4630  179.0010  144.8000 C   0  0  0  0  0  0  0  0  0  0  0  0
  183.6440  179.0590  143.8470 O   0  0  0  0  0  0  0  0  0  0  0  0
  184.0090  178.6710  146.1080 N   0  0  0  0  0  1  0  0  0  0  0  0
  1 20  1  0  0  0  0
  2 24  1  6  0  0  0
  2 12  1  0  0  0  0
  4  3  1  0  0  0  0
  5  6  1  0  0  0  0
  6 18  1  6  0  0  0
  6 28  1  0  0  0  0
  7 19  1  6  0  0  0
  7 17  1  0  0  0  0
  9 28  1  0  0  0  0
  9 26  1  1  0  0  0
 11  3  2  0  0  0  0
 12 13  1  0  0  0  0
 12  8  1  1  0  0  0
 13 11  1  0  0  0  0
 14 23  1  6  0  0  0
 14 22  1  0  0  0  0
 15  9  1  0  0  0  0
 16 19  1  0  0  0  0
 16  1  1  0  0  0  0
 17 10  1  1  0  0  0
 17  8  1  0  0  0  0
 18 15  1  0  0  0  0
 20 29  1  1  0  0  0
 20 10  1  0  0  0  0
 21  4  2  0  0  0  0
 22 13  2  0  0  0  0
 22 21  1  0  0  0  0
 24  7  1  0  0  0  0
 25  5  2  0  0  0  0
 27  5  1  1  0  0  0
 27  2  1  0  0  0  0
 27 14  1  0  0  0  0
 28 23  1  6  0  0  0
 29 30  1  0  0  0  0
 30 32  1  0  0  0  0
 31 30  2  0  0  0  0
M  END
>  <MODEL>
3

>  <REMARK>
 VINA RESULT:      -8.1      2.367      4.381
  Name = 
  2 active torsions:
  status: ('A' for Active; 'I' for Inactive)
    1  A    between atoms: C_20  and  C_29
    2  A    between atoms: C_29  and  C_30
                            x       y       z     vdW  Elec       q    Type
                         _______ _______ _______ _____ _____    ______ ____

>  <TORSDO>
F 2

$$$$
=
 OpenBabel11112416313D

 32 37  0  0  1  0  0  0  0  0999 V2000
  186.5530  179.1400  143.4560 O   0  0  0  0  0  0  0  0  0  0  0  0
  188.7650  174.6980  142.2180 N   0  0  1  0  0  0  0  0  0  0  0  0
  192.5200  174.0570  145.3760 C   0  0  0  0  0  3  0  0  0  0  0  0
  192.9460  172.9590  144.6250 C   0  0  0  0  0  3  0  0  0  0  0  0
  189.0150  173.6680  139.9130 C   0  0  0  0  0  0  0  0  0  0  0  0
  189.4440  172.3590  139.2780 C   0  0  1  0  0  3  0  0  0  0  0  0
  186.9120  176.2100  142.7000 C   0  0  1  0  0  3  0  0  0  0  0  0
  188.6410  175.7380  144.4550 C   0  0  0  0  0  2  0  0  0  0  0  0
  191.1750  170.7890  139.2010 C   0  0  2  0  0  3  0  0  0  0  0  0
  186.7330  177.3050  145.0110 C   0  0  0  0  0  2  0  0  0  0  0  0
  191.4130  174.8010  144.9610 C   0  0  0  0  0  3  0  0  0  0  0  0
  189.5650  175.3130  143.3070 C   0  0  1  0  0  3  0  0  0  0  0  0
  190.7110  174.4460  143.7980 C   0  0  0  0  0  0  0  0  0  0  0  0
  190.4030  172.9640  141.8050 C   0  0  2  0  0  3  0  0  0  0  0  0
  190.9620  171.3220  137.7940 C   0  0  0  0  0  2  0  0  0  0  0  0
  186.1170  178.6550  142.1960 C   0  0  0  0  0  2  0  0  0  0  0  0
  187.6590  176.7710  143.9180 C   0  0  2  0  0  3  0  0  0  0  0  0
  190.1360  172.5700  137.9550 C   0  0  0  0  0  2  0  0  0  0  0  0
  185.8430  177.1340  142.1000 C   0  0  0  0  0  2  0  0  0  0  0  0
  185.8740  178.4620  144.4890 C   0  0  1  0  0  3  0  0  0  0  0  0
  192.2730  172.6130  143.4510 C   0  0  0  0  0  3  0  0  0  0  0  0
  191.1770  173.3710  143.0170 C   0  0  0  0  0  0  0  0  0  0  0  0
  191.1970  172.3670  140.8190 O   0  0  0  0  0  0  0  0  0  0  0  0
  187.9310  175.7690  141.6570 C   0  0  0  0  0  2  0  0  0  0  0  0
  188.1940  174.3580  139.3310 O   0  0  0  0  0  0  0  0  0  0  0  0
  190.7950  169.3230  139.2580 C   0  0  0  0  0  1  0  0  0  0  0  0
  189.6790  174.1560  141.1930 C   0  0  2  0  0  3  0  0  0  0  0  0
  190.3450  171.5550  140.1270 N   0  0  1  0  0  0  0  0  0  0  0  0
  185.5580  179.4160  145.6290 C   0  0  0  0  0  2  0  0  0  0  0  0
  185.1480  178.6590  146.8450 C   0  0  0  0  0  0  0  0  0  0  0  0
  184.0660  178.0170  146.8520 O   0  0  0  0  0  0  0  0  0  0  0  0
  185.9960  178.6350  147.9880 N   0  0  0  0  0  1  0  0  0  0  0  0
  1 20  1  0  0  0  0
  2 24  1  6  0  0  0
  2 12  1  0  0  0  0
  4  3  2  0  0  0  0
  6 18  1  6  0  0  0
  6  5  1  0  0  0  0
  6 28  1  0  0  0  0
  7 24  1  6  0  0  0
  7 17  1  0  0  0  0
  9 26  1  6  0  0  0
  9 28  1  0  0  0  0
 11  3  1  0  0  0  0
 12 13  1  0  0  0  0
 12  8  1  1  0  0  0
 13 11  2  0  0  0  0
 14 23  1  6  0  0  0
 14 22  1  0  0  0  0
 15 18  1  0  0  0  0
 15  9  1  0  0  0  0
 16  1  1  0  0  0  0
 17  8  1  1  0  0  0
 17 10  1  0  0  0  0
 19 16  1  0  0  0  0
 19  7  1  0  0  0  0
 20 10  1  0  0  0  0
 20 29  1  1  0  0  0
 21  4  1  0  0  0  0
 22 21  2  0  0  0  0
 22 13  1  0  0  0  0
 25  5  2  0  0  0  0
 27  5  1  6  0  0  0
 27 14  1  0  0  0  0
 27  2  1  0  0  0  0
 28 23  1  6  0  0  0
 29 30  1  0  0  0  0
 30 31  2  0  0  0  0
 30 32  1  0  0  0  0
M  END
>  <MODEL>
4

>  <REMARK>
 VINA RESULT:      -7.9      3.121      5.418
  Name = 
  2 active torsions:
  status: ('A' for Active; 'I' for Inactive)
    1  A    between atoms: C_20  and  C_29
    2  A    between atoms: C_29  and  C_30
                            x       y       z     vdW  Elec       q    Type
                         _______ _______ _______ _____ _____    ______ ____

>  <TORSDO>
F 2

$$$$
=
 OpenBabel11112416313D

 32 37  0  0  1  0  0  0  0  0999 V2000
  187.5350  176.1360  146.7210 O   0  0  0  0  0  0  0  0  0  0  0  0
  191.4300  175.8270  143.4200 N   0  0  1  0  0  0  0  0  0  0  0  0
  190.0110  172.7210  139.8410 C   0  0  0  0  0  3  0  0  0  0  0  0
  191.3080  172.7430  139.3260 C   0  0  0  0  0  3  0  0  0  0  0  0
  193.9140  175.9420  143.9230 C   0  0  0  0  0  0  0  0  0  0  0  0
  195.2340  176.0480  143.1830 C   0  0  1  0  0  3  0  0  0  0  0  0
  189.8230  176.9440  144.8770 C   0  0  1  0  0  3  0  0  0  0  0  0
  189.0220  175.5920  142.9230 C   0  0  0  0  0  2  0  0  0  0  0  0
  196.5180  175.0770  141.4870 C   0  0  2  0  0  3  0  0  0  0  0  0
  187.3140  176.7400  144.3960 C   0  0  0  0  0  2  0  0  0  0  0  0
  189.7080  173.4310  141.0050 C   0  0  0  0  0  3  0  0  0  0  0  0
  190.3800  174.8790  142.9700 C   0  0  1  0  0  3  0  0  0  0  0  0
  190.6970  174.1840  141.6580 C   0  0  0  0  0  0  0  0  0  0  0  0
  193.0570  174.9970  141.8310 C   0  0  2  0  0  3  0  0  0  0  0  0
  197.3240  175.0230  142.7740 C   0  0  0  0  0  2  0  0  0  0  0  0
  188.7300  176.6930  147.2450 C   0  0  0  0  0  2  0  0  0  0  0  0
  188.6860  176.0700  144.3290 C   0  0  2  0  0  3  0  0  0  0  0  0
  196.3380  175.2930  143.8790 C   0  0  0  0  0  2  0  0  0  0  0  0
  189.5800  177.5440  146.2700 C   0  0  0  0  0  2  0  0  0  0  0  0
  186.9240  177.0560  145.8440 C   0  0  1  0  0  3  0  0  0  0  0  0
  192.3070  173.4650  139.9820 C   0  0  0  0  0  3  0  0  0  0  0  0
  192.0150  174.1600  141.1630 C   0  0  0  0  0  0  0  0  0  0  0  0
  194.3500  174.4780  141.6990 O   0  0  0  0  0  0  0  0  0  0  0  0
  191.1250  176.1540  144.8190 C   0  0  0  0  0  2  0  0  0  0  0  0
  193.8360  176.4070  145.0490 O   0  0  0  0  0  0  0  0  0  0  0  0
  197.1920  176.0080  140.4980 C   0  0  0  0  0  1  0  0  0  0  0  0
  192.7490  175.1740  143.3120 C   0  0  2  0  0  3  0  0  0  0  0  0
  195.1740  175.5610  141.7900 N   0  0  1  0  0  0  0  0  0  0  0  0
  185.4130  177.0000  145.9890 C   0  0  0  0  0  2  0  0  0  0  0  0
  184.8810  178.3220  146.4270 C   0  0  0  0  0  0  0  0  0  0  0  0
  183.7070  178.6580  146.1270 O   0  0  0  0  0  0  0  0  0  0  0  0
  185.6910  179.1900  147.2120 N   0  0  0  0  0  1  0  0  0  0  0  0
  1 16  1  0  0  0  0
  2 24  1  1  0  0  0
  3 11  1  0  0  0  0
  4  3  2  0  0  0  0
  4 21  1  0  0  0  0
  5 25  2  0  0  0  0
  6 18  1  1  0  0  0
  6  5  1  0  0  0  0
  7 24  1  1  0  0  0
  7 19  1  0  0  0  0
  9 26  1  6  0  0  0
  9 28  1  0  0  0  0
  9 15  1  0  0  0  0
 10 20  1  0  0  0  0
 11 13  2  0  0  0  0
 12  8  1  6  0  0  0
 12  2  1  0  0  0  0
 13 12  1  0  0  0  0
 14 22  1  1  0  0  0
 14 27  1  0  0  0  0
 15 18  1  0  0  0  0
 17  8  1  6  0  0  0
 17 10  1  0  0  0  0
 17  7  1  0  0  0  0
 19 16  1  0  0  0  0
 20 29  1  6  0  0  0
 20  1  1  0  0  0  0
 21 22  2  0  0  0  0
 22 13  1  0  0  0  0
 23 14  1  0  0  0  0
 27  2  1  0  0  0  0
 27  5  1  6  0  0  0
 28 23  1  1  0  0  0
 28  6  1  0  0  0  0
 29 30  1  0  0  0  0
 30 32  1  0  0  0  0
 31 30  2  0  0  0  0
M  END
>  <MODEL>
5

>  <REMARK>
 VINA RESULT:      -7.9      1.495      1.669
  Name = 
  2 active torsions:
  status: ('A' for Active; 'I' for Inactive)
    1  A    between atoms: C_20  and  C_29
    2  A    between atoms: C_29  and  C_30
                            x       y       z     vdW  Elec       q    Type
                         _______ _______ _______ _____ _____    ______ ____

>  <TORSDO>
F 2

$$$$
=
 OpenBabel11112416313D

 32 37  0  0  1  0  0  0  0  0999 V2000
  186.6930  179.0310  143.1200 O   0  0  0  0  0  0  0  0  0  0  0  0
  189.3230  174.6530  142.8440 N   0  0  1  0  0  0  0  0  0  0  0  0
  192.8770  174.9170  146.2750 C   0  0  0  0  0  3  0  0  0  0  0  0
  193.4390  173.7460  145.7630 C   0  0  0  0  0  3  0  0  0  0  0  0
  189.8170  173.2570  140.7840 C   0  0  0  0  0  0  0  0  0  0  0  0
  190.3900  171.8990  140.4240 C   0  0  1  0  0  3  0  0  0  0  0  0
  187.3290  176.0570  142.9340 C   0  0  1  0  0  3  0  0  0  0  0  0
  188.9580  176.0590  144.8420 C   0  0  0  0  0  2  0  0  0  0  0  0
  192.2370  170.5000  140.7350 C   0  0  2  0  0  3  0  0  0  0  0  0
  186.9000  177.5240  144.9920 C   0  0  0  0  0  2  0  0  0  0  0  0
  191.7490  175.4750  145.6680 C   0  0  0  0  0  3  0  0  0  0  0  0
  189.9930  175.5200  143.8450 C   0  0  1  0  0  3  0  0  0  0  0  0
  191.1630  174.8580  144.5510 C   0  0  0  0  0  0  0  0  0  0  0  0
  191.1150  173.0250  142.8490 C   0  0  2  0  0  3  0  0  0  0  0  0
  192.0860  170.7530  139.2440 C   0  0  0  0  0  2  0  0  0  0  0  0
  186.3880  178.2940  141.9480 C   0  0  0  0  0  2  0  0  0  0  0  0
  187.9410  176.8890  144.0700 C   0  0  2  0  0  3  0  0  0  0  0  0
  191.1570  171.9320  139.1270 C   0  0  0  0  0  2  0  0  0  0  0  0
  186.2390  176.7620  142.1150 C   0  0  0  0  0  2  0  0  0  0  0  0
  185.9950  178.4900  144.2190 C   0  0  1  0  0  3  0  0  0  0  0  0
  192.8820  173.1390  144.6360 C   0  0  0  0  0  3  0  0  0  0  0  0
  191.7650  173.7070  144.0090 C   0  0  0  0  0  0  0  0  0  0  0  0
  192.0210  172.3350  142.0360 O   0  0  0  0  0  0  0  0  0  0  0  0
  188.4520  175.5300  142.0490 C   0  0  0  0  0  2  0  0  0  0  0  0
  188.9890  173.7580  140.0390 O   0  0  0  0  0  0  0  0  0  0  0  0
  191.9670  169.0390  141.0370 C   0  0  0  0  0  1  0  0  0  0  0  0
  190.3480  174.0210  141.9890 C   0  0  2  0  0  3  0  0  0  0  0  0
  191.2860  171.3410  141.4570 N   0  0  1  0  0  0  0  0  0  0  0  0
  185.5250  179.5980  145.1450 C   0  0  0  0  0  2  0  0  0  0  0  0
  185.0830  179.0350  146.4520 C   0  0  0  0  0  0  0  0  0  0  0  0
  184.0650  178.2970  146.5070 O   0  0  0  0  0  0  0  0  0  0  0  0
  185.8290  179.3060  147.6330 N   0  0  0  0  0  1  0  0  0  0  0  0
  1 20  1  0  0  0  0
  2 24  1  6  0  0  0
  2 12  1  0  0  0  0
  4  3  1  0  0  0  0
  6 18  1  6  0  0  0
  6  5  1  0  0  0  0
  6 28  1  0  0  0  0
  7 24  1  6  0  0  0
  7 17  1  0  0  0  0
  9 26  1  6  0  0  0
  9 28  1  0  0  0  0
 11  3  2  0  0  0  0
 12 13  1  0  0  0  0
 12  8  1  1  0  0  0
 13 11  1  0  0  0  0
 14 23  1  6  0  0  0
 14 22  1  0  0  0  0
 15  9  1  0  0  0  0
 16 19  1  0  0  0  0
 16  1  1  0  0  0  0
 17  8  1  1  0  0  0
 17 10  1  0  0  0  0
 18 15  1  0  0  0  0
 19  7  1  0  0  0  0
 20 10  1  0  0  0  0
 20 29  1  1  0  0  0
 21  4  2  0  0  0  0
 22 13  2  0  0  0  0
 22 21  1  0  0  0  0
 25  5  2  0  0  0  0
 27  5  1  6  0  0  0
 27  2  1  0  0  0  0
 27 14  1  0  0  0  0
 28 23  1  6  0  0  0
 29 30  1  0  0  0  0
 30 31  2  0  0  0  0
 30 32  1  0  0  0  0
M  END
>  <MODEL>
6

>  <REMARK>
 VINA RESULT:      -7.9      2.773      4.978
  Name = 
  2 active torsions:
  status: ('A' for Active; 'I' for Inactive)
    1  A    between atoms: C_20  and  C_29
    2  A    between atoms: C_29  and  C_30
                            x       y       z     vdW  Elec       q    Type
                         _______ _______ _______ _____ _____    ______ ____

>  <TORSDO>
F 2

$$$$
=
 OpenBabel11112416313D

 32 37  0  0  1  0  0  0  0  0999 V2000
  189.4680  172.3880  139.8860 O   0  0  0  0  0  0  0  0  0  0  0  0
  188.7450  175.7830  143.6430 N   0  0  1  0  0  0  0  0  0  0  0  0
  192.2720  174.9440  147.0090 C   0  0  0  0  0  3  0  0  0  0  0  0
  191.6410  175.8390  147.8740 C   0  0  0  0  0  3  0  0  0  0  0  0
  186.5480  176.7260  144.4930 C   0  0  0  0  0  0  0  0  0  0  0  0
  186.0460  177.8140  145.4220 C   0  0  1  0  0  3  0  0  0  0  0  0
  188.9500  175.0190  141.3350 C   0  0  1  0  0  3  0  0  0  0  0  0
  190.8850  174.7880  142.9140 C   0  0  0  0  0  2  0  0  0  0  0  0
  186.2360  178.6630  147.5930 C   0  0  2  0  0  3  0  0  0  0  0  0
  191.1540  173.9900  140.5270 C   0  0  0  0  0  2  0  0  0  0  0  0
  191.7070  174.6570  145.7640 C   0  0  0  0  0  3  0  0  0  0  0  0
  189.8580  174.8900  144.0500 C   0  0  1  0  0  3  0  0  0  0  0  0
  190.5110  175.2750  145.3650 C   0  0  0  0  0  0  0  0  0  0  0  0
  188.6040  176.8290  145.8220 C   0  0  2  0  0  3  0  0  0  0  0  0
  184.7820  178.2860  147.3630 C   0  0  0  0  0  2  0  0  0  0  0  0
  188.2090  173.0360  139.7910 C   0  0  0  0  0  2  0  0  0  0  0  0
  190.1910  174.1910  141.6970 C   0  0  2  0  0  3  0  0  0  0  0  0
  184.7810  177.4100  146.1380 C   0  0  0  0  0  2  0  0  0  0  0  0
  188.1910  174.5560  140.0830 C   0  0  0  0  0  2  0  0  0  0  0  0
  190.4770  173.2320  139.3800 C   0  0  1  0  0  3  0  0  0  0  0  0
  190.4360  176.4380  147.5010 C   0  0  0  0  0  3  0  0  0  0  0  0
  189.8520  176.1360  146.2630 C   0  0  0  0  0  0  0  0  0  0  0  0
  187.7380  177.1340  146.8790 O   0  0  0  0  0  0  0  0  0  0  0  0
  188.0370  175.0980  142.5530 C   0  0  0  0  0  2  0  0  0  0  0  0
  185.8470  176.3920  143.5510 O   0  0  0  0  0  0  0  0  0  0  0  0
  186.3570  180.1660  147.7490 C   0  0  0  0  0  1  0  0  0  0  0  0
  187.8480  175.9940  144.7970 C   0  0  2  0  0  3  0  0  0  0  0  0
  187.0280  178.2170  146.4490 N   0  0  1  0  0  0  0  0  0  0  0  0
  191.5160  172.4200  138.6240 C   0  0  0  0  0  2  0  0  0  0  0  0
  190.9950  172.0210  137.2860 C   0  0  0  0  0  0  0  0  0  0  0  0
  191.2310  170.8700  136.8370 O   0  0  0  0  0  0  0  0  0  0  0  0
  190.2020  172.9300  136.5310 N   0  0  0  0  0  1  0  0  0  0  0  0
  2 24  1  6  0  0  0
  2 12  1  0  0  0  0
  2 27  1  0  0  0  0
  3  4  1  0  0  0  0
  5  6  1  0  0  0  0
  6 18  1  1  0  0  0
  6 28  1  0  0  0  0
  7 19  1  6  0  0  0
  7 17  1  0  0  0  0
  7 24  1  0  0  0  0
  9 26  1  6  0  0  0
 11  3  2  0  0  0  0
 12  8  1  6  0  0  0
 12 13  1  0  0  0  0
 13 11  1  0  0  0  0
 13 22  2  0  0  0  0
 14 22  1  1  0  0  0
 14 23  1  0  0  0  0
 15  9  1  0  0  0  0
 16  1  1  0  0  0  0
 16 19  1  0  0  0  0
 17 10  1  6  0  0  0
 17  8  1  0  0  0  0
 18 15  1  0  0  0  0
 20 29  1  1  0  0  0
 20  1  1  0  0  0  0
 20 10  1  0  0  0  0
 21  4  2  0  0  0  0
 22 21  1  0  0  0  0
 25  5  2  0  0  0  0
 27  5  1  6  0  0  0
 27 14  1  0  0  0  0
 28 23  1  1  0  0  0
 28  9  1  0  0  0  0
 30 29  1  0  0  0  0
 31 30  2  0  0  0  0
 32 30  1  0  0  0  0
M  END
>  <MODEL>
7

>  <REMARK>
 VINA RESULT:      -7.9      3.136      8.177
  Name = 
  2 active torsions:
  status: ('A' for Active; 'I' for Inactive)
    1  A    between atoms: C_20  and  C_29
    2  A    between atoms: C_29  and  C_30
                            x       y       z     vdW  Elec       q    Type
                         _______ _______ _______ _____ _____    ______ ____

>  <TORSDO>
F 2

$$$$
=
 OpenBabel11112416313D

 32 37  0  0  1  0  0  0  0  0999 V2000
  194.4710  171.5220  145.5650 O   0  0  0  0  0  0  0  0  0  0  0  0
  191.1150  175.3390  144.9900 N   0  0  1  0  0  0  0  0  0  0  0  0
  191.1650  177.9160  149.2130 C   0  0  0  0  0  3  0  0  0  0  0  0
  190.0660  178.6490  148.7630 C   0  0  0  0  0  3  0  0  0  0  0  0
  188.9420  175.3230  143.6810 C   0  0  0  0  0  0  0  0  0  0  0  0
  187.8770  176.2930  143.2070 C   0  0  1  0  0  3  0  0  0  0  0  0
  192.9530  173.8680  144.3490 C   0  0  1  0  0  3  0  0  0  0  0  0
  193.1640  175.3390  146.3700 C   0  0  0  0  0  2  0  0  0  0  0  0
  186.4080  177.9650  143.9240 C   0  0  2  0  0  3  0  0  0  0  0  0
  195.1050  173.8420  145.7410 C   0  0  0  0  0  2  0  0  0  0  0  0
  191.6840  176.8810  148.4310 C   0  0  0  0  0  3  0  0  0  0  0  0
  191.6310  175.3960  146.3810 C   0  0  1  0  0  3  0  0  0  0  0  0
  191.1170  176.5790  147.1820 C   0  0  0  0  0  0  0  0  0  0  0  0
  189.4010  176.9970  145.4090 C   0  0  2  0  0  3  0  0  0  0  0  0
  185.5840  176.8580  143.2870 C   0  0  0  0  0  2  0  0  0  0  0  0
  193.6400  171.3420  144.4280 C   0  0  0  0  0  2  0  0  0  0  0  0
  193.5870  174.0190  145.7390 C   0  0  2  0  0  3  0  0  0  0  0  0
  186.5040  175.6700  143.1980 C   0  0  0  0  0  2  0  0  0  0  0  0
  193.3520  172.6020  143.5770 C   0  0  0  0  0  2  0  0  0  0  0  0
  195.4970  172.4400  145.2640 C   0  0  1  0  0  3  0  0  0  0  0  0
  189.4760  178.3400  147.5360 C   0  0  0  0  0  3  0  0  0  0  0  0
  189.9770  177.2870  146.7580 C   0  0  0  0  0  0  0  0  0  0  0  0
  188.0280  177.2520  145.3290 O   0  0  0  0  0  0  0  0  0  0  0  0
  191.4410  174.0010  144.4790 C   0  0  0  0  0  2  0  0  0  0  0  0
  189.1500  174.3160  143.0220 O   0  0  0  0  0  0  0  0  0  0  0  0
  186.3140  179.2230  143.0840 C   0  0  0  0  0  1  0  0  0  0  0  0
  189.6540  175.5500  145.0080 C   0  0  2  0  0  3  0  0  0  0  0  0
  187.7990  177.5280  144.0130 N   0  0  1  0  0  0  0  0  0  0  0  0
  196.7950  172.0190  145.9310 C   0  0  0  0  0  2  0  0  0  0  0  0
  197.2760  170.7250  145.3700 C   0  0  0  0  0  0  0  0  0  0  0  0
  197.4880  169.7480  146.1330 O   0  0  0  0  0  0  0  0  0  0  0  0
  197.4660  170.5840  143.9660 N   0  0  0  0  0  1  0  0  0  0  0  0
  2 24  1  1  0  0  0
  2 27  1  0  0  0  0
  2 12  1  0  0  0  0
  4  3  1  0  0  0  0
  6 18  1  1  0  0  0
  6  5  1  0  0  0  0
  6 28  1  0  0  0  0
  7 19  1  1  0  0  0
  7 24  1  0  0  0  0
  7 17  1  0  0  0  0
  9 26  1  6  0  0  0
  9 28  1  0  0  0  0
 11  3  2  0  0  0  0
 12  8  1  6  0  0  0
 12 13  1  0  0  0  0
 13 11  1  0  0  0  0
 14 23  1  1  0  0  0
 14 22  1  0  0  0  0
 15  9  1  0  0  0  0
 16  1  1  0  0  0  0
 17 10  1  6  0  0  0
 17  8  1  0  0  0  0
 18 15  1  0  0  0  0
 19 16  1  0  0  0  0
 20  1  1  0  0  0  0
 20 10  1  0  0  0  0
 20 29  1  1  0  0  0
 21  4  2  0  0  0  0
 22 13  2  0  0  0  0
 22 21  1  0  0  0  0
 25  5  2  0  0  0  0
 27  5  1  6  0  0  0
 27 14  1  0  0  0  0
 28 23  1  1  0  0  0
 30 29  1  0  0  0  0
 30 31  2  0  0  0  0
 32 30  1  0  0  0  0
M  END
>  <MODEL>
8

>  <REMARK>
 VINA RESULT:      -7.8      2.691      8.975
  Name = 
  2 active torsions:
  status: ('A' for Active; 'I' for Inactive)
    1  A    between atoms: C_20  and  C_29
    2  A    between atoms: C_29  and  C_30
                            x       y       z     vdW  Elec       q    Type
                         _______ _______ _______ _____ _____    ______ ____

>  <TORSDO>
F 2

$$$$
=
 OpenBabel11112416313D

 32 37  0  0  1  0  0  0  0  0999 V2000
  192.1160  172.5040  141.4200 O   0  0  0  0  0  0  0  0  0  0  0  0
  188.2100  175.1650  143.3760 N   0  0  1  0  0  0  0  0  0  0  0  0
  186.1170  177.5880  139.6040 C   0  0  0  0  0  3  0  0  0  0  0  0
  185.3230  178.2890  140.5130 C   0  0  0  0  0  3  0  0  0  0  0  0
  188.0490  176.2470  145.6650 C   0  0  0  0  0  0  0  0  0  0  0  0
  187.0160  176.9170  146.5510 C   0  0  1  0  0  3  0  0  0  0  0  0
  189.6270  173.2090  143.0310 C   0  0  1  0  0  3  0  0  0  0  0  0
  188.3920  174.2250  141.0990 C   0  0  0  0  0  2  0  0  0  0  0  0
  185.4140  178.6190  146.6070 C   0  0  2  0  0  3  0  0  0  0  0  0
  189.8380  172.1890  140.6890 C   0  0  0  0  0  2  0  0  0  0  0  0
  187.0660  176.6720  140.0650 C   0  0  0  0  0  3  0  0  0  0  0  0
  188.3140  175.5090  141.9350 C   0  0  1  0  0  3  0  0  0  0  0  0
  187.2200  176.4380  141.4410 C   0  0  0  0  0  0  0  0  0  0  0  0
  186.5830  176.9040  143.8150 C   0  0  2  0  0  3  0  0  0  0  0  0
  186.4310  178.8960  147.7020 C   0  0  0  0  0  2  0  0  0  0  0  0
  192.1570  172.5570  142.8370 C   0  0  0  0  0  2  0  0  0  0  0  0
  189.6400  173.4590  141.5170 C   0  0  2  0  0  3  0  0  0  0  0  0
  187.6150  178.0230  147.3830 C   0  0  0  0  0  2  0  0  0  0  0  0
  190.8050  172.3880  143.5740 C   0  0  0  0  0  2  0  0  0  0  0  0
  191.1850  171.5290  141.0070 C   0  0  1  0  0  3  0  0  0  0  0  0
  185.4860  178.0850  141.8840 C   0  0  0  0  0  3  0  0  0  0  0  0
  186.4530  177.1860  142.3530 C   0  0  0  0  0  0  0  0  0  0  0  0
  186.3010  178.0140  144.6190 O   0  0  0  0  0  0  0  0  0  0  0  0
  189.4870  174.5450  143.7500 C   0  0  0  0  0  2  0  0  0  0  0  0
  188.9790  175.6590  146.1940 O   0  0  0  0  0  0  0  0  0  0  0  0
  184.0690  178.2940  147.2270 C   0  0  0  0  0  1  0  0  0  0  0  0
  187.9810  176.4000  144.1520 C   0  0  2  0  0  3  0  0  0  0  0  0
  185.8770  177.4900  145.8050 N   0  0  1  0  0  0  0  0  0  0  0  0
  191.6960  170.7990  139.7770 C   0  0  0  0  0  2  0  0  0  0  0  0
  190.8530  169.6040  139.4900 C   0  0  0  0  0  0  0  0  0  0  0  0
  190.7510  168.6860  140.3450 O   0  0  0  0  0  0  0  0  0  0  0  0
  190.1380  169.5140  138.2630 N   0  0  0  0  0  1  0  0  0  0  0  0
  1 16  1  0  0  0  0
  2 24  1  1  0  0  0
  2 27  1  0  0  0  0
  3 11  2  0  0  0  0
  3  4  1  0  0  0  0
  4 21  2  0  0  0  0
  5 25  2  0  0  0  0
  5  6  1  0  0  0  0
  6 18  1  6  0  0  0
  7 19  1  1  0  0  0
  7 24  1  0  0  0  0
  8 17  1  0  0  0  0
  9 26  1  1  0  0  0
  9 15  1  0  0  0  0
 10 20  1  0  0  0  0
 11 13  1  0  0  0  0
 12  8  1  6  0  0  0
 12  2  1  0  0  0  0
 13 12  1  0  0  0  0
 13 22  2  0  0  0  0
 14 22  1  6  0  0  0
 14 27  1  0  0  0  0
 14 23  1  0  0  0  0
 16 19  1  0  0  0  0
 17 10  1  6  0  0  0
 17  7  1  0  0  0  0
 18 15  1  0  0  0  0
 20 29  1  6  0  0  0
 20  1  1  0  0  0  0
 21 22  1  0  0  0  0
 27  5  1  1  0  0  0
 28 23  1  6  0  0  0
 28  6  1  0  0  0  0
 28  9  1  0  0  0  0
 30 29  1  0  0  0  0
 30 31  2  0  0  0  0
 32 30  1  0  0  0  0
M  END
>  <MODEL>
9

>  <REMARK>
 VINA RESULT:      -7.8      3.253      8.154
  Name = 
  2 active torsions:
  status: ('A' for Active; 'I' for Inactive)
    1  A    between atoms: C_20  and  C_29
    2  A    between atoms: C_29  and  C_30
                            x       y       z     vdW  Elec       q    Type
                         _______ _______ _______ _____ _____    ______ ____

>  <TORSDO>
F 2

$$$$
