=
 OpenBabel11112416193D

 30 35  0  0  1  0  0  0  0  0999 V2000
  186.7090  177.4630  143.7850 C   0  0  2  0  0  3  0  0  0  0  0  0
  184.8930  178.3270  145.2180 C   0  0  0  0  0  0  0  0  0  0  0  0
  188.8830  176.2340  147.1590 N   0  0  0  0  0  0  0  0  0  0  0  0
  188.1470  176.9680  143.6290 C   0  0  2  0  0  3  0  0  0  0  0  0
  185.9830  177.7470  142.5800 N   0  0  0  0  0  0  0  0  0  0  0  0
  187.7300  175.8210  140.1910 O   0  0  0  0  0  0  0  0  0  0  0  0
  190.7300  175.8230  142.7300 C   0  0  1  0  0  3  0  0  0  0  0  0
  187.4700  176.3650  141.2990 C   0  0  0  0  0  0  0  0  0  0  0  0
  191.0330  175.8980  144.2340 C   0  0  2  0  0  3  0  0  0  0  0  0
  189.9490  175.7910  146.5660 C   0  0  2  0  0  3  0  0  0  0  0  0
  186.3210  177.2730  141.4170 C   0  0  0  0  0  0  0  0  0  0  0  0
  188.2790  176.0950  142.4540 N   0  0  0  0  0  0  0  0  0  0  0  0
  184.4110  178.5610  146.5080 C   0  0  0  0  0  3  0  0  0  0  0  0
  192.0300  174.7860  144.4870 C   0  0  0  0  0  2  0  0  0  0  0  0
  191.8880  175.0710  142.0920 C   0  0  0  0  0  2  0  0  0  0  0  0
  183.8450  178.9300  143.9360 Cl  0  0  0  0  0  0  0  0  0  0  0  0
  188.0140  176.5920  146.0890 C   0  0  0  0  0  0  0  0  0  0  0  0
  185.1320  178.1700  147.6290 C   0  0  0  0  0  3  0  0  0  0  0  0
  186.1600  177.6870  145.0250 C   0  0  0  0  0  0  0  0  0  0  0  0
  188.5870  176.2940  144.8420 N   0  0  0  0  0  0  0  0  0  0  0  0
  191.1480  175.3590  147.3380 C   0  0  0  0  0  1  0  0  0  0  0  0
  189.8680  175.8030  145.1290 N   0  0  1  0  0  0  0  0  0  0  0  0
  192.8340  174.6860  143.2140 C   0  0  0  0  0  2  0  0  0  0  0  0
  189.1130  173.8290  142.9820 C   0  0  0  0  0  1  0  0  0  0  0  0
  186.3510  177.5240  147.4730 C   0  0  0  0  0  3  0  0  0  0  0  0
  186.8650  177.2640  146.1990 C   0  0  0  0  0  0  0  0  0  0  0  0
  189.4030  175.1710  142.3190 C   0  0  2  0  0  3  0  0  0  0  0  0
  185.5830  177.5960  140.2750 O   0  0  0  0  0  0  0  0  0  0  0  0
  183.2110  177.9230  140.3550 C   0  0  0  0  0  1  0  0  0  0  0  0
  184.5680  178.5900  140.2830 C   0  0  0  0  0  2  0  0  0  0  0  0
  1  5  1  6  0  0  0
  1 19  1  0  0  0  0
  2 13  1  0  0  0  0
  4 12  1  6  0  0  0
  4  1  1  0  0  0  0
  4 20  1  0  0  0  0
  6  8  2  0  0  0  0
  7 15  1  6  0  0  0
  7  9  1  0  0  0  0
  8 11  1  0  0  0  0
  8 12  1  0  0  0  0
  9 14  1  1  0  0  0
  9 22  1  0  0  0  0
 10  3  1  0  0  0  0
 10 21  1  6  0  0  0
 11  5  2  0  0  0  0
 13 18  2  0  0  0  0
 15 23  1  0  0  0  0
 16  2  1  0  0  0  0
 17 26  1  0  0  0  0
 17  3  2  0  0  0  0
 19  2  2  0  0  0  0
 19 26  1  0  0  0  0
 20 17  1  0  0  0  0
 22 20  1  1  0  0  0
 22 10  1  0  0  0  0
 23 14  1  0  0  0  0
 25 18  1  0  0  0  0
 26 25  2  0  0  0  0
 27 12  1  0  0  0  0
 27  7  1  0  0  0  0
 27 24  1  1  0  0  0
 28 30  1  0  0  0  0
 28 11  1  0  0  0  0
 30 29  1  0  0  0  0
M  END
>  <MODEL>
1

>  <REMARK>
 VINA RESULT:      -8.9      0.000      0.000
  Name = 
  2 active torsions:
  status: ('A' for Active; 'I' for Inactive)
    1  A    between atoms: C_11  and  O_28
    2  A    between atoms: O_28  and  C_30
                            x       y       z     vdW  Elec       q    Type
                         _______ _______ _______ _____ _____    ______ ____

>  <TORSDO>
F 2

$$$$
=
 OpenBabel11112416193D

 30 35  0  0  1  0  0  0  0  0999 V2000
  189.2420  175.3210  143.9650 C   0  0  2  0  0  3  0  0  0  0  0  0
  191.2060  174.6050  145.2780 C   0  0  0  0  0  0  0  0  0  0  0  0
  187.9290  177.7560  147.1230 N   0  0  0  0  0  0  0  0  0  0  0  0
  187.8610  175.9760  143.9030 C   0  0  2  0  0  3  0  0  0  0  0  0
  189.6770  174.6060  142.8000 N   0  0  0  0  0  0  0  0  0  0  0  0
  187.6990  176.0560  140.2590 O   0  0  0  0  0  0  0  0  0  0  0  0
  185.2860  177.2270  143.1310 C   0  0  1  0  0  3  0  0  0  0  0  0
  188.1170  175.8030  141.4210 C   0  0  0  0  0  0  0  0  0  0  0  0
  185.2840  177.6150  144.6170 C   0  0  2  0  0  3  0  0  0  0  0  0
  186.8180  178.1830  146.6040 C   0  0  2  0  0  3  0  0  0  0  0  0
  189.1650  174.7910  141.6180 C   0  0  0  0  0  0  0  0  0  0  0  0
  187.5890  176.5040  142.5580 N   0  0  0  0  0  0  0  0  0  0  0  0
  191.9100  174.6600  146.4840 C   0  0  0  0  0  3  0  0  0  0  0  0
  184.4810  178.8980  144.6850 C   0  0  0  0  0  2  0  0  0  0  0  0
  184.1090  177.9490  142.4940 C   0  0  0  0  0  2  0  0  0  0  0  0
  191.9070  173.5160  144.0830 Cl  0  0  0  0  0  0  0  0  0  0  0  0
  188.5240  176.9850  146.0830 C   0  0  0  0  0  0  0  0  0  0  0  0
  191.4730  175.4520  147.5380 C   0  0  0  0  0  3  0  0  0  0  0  0
  190.0010  175.3610  145.1100 C   0  0  0  0  0  0  0  0  0  0  0  0
  187.7470  177.0180  144.9130 N   0  0  0  0  0  0  0  0  0  0  0  0
  185.8500  178.9950  147.3950 C   0  0  0  0  0  1  0  0  0  0  0  0
  186.6080  177.7660  145.2430 N   0  0  1  0  0  0  0  0  0  0  0  0
  183.4530  178.7710  143.5860 C   0  0  0  0  0  2  0  0  0  0  0  0
  187.1210  178.9300  142.5130 C   0  0  0  0  0  1  0  0  0  0  0  0
  190.3230  176.2160  147.3950 C   0  0  0  0  0  3  0  0  0  0  0  0
  189.5940  176.1950  146.2020 C   0  0  0  0  0  0  0  0  0  0  0  0
  186.5640  177.5220  142.3360 C   0  0  2  0  0  3  0  0  0  0  0  0
  189.6200  174.0550  140.5210 O   0  0  0  0  0  0  0  0  0  0  0  0
  188.2010  172.6630  139.1830 C   0  0  0  0  0  1  0  0  0  0  0  0
  189.2270  172.7090  140.2960 C   0  0  0  0  0  2  0  0  0  0  0  0
  1  5  1  1  0  0  0
  1 19  1  0  0  0  0
  2 13  1  0  0  0  0
  4 12  1  6  0  0  0
  4  1  1  0  0  0  0
  4 20  1  0  0  0  0
  6  8  2  0  0  0  0
  7 15  1  6  0  0  0
  7  9  1  0  0  0  0
  8 11  1  0  0  0  0
  8 12  1  0  0  0  0
  9 14  1  6  0  0  0
  9 22  1  0  0  0  0
 10  3  1  0  0  0  0
 10 21  1  1  0  0  0
 11  5  2  0  0  0  0
 13 18  2  0  0  0  0
 15 23  1  0  0  0  0
 16  2  1  0  0  0  0
 17 26  1  0  0  0  0
 17  3  2  0  0  0  0
 19  2  2  0  0  0  0
 19 26  1  0  0  0  0
 20 17  1  0  0  0  0
 22 20  1  1  0  0  0
 22 10  1  0  0  0  0
 23 14  1  0  0  0  0
 25 18  1  0  0  0  0
 26 25  2  0  0  0  0
 27 24  1  1  0  0  0
 27 12  1  0  0  0  0
 27  7  1  0  0  0  0
 28 11  1  0  0  0  0
 29 30  1  0  0  0  0
 30 28  1  0  0  0  0
M  END
>  <MODEL>
2

>  <REMARK>
 VINA RESULT:      -8.4      2.424      5.596
  Name = 
  2 active torsions:
  status: ('A' for Active; 'I' for Inactive)
    1  A    between atoms: C_11  and  O_28
    2  A    between atoms: O_28  and  C_30
                            x       y       z     vdW  Elec       q    Type
                         _______ _______ _______ _____ _____    ______ ____

>  <TORSDO>
F 2

$$$$
=
 OpenBabel11112416193D

 30 35  0  0  1  0  0  0  0  0999 V2000
  187.3560  177.3620  144.0400 C   0  0  2  0  0  3  0  0  0  0  0  0
  185.2600  178.1990  145.0400 C   0  0  0  0  0  0  0  0  0  0  0  0
  189.2250  177.3420  147.7990 N   0  0  0  0  0  0  0  0  0  0  0  0
  188.8600  177.1050  144.1440 C   0  0  2  0  0  3  0  0  0  0  0  0
  186.7620  177.2300  142.7400 N   0  0  0  0  0  0  0  0  0  0  0  0
  189.0740  175.1440  141.0750 O   0  0  0  0  0  0  0  0  0  0  0  0
  191.6800  176.2550  143.7990 C   0  0  1  0  0  3  0  0  0  0  0  0
  188.5930  175.8730  141.9850 C   0  0  0  0  0  0  0  0  0  0  0  0
  191.7680  176.7260  145.2590 C   0  0  2  0  0  3  0  0  0  0  0  0
  190.4140  176.9680  147.4350 C   0  0  2  0  0  3  0  0  0  0  0  0
  187.3160  176.5670  141.7680 C   0  0  0  0  0  0  0  0  0  0  0  0
  189.2740  176.0220  143.2400 N   0  0  0  0  0  0  0  0  0  0  0  0
  184.5820  178.6340  146.1820 C   0  0  0  0  0  3  0  0  0  0  0  0
  192.8760  175.8940  145.8710 C   0  0  0  0  0  2  0  0  0  0  0  0
  193.0100  175.5930  143.4780 C   0  0  0  0  0  2  0  0  0  0  0  0
  184.3120  178.2970  143.5570 Cl  0  0  0  0  0  0  0  0  0  0  0  0
  188.4610  177.2860  146.5980 C   0  0  0  0  0  0  0  0  0  0  0  0
  185.2000  178.6440  147.4260 C   0  0  0  0  0  3  0  0  0  0  0  0
  186.6210  177.7640  145.1290 C   0  0  0  0  0  0  0  0  0  0  0  0
  189.2310  176.8150  145.5220 N   0  0  0  0  0  0  0  0  0  0  0  0
  191.5520  176.9420  148.3970 C   0  0  0  0  0  1  0  0  0  0  0  0
  190.5220  176.6350  146.0380 N   0  0  1  0  0  0  0  0  0  0  0  0
  193.8470  175.6480  144.7420 C   0  0  0  0  0  2  0  0  0  0  0  0
  190.3570  174.1210  144.3890 C   0  0  0  0  0  1  0  0  0  0  0  0
  186.5100  178.2040  147.5480 C   0  0  0  0  0  3  0  0  0  0  0  0
  187.2210  177.7530  146.4310 C   0  0  0  0  0  0  0  0  0  0  0  0
  190.5300  175.3040  143.4420 C   0  0  2  0  0  3  0  0  0  0  0  0
  186.6960  176.4850  140.5180 O   0  0  0  0  0  0  0  0  0  0  0  0
  184.9350  178.0560  140.1000 C   0  0  0  0  0  1  0  0  0  0  0  0
  186.3520  177.6390  139.7650 C   0  0  0  0  0  2  0  0  0  0  0  0
  1  5  1  6  0  0  0
  1  4  1  0  0  0  0
  1 19  1  0  0  0  0
  2 19  2  0  0  0  0
  2 13  1  0  0  0  0
  4 12  1  6  0  0  0
  4 20  1  0  0  0  0
  6  8  2  0  0  0  0
  7 15  1  1  0  0  0
  7  9  1  0  0  0  0
  8 12  1  0  0  0  0
  9 14  1  1  0  0  0
  9 22  1  0  0  0  0
 10  3  1  0  0  0  0
 10 21  1  6  0  0  0
 11  8  1  0  0  0  0
 11  5  2  0  0  0  0
 12 27  1  0  0  0  0
 13 18  2  0  0  0  0
 15 23  1  0  0  0  0
 16  2  1  0  0  0  0
 17  3  2  0  0  0  0
 18 25  1  0  0  0  0
 19 26  1  0  0  0  0
 20 17  1  0  0  0  0
 22 20  1  6  0  0  0
 22 10  1  0  0  0  0
 23 14  1  0  0  0  0
 26 17  1  0  0  0  0
 26 25  2  0  0  0  0
 27  7  1  0  0  0  0
 27 24  1  1  0  0  0
 28 11  1  0  0  0  0
 30 29  1  0  0  0  0
 30 28  1  0  0  0  0
M  END
>  <MODEL>
3

>  <REMARK>
 VINA RESULT:      -8.2      1.207      1.379
  Name = 
  2 active torsions:
  status: ('A' for Active; 'I' for Inactive)
    1  A    between atoms: C_11  and  O_28
    2  A    between atoms: O_28  and  C_30
                            x       y       z     vdW  Elec       q    Type
                         _______ _______ _______ _____ _____    ______ ____

>  <TORSDO>
F 2

$$$$
=
 OpenBabel11112416193D

 30 35  0  0  1  0  0  0  0  0999 V2000
  187.5760  177.0420  143.0630 C   0  0  2  0  0  3  0  0  0  0  0  0
  185.4420  178.1840  143.5480 C   0  0  0  0  0  0  0  0  0  0  0  0
  188.7900  177.4560  147.0610 N   0  0  0  0  0  0  0  0  0  0  0  0
  189.0080  176.6880  143.4680 C   0  0  2  0  0  3  0  0  0  0  0  0
  187.1940  176.7590  141.7090 N   0  0  0  0  0  0  0  0  0  0  0  0
  189.5220  174.2690  140.7860 O   0  0  0  0  0  0  0  0  0  0  0  0
  191.7430  175.5790  143.7510 C   0  0  1  0  0  3  0  0  0  0  0  0
  188.9750  175.1640  141.4860 C   0  0  0  0  0  0  0  0  0  0  0  0
  191.6380  176.2610  145.1230 C   0  0  2  0  0  3  0  0  0  0  0  0
  189.9770  176.9390  146.9690 C   0  0  2  0  0  3  0  0  0  0  0  0
  187.8290  175.9140  140.9520 C   0  0  0  0  0  0  0  0  0  0  0  0
  189.4510  175.4510  142.8100 N   0  0  0  0  0  0  0  0  0  0  0  0
  184.6340  178.8410  144.4800 C   0  0  0  0  0  3  0  0  0  0  0  0
  192.5390  175.4500  146.0320 C   0  0  0  0  0  2  0  0  0  0  0  0
  193.0330  174.7740  143.7660 C   0  0  0  0  0  2  0  0  0  0  0  0
  184.7660  178.1260  141.9220 Cl  0  0  0  0  0  0  0  0  0  0  0  0
  188.2310  177.2750  145.7620 C   0  0  0  0  0  0  0  0  0  0  0  0
  185.0360  178.9940  145.8010 C   0  0  0  0  0  3  0  0  0  0  0  0
  186.7180  177.6630  143.9380 C   0  0  0  0  0  0  0  0  0  0  0  0
  189.1160  176.5860  144.9160 N   0  0  0  0  0  0  0  0  0  0  0  0
  190.9320  176.9740  148.1120 C   0  0  0  0  0  1  0  0  0  0  0  0
  190.2780  176.3880  145.6740 N   0  0  1  0  0  0  0  0  0  0  0  0
  193.6520  174.9580  145.1390 C   0  0  0  0  0  2  0  0  0  0  0  0
  190.1290  173.6700  144.3840 C   0  0  0  0  0  1  0  0  0  0  0  0
  186.2560  178.4770  146.2140 C   0  0  0  0  0  3  0  0  0  0  0  0
  187.0910  177.8060  145.3150 C   0  0  0  0  0  0  0  0  0  0  0  0
  190.5760  174.6770  143.3300 C   0  0  2  0  0  3  0  0  0  0  0  0
  187.4180  175.6890  139.6350 O   0  0  0  0  0  0  0  0  0  0  0  0
  186.5310  176.1730  137.4620 C   0  0  0  0  0  1  0  0  0  0  0  0
  186.7210  176.6700  138.8800 C   0  0  0  0  0  2  0  0  0  0  0  0
  1  5  1  6  0  0  0
  1  4  1  0  0  0  0
  1 19  1  0  0  0  0
  2 19  2  0  0  0  0
  2 13  1  0  0  0  0
  4 12  1  6  0  0  0
  4 20  1  0  0  0  0
  6  8  2  0  0  0  0
  7 15  1  1  0  0  0
  7  9  1  0  0  0  0
  8 12  1  0  0  0  0
  9 22  1  0  0  0  0
  9 14  1  1  0  0  0
 10  3  1  0  0  0  0
 10 21  1  6  0  0  0
 11  8  1  0  0  0  0
 11  5  2  0  0  0  0
 12 27  1  0  0  0  0
 13 18  2  0  0  0  0
 15 23  1  0  0  0  0
 16  2  1  0  0  0  0
 17  3  2  0  0  0  0
 18 25  1  0  0  0  0
 19 26  1  0  0  0  0
 20 17  1  0  0  0  0
 22 20  1  6  0  0  0
 22 10  1  0  0  0  0
 23 14  1  0  0  0  0
 26 17  1  0  0  0  0
 26 25  2  0  0  0  0
 27  7  1  0  0  0  0
 27 24  1  1  0  0  0
 28 11  1  0  0  0  0
 29 30  1  0  0  0  0
 30 28  1  0  0  0  0
M  END
>  <MODEL>
4

>  <REMARK>
 VINA RESULT:      -8.2      1.617      1.937
  Name = 
  2 active torsions:
  status: ('A' for Active; 'I' for Inactive)
    1  A    between atoms: C_11  and  O_28
    2  A    between atoms: O_28  and  C_30
                            x       y       z     vdW  Elec       q    Type
                         _______ _______ _______ _____ _____    ______ ____

>  <TORSDO>
F 2

$$$$
=
 OpenBabel11112416193D

 30 35  0  0  1  0  0  0  0  0999 V2000
  187.7130  176.4610  144.9420 C   0  0  2  0  0  3  0  0  0  0  0  0
  186.4260  178.3350  145.9050 C   0  0  0  0  0  0  0  0  0  0  0  0
  186.5330  177.5510  141.0630 N   0  0  0  0  0  0  0  0  0  0  0  0
  188.0240  175.5410  143.7610 C   0  0  2  0  0  3  0  0  0  0  0  0
  188.2540  176.0890  146.2180 N   0  0  0  0  0  0  0  0  0  0  0  0
  190.9560  174.0090  145.3000 O   0  0  0  0  0  0  0  0  0  0  0  0
  189.1430  173.5780  141.8410 C   0  0  1  0  0  3  0  0  0  0  0  0
  189.9190  174.7150  145.1680 C   0  0  0  0  0  0  0  0  0  0  0  0
  188.1920  174.3090  140.8810 C   0  0  2  0  0  3  0  0  0  0  0  0
  187.0970  176.5880  140.4000 C   0  0  2  0  0  3  0  0  0  0  0  0
  189.2560  175.2720  146.3560 C   0  0  0  0  0  0  0  0  0  0  0  0
  189.3840  174.9920  143.8650 N   0  0  0  0  0  0  0  0  0  0  0  0
  185.5660  179.4160  145.6930 C   0  0  0  0  0  3  0  0  0  0  0  0
  188.8300  174.1660  139.5150 C   0  0  0  0  0  2  0  0  0  0  0  0
  189.9700  172.6280  140.9890 C   0  0  0  0  0  2  0  0  0  0  0  0
  186.7920  178.0270  147.6020 Cl  0  0  0  0  0  0  0  0  0  0  0  0
  186.9560  177.3400  142.4070 C   0  0  0  0  0  0  0  0  0  0  0  0
  185.1600  179.7720  144.4130 C   0  0  0  0  0  3  0  0  0  0  0  0
  186.8980  177.5590  144.7990 C   0  0  0  0  0  0  0  0  0  0  0  0
  187.8330  176.2470  142.5020 N   0  0  0  0  0  0  0  0  0  0  0  0
  186.8610  176.4070  138.9390 C   0  0  0  0  0  1  0  0  0  0  0  0
  187.9100  175.7170  141.2070 N   0  0  1  0  0  0  0  0  0  0  0  0
  189.5310  172.8290  139.5510 C   0  0  0  0  0  2  0  0  0  0  0  0
  190.8270  175.5290  141.9320 C   0  0  0  0  0  1  0  0  0  0  0  0
  185.6220  179.0550  143.3190 C   0  0  0  0  0  3  0  0  0  0  0  0
  186.4900  177.9710  143.4880 C   0  0  0  0  0  0  0  0  0  0  0  0
  190.0730  174.4470  142.6970 C   0  0  2  0  0  3  0  0  0  0  0  0
  189.7310  174.9350  147.6260 O   0  0  0  0  0  0  0  0  0  0  0  0
  191.1910  176.7950  148.0130 C   0  0  0  0  0  1  0  0  0  0  0  0
  191.0340  175.2910  148.0680 C   0  0  0  0  0  2  0  0  0  0  0  0
  1 19  1  1  0  0  0
  1  5  1  0  0  0  0
  2 16  1  0  0  0  0
  3 17  2  0  0  0  0
  4 20  1  6  0  0  0
  4 12  1  0  0  0  0
  4  1  1  0  0  0  0
  5 11  2  0  0  0  0
  7 15  1  6  0  0  0
  7 27  1  0  0  0  0
  8  6  2  0  0  0  0
  8 11  1  0  0  0  0
  9 14  1  6  0  0  0
  9 22  1  0  0  0  0
  9  7  1  0  0  0  0
 10 21  1  1  0  0  0
 10  3  1  0  0  0  0
 10 22  1  0  0  0  0
 11 28  1  0  0  0  0
 12  8  1  0  0  0  0
 13  2  1  0  0  0  0
 14 23  1  0  0  0  0
 17 20  1  0  0  0  0
 17 26  1  0  0  0  0
 18 13  2  0  0  0  0
 19  2  2  0  0  0  0
 22 20  1  1  0  0  0
 23 15  1  0  0  0  0
 25 26  2  0  0  0  0
 25 18  1  0  0  0  0
 26 19  1  0  0  0  0
 27 24  1  6  0  0  0
 27 12  1  0  0  0  0
 28 30  1  0  0  0  0
 29 30  1  0  0  0  0
M  END
>  <MODEL>
5

>  <REMARK>
 VINA RESULT:      -7.7      2.621      5.325
  Name = 
  2 active torsions:
  status: ('A' for Active; 'I' for Inactive)
    1  A    between atoms: C_11  and  O_28
    2  A    between atoms: O_28  and  C_30
                            x       y       z     vdW  Elec       q    Type
                         _______ _______ _______ _____ _____    ______ ____

>  <TORSDO>
F 2

$$$$
=
 OpenBabel11112416193D

 30 35  0  0  1  0  0  0  0  0999 V2000
  187.3290  176.7170  143.7220 C   0  0  2  0  0  3  0  0  0  0  0  0
  185.7700  178.2560  142.5840 C   0  0  0  0  0  0  0  0  0  0  0  0
  188.3500  174.9310  140.0620 N   0  0  0  0  0  0  0  0  0  0  0  0
  188.1870  175.4510  143.7020 C   0  0  2  0  0  3  0  0  0  0  0  0
  187.1240  177.3450  144.9960 N   0  0  0  0  0  0  0  0  0  0  0  0
  189.8660  176.1390  146.8670 O   0  0  0  0  0  0  0  0  0  0  0  0
  190.0950  173.2420  144.2220 C   0  0  1  0  0  3  0  0  0  0  0  0
  189.0620  176.2550  145.9020 C   0  0  0  0  0  0  0  0  0  0  0  0
  189.7940  172.9320  142.7480 C   0  0  2  0  0  3  0  0  0  0  0  0
  189.1550  174.0120  140.5000 C   0  0  2  0  0  3  0  0  0  0  0  0
  187.8930  177.1370  146.0240 C   0  0  0  0  0  0  0  0  0  0  0  0
  189.2850  175.5430  144.6740 N   0  0  0  0  0  0  0  0  0  0  0  0
  185.1680  178.6660  141.3910 C   0  0  0  0  0  3  0  0  0  0  0  0
  191.0440  172.2510  142.2290 C   0  0  0  0  0  2  0  0  0  0  0  0
  191.2230  172.3120  144.6380 C   0  0  0  0  0  2  0  0  0  0  0  0
  185.1990  179.1150  144.0120 Cl  0  0  0  0  0  0  0  0  0  0  0  0
  188.0120  175.6800  141.2260 C   0  0  0  0  0  0  0  0  0  0  0  0
  185.4900  178.0690  140.1790 C   0  0  0  0  0  3  0  0  0  0  0  0
  186.7300  177.1940  142.5800 C   0  0  0  0  0  0  0  0  0  0  0  0
  188.6900  175.1990  142.3590 N   0  0  0  0  0  0  0  0  0  0  0  0
  189.7060  172.9630  139.5960 C   0  0  0  0  0  1  0  0  0  0  0  0
  189.4150  174.0850  141.9140 N   0  0  1  0  0  0  0  0  0  0  0  0
  191.5960  171.4960  143.4140 C   0  0  0  0  0  2  0  0  0  0  0  0
  191.5310  175.3120  143.6710 C   0  0  0  0  0  1  0  0  0  0  0  0
  186.4360  177.0540  140.1410 C   0  0  0  0  0  3  0  0  0  0  0  0
  187.0680  176.6200  141.3110 C   0  0  0  0  0  0  0  0  0  0  0  0
  190.4670  174.6900  144.5670 C   0  0  2  0  0  3  0  0  0  0  0  0
  187.6350  177.7660  147.2450 O   0  0  0  0  0  0  0  0  0  0  0  0
  185.9410  179.4150  147.6380 C   0  0  0  0  0  1  0  0  0  0  0  0
  186.3160  177.9520  147.7380 C   0  0  0  0  0  2  0  0  0  0  0  0
  1 19  1  1  0  0  0
  1  5  1  0  0  0  0
  2 16  1  0  0  0  0
  3 10  1  0  0  0  0
  3 17  2  0  0  0  0
  4 20  1  6  0  0  0
  4  1  1  0  0  0  0
  4 12  1  0  0  0  0
  5 11  2  0  0  0  0
  7 27  1  0  0  0  0
  7 15  1  6  0  0  0
  8 11  1  0  0  0  0
  8  6  2  0  0  0  0
  9 14  1  6  0  0  0
  9  7  1  0  0  0  0
 10 21  1  1  0  0  0
 10 22  1  0  0  0  0
 11 28  1  0  0  0  0
 12  8  1  0  0  0  0
 13  2  2  0  0  0  0
 14 23  1  0  0  0  0
 17 26  1  0  0  0  0
 17 20  1  0  0  0  0
 18 13  1  0  0  0  0
 19  2  1  0  0  0  0
 22 20  1  1  0  0  0
 22  9  1  0  0  0  0
 23 15  1  0  0  0  0
 25 18  2  0  0  0  0
 25 26  1  0  0  0  0
 26 19  2  0  0  0  0
 27 24  1  6  0  0  0
 27 12  1  0  0  0  0
 28 30  1  0  0  0  0
 29 30  1  0  0  0  0
M  END
>  <MODEL>
6

>  <REMARK>
 VINA RESULT:      -7.4      2.500      4.988
  Name = 
  2 active torsions:
  status: ('A' for Active; 'I' for Inactive)
    1  A    between atoms: C_11  and  O_28
    2  A    between atoms: O_28  and  C_30
                            x       y       z     vdW  Elec       q    Type
                         _______ _______ _______ _____ _____    ______ ____

>  <TORSDO>
F 2

$$$$
=
 OpenBabel11112416193D

 30 35  0  0  1  0  0  0  0  0999 V2000
  188.5240  176.6700  145.5520 C   0  0  2  0  0  3  0  0  0  0  0  0
  186.4790  177.9620  146.0460 C   0  0  0  0  0  0  0  0  0  0  0  0
  187.2480  176.0230  141.6050 N   0  0  0  0  0  0  0  0  0  0  0  0
  189.2890  175.7000  144.6510 C   0  0  2  0  0  3  0  0  0  0  0  0
  189.0860  176.9390  146.8450 N   0  0  0  0  0  0  0  0  0  0  0  0
  192.4840  176.1090  146.3630 O   0  0  0  0  0  0  0  0  0  0  0  0
  191.2870  173.9960  143.2730 C   0  0  1  0  0  3  0  0  0  0  0  0
  191.2540  176.2160  146.1080 C   0  0  0  0  0  0  0  0  0  0  0  0
  190.1780  173.9390  142.2120 C   0  0  2  0  0  3  0  0  0  0  0  0
  188.2230  175.2700  141.1960 C   0  0  2  0  0  3  0  0  0  0  0  0
  190.3350  176.7220  147.1370 C   0  0  0  0  0  0  0  0  0  0  0  0
  190.7400  175.8620  144.8150 N   0  0  0  0  0  0  0  0  0  0  0  0
  185.2470  178.4470  145.6000 C   0  0  0  0  0  3  0  0  0  0  0  0
  190.9040  173.7270  140.9000 C   0  0  0  0  0  2  0  0  0  0  0  0
  192.5040  173.3200  142.6640 C   0  0  0  0  0  2  0  0  0  0  0  0
  186.8280  178.3230  147.7350 Cl  0  0  0  0  0  0  0  0  0  0  0  0
  187.6290  176.3960  142.9260 C   0  0  0  0  0  0  0  0  0  0  0  0
  184.8120  178.2240  144.3000 C   0  0  0  0  0  3  0  0  0  0  0  0
  187.3190  177.2070  145.1660 C   0  0  0  0  0  0  0  0  0  0  0  0
  188.8900  175.8750  143.2610 N   0  0  0  0  0  0  0  0  0  0  0  0
  188.1910  174.6130  139.8580 C   0  0  0  0  0  1  0  0  0  0  0  0
  189.2810  175.1050  142.1580 N   0  0  1  0  0  0  0  0  0  0  0  0
  192.1200  172.9050  141.2560 C   0  0  0  0  0  2  0  0  0  0  0  0
  191.9250  176.4330  142.7230 C   0  0  0  0  0  1  0  0  0  0  0  0
  185.6160  177.5180  143.4170 C   0  0  0  0  0  3  0  0  0  0  0  0
  186.8600  177.0220  143.8210 C   0  0  0  0  0  0  0  0  0  0  0  0
  191.6760  175.3840  143.8000 C   0  0  2  0  0  3  0  0  0  0  0  0
  190.8230  176.9900  148.4190 O   0  0  0  0  0  0  0  0  0  0  0  0
  191.5640  178.2840  150.2950 C   0  0  0  0  0  1  0  0  0  0  0  0
  190.8430  178.3020  148.9640 C   0  0  0  0  0  2  0  0  0  0  0  0
  1 19  1  1  0  0  0
  1  5  1  0  0  0  0
  2 16  1  0  0  0  0
  3 17  2  0  0  0  0
  4 20  1  6  0  0  0
  4 12  1  0  0  0  0
  4  1  1  0  0  0  0
  5 11  2  0  0  0  0
  7 15  1  6  0  0  0
  7 27  1  0  0  0  0
  8  6  2  0  0  0  0
  8 11  1  0  0  0  0
  9 14  1  6  0  0  0
  9  7  1  0  0  0  0
 10 21  1  1  0  0  0
 10  3  1  0  0  0  0
 10 22  1  0  0  0  0
 11 28  1  0  0  0  0
 12  8  1  0  0  0  0
 13  2  1  0  0  0  0
 14 23  1  0  0  0  0
 17 20  1  0  0  0  0
 17 26  1  0  0  0  0
 18 13  2  0  0  0  0
 19  2  2  0  0  0  0
 22  9  1  0  0  0  0
 22 20  1  1  0  0  0
 23 15  1  0  0  0  0
 25 26  2  0  0  0  0
 25 18  1  0  0  0  0
 26 19  1  0  0  0  0
 27 24  1  6  0  0  0
 27 12  1  0  0  0  0
 28 30  1  0  0  0  0
 30 29  1  0  0  0  0
M  END
>  <MODEL>
7

>  <REMARK>
 VINA RESULT:      -7.4      2.849      5.339
  Name = 
  2 active torsions:
  status: ('A' for Active; 'I' for Inactive)
    1  A    between atoms: C_11  and  O_28
    2  A    between atoms: O_28  and  C_30
                            x       y       z     vdW  Elec       q    Type
                         _______ _______ _______ _____ _____    ______ ____

>  <TORSDO>
F 2

$$$$
=
 OpenBabel11112416193D

 30 35  0  0  1  0  0  0  0  0999 V2000
  189.7460  175.2350  143.4320 C   0  0  2  0  0  3  0  0  0  0  0  0
  190.8940  173.6250  141.9540 C   0  0  0  0  0  0  0  0  0  0  0  0
  187.0150  176.1890  140.3900 N   0  0  0  0  0  0  0  0  0  0  0  0
  188.7780  176.4050  143.6130 C   0  0  2  0  0  3  0  0  0  0  0  0
  190.5640  174.8870  144.5580 N   0  0  0  0  0  0  0  0  0  0  0  0
  188.7200  176.2250  147.2560 O   0  0  0  0  0  0  0  0  0  0  0  0
  186.9540  178.5240  144.6020 C   0  0  1  0  0  3  0  0  0  0  0  0
  189.0480  175.9840  146.0630 C   0  0  0  0  0  0  0  0  0  0  0  0
  186.5530  178.5610  143.1200 C   0  0  2  0  0  3  0  0  0  0  0  0
  186.3400  177.1140  141.0020 C   0  0  2  0  0  3  0  0  0  0  0  0
  190.2790  175.2330  145.7790 C   0  0  0  0  0  0  0  0  0  0  0  0
  188.2220  176.4230  144.9730 N   0  0  0  0  0  0  0  0  0  0  0  0
  190.9910  173.0360  140.6910 C   0  0  0  0  0  3  0  0  0  0  0  0
  185.1130  179.0320  143.1170 C   0  0  0  0  0  2  0  0  0  0  0  0
  185.9800  179.4300  145.3370 C   0  0  0  0  0  2  0  0  0  0  0  0
  192.1390  173.1070  143.0890 Cl  0  0  0  0  0  0  0  0  0  0  0  0
  187.9230  175.7100  141.3770 C   0  0  0  0  0  0  0  0  0  0  0  0
  190.1000  173.3590  139.6750 C   0  0  0  0  0  3  0  0  0  0  0  0
  189.8720  174.5910  142.2240 C   0  0  0  0  0  0  0  0  0  0  0  0
  187.7230  176.3510  142.6110 N   0  0  0  0  0  0  0  0  0  0  0  0
  185.3060  177.9210  140.2960 C   0  0  0  0  0  1  0  0  0  0  0  0
  186.7170  177.2990  142.3790 N   0  0  1  0  0  0  0  0  0  0  0  0
  185.0050  179.9610  144.3030 C   0  0  0  0  0  2  0  0  0  0  0  0
  185.7560  176.2840  145.0470 C   0  0  0  0  0  1  0  0  0  0  0  0
  189.0830  174.2720  139.9150 C   0  0  0  0  0  3  0  0  0  0  0  0
  188.9470  174.8780  141.1680 C   0  0  0  0  0  0  0  0  0  0  0  0
  186.9900  177.1470  145.2800 C   0  0  2  0  0  3  0  0  0  0  0  0
  191.1220  174.8760  146.8360 O   0  0  0  0  0  0  0  0  0  0  0  0
  192.9970  176.3660  146.7570 C   0  0  0  0  0  1  0  0  0  0  0  0
  192.5370  174.9230  146.7260 C   0  0  0  0  0  2  0  0  0  0  0  0
  1 19  1  6  0  0  0
  1  4  1  0  0  0  0
  1  5  1  0  0  0  0
  2 19  1  0  0  0  0
  2 16  1  0  0  0  0
  3 10  1  0  0  0  0
  3 17  2  0  0  0  0
  4 20  1  6  0  0  0
  4 12  1  0  0  0  0
  5 11  2  0  0  0  0
  7 27  1  0  0  0  0
  7 15  1  1  0  0  0
  8  6  2  0  0  0  0
  9 14  1  1  0  0  0
  9  7  1  0  0  0  0
 10 21  1  6  0  0  0
 10 22  1  0  0  0  0
 11  8  1  0  0  0  0
 11 28  1  0  0  0  0
 12 27  1  0  0  0  0
 12  8  1  0  0  0  0
 13  2  2  0  0  0  0
 14 23  1  0  0  0  0
 17 20  1  0  0  0  0
 18 25  2  0  0  0  0
 18 13  1  0  0  0  0
 22 20  1  6  0  0  0
 22  9  1  0  0  0  0
 23 15  1  0  0  0  0
 25 26  1  0  0  0  0
 26 17  1  0  0  0  0
 26 19  2  0  0  0  0
 27 24  1  6  0  0  0
 30 29  1  0  0  0  0
 30 28  1  0  0  0  0
M  END
>  <MODEL>
8

>  <REMARK>
 VINA RESULT:      -7.3      3.055      7.282
  Name = 
  2 active torsions:
  status: ('A' for Active; 'I' for Inactive)
    1  A    between atoms: C_11  and  O_28
    2  A    between atoms: O_28  and  C_30
                            x       y       z     vdW  Elec       q    Type
                         _______ _______ _______ _____ _____    ______ ____

>  <TORSDO>
F 2

$$$$
=
 OpenBabel11112416193D

 30 35  0  0  1  0  0  0  0  0999 V2000
  187.6610  175.7910  140.7720 C   0  0  2  0  0  3  0  0  0  0  0  0
  187.8750  174.9140  138.4750 C   0  0  0  0  0  0  0  0  0  0  0  0
  190.7450  173.2700  142.0980 N   0  0  0  0  0  0  0  0  0  0  0  0
  187.9580  175.6670  142.2670 C   0  0  2  0  0  3  0  0  0  0  0  0
  186.6810  176.7630  140.3820 N   0  0  0  0  0  0  0  0  0  0  0  0
  186.6960  178.9790  143.1320 O   0  0  0  0  0  0  0  0  0  0  0  0
  188.3030  176.0410  145.1890 C   0  0  1  0  0  3  0  0  0  0  0  0
  186.9650  177.9550  142.4470 C   0  0  0  0  0  0  0  0  0  0  0  0
  189.1870  174.7970  145.0190 C   0  0  2  0  0  3  0  0  0  0  0  0
  190.7260  173.5680  143.3610 C   0  0  2  0  0  3  0  0  0  0  0  0
  186.3240  177.7590  141.1390 C   0  0  0  0  0  0  0  0  0  0  0  0
  187.9030  176.9790  142.9270 N   0  0  0  0  0  0  0  0  0  0  0  0
  188.4980  174.0200  137.6000 C   0  0  0  0  0  3  0  0  0  0  0  0
  190.2190  174.8980  146.1240 C   0  0  0  0  0  2  0  0  0  0  0  0
  188.4960  176.5170  146.6200 C   0  0  0  0  0  2  0  0  0  0  0  0
  186.5960  175.8740  137.7340 Cl  0  0  0  0  0  0  0  0  0  0  0  0
  189.7910  174.1540  141.5170 C   0  0  0  0  0  0  0  0  0  0  0  0
  189.5090  173.1730  138.0360 C   0  0  0  0  0  3  0  0  0  0  0  0
  188.2600  174.9640  139.8530 C   0  0  0  0  0  0  0  0  0  0  0  0
  189.2460  175.0210  142.4780 N   0  0  0  0  0  0  0  0  0  0  0  0
  191.5530  172.8230  144.3510 C   0  0  0  0  0  1  0  0  0  0  0  0
  189.8160  174.6320  143.6980 N   0  0  1  0  0  0  0  0  0  0  0  0
  189.5040  175.5840  147.2630 C   0  0  0  0  0  2  0  0  0  0  0  0
  190.0050  177.6160  144.0600 C   0  0  0  0  0  1  0  0  0  0  0  0
  189.9220  173.2170  139.3600 C   0  0  0  0  0  3  0  0  0  0  0  0
  189.3290  174.1030  140.2650 C   0  0  0  0  0  0  0  0  0  0  0  0
  188.5450  177.2060  144.2200 C   0  0  2  0  0  3  0  0  0  0  0  0
  185.3520  178.6670  140.7100 O   0  0  0  0  0  0  0  0  0  0  0  0
  183.2750  178.2910  141.8440 C   0  0  0  0  0  1  0  0  0  0  0  0
  183.9970  178.2910  140.5130 C   0  0  0  0  0  2  0  0  0  0  0  0
  1 19  1  1  0  0  0
  1  4  1  0  0  0  0
  2 19  1  0  0  0  0
  3 10  1  0  0  0  0
  4 20  1  6  0  0  0
  4 12  1  0  0  0  0
  5  1  1  0  0  0  0
  5 11  2  0  0  0  0
  7 15  1  1  0  0  0
  8 12  1  0  0  0  0
  8  6  2  0  0  0  0
  9  7  1  0  0  0  0
  9 14  1  1  0  0  0
 10 22  1  0  0  0  0
 10 21  1  1  0  0  0
 11  8  1  0  0  0  0
 12 27  1  0  0  0  0
 13 18  1  0  0  0  0
 13  2  2  0  0  0  0
 14 23  1  0  0  0  0
 15 23  1  0  0  0  0
 16  2  1  0  0  0  0
 17  3  2  0  0  0  0
 17 20  1  0  0  0  0
 18 25  2  0  0  0  0
 19 26  2  0  0  0  0
 22 20  1  6  0  0  0
 22  9  1  0  0  0  0
 25 26  1  0  0  0  0
 26 17  1  0  0  0  0
 27 24  1  6  0  0  0
 27  7  1  0  0  0  0
 28 11  1  0  0  0  0
 30 28  1  0  0  0  0
 30 29  1  0  0  0  0
M  END
>  <MODEL>
9

>  <REMARK>
 VINA RESULT:      -7.3      2.592      5.272
  Name = 
  2 active torsions:
  status: ('A' for Active; 'I' for Inactive)
    1  A    between atoms: C_11  and  O_28
    2  A    between atoms: O_28  and  C_30
                            x       y       z     vdW  Elec       q    Type
                         _______ _______ _______ _____ _____    ______ ____

>  <TORSDO>
F 2

$$$$
