=
 OpenBabel11112417043D

 31 35  0  0  1  0  0  0  0  0999 V2000
  187.4730  177.1090  140.8890 C   0  0  0  0  0  0  0  0  0  0  0  0
  188.6400  177.6720  144.4240 C   0  0  2  0  0  3  0  0  0  0  0  0
  187.4890  177.8110  145.4030 C   0  0  0  0  0  0  0  0  0  0  0  0
  185.1650  178.4020  145.8240 C   0  0  0  0  0  0  0  0  0  0  0  0
  188.2350  176.9890  143.1480 C   0  0  0  0  0  0  0  0  0  0  0  0
  187.5380  175.6540  140.7290 C   0  0  0  0  0  3  0  0  0  0  0  0
  186.2210  178.1920  144.9340 C   0  0  0  0  0  3  0  0  0  0  0  0
  189.7680  175.4560  145.0650 C   0  0  2  0  0  3  0  0  0  0  0  0
  187.0920  177.8330  139.9330 O   0  0  0  0  0  0  0  0  0  0  0  0
  189.0220  177.2850  147.3700 C   0  0  0  0  0  2  0  0  0  0  0  0
  183.8270  178.7900  145.3090 C   0  0  0  0  0  1  0  0  0  0  0  0
  189.4770  174.9030  143.6700 C   0  0  0  0  0  2  0  0  0  0  0  0
  189.8880  176.9920  145.0280 C   0  0  2  0  0  3  0  0  0  0  0  0
  187.8750  177.7050  142.1250 N   0  0  0  0  0  0  0  0  0  0  0  0
  185.3700  178.2520  147.1970 C   0  0  0  0  0  3  0  0  0  0  0  0
  188.1740  175.4750  143.1280 C   0  0  2  0  0  3  0  0  0  0  0  0
  187.8870  174.8950  141.7670 C   0  0  0  0  0  3  0  0  0  0  0  0
  190.1750  177.5720  146.4130 C   0  0  0  0  0  2  0  0  0  0  0  0
  187.6980  177.6990  146.7980 C   0  0  0  0  0  0  0  0  0  0  0  0
  186.6320  177.9010  147.6810 C   0  0  0  0  0  3  0  0  0  0  0  0
  192.3560  175.8390  143.9350 O   0  0  0  0  0  0  0  0  0  0  0  0
  192.2700  175.1060  144.9570 C   0  0  0  0  0  0  0  0  0  0  0  0
  191.0020  174.8700  145.5700 N   0  0  0  0  0  2  0  0  0  0  0  0
  195.8570  175.5830  144.4820 C   0  0  1  0  0  3  0  0  0  0  0  0
  194.2840  175.3810  146.3160 O   0  0  0  0  0  0  0  0  0  0  0  0
  193.5260  172.7550  143.8600 C   0  0  0  0  0  1  0  0  0  0  0  0
  196.4150  176.5080  143.6010 O   0  0  0  0  0  1  0  0  0  0  0  0
  194.9190  176.2970  145.4480 C   0  0  0  0  0  2  0  0  0  0  0  0
  194.3430  173.6840  144.6310 N   0  0  0  0  0  0  0  0  0  0  0  0
  193.5050  174.4720  145.5590 C   0  0  2  0  0  3  0  0  0  0  0  0
  195.0410  174.5650  143.7000 C   0  0  0  0  0  2  0  0  0  0  0  0
  1 14  1  0  0  0  0
  2  5  1  6  0  0  0
  2 13  1  0  0  0  0
  2  3  1  0  0  0  0
  3 19  1  0  0  0  0
  4 15  2  0  0  0  0
  6  1  1  0  0  0  0
  6 17  2  0  0  0  0
  7  3  2  0  0  0  0
  7  4  1  0  0  0  0
  8 23  1  6  0  0  0
  9  1  2  0  0  0  0
 11  4  1  0  0  0  0
 12  8  1  0  0  0  0
 13  8  1  0  0  0  0
 13 18  1  1  0  0  0
 14  5  2  0  0  0  0
 15 20  1  0  0  0  0
 16 17  1  6  0  0  0
 16  5  1  0  0  0  0
 16 12  1  0  0  0  0
 18 10  1  0  0  0  0
 19 10  1  0  0  0  0
 19 20  2  0  0  0  0
 21 22  2  0  0  0  0
 22 23  1  0  0  0  0
 24 27  1  6  0  0  0
 24 28  1  0  0  0  0
 26 29  1  0  0  0  0
 28 25  1  0  0  0  0
 29 30  1  0  0  0  0
 30 22  1  6  0  0  0
 30 25  1  0  0  0  0
 31 24  1  0  0  0  0
 31 29  1  0  0  0  0
M  END
>  <MODEL>
1

>  <REMARK>
 VINA RESULT:      -8.8      0.000      0.000
  Name = 
  2 active torsions:
  status: ('A' for Active; 'I' for Inactive)
    1  A    between atoms: C_5  and  C_30
    2  A    between atoms: C_10  and  N_16
                            x       y       z     vdW  Elec       q    Type
                         _______ _______ _______ _____ _____    ______ ____

>  <TORSDO>
F 2

$$$$
=
 OpenBabel11112417043D

 31 35  0  0  1  0  0  0  0  0999 V2000
  191.6530  172.6780  141.9420 C   0  0  0  0  0  0  0  0  0  0  0  0
  191.6890  174.2520  145.3610 C   0  0  2  0  0  3  0  0  0  0  0  0
  192.7690  175.3090  145.5060 C   0  0  0  0  0  0  0  0  0  0  0  0
  194.9270  176.1980  144.8140 C   0  0  0  0  0  0  0  0  0  0  0  0
  191.3460  173.9690  143.9260 C   0  0  0  0  0  0  0  0  0  0  0  0
  190.6160  173.4260  141.2260 C   0  0  0  0  0  3  0  0  0  0  0  0
  193.8830  175.2840  144.6510 C   0  0  0  0  0  3  0  0  0  0  0  0
  189.4840  175.5650  145.4620 C   0  0  2  0  0  3  0  0  0  0  0  0
  192.2730  171.7480  141.3650 O   0  0  0  0  0  0  0  0  0  0  0  0
  191.5840  176.3290  147.5180 C   0  0  0  0  0  2  0  0  0  0  0  0
  196.0900  176.1670  143.8900 C   0  0  0  0  0  1  0  0  0  0  0  0
  189.1260  175.0740  144.0600 C   0  0  0  0  0  2  0  0  0  0  0  0
  190.4110  174.5580  146.1720 C   0  0  2  0  0  3  0  0  0  0  0  0
  191.9350  172.9880  143.3080 N   0  0  0  0  0  0  0  0  0  0  0  0
  194.8780  177.1360  145.8460 C   0  0  0  0  0  3  0  0  0  0  0  0
  190.3820  174.8990  143.2170 C   0  0  2  0  0  3  0  0  0  0  0  0
  190.0090  174.4460  141.8300 C   0  0  0  0  0  3  0  0  0  0  0  0
  190.7880  175.0280  147.5770 C   0  0  0  0  0  2  0  0  0  0  0  0
  192.7450  176.2370  146.5730 C   0  0  0  0  0  0  0  0  0  0  0  0
  193.7910  177.1550  146.7220 C   0  0  0  0  0  3  0  0  0  0  0  0
  187.9910  177.9880  145.6230 O   0  0  0  0  0  0  0  0  0  0  0  0
  187.5600  176.9950  146.2700 C   0  0  0  0  0  0  0  0  0  0  0  0
  188.2640  175.7530  146.2360 N   0  0  0  0  0  2  0  0  0  0  0  0
  184.4010  178.7700  145.8390 C   0  0  1  0  0  3  0  0  0  0  0  0
  185.1620  176.5450  146.4290 O   0  0  0  0  0  0  0  0  0  0  0  0
  187.1610  178.9800  148.3210 C   0  0  0  0  0  1  0  0  0  0  0  0
  184.1010  179.5820  144.7470 O   0  0  0  0  0  1  0  0  0  0  0  0
  184.7890  177.3790  145.3520 C   0  0  0  0  0  2  0  0  0  0  0  0
  185.9910  178.4280  147.6510 N   0  0  0  0  0  0  0  0  0  0  0  0
  186.2900  177.0950  147.0860 C   0  0  2  0  0  3  0  0  0  0  0  0
  185.5870  179.3510  146.5930 C   0  0  0  0  0  2  0  0  0  0  0  0
  1 14  1  0  0  0  0
  2  5  1  6  0  0  0
  2  3  1  0  0  0  0
  2 13  1  0  0  0  0
  3 19  1  0  0  0  0
  4 15  2  0  0  0  0
  6 17  2  0  0  0  0
  6  1  1  0  0  0  0
  7  4  1  0  0  0  0
  7  3  2  0  0  0  0
  8 13  1  0  0  0  0
  8 23  1  1  0  0  0
  9  1  2  0  0  0  0
 10 18  1  0  0  0  0
 11  4  1  0  0  0  0
 12  8  1  0  0  0  0
 13 18  1  1  0  0  0
 14  5  2  0  0  0  0
 15 20  1  0  0  0  0
 16 17  1  6  0  0  0
 16  5  1  0  0  0  0
 16 12  1  0  0  0  0
 19 20  2  0  0  0  0
 19 10  1  0  0  0  0
 21 22  2  0  0  0  0
 23 22  1  0  0  0  0
 24 27  1  6  0  0  0
 24 31  1  0  0  0  0
 25 30  1  0  0  0  0
 28 24  1  0  0  0  0
 28 25  1  0  0  0  0
 29 26  1  0  0  0  0
 30 22  1  6  0  0  0
 30 29  1  0  0  0  0
 31 29  1  0  0  0  0
M  END
>  <MODEL>
2

>  <REMARK>
 VINA RESULT:      -8.7      2.858      7.424
  Name = 
  2 active torsions:
  status: ('A' for Active; 'I' for Inactive)
    1  A    between atoms: C_5  and  C_30
    2  A    between atoms: C_10  and  N_16
                            x       y       z     vdW  Elec       q    Type
                         _______ _______ _______ _____ _____    ______ ____

>  <TORSDO>
F 2

$$$$
=
 OpenBabel11112417043D

 31 35  0  0  1  0  0  0  0  0999 V2000
  193.9920  177.0260  145.3940 C   0  0  0  0  0  0  0  0  0  0  0  0
  190.7880  176.9080  143.4210 C   0  0  2  0  0  3  0  0  0  0  0  0
  190.6650  175.6490  142.5830 C   0  0  0  0  0  0  0  0  0  0  0  0
  191.7410  173.8170  141.3950 C   0  0  0  0  0  0  0  0  0  0  0  0
  191.7780  176.7620  144.5420 C   0  0  0  0  0  0  0  0  0  0  0  0
  193.6050  176.5280  146.7160 C   0  0  0  0  0  3  0  0  0  0  0  0
  191.8210  174.9350  142.2290 C   0  0  0  0  0  3  0  0  0  0  0  0
  188.9650  176.6720  145.2130 C   0  0  2  0  0  3  0  0  0  0  0  0
  195.1820  177.3710  145.1730 O   0  0  0  0  0  0  0  0  0  0  0  0
  188.1440  175.9620  142.3780 C   0  0  0  0  0  2  0  0  0  0  0  0
  192.9730  173.0640  141.0430 C   0  0  0  0  0  1  0  0  0  0  0  0
  190.0320  176.7190  146.3070 C   0  0  0  0  0  2  0  0  0  0  0  0
  189.4380  177.4300  143.9570 C   0  0  2  0  0  3  0  0  0  0  0  0
  193.0070  177.1470  144.3650 N   0  0  0  0  0  0  0  0  0  0  0  0
  190.5050  173.4110  140.8890 C   0  0  0  0  0  3  0  0  0  0  0  0
  191.3260  176.0840  145.8200 C   0  0  2  0  0  3  0  0  0  0  0  0
  192.3560  176.1110  146.9200 C   0  0  0  0  0  3  0  0  0  0  0  0
  188.3890  177.3940  142.8450 C   0  0  0  0  0  2  0  0  0  0  0  0
  189.4220  175.2540  142.0350 C   0  0  0  0  0  0  0  0  0  0  0  0
  189.3500  174.1270  141.2090 C   0  0  0  0  0  3  0  0  0  0  0  0
  187.4300  175.6650  147.3940 O   0  0  0  0  0  0  0  0  0  0  0  0
  187.0100  176.7050  146.8180 C   0  0  0  0  0  0  0  0  0  0  0  0
  187.7300  177.2590  145.7160 N   0  0  0  0  0  2  0  0  0  0  0  0
  184.8110  179.2340  145.3730 C   0  0  1  0  0  3  0  0  0  0  0  0
  184.6180  177.0870  146.4830 O   0  0  0  0  0  0  0  0  0  0  0  0
  187.0180  179.1390  148.3620 C   0  0  0  0  0  1  0  0  0  0  0  0
  185.0040  179.8180  144.1220 O   0  0  0  0  0  1  0  0  0  0  0  0
  184.7490  177.7180  145.2260 C   0  0  0  0  0  2  0  0  0  0  0  0
  185.8550  178.8440  147.5370 N   0  0  0  0  0  0  0  0  0  0  0  0
  185.7450  177.3910  147.2860 C   0  0  2  0  0  3  0  0  0  0  0  0
  185.9870  179.5710  146.2770 C   0  0  0  0  0  2  0  0  0  0  0  0
  1  6  1  0  0  0  0
  2  3  1  1  0  0  0
  2 13  1  0  0  0  0
  2  5  1  0  0  0  0
  4  7  2  0  0  0  0
  5 16  1  0  0  0  0
  6 17  2  0  0  0  0
  7  3  1  0  0  0  0
  8 23  1  1  0  0  0
  8 12  1  0  0  0  0
  9  1  2  0  0  0  0
 10 18  1  0  0  0  0
 11  4  1  0  0  0  0
 13 18  1  6  0  0  0
 13  8  1  0  0  0  0
 14  5  2  0  0  0  0
 14  1  1  0  0  0  0
 15 20  2  0  0  0  0
 15  4  1  0  0  0  0
 16 12  1  1  0  0  0
 16 17  1  0  0  0  0
 19 10  1  0  0  0  0
 19  3  2  0  0  0  0
 20 19  1  0  0  0  0
 22 21  2  0  0  0  0
 23 22  1  0  0  0  0
 24 27  1  6  0  0  0
 24 31  1  0  0  0  0
 25 30  1  0  0  0  0
 28 24  1  0  0  0  0
 28 25  1  0  0  0  0
 29 26  1  0  0  0  0
 30 22  1  6  0  0  0
 30 29  1  0  0  0  0
 31 29  1  0  0  0  0
M  END
>  <MODEL>
3

>  <REMARK>
 VINA RESULT:      -8.4      2.846      7.708
  Name = 
  2 active torsions:
  status: ('A' for Active; 'I' for Inactive)
    1  A    between atoms: C_5  and  C_30
    2  A    between atoms: C_10  and  N_16
                            x       y       z     vdW  Elec       q    Type
                         _______ _______ _______ _____ _____    ______ ____

>  <TORSDO>
F 2

$$$$
=
 OpenBabel11112417043D

 31 35  0  0  1  0  0  0  0  0999 V2000
  188.1970  174.4500  139.8780 C   0  0  0  0  0  0  0  0  0  0  0  0
  188.9460  176.5810  142.8900 C   0  0  2  0  0  3  0  0  0  0  0  0
  187.6920  177.1420  143.5350 C   0  0  0  0  0  0  0  0  0  0  0  0
  185.3680  177.8370  143.3260 C   0  0  0  0  0  0  0  0  0  0  0  0
  188.6660  175.3860  142.0240 C   0  0  0  0  0  0  0  0  0  0  0  0
  188.2040  173.0840  140.4090 C   0  0  0  0  0  3  0  0  0  0  0  0
  186.5130  177.2530  142.7790 C   0  0  0  0  0  3  0  0  0  0  0  0
  189.8680  174.9160  144.6140 C   0  0  2  0  0  3  0  0  0  0  0  0
  187.9760  174.6520  138.6570 O   0  0  0  0  0  0  0  0  0  0  0  0
  188.9400  177.5900  145.7110 C   0  0  0  0  0  2  0  0  0  0  0  0
  184.1260  177.9320  142.5170 C   0  0  0  0  0  1  0  0  0  0  0  0
  189.7230  173.7820  143.5990 C   0  0  0  0  0  2  0  0  0  0  0  0
  190.0720  176.2650  143.8980 C   0  0  2  0  0  3  0  0  0  0  0  0
  188.4740  175.5500  140.7490 N   0  0  0  0  0  0  0  0  0  0  0  0
  185.3930  178.3340  144.6300 C   0  0  0  0  0  3  0  0  0  0  0  0
  188.5290  174.0300  142.6870 C   0  0  2  0  0  3  0  0  0  0  0  0
  188.3820  172.8890  141.7140 C   0  0  0  0  0  3  0  0  0  0  0  0
  190.2160  177.4180  144.8930 C   0  0  0  0  0  2  0  0  0  0  0  0
  187.7210  177.6830  144.8420 C   0  0  0  0  0  0  0  0  0  0  0  0
  186.5650  178.2560  145.3840 C   0  0  0  0  0  3  0  0  0  0  0  0
  192.5980  174.8190  143.8010 O   0  0  0  0  0  0  0  0  0  0  0  0
  192.3460  174.6090  145.0190 C   0  0  0  0  0  0  0  0  0  0  0  0
  190.9980  174.6390  145.4900 N   0  0  0  0  0  2  0  0  0  0  0  0
  195.9680  175.0400  144.9370 C   0  0  1  0  0  3  0  0  0  0  0  0
  194.1230  175.5050  146.4390 O   0  0  0  0  0  0  0  0  0  0  0  0
  193.7270  172.0830  145.1590 C   0  0  0  0  0  1  0  0  0  0  0  0
  196.6710  175.5650  143.8540 O   0  0  0  0  0  1  0  0  0  0  0  0
  194.8990  176.0310  145.3820 C   0  0  0  0  0  2  0  0  0  0  0  0
  194.4240  173.2820  145.6060 N   0  0  0  0  0  0  0  0  0  0  0  0
  193.4610  174.3310  146.0030 C   0  0  2  0  0  3  0  0  0  0  0  0
  195.2730  173.7550  144.5160 C   0  0  0  0  0  2  0  0  0  0  0  0
  1  6  1  0  0  0  0
  1 14  1  0  0  0  0
  2  5  1  1  0  0  0
  2  3  1  0  0  0  0
  2 13  1  0  0  0  0
  3 19  1  0  0  0  0
  4 15  2  0  0  0  0
  5 16  1  0  0  0  0
  6 17  2  0  0  0  0
  7  4  1  0  0  0  0
  7  3  2  0  0  0  0
  8 23  1  1  0  0  0
  9  1  2  0  0  0  0
 11  4  1  0  0  0  0
 12  8  1  0  0  0  0
 13  8  1  0  0  0  0
 13 18  1  1  0  0  0
 14  5  2  0  0  0  0
 15 20  1  0  0  0  0
 16 17  1  6  0  0  0
 16 12  1  0  0  0  0
 18 10  1  0  0  0  0
 19 20  2  0  0  0  0
 19 10  1  0  0  0  0
 21 22  2  0  0  0  0
 22 23  1  0  0  0  0
 24 27  1  6  0  0  0
 24 28  1  0  0  0  0
 26 29  1  0  0  0  0
 28 25  1  0  0  0  0
 29 30  1  0  0  0  0
 30 22  1  6  0  0  0
 30 25  1  0  0  0  0
 31 24  1  0  0  0  0
 31 29  1  0  0  0  0
M  END
>  <MODEL>
4

>  <REMARK>
 VINA RESULT:      -8.3      1.460      1.858
  Name = 
  2 active torsions:
  status: ('A' for Active; 'I' for Inactive)
    1  A    between atoms: C_5  and  C_30
    2  A    between atoms: C_10  and  N_16
                            x       y       z     vdW  Elec       q    Type
                         _______ _______ _______ _____ _____    ______ ____

>  <TORSDO>
F 2

$$$$
=
 OpenBabel11112417043D

 31 35  0  0  1  0  0  0  0  0999 V2000
  187.3160  177.1070  140.4340 C   0  0  0  0  0  0  0  0  0  0  0  0
  189.2130  177.5040  143.6610 C   0  0  2  0  0  3  0  0  0  0  0  0
  188.3160  177.4100  144.8820 C   0  0  0  0  0  0  0  0  0  0  0  0
  186.1070  177.6640  145.8740 C   0  0  0  0  0  0  0  0  0  0  0  0
  188.5930  176.8880  142.4390 C   0  0  0  0  0  0  0  0  0  0  0  0
  187.4910  175.6910  140.1000 C   0  0  0  0  0  3  0  0  0  0  0  0
  186.9410  177.6670  144.7530 C   0  0  0  0  0  3  0  0  0  0  0  0
  190.6830  175.4010  143.7790 C   0  0  2  0  0  3  0  0  0  0  0  0
  186.6490  177.8570  139.6760 O   0  0  0  0  0  0  0  0  0  0  0  0
  190.3120  176.9140  146.3860 C   0  0  0  0  0  2  0  0  0  0  0  0
  184.6530  177.9220  145.7170 C   0  0  0  0  0  1  0  0  0  0  0  0
  190.1310  174.9390  142.4300 C   0  0  0  0  0  2  0  0  0  0  0  0
  190.6310  176.9370  143.8910 C   0  0  2  0  0  3  0  0  0  0  0  0
  187.9320  177.6390  141.6090 N   0  0  0  0  0  0  0  0  0  0  0  0
  186.6420  177.4220  147.1400 C   0  0  0  0  0  3  0  0  0  0  0  0
  188.6870  175.3860  142.2610 C   0  0  2  0  0  3  0  0  0  0  0  0
  188.1500  174.8960  140.9410 C   0  0  0  0  0  3  0  0  0  0  0  0
  191.1740  177.4260  145.2350 C   0  0  0  0  0  2  0  0  0  0  0  0
  188.8560  177.2050  146.1730 C   0  0  0  0  0  0  0  0  0  0  0  0
  188.0110  177.1930  147.2880 C   0  0  0  0  0  3  0  0  0  0  0  0
  191.4550  172.8380  144.7600 O   0  0  0  0  0  0  0  0  0  0  0  0
  192.3740  173.6330  144.4220 C   0  0  0  0  0  0  0  0  0  0  0  0
  192.0540  174.9340  143.9270 N   0  0  0  0  0  2  0  0  0  0  0  0
  195.5360  175.4510  144.2970 C   0  0  1  0  0  3  0  0  0  0  0  0
  194.4740  173.7570  145.6690 O   0  0  0  0  0  0  0  0  0  0  0  0
  193.9590  172.8660  142.1410 C   0  0  0  0  0  1  0  0  0  0  0  0
  195.6410  176.8300  144.1290 O   0  0  0  0  0  1  0  0  0  0  0  0
  194.6560  175.1480  145.5040 C   0  0  0  0  0  2  0  0  0  0  0  0
  194.6390  173.4170  143.3060 N   0  0  0  0  0  0  0  0  0  0  0  0
  193.8270  173.2250  144.5260 C   0  0  2  0  0  3  0  0  0  0  0  0
  194.8780  174.8380  143.0710 C   0  0  0  0  0  2  0  0  0  0  0  0
  1 14  1  0  0  0  0
  2  5  1  6  0  0  0
  2 13  1  0  0  0  0
  2  3  1  0  0  0  0
  3 19  1  0  0  0  0
  4 15  2  0  0  0  0
  6  1  1  0  0  0  0
  6 17  2  0  0  0  0
  7  3  2  0  0  0  0
  7  4  1  0  0  0  0
  8 13  1  0  0  0  0
  8 23  1  6  0  0  0
  9  1  2  0  0  0  0
 11  4  1  0  0  0  0
 12  8  1  0  0  0  0
 13 18  1  1  0  0  0
 14  5  2  0  0  0  0
 15 20  1  0  0  0  0
 16 17  1  6  0  0  0
 16 12  1  0  0  0  0
 16  5  1  0  0  0  0
 18 10  1  0  0  0  0
 19 10  1  0  0  0  0
 19 20  2  0  0  0  0
 22 21  2  0  0  0  0
 23 22  1  0  0  0  0
 24 27  1  6  0  0  0
 24 28  1  0  0  0  0
 26 29  1  0  0  0  0
 28 25  1  0  0  0  0
 29 30  1  0  0  0  0
 30 22  1  6  0  0  0
 30 25  1  0  0  0  0
 31 29  1  0  0  0  0
 31 24  1  0  0  0  0
M  END
>  <MODEL>
5

>  <REMARK>
 VINA RESULT:      -8.3      1.224      1.374
  Name = 
  2 active torsions:
  status: ('A' for Active; 'I' for Inactive)
    1  A    between atoms: C_5  and  C_30
    2  A    between atoms: C_10  and  N_16
                            x       y       z     vdW  Elec       q    Type
                         _______ _______ _______ _____ _____    ______ ____

>  <TORSDO>
F 2

$$$$
=
 OpenBabel11112417043D

 31 35  0  0  1  0  0  0  0  0999 V2000
  184.7610  177.9580  146.9610 C   0  0  0  0  0  0  0  0  0  0  0  0
  187.1740  175.9660  144.8670 C   0  0  2  0  0  3  0  0  0  0  0  0
  187.1960  176.4130  143.4170 C   0  0  0  0  0  0  0  0  0  0  0  0
  186.0540  177.4540  141.5350 C   0  0  0  0  0  0  0  0  0  0  0  0
  186.6130  177.0130  145.7870 C   0  0  0  0  0  0  0  0  0  0  0  0
  185.6050  178.9800  147.5860 C   0  0  0  0  0  3  0  0  0  0  0  0
  186.0920  177.1000  142.8860 C   0  0  0  0  0  3  0  0  0  0  0  0
  189.4810  176.6290  145.7800 C   0  0  2  0  0  3  0  0  0  0  0  0
  183.5280  177.9220  147.2050 O   0  0  0  0  0  0  0  0  0  0  0  0
  189.4610  175.3060  143.0480 C   0  0  0  0  0  2  0  0  0  0  0  0
  184.8850  178.1950  140.9950 C   0  0  0  0  0  1  0  0  0  0  0  0
  188.8130  177.5350  146.8140 C   0  0  0  0  0  2  0  0  0  0  0  0
  188.5430  175.4720  145.3830 C   0  0  2  0  0  3  0  0  0  0  0  0
  185.3510  176.9840  146.0960 N   0  0  0  0  0  0  0  0  0  0  0  0
  187.1130  177.1080  140.6940 C   0  0  0  0  0  3  0  0  0  0  0  0
  187.5270  178.1280  146.2550 C   0  0  2  0  0  3  0  0  0  0  0  0
  186.8990  179.0430  147.2740 C   0  0  0  0  0  3  0  0  0  0  0  0
  189.1870  174.5510  144.3460 C   0  0  0  0  0  2  0  0  0  0  0  0
  188.2460  176.0310  142.5500 C   0  0  0  0  0  0  0  0  0  0  0  0
  188.2040  176.3990  141.2000 C   0  0  0  0  0  3  0  0  0  0  0  0
  192.0790  177.0410  144.6820 O   0  0  0  0  0  0  0  0  0  0  0  0
  191.9940  176.3480  145.7320 C   0  0  0  0  0  0  0  0  0  0  0  0
  190.7220  176.1000  146.3300 N   0  0  0  0  0  2  0  0  0  0  0  0
  195.5230  176.2390  144.8080 C   0  0  1  0  0  3  0  0  0  0  0  0
  194.1760  176.7650  146.7540 O   0  0  0  0  0  0  0  0  0  0  0  0
  192.9000  173.6490  145.2830 C   0  0  0  0  0  1  0  0  0  0  0  0
  196.0460  176.7970  143.6420 O   0  0  0  0  0  1  0  0  0  0  0  0
  194.7750  177.3080  145.5960 C   0  0  0  0  0  2  0  0  0  0  0  0
  193.8810  174.6570  145.6600 N   0  0  0  0  0  0  0  0  0  0  0  0
  193.2350  175.7740  146.3810 C   0  0  2  0  0  3  0  0  0  0  0  0
  194.5330  175.1430  144.4470 C   0  0  0  0  0  2  0  0  0  0  0  0
  1  9  2  0  0  0  0
  1  6  1  0  0  0  0
  2  3  1  6  0  0  0
  2 13  1  0  0  0  0
  2  5  1  0  0  0  0
  4  7  2  0  0  0  0
  5 14  2  0  0  0  0
  5 16  1  0  0  0  0
  7  3  1  0  0  0  0
  8 23  1  1  0  0  0
  8 12  1  0  0  0  0
 10 18  1  0  0  0  0
 11  4  1  0  0  0  0
 13 18  1  6  0  0  0
 13  8  1  0  0  0  0
 14  1  1  0  0  0  0
 15 20  2  0  0  0  0
 15  4  1  0  0  0  0
 16 12  1  1  0  0  0
 16 17  1  0  0  0  0
 17  6  2  0  0  0  0
 19 10  1  0  0  0  0
 19  3  2  0  0  0  0
 20 19  1  0  0  0  0
 21 22  2  0  0  0  0
 22 23  1  0  0  0  0
 24 27  1  6  0  0  0
 24 28  1  0  0  0  0
 26 29  1  0  0  0  0
 28 25  1  0  0  0  0
 29 30  1  0  0  0  0
 30 22  1  6  0  0  0
 30 25  1  0  0  0  0
 31 24  1  0  0  0  0
 31 29  1  0  0  0  0
M  END
>  <MODEL>
6

>  <REMARK>
 VINA RESULT:      -8.2      2.102      4.103
  Name = 
  2 active torsions:
  status: ('A' for Active; 'I' for Inactive)
    1  A    between atoms: C_5  and  C_30
    2  A    between atoms: C_10  and  N_16
                            x       y       z     vdW  Elec       q    Type
                         _______ _______ _______ _____ _____    ______ ____

>  <TORSDO>
F 2

$$$$
=
 OpenBabel11112417043D

 31 35  0  0  1  0  0  0  0  0999 V2000
  187.0670  177.1220  140.3810 C   0  0  0  0  0  0  0  0  0  0  0  0
  189.3630  177.4710  143.3440 C   0  0  2  0  0  3  0  0  0  0  0  0
  188.6670  177.1730  144.6600 C   0  0  0  0  0  0  0  0  0  0  0  0
  186.6130  177.0830  145.9630 C   0  0  0  0  0  0  0  0  0  0  0  0
  188.6390  176.8900  142.1630 C   0  0  0  0  0  0  0  0  0  0  0  0
  187.3380  175.7690  139.8890 C   0  0  0  0  0  3  0  0  0  0  0  0
  187.2690  177.2770  144.7450 C   0  0  0  0  0  3  0  0  0  0  0  0
  191.0450  175.5520  143.0550 C   0  0  2  0  0  3  0  0  0  0  0  0
  186.2220  177.8490  139.7980 O   0  0  0  0  0  0  0  0  0  0  0  0
  190.9020  176.7910  145.8230 C   0  0  0  0  0  2  0  0  0  0  0  0
  185.1320  177.1810  146.0300 C   0  0  0  0  0  1  0  0  0  0  0  0
  190.3540  175.1420  141.7540 C   0  0  0  0  0  2  0  0  0  0  0  0
  190.8500  177.0570  143.3230 C   0  0  2  0  0  3  0  0  0  0  0  0
  187.7890  177.6240  141.5080 N   0  0  0  0  0  0  0  0  0  0  0  0
  187.3480  176.8010  147.1150 C   0  0  0  0  0  3  0  0  0  0  0  0
  188.8610  175.4290  141.8270 C   0  0  2  0  0  3  0  0  0  0  0  0
  188.1920  174.9900  140.5510 C   0  0  0  0  0  3  0  0  0  0  0  0
  191.5290  177.4940  144.6220 C   0  0  0  0  0  2  0  0  0  0  0  0
  189.4090  176.9260  145.8390 C   0  0  0  0  0  0  0  0  0  0  0  0
  188.7410  176.7230  147.0520 C   0  0  0  0  0  3  0  0  0  0  0  0
  192.3790  173.5250  144.5500 O   0  0  0  0  0  0  0  0  0  0  0  0
  193.0710  174.2050  143.7450 C   0  0  0  0  0  0  0  0  0  0  0  0
  192.4640  175.2390  142.9680 N   0  0  0  0  0  2  0  0  0  0  0  0
  195.3700  171.7280  145.1220 C   0  0  1  0  0  3  0  0  0  0  0  0
  194.8230  172.6880  142.9640 O   0  0  0  0  0  0  0  0  0  0  0  0
  195.0890  175.4240  145.4030 C   0  0  0  0  0  1  0  0  0  0  0  0
  194.9960  170.7210  146.0100 O   0  0  0  0  0  1  0  0  0  0  0  0
  194.5160  171.6410  143.8620 C   0  0  0  0  0  2  0  0  0  0  0  0
  195.3820  174.1380  144.7840 N   0  0  0  0  0  0  0  0  0  0  0  0
  194.5510  173.9350  143.5780 C   0  0  2  0  0  3  0  0  0  0  0  0
  195.1260  173.0860  145.7630 C   0  0  0  0  0  2  0  0  0  0  0  0
  1 14  1  0  0  0  0
  2  5  1  6  0  0  0
  2  3  1  0  0  0  0
  3  7  2  0  0  0  0
  3 19  1  0  0  0  0
  4 11  1  0  0  0  0
  4 15  2  0  0  0  0
  6  1  1  0  0  0  0
  6 17  2  0  0  0  0
  7  4  1  0  0  0  0
  8 23  1  6  0  0  0
  8 13  1  0  0  0  0
  9  1  2  0  0  0  0
 10 19  1  0  0  0  0
 12 16  1  0  0  0  0
 12  8  1  0  0  0  0
 13  2  1  0  0  0  0
 13 18  1  1  0  0  0
 14  5  2  0  0  0  0
 16 17  1  6  0  0  0
 16  5  1  0  0  0  0
 18 10  1  0  0  0  0
 19 20  2  0  0  0  0
 20 15  1  0  0  0  0
 22 21  2  0  0  0  0
 23 22  1  0  0  0  0
 24 31  1  0  0  0  0
 24 27  1  1  0  0  0
 25 30  1  0  0  0  0
 25 28  1  0  0  0  0
 28 24  1  0  0  0  0
 29 26  1  0  0  0  0
 29 31  1  0  0  0  0
 30 22  1  1  0  0  0
 30 29  1  0  0  0  0
M  END
>  <MODEL>
7

>  <REMARK>
 VINA RESULT:      -8.1      1.811      2.581
  Name = 
  2 active torsions:
  status: ('A' for Active; 'I' for Inactive)
    1  A    between atoms: C_5  and  C_30
    2  A    between atoms: C_10  and  N_16
                            x       y       z     vdW  Elec       q    Type
                         _______ _______ _______ _____ _____    ______ ____

>  <TORSDO>
F 2

$$$$
=
 OpenBabel11112417043D

 31 35  0  0  1  0  0  0  0  0999 V2000
  184.8620  177.6910  146.5970 C   0  0  0  0  0  0  0  0  0  0  0  0
  186.8440  176.0620  143.8410 C   0  0  2  0  0  3  0  0  0  0  0  0
  186.5630  176.6730  142.4810 C   0  0  0  0  0  0  0  0  0  0  0  0
  185.0430  177.8700  141.0030 C   0  0  0  0  0  0  0  0  0  0  0  0
  186.4580  176.9710  144.9740 C   0  0  0  0  0  0  0  0  0  0  0  0
  185.7930  178.6710  147.1620 C   0  0  0  0  0  3  0  0  0  0  0  0
  185.3600  177.3660  142.2660 C   0  0  0  0  0  3  0  0  0  0  0  0
  189.2740  176.7190  144.3530 C   0  0  2  0  0  3  0  0  0  0  0  0
  183.7040  177.5710  147.0740 O   0  0  0  0  0  0  0  0  0  0  0  0
  188.7300  175.7180  141.5390 C   0  0  0  0  0  2  0  0  0  0  0  0
  183.7740  178.6140  140.7980 C   0  0  0  0  0  1  0  0  0  0  0  0
  188.8080  177.4710  145.6010 C   0  0  0  0  0  2  0  0  0  0  0  0
  188.2990  175.5750  144.0120 C   0  0  2  0  0  3  0  0  0  0  0  0
  185.2850  176.8490  145.5210 N   0  0  0  0  0  0  0  0  0  0  0  0
  185.9170  177.6700  139.9330 C   0  0  0  0  0  3  0  0  0  0  0  0
  187.4240  178.0650  145.3830 C   0  0  2  0  0  3  0  0  0  0  0  0
  186.9950  178.8280  146.6090 C   0  0  0  0  0  3  0  0  0  0  0  0
  188.7400  174.8090  142.7640 C   0  0  0  0  0  2  0  0  0  0  0  0
  187.4250  176.4400  141.3830 C   0  0  0  0  0  0  0  0  0  0  0  0
  187.1030  176.9580  140.1230 C   0  0  0  0  0  3  0  0  0  0  0  0
  191.7070  178.0310  143.6590 O   0  0  0  0  0  0  0  0  0  0  0  0
  191.7920  176.9000  144.2100 C   0  0  0  0  0  0  0  0  0  0  0  0
  190.6100  176.1880  144.5790 N   0  0  0  0  0  2  0  0  0  0  0  0
  192.9640  173.4750  144.6740 C   0  0  1  0  0  3  0  0  0  0  0  0
  193.6140  175.4600  143.4430 O   0  0  0  0  0  0  0  0  0  0  0  0
  192.7850  176.4620  146.8800 C   0  0  0  0  0  1  0  0  0  0  0  0
  192.1440  172.3500  144.6040 O   0  0  0  0  0  1  0  0  0  0  0  0
  192.8450  174.2760  143.3830 C   0  0  0  0  0  2  0  0  0  0  0  0
  193.2750  175.6060  145.8070 N   0  0  0  0  0  0  0  0  0  0  0  0
  193.1420  176.2790  144.4980 C   0  0  2  0  0  3  0  0  0  0  0  0
  192.5100  174.3630  145.8220 C   0  0  0  0  0  2  0  0  0  0  0  0
  1  9  2  0  0  0  0
  1  6  1  0  0  0  0
  2  3  1  6  0  0  0
  2 13  1  0  0  0  0
  2  5  1  0  0  0  0
  4  7  2  0  0  0  0
  5 16  1  0  0  0  0
  5 14  2  0  0  0  0
  7  3  1  0  0  0  0
  8 23  1  1  0  0  0
  8 12  1  0  0  0  0
 10 18  1  0  0  0  0
 11  4  1  0  0  0  0
 13 18  1  6  0  0  0
 13  8  1  0  0  0  0
 14  1  1  0  0  0  0
 15 20  2  0  0  0  0
 15  4  1  0  0  0  0
 16 12  1  1  0  0  0
 16 17  1  0  0  0  0
 17  6  2  0  0  0  0
 19 10  1  0  0  0  0
 19  3  2  0  0  0  0
 20 19  1  0  0  0  0
 21 22  2  0  0  0  0
 22 23  1  0  0  0  0
 24 27  1  6  0  0  0
 24 31  1  0  0  0  0
 25 30  1  0  0  0  0
 28 25  1  0  0  0  0
 28 24  1  0  0  0  0
 29 31  1  0  0  0  0
 29 26  1  0  0  0  0
 30 22  1  6  0  0  0
 30 29  1  0  0  0  0
M  END
>  <MODEL>
8

>  <REMARK>
 VINA RESULT:      -8.0      2.396      4.584
  Name = 
  2 active torsions:
  status: ('A' for Active; 'I' for Inactive)
    1  A    between atoms: C_5  and  C_30
    2  A    between atoms: C_10  and  N_16
                            x       y       z     vdW  Elec       q    Type
                         _______ _______ _______ _____ _____    ______ ____

>  <TORSDO>
F 2

$$$$
=
 OpenBabel11112417043D

 31 35  0  0  1  0  0  0  0  0999 V2000
  186.1460  177.1820  142.5500 C   0  0  0  0  0  0  0  0  0  0  0  0
  188.4320  174.1990  142.3310 C   0  0  2  0  0  3  0  0  0  0  0  0
  188.9300  173.9470  140.9200 C   0  0  0  0  0  0  0  0  0  0  0  0
  188.6000  174.1670  138.5180 C   0  0  0  0  0  0  0  0  0  0  0  0
  187.9370  175.6030  142.5280 C   0  0  0  0  0  0  0  0  0  0  0  0
  187.0320  178.2680  142.9750 C   0  0  0  0  0  3  0  0  0  0  0  0
  188.2050  174.4500  139.8280 C   0  0  0  0  0  3  0  0  0  0  0  0
  190.5230  174.9240  143.6340 C   0  0  2  0  0  3  0  0  0  0  0  0
  184.9220  177.4030  142.3590 O   0  0  0  0  0  0  0  0  0  0  0  0
  190.8640  172.5350  141.7910 C   0  0  0  0  0  2  0  0  0  0  0  0
  187.8290  174.7220  137.3750 C   0  0  0  0  0  1  0  0  0  0  0  0
  189.8640  176.2670  143.9470 C   0  0  0  0  0  2  0  0  0  0  0  0
  189.4580  173.8300  143.4250 C   0  0  2  0  0  3  0  0  0  0  0  0
  186.6710  175.8630  142.3820 N   0  0  0  0  0  0  0  0  0  0  0  0
  189.7150  173.3610  138.2850 C   0  0  0  0  0  3  0  0  0  0  0  0
  188.9520  176.6940  142.8060 C   0  0  2  0  0  3  0  0  0  0  0  0
  188.3350  178.0340  143.1170 C   0  0  0  0  0  3  0  0  0  0  0  0
  190.0910  172.4750  143.1060 C   0  0  0  0  0  2  0  0  0  0  0  0
  190.0360  173.0990  140.6750 C   0  0  0  0  0  0  0  0  0  0  0  0
  190.4300  172.8300  139.3600 C   0  0  0  0  0  3  0  0  0  0  0  0
  193.3610  174.7250  143.4570 O   0  0  0  0  0  0  0  0  0  0  0  0
  192.8290  174.4770  144.5730 C   0  0  0  0  0  0  0  0  0  0  0  0
  191.4110  174.5540  144.7280 N   0  0  0  0  0  2  0  0  0  0  0  0
  196.4190  174.4500  145.2270 C   0  0  1  0  0  3  0  0  0  0  0  0
  194.3850  175.2010  146.3130 O   0  0  0  0  0  0  0  0  0  0  0  0
  193.8130  171.8060  145.0280 C   0  0  0  0  0  1  0  0  0  0  0  0
  197.3870  174.8400  144.3030 O   0  0  0  0  0  1  0  0  0  0  0  0
  195.4200  175.5830  145.4300 C   0  0  0  0  0  2  0  0  0  0  0  0
  194.5560  172.9260  145.5910 N   0  0  0  0  0  0  0  0  0  0  0  0
  193.6780  174.1020  145.7680 C   0  0  2  0  0  3  0  0  0  0  0  0
  195.6610  173.2460  144.6910 C   0  0  0  0  0  2  0  0  0  0  0  0
  1  6  1  0  0  0  0
  2  3  1  6  0  0  0
  2  5  1  0  0  0  0
  2 13  1  0  0  0  0
  4  7  1  0  0  0  0
  5 16  1  0  0  0  0
  6 17  2  0  0  0  0
  7  3  2  0  0  0  0
  8 12  1  0  0  0  0
  8 23  1  1  0  0  0
  9  1  2  0  0  0  0
 10 18  1  0  0  0  0
 11  4  1  0  0  0  0
 13 18  1  6  0  0  0
 13  8  1  0  0  0  0
 14  5  2  0  0  0  0
 14  1  1  0  0  0  0
 15  4  2  0  0  0  0
 15 20  1  0  0  0  0
 16 17  1  1  0  0  0
 16 12  1  0  0  0  0
 19  3  1  0  0  0  0
 19 10  1  0  0  0  0
 20 19  2  0  0  0  0
 21 22  2  0  0  0  0
 22 23  1  0  0  0  0
 24 27  1  6  0  0  0
 24 28  1  0  0  0  0
 26 29  1  0  0  0  0
 28 25  1  0  0  0  0
 29 30  1  0  0  0  0
 30 22  1  6  0  0  0
 30 25  1  0  0  0  0
 31 24  1  0  0  0  0
 31 29  1  0  0  0  0
M  END
>  <MODEL>
9

>  <REMARK>
 VINA RESULT:      -7.7      2.311      4.923
  Name = 
  2 active torsions:
  status: ('A' for Active; 'I' for Inactive)
    1  A    between atoms: C_5  and  C_30
    2  A    between atoms: C_10  and  N_16
                            x       y       z     vdW  Elec       q    Type
                         _______ _______ _______ _____ _____    ______ ____

>  <TORSDO>
F 2

$$$$
