=
 OpenBabel11112417113D

 37 43  0  0  1  0  0  0  0  0999 V2000
  193.4920  174.7310  143.8160 C   0  0  0  0  0  2  0  0  0  0  0  0
  192.2580  170.1430  141.9520 C   0  0  0  0  0  0  0  0  0  0  0  0
  190.1130  173.7650  142.5250 N   0  0  1  0  0  0  0  0  0  0  0  0
  194.9740  175.0270  144.0650 C   0  0  2  0  0  3  0  0  0  0  0  0
  190.7230  175.8890  145.5210 O   0  0  0  0  0  0  0  0  0  0  0  0
  190.3730  171.6840  141.1390 C   0  0  1  0  0  3  0  0  0  0  0  0
  190.3440  174.0870  143.9440 C   0  0  2  0  0  3  0  0  0  0  0  0
  194.4030  176.2960  146.2570 C   0  0  2  0  0  3  0  0  0  0  0  0
  190.4610  172.3620  142.5110 C   0  0  1  0  0  3  0  0  0  0  0  0
  190.5540  175.6050  144.1600 C   0  0  1  0  0  3  0  0  0  0  0  0
  189.8740  172.6670  140.0770 C   0  0  0  0  0  2  0  0  0  0  0  0
  195.3400  175.3190  145.5280 C   0  0  0  0  0  2  0  0  0  0  0  0
  191.7890  172.3070  143.1580 C   0  0  2  0  0  3  0  0  0  0  0  0
  193.7080  169.8290  141.6490 C   0  0  0  0  0  1  0  0  0  0  0  0
  188.0890  175.1910  142.3010 C   0  0  0  0  0  2  0  0  0  0  0  0
  188.6360  173.4460  140.5820 C   0  0  0  0  0  2  0  0  0  0  0  0
  192.1890  170.8520  143.3300 C   0  0  0  0  0  2  0  0  0  0  0  0
  192.9450  175.8100  146.4410 C   0  0  1  0  0  3  0  0  0  0  0  0
  191.9300  176.5870  145.5970 C   0  0  0  0  0  2  0  0  0  0  0  0
  188.7190  173.8250  142.0800 C   0  0  1  0  0  3  0  0  0  0  0  0
  191.5340  173.1510  144.3900 C   0  0  1  0  0  3  0  0  0  0  0  0
  191.6850  170.9760  140.7700 C   0  0  0  0  0  2  0  0  0  0  0  0
  189.4370  176.5090  143.5860 C   0  0  1  0  0  3  0  0  0  0  0  0
  191.5000  168.8330  142.0470 C   0  0  0  0  0  1  0  0  0  0  0  0
  192.7940  174.2850  146.2930 C   0  0  0  0  0  2  0  0  0  0  0  0
  194.4840  177.5780  145.7070 O   0  0  0  0  0  1  0  0  0  0  0  0
  192.8680  173.7710  144.8450 C   0  0  2  0  0  3  0  0  0  0  0  0
  189.0470  176.2160  142.2600 O   0  0  0  0  0  0  0  0  0  0  0  0
  188.1320  176.1980  145.7100 C   0  0  0  0  0  3  0  0  0  0  0  0
  188.3200  176.9130  144.5220 C   0  0  0  0  0  0  0  0  0  0  0  0
  187.4880  178.0050  144.2310 C   0  0  0  0  0  3  0  0  0  0  0  0
  185.4340  179.7280  144.7450 Cl  0  0  0  0  0  0  0  0  0  0  0  0
  186.2830  177.6470  146.3000 C   0  0  0  0  0  3  0  0  0  0  0  0
  186.4710  178.3680  145.1170 C   0  0  0  0  0  0  0  0  0  0  0  0
  187.1140  176.5630  146.5960 C   0  0  0  0  0  3  0  0  0  0  0  0
  196.7760  176.0980  143.3530 C   0  0  0  0  0  1  0  0  0  0  0  0
  195.3840  176.0830  143.2490 O   0  0  0  0  0  0  0  0  0  0  0  0
  1  4  1  0  0  0  0
  1 27  1  0  0  0  0
  2 24  1  0  0  0  0
  2 17  1  0  0  0  0
  3  7  1  0  0  0  0
  4 12  1  0  0  0  0
  5 19  1  0  0  0  0
  6  9  1  0  0  0  0
  7 10  1  0  0  0  0
  7 21  1  0  0  0  0
  8 18  1  0  0  0  0
  9  3  1  0  0  0  0
  9 13  1  0  0  0  0
 10  5  1  0  0  0  0
 11 16  1  0  0  0  0
 11  6  1  0  0  0  0
 12  8  1  0  0  0  0
 13 17  1  0  0  0  0
 13 21  1  0  0  0  0
 14  2  1  0  0  0  0
 16 20  1  0  0  0  0
 19 18  1  0  0  0  0
 20 15  1  0  0  0  0
 20  3  1  0  0  0  0
 21 27  1  0  0  0  0
 22  6  1  0  0  0  0
 22  2  1  0  0  0  0
 23 10  1  0  0  0  0
 23 30  1  0  0  0  0
 25 18  1  0  0  0  0
 26  8  1  0  0  0  0
 27 25  1  0  0  0  0
 28 15  1  0  0  0  0
 28 23  1  0  0  0  0
 29 35  1  0  0  0  0
 30 29  2  0  0  0  0
 31 30  1  0  0  0  0
 31 34  2  0  0  0  0
 32 34  1  0  0  0  0
 33 35  2  0  0  0  0
 34 33  1  0  0  0  0
 37 36  1  0  0  0  0
 37  4  1  0  0  0  0
M  END
>  <MODEL>
1

>  <REMARK>
 VINA RESULT:      -9.3      0.000      0.000
  Name = 
  2 active torsions:
  status: ('A' for Active; 'I' for Inactive)
    1  A    between atoms: C_4  and  O_37
    2  A    between atoms: C_23  and  C_30
                            x       y       z     vdW  Elec       q    Type
                         _______ _______ _______ _____ _____    ______ ____

>  <TORSDO>
F 2

$$$$
=
 OpenBabel11112417113D

 37 43  0  0  1  0  0  0  0  0999 V2000
  193.1820  174.8780  143.8750 C   0  0  0  0  0  2  0  0  0  0  0  0
  191.8130  170.3970  141.8490 C   0  0  0  0  0  0  0  0  0  0  0  0
  189.8670  174.1460  142.2970 N   0  0  1  0  0  0  0  0  0  0  0  0
  194.6540  175.0740  144.2490 C   0  0  2  0  0  3  0  0  0  0  0  0
  190.3600  176.1980  145.3630 O   0  0  0  0  0  0  0  0  0  0  0  0
  190.1060  172.0650  140.9060 C   0  0  1  0  0  3  0  0  0  0  0  0
  189.9990  174.4390  143.7340 C   0  0  2  0  0  3  0  0  0  0  0  0
  193.9860  176.3560  146.4050 C   0  0  2  0  0  3  0  0  0  0  0  0
  190.1230  172.7240  142.2900 C   0  0  1  0  0  3  0  0  0  0  0  0
  190.2880  175.9380  143.9880 C   0  0  1  0  0  3  0  0  0  0  0  0
  189.7610  173.0880  139.8210 C   0  0  0  0  0  2  0  0  0  0  0  0
  194.9150  175.3280  145.7410 C   0  0  0  0  0  2  0  0  0  0  0  0
  191.3870  172.5760  143.0440 C   0  0  2  0  0  3  0  0  0  0  0  0
  193.2600  169.9920  141.6620 C   0  0  0  0  0  1  0  0  0  0  0  0
  187.9630  175.7030  141.9270 C   0  0  0  0  0  2  0  0  0  0  0  0
  188.5390  173.9420  140.2340 C   0  0  0  0  0  2  0  0  0  0  0  0
  191.6760  171.0970  143.2270 C   0  0  0  0  0  2  0  0  0  0  0  0
  192.4890  175.9650  146.4610 C   0  0  1  0  0  3  0  0  0  0  0  0
  191.6000  176.8150  145.5480 C   0  0  0  0  0  2  0  0  0  0  0  0
  188.5210  174.3010  141.7390 C   0  0  1  0  0  3  0  0  0  0  0  0
  191.0850  173.4230  144.2630 C   0  0  1  0  0  3  0  0  0  0  0  0
  191.3960  171.2760  140.6360 C   0  0  0  0  0  2  0  0  0  0  0  0
  189.2830  176.9180  143.3380 C   0  0  1  0  0  3  0  0  0  0  0  0
  190.9680  169.1390  141.8630 C   0  0  0  0  0  1  0  0  0  0  0  0
  192.2530  174.4550  146.2800 C   0  0  0  0  0  2  0  0  0  0  0  0
  194.1940  177.6360  145.8830 O   0  0  0  0  0  1  0  0  0  0  0  0
  192.4130  173.9510  144.8350 C   0  0  2  0  0  3  0  0  0  0  0  0
  188.9860  176.6640  141.9800 O   0  0  0  0  0  0  0  0  0  0  0  0
  187.3140  178.4310  143.7210 C   0  0  0  0  0  3  0  0  0  0  0  0
  188.1200  177.3860  144.1850 C   0  0  0  0  0  0  0  0  0  0  0  0
  187.8230  176.7750  145.4130 C   0  0  0  0  0  3  0  0  0  0  0  0
  186.3750  176.4520  147.7040 Cl  0  0  0  0  0  0  0  0  0  0  0  0
  185.9370  178.2640  145.7060 C   0  0  0  0  0  3  0  0  0  0  0  0
  186.7370  177.2150  146.1710 C   0  0  0  0  0  0  0  0  0  0  0  0
  186.2260  178.8710  144.4800 C   0  0  0  0  0  3  0  0  0  0  0  0
  196.5790  175.9210  143.5590 C   0  0  0  0  0  1  0  0  0  0  0  0
  195.1970  176.1080  143.4850 O   0  0  0  0  0  0  0  0  0  0  0  0
  1  4  1  0  0  0  0
  1 27  1  0  0  0  0
  2 24  1  0  0  0  0
  2 17  1  0  0  0  0
  3  7  1  0  0  0  0
  4 12  1  0  0  0  0
  5 19  1  0  0  0  0
  6  9  1  0  0  0  0
  7 10  1  0  0  0  0
  7 21  1  0  0  0  0
  8 18  1  0  0  0  0
  9  3  1  0  0  0  0
  9 13  1  0  0  0  0
 10  5  1  0  0  0  0
 11 16  1  0  0  0  0
 11  6  1  0  0  0  0
 12  8  1  0  0  0  0
 13 17  1  0  0  0  0
 13 21  1  0  0  0  0
 14  2  1  0  0  0  0
 15 28  1  0  0  0  0
 16 20  1  0  0  0  0
 19 18  1  0  0  0  0
 20 15  1  0  0  0  0
 20  3  1  0  0  0  0
 21 27  1  0  0  0  0
 22  6  1  0  0  0  0
 22  2  1  0  0  0  0
 23 10  1  0  0  0  0
 23 30  1  0  0  0  0
 25 18  1  0  0  0  0
 26  8  1  0  0  0  0
 27 25  1  0  0  0  0
 28 23  1  0  0  0  0
 29 30  2  0  0  0  0
 29 35  1  0  0  0  0
 30 31  1  0  0  0  0
 31 34  2  0  0  0  0
 33 34  1  0  0  0  0
 34 32  1  0  0  0  0
 35 33  2  0  0  0  0
 37 36  1  0  0  0  0
 37  4  1  0  0  0  0
M  END
>  <MODEL>
2

>  <REMARK>
 VINA RESULT:      -8.9      0.916      1.217
  Name = 
  2 active torsions:
  status: ('A' for Active; 'I' for Inactive)
    1  A    between atoms: C_4  and  O_37
    2  A    between atoms: C_23  and  C_30
                            x       y       z     vdW  Elec       q    Type
                         _______ _______ _______ _____ _____    ______ ____

>  <TORSDO>
F 2

$$$$
=
 OpenBabel11112417113D

 37 43  0  0  1  0  0  0  0  0999 V2000
  190.2520  173.6310  143.0400 C   0  0  0  0  0  2  0  0  0  0  0  0
  194.6210  175.9340  144.3300 C   0  0  0  0  0  0  0  0  0  0  0  0
  190.6130  176.2310  145.7090 N   0  0  1  0  0  0  0  0  0  0  0  0
  190.3310  172.4190  142.1060 C   0  0  2  0  0  3  0  0  0  0  0  0
  187.7570  175.9970  143.3340 O   0  0  0  0  0  0  0  0  0  0  0  0
  193.0500  176.4060  146.3040 C   0  0  1  0  0  3  0  0  0  0  0  0
  189.8380  176.4750  144.4810 C   0  0  2  0  0  3  0  0  0  0  0  0
  188.1900  173.1860  140.8520 C   0  0  2  0  0  3  0  0  0  0  0  0
  191.9410  176.5840  145.2610 C   0  0  1  0  0  3  0  0  0  0  0  0
  188.4940  175.7090  144.4900 C   0  0  1  0  0  3  0  0  0  0  0  0
  192.4700  175.9280  147.6380 C   0  0  0  0  0  2  0  0  0  0  0  0
  189.6030  172.5890  140.7630 C   0  0  0  0  0  2  0  0  0  0  0  0
  192.1220  175.8150  144.0100 C   0  0  2  0  0  3  0  0  0  0  0  0
  195.4390  174.8020  143.7470 C   0  0  0  0  0  1  0  0  0  0  0  0
  188.8680  177.1040  147.2500 C   0  0  0  0  0  2  0  0  0  0  0  0
  191.2290  176.7630  148.0330 C   0  0  0  0  0  2  0  0  0  0  0  0
  193.4360  176.2260  143.3700 C   0  0  0  0  0  2  0  0  0  0  0  0
  188.1120  174.6390  141.3800 C   0  0  1  0  0  3  0  0  0  0  0  0
  187.4730  174.7530  142.7670 C   0  0  0  0  0  2  0  0  0  0  0  0
  190.3290  177.1320  146.8290 C   0  0  1  0  0  3  0  0  0  0  0  0
  190.8240  176.1340  143.2960 C   0  0  1  0  0  3  0  0  0  0  0  0
  194.1970  175.5340  145.7710 C   0  0  0  0  0  2  0  0  0  0  0  0
  187.6080  175.9560  145.7340 C   0  0  1  0  0  3  0  0  0  0  0  0
  195.4990  177.1680  144.3960 C   0  0  0  0  0  1  0  0  0  0  0  0
  189.4530  175.3890  141.2820 C   0  0  0  0  0  2  0  0  0  0  0  0
  187.3160  172.3190  141.5140 O   0  0  0  0  0  1  0  0  0  0  0  0
  190.4960  174.9780  142.3350 C   0  0  2  0  0  3  0  0  0  0  0  0
  188.2740  175.8620  146.9760 O   0  0  0  0  0  0  0  0  0  0  0  0
  185.4190  176.9620  146.4450 C   0  0  0  0  0  3  0  0  0  0  0  0
  186.5570  177.0390  145.6350 C   0  0  0  0  0  0  0  0  0  0  0  0
  186.7160  178.1290  144.7660 C   0  0  0  0  0  3  0  0  0  0  0  0
  185.9410  180.4780  143.6110 Cl  0  0  0  0  0  0  0  0  0  0  0  0
  184.6000  179.0400  145.5090 C   0  0  0  0  0  3  0  0  0  0  0  0
  185.7390  179.1240  144.7010 C   0  0  0  0  0  0  0  0  0  0  0  0
  184.4410  177.9590  146.3810 C   0  0  0  0  0  3  0  0  0  0  0  0
  189.5930  171.7160  144.0700 C   0  0  0  0  0  1  0  0  0  0  0  0
  189.8570  171.2860  142.7680 O   0  0  0  0  0  0  0  0  0  0  0  0
  2 24  1  0  0  0  0
  2 22  1  0  0  0  0
  3 20  1  0  0  0  0
  4 37  1  0  0  0  0
  4  1  1  0  0  0  0
  5 10  1  0  0  0  0
  6 11  1  0  0  0  0
  7 10  1  0  0  0  0
  7  3  1  0  0  0  0
  8 18  1  0  0  0  0
  8 26  1  0  0  0  0
  9  3  1  0  0  0  0
  9  6  1  0  0  0  0
 10 23  1  0  0  0  0
 11 16  1  0  0  0  0
 12  8  1  0  0  0  0
 12  4  1  0  0  0  0
 13  9  1  0  0  0  0
 14  2  1  0  0  0  0
 17 13  1  0  0  0  0
 17  2  1  0  0  0  0
 18 19  1  0  0  0  0
 19  5  1  0  0  0  0
 20 15  1  0  0  0  0
 20 16  1  0  0  0  0
 21 13  1  0  0  0  0
 21  7  1  0  0  0  0
 22  6  1  0  0  0  0
 23 28  1  0  0  0  0
 25 18  1  0  0  0  0
 25 27  1  0  0  0  0
 27  1  1  0  0  0  0
 27 21  1  0  0  0  0
 28 15  1  0  0  0  0
 30 23  1  0  0  0  0
 30 29  2  0  0  0  0
 31 30  1  0  0  0  0
 32 34  1  0  0  0  0
 33 35  2  0  0  0  0
 34 31  2  0  0  0  0
 34 33  1  0  0  0  0
 35 29  1  0  0  0  0
 37 36  1  0  0  0  0
M  END
>  <MODEL>
3

>  <REMARK>
 VINA RESULT:      -8.9      2.436      5.726
  Name = 
  2 active torsions:
  status: ('A' for Active; 'I' for Inactive)
    1  A    between atoms: C_4  and  O_37
    2  A    between atoms: C_23  and  C_30
                            x       y       z     vdW  Elec       q    Type
                         _______ _______ _______ _____ _____    ______ ____

>  <TORSDO>
F 2

$$$$
=
 OpenBabel11112417113D

 37 43  0  0  1  0  0  0  0  0999 V2000
  192.7930  175.0320  143.1890 C   0  0  0  0  0  2  0  0  0  0  0  0
  191.5080  170.7570  140.7130 C   0  0  0  0  0  0  0  0  0  0  0  0
  189.4760  174.3870  141.5760 N   0  0  1  0  0  0  0  0  0  0  0  0
  194.2640  175.2250  143.5670 C   0  0  2  0  0  3  0  0  0  0  0  0
  189.9590  176.1140  144.8370 O   0  0  0  0  0  0  0  0  0  0  0  0
  189.7480  172.4720  139.9700 C   0  0  1  0  0  3  0  0  0  0  0  0
  189.6200  174.5300  143.0350 C   0  0  2  0  0  3  0  0  0  0  0  0
  193.5930  176.2540  145.8540 C   0  0  2  0  0  3  0  0  0  0  0  0
  189.7670  172.9800  141.4160 C   0  0  1  0  0  3  0  0  0  0  0  0
  189.8760  176.0010  143.4440 C   0  0  1  0  0  3  0  0  0  0  0  0
  189.3650  173.5950  139.0030 C   0  0  0  0  0  2  0  0  0  0  0  0
  194.5380  175.3260  145.0750 C   0  0  0  0  0  2  0  0  0  0  0  0
  191.0440  172.7860  142.1370 C   0  0  2  0  0  3  0  0  0  0  0  0
  192.9620  170.4110  140.4700 C   0  0  0  0  0  1  0  0  0  0  0  0
  187.5310  175.9250  141.3930 C   0  0  0  0  0  2  0  0  0  0  0  0
  188.1270  174.3680  139.5160 C   0  0  0  0  0  2  0  0  0  0  0  0
  191.3710  171.3040  142.1590 C   0  0  0  0  0  2  0  0  0  0  0  0
  192.1070  175.8220  145.8830 C   0  0  1  0  0  3  0  0  0  0  0  0
  191.1850  176.7400  145.0750 C   0  0  0  0  0  2  0  0  0  0  0  0
  188.1200  174.5660  141.0510 C   0  0  1  0  0  3  0  0  0  0  0  0
  190.7370  173.4910  143.4420 C   0  0  1  0  0  3  0  0  0  0  0  0
  191.0540  171.7490  139.6050 C   0  0  0  0  0  2  0  0  0  0  0  0
  188.8390  177.0180  142.9120 C   0  0  1  0  0  3  0  0  0  0  0  0
  190.6930  169.4840  140.6020 C   0  0  0  0  0  1  0  0  0  0  0  0
  191.9060  174.3340  145.5450 C   0  0  0  0  0  2  0  0  0  0  0  0
  193.7630  177.5870  145.4680 O   0  0  0  0  0  1  0  0  0  0  0  0
  192.0590  173.9890  144.0530 C   0  0  2  0  0  3  0  0  0  0  0  0
  188.5310  176.9010  141.5370 O   0  0  0  0  0  0  0  0  0  0  0  0
  187.2750  176.4470  144.7920 C   0  0  0  0  0  3  0  0  0  0  0  0
  187.6760  177.3630  143.8150 C   0  0  0  0  0  0  0  0  0  0  0  0
  187.0110  178.5940  143.7040 C   0  0  0  0  0  3  0  0  0  0  0  0
  185.1210  180.4330  144.4120 Cl  0  0  0  0  0  0  0  0  0  0  0  0
  185.5470  177.9760  145.5300 C   0  0  0  0  0  3  0  0  0  0  0  0
  185.9480  178.8980  144.5580 C   0  0  0  0  0  0  0  0  0  0  0  0
  186.2110  176.7510  145.6470 C   0  0  0  0  0  3  0  0  0  0  0  0
  194.7720  176.0030  141.5580 C   0  0  0  0  0  1  0  0  0  0  0  0
  194.7720  176.3470  142.9120 O   0  0  0  0  0  0  0  0  0  0  0  0
  1  4  1  0  0  0  0
  1 27  1  0  0  0  0
  2 17  1  0  0  0  0
  3  7  1  0  0  0  0
  4 12  1  0  0  0  0
  5 19  1  0  0  0  0
  6  9  1  0  0  0  0
  7 21  1  0  0  0  0
  7 10  1  0  0  0  0
  8 18  1  0  0  0  0
  9  3  1  0  0  0  0
  9 13  1  0  0  0  0
 10  5  1  0  0  0  0
 11 16  1  0  0  0  0
 11  6  1  0  0  0  0
 12  8  1  0  0  0  0
 13 17  1  0  0  0  0
 13 21  1  0  0  0  0
 14  2  1  0  0  0  0
 15 28  1  0  0  0  0
 16 20  1  0  0  0  0
 19 18  1  0  0  0  0
 20 15  1  0  0  0  0
 20  3  1  0  0  0  0
 21 27  1  0  0  0  0
 22  6  1  0  0  0  0
 22  2  1  0  0  0  0
 23 10  1  0  0  0  0
 23 30  1  0  0  0  0
 24  2  1  0  0  0  0
 25 18  1  0  0  0  0
 26  8  1  0  0  0  0
 27 25  1  0  0  0  0
 28 23  1  0  0  0  0
 29 35  1  0  0  0  0
 30 29  2  0  0  0  0
 31 30  1  0  0  0  0
 31 34  2  0  0  0  0
 32 34  1  0  0  0  0
 33 35  2  0  0  0  0
 34 33  1  0  0  0  0
 36 37  1  0  0  0  0
 37  4  1  0  0  0  0
M  END
>  <MODEL>
4

>  <REMARK>
 VINA RESULT:      -8.3      1.179      1.283
  Name = 
  2 active torsions:
  status: ('A' for Active; 'I' for Inactive)
    1  A    between atoms: C_4  and  O_37
    2  A    between atoms: C_23  and  C_30
                            x       y       z     vdW  Elec       q    Type
                         _______ _______ _______ _____ _____    ______ ____

>  <TORSDO>
F 2

$$$$
=
 OpenBabel11112417113D

 37 43  0  0  1  0  0  0  0  0999 V2000
  192.2390  172.7520  142.4840 C   0  0  0  0  0  2  0  0  0  0  0  0
  196.5020  175.4920  143.0970 C   0  0  0  0  0  0  0  0  0  0  0  0
  192.5760  175.7480  144.7020 N   0  0  1  0  0  0  0  0  0  0  0  0
  192.3470  171.4180  141.7380 C   0  0  2  0  0  3  0  0  0  0  0  0
  189.6030  174.9770  142.6020 O   0  0  0  0  0  0  0  0  0  0  0  0
  195.0260  176.1630  145.0870 C   0  0  1  0  0  3  0  0  0  0  0  0
  191.7110  175.7530  143.5100 C   0  0  2  0  0  3  0  0  0  0  0  0
  190.0830  171.8490  140.5410 C   0  0  2  0  0  3  0  0  0  0  0  0
  193.8460  176.1100  144.1110 C   0  0  1  0  0  3  0  0  0  0  0  0
  190.4290  174.9150  143.7310 C   0  0  1  0  0  3  0  0  0  0  0  0
  194.5660  175.8610  146.5150 C   0  0  0  0  0  2  0  0  0  0  0  0
  191.5270  171.3340  140.4410 C   0  0  0  0  0  2  0  0  0  0  0  0
  194.0040  175.1700  142.9800 C   0  0  2  0  0  3  0  0  0  0  0  0
  197.3620  174.3350  142.6320 C   0  0  0  0  0  1  0  0  0  0  0  0
  190.8720  176.7390  146.2180 C   0  0  0  0  0  2  0  0  0  0  0  0
  193.2950  176.6690  146.8700 C   0  0  0  0  0  2  0  0  0  0  0  0
  195.2420  175.5580  142.1930 C   0  0  0  0  0  2  0  0  0  0  0  0
  189.9330  173.3590  140.8510 C   0  0  1  0  0  3  0  0  0  0  0  0
  189.3740  173.6440  142.2480 C   0  0  0  0  0  2  0  0  0  0  0  0
  192.2980  176.7910  145.6930 C   0  0  1  0  0  3  0  0  0  0  0  0
  192.6440  175.2950  142.3220 C   0  0  1  0  0  3  0  0  0  0  0  0
  196.1980  175.2920  144.6090 C   0  0  0  0  0  2  0  0  0  0  0  0
  189.6060  175.2950  144.9840 C   0  0  1  0  0  3  0  0  0  0  0  0
  197.2920  176.7720  142.9150 C   0  0  0  0  0  1  0  0  0  0  0  0
  191.2070  174.1660  140.5460 C   0  0  0  0  0  2  0  0  0  0  0  0
  189.3160  171.0420  141.3870 O   0  0  0  0  0  1  0  0  0  0  0  0
  192.3410  173.9870  141.5700 C   0  0  2  0  0  3  0  0  0  0  0  0
  190.3530  175.4350  146.1760 O   0  0  0  0  0  0  0  0  0  0  0  0
  188.5410  177.2100  143.7560 C   0  0  0  0  0  3  0  0  0  0  0  0
  188.4760  176.2840  144.8020 C   0  0  0  0  0  0  0  0  0  0  0  0
  187.3560  176.2710  145.6470 C   0  0  0  0  0  3  0  0  0  0  0  0
  184.9260  177.1660  146.5130 Cl  0  0  0  0  0  0  0  0  0  0  0  0
  186.3900  178.1120  144.4080 C   0  0  0  0  0  3  0  0  0  0  0  0
  186.3180  177.1840  145.4520 C   0  0  0  0  0  0  0  0  0  0  0  0
  187.5010  178.1240  143.5600 C   0  0  0  0  0  3  0  0  0  0  0  0
  192.2130  170.8750  143.8790 C   0  0  0  0  0  1  0  0  0  0  0  0
  191.9970  170.3730  142.5940 O   0  0  0  0  0  0  0  0  0  0  0  0
  2 22  1  0  0  0  0
  3 20  1  0  0  0  0
  4  1  1  0  0  0  0
  4 37  1  0  0  0  0
  5 10  1  0  0  0  0
  6 11  1  0  0  0  0
  7 10  1  0  0  0  0
  7  3  1  0  0  0  0
  8 18  1  0  0  0  0
  8 26  1  0  0  0  0
  9  3  1  0  0  0  0
  9  6  1  0  0  0  0
 10 23  1  0  0  0  0
 11 16  1  0  0  0  0
 12  8  1  0  0  0  0
 12  4  1  0  0  0  0
 13  9  1  0  0  0  0
 14  2  1  0  0  0  0
 17 13  1  0  0  0  0
 17  2  1  0  0  0  0
 18 19  1  0  0  0  0
 19  5  1  0  0  0  0
 20 15  1  0  0  0  0
 20 16  1  0  0  0  0
 21 13  1  0  0  0  0
 21  7  1  0  0  0  0
 22  6  1  0  0  0  0
 23 28  1  0  0  0  0
 24  2  1  0  0  0  0
 25 18  1  0  0  0  0
 25 27  1  0  0  0  0
 27 21  1  0  0  0  0
 27  1  1  0  0  0  0
 28 15  1  0  0  0  0
 29 30  1  0  0  0  0
 30 23  1  0  0  0  0
 30 31  2  0  0  0  0
 33 34  2  0  0  0  0
 34 31  1  0  0  0  0
 34 32  1  0  0  0  0
 35 29  2  0  0  0  0
 35 33  1  0  0  0  0
 37 36  1  0  0  0  0
M  END
>  <MODEL>
5

>  <REMARK>
 VINA RESULT:      -8.1      1.944      5.527
  Name = 
  2 active torsions:
  status: ('A' for Active; 'I' for Inactive)
    1  A    between atoms: C_4  and  O_37
    2  A    between atoms: C_23  and  C_30
                            x       y       z     vdW  Elec       q    Type
                         _______ _______ _______ _____ _____    ______ ____

>  <TORSDO>
F 2

$$$$
=
 OpenBabel11112417113D

 37 43  0  0  1  0  0  0  0  0999 V2000
  191.3810  173.4020  141.6960 C   0  0  0  0  0  2  0  0  0  0  0  0
  189.2150  176.5560  145.0750 C   0  0  0  0  0  0  0  0  0  0  0  0
  192.9510  174.5390  144.8990 N   0  0  1  0  0  0  0  0  0  0  0  0
  190.7060  173.2420  140.3310 C   0  0  2  0  0  3  0  0  0  0  0  0
  193.1950  171.0940  143.5130 O   0  0  0  0  0  0  0  0  0  0  0  0
  191.7040  176.5710  145.7010 C   0  0  1  0  0  3  0  0  0  0  0  0
  192.5780  173.1330  144.6690 C   0  0  2  0  0  3  0  0  0  0  0  0
  191.2260  170.6980  140.3160 C   0  0  2  0  0  3  0  0  0  0  0  0
  191.6980  175.0710  145.3870 C   0  0  1  0  0  3  0  0  0  0  0  0
  193.5420  172.4410  143.6760 C   0  0  1  0  0  3  0  0  0  0  0  0
  193.0930  177.1700  145.4650 C   0  0  0  0  0  2  0  0  0  0  0  0
  190.2210  171.8200  140.0110 C   0  0  0  0  0  2  0  0  0  0  0  0
  190.7010  174.6400  144.3820 C   0  0  2  0  0  3  0  0  0  0  0  0
  188.2840  177.1140  144.0190 C   0  0  0  0  0  1  0  0  0  0  0  0
  195.2260  174.0280  145.7630 C   0  0  0  0  0  2  0  0  0  0  0  0
  194.1910  176.2900  146.1070 C   0  0  0  0  0  2  0  0  0  0  0  0
  189.3160  175.0200  144.8740 C   0  0  0  0  0  2  0  0  0  0  0  0
  191.5950  170.5220  141.8090 C   0  0  1  0  0  3  0  0  0  0  0  0
  193.0360  170.9260  142.1360 C   0  0  0  0  0  2  0  0  0  0  0  0
  193.9170  174.7720  145.9760 C   0  0  1  0  0  3  0  0  0  0  0  0
  191.0570  173.1740  144.2470 C   0  0  1  0  0  3  0  0  0  0  0  0
  190.5720  177.3090  144.9710 C   0  0  0  0  0  2  0  0  0  0  0  0
  195.0420  172.5390  144.0440 C   0  0  1  0  0  3  0  0  0  0  0  0
  188.6030  176.8230  146.4360 C   0  0  0  0  0  1  0  0  0  0  0  0
  190.5700  171.1600  142.7630 C   0  0  0  0  0  2  0  0  0  0  0  0
  192.3470  170.7850  139.4860 O   0  0  0  0  0  1  0  0  0  0  0  0
  190.6390  172.6950  142.8450 C   0  0  2  0  0  3  0  0  0  0  0  0
  195.4920  173.8300  144.3990 O   0  0  0  0  0  0  0  0  0  0  0  0
  196.9890  171.0740  144.6550 C   0  0  0  0  0  3  0  0  0  0  0  0
  195.6400  171.3970  144.8360 C   0  0  0  0  0  0  0  0  0  0  0  0
  194.8730  170.6760  145.7630 C   0  0  0  0  0  3  0  0  0  0  0  0
  194.4860  168.7360  147.6440 Cl  0  0  0  0  0  0  0  0  0  0  0  0
  196.7970  169.3110  146.3040 C   0  0  0  0  0  3  0  0  0  0  0  0
  195.4500  169.6340  146.4920 C   0  0  0  0  0  0  0  0  0  0  0  0
  197.5660  170.0310  145.3860 C   0  0  0  0  0  3  0  0  0  0  0  0
  192.6910  174.1660  140.0060 C   0  0  0  0  0  1  0  0  0  0  0  0
  191.5650  173.6930  139.3280 O   0  0  0  0  0  0  0  0  0  0  0  0
  1 27  1  0  0  0  0
  2 24  1  0  0  0  0
  3  9  1  0  0  0  0
  3 20  1  0  0  0  0
  4  1  1  0  0  0  0
  5 10  1  0  0  0  0
  7  3  1  0  0  0  0
  8 18  1  0  0  0  0
  9  6  1  0  0  0  0
 10 23  1  0  0  0  0
 10  7  1  0  0  0  0
 11  6  1  0  0  0  0
 11 16  1  0  0  0  0
 12  8  1  0  0  0  0
 12  4  1  0  0  0  0
 13 17  1  0  0  0  0
 13  9  1  0  0  0  0
 14  2  1  0  0  0  0
 15 20  1  0  0  0  0
 17  2  1  0  0  0  0
 18 19  1  0  0  0  0
 18 25  1  0  0  0  0
 19  5  1  0  0  0  0
 20 16  1  0  0  0  0
 21 13  1  0  0  0  0
 21  7  1  0  0  0  0
 22  2  1  0  0  0  0
 22  6  1  0  0  0  0
 23 28  1  0  0  0  0
 23 30  1  0  0  0  0
 25 27  1  0  0  0  0
 26  8  1  0  0  0  0
 27 21  1  0  0  0  0
 28 15  1  0  0  0  0
 29 30  2  0  0  0  0
 29 35  1  0  0  0  0
 30 31  1  0  0  0  0
 31 34  2  0  0  0  0
 33 34  1  0  0  0  0
 34 32  1  0  0  0  0
 35 33  2  0  0  0  0
 37 36  1  0  0  0  0
 37  4  1  0  0  0  0
M  END
>  <MODEL>
6

>  <REMARK>
 VINA RESULT:      -8.1      3.695      7.873
  Name = 
  2 active torsions:
  status: ('A' for Active; 'I' for Inactive)
    1  A    between atoms: C_4  and  O_37
    2  A    between atoms: C_23  and  C_30
                            x       y       z     vdW  Elec       q    Type
                         _______ _______ _______ _____ _____    ______ ____

>  <TORSDO>
F 2

$$$$
=
 OpenBabel11112417113D

 37 43  0  0  1  0  0  0  0  0999 V2000
  189.8650  173.8970  140.2590 C   0  0  0  0  0  2  0  0  0  0  0  0
  186.9170  176.9300  143.1160 C   0  0  0  0  0  0  0  0  0  0  0  0
  190.9710  175.6830  143.3570 N   0  0  1  0  0  0  0  0  0  0  0  0
  189.3250  173.4510  138.8960 C   0  0  2  0  0  3  0  0  0  0  0  0
  191.9590  172.2170  142.4280 O   0  0  0  0  0  0  0  0  0  0  0  0
  189.3100  177.5080  143.8410 C   0  0  1  0  0  3  0  0  0  0  0  0
  190.8890  174.2140  143.2900 C   0  0  2  0  0  3  0  0  0  0  0  0
  190.3200  171.0760  139.2250 C   0  0  2  0  0  3  0  0  0  0  0  0
  189.6100  176.0100  143.7200 C   0  0  1  0  0  3  0  0  0  0  0  0
  192.0320  173.6160  142.4350 C   0  0  1  0  0  3  0  0  0  0  0  0
  190.5720  178.3380  143.5930 C   0  0  0  0  0  2  0  0  0  0  0  0
  189.1430  171.9340  138.7370 C   0  0  0  0  0  2  0  0  0  0  0  0
  188.7830  175.2780  142.7350 C   0  0  2  0  0  3  0  0  0  0  0  0
  185.9690  177.1680  141.9590 C   0  0  0  0  0  1  0  0  0  0  0  0
  193.2390  175.7340  144.3760 C   0  0  0  0  0  2  0  0  0  0  0  0
  191.7720  177.7710  144.3870 C   0  0  0  0  0  2  0  0  0  0  0  0
  187.3220  175.4320  143.1150 C   0  0  0  0  0  2  0  0  0  0  0  0
  190.6150  171.1480  140.7420 C   0  0  1  0  0  3  0  0  0  0  0  0
  191.9280  171.8640  141.0770 C   0  0  0  0  0  2  0  0  0  0  0  0
  191.8010  176.2250  144.4360 C   0  0  1  0  0  3  0  0  0  0  0  0
  189.4200  173.9050  142.8010 C   0  0  1  0  0  3  0  0  0  0  0  0
  188.1090  177.9190  142.9770 C   0  0  0  0  0  2  0  0  0  0  0  0
  193.4580  174.0490  142.8520 C   0  0  1  0  0  3  0  0  0  0  0  0
  186.1750  177.2260  144.4040 C   0  0  0  0  0  1  0  0  0  0  0  0
  189.4260  171.6770  141.5630 C   0  0  0  0  0  2  0  0  0  0  0  0
  191.4570  171.2850  138.4390 O   0  0  0  0  0  1  0  0  0  0  0  0
  189.1960  173.1950  141.4540 C   0  0  2  0  0  3  0  0  0  0  0  0
  193.6290  175.4370  143.0600 O   0  0  0  0  0  0  0  0  0  0  0  0
  193.5210  172.5630  144.8760 C   0  0  0  0  0  3  0  0  0  0  0  0
  194.2080  173.1470  143.8060 C   0  0  0  0  0  0  0  0  0  0  0  0
  195.5710  172.8690  143.6230 C   0  0  0  0  0  3  0  0  0  0  0  0
  197.9410  171.6830  144.2770 Cl  0  0  0  0  0  0  0  0  0  0  0  0
  195.5510  171.4450  145.5800 C   0  0  0  0  0  3  0  0  0  0  0  0
  196.2400  172.0220  144.5090 C   0  0  0  0  0  0  0  0  0  0  0  0
  194.1920  171.7150  145.7630 C   0  0  0  0  0  3  0  0  0  0  0  0
  189.3210  174.0330  136.7610 C   0  0  0  0  0  1  0  0  0  0  0  0
  190.1480  173.9440  137.8830 O   0  0  0  0  0  0  0  0  0  0  0  0
  1 27  1  0  0  0  0
  2 24  1  0  0  0  0
  3  9  1  0  0  0  0
  3 20  1  0  0  0  0
  4  1  1  0  0  0  0
  5 10  1  0  0  0  0
  7  3  1  0  0  0  0
  8 18  1  0  0  0  0
  9  6  1  0  0  0  0
 10 23  1  0  0  0  0
 10  7  1  0  0  0  0
 11  6  1  0  0  0  0
 11 16  1  0  0  0  0
 12  4  1  0  0  0  0
 12  8  1  0  0  0  0
 13 21  1  0  0  0  0
 13 17  1  0  0  0  0
 13  9  1  0  0  0  0
 14  2  1  0  0  0  0
 15 20  1  0  0  0  0
 16 20  1  0  0  0  0
 17  2  1  0  0  0  0
 18 19  1  0  0  0  0
 18 25  1  0  0  0  0
 19  5  1  0  0  0  0
 21  7  1  0  0  0  0
 22  2  1  0  0  0  0
 22  6  1  0  0  0  0
 23 28  1  0  0  0  0
 23 30  1  0  0  0  0
 26  8  1  0  0  0  0
 27 25  1  0  0  0  0
 27 21  1  0  0  0  0
 28 15  1  0  0  0  0
 29 35  1  0  0  0  0
 30 29  2  0  0  0  0
 31 30  1  0  0  0  0
 31 34  2  0  0  0  0
 32 34  1  0  0  0  0
 33 35  2  0  0  0  0
 34 33  1  0  0  0  0
 36 37  1  0  0  0  0
 37  4  1  0  0  0  0
M  END
>  <MODEL>
7

>  <REMARK>
 VINA RESULT:      -7.9      3.395      7.649
  Name = 
  2 active torsions:
  status: ('A' for Active; 'I' for Inactive)
    1  A    between atoms: C_4  and  O_37
    2  A    between atoms: C_23  and  C_30
                            x       y       z     vdW  Elec       q    Type
                         _______ _______ _______ _____ _____    ______ ____

>  <TORSDO>
F 2

$$$$
=
 OpenBabel11112417113D

 37 43  0  0  1  0  0  0  0  0999 V2000
  194.5090  175.0040  143.5540 C   0  0  0  0  0  2  0  0  0  0  0  0
  190.3420  176.2530  146.2240 C   0  0  0  0  0  0  0  0  0  0  0  0
  191.0780  173.6270  142.9660 N   0  0  1  0  0  0  0  0  0  0  0  0
  195.8670  175.4700  144.0880 C   0  0  2  0  0  3  0  0  0  0  0  0
  193.4940  174.5420  140.2870 O   0  0  0  0  0  0  0  0  0  0  0  0
  189.6910  174.0850  145.0130 C   0  0  1  0  0  3  0  0  0  0  0  0
  191.7560  174.4800  141.9760 C   0  0  2  0  0  3  0  0  0  0  0  0
  196.6890  175.9910  141.6810 C   0  0  2  0  0  3  0  0  0  0  0  0
  190.4710  174.6310  143.8120 C   0  0  1  0  0  3  0  0  0  0  0  0
  192.8990  173.7240  141.2560 C   0  0  1  0  0  3  0  0  0  0  0  0
  189.6910  172.5540  145.0130 C   0  0  0  0  0  2  0  0  0  0  0  0
  196.6390  176.4170  143.1570 C   0  0  0  0  0  2  0  0  0  0  0  0
  191.5820  175.5480  144.1450 C   0  0  2  0  0  3  0  0  0  0  0  0
  191.1810  176.7170  147.3960 C   0  0  0  0  0  1  0  0  0  0  0  0
  190.3760  171.8960  141.3240 C   0  0  0  0  0  2  0  0  0  0  0  0
  189.3440  172.0020  143.6100 C   0  0  0  0  0  2  0  0  0  0  0  0
  191.0240  176.7320  144.9150 C   0  0  0  0  0  2  0  0  0  0  0  0
  195.3250  175.9550  140.9500 C   0  0  1  0  0  3  0  0  0  0  0  0
  194.8550  174.5400  140.6000 C   0  0  0  0  0  2  0  0  0  0  0  0
  189.9630  172.8250  142.4550 C   0  0  1  0  0  3  0  0  0  0  0  0
  192.1750  175.7790  142.7700 C   0  0  1  0  0  3  0  0  0  0  0  0
  190.1680  174.7120  146.3320 C   0  0  0  0  0  2  0  0  0  0  0  0
  192.4870  172.3820  140.6050 C   0  0  1  0  0  3  0  0  0  0  0  0
  188.9810  176.9130  146.3250 C   0  0  0  0  0  1  0  0  0  0  0  0
  194.2390  176.7820  141.6600 C   0  0  0  0  0  2  0  0  0  0  0  0
  197.4240  174.8130  141.5200 O   0  0  0  0  0  1  0  0  0  0  0  0
  193.6650  176.1310  142.9300 C   0  0  2  0  0  3  0  0  0  0  0  0
  191.7250  171.5220  141.4290 O   0  0  0  0  0  0  0  0  0  0  0  0
  192.8010  171.6200  138.2330 C   0  0  0  0  0  3  0  0  0  0  0  0
  192.0930  172.4080  139.1460 C   0  0  0  0  0  0  0  0  0  0  0  0
  191.0160  173.1880  138.6980 C   0  0  0  0  0  3  0  0  0  0  0  0
  189.3190  174.1660  136.7950 Cl  0  0  0  0  0  0  0  0  0  0  0  0
  191.3760  172.4020  136.4370 C   0  0  0  0  0  3  0  0  0  0  0  0
  190.6610  173.1860  137.3470 C   0  0  0  0  0  0  0  0  0  0  0  0
  192.4450  171.6180  136.8810 C   0  0  0  0  0  3  0  0  0  0  0  0
  196.4410  174.1420  145.7630 C   0  0  0  0  0  1  0  0  0  0  0  0
  196.6520  174.3590  144.4000 O   0  0  0  0  0  0  0  0  0  0  0  0
  1  4  1  0  0  0  0
  2 24  1  0  0  0  0
  2 22  1  0  0  0  0
  2 14  1  0  0  0  0
  3  9  1  0  0  0  0
  4 37  1  0  0  0  0
  5 19  1  0  0  0  0
  5 10  1  0  0  0  0
  6 22  1  0  0  0  0
  7 21  1  0  0  0  0
  7  3  1  0  0  0  0
  8 12  1  0  0  0  0
  9 13  1  0  0  0  0
  9  6  1  0  0  0  0
 10  7  1  0  0  0  0
 11  6  1  0  0  0  0
 12  4  1  0  0  0  0
 13 17  1  0  0  0  0
 15 28  1  0  0  0  0
 15 20  1  0  0  0  0
 16 11  1  0  0  0  0
 17  2  1  0  0  0  0
 18 25  1  0  0  0  0
 18  8  1  0  0  0  0
 19 18  1  0  0  0  0
 20  3  1  0  0  0  0
 20 16  1  0  0  0  0
 21 27  1  0  0  0  0
 21 13  1  0  0  0  0
 23 10  1  0  0  0  0
 23 28  1  0  0  0  0
 25 27  1  0  0  0  0
 26  8  1  0  0  0  0
 27  1  1  0  0  0  0
 29 30  1  0  0  0  0
 30 23  1  0  0  0  0
 31 30  2  0  0  0  0
 32 34  1  0  0  0  0
 33 35  1  0  0  0  0
 33 34  2  0  0  0  0
 34 31  1  0  0  0  0
 35 29  2  0  0  0  0
 37 36  1  0  0  0  0
M  END
>  <MODEL>
8

>  <REMARK>
 VINA RESULT:      -7.6      2.997      6.354
  Name = 
  2 active torsions:
  status: ('A' for Active; 'I' for Inactive)
    1  A    between atoms: C_4  and  O_37
    2  A    between atoms: C_23  and  C_30
                            x       y       z     vdW  Elec       q    Type
                         _______ _______ _______ _____ _____    ______ ____

>  <TORSDO>
F 2

$$$$
=
 OpenBabel11112417113D

 37 43  0  0  1  0  0  0  0  0999 V2000
  191.3360  175.0700  145.0690 C   0  0  0  0  0  2  0  0  0  0  0  0
  191.1750  170.8520  142.1990 C   0  0  0  0  0  0  0  0  0  0  0  0
  189.1820  174.6010  142.0430 N   0  0  1  0  0  0  0  0  0  0  0  0
  192.4490  175.1820  146.1150 C   0  0  2  0  0  3  0  0  0  0  0  0
  188.1230  176.3300  145.1640 O   0  0  0  0  0  0  0  0  0  0  0  0
  190.0910  172.6580  140.7320 C   0  0  1  0  0  3  0  0  0  0  0  0
  188.6110  174.7490  143.3920 C   0  0  2  0  0  3  0  0  0  0  0  0
  190.8140  176.2710  147.8120 C   0  0  2  0  0  3  0  0  0  0  0  0
  189.4360  173.1780  142.0160 C   0  0  1  0  0  3  0  0  0  0  0  0
  188.7170  176.2070  143.9020 C   0  0  1  0  0  3  0  0  0  0  0  0
  190.2850  173.7910  139.7220 C   0  0  0  0  0  2  0  0  0  0  0  0
  191.9650  175.2820  147.5690 C   0  0  0  0  0  2  0  0  0  0  0  0
  190.1930  172.9180  143.2600 C   0  0  2  0  0  3  0  0  0  0  0  0
  192.5440  170.4210  142.6820 C   0  0  0  0  0  1  0  0  0  0  0  0
  187.6560  176.2460  140.9730 C   0  0  0  0  0  2  0  0  0  0  0  0
  188.9980  174.6390  139.5880 C   0  0  0  0  0  2  0  0  0  0  0  0
  190.3870  171.4200  143.4100 C   0  0  0  0  0  2  0  0  0  0  0  0
  189.4780  175.9240  147.1120 C   0  0  1  0  0  3  0  0  0  0  0  0
  189.1140  176.8860  145.9770 C   0  0  0  0  0  2  0  0  0  0  0  0
  188.2610  174.8520  140.9320 C   0  0  1  0  0  3  0  0  0  0  0  0
  189.3330  173.6530  144.2690 C   0  0  1  0  0  3  0  0  0  0  0  0
  191.3680  171.8570  141.0290 C   0  0  0  0  0  2  0  0  0  0  0  0
  188.1240  177.2770  142.9550 C   0  0  1  0  0  3  0  0  0  0  0  0
  190.4470  169.6260  141.6840 C   0  0  0  0  0  1  0  0  0  0  0  0
  189.3840  174.4470  146.6900 C   0  0  0  0  0  2  0  0  0  0  0  0
  191.2230  177.5880  147.5820 O   0  0  0  0  0  1  0  0  0  0  0  0
  190.2200  174.0800  145.4510 C   0  0  2  0  0  3  0  0  0  0  0  0
  188.5130  177.1640  141.6000 O   0  0  0  0  0  0  0  0  0  0  0  0
  186.3230  178.1980  144.4440 C   0  0  0  0  0  3  0  0  0  0  0  0
  186.6910  177.6970  143.1900 C   0  0  0  0  0  0  0  0  0  0  0  0
  185.7330  177.6160  142.1680 C   0  0  0  0  0  3  0  0  0  0  0  0
  183.2270  177.9150  141.1270 Cl  0  0  0  0  0  0  0  0  0  0  0  0
  184.0540  178.5180  143.6610 C   0  0  0  0  0  3  0  0  0  0  0  0
  184.4180  178.0230  142.4050 C   0  0  0  0  0  0  0  0  0  0  0  0
  185.0070  178.6050  144.6800 C   0  0  0  0  0  3  0  0  0  0  0  0
  192.9950  176.5590  144.4710 C   0  0  0  0  0  1  0  0  0  0  0  0
  193.2720  176.2670  145.8080 O   0  0  0  0  0  0  0  0  0  0  0  0
  1 27  1  0  0  0  0
  1  4  1  0  0  0  0
  2 14  1  0  0  0  0
  2 17  1  0  0  0  0
  3  7  1  0  0  0  0
  4 12  1  0  0  0  0
  5 19  1  0  0  0  0
  6 22  1  0  0  0  0
  6  9  1  0  0  0  0
  7 10  1  0  0  0  0
  7 21  1  0  0  0  0
  9  3  1  0  0  0  0
  9 13  1  0  0  0  0
 10  5  1  0  0  0  0
 11  6  1  0  0  0  0
 12  8  1  0  0  0  0
 13 17  1  0  0  0  0
 13 21  1  0  0  0  0
 15 28  1  0  0  0  0
 16 11  1  0  0  0  0
 16 20  1  0  0  0  0
 18  8  1  0  0  0  0
 19 18  1  0  0  0  0
 20 15  1  0  0  0  0
 20  3  1  0  0  0  0
 21 27  1  0  0  0  0
 22  2  1  0  0  0  0
 23 30  1  0  0  0  0
 23 10  1  0  0  0  0
 24  2  1  0  0  0  0
 25 18  1  0  0  0  0
 26  8  1  0  0  0  0
 27 25  1  0  0  0  0
 28 23  1  0  0  0  0
 29 35  1  0  0  0  0
 30 29  2  0  0  0  0
 31 34  2  0  0  0  0
 31 30  1  0  0  0  0
 32 34  1  0  0  0  0
 33 35  2  0  0  0  0
 34 33  1  0  0  0  0
 36 37  1  0  0  0  0
 37  4  1  0  0  0  0
M  END
>  <MODEL>
9

>  <REMARK>
 VINA RESULT:      -7.5      1.872      2.654
  Name = 
  2 active torsions:
  status: ('A' for Active; 'I' for Inactive)
    1  A    between atoms: C_4  and  O_37
    2  A    between atoms: C_23  and  C_30
                            x       y       z     vdW  Elec       q    Type
                         _______ _______ _______ _____ _____    ______ ____

>  <TORSDO>
F 2

$$$$
