=
 OpenBabel11112416493D

 31 35  0  0  1  0  0  0  0  0999 V2000
  191.1880  171.2460  143.0800 C   0  0  0  0  0  0  0  0  0  0  0  0
  190.9270  174.1030  145.5080 N   0  0  0  0  0  0  0  0  0  0  0  0
  192.2480  174.6340  145.7770 C   0  0  0  0  0  0  0  0  0  0  0  0
  194.6600  174.6250  145.4510 C   0  0  0  0  0  0  0  0  0  0  0  0
  190.6890  173.2280  144.3870 C   0  0  0  0  0  0  0  0  0  0  0  0
  190.1550  171.5660  142.1940 C   0  0  0  0  0  3  0  0  0  0  0  0
  193.4050  174.0490  145.2370 C   0  0  0  0  0  3  0  0  0  0  0  0
  189.1210  175.6080  144.8460 C   0  0  2  0  0  3  0  0  0  0  0  0
  191.9690  170.0770  142.8670 N   0  0  0  0  0  1  0  0  0  0  0  0
  191.2410  176.4090  147.0800 O   0  0  0  0  0  0  0  0  0  0  0  0
  196.0900  173.8790  144.7730 Cl  0  0  0  0  0  0  0  0  0  0  0  0
  188.8360  174.7030  143.7330 N   0  0  0  0  0  2  0  0  0  0  0  0
  189.7370  174.8150  146.0030 C   0  0  2  0  0  3  0  0  0  0  0  0
  191.4530  172.0720  144.1760 C   0  0  0  0  0  3  0  0  0  0  0  0
  194.7710  175.8040  146.1920 C   0  0  0  0  0  3  0  0  0  0  0  0
  189.6460  173.5440  143.4930 C   0  0  0  0  0  0  0  0  0  0  0  0
  189.3820  172.7130  142.4020 C   0  0  0  0  0  3  0  0  0  0  0  0
  190.0370  175.6690  147.2410 C   0  0  0  0  0  2  0  0  0  0  0  0
  192.3750  175.8130  146.5350 C   0  0  0  0  0  0  0  0  0  0  0  0
  193.6290  176.3990  146.7320 C   0  0  0  0  0  3  0  0  0  0  0  0
  187.8480  176.3260  145.2620 C   0  0  0  0  0  2  0  0  0  0  0  0
  189.0800  178.0510  144.1450 O   0  0  0  0  0  1  0  0  0  0  0  0
  187.8260  177.7300  144.6700 C   0  0  1  0  0  3  0  0  0  0  0  0
  184.9450  178.1580  141.5930 C   0  0  0  0  0  0  0  0  0  0  0  0
  187.1920  177.7320  142.3430 C   0  0  0  0  0  3  0  0  0  0  0  0
  185.1050  178.2470  145.1400 O   0  0  0  0  0  0  0  0  0  0  0  0
  183.9590  178.3250  140.4940 C   0  0  0  0  0  1  0  0  0  0  0  0
  186.2790  177.8810  141.2980 C   0  0  0  0  0  3  0  0  0  0  0  0
  185.4790  178.1250  143.9430 C   0  0  0  0  0  0  0  0  0  0  0  0
  186.7910  177.8520  143.6400 N   0  0  0  0  0  0  0  0  0  0  0  0
  184.5410  178.2800  142.9200 C   0  0  0  0  0  3  0  0  0  0  0  0
  1 14  1  0  0  0  0
  2  3  1  0  0  0  0
  2 13  1  0  0  0  0
  3 19  1  0  0  0  0
  4 15  2  0  0  0  0
  5  2  1  0  0  0  0
  6 17  1  0  0  0  0
  6  1  2  0  0  0  0
  7  4  1  0  0  0  0
  7  3  2  0  0  0  0
  8 21  1  1  0  0  0
  8 13  1  0  0  0  0
  9  1  1  0  0  0  0
 10 18  1  0  0  0  0
 11  4  1  0  0  0  0
 12  8  1  0  0  0  0
 13 18  1  1  0  0  0
 14  5  2  0  0  0  0
 15 20  1  0  0  0  0
 16 12  1  0  0  0  0
 16  5  1  0  0  0  0
 17 16  2  0  0  0  0
 19 20  2  0  0  0  0
 19 10  1  0  0  0  0
 23 22  1  6  0  0  0
 23 21  1  0  0  0  0
 24 31  2  0  0  0  0
 25 30  1  0  0  0  0
 27 24  1  0  0  0  0
 28 24  1  0  0  0  0
 28 25  2  0  0  0  0
 29 26  2  0  0  0  0
 30 29  1  0  0  0  0
 30 23  1  0  0  0  0
 31 29  1  0  0  0  0
M  END
>  <MODEL>
1

>  <REMARK>
 VINA RESULT:      -8.0      0.000      0.000
  Name = 
  3 active torsions:
  status: ('A' for Active; 'I' for Inactive)
    1  A    between atoms: C_5  and  C_16
    2  A    between atoms: C_5  and  N_30
    3  A    between atoms: C_10  and  C_16
                            x       y       z     vdW  Elec       q    Type
                         _______ _______ _______ _____ _____    ______ ____

>  <TORSDO>
F 3

$$$$
=
 OpenBabel11112416493D

 31 35  0  0  1  0  0  0  0  0999 V2000
  191.8150  172.3450  142.0940 C   0  0  0  0  0  0  0  0  0  0  0  0
  191.9630  174.4420  145.2100 N   0  0  0  0  0  0  0  0  0  0  0  0
  193.1540  175.2660  145.1850 C   0  0  0  0  0  0  0  0  0  0  0  0
  195.2040  176.0250  144.1130 C   0  0  0  0  0  0  0  0  0  0  0  0
  191.4850  173.7850  144.0190 C   0  0  0  0  0  0  0  0  0  0  0  0
  190.4780  172.5260  141.7250 C   0  0  0  0  0  3  0  0  0  0  0  0
  194.1020  175.1660  144.1530 C   0  0  0  0  0  3  0  0  0  0  0  0
  189.7860  175.4600  145.6440 C   0  0  2  0  0  3  0  0  0  0  0  0
  192.6640  171.5230  141.3040 N   0  0  0  0  0  1  0  0  0  0  0  0
  192.4050  176.3650  147.2080 O   0  0  0  0  0  0  0  0  0  0  0  0
  196.3750  175.8830  142.8210 Cl  0  0  0  0  0  0  0  0  0  0  0  0
  189.2750  174.7600  144.4650 N   0  0  0  0  0  2  0  0  0  0  0  0
  190.9430  174.6600  146.2500 C   0  0  2  0  0  3  0  0  0  0  0  0
  192.3180  172.9690  143.2400 C   0  0  0  0  0  3  0  0  0  0  0  0
  195.3600  177.0080  145.0930 C   0  0  0  0  0  3  0  0  0  0  0  0
  190.1380  173.9610  143.6450 C   0  0  0  0  0  0  0  0  0  0  0  0
  189.6400  173.3310  142.5020 C   0  0  0  0  0  3  0  0  0  0  0  0
  191.5260  175.2910  147.5200 C   0  0  0  0  0  2  0  0  0  0  0  0
  193.3320  176.2490  146.1760 C   0  0  0  0  0  0  0  0  0  0  0  0
  194.4240  177.1210  146.1230 C   0  0  0  0  0  3  0  0  0  0  0  0
  188.6590  175.6760  146.6410 C   0  0  0  0  0  2  0  0  0  0  0  0
  189.5200  177.8970  146.3840 O   0  0  0  0  0  1  0  0  0  0  0  0
  188.4190  177.1680  146.8370 C   0  0  1  0  0  3  0  0  0  0  0  0
  184.9820  178.5180  144.7590 C   0  0  0  0  0  0  0  0  0  0  0  0
  187.3000  177.8770  144.8210 C   0  0  0  0  0  3  0  0  0  0  0  0
  185.9060  177.5280  148.0430 O   0  0  0  0  0  0  0  0  0  0  0  0
  183.7970  179.0140  144.0120 C   0  0  0  0  0  1  0  0  0  0  0  0
  186.1980  178.3390  144.1010 C   0  0  0  0  0  3  0  0  0  0  0  0
  186.0050  177.7730  146.8110 C   0  0  0  0  0  0  0  0  0  0  0  0
  187.1970  177.6000  146.1510 N   0  0  0  0  0  0  0  0  0  0  0  0
  184.8820  178.2330  146.1190 C   0  0  0  0  0  3  0  0  0  0  0  0
  1 14  1  0  0  0  0
  2 13  1  0  0  0  0
  3  2  1  0  0  0  0
  3 19  1  0  0  0  0
  4  7  1  0  0  0  0
  4 15  2  0  0  0  0
  5  2  1  0  0  0  0
  6  1  2  0  0  0  0
  6 17  1  0  0  0  0
  7  3  2  0  0  0  0
  8 13  1  0  0  0  0
  8 21  1  1  0  0  0
  9  1  1  0  0  0  0
 10 18  1  0  0  0  0
 11  4  1  0  0  0  0
 12  8  1  0  0  0  0
 13 18  1  1  0  0  0
 14  5  2  0  0  0  0
 15 20  1  0  0  0  0
 16  5  1  0  0  0  0
 16 12  1  0  0  0  0
 17 16  2  0  0  0  0
 19 10  1  0  0  0  0
 20 19  2  0  0  0  0
 21 23  1  0  0  0  0
 23 22  1  6  0  0  0
 24 31  2  0  0  0  0
 25 30  1  0  0  0  0
 27 24  1  0  0  0  0
 28 24  1  0  0  0  0
 28 25  2  0  0  0  0
 29 26  2  0  0  0  0
 30 29  1  0  0  0  0
 30 23  1  0  0  0  0
 31 29  1  0  0  0  0
M  END
>  <MODEL>
2

>  <REMARK>
 VINA RESULT:      -7.9      1.779      2.047
  Name = 
  3 active torsions:
  status: ('A' for Active; 'I' for Inactive)
    1  A    between atoms: C_5  and  C_16
    2  A    between atoms: C_5  and  N_30
    3  A    between atoms: C_10  and  C_16
                            x       y       z     vdW  Elec       q    Type
                         _______ _______ _______ _____ _____    ______ ____

>  <TORSDO>
F 3

$$$$
=
 OpenBabel11112416493D

 31 35  0  0  1  0  0  0  0  0999 V2000
  186.1080  177.9370  140.8080 C   0  0  0  0  0  0  0  0  0  0  0  0
  188.3500  177.7220  143.8180 N   0  0  0  0  0  0  0  0  0  0  0  0
  187.5600  177.8720  145.0230 C   0  0  0  0  0  0  0  0  0  0  0  0
  185.4310  178.2080  146.1530 C   0  0  0  0  0  0  0  0  0  0  0  0
  187.7260  177.4440  142.5470 C   0  0  0  0  0  0  0  0  0  0  0  0
  186.5770  176.8520  140.0600 C   0  0  0  0  0  3  0  0  0  0  0  0
  186.1830  178.1420  144.9770 C   0  0  0  0  0  3  0  0  0  0  0  0
  189.8830  175.8340  143.5930 C   0  0  2  0  0  3  0  0  0  0  0  0
  185.0470  178.7390  140.3060 N   0  0  0  0  0  1  0  0  0  0  0  0
  189.5330  177.3940  146.3430 O   0  0  0  0  0  0  0  0  0  0  0  0
  183.7160  178.5500  146.0750 Cl  0  0  0  0  0  0  0  0  0  0  0  0
  189.2940  175.5710  142.2790 N   0  0  0  0  0  2  0  0  0  0  0  0
  189.7660  177.3270  143.9130 C   0  0  2  0  0  3  0  0  0  0  0  0
  186.6840  178.2360  142.0470 C   0  0  0  0  0  3  0  0  0  0  0  0
  186.0430  177.9830  147.3880 C   0  0  0  0  0  3  0  0  0  0  0  0
  188.1970  176.3540  141.7880 C   0  0  0  0  0  0  0  0  0  0  0  0
  187.6220  176.0630  140.5490 C   0  0  0  0  0  3  0  0  0  0  0  0
  190.3930  177.7170  145.2570 C   0  0  0  0  0  2  0  0  0  0  0  0
  188.1690  177.6640  146.2750 C   0  0  0  0  0  0  0  0  0  0  0  0
  187.4110  177.7090  147.4490 C   0  0  0  0  0  3  0  0  0  0  0  0
  191.3270  175.3600  143.6100 C   0  0  0  0  0  2  0  0  0  0  0  0
  190.9810  173.2540  144.6990 O   0  0  0  0  0  1  0  0  0  0  0  0
  191.5770  174.5070  144.8480 C   0  0  1  0  0  3  0  0  0  0  0  0
  195.7060  173.9320  145.6060 C   0  0  0  0  0  0  0  0  0  0  0  0
  193.6410  173.2950  144.5480 C   0  0  0  0  0  3  0  0  0  0  0  0
  193.1240  176.2190  146.4540 O   0  0  0  0  0  0  0  0  0  0  0  0
  197.1490  173.6950  145.8730 C   0  0  0  0  0  1  0  0  0  0  0  0
  194.9960  173.0600  144.7830 C   0  0  0  0  0  3  0  0  0  0  0  0
  193.7020  175.2330  145.9230 C   0  0  0  0  0  0  0  0  0  0  0  0
  193.0130  174.3660  145.1100 N   0  0  0  0  0  0  0  0  0  0  0  0
  195.0590  175.0240  146.1780 C   0  0  0  0  0  3  0  0  0  0  0  0
  1 14  1  0  0  0  0
  2 13  1  0  0  0  0
  2  3  1  0  0  0  0
  3 19  1  0  0  0  0
  4 15  2  0  0  0  0
  5  2  1  0  0  0  0
  6 17  1  0  0  0  0
  6  1  2  0  0  0  0
  7  3  2  0  0  0  0
  7  4  1  0  0  0  0
  8 21  1  6  0  0  0
  8 13  1  0  0  0  0
  9  1  1  0  0  0  0
 11  4  1  0  0  0  0
 12  8  1  0  0  0  0
 13 18  1  1  0  0  0
 14  5  2  0  0  0  0
 15 20  1  0  0  0  0
 16 12  1  0  0  0  0
 16  5  1  0  0  0  0
 17 16  2  0  0  0  0
 18 10  1  0  0  0  0
 19 10  1  0  0  0  0
 19 20  2  0  0  0  0
 21 23  1  0  0  0  0
 23 22  1  6  0  0  0
 23 30  1  0  0  0  0
 24 27  1  0  0  0  0
 24 31  2  0  0  0  0
 25 28  2  0  0  0  0
 25 30  1  0  0  0  0
 28 24  1  0  0  0  0
 29 31  1  0  0  0  0
 29 26  2  0  0  0  0
 30 29  1  0  0  0  0
M  END
>  <MODEL>
3

>  <REMARK>
 VINA RESULT:      -7.9      3.308      7.835
  Name = 
  3 active torsions:
  status: ('A' for Active; 'I' for Inactive)
    1  A    between atoms: C_5  and  C_16
    2  A    between atoms: C_5  and  N_30
    3  A    between atoms: C_10  and  C_16
                            x       y       z     vdW  Elec       q    Type
                         _______ _______ _______ _____ _____    ______ ____

>  <TORSDO>
F 3

$$$$
=
 OpenBabel11112416493D

 31 35  0  0  1  0  0  0  0  0999 V2000
  187.3670  176.9410  140.9150 C   0  0  0  0  0  0  0  0  0  0  0  0
  188.5640  177.1130  144.4750 N   0  0  0  0  0  0  0  0  0  0  0  0
  187.5040  177.6260  145.3190 C   0  0  0  0  0  0  0  0  0  0  0  0
  185.2440  178.4740  145.6310 C   0  0  0  0  0  0  0  0  0  0  0  0
  188.2910  176.6420  143.1390 C   0  0  0  0  0  0  0  0  0  0  0  0
  187.8160  175.6660  140.5550 C   0  0  0  0  0  3  0  0  0  0  0  0
  186.2760  178.0540  144.7880 C   0  0  0  0  0  3  0  0  0  0  0  0
  189.7090  175.0420  145.0790 C   0  0  2  0  0  3  0  0  0  0  0  0
  186.6680  177.7410  139.9710 N   0  0  0  0  0  1  0  0  0  0  0  0
  188.8850  177.2050  147.2630 O   0  0  0  0  0  0  0  0  0  0  0  0
  183.7230  179.0060  144.9510 Cl  0  0  0  0  0  0  0  0  0  0  0  0
  189.4830  174.5720  143.7120 N   0  0  0  0  0  2  0  0  0  0  0  0
  189.7900  176.5710  145.0850 C   0  0  2  0  0  3  0  0  0  0  0  0
  187.6080  177.4300  142.2030 C   0  0  0  0  0  3  0  0  0  0  0  0
  185.4200  178.4520  147.0170 C   0  0  0  0  0  3  0  0  0  0  0  0
  188.7450  175.3600  142.7690 C   0  0  0  0  0  0  0  0  0  0  0  0
  188.5070  174.8770  141.4800 C   0  0  0  0  0  3  0  0  0  0  0  0
  190.0660  177.1660  146.4710 C   0  0  0  0  0  2  0  0  0  0  0  0
  187.6750  177.6250  146.7160 C   0  0  0  0  0  0  0  0  0  0  0  0
  186.6350  178.0250  147.5590 C   0  0  0  0  0  3  0  0  0  0  0  0
  190.9680  174.4030  145.6400 C   0  0  0  0  0  2  0  0  0  0  0  0
  192.8830  175.2320  144.4620 O   0  0  0  0  0  1  0  0  0  0  0  0
  191.9750  174.1720  144.5190 C   0  0  1  0  0  3  0  0  0  0  0  0
  194.1580  170.5770  145.0310 C   0  0  0  0  0  0  0  0  0  0  0  0
  193.8170  172.9220  145.4490 C   0  0  0  0  0  3  0  0  0  0  0  0
  191.2160  171.7110  143.3950 O   0  0  0  0  0  0  0  0  0  0  0  0
  194.9540  169.3350  145.2080 C   0  0  0  0  0  1  0  0  0  0  0  0
  194.5740  171.7640  145.6310 C   0  0  0  0  0  3  0  0  0  0  0  0
  192.2600  171.7360  144.1000 C   0  0  0  0  0  0  0  0  0  0  0  0
  192.6800  172.8990  144.6970 N   0  0  0  0  0  0  0  0  0  0  0  0
  192.9970  170.5600  144.2630 C   0  0  0  0  0  3  0  0  0  0  0  0
  1 14  1  0  0  0  0
  2 13  1  0  0  0  0
  2  3  1  0  0  0  0
  3 19  1  0  0  0  0
  4 15  2  0  0  0  0
  5  2  1  0  0  0  0
  6  1  2  0  0  0  0
  6 17  1  0  0  0  0
  7  3  2  0  0  0  0
  7  4  1  0  0  0  0
  8 13  1  0  0  0  0
  8 21  1  6  0  0  0
  9  1  1  0  0  0  0
 11  4  1  0  0  0  0
 12  8  1  0  0  0  0
 13 18  1  1  0  0  0
 14  5  2  0  0  0  0
 15 20  1  0  0  0  0
 16  5  1  0  0  0  0
 16 12  1  0  0  0  0
 17 16  2  0  0  0  0
 18 10  1  0  0  0  0
 19 10  1  0  0  0  0
 19 20  2  0  0  0  0
 23 22  1  1  0  0  0
 23 30  1  0  0  0  0
 23 21  1  0  0  0  0
 24 27  1  0  0  0  0
 24 28  1  0  0  0  0
 25 28  2  0  0  0  0
 26 29  2  0  0  0  0
 29 31  1  0  0  0  0
 29 30  1  0  0  0  0
 30 25  1  0  0  0  0
 31 24  2  0  0  0  0
M  END
>  <MODEL>
4

>  <REMARK>
 VINA RESULT:      -7.9      3.413      7.709
  Name = 
  3 active torsions:
  status: ('A' for Active; 'I' for Inactive)
    1  A    between atoms: C_5  and  C_16
    2  A    between atoms: C_5  and  N_30
    3  A    between atoms: C_10  and  C_16
                            x       y       z     vdW  Elec       q    Type
                         _______ _______ _______ _____ _____    ______ ____

>  <TORSDO>
F 3

$$$$
=
 OpenBabel11112416493D

 31 35  0  0  1  0  0  0  0  0999 V2000
  187.5620  176.9050  140.9800 C   0  0  0  0  0  0  0  0  0  0  0  0
  187.8190  177.5340  144.6770 N   0  0  0  0  0  0  0  0  0  0  0  0
  186.5520  178.0310  145.1740 C   0  0  0  0  0  0  0  0  0  0  0  0
  184.2370  178.6990  144.8300 C   0  0  0  0  0  0  0  0  0  0  0  0
  187.9190  176.9110  143.3800 C   0  0  0  0  0  0  0  0  0  0  0  0
  188.1660  175.6460  140.8910 C   0  0  0  0  0  3  0  0  0  0  0  0
  185.4710  178.2920  144.3160 C   0  0  0  0  0  3  0  0  0  0  0  0
  188.9030  175.6430  145.7800 C   0  0  2  0  0  3  0  0  0  0  0  0
  187.0730  177.5420  139.8070 N   0  0  0  0  0  1  0  0  0  0  0  0
  187.4270  177.9280  147.4300 O   0  0  0  0  0  0  0  0  0  0  0  0
  182.9030  179.0230  143.7440 Cl  0  0  0  0  0  0  0  0  0  0  0  0
  189.0570  175.0230  144.4630 N   0  0  0  0  0  2  0  0  0  0  0  0
  188.8850  177.1670  145.6250 C   0  0  2  0  0  3  0  0  0  0  0  0
  187.4420  177.5390  142.2200 C   0  0  0  0  0  3  0  0  0  0  0  0
  184.0620  178.8290  146.2090 C   0  0  0  0  0  3  0  0  0  0  0  0
  188.5290  175.6450  143.2840 C   0  0  0  0  0  0  0  0  0  0  0  0
  188.6510  175.0180  142.0410 C   0  0  0  0  0  3  0  0  0  0  0  0
  188.7680  177.9180  146.9570 C   0  0  0  0  0  2  0  0  0  0  0  0
  186.3680  178.1820  146.5610 C   0  0  0  0  0  0  0  0  0  0  0  0
  185.1270  178.5690  147.0750 C   0  0  0  0  0  3  0  0  0  0  0  0
  190.0210  175.1780  146.6990 C   0  0  0  0  0  2  0  0  0  0  0  0
  191.6750  176.3930  147.9350 O   0  0  0  0  0  1  0  0  0  0  0  0
  191.1780  176.1680  146.6500 C   0  0  1  0  0  3  0  0  0  0  0  0
  194.3400  174.7360  144.2200 C   0  0  0  0  0  0  0  0  0  0  0  0
  192.8940  174.5530  146.1340 C   0  0  0  0  0  3  0  0  0  0  0  0
  192.0250  177.4290  144.2850 O   0  0  0  0  0  0  0  0  0  0  0  0
  195.4670  174.2240  143.3970 C   0  0  0  0  0  1  0  0  0  0  0  0
  193.9510  174.0550  145.3720 C   0  0  0  0  0  3  0  0  0  0  0  0
  192.6170  176.3710  144.6290 C   0  0  0  0  0  0  0  0  0  0  0  0
  192.2430  175.6910  145.7620 N   0  0  0  0  0  0  0  0  0  0  0  0
  193.6710  175.8980  143.8440 C   0  0  0  0  0  3  0  0  0  0  0  0
  1 14  1  0  0  0  0
  2  3  1  0  0  0  0
  2 13  1  0  0  0  0
  3 19  1  0  0  0  0
  4 15  2  0  0  0  0
  5  2  1  0  0  0  0
  6  1  2  0  0  0  0
  6 17  1  0  0  0  0
  7  4  1  0  0  0  0
  7  3  2  0  0  0  0
  8 21  1  1  0  0  0
  9  1  1  0  0  0  0
 11  4  1  0  0  0  0
 12  8  1  0  0  0  0
 13  8  1  0  0  0  0
 13 18  1  1  0  0  0
 14  5  2  0  0  0  0
 15 20  1  0  0  0  0
 16  5  1  0  0  0  0
 16 12  1  0  0  0  0
 17 16  2  0  0  0  0
 18 10  1  0  0  0  0
 19 20  2  0  0  0  0
 19 10  1  0  0  0  0
 23 21  1  0  0  0  0
 23 22  1  1  0  0  0
 24 28  1  0  0  0  0
 26 29  2  0  0  0  0
 27 24  1  0  0  0  0
 28 25  2  0  0  0  0
 29 30  1  0  0  0  0
 30 25  1  0  0  0  0
 30 23  1  0  0  0  0
 31 24  2  0  0  0  0
 31 29  1  0  0  0  0
M  END
>  <MODEL>
5

>  <REMARK>
 VINA RESULT:      -7.9      3.492      7.379
  Name = 
  3 active torsions:
  status: ('A' for Active; 'I' for Inactive)
    1  A    between atoms: C_5  and  C_16
    2  A    between atoms: C_5  and  N_30
    3  A    between atoms: C_10  and  C_16
                            x       y       z     vdW  Elec       q    Type
                         _______ _______ _______ _____ _____    ______ ____

>  <TORSDO>
F 3

$$$$
=
 OpenBabel11112416493D

 31 35  0  0  1  0  0  0  0  0999 V2000
  185.0770  178.0150  146.4040 C   0  0  0  0  0  0  0  0  0  0  0  0
  187.3680  176.1970  144.0440 N   0  0  0  0  0  0  0  0  0  0  0  0
  187.0120  176.5200  142.6770 C   0  0  0  0  0  0  0  0  0  0  0  0
  185.6300  177.6870  141.0490 C   0  0  0  0  0  0  0  0  0  0  0  0
  186.8780  176.9860  145.1480 C   0  0  0  0  0  0  0  0  0  0  0  0
  186.0010  178.5110  147.3300 C   0  0  0  0  0  3  0  0  0  0  0  0
  185.9070  177.3300  142.3710 C   0  0  0  0  0  3  0  0  0  0  0  0
  189.6850  176.4150  144.7840 C   0  0  2  0  0  3  0  0  0  0  0  0
  183.6910  178.2880  146.5700 N   0  0  0  0  0  1  0  0  0  0  0  0
  188.9410  175.2740  141.9090 O   0  0  0  0  0  0  0  0  0  0  0  0
  184.2460  178.6940  140.6870 Cl  0  0  0  0  0  0  0  0  0  0  0  0
  189.1970  177.1740  145.9360 N   0  0  0  0  0  2  0  0  0  0  0  0
  188.6000  175.4390  144.3210 C   0  0  2  0  0  3  0  0  0  0  0  0
  185.5130  177.2510  145.3180 C   0  0  0  0  0  3  0  0  0  0  0  0
  186.4690  177.2560  140.0180 C   0  0  0  0  0  3  0  0  0  0  0  0
  187.8050  177.4830  146.0850 C   0  0  0  0  0  0  0  0  0  0  0  0
  187.3640  178.2420  147.1720 C   0  0  0  0  0  3  0  0  0  0  0  0
  189.0280  174.5620  143.1370 C   0  0  0  0  0  2  0  0  0  0  0  0
  187.8400  176.0780  141.6270 C   0  0  0  0  0  0  0  0  0  0  0  0
  187.5740  176.4530  140.3080 C   0  0  0  0  0  3  0  0  0  0  0  0
  190.9750  175.7000  145.1500 C   0  0  0  0  0  2  0  0  0  0  0  0
  192.2320  177.5630  144.3180 O   0  0  0  0  0  1  0  0  0  0  0  0
  192.1060  176.1740  144.2450 C   0  0  1  0  0  3  0  0  0  0  0  0
  195.8090  174.4320  145.3410 C   0  0  0  0  0  0  0  0  0  0  0  0
  193.9030  175.8230  145.8140 C   0  0  0  0  0  3  0  0  0  0  0  0
  193.5510  174.4130  142.5990 O   0  0  0  0  0  0  0  0  0  0  0  0
  197.1170  173.8510  145.7410 C   0  0  0  0  0  1  0  0  0  0  0  0
  195.1280  175.2830  146.2090 C   0  0  0  0  0  3  0  0  0  0  0  0
  194.0330  174.6860  143.7310 C   0  0  0  0  0  0  0  0  0  0  0  0
  193.3710  175.5230  144.5960 N   0  0  0  0  0  0  0  0  0  0  0  0
  195.2610  174.1290  144.0970 C   0  0  0  0  0  3  0  0  0  0  0  0
  1  9  1  0  0  0  0
  1  6  1  0  0  0  0
  2 13  1  0  0  0  0
  2  5  1  0  0  0  0
  3  2  1  0  0  0  0
  4  7  2  0  0  0  0
  5 14  1  0  0  0  0
  5 16  2  0  0  0  0
  7  3  1  0  0  0  0
  8 21  1  1  0  0  0
  8 12  1  0  0  0  0
 10 18  1  0  0  0  0
 11  4  1  0  0  0  0
 12 16  1  0  0  0  0
 13 18  1  6  0  0  0
 13  8  1  0  0  0  0
 14  1  2  0  0  0  0
 15 20  2  0  0  0  0
 15  4  1  0  0  0  0
 16 17  1  0  0  0  0
 17  6  2  0  0  0  0
 19 10  1  0  0  0  0
 19  3  2  0  0  0  0
 20 19  1  0  0  0  0
 23 22  1  1  0  0  0
 23 30  1  0  0  0  0
 23 21  1  0  0  0  0
 24 27  1  0  0  0  0
 24 28  1  0  0  0  0
 25 28  2  0  0  0  0
 26 29  2  0  0  0  0
 29 31  1  0  0  0  0
 29 30  1  0  0  0  0
 30 25  1  0  0  0  0
 31 24  2  0  0  0  0
M  END
>  <MODEL>
6

>  <REMARK>
 VINA RESULT:      -7.8      3.471      8.379
  Name = 
  3 active torsions:
  status: ('A' for Active; 'I' for Inactive)
    1  A    between atoms: C_5  and  C_16
    2  A    between atoms: C_5  and  N_30
    3  A    between atoms: C_10  and  C_16
                            x       y       z     vdW  Elec       q    Type
                         _______ _______ _______ _____ _____    ______ ____

>  <TORSDO>
F 3

$$$$
=
 OpenBabel11112416493D

 31 35  0  0  1  0  0  0  0  0999 V2000
  185.1100  178.1240  146.6710 C   0  0  0  0  0  0  0  0  0  0  0  0
  187.8640  176.0280  145.2030 N   0  0  0  0  0  0  0  0  0  0  0  0
  187.7750  176.0540  143.7570 C   0  0  0  0  0  0  0  0  0  0  0  0
  186.7110  176.7910  141.6950 C   0  0  0  0  0  0  0  0  0  0  0  0
  187.1480  176.9850  146.0110 C   0  0  0  0  0  0  0  0  0  0  0  0
  185.8230  178.8480  147.6320 C   0  0  0  0  0  3  0  0  0  0  0  0
  186.7320  176.7170  143.0910 C   0  0  0  0  0  3  0  0  0  0  0  0
  189.9850  176.5340  146.3030 C   0  0  2  0  0  3  0  0  0  0  0  0
  183.7130  178.3350  146.5160 N   0  0  0  0  0  1  0  0  0  0  0  0
  189.8470  174.8070  143.6340 O   0  0  0  0  0  0  0  0  0  0  0  0
  185.4010  177.6180  140.8840 Cl  0  0  0  0  0  0  0  0  0  0  0  0
  189.2620  177.4710  147.1640 N   0  0  0  0  0  2  0  0  0  0  0  0
  189.0350  175.4190  145.8550 C   0  0  2  0  0  3  0  0  0  0  0  0
  185.7700  177.1910  145.8650 C   0  0  0  0  0  3  0  0  0  0  0  0
  187.7460  176.2200  140.9500 C   0  0  0  0  0  3  0  0  0  0  0  0
  187.8600  177.7140  146.9840 C   0  0  0  0  0  0  0  0  0  0  0  0
  187.1960  178.6410  147.7910 C   0  0  0  0  0  3  0  0  0  0  0  0
  189.7080  174.3560  144.9770 C   0  0  0  0  0  2  0  0  0  0  0  0
  188.8030  175.4690  142.9940 C   0  0  0  0  0  0  0  0  0  0  0  0
  188.7920  175.5610  141.5990 C   0  0  0  0  0  3  0  0  0  0  0  0
  191.1950  175.9870  147.0430 C   0  0  0  0  0  2  0  0  0  0  0  0
  193.4340  176.8120  147.2630 O   0  0  0  0  0  1  0  0  0  0  0  0
  192.4730  176.4140  146.3310 C   0  0  1  0  0  3  0  0  0  0  0  0
  194.0750  173.2500  144.0120 C   0  0  0  0  0  0  0  0  0  0  0  0
  193.3430  174.1750  146.1090 C   0  0  0  0  0  3  0  0  0  0  0  0
  192.8590  176.5560  143.5510 O   0  0  0  0  0  0  0  0  0  0  0  0
  194.6600  172.1340  143.2250 C   0  0  0  0  0  1  0  0  0  0  0  0
  193.8880  173.1140  145.3870 C   0  0  0  0  0  3  0  0  0  0  0  0
  193.1720  175.4820  144.1320 C   0  0  0  0  0  0  0  0  0  0  0  0
  192.9920  175.3350  145.4850 N   0  0  0  0  0  0  0  0  0  0  0  0
  193.7160  174.4380  143.3800 C   0  0  0  0  0  3  0  0  0  0  0  0
  1  6  1  0  0  0  0
  2 13  1  0  0  0  0
  2  5  1  0  0  0  0
  3  2  1  0  0  0  0
  4  7  2  0  0  0  0
  5 16  2  0  0  0  0
  6 17  2  0  0  0  0
  7  3  1  0  0  0  0
  8 21  1  1  0  0  0
  8 12  1  0  0  0  0
  9  1  1  0  0  0  0
 10 18  1  0  0  0  0
 11  4  1  0  0  0  0
 13 18  1  6  0  0  0
 13  8  1  0  0  0  0
 14  5  1  0  0  0  0
 14  1  2  0  0  0  0
 15 20  2  0  0  0  0
 15  4  1  0  0  0  0
 16 12  1  0  0  0  0
 16 17  1  0  0  0  0
 19 10  1  0  0  0  0
 19  3  2  0  0  0  0
 20 19  1  0  0  0  0
 23 21  1  0  0  0  0
 23 22  1  1  0  0  0
 24 28  1  0  0  0  0
 26 29  2  0  0  0  0
 27 24  1  0  0  0  0
 28 25  2  0  0  0  0
 29 30  1  0  0  0  0
 30 25  1  0  0  0  0
 30 23  1  0  0  0  0
 31 24  2  0  0  0  0
 31 29  1  0  0  0  0
M  END
>  <MODEL>
7

>  <REMARK>
 VINA RESULT:      -7.8      3.361      7.720
  Name = 
  3 active torsions:
  status: ('A' for Active; 'I' for Inactive)
    1  A    between atoms: C_5  and  C_16
    2  A    between atoms: C_5  and  N_30
    3  A    between atoms: C_10  and  C_16
                            x       y       z     vdW  Elec       q    Type
                         _______ _______ _______ _____ _____    ______ ____

>  <TORSDO>
F 3

$$$$
=
 OpenBabel11112416493D

 31 35  0  0  1  0  0  0  0  0999 V2000
  195.3530  174.4100  144.6440 C   0  0  0  0  0  0  0  0  0  0  0  0
  191.8190  174.8830  143.4540 N   0  0  0  0  0  0  0  0  0  0  0  0
  191.2750  173.6090  143.0310 C   0  0  0  0  0  0  0  0  0  0  0  0
  191.4820  171.2090  142.6780 C   0  0  0  0  0  0  0  0  0  0  0  0
  193.0230  174.9540  144.2460 C   0  0  0  0  0  0  0  0  0  0  0  0
  195.3270  175.1530  145.8290 C   0  0  0  0  0  3  0  0  0  0  0  0
  192.0520  172.4390  143.0190 C   0  0  0  0  0  3  0  0  0  0  0  0
  190.5790  176.2750  145.0320 C   0  0  2  0  0  3  0  0  0  0  0  0
  196.5490  173.7540  144.2440 N   0  0  0  0  0  1  0  0  0  0  0  0
  189.1220  174.6670  142.7050 O   0  0  0  0  0  0  0  0  0  0  0  0
  192.4670  169.7640  142.6650 Cl  0  0  0  0  0  0  0  0  0  0  0  0
  191.8060  176.3970  145.8190 N   0  0  0  0  0  2  0  0  0  0  0  0
  190.9380  176.0580  143.5590 C   0  0  2  0  0  3  0  0  0  0  0  0
  194.2050  174.3130  143.8520 C   0  0  0  0  0  3  0  0  0  0  0  0
  190.1220  171.1310  142.3660 C   0  0  0  0  0  3  0  0  0  0  0  0
  193.0030  175.7050  145.4380 C   0  0  0  0  0  0  0  0  0  0  0  0
  194.1540  175.8020  146.2240 C   0  0  0  0  0  3  0  0  0  0  0  0
  189.7160  175.9580  142.6380 C   0  0  0  0  0  2  0  0  0  0  0  0
  189.9100  173.5190  142.6980 C   0  0  0  0  0  0  0  0  0  0  0  0
  189.3370  172.2860  142.3780 C   0  0  0  0  0  3  0  0  0  0  0  0
  189.7170  177.5100  145.2320 C   0  0  0  0  0  2  0  0  0  0  0  0
  188.8000  177.8660  147.4160 O   0  0  0  0  0  1  0  0  0  0  0  0
  188.5870  177.2020  146.2070 C   0  0  1  0  0  3  0  0  0  0  0  0
  184.8980  178.4000  144.5020 C   0  0  0  0  0  0  0  0  0  0  0  0
  187.2930  178.1890  144.4260 C   0  0  0  0  0  3  0  0  0  0  0  0
  186.0930  176.7900  147.4340 O   0  0  0  0  0  0  0  0  0  0  0  0
  183.6190  178.8490  143.8920 C   0  0  0  0  0  1  0  0  0  0  0  0
  186.1030  178.6130  143.8350 C   0  0  0  0  0  3  0  0  0  0  0  0
  186.1050  177.3530  146.3070 C   0  0  0  0  0  0  0  0  0  0  0  0
  187.2860  177.5690  145.6400 N   0  0  0  0  0  0  0  0  0  0  0  0
  184.8960  177.7660  145.7420 C   0  0  0  0  0  3  0  0  0  0  0  0
  1  6  1  0  0  0  0
  2 13  1  0  0  0  0
  2  5  1  0  0  0  0
  3  2  1  0  0  0  0
  4  7  2  0  0  0  0
  5 16  2  0  0  0  0
  6 17  2  0  0  0  0
  7  3  1  0  0  0  0
  8 21  1  6  0  0  0
  8 12  1  0  0  0  0
  9  1  1  0  0  0  0
 11  4  1  0  0  0  0
 13 18  1  6  0  0  0
 13  8  1  0  0  0  0
 14  5  1  0  0  0  0
 14  1  2  0  0  0  0
 15 20  2  0  0  0  0
 15  4  1  0  0  0  0
 16 12  1  0  0  0  0
 16 17  1  0  0  0  0
 18 10  1  0  0  0  0
 19 10  1  0  0  0  0
 19  3  2  0  0  0  0
 20 19  1  0  0  0  0
 21 23  1  0  0  0  0
 23 22  1  1  0  0  0
 24 31  2  0  0  0  0
 25 30  1  0  0  0  0
 27 24  1  0  0  0  0
 28 25  2  0  0  0  0
 28 24  1  0  0  0  0
 29 26  2  0  0  0  0
 30 23  1  0  0  0  0
 30 29  1  0  0  0  0
 31 29  1  0  0  0  0
M  END
>  <MODEL>
8

>  <REMARK>
 VINA RESULT:      -7.6      2.303      4.355
  Name = 
  3 active torsions:
  status: ('A' for Active; 'I' for Inactive)
    1  A    between atoms: C_5  and  C_16
    2  A    between atoms: C_5  and  N_30
    3  A    between atoms: C_10  and  C_16
                            x       y       z     vdW  Elec       q    Type
                         _______ _______ _______ _____ _____    ______ ____

>  <TORSDO>
F 3

$$$$
=
 OpenBabel11112416493D

 31 35  0  0  1  0  0  0  0  0999 V2000
  192.2310  171.0660  143.1610 C   0  0  0  0  0  0  0  0  0  0  0  0
  192.9220  174.3270  144.8990 N   0  0  0  0  0  0  0  0  0  0  0  0
  194.1620  174.8870  144.4030 C   0  0  0  0  0  0  0  0  0  0  0  0
  196.1200  174.7990  142.9600 C   0  0  0  0  0  0  0  0  0  0  0  0
  192.2520  173.2600  144.1950 C   0  0  0  0  0  0  0  0  0  0  0  0
  190.8780  171.2240  142.8450 C   0  0  0  0  0  3  0  0  0  0  0  0
  194.9670  174.2030  143.4780 C   0  0  0  0  0  3  0  0  0  0  0  0
  190.9010  175.6970  144.9510 C   0  0  2  0  0  3  0  0  0  0  0  0
  192.9100  169.8710  142.7960 N   0  0  0  0  0  1  0  0  0  0  0  0
  193.7530  176.8820  145.7140 O   0  0  0  0  0  0  0  0  0  0  0  0
  197.1110  173.9280  141.8100 Cl  0  0  0  0  0  0  0  0  0  0  0  0
  190.1960  174.6030  144.2820 N   0  0  0  0  0  2  0  0  0  0  0  0
  192.0550  175.1280  145.7800 C   0  0  2  0  0  3  0  0  0  0  0  0
  192.9170  172.0790  143.8380 C   0  0  0  0  0  3  0  0  0  0  0  0
  196.4720  176.0940  143.3460 C   0  0  0  0  0  3  0  0  0  0  0  0
  190.8870  173.4130  143.8780 C   0  0  0  0  0  0  0  0  0  0  0  0
  190.2060  172.3960  143.2060 C   0  0  0  0  0  3  0  0  0  0  0  0
  192.8370  176.1950  146.5570 C   0  0  0  0  0  2  0  0  0  0  0  0
  194.5370  176.1860  144.7970 C   0  0  0  0  0  0  0  0  0  0  0  0
  195.6790  176.7880  144.2630 C   0  0  0  0  0  3  0  0  0  0  0  0
  189.9240  176.4900  145.8040 C   0  0  0  0  0  2  0  0  0  0  0  0
  188.8230  175.0350  147.3570 O   0  0  0  0  0  1  0  0  0  0  0  0
  188.6940  175.6420  146.1070 C   0  0  1  0  0  3  0  0  0  0  0  0
  185.1050  177.8940  146.0820 C   0  0  0  0  0  0  0  0  0  0  0  0
  186.9260  176.8290  147.2400 C   0  0  0  0  0  3  0  0  0  0  0  0
  187.3520  176.4150  143.7620 O   0  0  0  0  0  0  0  0  0  0  0  0
  183.8350  178.6660  146.1010 C   0  0  0  0  0  1  0  0  0  0  0  0
  185.7370  177.5580  147.2780 C   0  0  0  0  0  3  0  0  0  0  0  0
  186.8580  176.7730  144.8650 C   0  0  0  0  0  0  0  0  0  0  0  0
  187.4710  176.4480  146.0500 N   0  0  0  0  0  0  0  0  0  0  0  0
  185.6670  177.5020  144.8690 C   0  0  0  0  0  3  0  0  0  0  0  0
  1 14  1  0  0  0  0
  2 13  1  0  0  0  0
  3 19  1  0  0  0  0
  3  2  1  0  0  0  0
  4 15  2  0  0  0  0
  4  7  1  0  0  0  0
  5  2  1  0  0  0  0
  6  1  2  0  0  0  0
  6 17  1  0  0  0  0
  7  3  2  0  0  0  0
  8 13  1  0  0  0  0
  8 21  1  1  0  0  0
  9  1  1  0  0  0  0
 10 18  1  0  0  0  0
 11  4  1  0  0  0  0
 12  8  1  0  0  0  0
 13 18  1  6  0  0  0
 14  5  2  0  0  0  0
 15 20  1  0  0  0  0
 16  5  1  0  0  0  0
 16 12  1  0  0  0  0
 17 16  2  0  0  0  0
 19 10  1  0  0  0  0
 20 19  2  0  0  0  0
 21 23  1  0  0  0  0
 23 22  1  1  0  0  0
 24 27  1  0  0  0  0
 24 28  1  0  0  0  0
 25 28  2  0  0  0  0
 26 29  2  0  0  0  0
 29 31  1  0  0  0  0
 29 30  1  0  0  0  0
 30 23  1  0  0  0  0
 30 25  1  0  0  0  0
 31 24  2  0  0  0  0
M  END
>  <MODEL>
9

>  <REMARK>
 VINA RESULT:      -7.5      2.068      2.978
  Name = 
  3 active torsions:
  status: ('A' for Active; 'I' for Inactive)
    1  A    between atoms: C_5  and  C_16
    2  A    between atoms: C_5  and  N_30
    3  A    between atoms: C_10  and  C_16
                            x       y       z     vdW  Elec       q    Type
                         _______ _______ _______ _____ _____    ______ ____

>  <TORSDO>
F 3

$$$$
