=
 OpenBabel11112417333D

 37 42  0  0  1  0  0  0  0  0999 V2000
  190.3250  174.7810  145.4050 C   0  0  1  0  0  3  0  0  0  0  0  0
  187.4570  175.3180  143.7460 O   0  0  0  0  0  0  0  0  0  0  0  0
  192.5850  173.4720  145.4250 C   0  0  2  0  0  3  0  0  0  0  0  0
  189.8020  175.4300  144.1360 C   0  0  2  0  0  3  0  0  0  0  0  0
  191.1520  173.6080  144.8660 C   0  0  2  0  0  3  0  0  0  0  0  0
  188.4640  176.1580  144.2460 C   0  0  2  0  0  3  0  0  0  0  0  0
  193.0950  174.7860  146.0000 C   0  0  0  0  0  2  0  0  0  0  0  0
  191.0500  173.7260  143.3540 C   0  0  0  0  0  2  0  0  0  0  0  0
  190.2290  176.6790  147.0450 C   0  0  0  0  0  2  0  0  0  0  0  0
  192.1560  175.2680  146.9210 O   0  0  0  0  0  0  0  0  0  0  0  0
  187.9170  176.6590  141.6190 C   0  0  0  0  0  2  0  0  0  0  0  0
  187.1830  175.5500  142.3650 C   0  0  1  0  0  3  0  0  0  0  0  0
  191.1420  175.8490  146.1480 C   0  0  1  0  0  3  0  0  0  0  0  0
  189.7760  174.4060  143.0980 N   0  0  2  0  0  0  0  0  0  0  0  0
  188.1210  176.6690  145.6560 C   0  0  1  0  0  3  0  0  0  0  0  0
  188.3420  175.2140  141.3860 C   0  0  2  0  0  3  0  0  0  0  0  0
  189.7380  175.0940  141.8580 N   0  0  0  0  0  0  0  0  0  0  0  0
  189.2460  177.5270  146.2420 C   0  0  0  0  0  2  0  0  0  0  0  0
  185.7790  177.0120  146.4590 C   0  0  0  0  0  3  0  0  0  0  0  0
  186.8370  177.4400  145.6490 C   0  0  0  0  0  0  0  0  0  0  0  0
  186.6740  178.5760  144.8410 C   0  0  0  0  0  3  0  0  0  0  0  0
  185.3100  180.3700  144.0640 F   0  0  0  0  0  0  0  0  0  0  0  0
  184.4100  178.8420  145.6570 C   0  0  0  0  0  3  0  0  0  0  0  0
  185.4630  179.2740  144.8450 C   0  0  0  0  0  0  0  0  0  0  0  0
  184.5690  177.7100  146.4630 C   0  0  0  0  0  3  0  0  0  0  0  0
  190.4010  174.3220  140.7980 C   0  0  0  0  0  2  0  0  0  0  0  0
  189.3800  173.5840  139.9320 C   0  0  1  0  0  3  0  0  0  0  0  0
  188.3760  173.9670  137.8520 C   0  0  0  0  0  1  0  0  0  0  0  0
  189.6560  173.8050  138.5190 N   0  0  0  0  0  2  0  0  0  0  0  0
  189.3870  172.0940  140.2510 C   0  0  0  0  0  2  0  0  0  0  0  0
  190.8060  171.5620  140.3790 C   0  0  0  0  0  2  0  0  0  0  0  0
  190.8970  170.5550  141.5090 C   0  0  0  0  0  1  0  0  0  0  0  0
  193.4830  172.9800  144.4600 O   0  0  0  0  0  0  0  0  0  0  0  0
  193.8120  171.6540  144.8020 C   0  0  0  0  0  0  0  0  0  0  0  0
  194.1550  171.5610  146.1440 F   0  0  0  0  0  0  0  0  0  0  0  0
  192.7590  170.7960  144.5270 F   0  0  0  0  0  0  0  0  0  0  0  0
  194.9010  171.2620  144.0470 F   0  0  0  0  0  0  0  0  0  0  0  0
  1 13  1  0  0  0  0
  2  6  1  0  0  0  0
  3  7  1  0  0  0  0
  4  6  1  0  0  0  0
  4  1  1  0  0  0  0
  5  1  1  0  0  0  0
  5  3  1  0  0  0  0
  6 15  1  0  0  0  0
  7 10  1  0  0  0  0
  8  5  1  0  0  0  0
 11 12  1  0  0  0  0
 12  2  1  0  0  0  0
 13 10  1  0  0  0  0
 13  9  1  0  0  0  0
 14  8  1  0  0  0  0
 14  4  1  0  0  0  0
 15 18  1  0  0  0  0
 16 11  1  0  0  0  0
 16 17  1  0  0  0  0
 16 12  1  0  0  0  0
 17 14  1  0  0  0  0
 18  9  1  0  0  0  0
 19 25  1  0  0  0  0
 20 15  1  0  0  0  0
 20 19  2  0  0  0  0
 21 24  2  0  0  0  0
 21 20  1  0  0  0  0
 22 24  1  0  0  0  0
 23 25  2  0  0  0  0
 24 23  1  0  0  0  0
 26 17  1  0  0  0  0
 27 30  1  0  0  0  0
 27 26  1  0  0  0  0
 28 29  1  0  0  0  0
 29 27  1  0  0  0  0
 30 31  1  0  0  0  0
 31 32  1  0  0  0  0
 33 34  1  0  0  0  0
 33  3  1  0  0  0  0
 34 35  1  0  0  0  0
 36 34  1  0  0  0  0
 37 34  1  0  0  0  0
M  END
>  <MODEL>
1

>  <REMARK>
 VINA RESULT:      -7.5      0.000      0.000
  Name = 
  8 active torsions:
  status: ('A' for Active; 'I' for Inactive)
    1  A    between atoms: C_1  and  C_4
    2  A    between atoms: C_1  and  N_27
    3  A    between atoms: C_2  and  O_22
    4  A    between atoms: C_4  and  C_12
    5  A    between atoms: C_4  and  N_37
    6  A    between atoms: C_6  and  O_22
    7  A    between atoms: C_8  and  C_12
    8  A    between atoms: C_23  and  C_30
                            x       y       z     vdW  Elec       q    Type
                         _______ _______ _______ _____ _____    ______ ____

>  <TORSDO>
F 8

$$$$
=
 OpenBabel11112417333D

 37 42  0  0  1  0  0  0  0  0999 V2000
  189.3180  177.2280  145.2310 C   0  0  1  0  0  3  0  0  0  0  0  0
  191.6140  176.0870  143.0640 O   0  0  0  0  0  0  0  0  0  0  0  0
  186.8300  177.9590  145.5410 C   0  0  2  0  0  3  0  0  0  0  0  0
  189.6800  175.9790  144.4480 C   0  0  2  0  0  3  0  0  0  0  0  0
  188.0010  177.6630  144.5790 C   0  0  2  0  0  3  0  0  0  0  0  0
  191.1690  175.6600  144.3250 C   0  0  2  0  0  3  0  0  0  0  0  0
  187.0240  177.2830  146.8920 C   0  0  0  0  0  2  0  0  0  0  0  0
  187.7260  176.6060  143.5220 C   0  0  0  0  0  2  0  0  0  0  0  0
  190.5560  176.8750  147.3860 C   0  0  0  0  0  2  0  0  0  0  0  0
  188.2860  177.6280  147.3910 O   0  0  0  0  0  0  0  0  0  0  0  0
  191.1290  173.6450  142.4840 C   0  0  0  0  0  2  0  0  0  0  0  0
  191.5690  175.0490  142.0860 C   0  0  1  0  0  3  0  0  0  0  0  0
  189.1930  176.8090  146.7040 C   0  0  1  0  0  3  0  0  0  0  0  0
  189.0400  176.0790  143.1410 N   0  0  2  0  0  0  0  0  0  0  0  0
  192.0460  176.2300  145.4530 C   0  0  1  0  0  3  0  0  0  0  0  0
  190.1500  174.5300  141.7230 C   0  0  2  0  0  3  0  0  0  0  0  0
  188.9940  174.7620  142.6160 N   0  0  0  0  0  0  0  0  0  0  0  0
  191.5270  175.8320  146.8370 C   0  0  0  0  0  2  0  0  0  0  0  0
  193.8760  174.5710  145.8340 C   0  0  0  0  0  3  0  0  0  0  0  0
  193.4710  175.7970  145.2950 C   0  0  0  0  0  0  0  0  0  0  0  0
  194.4060  176.6010  144.6220 C   0  0  0  0  0  3  0  0  0  0  0  0
  196.6300  176.9570  143.8450 F   0  0  0  0  0  0  0  0  0  0  0  0
  196.1310  174.9530  145.0350 C   0  0  0  0  0  3  0  0  0  0  0  0
  195.7320  176.1790  144.4940 C   0  0  0  0  0  0  0  0  0  0  0  0
  195.2020  174.1500  145.7050 C   0  0  0  0  0  3  0  0  0  0  0  0
  187.8310  174.5770  141.7380 C   0  0  0  0  0  2  0  0  0  0  0  0
  188.1660  174.9440  140.2930 C   0  0  1  0  0  3  0  0  0  0  0  0
  188.2220  174.1670  138.0850 C   0  0  0  0  0  1  0  0  0  0  0  0
  188.2730  173.7450  139.4740 N   0  0  0  0  0  2  0  0  0  0  0  0
  187.1140  175.8880  139.7230 C   0  0  0  0  0  2  0  0  0  0  0  0
  187.2520  177.2860  140.3050 C   0  0  0  0  0  2  0  0  0  0  0  0
  185.8880  177.9200  140.4980 C   0  0  0  0  0  1  0  0  0  0  0  0
  185.5880  177.5970  144.9880 O   0  0  0  0  0  0  0  0  0  0  0  0
  184.7940  178.7570  144.8950 C   0  0  0  0  0  0  0  0  0  0  0  0
  185.5790  179.8990  144.9610 F   0  0  0  0  0  0  0  0  0  0  0  0
  184.0590  178.7610  143.7200 F   0  0  0  0  0  0  0  0  0  0  0  0
  183.9130  178.7730  145.9590 F   0  0  0  0  0  0  0  0  0  0  0  0
  1 13  1  0  0  0  0
  2  6  1  0  0  0  0
  3  7  1  0  0  0  0
  4  1  1  0  0  0  0
  5  1  1  0  0  0  0
  5  3  1  0  0  0  0
  6  4  1  0  0  0  0
  6 15  1  0  0  0  0
  7 10  1  0  0  0  0
  8  5  1  0  0  0  0
 12 11  1  0  0  0  0
 12  2  1  0  0  0  0
 13  9  1  0  0  0  0
 13 10  1  0  0  0  0
 14  8  1  0  0  0  0
 14  4  1  0  0  0  0
 15 18  1  0  0  0  0
 16 12  1  0  0  0  0
 16 11  1  0  0  0  0
 16 17  1  0  0  0  0
 17 14  1  0  0  0  0
 18  9  1  0  0  0  0
 20 15  1  0  0  0  0
 20 19  2  0  0  0  0
 21 20  1  0  0  0  0
 22 24  1  0  0  0  0
 23 25  2  0  0  0  0
 24 21  2  0  0  0  0
 24 23  1  0  0  0  0
 25 19  1  0  0  0  0
 26 17  1  0  0  0  0
 27 26  1  0  0  0  0
 28 29  1  0  0  0  0
 29 27  1  0  0  0  0
 30 27  1  0  0  0  0
 30 31  1  0  0  0  0
 31 32  1  0  0  0  0
 33  3  1  0  0  0  0
 34 35  1  0  0  0  0
 34 33  1  0  0  0  0
 34 37  1  0  0  0  0
 36 34  1  0  0  0  0
M  END
>  <MODEL>
2

>  <REMARK>
 VINA RESULT:      -7.3      2.591      7.036
  Name = 
  8 active torsions:
  status: ('A' for Active; 'I' for Inactive)
    1  A    between atoms: C_1  and  C_4
    2  A    between atoms: C_1  and  N_27
    3  A    between atoms: C_2  and  O_22
    4  A    between atoms: C_4  and  C_12
    5  A    between atoms: C_4  and  N_37
    6  A    between atoms: C_6  and  O_22
    7  A    between atoms: C_8  and  C_12
    8  A    between atoms: C_23  and  C_30
                            x       y       z     vdW  Elec       q    Type
                         _______ _______ _______ _____ _____    ______ ____

>  <TORSDO>
F 8

$$$$
=
 OpenBabel11112417333D

 37 42  0  0  1  0  0  0  0  0999 V2000
  190.5380  176.7950  144.8680 C   0  0  1  0  0  3  0  0  0  0  0  0
  192.9400  175.8220  142.7340 O   0  0  0  0  0  0  0  0  0  0  0  0
  188.0420  177.5260  145.1080 C   0  0  2  0  0  3  0  0  0  0  0  0
  190.9320  175.6160  143.9970 C   0  0  2  0  0  3  0  0  0  0  0  0
  189.2620  177.3030  144.1870 C   0  0  2  0  0  3  0  0  0  0  0  0
  192.4230  175.2910  143.9260 C   0  0  2  0  0  3  0  0  0  0  0  0
  188.1570  176.7310  146.4020 C   0  0  0  0  0  2  0  0  0  0  0  0
  189.0360  176.3470  143.0270 C   0  0  0  0  0  2  0  0  0  0  0  0
  191.6540  176.2370  147.0460 C   0  0  0  0  0  2  0  0  0  0  0  0
  189.3930  177.0150  146.9960 O   0  0  0  0  0  0  0  0  0  0  0  0
  192.4680  173.4480  141.9130 C   0  0  0  0  0  2  0  0  0  0  0  0
  192.9400  174.8760  141.6660 C   0  0  1  0  0  3  0  0  0  0  0  0
  190.3300  176.2490  146.2890 C   0  0  1  0  0  3  0  0  0  0  0  0
  190.3660  175.8390  142.6720 N   0  0  2  0  0  0  0  0  0  0  0  0
  193.2420  175.7480  145.1460 C   0  0  1  0  0  3  0  0  0  0  0  0
  191.5390  174.4090  141.1830 C   0  0  2  0  0  3  0  0  0  0  0  0
  190.3380  174.5750  142.0290 N   0  0  0  0  0  0  0  0  0  0  0  0
  192.6460  175.2350  146.4590 C   0  0  0  0  0  2  0  0  0  0  0  0
  195.4990  175.9430  144.0900 C   0  0  0  0  0  3  0  0  0  0  0  0
  194.6710  175.3130  145.0250 C   0  0  0  0  0  0  0  0  0  0  0  0
  195.1880  174.2830  145.8270 C   0  0  0  0  0  3  0  0  0  0  0  0
  197.0180  172.8950  146.4650 F   0  0  0  0  0  0  0  0  0  0  0  0
  197.3450  174.5230  144.7540 C   0  0  0  0  0  3  0  0  0  0  0  0
  196.5220  173.8900  145.6900 C   0  0  0  0  0  0  0  0  0  0  0  0
  196.8340  175.5490  143.9550 C   0  0  0  0  0  3  0  0  0  0  0  0
  189.2230  174.4830  141.0780 C   0  0  0  0  0  2  0  0  0  0  0  0
  188.5450  173.1150  141.1520 C   0  0  1  0  0  3  0  0  0  0  0  0
  189.1510  172.2840  139.0490 C   0  0  0  0  0  1  0  0  0  0  0  0
  189.3520  172.1090  140.4770 N   0  0  0  0  0  2  0  0  0  0  0  0
  188.3010  172.7170  142.6030 C   0  0  0  0  0  2  0  0  0  0  0  0
  189.3840  171.7750  143.1070 C   0  0  0  0  0  2  0  0  0  0  0  0
  189.7660  172.1180  144.5350 C   0  0  0  0  0  1  0  0  0  0  0  0
  186.8300  177.2310  144.4600 O   0  0  0  0  0  0  0  0  0  0  0  0
  186.1270  178.4360  144.2730 C   0  0  0  0  0  0  0  0  0  0  0  0
  186.3030  179.2840  145.3570 F   0  0  0  0  0  0  0  0  0  0  0  0
  186.5350  179.0720  143.1100 F   0  0  0  0  0  0  0  0  0  0  0  0
  184.7800  178.1480  144.1610 F   0  0  0  0  0  0  0  0  0  0  0  0
  1 13  1  0  0  0  0
  2  6  1  0  0  0  0
  3  7  1  0  0  0  0
  4  1  1  0  0  0  0
  5  1  1  0  0  0  0
  5  3  1  0  0  0  0
  6  4  1  0  0  0  0
  6 15  1  0  0  0  0
  7 10  1  0  0  0  0
  8  5  1  0  0  0  0
 12 11  1  0  0  0  0
 12  2  1  0  0  0  0
 13 10  1  0  0  0  0
 13  9  1  0  0  0  0
 14  8  1  0  0  0  0
 14  4  1  0  0  0  0
 15 18  1  0  0  0  0
 16 12  1  0  0  0  0
 16 11  1  0  0  0  0
 16 17  1  0  0  0  0
 17 14  1  0  0  0  0
 18  9  1  0  0  0  0
 19 20  1  0  0  0  0
 20 15  1  0  0  0  0
 20 21  2  0  0  0  0
 23 24  2  0  0  0  0
 24 21  1  0  0  0  0
 24 22  1  0  0  0  0
 25 19  2  0  0  0  0
 25 23  1  0  0  0  0
 26 27  1  0  0  0  0
 26 17  1  0  0  0  0
 27 30  1  0  0  0  0
 28 29  1  0  0  0  0
 29 27  1  0  0  0  0
 30 31  1  0  0  0  0
 31 32  1  0  0  0  0
 33  3  1  0  0  0  0
 34 33  1  0  0  0  0
 34 35  1  0  0  0  0
 36 34  1  0  0  0  0
 37 34  1  0  0  0  0
M  END
>  <MODEL>
3

>  <REMARK>
 VINA RESULT:      -7.2      2.233      7.046
  Name = 
  8 active torsions:
  status: ('A' for Active; 'I' for Inactive)
    1  A    between atoms: C_1  and  C_4
    2  A    between atoms: C_1  and  N_27
    3  A    between atoms: C_2  and  O_22
    4  A    between atoms: C_4  and  C_12
    5  A    between atoms: C_4  and  N_37
    6  A    between atoms: C_6  and  O_22
    7  A    between atoms: C_8  and  C_12
    8  A    between atoms: C_23  and  C_30
                            x       y       z     vdW  Elec       q    Type
                         _______ _______ _______ _____ _____    ______ ____

>  <TORSDO>
F 8

$$$$
=
 OpenBabel11112417333D

 37 42  0  0  1  0  0  0  0  0999 V2000
  188.9790  176.7030  144.7670 C   0  0  1  0  0  3  0  0  0  0  0  0
  191.6550  175.6460  143.0380 O   0  0  0  0  0  0  0  0  0  0  0  0
  186.5460  177.6390  144.6040 C   0  0  2  0  0  3  0  0  0  0  0  0
  189.4370  175.5460  143.8970 C   0  0  2  0  0  3  0  0  0  0  0  0
  187.8950  177.3620  143.9060 C   0  0  2  0  0  3  0  0  0  0  0  0
  190.8850  175.0950  144.0740 C   0  0  2  0  0  3  0  0  0  0  0  0
  186.3550  176.7630  145.8350 C   0  0  0  0  0  2  0  0  0  0  0  0
  187.8180  176.5000  142.6560 C   0  0  0  0  0  2  0  0  0  0  0  0
  189.6220  175.9210  147.0640 C   0  0  0  0  0  2  0  0  0  0  0  0
  187.4760  176.9000  146.6630 O   0  0  0  0  0  0  0  0  0  0  0  0
  191.1640  173.3760  141.9720 C   0  0  0  0  0  2  0  0  0  0  0  0
  191.7820  174.7680  141.9210 C   0  0  1  0  0  3  0  0  0  0  0  0
  188.4670  176.0960  146.0820 C   0  0  1  0  0  3  0  0  0  0  0  0
  189.1470  175.8970  142.5120 N   0  0  2  0  0  0  0  0  0  0  0  0
  191.4940  175.4040  145.4530 C   0  0  1  0  0  3  0  0  0  0  0  0
  190.4640  174.4570  141.1580 C   0  0  2  0  0  3  0  0  0  0  0  0
  189.1430  174.6800  141.7830 N   0  0  0  0  0  0  0  0  0  0  0  0
  190.6250  174.8710  146.5940 C   0  0  0  0  0  2  0  0  0  0  0  0
  193.9420  175.7180  145.8500 C   0  0  0  0  0  3  0  0  0  0  0  0
  192.8820  174.8510  145.5620 C   0  0  0  0  0  0  0  0  0  0  0  0
  193.1380  173.4840  145.3730 C   0  0  0  0  0  3  0  0  0  0  0  0
  194.6850  171.6730  145.2880 F   0  0  0  0  0  0  0  0  0  0  0  0
  195.4970  173.8640  145.7600 C   0  0  0  0  0  3  0  0  0  0  0  0
  194.4430  172.9930  145.4720 C   0  0  0  0  0  0  0  0  0  0  0  0
  195.2460  175.2270  145.9490 C   0  0  0  0  0  3  0  0  0  0  0  0
  188.2210  174.7440  140.6410 C   0  0  0  0  0  2  0  0  0  0  0  0
  188.7290  173.8980  139.4740 C   0  0  1  0  0  3  0  0  0  0  0  0
  189.2840  171.7050  138.8670 C   0  0  0  0  0  1  0  0  0  0  0  0
  188.3630  172.5010  139.6590 N   0  0  0  0  0  2  0  0  0  0  0  0
  188.1790  174.4230  138.1530 C   0  0  0  0  0  2  0  0  0  0  0  0
  187.2820  175.6320  138.3700 C   0  0  0  0  0  2  0  0  0  0  0  0
  186.5630  175.9990  137.0860 C   0  0  0  0  0  1  0  0  0  0  0  0
  185.4570  177.4920  143.7260 O   0  0  0  0  0  0  0  0  0  0  0  0
  185.0130  178.7770  143.3570 C   0  0  0  0  0  0  0  0  0  0  0  0
  183.6380  178.8850  143.5030 F   0  0  0  0  0  0  0  0  0  0  0  0
  185.6430  179.7530  144.1140 F   0  0  0  0  0  0  0  0  0  0  0  0
  185.3280  178.9870  142.0290 F   0  0  0  0  0  0  0  0  0  0  0  0
  1 13  1  0  0  0  0
  2  6  1  0  0  0  0
  3  7  1  0  0  0  0
  4  6  1  0  0  0  0
  4  1  1  0  0  0  0
  5  3  1  0  0  0  0
  5  1  1  0  0  0  0
  6 15  1  0  0  0  0
  7 10  1  0  0  0  0
  8  5  1  0  0  0  0
 12 11  1  0  0  0  0
 12  2  1  0  0  0  0
 13 10  1  0  0  0  0
 13  9  1  0  0  0  0
 14  8  1  0  0  0  0
 14  4  1  0  0  0  0
 15 20  1  0  0  0  0
 15 18  1  0  0  0  0
 16 17  1  0  0  0  0
 16 12  1  0  0  0  0
 16 11  1  0  0  0  0
 17 14  1  0  0  0  0
 18  9  1  0  0  0  0
 19 25  1  0  0  0  0
 20 19  2  0  0  0  0
 21 24  2  0  0  0  0
 21 20  1  0  0  0  0
 22 24  1  0  0  0  0
 23 25  2  0  0  0  0
 24 23  1  0  0  0  0
 26 17  1  0  0  0  0
 27 29  1  0  0  0  0
 27 26  1  0  0  0  0
 28 29  1  0  0  0  0
 30 31  1  0  0  0  0
 30 27  1  0  0  0  0
 32 31  1  0  0  0  0
 33  3  1  0  0  0  0
 34 35  1  0  0  0  0
 34 33  1  0  0  0  0
 34 36  1  0  0  0  0
 37 34  1  0  0  0  0
M  END
>  <MODEL>
4

>  <REMARK>
 VINA RESULT:      -7.2      1.670      7.019
  Name = 
  8 active torsions:
  status: ('A' for Active; 'I' for Inactive)
    1  A    between atoms: C_1  and  C_4
    2  A    between atoms: C_1  and  N_27
    3  A    between atoms: C_2  and  O_22
    4  A    between atoms: C_4  and  C_12
    5  A    between atoms: C_4  and  N_37
    6  A    between atoms: C_6  and  O_22
    7  A    between atoms: C_8  and  C_12
    8  A    between atoms: C_23  and  C_30
                            x       y       z     vdW  Elec       q    Type
                         _______ _______ _______ _____ _____    ______ ____

>  <TORSDO>
F 8

$$$$
=
 OpenBabel11112417333D

 37 42  0  0  1  0  0  0  0  0999 V2000
  190.4690  174.1480  141.3250 C   0  0  1  0  0  3  0  0  0  0  0  0
  189.6540  177.2790  142.2160 O   0  0  0  0  0  0  0  0  0  0  0  0
  192.4230  172.4460  140.9890 C   0  0  2  0  0  3  0  0  0  0  0  0
  190.4090  175.0460  142.5470 C   0  0  2  0  0  3  0  0  0  0  0  0
  191.9750  173.9150  141.1520 C   0  0  2  0  0  3  0  0  0  0  0  0
  189.2250  176.0070  142.6260 C   0  0  2  0  0  3  0  0  0  0  0  0
  191.3850  171.4750  141.5340 C   0  0  0  0  0  2  0  0  0  0  0  0
  192.6160  174.6680  142.3070 C   0  0  0  0  0  2  0  0  0  0  0  0
  188.1890  173.0980  141.3310 C   0  0  0  0  0  2  0  0  0  0  0  0
  190.1440  171.7710  140.9570 O   0  0  0  0  0  0  0  0  0  0  0  0
  189.9580  177.5760  144.7360 C   0  0  0  0  0  2  0  0  0  0  0  0
  190.0690  178.0980  143.3090 C   0  0  1  0  0  3  0  0  0  0  0  0
  189.6630  172.8830  141.6610 C   0  0  1  0  0  3  0  0  0  0  0  0
  191.6830  175.7500  142.6370 N   0  0  2  0  0  0  0  0  0  0  0  0
  187.9750  175.5590  141.8490 C   0  0  1  0  0  3  0  0  0  0  0  0
  191.3300  177.6080  144.0740 C   0  0  2  0  0  3  0  0  0  0  0  0
  191.7940  176.2080  143.9750 N   0  0  0  0  0  0  0  0  0  0  0  0
  187.5410  174.1430  142.2350 C   0  0  0  0  0  2  0  0  0  0  0  0
  186.2880  176.6550  143.3310 C   0  0  0  0  0  3  0  0  0  0  0  0
  186.8430  176.5180  142.0540 C   0  0  0  0  0  0  0  0  0  0  0  0
  186.3280  177.2740  140.9890 C   0  0  0  0  0  3  0  0  0  0  0  0
  184.7710  178.8840  140.1740 F   0  0  0  0  0  0  0  0  0  0  0  0
  184.7150  178.2890  142.4820 C   0  0  0  0  0  3  0  0  0  0  0  0
  185.2660  178.1570  141.2040 C   0  0  0  0  0  0  0  0  0  0  0  0
  185.2260  177.5380  143.5450 C   0  0  0  0  0  3  0  0  0  0  0  0
  193.1980  176.2720  144.4030 C   0  0  0  0  0  2  0  0  0  0  0  0
  193.4030  175.5490  145.7340 C   0  0  1  0  0  3  0  0  0  0  0  0
  194.5660  177.5410  146.1370 C   0  0  0  0  0  1  0  0  0  0  0  0
  193.7890  176.4920  146.7740 N   0  0  0  0  0  2  0  0  0  0  0  0
  192.1380  174.8000  146.1350 C   0  0  0  0  0  2  0  0  0  0  0  0
  191.5660  175.3390  147.4380 C   0  0  0  0  0  2  0  0  0  0  0  0
  190.0660  175.1210  147.4920 C   0  0  0  0  0  1  0  0  0  0  0  0
  193.6750  172.2070  141.5830 O   0  0  0  0  0  0  0  0  0  0  0  0
  194.6180  172.0120  140.5550 C   0  0  0  0  0  0  0  0  0  0  0  0
  195.6790  171.2360  140.9990 F   0  0  0  0  0  0  0  0  0  0  0  0
  194.0300  171.4130  139.4510 F   0  0  0  0  0  0  0  0  0  0  0  0
  195.1110  173.2440  140.1700 F   0  0  0  0  0  0  0  0  0  0  0  0
  1 13  1  0  0  0  0
  1  4  1  0  0  0  0
  2  6  1  0  0  0  0
  2 12  1  0  0  0  0
  3  5  1  0  0  0  0
  3  7  1  0  0  0  0
  3 33  1  0  0  0  0
  4  6  1  0  0  0  0
  4 14  1  0  0  0  0
  5  1  1  0  0  0  0
  5  8  1  0  0  0  0
  8 14  1  0  0  0  0
  9 13  1  0  0  0  0
  9 18  1  0  0  0  0
 10  7  1  0  0  0  0
 10 13  1  0  0  0  0
 12 16  1  0  0  0  0
 12 11  1  0  0  0  0
 14 17  1  0  0  0  0
 15 20  1  0  0  0  0
 15 18  1  0  0  0  0
 15  6  1  0  0  0  0
 16 11  1  0  0  0  0
 17 16  1  0  0  0  0
 17 26  1  0  0  0  0
 19 25  1  0  0  0  0
 20 19  2  0  0  0  0
 21 24  2  0  0  0  0
 21 20  1  0  0  0  0
 22 24  1  0  0  0  0
 23 25  2  0  0  0  0
 24 23  1  0  0  0  0
 26 27  1  0  0  0  0
 27 30  1  0  0  0  0
 27 29  1  0  0  0  0
 28 29  1  0  0  0  0
 30 31  1  0  0  0  0
 31 32  1  0  0  0  0
 34 35  1  0  0  0  0
 34 33  1  0  0  0  0
 36 34  1  0  0  0  0
 37 34  1  0  0  0  0
M  END
>  <MODEL>
5

>  <REMARK>
 VINA RESULT:      -7.1      2.740      5.231
  Name = 
  8 active torsions:
  status: ('A' for Active; 'I' for Inactive)
    1  A    between atoms: C_1  and  C_4
    2  A    between atoms: C_1  and  N_27
    3  A    between atoms: C_2  and  O_22
    4  A    between atoms: C_4  and  C_12
    5  A    between atoms: C_4  and  N_37
    6  A    between atoms: C_6  and  O_22
    7  A    between atoms: C_8  and  C_12
    8  A    between atoms: C_23  and  C_30
                            x       y       z     vdW  Elec       q    Type
                         _______ _______ _______ _____ _____    ______ ____

>  <TORSDO>
F 8

$$$$
=
 OpenBabel11112417333D

 37 42  0  0  1  0  0  0  0  0999 V2000
  190.6970  175.7530  144.7520 C   0  0  1  0  0  3  0  0  0  0  0  0
  189.0110  176.3670  141.9160 O   0  0  0  0  0  0  0  0  0  0  0  0
  191.2560  176.6180  147.1520 C   0  0  2  0  0  3  0  0  0  0  0  0
  189.2800  175.7940  144.2110 C   0  0  2  0  0  3  0  0  0  0  0  0
  190.7140  176.9250  145.7390 C   0  0  2  0  0  3  0  0  0  0  0  0
  189.0800  175.2710  142.7900 C   0  0  2  0  0  3  0  0  0  0  0  0
  191.1920  175.1300  147.4720 C   0  0  0  0  0  2  0  0  0  0  0  0
  189.3050  177.4910  145.6900 C   0  0  0  0  0  2  0  0  0  0  0  0
  191.3430  173.3600  144.3520 C   0  0  0  0  0  2  0  0  0  0  0  0
  191.8220  174.4210  146.4410 O   0  0  0  0  0  0  0  0  0  0  0  0
  186.5060  176.0400  142.3010 C   0  0  0  0  0  2  0  0  0  0  0  0
  187.6720  176.7970  141.6770 C   0  0  1  0  0  3  0  0  0  0  0  0
  190.8870  174.3710  145.3990 C   0  0  1  0  0  3  0  0  0  0  0  0
  188.7950  177.1620  144.3550 N   0  0  2  0  0  0  0  0  0  0  0  0
  190.1280  174.2460  142.3250 C   0  0  1  0  0  3  0  0  0  0  0  0
  186.9220  177.3730  142.9100 C   0  0  2  0  0  3  0  0  0  0  0  0
  187.3790  177.0940  144.2880 N   0  0  0  0  0  0  0  0  0  0  0  0
  190.2640  173.0810  143.3090 C   0  0  0  0  0  2  0  0  0  0  0  0
  188.5220  173.2240  140.7060 C   0  0  0  0  0  3  0  0  0  0  0  0
  189.8030  173.7280  140.9570 C   0  0  0  0  0  0  0  0  0  0  0  0
  190.7590  173.7340  139.9300 C   0  0  0  0  0  3  0  0  0  0  0  0
  191.3590  173.2460  137.6760 F   0  0  0  0  0  0  0  0  0  0  0  0
  189.1520  172.7360  138.4190 C   0  0  0  0  0  3  0  0  0  0  0  0
  190.4330  173.2390  138.6640 C   0  0  0  0  0  0  0  0  0  0  0  0
  188.1970  172.7290  139.4400 C   0  0  0  0  0  3  0  0  0  0  0  0
  186.7550  178.1570  145.0870 C   0  0  0  0  0  2  0  0  0  0  0  0
  185.5510  177.6280  145.8650 C   0  0  1  0  0  3  0  0  0  0  0  0
  186.2370  178.5990  147.8830 C   0  0  0  0  0  1  0  0  0  0  0  0
  185.9220  177.3340  147.2420 N   0  0  0  0  0  2  0  0  0  0  0  0
  184.4050  178.6310  145.8240 C   0  0  0  0  0  2  0  0  0  0  0  0
  184.4010  179.4140  144.5200 C   0  0  0  0  0  2  0  0  0  0  0  0
  183.6140  178.6730  143.4560 C   0  0  0  0  0  1  0  0  0  0  0  0
  190.5920  177.3600  148.1450 O   0  0  0  0  0  0  0  0  0  0  0  0
  191.5460  177.7800  149.0920 C   0  0  0  0  0  0  0  0  0  0  0  0
  191.5700  176.9230  150.1830 F   0  0  0  0  0  0  0  0  0  0  0  0
  192.8090  177.8500  148.5240 F   0  0  0  0  0  0  0  0  0  0  0  0
  191.1990  179.0410  149.5370 F   0  0  0  0  0  0  0  0  0  0  0  0
  1 13  1  0  0  0  0
  1  5  1  0  0  0  0
  2  6  1  0  0  0  0
  3  7  1  0  0  0  0
  3 33  1  0  0  0  0
  4 14  1  0  0  0  0
  4  1  1  0  0  0  0
  5  3  1  0  0  0  0
  6  4  1  0  0  0  0
  8  5  1  0  0  0  0
  9 13  1  0  0  0  0
 10  7  1  0  0  0  0
 11 16  1  0  0  0  0
 12  2  1  0  0  0  0
 12 11  1  0  0  0  0
 12 16  1  0  0  0  0
 13 10  1  0  0  0  0
 14  8  1  0  0  0  0
 15  6  1  0  0  0  0
 15 18  1  0  0  0  0
 16 17  1  0  0  0  0
 17 14  1  0  0  0  0
 17 26  1  0  0  0  0
 18  9  1  0  0  0  0
 19 20  1  0  0  0  0
 20 15  1  0  0  0  0
 21 20  2  0  0  0  0
 22 24  1  0  0  0  0
 23 24  2  0  0  0  0
 23 25  1  0  0  0  0
 24 21  1  0  0  0  0
 25 19  2  0  0  0  0
 26 27  1  0  0  0  0
 27 29  1  0  0  0  0
 29 28  1  0  0  0  0
 30 27  1  0  0  0  0
 31 30  1  0  0  0  0
 32 31  1  0  0  0  0
 33 34  1  0  0  0  0
 34 37  1  0  0  0  0
 34 35  1  0  0  0  0
 36 34  1  0  0  0  0
M  END
>  <MODEL>
6

>  <REMARK>
 VINA RESULT:      -7.0      3.139      6.933
  Name = 
  8 active torsions:
  status: ('A' for Active; 'I' for Inactive)
    1  A    between atoms: C_1  and  C_4
    2  A    between atoms: C_1  and  N_27
    3  A    between atoms: C_2  and  O_22
    4  A    between atoms: C_4  and  C_12
    5  A    between atoms: C_4  and  N_37
    6  A    between atoms: C_6  and  O_22
    7  A    between atoms: C_8  and  C_12
    8  A    between atoms: C_23  and  C_30
                            x       y       z     vdW  Elec       q    Type
                         _______ _______ _______ _____ _____    ______ ____

>  <TORSDO>
F 8

$$$$
=
 OpenBabel11112417333D

 37 42  0  0  1  0  0  0  0  0999 V2000
  190.5870  176.8540  144.9580 C   0  0  1  0  0  3  0  0  0  0  0  0
  192.9330  175.9000  142.7560 O   0  0  0  0  0  0  0  0  0  0  0  0
  188.0900  177.5540  145.2740 C   0  0  2  0  0  3  0  0  0  0  0  0
  190.9690  175.6750  144.0830 C   0  0  2  0  0  3  0  0  0  0  0  0
  189.2830  177.3410  144.3160 C   0  0  2  0  0  3  0  0  0  0  0  0
  192.4610  175.3700  143.9670 C   0  0  2  0  0  3  0  0  0  0  0  0
  188.2570  176.7690  146.5680 C   0  0  0  0  0  2  0  0  0  0  0  0
  189.0340  176.3750  143.1690 C   0  0  0  0  0  2  0  0  0  0  0  0
  191.7790  176.3250  147.1030 C   0  0  0  0  0  2  0  0  0  0  0  0
  189.5070  177.0730  147.1210 O   0  0  0  0  0  0  0  0  0  0  0  0
  192.4670  173.5140  141.9640 C   0  0  0  0  0  2  0  0  0  0  0  0
  192.9110  174.9470  141.6940 C   0  0  1  0  0  3  0  0  0  0  0  0
  190.4300  176.3150  146.3890 C   0  0  1  0  0  3  0  0  0  0  0  0
  190.3580  175.8830  142.7750 N   0  0  2  0  0  0  0  0  0  0  0  0
  193.3120  175.8450  145.1570 C   0  0  1  0  0  3  0  0  0  0  0  0
  191.5020  174.4580  141.2580 C   0  0  2  0  0  3  0  0  0  0  0  0
  190.3270  174.6140  142.1410 N   0  0  0  0  0  0  0  0  0  0  0  0
  192.7640  175.3320  146.4910 C   0  0  0  0  0  2  0  0  0  0  0  0
  195.5310  176.0620  144.0280 C   0  0  0  0  0  3  0  0  0  0  0  0
  194.7420  175.4280  144.9940 C   0  0  0  0  0  0  0  0  0  0  0  0
  195.2980  174.4110  145.7860 C   0  0  0  0  0  3  0  0  0  0  0  0
  197.1660  173.0520  146.3750 F   0  0  0  0  0  0  0  0  0  0  0  0
  197.4170  174.6710  144.6430 C   0  0  0  0  0  3  0  0  0  0  0  0
  196.6330  174.0340  145.6100 C   0  0  0  0  0  0  0  0  0  0  0  0
  196.8660  175.6840  143.8530 C   0  0  0  0  0  3  0  0  0  0  0  0
  189.1830  174.5020  141.2260 C   0  0  0  0  0  2  0  0  0  0  0  0
  188.8300  173.0380  140.9610 C   0  0  1  0  0  3  0  0  0  0  0  0
  188.7790  171.9160  143.0160 C   0  0  0  0  0  1  0  0  0  0  0  0
  187.9440  172.5310  141.9990 N   0  0  0  0  0  2  0  0  0  0  0  0
  188.1870  172.8840  139.5880 C   0  0  0  0  0  2  0  0  0  0  0  0
  188.9990  171.9560  138.6980 C   0  0  0  0  0  2  0  0  0  0  0  0
  190.1710  171.3730  139.4650 C   0  0  0  0  0  1  0  0  0  0  0  0
  186.8620  177.2390  144.6650 O   0  0  0  0  0  0  0  0  0  0  0  0
  186.1220  178.4290  144.5280 C   0  0  0  0  0  0  0  0  0  0  0  0
  186.3160  179.2610  145.6220 F   0  0  0  0  0  0  0  0  0  0  0  0
  186.4690  179.0960  143.3640 F   0  0  0  0  0  0  0  0  0  0  0  0
  184.7800  178.1070  144.4600 F   0  0  0  0  0  0  0  0  0  0  0  0
  1 13  1  0  0  0  0
  2  6  1  0  0  0  0
  3  7  1  0  0  0  0
  4  1  1  0  0  0  0
  5  1  1  0  0  0  0
  5  3  1  0  0  0  0
  6  4  1  0  0  0  0
  6 15  1  0  0  0  0
  7 10  1  0  0  0  0
  8  5  1  0  0  0  0
 12 11  1  0  0  0  0
 12  2  1  0  0  0  0
 13  9  1  0  0  0  0
 13 10  1  0  0  0  0
 14  8  1  0  0  0  0
 14  4  1  0  0  0  0
 15 18  1  0  0  0  0
 16 12  1  0  0  0  0
 16 11  1  0  0  0  0
 16 17  1  0  0  0  0
 17 14  1  0  0  0  0
 18  9  1  0  0  0  0
 19 20  1  0  0  0  0
 20 15  1  0  0  0  0
 20 21  2  0  0  0  0
 23 24  2  0  0  0  0
 24 21  1  0  0  0  0
 24 22  1  0  0  0  0
 25 19  2  0  0  0  0
 25 23  1  0  0  0  0
 26 17  1  0  0  0  0
 27 26  1  0  0  0  0
 27 29  1  0  0  0  0
 29 28  1  0  0  0  0
 30 27  1  0  0  0  0
 31 32  1  0  0  0  0
 31 30  1  0  0  0  0
 33  3  1  0  0  0  0
 34 33  1  0  0  0  0
 34 35  1  0  0  0  0
 36 34  1  0  0  0  0
 37 34  1  0  0  0  0
M  END
>  <MODEL>
7

>  <REMARK>
 VINA RESULT:      -7.0      2.241      7.091
  Name = 
  8 active torsions:
  status: ('A' for Active; 'I' for Inactive)
    1  A    between atoms: C_1  and  C_4
    2  A    between atoms: C_1  and  N_27
    3  A    between atoms: C_2  and  O_22
    4  A    between atoms: C_4  and  C_12
    5  A    between atoms: C_4  and  N_37
    6  A    between atoms: C_6  and  O_22
    7  A    between atoms: C_8  and  C_12
    8  A    between atoms: C_23  and  C_30
                            x       y       z     vdW  Elec       q    Type
                         _______ _______ _______ _____ _____    ______ ____

>  <TORSDO>
F 8

$$$$
=
 OpenBabel11112417333D

 37 42  0  0  1  0  0  0  0  0999 V2000
  191.5880  175.4260  144.2530 C   0  0  1  0  0  3  0  0  0  0  0  0
  188.4990  174.7400  143.1330 O   0  0  0  0  0  0  0  0  0  0  0  0
  193.9540  174.4480  144.7730 C   0  0  2  0  0  3  0  0  0  0  0  0
  190.8520  175.0680  142.9750 C   0  0  2  0  0  3  0  0  0  0  0  0
  192.4570  174.1870  144.4990 C   0  0  2  0  0  3  0  0  0  0  0  0
  189.4710  175.6920  142.7880 C   0  0  2  0  0  3  0  0  0  0  0  0
  194.3950  175.8090  144.2500 C   0  0  0  0  0  2  0  0  0  0  0  0
  192.1590  173.2680  143.3240 C   0  0  0  0  0  2  0  0  0  0  0  0
  191.5020  177.9340  144.2250 C   0  0  0  0  0  2  0  0  0  0  0  0
  193.5320  176.7880  144.7590 O   0  0  0  0  0  0  0  0  0  0  0  0
  188.5590  174.3190  140.6120 C   0  0  0  0  0  2  0  0  0  0  0  0
  188.0370  173.9940  142.0070 C   0  0  1  0  0  3  0  0  0  0  0  0
  192.3780  176.7120  143.9670 C   0  0  1  0  0  3  0  0  0  0  0  0
  190.8020  173.6130  142.8900 N   0  0  2  0  0  0  0  0  0  0  0  0
  189.2530  177.0150  143.5430 C   0  0  1  0  0  3  0  0  0  0  0  0
  189.0960  173.0840  141.3240 C   0  0  2  0  0  3  0  0  0  0  0  0
  190.5440  173.3000  141.5300 N   0  0  0  0  0  0  0  0  0  0  0  0
  190.3480  178.0380  143.2310 C   0  0  0  0  0  2  0  0  0  0  0  0
  187.0690  177.9770  144.2870 C   0  0  0  0  0  3  0  0  0  0  0  0
  187.9060  177.5930  143.2330 C   0  0  0  0  0  0  0  0  0  0  0  0
  187.4680  177.7490  141.9080 C   0  0  0  0  0  3  0  0  0  0  0  0
  185.7850  178.4320  140.3650 F   0  0  0  0  0  0  0  0  0  0  0  0
  185.3720  178.6660  142.7010 C   0  0  0  0  0  3  0  0  0  0  0  0
  186.2040  178.2840  141.6440 C   0  0  0  0  0  0  0  0  0  0  0  0
  185.8050  178.5120  144.0220 C   0  0  0  0  0  3  0  0  0  0  0  0
  191.1470  172.0140  141.1550 C   0  0  0  0  0  2  0  0  0  0  0  0
  191.8370  172.1050  139.7940 C   0  0  1  0  0  3  0  0  0  0  0  0
  190.7060  172.7580  137.8500 C   0  0  0  0  0  1  0  0  0  0  0  0
  190.9490  171.6360  138.7390 N   0  0  0  0  0  2  0  0  0  0  0  0
  192.2850  173.5350  139.5160 C   0  0  0  0  0  2  0  0  0  0  0  0
  193.7430  173.7410  139.8970 C   0  0  0  0  0  2  0  0  0  0  0  0
  193.9130  175.0280  140.6800 C   0  0  0  0  0  1  0  0  0  0  0  0
  194.7720  173.4330  144.2450 O   0  0  0  0  0  0  0  0  0  0  0  0
  195.3580  172.7380  145.3210 C   0  0  0  0  0  0  0  0  0  0  0  0
  194.3930  172.0770  146.0670 F   0  0  0  0  0  0  0  0  0  0  0  0
  196.3030  171.8310  144.8670 F   0  0  0  0  0  0  0  0  0  0  0  0
  195.9920  173.6510  146.1420 F   0  0  0  0  0  0  0  0  0  0  0  0
  1  5  1  0  0  0  0
  4  1  1  0  0  0  0
  5  3  1  0  0  0  0
  6  4  1  0  0  0  0
  6  2  1  0  0  0  0
  6 15  1  0  0  0  0
  7 10  1  0  0  0  0
  7  3  1  0  0  0  0
  8  5  1  0  0  0  0
 11 16  1  0  0  0  0
 11 12  1  0  0  0  0
 12  2  1  0  0  0  0
 13  9  1  0  0  0  0
 13  1  1  0  0  0  0
 13 10  1  0  0  0  0
 14  4  1  0  0  0  0
 14  8  1  0  0  0  0
 16 17  1  0  0  0  0
 16 12  1  0  0  0  0
 17 14  1  0  0  0  0
 18 15  1  0  0  0  0
 18  9  1  0  0  0  0
 20 15  1  0  0  0  0
 20 19  2  0  0  0  0
 21 20  1  0  0  0  0
 22 24  1  0  0  0  0
 23 25  2  0  0  0  0
 24 21  2  0  0  0  0
 24 23  1  0  0  0  0
 25 19  1  0  0  0  0
 26 17  1  0  0  0  0
 27 26  1  0  0  0  0
 28 29  1  0  0  0  0
 29 27  1  0  0  0  0
 30 27  1  0  0  0  0
 30 31  1  0  0  0  0
 31 32  1  0  0  0  0
 33  3  1  0  0  0  0
 33 34  1  0  0  0  0
 34 35  1  0  0  0  0
 34 37  1  0  0  0  0
 36 34  1  0  0  0  0
M  END
>  <MODEL>
8

>  <REMARK>
 VINA RESULT:      -6.9      2.105      2.715
  Name = 
  8 active torsions:
  status: ('A' for Active; 'I' for Inactive)
    1  A    between atoms: C_1  and  C_4
    2  A    between atoms: C_1  and  N_27
    3  A    between atoms: C_2  and  O_22
    4  A    between atoms: C_4  and  C_12
    5  A    between atoms: C_4  and  N_37
    6  A    between atoms: C_6  and  O_22
    7  A    between atoms: C_8  and  C_12
    8  A    between atoms: C_23  and  C_30
                            x       y       z     vdW  Elec       q    Type
                         _______ _______ _______ _____ _____    ______ ____

>  <TORSDO>
F 8

$$$$
=
 OpenBabel11112417333D

 37 42  0  0  1  0  0  0  0  0999 V2000
  186.7220  176.8290  143.0210 C   0  0  1  0  0  3  0  0  0  0  0  0
  188.9420  174.4060  142.3370 O   0  0  0  0  0  0  0  0  0  0  0  0
  185.8210  178.4670  144.8450 C   0  0  2  0  0  3  0  0  0  0  0  0
  188.2120  176.6200  142.8180 C   0  0  2  0  0  3  0  0  0  0  0  0
  186.6350  177.1990  144.5070 C   0  0  2  0  0  3  0  0  0  0  0  0
  188.6170  175.6290  141.7290 C   0  0  2  0  0  3  0  0  0  0  0  0
  185.6900  179.3930  143.6440 C   0  0  0  0  0  2  0  0  0  0  0  0
  188.0760  177.2010  144.9900 C   0  0  0  0  0  2  0  0  0  0  0  0
  185.9430  177.3610  140.6950 C   0  0  0  0  0  2  0  0  0  0  0  0
  185.1940  178.6580  142.5600 O   0  0  0  0  0  0  0  0  0  0  0  0
  191.2960  175.3930  142.1990 C   0  0  0  0  0  2  0  0  0  0  0  0
  190.3360  174.2840  142.6150 C   0  0  1  0  0  3  0  0  0  0  0  0
  186.2940  177.9480  142.0590 C   0  0  1  0  0  3  0  0  0  0  0  0
  188.7860  176.2660  144.1110 N   0  0  2  0  0  0  0  0  0  0  0  0
  187.5800  175.4420  140.6080 C   0  0  1  0  0  3  0  0  0  0  0  0
  190.9010  175.2800  143.6660 C   0  0  2  0  0  3  0  0  0  0  0  0
  190.1780  176.5220  144.0150 N   0  0  0  0  0  0  0  0  0  0  0  0
  187.1630  176.7770  139.9870 C   0  0  0  0  0  2  0  0  0  0  0  0
  188.1560  174.9690  138.2230 C   0  0  0  0  0  3  0  0  0  0  0  0
  188.0990  174.5200  139.5470 C   0  0  0  0  0  0  0  0  0  0  0  0
  188.5190  173.2170  139.8560 C   0  0  0  0  0  3  0  0  0  0  0  0
  189.3960  171.1170  139.1500 F   0  0  0  0  0  0  0  0  0  0  0  0
  189.0470  172.8270  137.5260 C   0  0  0  0  0  3  0  0  0  0  0  0
  188.9920  172.3740  138.8470 C   0  0  0  0  0  0  0  0  0  0  0  0
  188.6300  174.1240  137.2140 C   0  0  0  0  0  3  0  0  0  0  0  0
  190.7420  176.9020  145.3170 C   0  0  0  0  0  2  0  0  0  0  0  0
  191.9370  176.0200  145.6790 C   0  0  1  0  0  3  0  0  0  0  0  0
  194.1280  176.0400  146.5070 C   0  0  0  0  0  1  0  0  0  0  0  0
  193.1530  176.8180  145.7630 N   0  0  0  0  0  2  0  0  0  0  0  0
  191.6850  175.2910  146.9930 C   0  0  0  0  0  2  0  0  0  0  0  0
  190.3300  175.6580  147.5770 C   0  0  0  0  0  2  0  0  0  0  0  0
  189.3210  174.5570  147.3130 C   0  0  0  0  0  1  0  0  0  0  0  0
  186.3600  179.1630  145.9420 O   0  0  0  0  0  0  0  0  0  0  0  0
  185.5610  178.8930  147.0700 C   0  0  0  0  0  0  0  0  0  0  0  0
  184.2140  178.9060  146.7360 F   0  0  0  0  0  0  0  0  0  0  0  0
  185.8930  177.6680  147.6290 F   0  0  0  0  0  0  0  0  0  0  0  0
  185.7850  179.8770  148.0140 F   0  0  0  0  0  0  0  0  0  0  0  0
  1  5  1  0  0  0  0
  2 12  1  0  0  0  0
  3 33  1  0  0  0  0
  4  1  1  0  0  0  0
  4 14  1  0  0  0  0
  5  3  1  0  0  0  0
  5  8  1  0  0  0  0
  6  2  1  0  0  0  0
  6  4  1  0  0  0  0
  7  3  1  0  0  0  0
  9 13  1  0  0  0  0
 10  7  1  0  0  0  0
 11 12  1  0  0  0  0
 11 16  1  0  0  0  0
 12 16  1  0  0  0  0
 13 10  1  0  0  0  0
 13  1  1  0  0  0  0
 14  8  1  0  0  0  0
 15  6  1  0  0  0  0
 16 17  1  0  0  0  0
 17 14  1  0  0  0  0
 17 26  1  0  0  0  0
 18 15  1  0  0  0  0
 18  9  1  0  0  0  0
 19 20  1  0  0  0  0
 20 21  2  0  0  0  0
 20 15  1  0  0  0  0
 23 24  2  0  0  0  0
 24 22  1  0  0  0  0
 24 21  1  0  0  0  0
 25 23  1  0  0  0  0
 25 19  2  0  0  0  0
 26 27  1  0  0  0  0
 27 29  1  0  0  0  0
 27 30  1  0  0  0  0
 29 28  1  0  0  0  0
 30 31  1  0  0  0  0
 32 31  1  0  0  0  0
 33 34  1  0  0  0  0
 34 36  1  0  0  0  0
 34 37  1  0  0  0  0
 35 34  1  0  0  0  0
M  END
>  <MODEL>
9

>  <REMARK>
 VINA RESULT:      -6.8      3.227      7.857
  Name = 
  8 active torsions:
  status: ('A' for Active; 'I' for Inactive)
    1  A    between atoms: C_1  and  C_4
    2  A    between atoms: C_1  and  N_27
    3  A    between atoms: C_2  and  O_22
    4  A    between atoms: C_4  and  C_12
    5  A    between atoms: C_4  and  N_37
    6  A    between atoms: C_6  and  O_22
    7  A    between atoms: C_8  and  C_12
    8  A    between atoms: C_23  and  C_30
                            x       y       z     vdW  Elec       q    Type
                         _______ _______ _______ _____ _____    ______ ____

>  <TORSDO>
F 8

$$$$
