=
 OpenBabel11112417023D

 31 35  0  0  1  0  0  0  0  0999 V2000
  190.1830  177.0470  146.3360 C   0  0  0  0  0  0  0  0  0  0  0  0
  187.4570  176.2140  143.8100 C   0  0  2  0  0  3  0  0  0  0  0  0
  186.4850  177.3120  144.1180 C   0  0  0  0  0  0  0  0  0  0  0  0
  184.8770  178.3430  145.5970 C   0  0  0  0  0  0  0  0  0  0  0  0
  188.8240  176.4560  144.4120 C   0  0  0  0  0  0  0  0  0  0  0  0
  191.3400  176.7580  145.6020 C   0  0  0  0  0  3  0  0  0  0  0  0
  185.6930  177.2620  145.2690 C   0  0  0  0  0  3  0  0  0  0  0  0
  188.6160  175.0110  142.0130 N   0  0  0  0  0  0  0  0  0  0  0  0
  190.2740  177.4700  147.6280 F   0  0  0  0  0  0  0  0  0  0  0  0
  187.2100  178.4710  142.1350 O   0  0  0  0  0  0  0  0  0  0  0  0
  184.0700  178.2950  146.7710 N   0  0  0  0  0  1  0  0  0  0  0  0
  189.9230  175.6270  142.2710 C   0  0  0  0  0  2  0  0  0  0  0  0
  187.5320  175.9810  142.2890 C   0  0  2  0  0  3  0  0  0  0  0  0
  188.9330  176.8890  145.7470 C   0  0  0  0  0  3  0  0  0  0  0  0
  184.8660  179.4900  144.7940 C   0  0  0  0  0  3  0  0  0  0  0  0
  189.9980  176.1240  143.6910 C   0  0  0  0  0  0  0  0  0  0  0  0
  191.2470  176.2970  144.2820 C   0  0  0  0  0  3  0  0  0  0  0  0
  187.6400  177.2810  141.4470 C   0  0  0  0  0  2  0  0  0  0  0  0
  186.4480  178.4430  143.2950 C   0  0  0  0  0  0  0  0  0  0  0  0
  185.6540  179.5420  143.6440 C   0  0  0  0  0  3  0  0  0  0  0  0
  188.5710  174.5910  140.6220 C   0  0  0  0  0  2  0  0  0  0  0  0
  187.7720  172.4490  139.9090 O   0  0  0  0  0  1  0  0  0  0  0  0
  188.8510  173.0930  140.5280 C   0  0  1  0  0  3  0  0  0  0  0  0
  189.8410  171.6840  137.1160 C   0  0  0  0  0  0  0  0  0  0  0  0
  190.3880  173.6380  138.5770 C   0  0  0  0  0  2  0  0  0  0  0  0
  190.5800  170.4710  140.3370 O   0  0  0  0  0  0  0  0  0  0  0  0
  189.6730  171.1490  135.7550 C   0  0  0  0  0  1  0  0  0  0  0  0
  189.5840  173.1400  137.3730 C   0  0  0  0  0  2  0  0  0  0  0  0
  190.3040  171.3060  139.4440 C   0  0  0  0  0  0  0  0  0  0  0  0
  190.1620  172.7570  139.8080 C   0  0  2  0  0  3  0  0  0  0  0  0
  190.1390  170.8710  138.0870 N   0  0  0  0  0  0  0  0  0  0  0  0
  1  9  1  0  0  0  0
  2  3  1  6  0  0  0
  2  5  1  0  0  0  0
  3  7  1  0  0  0  0
  4 11  1  0  0  0  0
  5 14  2  0  0  0  0
  6  1  2  0  0  0  0
  7  4  2  0  0  0  0
  8 12  1  0  0  0  0
  8 13  1  0  0  0  0
 10 19  1  0  0  0  0
 12 16  1  0  0  0  0
 13 18  1  6  0  0  0
 13  2  1  0  0  0  0
 14  1  1  0  0  0  0
 15  4  1  0  0  0  0
 16 17  2  0  0  0  0
 16  5  1  0  0  0  0
 17  6  1  0  0  0  0
 18 10  1  0  0  0  0
 19 20  1  0  0  0  0
 19  3  2  0  0  0  0
 20 15  2  0  0  0  0
 21  8  1  0  0  0  0
 23 22  1  6  0  0  0
 23 21  1  0  0  0  0
 24 28  1  0  0  0  0
 24 31  2  0  0  0  0
 25 30  1  0  0  0  0
 27 24  1  0  0  0  0
 28 25  1  0  0  0  0
 29 30  1  0  0  0  0
 29 26  2  0  0  0  0
 30 23  1  6  0  0  0
 31 29  1  0  0  0  0
M  END
>  <MODEL>
1

>  <REMARK>
 VINA RESULT:      -8.4      0.000      0.000
  Name = 
  3 active torsions:
  status: ('A' for Active; 'I' for Inactive)
    1  A    between atoms: C_5  and  C_16
    2  A    between atoms: C_5  and  C_30
    3  A    between atoms: N_10  and  C_16
                            x       y       z     vdW  Elec       q    Type
                         _______ _______ _______ _____ _____    ______ ____

>  <TORSDO>
F 3

$$$$
=
 OpenBabel11112417023D

 31 35  0  0  1  0  0  0  0  0999 V2000
  190.1450  177.1560  146.7150 C   0  0  0  0  0  0  0  0  0  0  0  0
  187.6920  176.1180  143.9910 C   0  0  2  0  0  3  0  0  0  0  0  0
  186.6600  177.1900  144.1610 C   0  0  0  0  0  0  0  0  0  0  0  0
  184.8880  178.2190  145.4410 C   0  0  0  0  0  0  0  0  0  0  0  0
  188.9890  176.4350  144.7040 C   0  0  0  0  0  0  0  0  0  0  0  0
  191.3730  176.8800  146.1030 C   0  0  0  0  0  3  0  0  0  0  0  0
  185.7670  177.1570  145.2370 C   0  0  0  0  0  3  0  0  0  0  0  0
  189.0520  174.8860  142.3620 N   0  0  0  0  0  0  0  0  0  0  0  0
  190.1010  177.6350  147.9900 F   0  0  0  0  0  0  0  0  0  0  0  0
  187.5250  178.2930  142.2030 O   0  0  0  0  0  0  0  0  0  0  0  0
  183.9790  178.1890  146.5380 N   0  0  0  0  0  1  0  0  0  0  0  0
  190.3090  175.5620  142.7100 C   0  0  0  0  0  2  0  0  0  0  0  0
  187.9150  175.8260  142.4960 C   0  0  2  0  0  3  0  0  0  0  0  0
  188.9600  176.9270  146.0230 C   0  0  0  0  0  3  0  0  0  0  0  0
  184.9120  179.3310  144.5900 C   0  0  0  0  0  3  0  0  0  0  0  0
  190.2350  176.1190  144.1080 C   0  0  0  0  0  0  0  0  0  0  0  0
  191.4180  176.3630  144.8010 C   0  0  0  0  0  3  0  0  0  0  0  0
  188.0570  177.0930  141.6100 C   0  0  0  0  0  2  0  0  0  0  0  0
  186.6600  178.2830  143.2890 C   0  0  0  0  0  0  0  0  0  0  0  0
  185.8010  179.3650  143.5160 C   0  0  0  0  0  3  0  0  0  0  0  0
  189.1510  174.4080  140.9930 C   0  0  0  0  0  2  0  0  0  0  0  0
  187.8940  172.7140  139.8590 O   0  0  0  0  0  1  0  0  0  0  0  0
  188.7640  172.9320  140.9350 C   0  0  1  0  0  3  0  0  0  0  0  0
  192.1110  172.5600  142.7430 C   0  0  0  0  0  0  0  0  0  0  0  0
  190.1370  171.1540  142.1260 C   0  0  0  0  0  2  0  0  0  0  0  0
  191.4600  173.0300  139.3150 O   0  0  0  0  0  0  0  0  0  0  0  0
  193.1870  172.8510  143.7040 C   0  0  0  0  0  1  0  0  0  0  0  0
  190.8280  171.9550  143.2330 C   0  0  0  0  0  2  0  0  0  0  0  0
  191.2570  172.6680  140.4980 C   0  0  0  0  0  0  0  0  0  0  0  0
  189.9670  171.9850  140.8520 C   0  0  2  0  0  3  0  0  0  0  0  0
  192.2620  172.8990  141.4970 N   0  0  0  0  0  0  0  0  0  0  0  0
  1  9  1  0  0  0  0
  2  3  1  6  0  0  0
  2  5  1  0  0  0  0
  3  7  1  0  0  0  0
  4 11  1  0  0  0  0
  5 14  1  0  0  0  0
  6  1  1  0  0  0  0
  7  4  2  0  0  0  0
  8 13  1  0  0  0  0
  8 12  1  0  0  0  0
 10 19  1  0  0  0  0
 12 16  1  0  0  0  0
 13 18  1  6  0  0  0
 13  2  1  0  0  0  0
 14  1  2  0  0  0  0
 15  4  1  0  0  0  0
 16  5  2  0  0  0  0
 16 17  1  0  0  0  0
 17  6  2  0  0  0  0
 18 10  1  0  0  0  0
 19 20  1  0  0  0  0
 19  3  2  0  0  0  0
 20 15  2  0  0  0  0
 21  8  1  0  0  0  0
 23 22  1  6  0  0  0
 23 21  1  0  0  0  0
 24 28  1  0  0  0  0
 24 27  1  0  0  0  0
 25 28  1  0  0  0  0
 26 29  2  0  0  0  0
 29 30  1  0  0  0  0
 29 31  1  0  0  0  0
 30 23  1  1  0  0  0
 30 25  1  0  0  0  0
 31 24  2  0  0  0  0
M  END
>  <MODEL>
2

>  <REMARK>
 VINA RESULT:      -8.3      1.757      2.604
  Name = 
  3 active torsions:
  status: ('A' for Active; 'I' for Inactive)
    1  A    between atoms: C_5  and  C_16
    2  A    between atoms: C_5  and  C_30
    3  A    between atoms: N_10  and  C_16
                            x       y       z     vdW  Elec       q    Type
                         _______ _______ _______ _____ _____    ______ ____

>  <TORSDO>
F 3

$$$$
=
 OpenBabel11112417023D

 31 35  0  0  1  0  0  0  0  0999 V2000
  188.4460  173.3160  142.3820 C   0  0  0  0  0  0  0  0  0  0  0  0
  189.9590  176.2850  144.2280 C   0  0  2  0  0  3  0  0  0  0  0  0
  188.7050  177.0080  144.6110 C   0  0  0  0  0  0  0  0  0  0  0  0
  186.7560  178.3050  144.0090 C   0  0  0  0  0  0  0  0  0  0  0  0
  189.7010  174.8670  143.7680 C   0  0  0  0  0  0  0  0  0  0  0  0
  189.2990  172.2780  142.7790 C   0  0  0  0  0  3  0  0  0  0  0  0
  187.9780  177.7310  143.6590 C   0  0  0  0  0  3  0  0  0  0  0  0
  192.1330  175.4800  145.0320 N   0  0  0  0  0  0  0  0  0  0  0  0
  187.4250  173.0750  141.5140 F   0  0  0  0  0  0  0  0  0  0  0  0
  188.9490  176.1820  146.8600 O   0  0  0  0  0  0  0  0  0  0  0  0
  186.0130  179.0400  143.0400 N   0  0  0  0  0  1  0  0  0  0  0  0
  191.7390  174.0660  145.0680 C   0  0  0  0  0  2  0  0  0  0  0  0
  190.9780  176.3400  145.3810 C   0  0  2  0  0  3  0  0  0  0  0  0
  188.6510  174.6030  142.8680 C   0  0  0  0  0  3  0  0  0  0  0  0
  186.2400  178.1370  145.2990 C   0  0  0  0  0  3  0  0  0  0  0  0
  190.5850  173.8200  144.1310 C   0  0  0  0  0  0  0  0  0  0  0  0
  190.3670  172.5300  143.6520 C   0  0  0  0  0  3  0  0  0  0  0  0
  190.3800  176.0280  146.7790 C   0  0  0  0  0  2  0  0  0  0  0  0
  188.2070  176.8720  145.9110 C   0  0  0  0  0  0  0  0  0  0  0  0
  186.9630  177.4180  146.2500 C   0  0  0  0  0  3  0  0  0  0  0  0
  193.2140  175.6800  145.9840 C   0  0  0  0  0  2  0  0  0  0  0  0
  194.6520  177.5390  146.4440 O   0  0  0  0  0  1  0  0  0  0  0  0
  194.2130  176.6890  145.4210 C   0  0  1  0  0  3  0  0  0  0  0  0
  194.7410  173.7570  143.0280 C   0  0  0  0  0  0  0  0  0  0  0  0
  195.3250  176.1820  143.1920 C   0  0  0  0  0  2  0  0  0  0  0  0
  196.1450  174.3330  146.2040 O   0  0  0  0  0  0  0  0  0  0  0  0
  194.3970  172.6090  142.1730 C   0  0  0  0  0  1  0  0  0  0  0  0
  194.3820  175.1430  142.5790 C   0  0  0  0  0  2  0  0  0  0  0  0
  195.6350  174.6040  145.0920 C   0  0  0  0  0  0  0  0  0  0  0  0
  195.4070  176.0400  144.7130 C   0  0  2  0  0  3  0  0  0  0  0  0
  195.2840  173.5440  144.1900 N   0  0  0  0  0  0  0  0  0  0  0  0
  1  6  2  0  0  0  0
  1 14  1  0  0  0  0
  2  5  1  1  0  0  0
  2  3  1  0  0  0  0
  2 13  1  0  0  0  0
  3 19  1  0  0  0  0
  4 15  2  0  0  0  0
  5 16  1  0  0  0  0
  6 17  1  0  0  0  0
  7  4  1  0  0  0  0
  7  3  2  0  0  0  0
  8 12  1  0  0  0  0
  8 13  1  0  0  0  0
  8 21  1  0  0  0  0
  9  1  1  0  0  0  0
 11  4  1  0  0  0  0
 13 18  1  1  0  0  0
 14  5  2  0  0  0  0
 15 20  1  0  0  0  0
 16 12  1  0  0  0  0
 17 16  2  0  0  0  0
 18 10  1  0  0  0  0
 19 20  2  0  0  0  0
 19 10  1  0  0  0  0
 23 21  1  0  0  0  0
 23 22  1  1  0  0  0
 24 31  2  0  0  0  0
 25 30  1  0  0  0  0
 27 24  1  0  0  0  0
 28 24  1  0  0  0  0
 28 25  1  0  0  0  0
 29 26  2  0  0  0  0
 30 29  1  0  0  0  0
 30 23  1  1  0  0  0
 31 29  1  0  0  0  0
M  END
>  <MODEL>
3

>  <REMARK>
 VINA RESULT:      -8.2      4.159      6.009
  Name = 
  3 active torsions:
  status: ('A' for Active; 'I' for Inactive)
    1  A    between atoms: C_5  and  C_16
    2  A    between atoms: C_5  and  C_30
    3  A    between atoms: N_10  and  C_16
                            x       y       z     vdW  Elec       q    Type
                         _______ _______ _______ _____ _____    ______ ____

>  <TORSDO>
F 3

$$$$
=
 OpenBabel11112417023D

 31 35  0  0  1  0  0  0  0  0999 V2000
  187.7690  173.0310  142.1450 C   0  0  0  0  0  0  0  0  0  0  0  0
  189.0150  176.6280  142.2820 C   0  0  2  0  0  3  0  0  0  0  0  0
  187.7240  177.3300  142.5690 C   0  0  0  0  0  0  0  0  0  0  0  0
  185.5270  178.0600  141.8750 C   0  0  0  0  0  0  0  0  0  0  0  0
  188.9310  175.1330  142.5040 C   0  0  0  0  0  0  0  0  0  0  0  0
  188.8240  172.3470  142.7600 C   0  0  0  0  0  3  0  0  0  0  0  0
  186.7670  177.5030  141.5640 C   0  0  0  0  0  3  0  0  0  0  0  0
  191.3800  176.4460  142.9110 N   0  0  0  0  0  0  0  0  0  0  0  0
  186.6910  172.3490  141.6660 F   0  0  0  0  0  0  0  0  0  0  0  0
  188.4030  177.5820  144.8660 O   0  0  0  0  0  0  0  0  0  0  0  0
  184.5500  178.2350  140.8530 N   0  0  0  0  0  1  0  0  0  0  0  0
  191.2290  175.1570  143.5990 C   0  0  0  0  0  2  0  0  0  0  0  0
  190.1590  177.2650  143.0920 C   0  0  2  0  0  3  0  0  0  0  0  0
  187.8260  174.4140  142.0110 C   0  0  0  0  0  3  0  0  0  0  0  0
  185.2250  178.4210  143.1930 C   0  0  0  0  0  3  0  0  0  0  0  0
  190.0140  174.4290  143.0860 C   0  0  0  0  0  0  0  0  0  0  0  0
  189.9460  173.0450  143.2300 C   0  0  0  0  0  3  0  0  0  0  0  0
  189.8160  177.5360  144.5820 C   0  0  0  0  0  2  0  0  0  0  0  0
  187.4360  177.7250  143.8800 C   0  0  0  0  0  0  0  0  0  0  0  0
  186.1780  178.2510  144.1970 C   0  0  0  0  0  3  0  0  0  0  0  0
  192.5330  177.1330  143.4700 C   0  0  0  0  0  2  0  0  0  0  0  0
  194.2720  176.2960  142.0520 O   0  0  0  0  0  1  0  0  0  0  0  0
  193.7670  176.2410  143.3570 C   0  0  1  0  0  3  0  0  0  0  0  0
  196.1990  174.2710  145.5510 C   0  0  0  0  0  0  0  0  0  0  0  0
  196.2500  176.1420  143.8930 C   0  0  0  0  0  2  0  0  0  0  0  0
  193.7520  176.6250  146.4800 O   0  0  0  0  0  0  0  0  0  0  0  0
  196.8730  173.1020  146.1380 C   0  0  0  0  0  1  0  0  0  0  0  0
  196.4800  174.6460  144.1260 C   0  0  0  0  0  2  0  0  0  0  0  0
  194.6000  176.0550  145.7540 C   0  0  0  0  0  0  0  0  0  0  0  0
  194.8650  176.5790  144.3720 C   0  0  2  0  0  3  0  0  0  0  0  0
  195.3160  174.9160  146.2550 N   0  0  0  0  0  0  0  0  0  0  0  0
  1  6  1  0  0  0  0
  2  5  1  1  0  0  0
  2  3  1  0  0  0  0
  2 13  1  0  0  0  0
  3 19  1  0  0  0  0
  4 15  2  0  0  0  0
  5 16  2  0  0  0  0
  6 17  2  0  0  0  0
  7  4  1  0  0  0  0
  7  3  2  0  0  0  0
  8 13  1  0  0  0  0
  8 21  1  0  0  0  0
  8 12  1  0  0  0  0
  9  1  1  0  0  0  0
 11  4  1  0  0  0  0
 13 18  1  1  0  0  0
 14  1  2  0  0  0  0
 14  5  1  0  0  0  0
 15 20  1  0  0  0  0
 16 17  1  0  0  0  0
 16 12  1  0  0  0  0
 18 10  1  0  0  0  0
 19 20  2  0  0  0  0
 19 10  1  0  0  0  0
 23 22  1  6  0  0  0
 23 21  1  0  0  0  0
 24 27  1  0  0  0  0
 24 31  2  0  0  0  0
 25 28  1  0  0  0  0
 25 30  1  0  0  0  0
 28 24  1  0  0  0  0
 29 31  1  0  0  0  0
 29 26  2  0  0  0  0
 30 23  1  6  0  0  0
 30 29  1  0  0  0  0
M  END
>  <MODEL>
4

>  <REMARK>
 VINA RESULT:      -8.2      4.034      6.310
  Name = 
  3 active torsions:
  status: ('A' for Active; 'I' for Inactive)
    1  A    between atoms: C_5  and  C_16
    2  A    between atoms: C_5  and  C_30
    3  A    between atoms: N_10  and  C_16
                            x       y       z     vdW  Elec       q    Type
                         _______ _______ _______ _____ _____    ______ ____

>  <TORSDO>
F 3

$$$$
=
 OpenBabel11112417023D

 31 35  0  0  1  0  0  0  0  0999 V2000
  187.8140  175.8750  141.0630 C   0  0  0  0  0  0  0  0  0  0  0  0
  188.8920  177.3630  144.4000 C   0  0  2  0  0  3  0  0  0  0  0  0
  187.5470  177.6370  144.9990 C   0  0  0  0  0  0  0  0  0  0  0  0
  185.4800  178.8890  145.0460 C   0  0  0  0  0  0  0  0  0  0  0  0
  188.8220  176.4470  143.1970 C   0  0  0  0  0  0  0  0  0  0  0  0
  188.7690  174.8680  140.8860 C   0  0  0  0  0  3  0  0  0  0  0  0
  186.7730  178.7150  144.5560 C   0  0  0  0  0  3  0  0  0  0  0  0
  191.1160  176.4150  144.8180 N   0  0  0  0  0  0  0  0  0  0  0  0
  186.8610  176.0960  140.1150 F   0  0  0  0  0  0  0  0  0  0  0  0
  187.8070  175.6960  146.4000 O   0  0  0  0  0  0  0  0  0  0  0  0
  184.6900  179.9850  144.5940 N   0  0  0  0  0  1  0  0  0  0  0  0
  190.8930  175.2090  144.0100 C   0  0  0  0  0  2  0  0  0  0  0  0
  189.8550  176.8270  145.4760 C   0  0  2  0  0  3  0  0  0  0  0  0
  187.8450  176.6650  142.2070 C   0  0  0  0  0  3  0  0  0  0  0  0
  184.9410  177.9740  145.9580 C   0  0  0  0  0  3  0  0  0  0  0  0
  189.8110  175.4530  142.9900 C   0  0  0  0  0  0  0  0  0  0  0  0
  189.7670  174.6570  141.8490 C   0  0  0  0  0  3  0  0  0  0  0  0
  189.2480  175.7270  146.3870 C   0  0  0  0  0  2  0  0  0  0  0  0
  187.0220  176.7430  145.9390 C   0  0  0  0  0  0  0  0  0  0  0  0
  185.7100  176.8990  146.4030 C   0  0  0  0  0  3  0  0  0  0  0  0
  192.1300  176.1180  145.8170 C   0  0  0  0  0  2  0  0  0  0  0  0
  194.2870  176.9200  146.4790 O   0  0  0  0  0  1  0  0  0  0  0  0
  193.4760  176.6760  145.3630 C   0  0  1  0  0  3  0  0  0  0  0  0
  196.0760  173.8810  145.5380 C   0  0  0  0  0  0  0  0  0  0  0  0
  193.8320  174.3040  144.5210 C   0  0  0  0  0  2  0  0  0  0  0  0
  196.2100  176.9560  143.8300 O   0  0  0  0  0  0  0  0  0  0  0  0
  197.0150  172.9200  146.1410 C   0  0  0  0  0  1  0  0  0  0  0  0
  194.6000  173.6540  145.6760 C   0  0  0  0  0  2  0  0  0  0  0  0
  195.6980  175.9430  144.3620 C   0  0  0  0  0  0  0  0  0  0  0  0
  194.2050  175.7790  144.3570 C   0  0  2  0  0  3  0  0  0  0  0  0
  196.5430  174.9480  144.9590 N   0  0  0  0  0  0  0  0  0  0  0  0
  1 14  1  0  0  0  0
  2  5  1  6  0  0  0
  2  3  1  0  0  0  0
  2 13  1  0  0  0  0
  3 19  1  0  0  0  0
  4 15  2  0  0  0  0
  6  1  2  0  0  0  0
  6 17  1  0  0  0  0
  7  3  2  0  0  0  0
  7  4  1  0  0  0  0
  8 13  1  0  0  0  0
  8 21  1  0  0  0  0
  9  1  1  0  0  0  0
 11  4  1  0  0  0  0
 12  8  1  0  0  0  0
 13 18  1  6  0  0  0
 14  5  2  0  0  0  0
 15 20  1  0  0  0  0
 16  5  1  0  0  0  0
 16 12  1  0  0  0  0
 17 16  2  0  0  0  0
 18 10  1  0  0  0  0
 19 10  1  0  0  0  0
 19 20  2  0  0  0  0
 23 21  1  0  0  0  0
 23 22  1  1  0  0  0
 24 28  1  0  0  0  0
 24 27  1  0  0  0  0
 25 28  1  0  0  0  0
 26 29  2  0  0  0  0
 29 31  1  0  0  0  0
 30 29  1  0  0  0  0
 30 25  1  0  0  0  0
 30 23  1  1  0  0  0
 31 24  2  0  0  0  0
M  END
>  <MODEL>
5

>  <REMARK>
 VINA RESULT:      -8.1      4.064      6.329
  Name = 
  3 active torsions:
  status: ('A' for Active; 'I' for Inactive)
    1  A    between atoms: C_5  and  C_16
    2  A    between atoms: C_5  and  C_30
    3  A    between atoms: N_10  and  C_16
                            x       y       z     vdW  Elec       q    Type
                         _______ _______ _______ _____ _____    ______ ____

>  <TORSDO>
F 3

$$$$
=
 OpenBabel11112417023D

 31 35  0  0  1  0  0  0  0  0999 V2000
  194.4020  176.1070  144.8900 C   0  0  0  0  0  0  0  0  0  0  0  0
  190.6790  175.6250  144.2440 C   0  0  2  0  0  3  0  0  0  0  0  0
  190.7230  174.3530  143.4550 C   0  0  0  0  0  0  0  0  0  0  0  0
  191.2850  173.1480  141.4380 C   0  0  0  0  0  0  0  0  0  0  0  0
  191.9810  175.9180  144.9570 C   0  0  0  0  0  0  0  0  0  0  0  0
  194.3950  176.6060  146.1980 C   0  0  0  0  0  3  0  0  0  0  0  0
  191.1450  174.3540  142.1220 C   0  0  0  0  0  3  0  0  0  0  0  0
  189.5670  176.8010  146.0890 N   0  0  0  0  0  0  0  0  0  0  0  0
  195.5750  175.9580  144.2150 F   0  0  0  0  0  0  0  0  0  0  0  0
  189.9850  173.1500  145.4070 O   0  0  0  0  0  0  0  0  0  0  0  0
  191.7160  173.1460  140.0790 N   0  0  0  0  0  1  0  0  0  0  0  0
  190.6930  176.6650  147.0220 C   0  0  0  0  0  2  0  0  0  0  0  0
  189.4830  175.6070  145.2160 C   0  0  2  0  0  3  0  0  0  0  0  0
  193.2020  175.7730  144.2710 C   0  0  0  0  0  3  0  0  0  0  0  0
  191.0340  171.9330  142.0870 C   0  0  0  0  0  3  0  0  0  0  0  0
  191.9800  176.4650  146.2650 C   0  0  0  0  0  0  0  0  0  0  0  0
  193.1850  176.7850  146.8840 C   0  0  0  0  0  3  0  0  0  0  0  0
  189.3170  174.2800  146.0020 C   0  0  0  0  0  2  0  0  0  0  0  0
  190.4360  173.1420  144.0940 C   0  0  0  0  0  0  0  0  0  0  0  0
  190.6120  171.9290  143.4170 C   0  0  0  0  0  3  0  0  0  0  0  0
  188.3440  176.9430  146.8620 C   0  0  0  0  0  2  0  0  0  0  0  0
  185.9750  176.6650  146.6500 O   0  0  0  0  0  1  0  0  0  0  0  0
  187.1400  176.9420  145.9230 C   0  0  1  0  0  3  0  0  0  0  0  0
  184.7310  178.2770  143.2720 C   0  0  0  0  0  0  0  0  0  0  0  0
  185.6830  178.9770  145.4760 C   0  0  0  0  0  2  0  0  0  0  0  0
  188.2280  177.8920  143.1280 O   0  0  0  0  0  0  0  0  0  0  0  0
  183.5910  178.2910  142.3420 C   0  0  0  0  0  1  0  0  0  0  0  0
  184.4800  178.3710  144.7490 C   0  0  0  0  0  2  0  0  0  0  0  0
  187.0980  178.0680  143.6410 C   0  0  0  0  0  0  0  0  0  0  0  0
  186.9800  178.2430  145.1280 C   0  0  2  0  0  3  0  0  0  0  0  0
  185.9330  178.1110  142.8030 N   0  0  0  0  0  0  0  0  0  0  0  0
  1  6  1  0  0  0  0
  2  3  1  1  0  0  0
  2  5  1  0  0  0  0
  2 13  1  0  0  0  0
  3 19  1  0  0  0  0
  4 15  2  0  0  0  0
  4  7  1  0  0  0  0
  5 16  2  0  0  0  0
  6 17  2  0  0  0  0
  7  3  2  0  0  0  0
  8 21  1  0  0  0  0
  8 12  1  0  0  0  0
  9  1  1  0  0  0  0
 10 18  1  0  0  0  0
 11  4  1  0  0  0  0
 13 18  1  1  0  0  0
 13  8  1  0  0  0  0
 14  1  2  0  0  0  0
 14  5  1  0  0  0  0
 15 20  1  0  0  0  0
 16 17  1  0  0  0  0
 16 12  1  0  0  0  0
 19 10  1  0  0  0  0
 20 19  2  0  0  0  0
 23 22  1  1  0  0  0
 23 21  1  0  0  0  0
 24 28  1  0  0  0  0
 26 29  2  0  0  0  0
 27 24  1  0  0  0  0
 28 25  1  0  0  0  0
 29 30  1  0  0  0  0
 30 25  1  0  0  0  0
 30 23  1  1  0  0  0
 31 24  2  0  0  0  0
 31 29  1  0  0  0  0
M  END
>  <MODEL>
6

>  <REMARK>
 VINA RESULT:      -8.0      3.184      7.404
  Name = 
  3 active torsions:
  status: ('A' for Active; 'I' for Inactive)
    1  A    between atoms: C_5  and  C_16
    2  A    between atoms: C_5  and  C_30
    3  A    between atoms: N_10  and  C_16
                            x       y       z     vdW  Elec       q    Type
                         _______ _______ _______ _____ _____    ______ ____

>  <TORSDO>
F 3

$$$$
=
 OpenBabel11112417023D

 31 35  0  0  1  0  0  0  0  0999 V2000
  190.9010  171.6610  142.9830 C   0  0  0  0  0  0  0  0  0  0  0  0
  191.3800  174.7980  145.0900 C   0  0  2  0  0  3  0  0  0  0  0  0
  192.8490  175.0110  144.8930 C   0  0  0  0  0  0  0  0  0  0  0  0
  195.1410  174.3420  145.2690 C   0  0  0  0  0  0  0  0  0  0  0  0
  190.7930  173.8140  144.1020 C   0  0  0  0  0  0  0  0  0  0  0  0
  189.6520  171.9060  142.3990 C   0  0  0  0  0  3  0  0  0  0  0  0
  193.7820  174.2020  145.5500 C   0  0  0  0  0  3  0  0  0  0  0  0
  189.1810  175.8870  145.0990 N   0  0  0  0  0  0  0  0  0  0  0  0
  191.5630  170.4970  142.7320 F   0  0  0  0  0  0  0  0  0  0  0  0
  192.3550  176.7870  143.3430 O   0  0  0  0  0  0  0  0  0  0  0  0
  196.0930  173.5170  145.9350 N   0  0  0  0  0  1  0  0  0  0  0  0
  188.7450  175.3020  143.8250 C   0  0  0  0  0  2  0  0  0  0  0  0
  190.6390  176.1480  145.0670 C   0  0  2  0  0  3  0  0  0  0  0  0
  191.4630  172.6060  143.8350 C   0  0  0  0  0  3  0  0  0  0  0  0
  195.5730  175.2690  144.3140 C   0  0  0  0  0  3  0  0  0  0  0  0
  189.5100  174.0360  143.5400 C   0  0  0  0  0  0  0  0  0  0  0  0
  188.9580  173.0920  142.6770 C   0  0  0  0  0  3  0  0  0  0  0  0
  191.0690  177.0950  143.9150 C   0  0  0  0  0  2  0  0  0  0  0  0
  193.2840  175.9630  143.9650 C   0  0  0  0  0  0  0  0  0  0  0  0
  194.6450  176.0780  143.6590 C   0  0  0  0  0  3  0  0  0  0  0  0
  188.4530  177.1280  145.3080 C   0  0  0  0  0  2  0  0  0  0  0  0
  186.0790  176.8190  145.3100 O   0  0  0  0  0  1  0  0  0  0  0  0
  187.1690  177.1150  144.4820 C   0  0  1  0  0  3  0  0  0  0  0  0
  184.8820  178.2450  141.6360 C   0  0  0  0  0  0  0  0  0  0  0  0
  185.5100  178.9660  143.9460 C   0  0  0  0  0  2  0  0  0  0  0  0
  188.3960  178.3130  141.8450 O   0  0  0  0  0  0  0  0  0  0  0  0
  183.8480  178.1530  140.5920 C   0  0  0  0  0  1  0  0  0  0  0  0
  184.4750  178.2440  143.0800 C   0  0  0  0  0  2  0  0  0  0  0  0
  187.2070  178.3220  142.2420 C   0  0  0  0  0  0  0  0  0  0  0  0
  186.9200  178.4180  143.7130 C   0  0  2  0  0  3  0  0  0  0  0  0
  186.1360  178.2530  141.2890 N   0  0  0  0  0  0  0  0  0  0  0  0
  1 14  1  0  0  0  0
  2  5  1  6  0  0  0
  3  2  1  0  0  0  0
  3  7  1  0  0  0  0
  4  7  2  0  0  0  0
  4 11  1  0  0  0  0
  6 17  1  0  0  0  0
  6  1  2  0  0  0  0
  8 21  1  0  0  0  0
  9  1  1  0  0  0  0
 10 18  1  0  0  0  0
 10 19  1  0  0  0  0
 12  8  1  0  0  0  0
 13 18  1  6  0  0  0
 13  2  1  0  0  0  0
 13  8  1  0  0  0  0
 14  5  2  0  0  0  0
 15  4  1  0  0  0  0
 16 12  1  0  0  0  0
 16  5  1  0  0  0  0
 17 16  2  0  0  0  0
 19  3  2  0  0  0  0
 20 19  1  0  0  0  0
 20 15  2  0  0  0  0
 23 21  1  0  0  0  0
 23 22  1  1  0  0  0
 24 28  1  0  0  0  0
 26 29  2  0  0  0  0
 27 24  1  0  0  0  0
 28 25  1  0  0  0  0
 29 30  1  0  0  0  0
 30 25  1  0  0  0  0
 30 23  1  6  0  0  0
 31 24  2  0  0  0  0
 31 29  1  0  0  0  0
M  END
>  <MODEL>
7

>  <REMARK>
 VINA RESULT:      -7.9      3.860      7.516
  Name = 
  3 active torsions:
  status: ('A' for Active; 'I' for Inactive)
    1  A    between atoms: C_5  and  C_16
    2  A    between atoms: C_5  and  C_30
    3  A    between atoms: N_10  and  C_16
                            x       y       z     vdW  Elec       q    Type
                         _______ _______ _______ _____ _____    ______ ____

>  <TORSDO>
F 3

$$$$
=
 OpenBabel11112417023D

 31 35  0  0  1  0  0  0  0  0999 V2000
  188.1610  173.0940  142.0220 C   0  0  0  0  0  0  0  0  0  0  0  0
  188.9620  176.3990  143.7380 C   0  0  2  0  0  3  0  0  0  0  0  0
  187.5910  177.0000  143.7780 C   0  0  0  0  0  0  0  0  0  0  0  0
  185.6900  177.9810  142.6540 C   0  0  0  0  0  0  0  0  0  0  0  0
  188.9450  174.9200  143.4190 C   0  0  0  0  0  0  0  0  0  0  0  0
  189.0120  172.2140  142.7030 C   0  0  0  0  0  3  0  0  0  0  0  0
  187.0080  177.5270  142.6210 C   0  0  0  0  0  3  0  0  0  0  0  0
  190.9930  175.9510  145.0400 N   0  0  0  0  0  0  0  0  0  0  0  0
  187.3690  172.6420  141.0100 F   0  0  0  0  0  0  0  0  0  0  0  0
  187.4480  176.4450  146.1180 O   0  0  0  0  0  0  0  0  0  0  0  0
  185.0930  178.5170  141.4760 N   0  0  0  0  0  1  0  0  0  0  0  0
  190.7400  174.5110  145.1760 C   0  0  0  0  0  2  0  0  0  0  0  0
  189.7120  176.6950  145.0500 C   0  0  2  0  0  3  0  0  0  0  0  0
  188.1340  174.4390  142.3730 C   0  0  0  0  0  3  0  0  0  0  0  0
  184.9380  177.8860  143.8310 C   0  0  0  0  0  3  0  0  0  0  0  0
  189.8340  174.0310  144.0730 C   0  0  0  0  0  0  0  0  0  0  0  0
  189.8470  172.6820  143.7260 C   0  0  0  0  0  3  0  0  0  0  0  0
  188.8730  176.4590  146.3340 C   0  0  0  0  0  2  0  0  0  0  0  0
  186.8520  176.9380  144.9650 C   0  0  0  0  0  0  0  0  0  0  0  0
  185.5180  177.3620  144.9860 C   0  0  0  0  0  3  0  0  0  0  0  0
  191.8300  176.3780  146.1500 C   0  0  0  0  0  2  0  0  0  0  0  0
  194.1360  176.3340  146.7940 O   0  0  0  0  0  1  0  0  0  0  0  0
  193.2830  176.4690  145.6910 C   0  0  1  0  0  3  0  0  0  0  0  0
  196.3500  175.7150  143.5380 C   0  0  0  0  0  0  0  0  0  0  0  0
  194.7640  174.5060  145.0470 C   0  0  0  0  0  2  0  0  0  0  0  0
  193.0680  176.5220  142.5530 O   0  0  0  0  0  0  0  0  0  0  0  0
  197.7170  175.8470  143.0090 C   0  0  0  0  0  1  0  0  0  0  0  0
  196.1430  175.1590  144.9170 C   0  0  0  0  0  2  0  0  0  0  0  0
  193.9870  176.0740  143.2780 C   0  0  0  0  0  0  0  0  0  0  0  0
  193.6480  175.4530  144.6030 C   0  0  2  0  0  3  0  0  0  0  0  0
  195.3490  176.1490  142.8300 N   0  0  0  0  0  0  0  0  0  0  0  0
  1 14  2  0  0  0  0
  1  6  1  0  0  0  0
  2  5  1  1  0  0  0
  2  3  1  0  0  0  0
  2 13  1  0  0  0  0
  3 19  1  0  0  0  0
  4 15  2  0  0  0  0
  5 16  2  0  0  0  0
  6 17  2  0  0  0  0
  7  4  1  0  0  0  0
  7  3  2  0  0  0  0
  8 13  1  0  0  0  0
  8 12  1  0  0  0  0
  8 21  1  0  0  0  0
  9  1  1  0  0  0  0
 10 18  1  0  0  0  0
 11  4  1  0  0  0  0
 13 18  1  1  0  0  0
 14  5  1  0  0  0  0
 15 20  1  0  0  0  0
 16 12  1  0  0  0  0
 17 16  1  0  0  0  0
 19 20  2  0  0  0  0
 19 10  1  0  0  0  0
 23 21  1  0  0  0  0
 23 22  1  1  0  0  0
 24 28  1  0  0  0  0
 26 29  2  0  0  0  0
 27 24  1  0  0  0  0
 28 25  1  0  0  0  0
 29 30  1  0  0  0  0
 30 25  1  0  0  0  0
 30 23  1  1  0  0  0
 31 29  1  0  0  0  0
 31 24  2  0  0  0  0
M  END
>  <MODEL>
8

>  <REMARK>
 VINA RESULT:      -7.8      3.954      6.143
  Name = 
  3 active torsions:
  status: ('A' for Active; 'I' for Inactive)
    1  A    between atoms: C_5  and  C_16
    2  A    between atoms: C_5  and  C_30
    3  A    between atoms: N_10  and  C_16
                            x       y       z     vdW  Elec       q    Type
                         _______ _______ _______ _____ _____    ______ ____

>  <TORSDO>
F 3

$$$$
=
 OpenBabel11112417023D

 31 35  0  0  1  0  0  0  0  0999 V2000
  194.3060  176.3480  144.6520 C   0  0  0  0  0  0  0  0  0  0  0  0
  190.6990  175.3060  144.0110 C   0  0  2  0  0  3  0  0  0  0  0  0
  190.9260  174.2150  143.0100 C   0  0  0  0  0  0  0  0  0  0  0  0
  191.5870  173.4910  140.8020 C   0  0  0  0  0  0  0  0  0  0  0  0
  191.9640  175.7090  144.7360 C   0  0  0  0  0  0  0  0  0  0  0  0
  194.2790  176.6100  146.0280 C   0  0  0  0  0  3  0  0  0  0  0  0
  191.2700  174.5180  141.6890 C   0  0  0  0  0  3  0  0  0  0  0  0
  189.4940  175.9290  146.0560 N   0  0  0  0  0  0  0  0  0  0  0  0
  195.4500  176.5330  143.9370 F   0  0  0  0  0  0  0  0  0  0  0  0
  190.5170  172.5860  144.7360 O   0  0  0  0  0  0  0  0  0  0  0  0
  191.9390  173.7970  139.4550 N   0  0  0  0  0  1  0  0  0  0  0  0
  190.6740  175.8480  146.9270 C   0  0  0  0  0  2  0  0  0  0  0  0
  189.5780  174.9050  144.9890 C   0  0  2  0  0  3  0  0  0  0  0  0
  193.1530  175.9080  144.0100 C   0  0  0  0  0  3  0  0  0  0  0  0
  191.5890  172.1590  141.2340 C   0  0  0  0  0  3  0  0  0  0  0  0
  191.9350  176.0180  146.1190 C   0  0  0  0  0  0  0  0  0  0  0  0
  193.0950  176.4450  146.7600 C   0  0  0  0  0  3  0  0  0  0  0  0
  189.6920  173.4570  145.5340 C   0  0  0  0  0  2  0  0  0  0  0  0
  190.8930  172.8810  143.4330 C   0  0  0  0  0  0  0  0  0  0  0  0
  191.2450  171.8540  142.5500 C   0  0  0  0  0  3  0  0  0  0  0  0
  188.3080  175.7130  146.8680 C   0  0  0  0  0  2  0  0  0  0  0  0
  188.4960  178.0980  146.7610 O   0  0  0  0  0  1  0  0  0  0  0  0
  187.6980  177.0580  147.2550 C   0  0  1  0  0  3  0  0  0  0  0  0
  185.9310  178.4570  144.1690 C   0  0  0  0  0  0  0  0  0  0  0  0
  185.9270  176.3810  145.5620 C   0  0  0  0  0  2  0  0  0  0  0  0
  185.6220  179.4040  147.5460 O   0  0  0  0  0  0  0  0  0  0  0  0
  185.7780  179.0720  142.8410 C   0  0  0  0  0  1  0  0  0  0  0  0
  186.4260  177.0450  144.2760 C   0  0  0  0  0  2  0  0  0  0  0  0
  185.8450  178.6580  146.5630 C   0  0  0  0  0  0  0  0  0  0  0  0
  186.2460  177.2300  146.7950 C   0  0  2  0  0  3  0  0  0  0  0  0
  185.7030  179.1730  145.2310 N   0  0  0  0  0  0  0  0  0  0  0  0
  1  6  1  0  0  0  0
  2  3  1  6  0  0  0
  2  5  1  0  0  0  0
  2 13  1  0  0  0  0
  3 19  1  0  0  0  0
  4 15  2  0  0  0  0
  4  7  1  0  0  0  0
  5 16  2  0  0  0  0
  6 17  2  0  0  0  0
  7  3  2  0  0  0  0
  8 21  1  0  0  0  0
  8 12  1  0  0  0  0
  9  1  1  0  0  0  0
 10 18  1  0  0  0  0
 11  4  1  0  0  0  0
 13 18  1  1  0  0  0
 13  8  1  0  0  0  0
 14  1  2  0  0  0  0
 14  5  1  0  0  0  0
 15 20  1  0  0  0  0
 16 17  1  0  0  0  0
 16 12  1  0  0  0  0
 19 10  1  0  0  0  0
 20 19  2  0  0  0  0
 21 23  1  0  0  0  0
 23 22  1  6  0  0  0
 24 28  1  0  0  0  0
 24 31  2  0  0  0  0
 25 30  1  0  0  0  0
 27 24  1  0  0  0  0
 28 25  1  0  0  0  0
 29 30  1  0  0  0  0
 29 26  2  0  0  0  0
 30 23  1  6  0  0  0
 31 29  1  0  0  0  0
M  END
>  <MODEL>
9

>  <REMARK>
 VINA RESULT:      -7.6      3.102      7.854
  Name = 
  3 active torsions:
  status: ('A' for Active; 'I' for Inactive)
    1  A    between atoms: C_5  and  C_16
    2  A    between atoms: C_5  and  C_30
    3  A    between atoms: N_10  and  C_16
                            x       y       z     vdW  Elec       q    Type
                         _______ _______ _______ _____ _____    ______ ____

>  <TORSDO>
F 3

$$$$
