=
 OpenBabel11112417373D

 28 31  0  0  1  0  0  0  0  0999 V2000
  187.7700  177.6150  144.4760 C   0  0  0  0  0  0  0  0  0  0  0  0
  190.5780  177.9220  147.2620 O   0  0  0  0  0  0  0  0  0  0  0  0
  185.7000  177.0640  146.2790 C   0  0  0  0  0  3  0  0  0  0  0  0
  188.8040  177.8790  143.5780 O   0  0  0  0  0  0  0  0  0  0  0  0
  190.3370  175.5720  147.9490 O   0  0  0  0  0  0  0  0  0  0  0  0
  190.9270  176.5010  146.9250 S   0  0  0  0  0  0  0  0  0  0  0  0
  193.2240  176.1790  145.4330 C   0  0  0  0  0  0  0  0  0  0  0  0
  190.3440  176.1010  145.2990 C   0  0  1  0  0  3  0  0  0  0  0  0
  186.6980  177.1000  141.3920 C   0  0  0  0  0  1  0  0  0  0  0  0
  189.0350  174.6280  143.9130 C   0  0  2  0  0  3  0  0  0  0  0  0
  192.5460  175.5890  144.4980 N   0  0  0  0  0  0  0  0  0  0  0  0
  192.7100  176.2920  146.8600 C   0  0  0  0  0  2  0  0  0  0  0  0
  188.1510  177.2180  141.3720 N   0  0  0  0  0  0  0  0  0  0  0  0
  187.8420  176.4780  145.3010 C   0  0  0  0  0  0  0  0  0  0  0  0
  194.5510  176.7670  145.1040 C   0  0  0  0  0  1  0  0  0  0  0  0
  188.8410  175.9520  141.6890 C   0  0  0  0  0  2  0  0  0  0  0  0
  186.8010  176.2080  146.1960 C   0  0  0  0  0  3  0  0  0  0  0  0
  186.6570  178.4650  144.5540 C   0  0  0  0  0  3  0  0  0  0  0  0
  185.6270  178.1900  145.4560 C   0  0  0  0  0  3  0  0  0  0  0  0
  188.5710  178.3190  142.2460 C   0  0  0  0  0  2  0  0  0  0  0  0
  190.5210  174.4980  143.5440 C   0  0  1  0  0  3  0  0  0  0  0  0
  188.1320  175.0740  142.7410 C   0  0  1  0  0  3  0  0  0  0  0  0
  191.2430  175.0290  144.7670 C   0  0  2  0  0  3  0  0  0  0  0  0
  188.9710  175.4820  145.2010 C   0  0  2  0  0  3  0  0  0  0  0  0
  188.3070  173.8130  140.9290 C   0  0  0  0  0  1  0  0  0  0  0  0
  187.5880  173.9500  142.1170 O   0  0  0  0  0  0  0  0  0  0  0  0
  190.8650  173.0380  143.3030 C   0  0  0  0  0  2  0  0  0  0  0  0
  190.0330  172.1430  144.2020 C   0  0  0  0  0  1  0  0  0  0  0  0
  1 18  2  0  0  0  0
  1 14  1  0  0  0  0
  4  1  1  0  0  0  0
  6  2  2  0  0  0  0
  6  5  2  0  0  0  0
  7 12  1  0  0  0  0
  8  6  1  1  0  0  0
 10 24  1  0  0  0  0
 11 23  1  0  0  0  0
 11  7  2  0  0  0  0
 12  6  1  0  0  0  0
 13  9  1  0  0  0  0
 13 16  1  0  0  0  0
 13 20  1  0  0  0  0
 14 17  2  0  0  0  0
 15  7  1  0  0  0  0
 16 22  1  0  0  0  0
 17  3  1  0  0  0  0
 18 19  1  0  0  0  0
 19  3  2  0  0  0  0
 20  4  1  0  0  0  0
 21 10  1  0  0  0  0
 21 23  1  0  0  0  0
 22 10  1  0  0  0  0
 23  8  1  0  0  0  0
 24  8  1  0  0  0  0
 24 14  1  0  0  0  0
 25 26  1  0  0  0  0
 26 22  1  0  0  0  0
 27 21  1  0  0  0  0
 27 28  1  0  0  0  0
M  END
>  <MODEL>
1

>  <REMARK>
 VINA RESULT:      -7.3      0.000      0.000
  Name = 
  2 active torsions:
  status: ('A' for Active; 'I' for Inactive)
    1  A    between atoms: C_5  and  C_24
    2  A    between atoms: O_17  and  C_25
                            x       y       z     vdW  Elec       q    Type
                         _______ _______ _______ _____ _____    ______ ____

>  <TORSDO>
F 2

$$$$
=
 OpenBabel11112417373D

 28 31  0  0  1  0  0  0  0  0999 V2000
  189.3470  176.2460  144.6780 C   0  0  0  0  0  0  0  0  0  0  0  0
  193.1930  176.8030  145.4810 O   0  0  0  0  0  0  0  0  0  0  0  0
  188.7380  175.1310  147.1740 C   0  0  0  0  0  3  0  0  0  0  0  0
  189.6550  176.7910  143.4320 O   0  0  0  0  0  0  0  0  0  0  0  0
  193.6240  174.3920  145.7250 O   0  0  0  0  0  0  0  0  0  0  0  0
  193.4300  175.5150  144.7450 S   0  0  0  0  0  0  0  0  0  0  0  0
  194.4890  175.7890  142.2140 C   0  0  0  0  0  0  0  0  0  0  0  0
  192.0700  175.1770  143.6590 C   0  0  1  0  0  3  0  0  0  0  0  0
  186.7710  175.8490  142.6460 C   0  0  0  0  0  1  0  0  0  0  0  0
  190.3630  173.6280  142.9600 C   0  0  2  0  0  3  0  0  0  0  0  0
  193.4640  175.1780  141.7070 N   0  0  0  0  0  0  0  0  0  0  0  0
  194.8700  175.6590  143.6800 C   0  0  0  0  0  2  0  0  0  0  0  0
  187.9340  176.2430  141.8610 N   0  0  0  0  0  0  0  0  0  0  0  0
  189.9910  175.0660  145.0960 C   0  0  0  0  0  0  0  0  0  0  0  0
  195.3260  176.6510  141.3340 C   0  0  0  0  0  1  0  0  0  0  0  0
  188.8050  175.1070  141.5020 C   0  0  0  0  0  2  0  0  0  0  0  0
  189.6770  174.5140  146.3420 C   0  0  0  0  0  3  0  0  0  0  0  0
  188.3970  176.8550  145.5110 C   0  0  0  0  0  3  0  0  0  0  0  0
  188.0970  176.3000  146.7560 C   0  0  0  0  0  3  0  0  0  0  0  0
  188.6620  177.3110  142.5550 C   0  0  0  0  0  2  0  0  0  0  0  0
  191.3780  173.8220  141.8240 C   0  0  1  0  0  3  0  0  0  0  0  0
  188.9140  174.0080  142.5800 C   0  0  1  0  0  3  0  0  0  0  0  0
  192.6100  174.3550  142.5300 C   0  0  2  0  0  3  0  0  0  0  0  0
  190.9550  174.3200  144.2090 C   0  0  2  0  0  3  0  0  0  0  0  0
  188.1350  173.0030  140.7660 C   0  0  0  0  0  1  0  0  0  0  0  0
  188.2280  172.8690  142.1530 O   0  0  0  0  0  0  0  0  0  0  0  0
  191.6700  172.4860  141.1610 C   0  0  0  0  0  2  0  0  0  0  0  0
  191.4960  171.3530  142.1550 C   0  0  0  0  0  1  0  0  0  0  0  0
  1 14  2  0  0  0  0
  1 18  1  0  0  0  0
  4  1  1  0  0  0  0
  6  2  2  0  0  0  0
  6  5  2  0  0  0  0
  7 12  1  0  0  0  0
  8 24  1  0  0  0  0
  8  6  1  1  0  0  0
 10 24  1  0  0  0  0
 11  7  2  0  0  0  0
 11 23  1  0  0  0  0
 12  6  1  0  0  0  0
 13 20  1  0  0  0  0
 13  9  1  0  0  0  0
 14 17  1  0  0  0  0
 15  7  1  0  0  0  0
 16 13  1  0  0  0  0
 16 22  1  0  0  0  0
 17  3  2  0  0  0  0
 18 19  2  0  0  0  0
 19  3  1  0  0  0  0
 20  4  1  0  0  0  0
 21 23  1  0  0  0  0
 21 10  1  0  0  0  0
 22 10  1  0  0  0  0
 23  8  1  0  0  0  0
 24 14  1  0  0  0  0
 25 26  1  0  0  0  0
 26 22  1  0  0  0  0
 27 21  1  0  0  0  0
 27 28  1  0  0  0  0
M  END
>  <MODEL>
2

>  <REMARK>
 VINA RESULT:      -6.9      2.084      2.658
  Name = 
  2 active torsions:
  status: ('A' for Active; 'I' for Inactive)
    1  A    between atoms: C_5  and  C_24
    2  A    between atoms: O_17  and  C_25
                            x       y       z     vdW  Elec       q    Type
                         _______ _______ _______ _____ _____    ______ ____

>  <TORSDO>
F 2

$$$$
=
 OpenBabel11112417373D

 28 31  0  0  1  0  0  0  0  0999 V2000
  190.8820  176.7580  145.0130 C   0  0  0  0  0  0  0  0  0  0  0  0
  194.7530  177.5640  145.3440 O   0  0  0  0  0  0  0  0  0  0  0  0
  190.5090  176.2450  147.7400 C   0  0  0  0  0  3  0  0  0  0  0  0
  191.0720  177.0020  143.6540 O   0  0  0  0  0  0  0  0  0  0  0  0
  195.2960  175.2870  146.1020 O   0  0  0  0  0  0  0  0  0  0  0  0
  194.9840  176.1460  144.9090 S   0  0  0  0  0  0  0  0  0  0  0  0
  195.8360  175.8420  142.3030 C   0  0  0  0  0  0  0  0  0  0  0  0
  193.5590  175.5350  144.0470 C   0  0  1  0  0  3  0  0  0  0  0  0
  188.1770  175.8440  143.3500 C   0  0  0  0  0  1  0  0  0  0  0  0
  191.8660  173.8310  143.8690 C   0  0  2  0  0  3  0  0  0  0  0  0
  194.8000  175.1080  142.0380 N   0  0  0  0  0  0  0  0  0  0  0  0
  196.3320  176.0650  143.7230 C   0  0  0  0  0  2  0  0  0  0  0  0
  189.2600  176.0670  142.4010 N   0  0  0  0  0  0  0  0  0  0  0  0
  191.6010  175.7210  145.6380 C   0  0  0  0  0  0  0  0  0  0  0  0
  196.5690  176.4900  141.1820 C   0  0  0  0  0  1  0  0  0  0  0  0
  190.1450  174.8960  142.2430 C   0  0  0  0  0  2  0  0  0  0  0  0
  191.4050  175.4690  147.0000 C   0  0  0  0  0  3  0  0  0  0  0  0
  189.9750  177.5250  145.7580 C   0  0  0  0  0  3  0  0  0  0  0  0
  189.7920  177.2700  147.1190 C   0  0  0  0  0  3  0  0  0  0  0  0
  189.9960  177.2820  142.7660 C   0  0  0  0  0  2  0  0  0  0  0  0
  192.7840  173.7750  142.6390 C   0  0  1  0  0  3  0  0  0  0  0  0
  190.3780  174.0830  143.5330 C   0  0  1  0  0  3  0  0  0  0  0  0
  194.0440  174.4830  143.0970 C   0  0  2  0  0  3  0  0  0  0  0  0
  192.5240  174.8080  144.8710 C   0  0  2  0  0  3  0  0  0  0  0  0
  189.7470  172.3290  144.7290 C   0  0  0  0  0  1  0  0  0  0  0  0
  189.7080  172.8620  143.4400 O   0  0  0  0  0  0  0  0  0  0  0  0
  193.0770  172.3280  142.2820 C   0  0  0  0  0  2  0  0  0  0  0  0
  193.2420  171.4950  143.5390 C   0  0  0  0  0  1  0  0  0  0  0  0
  1 14  2  0  0  0  0
  1 18  1  0  0  0  0
  4  1  1  0  0  0  0
  6  2  2  0  0  0  0
  6  5  2  0  0  0  0
  7 12  1  0  0  0  0
  8 24  1  0  0  0  0
  8  6  1  1  0  0  0
 10 24  1  0  0  0  0
 11  7  2  0  0  0  0
 11 23  1  0  0  0  0
 12  6  1  0  0  0  0
 13 20  1  0  0  0  0
 13  9  1  0  0  0  0
 14 17  1  0  0  0  0
 15  7  1  0  0  0  0
 16 13  1  0  0  0  0
 16 22  1  0  0  0  0
 17  3  2  0  0  0  0
 18 19  2  0  0  0  0
 19  3  1  0  0  0  0
 20  4  1  0  0  0  0
 21 23  1  0  0  0  0
 21 10  1  0  0  0  0
 22 10  1  0  0  0  0
 23  8  1  0  0  0  0
 24 14  1  0  0  0  0
 26 22  1  0  0  0  0
 26 25  1  0  0  0  0
 27 21  1  0  0  0  0
 27 28  1  0  0  0  0
M  END
>  <MODEL>
3

>  <REMARK>
 VINA RESULT:      -6.8      2.622      3.656
  Name = 
  2 active torsions:
  status: ('A' for Active; 'I' for Inactive)
    1  A    between atoms: C_5  and  C_24
    2  A    between atoms: O_17  and  C_25
                            x       y       z     vdW  Elec       q    Type
                         _______ _______ _______ _____ _____    ______ ____

>  <TORSDO>
F 2

$$$$
=
 OpenBabel11112417373D

 28 31  0  0  1  0  0  0  0  0999 V2000
  192.7510  174.1590  143.8470 C   0  0  0  0  0  0  0  0  0  0  0  0
  190.1040  173.8380  140.9090 O   0  0  0  0  0  0  0  0  0  0  0  0
  193.0790  171.3980  144.1800 C   0  0  0  0  0  3  0  0  0  0  0  0
  192.5780  175.5340  143.6880 O   0  0  0  0  0  0  0  0  0  0  0  0
  188.4510  172.7160  142.3450 O   0  0  0  0  0  0  0  0  0  0  0  0
  189.0560  174.0380  141.9660 S   0  0  0  0  0  0  0  0  0  0  0  0
  187.8870  176.5360  142.0000 C   0  0  0  0  0  0  0  0  0  0  0  0
  189.7650  174.8380  143.3810 C   0  0  1  0  0  3  0  0  0  0  0  0
  194.2340  175.7430  146.3400 C   0  0  0  0  0  1  0  0  0  0  0  0
  190.1470  174.8000  145.7590 C   0  0  2  0  0  3  0  0  0  0  0  0
  188.2790  176.7150  143.2230 N   0  0  0  0  0  0  0  0  0  0  0  0
  187.7770  175.1530  141.3750 C   0  0  0  0  0  2  0  0  0  0  0  0
  193.3710  176.6810  145.6330 N   0  0  0  0  0  0  0  0  0  0  0  0
  191.6470  173.3580  144.1960 C   0  0  0  0  0  0  0  0  0  0  0  0
  187.5310  177.7210  141.1720 C   0  0  0  0  0  1  0  0  0  0  0  0
  191.9650  176.6260  146.0790 C   0  0  0  0  0  2  0  0  0  0  0  0
  191.8220  171.9800  144.3640 C   0  0  0  0  0  3  0  0  0  0  0  0
  194.0130  173.5720  143.6750 C   0  0  0  0  0  3  0  0  0  0  0  0
  194.1740  172.1950  143.8390 C   0  0  0  0  0  3  0  0  0  0  0  0
  193.5090  176.4880  144.1850 C   0  0  0  0  0  2  0  0  0  0  0  0
  189.2260  175.9770  145.4040 C   0  0  1  0  0  3  0  0  0  0  0  0
  191.4610  175.2170  146.4580 C   0  0  1  0  0  3  0  0  0  0  0  0
  188.6600  175.5960  144.0500 C   0  0  2  0  0  3  0  0  0  0  0  0
  190.2870  173.9440  144.4790 C   0  0  2  0  0  3  0  0  0  0  0  0
  191.2560  176.4660  148.2760 C   0  0  0  0  0  1  0  0  0  0  0  0
  191.2980  175.1400  147.8420 O   0  0  0  0  0  0  0  0  0  0  0  0
  188.1200  176.0940  146.4390 C   0  0  0  0  0  2  0  0  0  0  0  0
  187.8890  177.5480  146.8040 C   0  0  0  0  0  1  0  0  0  0  0  0
  1 14  1  0  0  0  0
  2  6  2  0  0  0  0
  3 17  1  0  0  0  0
  4  1  1  0  0  0  0
  4 20  1  0  0  0  0
  6  5  2  0  0  0  0
  7 11  2  0  0  0  0
  8  6  1  6  0  0  0
  8 23  1  0  0  0  0
  8 24  1  0  0  0  0
 10 22  1  0  0  0  0
 11 23  1  0  0  0  0
 12  6  1  0  0  0  0
 12  7  1  0  0  0  0
 13 16  1  0  0  0  0
 13  9  1  0  0  0  0
 14 17  2  0  0  0  0
 14 24  1  0  0  0  0
 15  7  1  0  0  0  0
 16 22  1  0  0  0  0
 18 19  1  0  0  0  0
 18  1  2  0  0  0  0
 19  3  2  0  0  0  0
 20 13  1  0  0  0  0
 21 10  1  0  0  0  0
 21 27  1  0  0  0  0
 22 26  1  0  0  0  0
 23 21  1  0  0  0  0
 24 10  1  0  0  0  0
 26 25  1  0  0  0  0
 27 28  1  0  0  0  0
M  END
>  <MODEL>
4

>  <REMARK>
 VINA RESULT:      -6.7      2.219      6.428
  Name = 
  2 active torsions:
  status: ('A' for Active; 'I' for Inactive)
    1  A    between atoms: C_5  and  C_24
    2  A    between atoms: O_17  and  C_25
                            x       y       z     vdW  Elec       q    Type
                         _______ _______ _______ _____ _____    ______ ____

>  <TORSDO>
F 2

$$$$
=
 OpenBabel11112417373D

 28 31  0  0  1  0  0  0  0  0999 V2000
  191.0000  173.6860  144.3150 C   0  0  0  0  0  0  0  0  0  0  0  0
  189.8060  176.4890  146.8570 O   0  0  0  0  0  0  0  0  0  0  0  0
  193.5920  174.7070  144.0300 C   0  0  0  0  0  3  0  0  0  0  0  0
  189.7060  173.1860  144.4490 O   0  0  0  0  0  0  0  0  0  0  0  0
  190.0860  178.2910  145.2040 O   0  0  0  0  0  0  0  0  0  0  0  0
  189.1970  177.1690  145.6650 S   0  0  0  0  0  0  0  0  0  0  0  0
  186.4540  176.9600  145.4690 C   0  0  0  0  0  0  0  0  0  0  0  0
  188.9360  175.9950  144.3620 C   0  0  1  0  0  3  0  0  0  0  0  0
  190.5000  171.3290  142.0530 C   0  0  0  0  0  1  0  0  0  0  0  0
  189.3140  175.3940  142.0600 C   0  0  2  0  0  3  0  0  0  0  0  0
  186.5690  176.3850  144.3130 N   0  0  0  0  0  0  0  0  0  0  0  0
  187.5660  177.8050  146.0720 C   0  0  0  0  0  2  0  0  0  0  0  0
  189.2170  171.7050  142.6330 N   0  0  0  0  0  0  0  0  0  0  0  0
  191.1910  174.9880  143.8160 C   0  0  0  0  0  0  0  0  0  0  0  0
  185.1910  176.7910  146.2390 C   0  0  0  0  0  1  0  0  0  0  0  0
  188.6170  172.8940  141.9960 C   0  0  0  0  0  2  0  0  0  0  0  0
  192.4900  175.4880  143.6730 C   0  0  0  0  0  3  0  0  0  0  0  0
  192.1100  172.9020  144.6610 C   0  0  0  0  0  3  0  0  0  0  0  0
  193.4020  173.4130  144.5210 C   0  0  0  0  0  3  0  0  0  0  0  0
  189.3550  171.8560  144.0860 C   0  0  0  0  0  2  0  0  0  0  0  0
  187.8180  175.6610  142.2840 C   0  0  1  0  0  3  0  0  0  0  0  0
  189.6300  173.9690  141.5510 C   0  0  1  0  0  3  0  0  0  0  0  0
  187.7870  176.5000  143.5460 C   0  0  2  0  0  3  0  0  0  0  0  0
  190.0430  175.8460  143.3470 C   0  0  2  0  0  3  0  0  0  0  0  0
  188.5660  173.3120  139.7220 C   0  0  0  0  0  1  0  0  0  0  0  0
  189.7120  173.9800  140.1570 O   0  0  0  0  0  0  0  0  0  0  0  0
  187.2520  176.4340  141.1050 C   0  0  0  0  0  2  0  0  0  0  0  0
  187.5410  177.9160  141.2560 C   0  0  0  0  0  1  0  0  0  0  0  0
  1  4  1  0  0  0  0
  1 18  1  0  0  0  0
  3 19  1  0  0  0  0
  5  6  2  0  0  0  0
  6 12  1  0  0  0  0
  6  2  2  0  0  0  0
  7 12  1  0  0  0  0
  7 15  1  0  0  0  0
  8  6  1  1  0  0  0
  9 13  1  0  0  0  0
 10 21  1  0  0  0  0
 10 24  1  0  0  0  0
 11  7  2  0  0  0  0
 13 20  1  0  0  0  0
 14  1  2  0  0  0  0
 16 13  1  0  0  0  0
 17 14  1  0  0  0  0
 17  3  2  0  0  0  0
 19 18  2  0  0  0  0
 20  4  1  0  0  0  0
 21 23  1  0  0  0  0
 22 16  1  0  0  0  0
 22 10  1  0  0  0  0
 23 11  1  0  0  0  0
 23  8  1  0  0  0  0
 24 14  1  0  0  0  0
 24  8  1  0  0  0  0
 25 26  1  0  0  0  0
 26 22  1  0  0  0  0
 27 28  1  0  0  0  0
 27 21  1  0  0  0  0
M  END
>  <MODEL>
5

>  <REMARK>
 VINA RESULT:      -6.7      2.037      5.388
  Name = 
  2 active torsions:
  status: ('A' for Active; 'I' for Inactive)
    1  A    between atoms: C_5  and  C_24
    2  A    between atoms: O_17  and  C_25
                            x       y       z     vdW  Elec       q    Type
                         _______ _______ _______ _____ _____    ______ ____

>  <TORSDO>
F 2

$$$$
=
 OpenBabel11112417373D

 28 31  0  0  1  0  0  0  0  0999 V2000
  188.6150  175.8260  144.9730 C   0  0  0  0  0  0  0  0  0  0  0  0
  187.4300  173.4650  142.0130 O   0  0  0  0  0  0  0  0  0  0  0  0
  187.2230  178.0770  144.0580 C   0  0  0  0  0  3  0  0  0  0  0  0
  189.3170  174.7080  145.4210 O   0  0  0  0  0  0  0  0  0  0  0  0
  188.5660  174.8200  140.3020 O   0  0  0  0  0  0  0  0  0  0  0  0
  188.7500  173.7770  141.3690 S   0  0  0  0  0  0  0  0  0  0  0  0
  190.6220  171.7560  141.4920 C   0  0  0  0  0  0  0  0  0  0  0  0
  189.9100  174.3240  142.5940 C   0  0  1  0  0  3  0  0  0  0  0  0
  190.6530  176.7220  147.4160 C   0  0  0  0  0  1  0  0  0  0  0  0
  191.4540  176.0260  143.3160 C   0  0  2  0  0  3  0  0  0  0  0  0
  191.4410  172.5370  142.1240 N   0  0  0  0  0  0  0  0  0  0  0  0
  189.4670  172.2910  140.6590 C   0  0  0  0  0  2  0  0  0  0  0  0
  191.0140  175.3820  146.9680 N   0  0  0  0  0  0  0  0  0  0  0  0
  188.9020  176.3620  143.7030 C   0  0  0  0  0  0  0  0  0  0  0  0
  190.8140  170.2820  141.5800 C   0  0  0  0  0  1  0  0  0  0  0  0
  191.9040  175.3820  145.7910 C   0  0  0  0  0  2  0  0  0  0  0  0
  188.2050  177.4890  143.2560 C   0  0  0  0  0  3  0  0  0  0  0  0
  187.6370  176.4280  145.7780 C   0  0  0  0  0  3  0  0  0  0  0  0
  186.9420  177.5490  145.3200 C   0  0  0  0  0  3  0  0  0  0  0  0
  189.7990  174.5870  146.7540 C   0  0  0  0  0  2  0  0  0  0  0  0
  192.2240  174.7380  142.9870 C   0  0  1  0  0  3  0  0  0  0  0  0
  191.6300  176.5100  144.7730 C   0  0  1  0  0  3  0  0  0  0  0  0
  191.2740  173.9710  142.0880 C   0  0  2  0  0  3  0  0  0  0  0  0
  190.0010  175.8120  142.8290 C   0  0  2  0  0  3  0  0  0  0  0  0
  193.7120  176.7910  145.4770 C   0  0  0  0  0  1  0  0  0  0  0  0
  192.6630  177.4480  144.8320 O   0  0  0  0  0  0  0  0  0  0  0  0
  193.5080  175.0810  142.2510 C   0  0  0  0  0  2  0  0  0  0  0  0
  194.6800  174.3310  142.8540 C   0  0  0  0  0  1  0  0  0  0  0  0
  1  4  1  0  0  0  0
  1 18  1  0  0  0  0
  3 19  1  0  0  0  0
  4 20  1  0  0  0  0
  5  6  2  0  0  0  0
  6  2  2  0  0  0  0
  7 15  1  0  0  0  0
  7 11  2  0  0  0  0
  8  6  1  6  0  0  0
  8 24  1  0  0  0  0
 10 22  1  0  0  0  0
 12  6  1  0  0  0  0
 12  7  1  0  0  0  0
 13  9  1  0  0  0  0
 14  1  2  0  0  0  0
 16 13  1  0  0  0  0
 17 14  1  0  0  0  0
 17  3  2  0  0  0  0
 19 18  2  0  0  0  0
 20 13  1  0  0  0  0
 21 10  1  0  0  0  0
 22 26  1  0  0  0  0
 22 16  1  0  0  0  0
 23 11  1  0  0  0  0
 23  8  1  0  0  0  0
 23 21  1  0  0  0  0
 24 10  1  0  0  0  0
 24 14  1  0  0  0  0
 26 25  1  0  0  0  0
 27 28  1  0  0  0  0
 27 21  1  0  0  0  0
M  END
>  <MODEL>
6

>  <REMARK>
 VINA RESULT:      -6.6      2.434      5.218
  Name = 
  2 active torsions:
  status: ('A' for Active; 'I' for Inactive)
    1  A    between atoms: C_5  and  C_24
    2  A    between atoms: O_17  and  C_25
                            x       y       z     vdW  Elec       q    Type
                         _______ _______ _______ _____ _____    ______ ____

>  <TORSDO>
F 2

$$$$
=
 OpenBabel11112417373D

 28 31  0  0  1  0  0  0  0  0999 V2000
  190.2820  175.8250  144.7430 C   0  0  0  0  0  0  0  0  0  0  0  0
  190.5070  172.9490  142.0190 O   0  0  0  0  0  0  0  0  0  0  0  0
  190.2070  177.9160  142.8820 C   0  0  0  0  0  3  0  0  0  0  0  0
  190.3310  174.7840  145.6690 O   0  0  0  0  0  0  0  0  0  0  0  0
  192.6840  173.7340  141.1820 O   0  0  0  0  0  0  0  0  0  0  0  0
  191.9870  172.9650  142.2700 S   0  0  0  0  0  0  0  0  0  0  0  0
  192.9460  170.8580  143.7690 C   0  0  0  0  0  0  0  0  0  0  0  0
  192.3270  173.6730  143.8600 C   0  0  1  0  0  3  0  0  0  0  0  0
  190.6990  177.0770  147.7740 C   0  0  0  0  0  1  0  0  0  0  0  0
  193.5150  175.3380  145.1320 C   0  0  2  0  0  3  0  0  0  0  0  0
  193.4060  171.6840  144.6560 N   0  0  0  0  0  0  0  0  0  0  0  0
  192.6280  171.2880  142.3450 C   0  0  0  0  0  2  0  0  0  0  0  0
  190.9400  175.6400  147.8200 N   0  0  0  0  0  0  0  0  0  0  0  0
  191.3530  176.0080  143.8490 C   0  0  0  0  0  0  0  0  0  0  0  0
  192.7180  169.4370  144.1520 C   0  0  0  0  0  1  0  0  0  0  0  0
  192.3150  175.2680  147.4340 C   0  0  0  0  0  2  0  0  0  0  0  0
  191.3090  177.0580  142.9250 C   0  0  0  0  0  3  0  0  0  0  0  0
  189.1840  176.6970  144.7040 C   0  0  0  0  0  3  0  0  0  0  0  0
  189.1470  177.7370  143.7730 C   0  0  0  0  0  3  0  0  0  0  0  0
  189.9250  174.9410  147.0240 C   0  0  0  0  0  2  0  0  0  0  0  0
  194.0240  173.9390  145.5120 C   0  0  1  0  0  3  0  0  0  0  0  0
  192.9320  176.1390  146.3180 C   0  0  1  0  0  3  0  0  0  0  0  0
  193.6150  173.0760  144.3350 C   0  0  2  0  0  3  0  0  0  0  0  0
  192.5970  175.1580  143.9010 C   0  0  2  0  0  3  0  0  0  0  0  0
  194.5540  177.5400  145.7630 C   0  0  0  0  0  1  0  0  0  0  0  0
  193.9240  176.9570  146.8630 O   0  0  0  0  0  0  0  0  0  0  0  0
  195.5350  173.9660  145.6650 C   0  0  0  0  0  2  0  0  0  0  0  0
  196.1870  174.4680  144.3910 C   0  0  0  0  0  1  0  0  0  0  0  0
  1  4  1  0  0  0  0
  2  6  2  0  0  0  0
  3 17  2  0  0  0  0
  3 19  1  0  0  0  0
  4 20  1  0  0  0  0
  5  6  2  0  0  0  0
  6 12  1  0  0  0  0
  7 15  1  0  0  0  0
  7 11  2  0  0  0  0
  8  6  1  6  0  0  0
  8 24  1  0  0  0  0
  8 23  1  0  0  0  0
  9 13  1  0  0  0  0
 10 21  1  0  0  0  0
 10 22  1  0  0  0  0
 12  7  1  0  0  0  0
 14 24  1  0  0  0  0
 14  1  2  0  0  0  0
 16 13  1  0  0  0  0
 17 14  1  0  0  0  0
 18  1  1  0  0  0  0
 19 18  2  0  0  0  0
 20 13  1  0  0  0  0
 21 27  1  0  0  0  0
 22 26  1  0  0  0  0
 22 16  1  0  0  0  0
 23 11  1  0  0  0  0
 23 21  1  0  0  0  0
 24 10  1  0  0  0  0
 25 26  1  0  0  0  0
 28 27  1  0  0  0  0
M  END
>  <MODEL>
7

>  <REMARK>
 VINA RESULT:      -6.5      3.108      5.807
  Name = 
  2 active torsions:
  status: ('A' for Active; 'I' for Inactive)
    1  A    between atoms: C_5  and  C_24
    2  A    between atoms: O_17  and  C_25
                            x       y       z     vdW  Elec       q    Type
                         _______ _______ _______ _____ _____    ______ ____

>  <TORSDO>
F 2

$$$$
=
 OpenBabel11112417373D

 28 31  0  0  1  0  0  0  0  0999 V2000
  192.3430  174.3300  141.5530 C   0  0  0  0  0  0  0  0  0  0  0  0
  188.5650  174.9170  140.4930 O   0  0  0  0  0  0  0  0  0  0  0  0
  192.4390  171.6810  140.6490 C   0  0  0  0  0  3  0  0  0  0  0  0
  192.2900  175.6450  142.0130 O   0  0  0  0  0  0  0  0  0  0  0  0
  187.7260  173.2090  142.0530 O   0  0  0  0  0  0  0  0  0  0  0  0
  188.2220  174.6220  141.9250 S   0  0  0  0  0  0  0  0  0  0  0  0
  187.5560  176.8220  143.4490 C   0  0  0  0  0  0  0  0  0  0  0  0
  189.6390  174.8890  142.9570 C   0  0  1  0  0  3  0  0  0  0  0  0
  195.0630  174.9810  143.3140 C   0  0  0  0  0  1  0  0  0  0  0  0
  191.1520  173.9950  144.6050 C   0  0  2  0  0  3  0  0  0  0  0  0
  188.5270  176.5620  144.2680 N   0  0  0  0  0  0  0  0  0  0  0  0
  186.9730  175.7690  142.5190 C   0  0  0  0  0  2  0  0  0  0  0  0
  194.0890  176.0420  143.5410 N   0  0  0  0  0  0  0  0  0  0  0  0
  191.4710  173.3700  142.0990 C   0  0  0  0  0  0  0  0  0  0  0  0
  186.9880  178.1970  143.4130 C   0  0  0  0  0  1  0  0  0  0  0  0
  193.1010  175.7100  144.5870 C   0  0  0  0  0  2  0  0  0  0  0  0
  191.5290  172.0480  141.6440 C   0  0  0  0  0  3  0  0  0  0  0  0
  193.2630  173.9540  140.5630 C   0  0  0  0  0  3  0  0  0  0  0  0
  193.3070  172.6340  140.1110 C   0  0  0  0  0  3  0  0  0  0  0  0
  193.4580  176.4160  142.2710 C   0  0  0  0  0  2  0  0  0  0  0  0
  190.3360  175.1400  145.2220 C   0  0  1  0  0  3  0  0  0  0  0  0
  192.6800  174.2260  144.6310 C   0  0  1  0  0  3  0  0  0  0  0  0
  189.1250  175.2490  144.3160 C   0  0  2  0  0  3  0  0  0  0  0  0
  190.5220  173.6940  143.2250 C   0  0  2  0  0  3  0  0  0  0  0  0
  193.6690  172.3740  145.3340 C   0  0  0  0  0  1  0  0  0  0  0  0
  193.2240  173.6230  145.7670 O   0  0  0  0  0  0  0  0  0  0  0  0
  189.9220  174.7720  146.6370 C   0  0  0  0  0  2  0  0  0  0  0  0
  190.8170  175.4630  147.6470 C   0  0  0  0  0  1  0  0  0  0  0  0
  1  4  1  0  0  0  0
  1 14  1  0  0  0  0
  2  6  2  0  0  0  0
  3 17  1  0  0  0  0
  4 20  1  0  0  0  0
  6  5  2  0  0  0  0
  6 12  1  0  0  0  0
  7 11  2  0  0  0  0
  8  6  1  6  0  0  0
  8 24  1  0  0  0  0
  8 23  1  0  0  0  0
  9 13  1  0  0  0  0
 10 22  1  0  0  0  0
 10 21  1  0  0  0  0
 11 23  1  0  0  0  0
 12  7  1  0  0  0  0
 13 16  1  0  0  0  0
 14 24  1  0  0  0  0
 15  7  1  0  0  0  0
 16 22  1  0  0  0  0
 17 14  2  0  0  0  0
 18  1  2  0  0  0  0
 19 18  1  0  0  0  0
 19  3  2  0  0  0  0
 20 13  1  0  0  0  0
 21 27  1  0  0  0  0
 22 26  1  0  0  0  0
 23 21  1  0  0  0  0
 24 10  1  0  0  0  0
 25 26  1  0  0  0  0
 27 28  1  0  0  0  0
M  END
>  <MODEL>
8

>  <REMARK>
 VINA RESULT:      -6.2      2.637      6.353
  Name = 
  2 active torsions:
  status: ('A' for Active; 'I' for Inactive)
    1  A    between atoms: C_5  and  C_24
    2  A    between atoms: O_17  and  C_25
                            x       y       z     vdW  Elec       q    Type
                         _______ _______ _______ _____ _____    ______ ____

>  <TORSDO>
F 2

$$$$
=
 OpenBabel11112417373D

 28 31  0  0  1  0  0  0  0  0999 V2000
  194.4850  172.9970  143.3880 C   0  0  0  0  0  0  0  0  0  0  0  0
  190.9600  171.2940  142.7370 O   0  0  0  0  0  0  0  0  0  0  0  0
  195.0460  171.5150  145.6970 C   0  0  0  0  0  3  0  0  0  0  0  0
  194.1990  173.7420  142.2450 O   0  0  0  0  0  0  0  0  0  0  0  0
  190.0100  172.1570  144.8370 O   0  0  0  0  0  0  0  0  0  0  0  0
  190.3680  172.4950  143.4160 S   0  0  0  0  0  0  0  0  0  0  0  0
  189.1730  174.3240  141.7320 C   0  0  0  0  0  0  0  0  0  0  0  0
  191.5080  173.8520  143.3580 C   0  0  1  0  0  3  0  0  0  0  0  0
  196.7040  175.4280  143.0850 C   0  0  0  0  0  1  0  0  0  0  0  0
  192.7410  175.5250  144.5750 C   0  0  2  0  0  3  0  0  0  0  0  0
  189.9790  175.2500  142.1490 N   0  0  0  0  0  0  0  0  0  0  0  0
  188.9080  173.0570  142.5320 C   0  0  0  0  0  2  0  0  0  0  0  0
  195.5960  175.6840  142.1720 N   0  0  0  0  0  0  0  0  0  0  0  0
  193.6280  173.0800  144.5020 C   0  0  0  0  0  0  0  0  0  0  0  0
  188.4800  174.5000  140.4270 C   0  0  0  0  0  1  0  0  0  0  0  0
  194.4570  176.3670  142.8180 C   0  0  0  0  0  2  0  0  0  0  0  0
  193.9190  172.3390  145.6530 C   0  0  0  0  0  3  0  0  0  0  0  0
  195.6220  172.1770  143.4420 C   0  0  0  0  0  3  0  0  0  0  0  0
  195.8990  171.4370  144.5930 C   0  0  0  0  0  3  0  0  0  0  0  0
  195.2000  174.4360  141.5100 C   0  0  0  0  0  2  0  0  0  0  0  0
  191.6980  176.2060  143.6760 C   0  0  1  0  0  3  0  0  0  0  0  0
  194.1980  175.9500  144.2810 C   0  0  1  0  0  3  0  0  0  0  0  0
  190.6920  175.1070  143.3960 C   0  0  2  0  0  3  0  0  0  0  0  0
  192.4410  174.0090  144.5340 C   0  0  2  0  0  3  0  0  0  0  0  0
  194.3430  176.5030  146.4210 C   0  0  0  0  0  1  0  0  0  0  0  0
  194.5610  176.9950  145.1330 O   0  0  0  0  0  0  0  0  0  0  0  0
  191.0470  177.3570  144.4250 C   0  0  0  0  0  2  0  0  0  0  0  0
  190.5660  176.8960  145.7880 C   0  0  0  0  0  1  0  0  0  0  0  0
  1 18  2  0  0  0  0
  1 14  1  0  0  0  0
  2  6  2  0  0  0  0
  4  1  1  0  0  0  0
  6  5  2  0  0  0  0
  7 11  2  0  0  0  0
  7 12  1  0  0  0  0
  8 23  1  0  0  0  0
  8  6  1  1  0  0  0
  8 24  1  0  0  0  0
 11 23  1  0  0  0  0
 12  6  1  0  0  0  0
 13 16  1  0  0  0  0
 13  9  1  0  0  0  0
 14 24  1  0  0  0  0
 14 17  2  0  0  0  0
 15  7  1  0  0  0  0
 16 22  1  0  0  0  0
 17  3  1  0  0  0  0
 18 19  1  0  0  0  0
 19  3  2  0  0  0  0
 20 13  1  0  0  0  0
 20  4  1  0  0  0  0
 21 27  1  0  0  0  0
 21 10  1  0  0  0  0
 22 10  1  0  0  0  0
 22 26  1  0  0  0  0
 23 21  1  0  0  0  0
 24 10  1  0  0  0  0
 26 25  1  0  0  0  0
 27 28  1  0  0  0  0
M  END
>  <MODEL>
9

>  <REMARK>
 VINA RESULT:      -6.0      3.396      7.111
  Name = 
  2 active torsions:
  status: ('A' for Active; 'I' for Inactive)
    1  A    between atoms: C_5  and  C_24
    2  A    between atoms: O_17  and  C_25
                            x       y       z     vdW  Elec       q    Type
                         _______ _______ _______ _____ _____    ______ ____

>  <TORSDO>
F 2

$$$$
