=
 OpenBabel11112416263D

 30 35  0  0  1  0  0  0  0  0999 V2000
  189.9680  175.8870  143.8630 C   0  0  2  0  0  3  0  0  0  0  0  0
  191.7630  175.3660  145.5990 C   0  0  0  0  0  0  0  0  0  0  0  0
  187.3980  176.8430  146.6620 O   0  0  0  0  0  0  0  0  0  0  0  0
  188.4480  176.1230  143.8450 C   0  0  2  0  0  3  0  0  0  0  0  0
  190.2530  174.6400  143.2800 O   0  0  0  0  0  0  0  0  0  0  0  0
  188.2080  174.8090  140.1410 C   0  0  0  0  0  1  0  0  0  0  0  0
  186.3830  177.9890  142.2790 C   0  0  2  0  0  3  0  0  0  0  0  0
  188.5420  174.7780  141.6300 C   0  0  1  0  0  3  0  0  0  0  0  0
  185.8290  177.3420  143.4710 N   0  0  2  0  0  0  0  0  0  0  0  0
  186.2730  177.0870  145.9000 C   0  0  0  0  0  0  0  0  0  0  0  0
  190.0500  174.7850  141.8980 C   0  0  2  0  0  3  0  0  0  0  0  0
  187.8440  175.8980  142.4300 C   0  0  2  0  0  3  0  0  0  0  0  0
  192.2490  175.4200  146.9080 C   0  0  0  0  0  3  0  0  0  0  0  0
  184.4840  177.8950  143.5740 C   0  0  0  0  0  2  0  0  0  0  0  0
  185.2460  178.1910  141.3060 C   0  0  0  0  0  2  0  0  0  0  0  0
  192.5430  174.7520  144.6260 O   0  0  0  0  0  1  0  0  0  0  0  0
  188.5320  177.3860  146.0050 C   0  0  2  0  0  3  0  0  0  0  0  0
  191.5190  176.0620  147.9060 C   0  0  0  0  0  3  0  0  0  0  0  0
  190.5090  175.9350  145.2810 C   0  0  0  0  0  0  0  0  0  0  0  0
  188.1260  177.4800  144.5250 C   0  0  2  0  0  3  0  0  0  0  0  0
  185.1100  176.7930  146.2800 O   0  0  0  0  0  0  0  0  0  0  0  0
  186.6120  177.7890  144.6300 C   0  0  1  0  0  3  0  0  0  0  0  0
  184.0070  178.2140  142.1700 C   0  0  0  0  0  2  0  0  0  0  0  0
  188.6470  177.9680  141.4730 O   0  0  0  0  0  1  0  0  0  0  0  0
  190.3050  176.6720  147.5960 C   0  0  0  0  0  3  0  0  0  0  0  0
  189.7970  176.6250  146.2930 C   0  0  0  0  0  0  0  0  0  0  0  0
  187.5120  177.1740  141.6370 C   0  0  2  0  0  3  0  0  0  0  0  0
  190.7290  173.6560  141.1880 C   0  0  0  0  0  3  0  0  0  0  0  0
  191.3250  171.3010  140.9400 C   0  0  0  0  0  1  0  0  0  0  0  0
  190.6450  172.4140  141.6570 C   0  0  0  0  0  3  0  0  0  0  0  0
  1  5  1  1  0  0  0
  1 19  1  0  0  0  0
  2 13  1  0  0  0  0
  4  1  1  0  0  0  0
  4 20  1  0  0  0  0
  6  8  1  0  0  0  0
  7  9  1  0  0  0  0
  8 11  1  0  0  0  0
  8 12  1  0  0  0  0
  9 14  1  0  0  0  0
  9 22  1  0  0  0  0
 10 21  2  0  0  0  0
 10  3  1  0  0  0  0
 11  5  1  0  0  0  0
 12  4  1  0  0  0  0
 13 18  2  0  0  0  0
 15 23  1  0  0  0  0
 15  7  1  0  0  0  0
 16  2  1  0  0  0  0
 17 26  1  0  0  0  0
 17  3  1  0  0  0  0
 19  2  2  0  0  0  0
 19 26  1  0  0  0  0
 20 22  1  0  0  0  0
 20 17  1  0  0  0  0
 22 10  1  0  0  0  0
 23 14  1  0  0  0  0
 24 27  1  0  0  0  0
 25 18  1  0  0  0  0
 26 25  2  0  0  0  0
 27  7  1  0  0  0  0
 27 12  1  0  0  0  0
 28 30  2  0  0  0  0
 28 11  1  0  0  0  0
 29 30  1  0  0  0  0
M  END
>  <MODEL>
1

>  <REMARK>
 VINA RESULT:      -9.0      0.000      0.000
  Name = 
  1 active torsions:
  status: ('A' for Active; 'I' for Inactive)
    1  A    between atoms: C_11  and  C_28
                            x       y       z     vdW  Elec       q    Type
                         _______ _______ _______ _____ _____    ______ ____

>  <TORSDO>
F 1

$$$$
=
 OpenBabel11112416263D

 30 35  0  0  1  0  0  0  0  0999 V2000
  189.9790  175.0990  144.1950 C   0  0  2  0  0  3  0  0  0  0  0  0
  190.8580  173.7970  142.1850 C   0  0  0  0  0  0  0  0  0  0  0  0
  187.3550  176.9660  141.9640 O   0  0  0  0  0  0  0  0  0  0  0  0
  189.0850  176.3260  144.4430 C   0  0  2  0  0  3  0  0  0  0  0  0
  191.3130  175.4250  144.4920 O   0  0  0  0  0  0  0  0  0  0  0  0
  190.9390  177.0870  147.8340 C   0  0  0  0  0  1  0  0  0  0  0  0
  186.8880  177.2330  146.5760 C   0  0  2  0  0  3  0  0  0  0  0  0
  190.7840  176.8360  146.3360 C   0  0  1  0  0  3  0  0  0  0  0  0
  186.9240  178.0500  145.3600 N   0  0  2  0  0  0  0  0  0  0  0  0
  186.8020  177.8270  142.8910 C   0  0  0  0  0  0  0  0  0  0  0  0
  191.4060  175.5090  145.8910 C   0  0  2  0  0  3  0  0  0  0  0  0
  189.3210  176.9370  145.8540 C   0  0  2  0  0  3  0  0  0  0  0  0
  190.7390  173.3690  140.8600 C   0  0  0  0  0  3  0  0  0  0  0  0
  185.8110  178.9760  145.5290 C   0  0  0  0  0  2  0  0  0  0  0  0
  186.4130  178.1210  147.7010 C   0  0  0  0  0  2  0  0  0  0  0  0
  191.9610  173.3810  142.9210 O   0  0  0  0  0  1  0  0  0  0  0  0
  187.5520  175.6980  142.5680 C   0  0  2  0  0  3  0  0  0  0  0  0
  189.6290  173.7280  140.0990 C   0  0  0  0  0  3  0  0  0  0  0  0
  189.8670  174.6280  142.7560 C   0  0  0  0  0  0  0  0  0  0  0  0
  187.6180  175.9820  144.0770 C   0  0  2  0  0  3  0  0  0  0  0  0
  186.4380  178.9980  142.6080 O   0  0  0  0  0  0  0  0  0  0  0  0
  186.6370  177.1720  144.2190 C   0  0  1  0  0  3  0  0  0  0  0  0
  185.6340  179.2180  147.0160 C   0  0  0  0  0  2  0  0  0  0  0  0
  188.1210  175.2320  147.0780 O   0  0  0  0  0  1  0  0  0  0  0  0
  188.6190  174.5040  140.6640 C   0  0  0  0  0  3  0  0  0  0  0  0
  188.7200  174.9480  141.9870 C   0  0  0  0  0  0  0  0  0  0  0  0
  188.2490  176.6120  146.9090 C   0  0  2  0  0  3  0  0  0  0  0  0
  192.8470  175.4310  146.2860 C   0  0  0  0  0  3  0  0  0  0  0  0
  195.2230  175.1990  145.7720 C   0  0  0  0  0  1  0  0  0  0  0  0
  193.7940  175.2750  145.3650 C   0  0  0  0  0  3  0  0  0  0  0  0
  1 19  1  6  0  0  0
  1  4  1  0  0  0  0
  1  5  1  0  0  0  0
  2 19  1  0  0  0  0
  2 16  1  0  0  0  0
  3 17  1  0  0  0  0
  3 10  1  0  0  0  0
  4 12  1  0  0  0  0
  5 11  1  0  0  0  0
  7 27  1  0  0  0  0
  7 15  1  0  0  0  0
  8  6  1  0  0  0  0
  9 14  1  0  0  0  0
  9  7  1  0  0  0  0
 10 22  1  0  0  0  0
 11 28  1  0  0  0  0
 11  8  1  0  0  0  0
 12  8  1  0  0  0  0
 12 27  1  0  0  0  0
 13  2  2  0  0  0  0
 14 23  1  0  0  0  0
 17 20  1  0  0  0  0
 18 25  2  0  0  0  0
 18 13  1  0  0  0  0
 20 22  1  0  0  0  0
 20  4  1  0  0  0  0
 21 10  2  0  0  0  0
 22  9  1  0  0  0  0
 23 15  1  0  0  0  0
 25 26  1  0  0  0  0
 26 17  1  0  0  0  0
 26 19  2  0  0  0  0
 27 24  1  0  0  0  0
 30 29  1  0  0  0  0
 30 28  2  0  0  0  0
M  END
>  <MODEL>
2

>  <REMARK>
 VINA RESULT:      -8.9      1.527      4.898
  Name = 
  1 active torsions:
  status: ('A' for Active; 'I' for Inactive)
    1  A    between atoms: C_11  and  C_28
                            x       y       z     vdW  Elec       q    Type
                         _______ _______ _______ _____ _____    ______ ____

>  <TORSDO>
F 1

$$$$
=
 OpenBabel11112416263D

 30 35  0  0  1  0  0  0  0  0999 V2000
  186.4230  177.2480  144.0020 C   0  0  2  0  0  3  0  0  0  0  0  0
  185.2320  178.3930  145.9450 C   0  0  0  0  0  0  0  0  0  0  0  0
  189.8780  177.5200  145.8310 O   0  0  0  0  0  0  0  0  0  0  0  0
  187.8730  177.0440  143.5280 C   0  0  2  0  0  3  0  0  0  0  0  0
  185.7760  178.1550  143.1470 O   0  0  0  0  0  0  0  0  0  0  0  0
  186.6910  176.7780  139.7810 C   0  0  0  0  0  1  0  0  0  0  0  0
  189.5790  174.7360  142.1270 C   0  0  2  0  0  3  0  0  0  0  0  0
  186.8580  177.3940  141.1670 C   0  0  1  0  0  3  0  0  0  0  0  0
  190.3830  175.8110  142.7140 N   0  0  2  0  0  0  0  0  0  0  0  0
  190.7180  177.0070  144.8630 C   0  0  0  0  0  0  0  0  0  0  0  0
  185.5400  177.4750  141.9420 C   0  0  2  0  0  3  0  0  0  0  0  0
  187.9420  176.6950  142.0140 C   0  0  2  0  0  3  0  0  0  0  0  0
  185.2120  178.8580  147.2630 C   0  0  0  0  0  3  0  0  0  0  0  0
  191.7570  175.3630  142.5220 C   0  0  0  0  0  2  0  0  0  0  0  0
  190.3550  174.1790  140.9590 C   0  0  0  0  0  2  0  0  0  0  0  0
  184.0940  178.5590  145.1660 O   0  0  0  0  0  1  0  0  0  0  0  0
  188.6910  176.7440  145.8740 C   0  0  2  0  0  3  0  0  0  0  0  0
  186.3160  178.6770  148.0920 C   0  0  0  0  0  3  0  0  0  0  0  0
  186.3870  177.7620  145.4310 C   0  0  0  0  0  0  0  0  0  0  0  0
  188.6040  176.0740  144.4940 C   0  0  2  0  0  3  0  0  0  0  0  0
  191.8820  177.4430  144.6630 O   0  0  0  0  0  0  0  0  0  0  0  0
  190.0980  175.8530  144.1530 C   0  0  1  0  0  3  0  0  0  0  0  0
  191.7950  174.5180  141.2630 C   0  0  0  0  0  2  0  0  0  0  0  0
  187.2010  174.4050  142.2420 O   0  0  0  0  0  1  0  0  0  0  0  0
  187.4430  178.0100  147.6150 C   0  0  0  0  0  3  0  0  0  0  0  0
  187.4860  177.5410  146.2970 C   0  0  0  0  0  0  0  0  0  0  0  0
  188.1920  175.2130  141.6830 C   0  0  2  0  0  3  0  0  0  0  0  0
  184.5010  178.2190  141.1620 C   0  0  0  0  0  3  0  0  0  0  0  0
  182.1900  178.6670  140.5130 C   0  0  0  0  0  1  0  0  0  0  0  0
  183.2120  177.9190  141.2940 C   0  0  0  0  0  3  0  0  0  0  0  0
  1  5  1  6  0  0  0
  1 19  1  0  0  0  0
  2 13  1  0  0  0  0
  3 17  1  0  0  0  0
  4  1  1  0  0  0  0
  4 20  1  0  0  0  0
  6  8  1  0  0  0  0
  7  9  1  0  0  0  0
  8 11  1  0  0  0  0
  8 12  1  0  0  0  0
  9 22  1  0  0  0  0
 10  3  1  0  0  0  0
 11  5  1  0  0  0  0
 12  4  1  0  0  0  0
 13 18  2  0  0  0  0
 14  9  1  0  0  0  0
 15 23  1  0  0  0  0
 15  7  1  0  0  0  0
 16  2  1  0  0  0  0
 17 26  1  0  0  0  0
 19  2  2  0  0  0  0
 19 26  1  0  0  0  0
 20 17  1  0  0  0  0
 21 10  2  0  0  0  0
 22 20  1  0  0  0  0
 22 10  1  0  0  0  0
 23 14  1  0  0  0  0
 25 18  1  0  0  0  0
 26 25  2  0  0  0  0
 27 12  1  0  0  0  0
 27  7  1  0  0  0  0
 27 24  1  0  0  0  0
 28 30  2  0  0  0  0
 28 11  1  0  0  0  0
 29 30  1  0  0  0  0
M  END
>  <MODEL>
3

>  <REMARK>
 VINA RESULT:      -8.5      2.053      5.727
  Name = 
  1 active torsions:
  status: ('A' for Active; 'I' for Inactive)
    1  A    between atoms: C_11  and  C_28
                            x       y       z     vdW  Elec       q    Type
                         _______ _______ _______ _____ _____    ______ ____

>  <TORSDO>
F 1

$$$$
=
 OpenBabel11112416263D

 30 35  0  0  1  0  0  0  0  0999 V2000
  189.0560  177.0620  145.5390 C   0  0  2  0  0  3  0  0  0  0  0  0
  186.8850  177.9770  146.5170 C   0  0  0  0  0  0  0  0  0  0  0  0
  187.0980  175.1170  142.7570 O   0  0  0  0  0  0  0  0  0  0  0  0
  189.4730  175.9640  144.5460 C   0  0  2  0  0  3  0  0  0  0  0  0
  189.4090  176.6710  146.8420 O   0  0  0  0  0  0  0  0  0  0  0  0
  192.9540  175.5520  146.3410 C   0  0  0  0  0  1  0  0  0  0  0  0
  191.6960  175.5660  142.2870 C   0  0  2  0  0  3  0  0  0  0  0  0
  191.4340  175.5940  146.2020 C   0  0  1  0  0  3  0  0  0  0  0  0
  190.6120  174.5810  142.2500 N   0  0  2  0  0  0  0  0  0  0  0  0
  188.1360  174.4510  142.1370 C   0  0  0  0  0  0  0  0  0  0  0  0
  190.8050  176.7840  146.9320 C   0  0  2  0  0  3  0  0  0  0  0  0
  190.9590  175.5470  144.7350 C   0  0  2  0  0  3  0  0  0  0  0  0
  185.5110  178.2160  146.4300 C   0  0  0  0  0  3  0  0  0  0  0  0
  190.9050  173.7860  141.0620 C   0  0  0  0  0  2  0  0  0  0  0  0
  192.9340  174.8950  141.7440 C   0  0  0  0  0  2  0  0  0  0  0  0
  187.5620  178.4020  147.6540 O   0  0  0  0  0  1  0  0  0  0  0  0
  187.5130  176.4390  143.0630 C   0  0  2  0  0  3  0  0  0  0  0  0
  184.8010  177.8450  145.2910 C   0  0  0  0  0  3  0  0  0  0  0  0
  187.5630  177.3260  145.4610 C   0  0  0  0  0  0  0  0  0  0  0  0
  189.0480  176.3740  143.1110 C   0  0  2  0  0  3  0  0  0  0  0  0
  188.0240  173.2860  141.6740 O   0  0  0  0  0  0  0  0  0  0  0  0
  189.3540  175.3040  142.0330 C   0  0  1  0  0  3  0  0  0  0  0  0
  192.4100  173.7800  140.8710 C   0  0  0  0  0  2  0  0  0  0  0  0
  191.9120  177.5080  143.6880 O   0  0  0  0  0  1  0  0  0  0  0  0
  185.4650  177.2480  144.2200 C   0  0  0  0  0  3  0  0  0  0  0  0
  186.8390  176.9950  144.2890 C   0  0  0  0  0  0  0  0  0  0  0  0
  191.9460  176.1130  143.6980 C   0  0  2  0  0  3  0  0  0  0  0  0
  191.1970  176.7980  148.3770 C   0  0  0  0  0  3  0  0  0  0  0  0
  191.6170  177.9380  150.4950 C   0  0  0  0  0  1  0  0  0  0  0  0
  191.2260  177.9390  149.0590 C   0  0  0  0  0  3  0  0  0  0  0  0
  1 19  1  1  0  0  0
  1  5  1  0  0  0  0
  2 16  1  0  0  0  0
  3 17  1  0  0  0  0
  4 12  1  0  0  0  0
  4  1  1  0  0  0  0
  5 11  1  0  0  0  0
  7 27  1  0  0  0  0
  8  6  1  0  0  0  0
  8 11  1  0  0  0  0
  9  7  1  0  0  0  0
 10  3  1  0  0  0  0
 11 28  1  0  0  0  0
 12  8  1  0  0  0  0
 13  2  1  0  0  0  0
 14  9  1  0  0  0  0
 15  7  1  0  0  0  0
 17 20  1  0  0  0  0
 17 26  1  0  0  0  0
 18 13  2  0  0  0  0
 19  2  2  0  0  0  0
 20  4  1  0  0  0  0
 21 10  2  0  0  0  0
 22 10  1  0  0  0  0
 22  9  1  0  0  0  0
 22 20  1  0  0  0  0
 23 14  1  0  0  0  0
 23 15  1  0  0  0  0
 24 27  1  0  0  0  0
 25 26  2  0  0  0  0
 25 18  1  0  0  0  0
 26 19  1  0  0  0  0
 27 12  1  0  0  0  0
 28 30  2  0  0  0  0
 30 29  1  0  0  0  0
M  END
>  <MODEL>
4

>  <REMARK>
 VINA RESULT:      -8.4      2.061      6.172
  Name = 
  1 active torsions:
  status: ('A' for Active; 'I' for Inactive)
    1  A    between atoms: C_11  and  C_28
                            x       y       z     vdW  Elec       q    Type
                         _______ _______ _______ _____ _____    ______ ____

>  <TORSDO>
F 1

$$$$
=
 OpenBabel11112416263D

 30 35  0  0  1  0  0  0  0  0999 V2000
  187.9470  175.8670  144.1570 C   0  0  2  0  0  3  0  0  0  0  0  0
  186.0250  177.4190  144.7940 C   0  0  0  0  0  0  0  0  0  0  0  0
  190.0620  177.0630  147.2310 O   0  0  0  0  0  0  0  0  0  0  0  0
  189.4270  175.6860  144.5370 C   0  0  2  0  0  3  0  0  0  0  0  0
  187.8610  176.3910  142.8560 O   0  0  0  0  0  0  0  0  0  0  0  0
  190.2300  174.1520  141.0000 C   0  0  0  0  0  1  0  0  0  0  0  0
  191.4580  173.2590  144.9640 C   0  0  2  0  0  3  0  0  0  0  0  0
  189.7290  175.1800  142.0120 C   0  0  1  0  0  3  0  0  0  0  0  0
  191.9320  174.5440  145.4850 N   0  0  2  0  0  0  0  0  0  0  0  0
  191.2370  176.3720  147.0130 C   0  0  0  0  0  0  0  0  0  0  0  0
  188.2080  175.3510  141.9780 C   0  0  2  0  0  3  0  0  0  0  0  0
  190.2110  174.8980  143.4500 C   0  0  2  0  0  3  0  0  0  0  0  0
  185.3870  178.2620  145.7080 C   0  0  0  0  0  3  0  0  0  0  0  0
  193.1930  174.2100  146.1380 C   0  0  0  0  0  2  0  0  0  0  0  0
  192.6730  172.4570  144.5670 C   0  0  0  0  0  2  0  0  0  0  0  0
  185.4300  177.2110  143.5550 O   0  0  0  0  0  1  0  0  0  0  0  0
  188.9630  176.2140  146.9400 C   0  0  2  0  0  3  0  0  0  0  0  0
  185.9260  178.4660  146.9750 C   0  0  0  0  0  3  0  0  0  0  0  0
  187.2430  176.7890  145.1370 C   0  0  0  0  0  0  0  0  0  0  0  0
  189.5270  175.1470  145.9880 C   0  0  2  0  0  3  0  0  0  0  0  0
  192.3730  176.8490  147.2740 O   0  0  0  0  0  0  0  0  0  0  0  0
  190.9790  174.9950  146.5050 C   0  0  1  0  0  3  0  0  0  0  0  0
  193.7950  173.0280  145.4030 C   0  0  0  0  0  2  0  0  0  0  0  0
  189.3170  172.7230  144.0130 O   0  0  0  0  0  1  0  0  0  0  0  0
  187.1000  177.8110  147.3460 C   0  0  0  0  0  3  0  0  0  0  0  0
  187.7570  176.9670  146.4450 C   0  0  0  0  0  0  0  0  0  0  0  0
  190.5010  173.4220  143.7770 C   0  0  2  0  0  3  0  0  0  0  0  0
  187.7350  175.7010  140.6020 C   0  0  0  0  0  3  0  0  0  0  0  0
  186.6030  177.1660  139.0090 C   0  0  0  0  0  1  0  0  0  0  0  0
  187.0660  176.8300  140.3830 C   0  0  0  0  0  3  0  0  0  0  0  0
  1  5  1  6  0  0  0
  1  4  1  0  0  0  0
  1 19  1  0  0  0  0
  2 19  2  0  0  0  0
  2 13  1  0  0  0  0
  4 20  1  0  0  0  0
  6  8  1  0  0  0  0
  7  9  1  0  0  0  0
  8 12  1  0  0  0  0
  9 14  1  0  0  0  0
  9 22  1  0  0  0  0
 10  3  1  0  0  0  0
 10 21  2  0  0  0  0
 11  8  1  0  0  0  0
 11  5  1  0  0  0  0
 12 27  1  0  0  0  0
 12  4  1  0  0  0  0
 13 18  2  0  0  0  0
 15  7  1  0  0  0  0
 15 23  1  0  0  0  0
 16  2  1  0  0  0  0
 17  3  1  0  0  0  0
 18 25  1  0  0  0  0
 19 26  1  0  0  0  0
 20 22  1  0  0  0  0
 20 17  1  0  0  0  0
 22 10  1  0  0  0  0
 23 14  1  0  0  0  0
 26 17  1  0  0  0  0
 26 25  2  0  0  0  0
 27 24  1  0  0  0  0
 27  7  1  0  0  0  0
 28 11  1  0  0  0  0
 29 30  1  0  0  0  0
 30 28  2  0  0  0  0
M  END
>  <MODEL>
5

>  <REMARK>
 VINA RESULT:      -8.2      2.248      5.723
  Name = 
  1 active torsions:
  status: ('A' for Active; 'I' for Inactive)
    1  A    between atoms: C_11  and  C_28
                            x       y       z     vdW  Elec       q    Type
                         _______ _______ _______ _____ _____    ______ ____

>  <TORSDO>
F 1

$$$$
=
 OpenBabel11112416263D

 30 35  0  0  1  0  0  0  0  0999 V2000
  189.1470  175.9850  144.2400 C   0  0  2  0  0  3  0  0  0  0  0  0
  189.7570  176.7310  146.6010 C   0  0  0  0  0  0  0  0  0  0  0  0
  192.7170  174.4660  143.6910 O   0  0  0  0  0  0  0  0  0  0  0  0
  189.8860  175.4870  142.9850 C   0  0  2  0  0  3  0  0  0  0  0  0
  188.6710  177.2870  144.0140 O   0  0  0  0  0  0  0  0  0  0  0  0
  187.0490  176.9080  140.6530 C   0  0  0  0  0  1  0  0  0  0  0  0
  189.3820  173.3620  140.6550 C   0  0  2  0  0  3  0  0  0  0  0  0
  188.1400  176.9280  141.7200 C   0  0  1  0  0  3  0  0  0  0  0  0
  190.7620  173.8470  140.7440 N   0  0  2  0  0  0  0  0  0  0  0  0
  192.6210  174.0640  142.3740 C   0  0  0  0  0  0  0  0  0  0  0  0
  187.5880  177.1730  143.1280 C   0  0  2  0  0  3  0  0  0  0  0  0
  189.0300  175.6680  141.6990 C   0  0  2  0  0  3  0  0  0  0  0  0
  190.6060  176.7030  147.7100 C   0  0  0  0  0  3  0  0  0  0  0  0
  191.4710  173.0620  139.7390 C   0  0  0  0  0  2  0  0  0  0  0  0
  189.1200  173.0090  139.2110 C   0  0  0  0  0  2  0  0  0  0  0  0
  188.6120  177.5160  146.6620 O   0  0  0  0  0  1  0  0  0  0  0  0
  191.5040  174.1600  144.3590 C   0  0  2  0  0  3  0  0  0  0  0  0
  191.7430  175.8980  147.7080 C   0  0  0  0  0  3  0  0  0  0  0  0
  190.0610  175.9670  145.4520 C   0  0  0  0  0  0  0  0  0  0  0  0
  190.4490  174.0650  143.2450 C   0  0  2  0  0  3  0  0  0  0  0  0
  193.5820  174.1310  141.5640 O   0  0  0  0  0  0  0  0  0  0  0  0
  191.2790  173.4910  142.0700 C   0  0  1  0  0  3  0  0  0  0  0  0
  190.4870  172.7300  138.6340 C   0  0  0  0  0  2  0  0  0  0  0  0
  187.5330  173.8160  142.1230 O   0  0  0  0  0  1  0  0  0  0  0  0
  192.0290  175.1000  146.6020 C   0  0  0  0  0  3  0  0  0  0  0  0
  191.1940  175.1170  145.4790 C   0  0  0  0  0  0  0  0  0  0  0  0
  188.3630  174.3910  141.1590 C   0  0  2  0  0  3  0  0  0  0  0  0
  186.7840  178.4350  143.1790 C   0  0  0  0  0  3  0  0  0  0  0  0
  185.3160  180.0210  144.3150 C   0  0  0  0  0  1  0  0  0  0  0  0
  186.1100  178.7630  144.2780 C   0  0  0  0  0  3  0  0  0  0  0  0
  1  5  1  6  0  0  0
  1 19  1  0  0  0  0
  2 16  1  0  0  0  0
  2 13  1  0  0  0  0
  3 17  1  0  0  0  0
  4 20  1  0  0  0  0
  4  1  1  0  0  0  0
  6  8  1  0  0  0  0
  7  9  1  0  0  0  0
  7 27  1  0  0  0  0
  8 11  1  0  0  0  0
  9 22  1  0  0  0  0
 10  3  1  0  0  0  0
 11 28  1  0  0  0  0
 11  5  1  0  0  0  0
 12  8  1  0  0  0  0
 12  4  1  0  0  0  0
 14  9  1  0  0  0  0
 15  7  1  0  0  0  0
 17 26  1  0  0  0  0
 18 13  2  0  0  0  0
 19 26  1  0  0  0  0
 19  2  2  0  0  0  0
 20 17  1  0  0  0  0
 21 10  2  0  0  0  0
 22 10  1  0  0  0  0
 22 20  1  0  0  0  0
 23 15  1  0  0  0  0
 23 14  1  0  0  0  0
 25 18  1  0  0  0  0
 26 25  2  0  0  0  0
 27 12  1  0  0  0  0
 27 24  1  0  0  0  0
 28 30  2  0  0  0  0
 30 29  1  0  0  0  0
M  END
>  <MODEL>
6

>  <REMARK>
 VINA RESULT:      -7.9      1.999      5.598
  Name = 
  1 active torsions:
  status: ('A' for Active; 'I' for Inactive)
    1  A    between atoms: C_11  and  C_28
                            x       y       z     vdW  Elec       q    Type
                         _______ _______ _______ _____ _____    ______ ____

>  <TORSDO>
F 1

$$$$
=
 OpenBabel11112416263D

 30 35  0  0  1  0  0  0  0  0999 V2000
  188.2580  176.8220  143.6940 C   0  0  2  0  0  3  0  0  0  0  0  0
  186.4840  178.0720  142.3550 C   0  0  0  0  0  0  0  0  0  0  0  0
  188.5010  174.0320  140.9530 O   0  0  0  0  0  0  0  0  0  0  0  0
  188.9110  175.4280  143.6800 C   0  0  2  0  0  3  0  0  0  0  0  0
  187.4080  176.9270  144.8080 O   0  0  0  0  0  0  0  0  0  0  0  0
  189.6200  175.6350  147.5480 C   0  0  0  0  0  1  0  0  0  0  0  0
  191.8060  174.1890  144.2100 C   0  0  2  0  0  3  0  0  0  0  0  0
  188.7990  175.6520  146.2610 C   0  0  1  0  0  3  0  0  0  0  0  0
  190.8720  173.2790  143.5420 N   0  0  2  0  0  0  0  0  0  0  0  0
  189.3920  173.1650  141.5530 C   0  0  0  0  0  0  0  0  0  0  0  0
  188.2360  177.0390  145.9370 C   0  0  2  0  0  3  0  0  0  0  0  0
  189.5630  175.0810  145.0480 C   0  0  2  0  0  3  0  0  0  0  0  0
  185.7730  178.2900  141.1720 C   0  0  0  0  0  3  0  0  0  0  0  0
  191.6800  172.1000  143.2540 C   0  0  0  0  0  2  0  0  0  0  0  0
  192.7640  173.3430  145.0130 C   0  0  0  0  0  2  0  0  0  0  0  0
  186.1980  178.8710  143.4570 O   0  0  0  0  0  1  0  0  0  0  0  0
  188.9280  175.3660  141.1770 C   0  0  2  0  0  3  0  0  0  0  0  0
  186.0560  177.5410  140.0320 C   0  0  0  0  0  3  0  0  0  0  0  0
  187.4750  177.0670  142.4160 C   0  0  0  0  0  0  0  0  0  0  0  0
  189.8180  175.2930  142.4290 C   0  0  2  0  0  3  0  0  0  0  0  0
  189.3120  171.9130  141.4420 O   0  0  0  0  0  0  0  0  0  0  0  0
  190.4720  173.8970  142.2730 C   0  0  1  0  0  3  0  0  0  0  0  0
  192.7430  171.9950  144.3310 C   0  0  0  0  0  2  0  0  0  0  0  0
  191.4990  176.5040  144.7800 O   0  0  0  0  0  1  0  0  0  0  0  0
  187.0660  176.5810  140.0620 C   0  0  0  0  0  3  0  0  0  0  0  0
  187.7860  176.3440  141.2380 C   0  0  0  0  0  0  0  0  0  0  0  0
  191.0950  175.2090  145.1070 C   0  0  2  0  0  3  0  0  0  0  0  0
  187.4270  177.5720  147.0780 C   0  0  0  0  0  3  0  0  0  0  0  0
  185.4260  178.6150  148.0130 C   0  0  0  0  0  1  0  0  0  0  0  0
  186.2190  178.0880  146.8690 C   0  0  0  0  0  3  0  0  0  0  0  0
  1 19  1  6  0  0  0
  1  5  1  0  0  0  0
  2 19  1  0  0  0  0
  2 16  1  0  0  0  0
  3 17  1  0  0  0  0
  3 10  1  0  0  0  0
  4  1  1  0  0  0  0
  4 12  1  0  0  0  0
  5 11  1  0  0  0  0
  7 15  1  0  0  0  0
  7 27  1  0  0  0  0
  8  6  1  0  0  0  0
  9  7  1  0  0  0  0
 10 22  1  0  0  0  0
 11  8  1  0  0  0  0
 11 28  1  0  0  0  0
 12 27  1  0  0  0  0
 12  8  1  0  0  0  0
 13  2  2  0  0  0  0
 14  9  1  0  0  0  0
 14 23  1  0  0  0  0
 17 26  1  0  0  0  0
 17 20  1  0  0  0  0
 18 25  2  0  0  0  0
 18 13  1  0  0  0  0
 20  4  1  0  0  0  0
 21 10  2  0  0  0  0
 22 20  1  0  0  0  0
 22  9  1  0  0  0  0
 23 15  1  0  0  0  0
 24 27  1  0  0  0  0
 25 26  1  0  0  0  0
 26 19  2  0  0  0  0
 30 28  2  0  0  0  0
 30 29  1  0  0  0  0
M  END
>  <MODEL>
7

>  <REMARK>
 VINA RESULT:      -7.9      2.133      7.011
  Name = 
  1 active torsions:
  status: ('A' for Active; 'I' for Inactive)
    1  A    between atoms: C_11  and  C_28
                            x       y       z     vdW  Elec       q    Type
                         _______ _______ _______ _____ _____    ______ ____

>  <TORSDO>
F 1

$$$$
=
 OpenBabel11112416263D

 30 35  0  0  1  0  0  0  0  0999 V2000
  187.9120  176.2820  141.5270 C   0  0  2  0  0  3  0  0  0  0  0  0
  187.5640  175.3720  139.1690 C   0  0  0  0  0  0  0  0  0  0  0  0
  189.6020  172.9380  142.6740 O   0  0  0  0  0  0  0  0  0  0  0  0
  188.2780  175.7210  142.9120 C   0  0  2  0  0  3  0  0  0  0  0  0
  186.5580  176.6580  141.5190 O   0  0  0  0  0  0  0  0  0  0  0  0
  186.3230  178.6370  144.6960 C   0  0  0  0  0  1  0  0  0  0  0  0
  189.9980  176.6480  145.4380 C   0  0  2  0  0  3  0  0  0  0  0  0
  186.5400  177.4470  143.7650 C   0  0  1  0  0  3  0  0  0  0  0  0
  189.6380  175.2280  145.4400 N   0  0  2  0  0  0  0  0  0  0  0  0
  189.8010  173.2020  144.0150 C   0  0  0  0  0  0  0  0  0  0  0  0
  186.4600  177.8300  142.2850 C   0  0  2  0  0  3  0  0  0  0  0  0
  187.8480  176.6820  144.0570 C   0  0  2  0  0  3  0  0  0  0  0  0
  187.8170  174.4220  138.1770 C   0  0  0  0  0  3  0  0  0  0  0  0
  190.3200  174.6980  146.6140 C   0  0  0  0  0  2  0  0  0  0  0  0
  190.1170  177.0850  146.8780 C   0  0  0  0  0  2  0  0  0  0  0  0
  186.7110  176.4290  138.8740 O   0  0  0  0  0  1  0  0  0  0  0  0
  189.9090  174.1010  141.9210 C   0  0  2  0  0  3  0  0  0  0  0  0
  188.6970  173.3690  138.4160 C   0  0  0  0  0  3  0  0  0  0  0  0
  188.1740  175.2560  140.4390 C   0  0  0  0  0  0  0  0  0  0  0  0
  189.7610  175.2670  142.9120 C   0  0  2  0  0  3  0  0  0  0  0  0
  189.6910  172.3250  144.9100 O   0  0  0  0  0  0  0  0  0  0  0  0
  190.2200  174.6150  144.2400 C   0  0  1  0  0  3  0  0  0  0  0  0
  190.4130  175.8140  147.6370 C   0  0  0  0  0  2  0  0  0  0  0  0
  189.6220  178.2910  143.7240 O   0  0  0  0  0  1  0  0  0  0  0  0
  189.3460  173.2700  139.6450 C   0  0  0  0  0  3  0  0  0  0  0  0
  189.1030  174.2080  140.6540 C   0  0  0  0  0  0  0  0  0  0  0  0
  188.9790  177.5130  144.6880 C   0  0  2  0  0  3  0  0  0  0  0  0
  185.1610  178.5060  141.9730 C   0  0  0  0  0  3  0  0  0  0  0  0
  182.9760  178.5980  140.8870 C   0  0  0  0  0  1  0  0  0  0  0  0
  184.2640  177.9160  141.1890 C   0  0  0  0  0  3  0  0  0  0  0  0
  1 19  1  6  0  0  0
  1  4  1  0  0  0  0
  2 19  1  0  0  0  0
  3 10  1  0  0  0  0
  4 20  1  0  0  0  0
  4 12  1  0  0  0  0
  5  1  1  0  0  0  0
  5 11  1  0  0  0  0
  7  9  1  0  0  0  0
  7 15  1  0  0  0  0
  8 12  1  0  0  0  0
  8  6  1  0  0  0  0
  9 14  1  0  0  0  0
 10 22  1  0  0  0  0
 10 21  2  0  0  0  0
 11  8  1  0  0  0  0
 12 27  1  0  0  0  0
 13 18  1  0  0  0  0
 13  2  2  0  0  0  0
 14 23  1  0  0  0  0
 15 23  1  0  0  0  0
 16  2  1  0  0  0  0
 17  3  1  0  0  0  0
 17 20  1  0  0  0  0
 18 25  2  0  0  0  0
 19 26  2  0  0  0  0
 20 22  1  0  0  0  0
 22  9  1  0  0  0  0
 24 27  1  0  0  0  0
 25 26  1  0  0  0  0
 26 17  1  0  0  0  0
 27  7  1  0  0  0  0
 28 11  1  0  0  0  0
 29 30  1  0  0  0  0
 30 28  2  0  0  0  0
M  END
>  <MODEL>
8

>  <REMARK>
 VINA RESULT:      -7.7      2.089      6.480
  Name = 
  1 active torsions:
  status: ('A' for Active; 'I' for Inactive)
    1  A    between atoms: C_11  and  C_28
                            x       y       z     vdW  Elec       q    Type
                         _______ _______ _______ _____ _____    ______ ____

>  <TORSDO>
F 1

$$$$
=
 OpenBabel11112416263D

 30 35  0  0  1  0  0  0  0  0999 V2000
  188.1920  175.3380  142.7390 C   0  0  2  0  0  3  0  0  0  0  0  0
  186.4320  177.1750  142.9230 C   0  0  0  0  0  0  0  0  0  0  0  0
  190.2290  176.8550  145.7230 O   0  0  0  0  0  0  0  0  0  0  0  0
  189.6120  175.0760  143.2720 C   0  0  2  0  0  3  0  0  0  0  0  0
  188.2550  175.6170  141.3630 O   0  0  0  0  0  0  0  0  0  0  0  0
  190.4560  172.8350  140.1450 C   0  0  0  0  0  1  0  0  0  0  0  0
  191.3060  172.5700  144.2950 C   0  0  2  0  0  3  0  0  0  0  0  0
  190.0170  174.0800  140.9120 C   0  0  1  0  0  3  0  0  0  0  0  0
  191.8950  173.8720  144.6190 N   0  0  2  0  0  0  0  0  0  0  0  0
  191.3250  176.0150  145.7340 C   0  0  0  0  0  0  0  0  0  0  0  0
  188.5320  174.4020  140.7170 C   0  0  2  0  0  3  0  0  0  0  0  0
  190.3660  174.0210  142.4130 C   0  0  2  0  0  3  0  0  0  0  0  0
  185.8400  178.2350  143.6140 C   0  0  0  0  0  3  0  0  0  0  0  0
  193.0620  173.5340  145.4270 C   0  0  0  0  0  2  0  0  0  0  0  0
  192.4410  171.5850  144.1530 C   0  0  0  0  0  2  0  0  0  0  0  0
  185.8990  176.8040  141.6940 O   0  0  0  0  0  1  0  0  0  0  0  0
  189.0580  176.0870  145.4940 C   0  0  2  0  0  3  0  0  0  0  0  0
  186.3160  178.6130  144.8680 C   0  0  0  0  0  3  0  0  0  0  0  0
  187.5410  176.4950  143.4760 C   0  0  0  0  0  0  0  0  0  0  0  0
  189.5510  174.8080  144.7980 C   0  0  2  0  0  3  0  0  0  0  0  0
  192.4900  176.4100  146.0030 O   0  0  0  0  0  0  0  0  0  0  0  0
  190.9380  174.6020  145.4580 C   0  0  1  0  0  3  0  0  0  0  0  0
  193.5650  172.1790  144.9680 C   0  0  0  0  0  2  0  0  0  0  0  0
  189.1840  172.0950  143.2730 O   0  0  0  0  0  1  0  0  0  0  0  0
  187.3760  177.9190  145.4480 C   0  0  0  0  0  3  0  0  0  0  0  0
  187.9860  176.8570  144.7710 C   0  0  0  0  0  0  0  0  0  0  0  0
  190.4560  172.6100  143.0200 C   0  0  2  0  0  3  0  0  0  0  0  0
  188.1960  174.5380  139.2650 C   0  0  0  0  0  3  0  0  0  0  0  0
  187.1120  175.6670  137.3900 C   0  0  0  0  0  1  0  0  0  0  0  0
  187.4380  175.5440  138.8370 C   0  0  0  0  0  3  0  0  0  0  0  0
  1  5  1  6  0  0  0
  1  4  1  0  0  0  0
  1 19  1  0  0  0  0
  2 19  2  0  0  0  0
  2 13  1  0  0  0  0
  3 10  1  0  0  0  0
  4 20  1  0  0  0  0
  6  8  1  0  0  0  0
  7  9  1  0  0  0  0
  8 12  1  0  0  0  0
  9 14  1  0  0  0  0
  9 22  1  0  0  0  0
 10 21  2  0  0  0  0
 11  8  1  0  0  0  0
 11  5  1  0  0  0  0
 12 27  1  0  0  0  0
 12  4  1  0  0  0  0
 13 18  2  0  0  0  0
 15  7  1  0  0  0  0
 15 23  1  0  0  0  0
 16  2  1  0  0  0  0
 17  3  1  0  0  0  0
 18 25  1  0  0  0  0
 19 26  1  0  0  0  0
 20 22  1  0  0  0  0
 20 17  1  0  0  0  0
 22 10  1  0  0  0  0
 23 14  1  0  0  0  0
 26 25  2  0  0  0  0
 26 17  1  0  0  0  0
 27 24  1  0  0  0  0
 27  7  1  0  0  0  0
 28 11  1  0  0  0  0
 29 30  1  0  0  0  0
 30 28  2  0  0  0  0
M  END
>  <MODEL>
9

>  <REMARK>
 VINA RESULT:      -7.4      2.277      5.789
  Name = 
  1 active torsions:
  status: ('A' for Active; 'I' for Inactive)
    1  A    between atoms: C_11  and  C_28
                            x       y       z     vdW  Elec       q    Type
                         _______ _______ _______ _____ _____    ______ ____

>  <TORSDO>
F 1

$$$$
