=
 OpenBabel11112416453D

 32 36  0  0  1  0  0  0  0  0999 V2000
  188.4360  175.7030  143.8820 C   0  0  1  0  0  3  0  0  0  0  0  0
  186.1740  177.5100  139.8380 C   0  0  0  0  0  3  0  0  0  0  0  0
  185.4220  178.3540  140.6570 C   0  0  0  0  0  3  0  0  0  0  0  0
  188.3410  177.0850  146.0200 C   0  0  2  0  0  3  0  0  0  0  0  0
  187.1450  177.5700  146.7370 N   0  0  2  0  0  0  0  0  0  0  0  0
  189.5870  173.7660  143.9580 C   0  0  2  0  0  3  0  0  0  0  0  0
  188.5570  174.4320  141.7650 C   0  0  0  0  0  2  0  0  0  0  0  0
  184.8890  178.3330  146.3390 C   0  0  2  0  0  3  0  0  0  0  0  0
  187.1500  176.6810  140.3960 C   0  0  0  0  0  3  0  0  0  0  0  0
  188.5010  175.8400  142.3530 C   0  0  1  0  0  3  0  0  0  0  0  0
  187.3770  176.6780  141.7800 C   0  0  0  0  0  0  0  0  0  0  0  0
  186.8310  177.5540  144.0980 C   0  0  2  0  0  3  0  0  0  0  0  0
  184.8360  176.8440  146.5680 C   0  0  0  0  0  2  0  0  0  0  0  0
  189.6860  173.6290  142.4260 C   0  0  2  0  0  3  0  0  0  0  0  0
  186.2450  176.4400  146.9690 C   0  0  0  0  0  2  0  0  0  0  0  0
  185.6560  178.3830  142.0330 C   0  0  0  0  0  3  0  0  0  0  0  0
  186.6500  177.5750  142.6020 C   0  0  0  0  0  0  0  0  0  0  0  0
  186.6310  178.8110  144.6810 O   0  0  0  0  0  0  0  0  0  0  0  0
  189.6330  175.1250  144.3350 O   0  0  0  0  0  0  0  0  0  0  0  0
  189.5510  177.9020  146.4280 C   0  0  0  0  0  1  0  0  0  0  0  0
  184.0700  178.6900  145.2660 O   0  0  0  0  0  1  0  0  0  0  0  0
  188.2120  177.0780  144.4940 C   0  0  2  0  0  3  0  0  0  0  0  0
  186.3550  178.6310  146.0650 C   0  0  2  0  0  3  0  0  0  0  0  0
  191.7600  174.0080  145.1490 C   0  0  0  0  0  1  0  0  0  0  0  0
  190.7300  173.0240  144.6310 C   0  0  0  0  0  2  0  0  0  0  0  0
  189.5750  172.2860  142.0460 O   0  0  0  0  0  0  0  0  0  0  0  0
  190.6490  170.7120  140.6080 C   0  0  0  0  0  1  0  0  0  0  0  0
  190.3000  172.1690  140.8540 C   0  0  2  0  0  3  0  0  0  0  0  0
  191.5940  172.9640  140.9500 C   0  0  0  0  0  2  0  0  0  0  0  0
  191.9500  173.5720  139.6380 C   0  0  0  0  0  0  0  0  0  0  0  0
  193.1180  173.9890  139.4300 O   0  0  0  0  0  1  0  0  0  0  0  0
  190.9920  173.6670  138.6370 O   0  0  0  0  0  0  0  0  0  0  0  0
  1 19  1  1  0  0  0
  1 22  1  0  0  0  0
  2  9  2  0  0  0  0
  2  3  1  0  0  0  0
  3 16  2  0  0  0  0
  4 20  1  6  0  0  0
  4  5  1  0  0  0  0
  5 15  1  6  0  0  0
  6 19  1  0  0  0  0
  6 25  1  1  0  0  0
  7 14  1  0  0  0  0
  8 21  1  6  0  0  0
  8 13  1  0  0  0  0
  9 11  1  0  0  0  0
 10  7  1  6  0  0  0
 10  1  1  0  0  0  0
 11 10  1  0  0  0  0
 11 17  2  0  0  0  0
 12 17  1  6  0  0  0
 12 22  1  0  0  0  0
 12 18  1  0  0  0  0
 13 15  1  0  0  0  0
 14 26  1  1  0  0  0
 14  6  1  0  0  0  0
 16 17  1  0  0  0  0
 18 23  1  0  0  0  0
 22  4  1  0  0  0  0
 23  8  1  0  0  0  0
 23  5  1  0  0  0  0
 25 24  1  0  0  0  0
 27 28  1  0  0  0  0
 28 29  1  0  0  0  0
 28 26  1  0  0  0  0
 30 29  1  0  0  0  0
 31 30  1  0  0  0  0
 32 30  2  0  0  0  0
M  END
>  <MODEL>
1

>  <REMARK>
 VINA RESULT:      -7.2      0.000      0.000
  Name = 
  5 active torsions:
  status: ('A' for Active; 'I' for Inactive)
    1  A    between atoms: C_7  and  C_19
    2  A    between atoms: O_10  and  C_17
    3  A    between atoms: O_10  and  C_20
    4  A    between atoms: C_20  and  C_29
    5  A    between atoms: C_29  and  C_30
                            x       y       z     vdW  Elec       q    Type
                         _______ _______ _______ _____ _____    ______ ____

>  <TORSDO>
F 5

$$$$
=
 OpenBabel11112416453D

 32 36  0  0  1  0  0  0  0  0999 V2000
  188.3980  176.0590  144.0340 C   0  0  1  0  0  3  0  0  0  0  0  0
  189.2640  173.7480  139.7170 C   0  0  0  0  0  3  0  0  0  0  0  0
  190.5240  173.3740  140.1890 C   0  0  0  0  0  3  0  0  0  0  0  0
  189.8270  175.4110  146.0430 C   0  0  2  0  0  3  0  0  0  0  0  0
  191.2980  175.4450  146.1610 N   0  0  2  0  0  0  0  0  0  0  0  0
  186.7980  177.6120  144.3670 C   0  0  2  0  0  3  0  0  0  0  0  0
  186.9950  176.6040  142.0750 C   0  0  0  0  0  2  0  0  0  0  0  0
  193.3020  175.1490  144.8480 C   0  0  2  0  0  3  0  0  0  0  0  0
  188.3860  174.4500  140.5460 C   0  0  0  0  0  3  0  0  0  0  0  0
  187.7610  175.4780  142.7630 C   0  0  1  0  0  3  0  0  0  0  0  0
  188.7620  174.7980  141.8510 C   0  0  0  0  0  0  0  0  0  0  0  0
  190.4740  174.7760  143.7240 C   0  0  2  0  0  3  0  0  0  0  0  0
  192.9360  176.6100  144.8020 C   0  0  0  0  0  2  0  0  0  0  0  0
  186.0390  177.2760  143.0690 C   0  0  2  0  0  3  0  0  0  0  0  0
  191.7710  176.7720  145.7650 C   0  0  0  0  0  2  0  0  0  0  0  0
  190.9010  173.6880  141.4970 C   0  0  0  0  0  3  0  0  0  0  0  0
  190.0190  174.3700  142.3460 C   0  0  0  0  0  0  0  0  0  0  0  0
  191.3100  173.8230  144.3180 O   0  0  0  0  0  0  0  0  0  0  0  0
  187.3760  176.4470  144.9150 O   0  0  0  0  0  0  0  0  0  0  0  0
  189.2480  174.4860  147.0960 C   0  0  0  0  0  1  0  0  0  0  0  0
  193.6750  174.7010  143.5800 O   0  0  0  0  0  1  0  0  0  0  0  0
  189.3060  175.0100  144.6600 C   0  0  2  0  0  3  0  0  0  0  0  0
  192.0500  174.4510  145.3580 C   0  0  2  0  0  3  0  0  0  0  0  0
  185.1220  177.1400  146.1470 C   0  0  0  0  0  1  0  0  0  0  0  0
  185.8560  178.2280  145.3880 C   0  0  0  0  0  2  0  0  0  0  0  0
  185.5210  178.4410  142.4900 O   0  0  0  0  0  0  0  0  0  0  0  0
  184.8100  178.6970  140.2250 C   0  0  0  0  0  1  0  0  0  0  0  0
  184.5700  178.0090  141.5570 C   0  0  2  0  0  3  0  0  0  0  0  0
  183.1700  178.3620  142.0370 C   0  0  0  0  0  2  0  0  0  0  0  0
  182.1920  178.3270  140.9140 C   0  0  0  0  0  0  0  0  0  0  0  0
  182.2790  177.4410  140.0250 O   0  0  0  0  0  0  0  0  0  0  0  0
  181.1720  179.2680  140.8570 O   0  0  0  0  0  1  0  0  0  0  0  0
  1 22  1  0  0  0  0
  1 19  1  1  0  0  0
  2  3  2  0  0  0  0
  2  9  1  0  0  0  0
  3 16  1  0  0  0  0
  4  5  1  0  0  0  0
  4 20  1  1  0  0  0
  5 15  1  6  0  0  0
  6 19  1  0  0  0  0
  6 25  1  1  0  0  0
  7 14  1  0  0  0  0
  8 21  1  6  0  0  0
  8 23  1  0  0  0  0
  9 11  2  0  0  0  0
 10  7  1  6  0  0  0
 10  1  1  0  0  0  0
 11 17  1  0  0  0  0
 11 10  1  0  0  0  0
 12 17  1  6  0  0  0
 12 18  1  0  0  0  0
 12 22  1  0  0  0  0
 13  8  1  0  0  0  0
 13 15  1  0  0  0  0
 14 26  1  6  0  0  0
 14  6  1  0  0  0  0
 16 17  2  0  0  0  0
 18 23  1  0  0  0  0
 22  4  1  0  0  0  0
 23  5  1  0  0  0  0
 25 24  1  0  0  0  0
 27 28  1  0  0  0  0
 28 29  1  0  0  0  0
 28 26  1  0  0  0  0
 30 29  1  0  0  0  0
 31 30  2  0  0  0  0
 32 30  1  0  0  0  0
M  END
>  <MODEL>
2

>  <REMARK>
 VINA RESULT:      -7.1      2.407      6.826
  Name = 
  5 active torsions:
  status: ('A' for Active; 'I' for Inactive)
    1  A    between atoms: C_7  and  C_19
    2  A    between atoms: O_10  and  C_17
    3  A    between atoms: O_10  and  C_20
    4  A    between atoms: C_20  and  C_29
    5  A    between atoms: C_29  and  C_30
                            x       y       z     vdW  Elec       q    Type
                         _______ _______ _______ _____ _____    ______ ____

>  <TORSDO>
F 5

$$$$
=
 OpenBabel11112416453D

 32 36  0  0  1  0  0  0  0  0999 V2000
  188.4910  176.3650  144.6960 C   0  0  1  0  0  3  0  0  0  0  0  0
  188.8460  174.3260  140.1740 C   0  0  0  0  0  3  0  0  0  0  0  0
  190.0630  173.7540  140.5460 C   0  0  0  0  0  3  0  0  0  0  0  0
  189.9080  175.3710  146.5670 C   0  0  2  0  0  3  0  0  0  0  0  0
  191.3740  175.2040  146.6060 N   0  0  2  0  0  0  0  0  0  0  0  0
  187.1310  178.0790  145.2340 C   0  0  2  0  0  3  0  0  0  0  0  0
  187.0870  177.2490  142.8640 C   0  0  0  0  0  2  0  0  0  0  0  0
  193.2600  174.7590  145.1660 C   0  0  2  0  0  3  0  0  0  0  0  0
  188.1080  175.0660  141.1010 C   0  0  0  0  0  3  0  0  0  0  0  0
  187.7260  175.9790  143.4210 C   0  0  1  0  0  3  0  0  0  0  0  0
  188.5840  175.2520  142.4070 C   0  0  0  0  0  0  0  0  0  0  0  0
  190.3600  174.8520  144.1750 C   0  0  2  0  0  3  0  0  0  0  0  0
  193.0910  176.2540  145.2520 C   0  0  0  0  0  2  0  0  0  0  0  0
  186.2750  177.9540  143.9580 C   0  0  2  0  0  3  0  0  0  0  0  0
  192.0030  176.4860  146.2870 C   0  0  0  0  0  2  0  0  0  0  0  0
  190.5370  173.9060  141.8500 C   0  0  0  0  0  3  0  0  0  0  0  0
  189.7940  174.6240  142.7970 C   0  0  0  0  0  0  0  0  0  0  0  0
  191.0850  173.7520  144.6470 O   0  0  0  0  0  0  0  0  0  0  0  0
  187.5700  176.8080  145.6590 O   0  0  0  0  0  0  0  0  0  0  0  0
  189.2570  174.4460  147.5770 C   0  0  0  0  0  1  0  0  0  0  0  0
  193.5120  174.3730  143.8480 O   0  0  0  0  0  1  0  0  0  0  0  0
  189.2770  175.1570  145.1880 C   0  0  2  0  0  3  0  0  0  0  0  0
  191.9500  174.1900  145.6890 C   0  0  2  0  0  3  0  0  0  0  0  0
  186.1100  177.7390  147.4800 C   0  0  0  0  0  1  0  0  0  0  0  0
  186.3250  178.7260  146.3500 C   0  0  0  0  0  2  0  0  0  0  0  0
  185.8930  179.2210  143.4990 O   0  0  0  0  0  0  0  0  0  0  0  0
  183.7560  179.0130  144.5420 C   0  0  0  0  0  1  0  0  0  0  0  0
  184.5210  179.1290  143.2360 C   0  0  2  0  0  3  0  0  0  0  0  0
  184.2320  177.8940  142.3960 C   0  0  0  0  0  2  0  0  0  0  0  0
  184.0910  178.2440  140.9550 C   0  0  0  0  0  0  0  0  0  0  0  0
  182.9500  178.3260  140.4320 O   0  0  0  0  0  1  0  0  0  0  0  0
  185.2230  178.4940  140.1910 O   0  0  0  0  0  0  0  0  0  0  0  0
  1 22  1  0  0  0  0
  1 19  1  1  0  0  0
  2  3  2  0  0  0  0
  2  9  1  0  0  0  0
  3 16  1  0  0  0  0
  4  5  1  0  0  0  0
  4 20  1  1  0  0  0
  5 15  1  6  0  0  0
  6 19  1  0  0  0  0
  6 25  1  1  0  0  0
  7 14  1  0  0  0  0
  8 21  1  6  0  0  0
  8 13  1  0  0  0  0
  8 23  1  0  0  0  0
  9 11  2  0  0  0  0
 10  7  1  6  0  0  0
 10  1  1  0  0  0  0
 11 17  1  0  0  0  0
 11 10  1  0  0  0  0
 12 17  1  6  0  0  0
 12 18  1  0  0  0  0
 12 22  1  0  0  0  0
 13 15  1  0  0  0  0
 14 26  1  6  0  0  0
 14  6  1  0  0  0  0
 16 17  2  0  0  0  0
 18 23  1  0  0  0  0
 22  4  1  0  0  0  0
 23  5  1  0  0  0  0
 25 24  1  0  0  0  0
 28 26  1  0  0  0  0
 28 27  1  0  0  0  0
 29 28  1  0  0  0  0
 30 29  1  0  0  0  0
 31 30  1  0  0  0  0
 32 30  2  0  0  0  0
M  END
>  <MODEL>
3

>  <REMARK>
 VINA RESULT:      -7.0      2.263      6.643
  Name = 
  5 active torsions:
  status: ('A' for Active; 'I' for Inactive)
    1  A    between atoms: C_7  and  C_19
    2  A    between atoms: O_10  and  C_17
    3  A    between atoms: O_10  and  C_20
    4  A    between atoms: C_20  and  C_29
    5  A    between atoms: C_29  and  C_30
                            x       y       z     vdW  Elec       q    Type
                         _______ _______ _______ _____ _____    ______ ____

>  <TORSDO>
F 5

$$$$
=
 OpenBabel11112416453D

 32 36  0  0  1  0  0  0  0  0999 V2000
  190.7320  175.4320  143.0030 C   0  0  1  0  0  3  0  0  0  0  0  0
  191.0510  177.0800  147.6850 C   0  0  0  0  0  3  0  0  0  0  0  0
  189.7240  177.5060  147.6070 C   0  0  0  0  0  3  0  0  0  0  0  0
  188.4090  175.0370  142.0330 C   0  0  2  0  0  3  0  0  0  0  0  0
  187.2970  176.0000  141.9150 N   0  0  2  0  0  0  0  0  0  0  0  0
  192.4950  174.9580  141.6800 C   0  0  2  0  0  3  0  0  0  0  0  0
  192.9630  175.7660  144.0130 C   0  0  0  0  0  2  0  0  0  0  0  0
  186.3230  177.9020  143.0410 C   0  0  2  0  0  3  0  0  0  0  0  0
  191.6340  176.4090  146.6080 C   0  0  0  0  0  3  0  0  0  0  0  0
  191.5240  175.3570  144.3180 C   0  0  1  0  0  3  0  0  0  0  0  0
  190.9020  176.1660  145.4370 C   0  0  0  0  0  0  0  0  0  0  0  0
  188.7430  176.3570  144.1170 C   0  0  2  0  0  3  0  0  0  0  0  0
  187.3250  178.4230  142.0420 C   0  0  0  0  0  2  0  0  0  0  0  0
  193.5090  174.9390  142.8410 C   0  0  2  0  0  3  0  0  0  0  0  0
  187.7890  177.2090  141.2540 C   0  0  0  0  0  2  0  0  0  0  0  0
  188.9730  177.2480  146.4580 C   0  0  0  0  0  3  0  0  0  0  0  0
  189.5390  176.5520  145.3810 C   0  0  0  0  0  0  0  0  0  0  0  0
  187.3840  176.1330  144.3660 O   0  0  0  0  0  0  0  0  0  0  0  0
  191.2430  174.4730  142.1130 O   0  0  0  0  0  0  0  0  0  0  0  0
  187.8740  173.6210  141.9460 C   0  0  0  0  0  1  0  0  0  0  0  0
  186.4430  178.5850  144.2520 O   0  0  0  0  0  1  0  0  0  0  0  0
  189.2580  175.1920  143.2980 C   0  0  2  0  0  3  0  0  0  0  0  0
  186.6500  176.4230  143.1820 C   0  0  2  0  0  3  0  0  0  0  0  0
  191.8390  173.3260  139.9180 C   0  0  0  0  0  1  0  0  0  0  0  0
  192.9910  174.0990  140.5290 C   0  0  0  0  0  2  0  0  0  0  0  0
  194.7330  175.4820  142.4300 O   0  0  0  0  0  0  0  0  0  0  0  0
  196.5350  176.7500  143.3470 C   0  0  0  0  0  1  0  0  0  0  0  0
  195.4580  175.7120  143.6050 C   0  0  2  0  0  3  0  0  0  0  0  0
  196.1280  174.4260  144.0660 C   0  0  0  0  0  2  0  0  0  0  0  0
  196.2190  174.3690  145.5510 C   0  0  0  0  0  0  0  0  0  0  0  0
  195.4340  175.0510  146.2600 O   0  0  0  0  0  1  0  0  0  0  0  0
  197.1650  173.5510  146.1550 O   0  0  0  0  0  0  0  0  0  0  0  0
  1 19  1  6  0  0  0
  1 22  1  0  0  0  0
  1 10  1  0  0  0  0
  3  2  1  0  0  0  0
  4 20  1  1  0  0  0
  4 22  1  0  0  0  0
  5 15  1  1  0  0  0
  5  4  1  0  0  0  0
  5 23  1  0  0  0  0
  6 25  1  6  0  0  0
  6 19  1  0  0  0  0
  6 14  1  0  0  0  0
  8 23  1  0  0  0  0
  8 21  1  1  0  0  0
  9  2  2  0  0  0  0
 10  7  1  6  0  0  0
 10 11  1  0  0  0  0
 11  9  1  0  0  0  0
 12 18  1  1  0  0  0
 12 17  1  0  0  0  0
 13  8  1  0  0  0  0
 14 26  1  6  0  0  0
 14  7  1  0  0  0  0
 15 13  1  0  0  0  0
 16  3  2  0  0  0  0
 17 11  2  0  0  0  0
 17 16  1  0  0  0  0
 22 12  1  0  0  0  0
 23 18  1  0  0  0  0
 24 25  1  0  0  0  0
 26 28  1  0  0  0  0
 27 28  1  0  0  0  0
 28 29  1  0  0  0  0
 29 30  1  0  0  0  0
 30 32  2  0  0  0  0
 30 31  1  0  0  0  0
M  END
>  <MODEL>
4

>  <REMARK>
 VINA RESULT:      -6.9      3.084      5.655
  Name = 
  5 active torsions:
  status: ('A' for Active; 'I' for Inactive)
    1  A    between atoms: C_7  and  C_19
    2  A    between atoms: O_10  and  C_17
    3  A    between atoms: O_10  and  C_20
    4  A    between atoms: C_20  and  C_29
    5  A    between atoms: C_29  and  C_30
                            x       y       z     vdW  Elec       q    Type
                         _______ _______ _______ _____ _____    ______ ____

>  <TORSDO>
F 5

$$$$
=
 OpenBabel11112416453D

 32 36  0  0  1  0  0  0  0  0999 V2000
  190.9600  175.4190  144.1410 C   0  0  1  0  0  3  0  0  0  0  0  0
  188.6280  173.8820  140.0270 C   0  0  0  0  0  3  0  0  0  0  0  0
  189.8600  173.5060  139.4890 C   0  0  0  0  0  3  0  0  0  0  0  0
  193.3090  174.5340  144.5830 C   0  0  2  0  0  3  0  0  0  0  0  0
  194.4950  174.6290  143.7090 N   0  0  2  0  0  0  0  0  0  0  0  0
  190.0780  176.8090  145.6810 C   0  0  2  0  0  3  0  0  0  0  0  0
  188.6550  176.1950  143.7030 C   0  0  0  0  0  2  0  0  0  0  0  0
  195.1220  174.6560  141.3770 C   0  0  2  0  0  3  0  0  0  0  0  0
  188.5570  174.3930  141.3240 C   0  0  0  0  0  3  0  0  0  0  0  0
  189.6090  175.0160  143.5310 C   0  0  1  0  0  3  0  0  0  0  0  0
  189.7190  174.5460  142.0950 C   0  0  0  0  0  0  0  0  0  0  0  0
  192.2330  174.3160  142.3480 C   0  0  2  0  0  3  0  0  0  0  0  0
  194.9120  176.0840  141.8130 C   0  0  0  0  0  2  0  0  0  0  0  0
  188.6320  176.6450  145.1700 C   0  0  2  0  0  3  0  0  0  0  0  0
  194.6780  176.0250  143.3130 C   0  0  0  0  0  2  0  0  0  0  0  0
  191.0220  173.6260  140.2540 C   0  0  0  0  0  3  0  0  0  0  0  0
  190.9610  174.1130  141.5670 C   0  0  0  0  0  0  0  0  0  0  0  0
  193.1880  173.3270  142.0880 O   0  0  0  0  0  0  0  0  0  0  0  0
  190.7940  175.6040  145.5230 O   0  0  0  0  0  0  0  0  0  0  0  0
  193.5040  173.4230  145.5950 C   0  0  0  0  0  1  0  0  0  0  0  0
  194.5410  174.4390  140.1270 O   0  0  0  0  0  1  0  0  0  0  0  0
  191.9840  174.3330  143.8420 C   0  0  2  0  0  3  0  0  0  0  0  0
  194.4690  173.8190  142.4660 C   0  0  2  0  0  3  0  0  0  0  0  0
  191.2170  176.5100  147.8750 C   0  0  0  0  0  1  0  0  0  0  0  0
  190.0790  177.2000  147.1500 C   0  0  0  0  0  2  0  0  0  0  0  0
  187.9400  177.8590  145.2650 O   0  0  0  0  0  0  0  0  0  0  0  0
  185.8980  178.8390  144.5120 C   0  0  0  0  0  1  0  0  0  0  0  0
  186.6140  177.5650  144.9210 C   0  0  2  0  0  3  0  0  0  0  0  0
  185.8860  176.9640  146.1140 C   0  0  0  0  0  2  0  0  0  0  0  0
  185.6350  177.9900  147.1630 C   0  0  0  0  0  0  0  0  0  0  0  0
  186.5760  178.3910  147.8960 O   0  0  0  0  0  1  0  0  0  0  0  0
  184.3590  178.5150  147.3250 O   0  0  0  0  0  0  0  0  0  0  0  0
  1 19  1  1  0  0  0
  2  9  1  0  0  0  0
  3  2  2  0  0  0  0
  3 16  1  0  0  0  0
  4 20  1  1  0  0  0
  5 15  1  6  0  0  0
  5  4  1  0  0  0  0
  6 25  1  1  0  0  0
  7 14  1  0  0  0  0
  8 21  1  6  0  0  0
  8 13  1  0  0  0  0
  8 23  1  0  0  0  0
  9 11  2  0  0  0  0
 10  7  1  6  0  0  0
 10  1  1  0  0  0  0
 11 10  1  0  0  0  0
 12 17  1  6  0  0  0
 12 22  1  0  0  0  0
 13 15  1  0  0  0  0
 14 26  1  6  0  0  0
 14  6  1  0  0  0  0
 16 17  2  0  0  0  0
 17 11  1  0  0  0  0
 18 12  1  0  0  0  0
 18 23  1  0  0  0  0
 19  6  1  0  0  0  0
 22  1  1  0  0  0  0
 22  4  1  0  0  0  0
 23  5  1  0  0  0  0
 25 24  1  0  0  0  0
 27 28  1  0  0  0  0
 28 26  1  0  0  0  0
 28 29  1  0  0  0  0
 29 30  1  0  0  0  0
 30 32  2  0  0  0  0
 30 31  1  0  0  0  0
M  END
>  <MODEL>
5

>  <REMARK>
 VINA RESULT:      -6.9      2.568      7.554
  Name = 
  5 active torsions:
  status: ('A' for Active; 'I' for Inactive)
    1  A    between atoms: C_7  and  C_19
    2  A    between atoms: O_10  and  C_17
    3  A    between atoms: O_10  and  C_20
    4  A    between atoms: C_20  and  C_29
    5  A    between atoms: C_29  and  C_30
                            x       y       z     vdW  Elec       q    Type
                         _______ _______ _______ _____ _____    ______ ____

>  <TORSDO>
F 5

$$$$
=
 OpenBabel11112416453D

 32 36  0  0  1  0  0  0  0  0999 V2000
  191.4370  175.1830  144.2860 C   0  0  1  0  0  3  0  0  0  0  0  0
  189.5170  171.9960  140.9870 C   0  0  0  0  0  3  0  0  0  0  0  0
  188.3750  172.7950  140.9050 C   0  0  0  0  0  3  0  0  0  0  0  0
  190.4550  177.5330  144.3870 C   0  0  2  0  0  3  0  0  0  0  0  0
  189.0500  177.9210  144.6210 N   0  0  2  0  0  0  0  0  0  0  0  0
  193.1510  174.7240  145.6760 C   0  0  2  0  0  3  0  0  0  0  0  0
  192.4000  172.9140  144.1040 C   0  0  0  0  0  2  0  0  0  0  0  0
  186.7920  177.1730  144.2050 C   0  0  2  0  0  3  0  0  0  0  0  0
  190.5920  172.3920  141.7850 C   0  0  0  0  0  3  0  0  0  0  0  0
  191.7450  174.0400  143.3070 C   0  0  1  0  0  3  0  0  0  0  0  0
  190.5340  173.5840  142.5210 C   0  0  0  0  0  0  0  0  0  0  0  0
  189.2790  175.6780  143.2140 C   0  0  2  0  0  3  0  0  0  0  0  0
  187.2170  176.6280  145.5450 C   0  0  0  0  0  2  0  0  0  0  0  0
  193.5860  173.4590  144.9090 C   0  0  2  0  0  3  0  0  0  0  0  0
  188.5720  177.2530  145.8310 C   0  0  0  0  0  2  0  0  0  0  0  0
  188.3130  173.9990  141.6090 C   0  0  0  0  0  3  0  0  0  0  0  0
  189.3950  174.4190  142.3930 C   0  0  0  0  0  0  0  0  0  0  0  0
  188.5450  176.6780  142.5650 O   0  0  0  0  0  0  0  0  0  0  0  0
  192.6480  175.6920  144.7820 O   0  0  0  0  0  0  0  0  0  0  0  0
  191.2020  178.6760  143.7290 C   0  0  0  0  0  1  0  0  0  0  0  0
  186.1250  176.1920  143.4700 O   0  0  0  0  0  1  0  0  0  0  0  0
  190.6350  176.2550  143.5620 C   0  0  2  0  0  3  0  0  0  0  0  0
  188.0870  177.6100  143.5370 C   0  0  2  0  0  3  0  0  0  0  0  0
  194.1750  176.8160  146.5560 C   0  0  0  0  0  1  0  0  0  0  0  0
  194.3270  175.3120  146.4380 C   0  0  0  0  0  2  0  0  0  0  0  0
  194.0250  172.4720  145.8020 O   0  0  0  0  0  0  0  0  0  0  0  0
  194.9300  170.3300  145.2650 C   0  0  0  0  0  1  0  0  0  0  0  0
  195.0960  171.8350  145.1640 C   0  0  2  0  0  3  0  0  0  0  0  0
  196.4070  172.2220  145.8320 C   0  0  0  0  0  2  0  0  0  0  0  0
  197.2960  172.9540  144.8890 C   0  0  0  0  0  0  0  0  0  0  0  0
  197.5570  172.4690  143.7580 O   0  0  0  0  0  0  0  0  0  0  0  0
  197.8280  174.1840  145.2540 O   0  0  0  0  0  1  0  0  0  0  0  0
  1 19  1  6  0  0  0
  2  9  1  0  0  0  0
  3  2  2  0  0  0  0
  3 16  1  0  0  0  0
  4 20  1  6  0  0  0
  4  5  1  0  0  0  0
  5 15  1  1  0  0  0
  6 25  1  6  0  0  0
  7 14  1  0  0  0  0
  8 21  1  6  0  0  0
  8 13  1  0  0  0  0
  9 11  2  0  0  0  0
 10  7  1  1  0  0  0
 10  1  1  0  0  0  0
 11 10  1  0  0  0  0
 12 17  1  6  0  0  0
 12 22  1  0  0  0  0
 13 15  1  0  0  0  0
 14  6  1  0  0  0  0
 14 26  1  1  0  0  0
 16 17  2  0  0  0  0
 17 11  1  0  0  0  0
 18 12  1  0  0  0  0
 18 23  1  0  0  0  0
 19  6  1  0  0  0  0
 22  1  1  0  0  0  0
 22  4  1  0  0  0  0
 23  8  1  0  0  0  0
 23  5  1  0  0  0  0
 25 24  1  0  0  0  0
 28 27  1  0  0  0  0
 28 26  1  0  0  0  0
 28 29  1  0  0  0  0
 30 32  1  0  0  0  0
 30 29  1  0  0  0  0
 31 30  2  0  0  0  0
M  END
>  <MODEL>
6

>  <REMARK>
 VINA RESULT:      -6.8      3.199      4.892
  Name = 
  5 active torsions:
  status: ('A' for Active; 'I' for Inactive)
    1  A    between atoms: C_7  and  C_19
    2  A    between atoms: O_10  and  C_17
    3  A    between atoms: O_10  and  C_20
    4  A    between atoms: C_20  and  C_29
    5  A    between atoms: C_29  and  C_30
                            x       y       z     vdW  Elec       q    Type
                         _______ _______ _______ _____ _____    ______ ____

>  <TORSDO>
F 5

$$$$
=
 OpenBabel11112416453D

 32 36  0  0  1  0  0  0  0  0999 V2000
  190.0510  175.4380  143.0580 C   0  0  1  0  0  3  0  0  0  0  0  0
  188.4920  173.5030  138.7500 C   0  0  0  0  0  3  0  0  0  0  0  0
  189.7940  173.0660  138.4950 C   0  0  0  0  0  3  0  0  0  0  0  0
  192.2530  174.5890  144.0200 C   0  0  2  0  0  3  0  0  0  0  0  0
  193.5830  174.5870  143.3810 N   0  0  2  0  0  0  0  0  0  0  0  0
  188.9310  176.9830  144.2570 C   0  0  2  0  0  3  0  0  0  0  0  0
  187.8890  176.1790  142.1180 C   0  0  0  0  0  2  0  0  0  0  0  0
  194.6360  174.3720  141.2190 C   0  0  2  0  0  3  0  0  0  0  0  0
  188.1930  174.1440  139.9540 C   0  0  0  0  0  3  0  0  0  0  0  0
  188.8280  174.9830  142.2470 C   0  0  1  0  0  3  0  0  0  0  0  0
  189.1930  174.3680  140.9110 C   0  0  0  0  0  0  0  0  0  0  0  0
  191.6090  174.1510  141.6560 C   0  0  2  0  0  3  0  0  0  0  0  0
  194.3840  175.8380  141.4630 C   0  0  0  0  0  2  0  0  0  0  0  0
  187.6030  176.7770  143.5010 C   0  0  2  0  0  3  0  0  0  0  0  0
  193.8720  175.9350  142.8910 C   0  0  0  0  0  2  0  0  0  0  0  0
  190.7940  173.2570  139.4500 C   0  0  0  0  0  3  0  0  0  0  0  0
  190.5010  173.8760  140.6720 C   0  0  0  0  0  0  0  0  0  0  0  0
  192.5710  173.1340  141.6800 O   0  0  0  0  0  0  0  0  0  0  0  0
  189.6340  175.7640  144.3580 O   0  0  0  0  0  0  0  0  0  0  0  0
  192.2260  173.5860  145.1560 C   0  0  0  0  0  1  0  0  0  0  0  0
  194.2940  174.0320  139.9090 O   0  0  0  0  0  1  0  0  0  0  0  0
  191.0850  174.3210  143.0660 C   0  0  2  0  0  3  0  0  0  0  0  0
  193.7700  173.6550  142.2430 C   0  0  2  0  0  3  0  0  0  0  0  0
  188.3760  176.3830  146.6100 C   0  0  0  0  0  1  0  0  0  0  0  0
  188.6670  177.5230  145.6540 C   0  0  0  0  0  2  0  0  0  0  0  0
  186.9350  177.9980  143.3430 O   0  0  0  0  0  0  0  0  0  0  0  0
  184.6510  177.9170  142.6560 C   0  0  0  0  0  1  0  0  0  0  0  0
  185.6320  177.7780  143.8060 C   0  0  2  0  0  3  0  0  0  0  0  0
  185.2760  178.8050  144.8700 C   0  0  0  0  0  2  0  0  0  0  0  0
  185.1010  178.1620  146.2020 C   0  0  0  0  0  0  0  0  0  0  0  0
  185.1700  178.8510  147.2520 O   0  0  0  0  0  1  0  0  0  0  0  0
  184.8490  176.7980  146.2830 O   0  0  0  0  0  0  0  0  0  0  0  0
  1 22  1  0  0  0  0
  1 19  1  1  0  0  0
  2  9  1  0  0  0  0
  3  2  2  0  0  0  0
  3 16  1  0  0  0  0
  4 20  1  1  0  0  0
  5 15  1  6  0  0  0
  5  4  1  0  0  0  0
  6 19  1  0  0  0  0
  6 25  1  1  0  0  0
  7 14  1  0  0  0  0
  8 21  1  6  0  0  0
  8 13  1  0  0  0  0
  8 23  1  0  0  0  0
  9 11  2  0  0  0  0
 10  7  1  6  0  0  0
 10  1  1  0  0  0  0
 11 10  1  0  0  0  0
 12 17  1  6  0  0  0
 12 18  1  0  0  0  0
 12 22  1  0  0  0  0
 13 15  1  0  0  0  0
 14 26  1  6  0  0  0
 14  6  1  0  0  0  0
 16 17  2  0  0  0  0
 17 11  1  0  0  0  0
 18 23  1  0  0  0  0
 22  4  1  0  0  0  0
 23  5  1  0  0  0  0
 25 24  1  0  0  0  0
 26 28  1  0  0  0  0
 27 28  1  0  0  0  0
 28 29  1  0  0  0  0
 29 30  1  0  0  0  0
 30 32  2  0  0  0  0
 30 31  1  0  0  0  0
M  END
>  <MODEL>
7

>  <REMARK>
 VINA RESULT:      -6.7      2.317      7.376
  Name = 
  5 active torsions:
  status: ('A' for Active; 'I' for Inactive)
    1  A    between atoms: C_7  and  C_19
    2  A    between atoms: O_10  and  C_17
    3  A    between atoms: O_10  and  C_20
    4  A    between atoms: C_20  and  C_29
    5  A    between atoms: C_29  and  C_30
                            x       y       z     vdW  Elec       q    Type
                         _______ _______ _______ _____ _____    ______ ____

>  <TORSDO>
F 5

$$$$
=
 OpenBabel11112416453D

 32 36  0  0  1  0  0  0  0  0999 V2000
  190.7760  174.6110  143.2230 C   0  0  1  0  0  3  0  0  0  0  0  0
  194.0360  176.3880  146.5320 C   0  0  0  0  0  3  0  0  0  0  0  0
  194.9490  175.4120  146.1310 C   0  0  0  0  0  3  0  0  0  0  0  0
  191.6710  173.1650  141.3250 C   0  0  2  0  0  3  0  0  0  0  0  0
  192.4590  171.9210  141.4230 N   0  0  2  0  0  0  0  0  0  0  0  0
  188.5610  175.0260  143.2450 C   0  0  2  0  0  3  0  0  0  0  0  0
  189.9670  176.0730  145.0440 C   0  0  0  0  0  2  0  0  0  0  0  0
  194.1250  170.8490  142.8050 C   0  0  2  0  0  3  0  0  0  0  0  0
  192.7990  176.4940  145.8930 C   0  0  0  0  0  3  0  0  0  0  0  0
  191.1480  175.8070  144.1140 C   0  0  1  0  0  3  0  0  0  0  0  0
  192.4560  175.6170  144.8540 C   0  0  0  0  0  0  0  0  0  0  0  0
  193.0460  173.6690  143.3380 C   0  0  2  0  0  3  0  0  0  0  0  0
  192.7690  170.4270  143.3100 C   0  0  0  0  0  2  0  0  0  0  0  0
  188.6740  176.2070  144.2300 C   0  0  2  0  0  3  0  0  0  0  0  0
  191.7660  170.9950  142.3180 C   0  0  0  0  0  2  0  0  0  0  0  0
  194.6340  174.5490  145.0800 C   0  0  0  0  0  3  0  0  0  0  0  0
  193.4060  174.6620  144.4130 C   0  0  0  0  0  0  0  0  0  0  0  0
  194.1490  173.2890  142.5660 O   0  0  0  0  0  0  0  0  0  0  0  0
  189.6940  174.9750  142.4060 O   0  0  0  0  0  0  0  0  0  0  0  0
  191.8440  173.7760  139.9480 C   0  0  0  0  0  1  0  0  0  0  0  0
  194.9670  171.1600  143.8730 O   0  0  0  0  0  1  0  0  0  0  0  0
  191.9910  174.2110  142.3970 C   0  0  2  0  0  3  0  0  0  0  0  0
  193.8510  172.0560  141.9210 C   0  0  2  0  0  3  0  0  0  0  0  0
  187.5640  176.1450  141.2570 C   0  0  0  0  0  1  0  0  0  0  0  0
  187.3130  175.1680  142.3880 C   0  0  0  0  0  2  0  0  0  0  0  0
  187.5810  176.2190  145.1060 O   0  0  0  0  0  0  0  0  0  0  0  0
  187.1100  177.9110  146.7220 C   0  0  0  0  0  1  0  0  0  0  0  0
  187.2260  177.5660  145.2490 C   0  0  2  0  0  3  0  0  0  0  0  0
  185.8820  177.8260  144.5850 C   0  0  0  0  0  2  0  0  0  0  0  0
  185.9160  179.0730  143.7720 C   0  0  0  0  0  0  0  0  0  0  0  0
  185.5210  180.1610  144.2650 O   0  0  0  0  0  1  0  0  0  0  0  0
  186.3980  179.0370  142.4700 O   0  0  0  0  0  0  0  0  0  0  0  0
  1 19  1  6  0  0  0
  1 10  1  0  0  0  0
  3  2  1  0  0  0  0
  4 20  1  6  0  0  0
  4  5  1  0  0  0  0
  4 22  1  0  0  0  0
  5 23  1  0  0  0  0
  5 15  1  1  0  0  0
  6 25  1  6  0  0  0
  6 14  1  0  0  0  0
  8 13  1  0  0  0  0
  8 21  1  1  0  0  0
  9  2  2  0  0  0  0
 10 11  1  0  0  0  0
 10  7  1  1  0  0  0
 11  9  1  0  0  0  0
 12 18  1  6  0  0  0
 12 17  1  0  0  0  0
 14  7  1  0  0  0  0
 14 26  1  1  0  0  0
 15 13  1  0  0  0  0
 16  3  2  0  0  0  0
 17 11  2  0  0  0  0
 17 16  1  0  0  0  0
 19  6  1  0  0  0  0
 22  1  1  0  0  0  0
 22 12  1  0  0  0  0
 23 18  1  0  0  0  0
 23  8  1  0  0  0  0
 24 25  1  0  0  0  0
 26 28  1  0  0  0  0
 28 27  1  0  0  0  0
 29 28  1  0  0  0  0
 30 31  1  0  0  0  0
 30 29  1  0  0  0  0
 32 30  2  0  0  0  0
M  END
>  <MODEL>
8

>  <REMARK>
 VINA RESULT:      -6.5      2.888      8.198
  Name = 
  5 active torsions:
  status: ('A' for Active; 'I' for Inactive)
    1  A    between atoms: C_7  and  C_19
    2  A    between atoms: O_10  and  C_17
    3  A    between atoms: O_10  and  C_20
    4  A    between atoms: C_20  and  C_29
    5  A    between atoms: C_29  and  C_30
                            x       y       z     vdW  Elec       q    Type
                         _______ _______ _______ _____ _____    ______ ____

>  <TORSDO>
F 5

$$$$
=
 OpenBabel11112416453D

 32 36  0  0  1  0  0  0  0  0999 V2000
  189.5820  175.1080  142.5380 C   0  0  1  0  0  3  0  0  0  0  0  0
  185.7860  178.0500  141.2470 C   0  0  0  0  0  3  0  0  0  0  0  0
  185.8450  178.6500  142.5060 C   0  0  0  0  0  3  0  0  0  0  0  0
  191.0400  175.8320  144.4990 C   0  0  2  0  0  3  0  0  0  0  0  0
  190.6190  176.1280  145.8830 N   0  0  2  0  0  0  0  0  0  0  0  0
  190.1470  173.1960  141.4860 C   0  0  2  0  0  3  0  0  0  0  0  0
  188.1810  174.4850  140.5990 C   0  0  0  0  0  2  0  0  0  0  0  0
  188.7670  177.0390  147.1360 C   0  0  2  0  0  3  0  0  0  0  0  0
  186.7160  177.0700  140.8950 C   0  0  0  0  0  3  0  0  0  0  0  0
  188.7610  175.6700  141.3670 C   0  0  1  0  0  3  0  0  0  0  0  0
  187.7080  176.6680  141.8020 C   0  0  0  0  0  0  0  0  0  0  0  0
  188.8170  176.8690  144.0750 C   0  0  2  0  0  3  0  0  0  0  0  0
  188.5670  175.5480  147.0380 C   0  0  0  0  0  2  0  0  0  0  0  0
  189.2960  173.4960  140.2350 C   0  0  2  0  0  3  0  0  0  0  0  0
  189.8280  175.0060  146.3850 C   0  0  0  0  0  2  0  0  0  0  0  0
  186.8440  178.2810  143.4100 C   0  0  0  0  0  3  0  0  0  0  0  0
  187.7990  177.3170  143.0580 C   0  0  0  0  0  0  0  0  0  0  0  0
  189.2510  177.9140  144.8980 O   0  0  0  0  0  0  0  0  0  0  0  0
  190.6730  174.3910  142.0200 O   0  0  0  0  0  0  0  0  0  0  0  0
  192.3900  176.4640  144.2250 C   0  0  0  0  0  1  0  0  0  0  0  0
  187.5640  177.7080  146.9040 O   0  0  0  0  0  1  0  0  0  0  0  0
  190.0390  176.2600  143.4210 C   0  0  2  0  0  3  0  0  0  0  0  0
  189.8150  177.3590  146.0810 C   0  0  2  0  0  3  0  0  0  0  0  0
  192.6220  172.9600  141.3430 C   0  0  0  0  0  1  0  0  0  0  0  0
  191.2930  172.2610  141.1340 C   0  0  0  0  0  2  0  0  0  0  0  0
  188.7200  172.3180  139.7420 O   0  0  0  0  0  0  0  0  0  0  0  0
  189.6930  171.0540  137.9660 C   0  0  0  0  0  1  0  0  0  0  0  0
  188.9670  172.3260  138.3640 C   0  0  2  0  0  3  0  0  0  0  0  0
  189.8420  173.5150  137.9970 C   0  0  0  0  0  2  0  0  0  0  0  0
  189.3690  174.1650  136.7430 C   0  0  0  0  0  0  0  0  0  0  0  0
  190.0180  174.0280  135.6750 O   0  0  0  0  0  0  0  0  0  0  0  0
  188.1990  174.9140  136.7520 O   0  0  0  0  0  1  0  0  0  0  0  0
  1 19  1  6  0  0  0
  1 22  1  0  0  0  0
  2  3  1  0  0  0  0
  3 16  2  0  0  0  0
  4 20  1  6  0  0  0
  4  5  1  0  0  0  0
  5 23  1  0  0  0  0
  5 15  1  6  0  0  0
  6 25  1  6  0  0  0
  6 19  1  0  0  0  0
  8 21  1  6  0  0  0
  9  2  2  0  0  0  0
  9 11  1  0  0  0  0
 10  7  1  1  0  0  0
 10 11  1  0  0  0  0
 10  1  1  0  0  0  0
 11 17  2  0  0  0  0
 12 17  1  6  0  0  0
 12 18  1  0  0  0  0
 13  8  1  0  0  0  0
 14 26  1  1  0  0  0
 14  7  1  0  0  0  0
 14  6  1  0  0  0  0
 15 13  1  0  0  0  0
 17 16  1  0  0  0  0
 18 23  1  0  0  0  0
 22 12  1  0  0  0  0
 22  4  1  0  0  0  0
 23  8  1  0  0  0  0
 25 24  1  0  0  0  0
 27 28  1  0  0  0  0
 28 26  1  0  0  0  0
 29 28  1  0  0  0  0
 30 32  1  0  0  0  0
 30 29  1  0  0  0  0
 31 30  2  0  0  0  0
M  END
>  <MODEL>
9

>  <REMARK>
 VINA RESULT:      -6.5      2.172      3.001
  Name = 
  5 active torsions:
  status: ('A' for Active; 'I' for Inactive)
    1  A    between atoms: C_7  and  C_19
    2  A    between atoms: O_10  and  C_17
    3  A    between atoms: O_10  and  C_20
    4  A    between atoms: C_20  and  C_29
    5  A    between atoms: C_29  and  C_30
                            x       y       z     vdW  Elec       q    Type
                         _______ _______ _______ _____ _____    ______ ____

>  <TORSDO>
F 5

$$$$
