=
 OpenBabel11112417413D

 28 32  0  0  1  0  0  0  0  0999 V2000
  191.0660  175.3490  144.2310 C   0  0  2  0  0  3  0  0  0  0  0  0
  189.8410  175.5120  141.6190 O   0  0  0  0  0  0  0  0  0  0  0  0
  187.0510  178.6470  148.0320 O   0  0  0  0  0  0  0  0  0  0  0  0
  190.7830  172.4310  144.4890 C   0  0  0  0  0  2  0  0  0  0  0  0
  186.3460  177.9170  145.8980 N   0  0  0  0  0  0  0  0  0  0  0  0
  191.3950  176.7420  144.7860 C   0  0  0  0  0  2  0  0  0  0  0  0
  187.8650  174.0390  141.5630 O   0  0  0  0  0  0  0  0  0  0  0  0
  188.3620  175.4260  141.8590 S   0  0  0  0  0  0  0  0  0  0  0  0
  186.3300  177.2560  141.4550 C   0  0  0  0  0  0  0  0  0  0  0  0
  187.9620  175.8680  143.4740 N   0  0  0  0  0  0  0  0  0  0  0  0
  190.6450  175.3990  147.8400 N   0  0  0  0  0  2  0  0  0  0  0  0
  187.8380  176.1620  145.6790 C   0  0  0  0  0  0  0  0  0  0  0  0
  186.1320  177.3280  142.7420 N   0  0  0  0  0  0  0  0  0  0  0  0
  187.5370  176.6100  140.8130 C   0  0  0  0  0  2  0  0  0  0  0  0
  190.6830  176.4950  147.1540 C   0  0  0  0  0  0  0  0  0  0  0  0
  189.7950  174.7160  144.8400 C   0  0  2  0  0  3  0  0  0  0  0  0
  187.1580  177.8370  147.0740 C   0  0  0  0  0  0  0  0  0  0  0  0
  185.3900  177.9770  140.5570 C   0  0  0  0  0  1  0  0  0  0  0  0
  189.5100  177.2960  147.0070 N   0  0  0  0  0  2  0  0  0  0  0  0
  189.5520  173.3070  144.2970 C   0  0  0  0  0  2  0  0  0  0  0  0
  192.2770  174.4210  144.3600 C   0  0  0  0  0  2  0  0  0  0  0  0
  191.9740  173.0500  143.7710 C   0  0  0  0  0  2  0  0  0  0  0  0
  191.8400  176.7490  146.2520 C   0  0  0  0  0  2  0  0  0  0  0  0
  186.8310  176.8540  145.1020 C   0  0  0  0  0  0  0  0  0  0  0  0
  188.1760  176.7190  147.0330 C   0  0  2  0  0  3  0  0  0  0  0  0
  186.9410  176.7000  143.7420 C   0  0  0  0  0  0  0  0  0  0  0  0
  185.7000  179.1220  145.4050 C   0  0  0  0  0  1  0  0  0  0  0  0
  188.5590  175.5540  144.6560 C   0  0  0  0  0  0  0  0  0  0  0  0
  1 21  1  1  0  0  0
  1  6  1  0  0  0  0
  1 16  1  0  0  0  0
  2  8  2  0  0  0  0
  5 17  1  0  0  0  0
  6 23  1  0  0  0  0
  7  8  2  0  0  0  0
  8 10  1  0  0  0  0
  9 13  2  0  0  0  0
 10 26  1  0  0  0  0
 10 28  1  0  0  0  0
 13 26  1  0  0  0  0
 14  9  1  0  0  0  0
 14  8  1  0  0  0  0
 15 11  2  0  0  0  0
 16 20  1  6  0  0  0
 17  3  2  0  0  0  0
 18  9  1  0  0  0  0
 19 25  1  0  0  0  0
 19 15  1  0  0  0  0
 20  4  1  0  0  0  0
 22 21  1  0  0  0  0
 22  4  1  0  0  0  0
 23 15  1  0  0  0  0
 24 12  1  0  0  0  0
 24  5  1  0  0  0  0
 25 12  1  6  0  0  0
 25 17  1  0  0  0  0
 26 24  2  0  0  0  0
 27  5  1  0  0  0  0
 28 16  1  0  0  0  0
 28 12  2  0  0  0  0
M  END
>  <MODEL>
1

>  <REMARK>
 VINA RESULT:      -8.2      0.000      0.000
  Name = 
  0 active torsions:
  status: ('A' for Active; 'I' for Inactive)
                            x       y       z     vdW  Elec       q    Type
                         _______ _______ _______ _____ _____    ______ ____

>  <TORSDO>
F 0

$$$$
=
 OpenBabel11112417413D

 28 32  0  0  1  0  0  0  0  0999 V2000
  185.6580  177.3750  145.0080 C   0  0  2  0  0  3  0  0  0  0  0  0
  186.0410  176.1420  142.4230 O   0  0  0  0  0  0  0  0  0  0  0  0
  191.2610  176.4130  148.0290 O   0  0  0  0  0  0  0  0  0  0  0  0
  185.3490  180.1110  143.9690 C   0  0  0  0  0  2  0  0  0  0  0  0
  191.1090  176.1550  145.6840 N   0  0  0  0  0  0  0  0  0  0  0  0
  185.8300  176.3600  146.1470 C   0  0  0  0  0  2  0  0  0  0  0  0
  187.5290  177.5640  141.0660 O   0  0  0  0  0  0  0  0  0  0  0  0
  187.4660  176.4270  142.0460 S   0  0  0  0  0  0  0  0  0  0  0  0
  189.6350  174.7540  141.6790 C   0  0  0  0  0  0  0  0  0  0  0  0
  188.4220  176.7840  143.4310 N   0  0  0  0  0  0  0  0  0  0  0  0
  187.1490  178.9770  147.9100 N   0  0  0  0  0  2  0  0  0  0  0  0
  189.2690  177.5200  145.3570 C   0  0  0  0  0  0  0  0  0  0  0  0
  190.2230  175.2800  142.7170 N   0  0  0  0  0  0  0  0  0  0  0  0
  188.1790  174.9600  141.3290 C   0  0  0  0  0  2  0  0  0  0  0  0
  187.1500  177.6900  147.7790 C   0  0  0  0  0  0  0  0  0  0  0  0
  186.8790  178.2990  144.8020 C   0  0  2  0  0  3  0  0  0  0  0  0
  190.6930  176.6980  146.9410 C   0  0  0  0  0  0  0  0  0  0  0  0
  190.3960  173.7720  140.8620 C   0  0  0  0  0  1  0  0  0  0  0  0
  188.3710  176.9900  147.5390 N   0  0  0  0  0  2  0  0  0  0  0  0
  186.6260  179.3270  143.6990 C   0  0  0  0  0  2  0  0  0  0  0  0
  184.3680  178.1780  145.1970 C   0  0  0  0  0  2  0  0  0  0  0  0
  184.1660  179.1560  144.0480 C   0  0  0  0  0  2  0  0  0  0  0  0
  185.8620  176.9800  147.5480 C   0  0  0  0  0  2  0  0  0  0  0  0
  190.1820  176.7120  144.7740 C   0  0  0  0  0  0  0  0  0  0  0  0
  189.4880  177.6070  146.8410 C   0  0  2  0  0  3  0  0  0  0  0  0
  189.6350  176.2330  143.6090 C   0  0  0  0  0  0  0  0  0  0  0  0
  191.8270  174.9040  145.5070 C   0  0  0  0  0  1  0  0  0  0  0  0
  188.1560  177.5540  144.5230 C   0  0  0  0  0  0  0  0  0  0  0  0
  1 21  1  1  0  0  0
  1  6  1  0  0  0  0
  4 22  1  0  0  0  0
  5 17  1  0  0  0  0
  6 23  1  0  0  0  0
  7  8  2  0  0  0  0
  8  2  2  0  0  0  0
  8 10  1  0  0  0  0
  9 13  2  0  0  0  0
 10 26  1  0  0  0  0
 10 28  1  0  0  0  0
 13 26  1  0  0  0  0
 14  9  1  0  0  0  0
 14  8  1  0  0  0  0
 15 11  2  0  0  0  0
 16 20  1  6  0  0  0
 16  1  1  0  0  0  0
 17  3  2  0  0  0  0
 18  9  1  0  0  0  0
 19 15  1  0  0  0  0
 20  4  1  0  0  0  0
 22 21  1  0  0  0  0
 23 15  1  0  0  0  0
 24 12  1  0  0  0  0
 24  5  1  0  0  0  0
 25 12  1  6  0  0  0
 25 17  1  0  0  0  0
 25 19  1  0  0  0  0
 26 24  2  0  0  0  0
 27  5  1  0  0  0  0
 28 16  1  0  0  0  0
 28 12  2  0  0  0  0
M  END
>  <MODEL>
2

>  <REMARK>
 VINA RESULT:      -8.1      2.231      5.138
  Name = 
  0 active torsions:
  status: ('A' for Active; 'I' for Inactive)
                            x       y       z     vdW  Elec       q    Type
                         _______ _______ _______ _____ _____    ______ ____

>  <TORSDO>
F 0

$$$$
=
 OpenBabel11112417413D

 28 32  0  0  1  0  0  0  0  0999 V2000
  190.3220  174.5090  145.0410 C   0  0  2  0  0  3  0  0  0  0  0  0
  188.8190  175.5170  147.2940 O   0  0  0  0  0  0  0  0  0  0  0  0
  187.0480  176.6310  139.9200 O   0  0  0  0  0  0  0  0  0  0  0  0
  192.7500  176.0740  145.6040 C   0  0  0  0  0  2  0  0  0  0  0  0
  186.6760  177.5790  142.0530 N   0  0  0  0  0  0  0  0  0  0  0  0
  189.4650  173.5910  144.1590 C   0  0  0  0  0  2  0  0  0  0  0  0
  189.2020  177.9440  147.4950 O   0  0  0  0  0  0  0  0  0  0  0  0
  188.3380  176.8790  146.8820 S   0  0  0  0  0  0  0  0  0  0  0  0
  185.7940  177.8690  146.4480 C   0  0  0  0  0  0  0  0  0  0  0  0
  188.3140  177.0440  145.1700 N   0  0  0  0  0  0  0  0  0  0  0  0
  191.2640  174.8790  141.5510 N   0  0  0  0  0  2  0  0  0  0  0  0
  188.7250  177.0340  142.9800 C   0  0  0  0  0  0  0  0  0  0  0  0
  186.0640  178.0200  145.1810 N   0  0  0  0  0  0  0  0  0  0  0  0
  186.6480  177.0790  147.4130 C   0  0  0  0  0  2  0  0  0  0  0  0
  190.1340  174.3500  141.8880 C   0  0  0  0  0  0  0  0  0  0  0  0
  190.5110  175.9320  144.4690 C   0  0  2  0  0  3  0  0  0  0  0  0
  187.4690  176.8950  141.0780 C   0  0  0  0  0  0  0  0  0  0  0  0
  184.4940  178.3800  146.9560 C   0  0  0  0  0  1  0  0  0  0  0  0
  188.9090  175.0370  141.6300 N   0  0  0  0  0  2  0  0  0  0  0  0
  191.4220  176.7790  145.3580 C   0  0  0  0  0  2  0  0  0  0  0  0
  191.6650  173.8440  145.3590 C   0  0  0  0  0  2  0  0  0  0  0  0
  192.5030  174.7290  146.2720 C   0  0  0  0  0  2  0  0  0  0  0  0
  190.1210  173.1970  142.8310 C   0  0  0  0  0  2  0  0  0  0  0  0
  187.5240  177.6200  143.1830 C   0  0  0  0  0  0  0  0  0  0  0  0
  188.8350  176.4880  141.5840 C   0  0  2  0  0  3  0  0  0  0  0  0
  187.2630  177.5840  144.5300 C   0  0  0  0  0  0  0  0  0  0  0  0
  185.2230  177.6120  142.0790 C   0  0  0  0  0  1  0  0  0  0  0  0
  189.2160  176.6580  144.2260 C   0  0  0  0  0  0  0  0  0  0  0  0
  1  6  1  6  0  0  0
  1 21  1  0  0  0  0
  3 17  2  0  0  0  0
  4 22  1  0  0  0  0
  5 27  1  0  0  0  0
  5 24  1  0  0  0  0
  8  2  2  0  0  0  0
  8 14  1  0  0  0  0
  8  7  2  0  0  0  0
  9 18  1  0  0  0  0
  9 14  1  0  0  0  0
 10  8  1  0  0  0  0
 11 15  2  0  0  0  0
 12 24  1  0  0  0  0
 12 28  2  0  0  0  0
 13  9  2  0  0  0  0
 15 23  1  0  0  0  0
 16  1  1  0  0  0  0
 16 20  1  1  0  0  0
 17  5  1  0  0  0  0
 19 15  1  0  0  0  0
 20  4  1  0  0  0  0
 21 22  1  0  0  0  0
 23  6  1  0  0  0  0
 24 26  2  0  0  0  0
 25 17  1  6  0  0  0
 25 19  1  0  0  0  0
 25 12  1  0  0  0  0
 26 10  1  0  0  0  0
 26 13  1  0  0  0  0
 28 16  1  0  0  0  0
 28 10  1  0  0  0  0
M  END
>  <MODEL>
3

>  <REMARK>
 VINA RESULT:      -8.1      2.080      4.694
  Name = 
  0 active torsions:
  status: ('A' for Active; 'I' for Inactive)
                            x       y       z     vdW  Elec       q    Type
                         _______ _______ _______ _____ _____    ______ ____

>  <TORSDO>
F 0

$$$$
=
 OpenBabel11112417413D

 28 32  0  0  1  0  0  0  0  0999 V2000
  189.4610  177.1070  144.4250 C   0  0  2  0  0  3  0  0  0  0  0  0
  192.2640  176.5860  144.8960 O   0  0  0  0  0  0  0  0  0  0  0  0
  188.1910  173.9320  138.9710 O   0  0  0  0  0  0  0  0  0  0  0  0
  188.5100  175.7110  146.8360 C   0  0  0  0  0  2  0  0  0  0  0  0
  190.1500  173.4520  140.2040 N   0  0  0  0  0  0  0  0  0  0  0  0
  189.2380  177.8120  143.0800 C   0  0  0  0  0  2  0  0  0  0  0  0
  192.5330  174.2590  145.6630 O   0  0  0  0  0  0  0  0  0  0  0  0
  192.4900  175.1660  144.4660 S   0  0  0  0  0  0  0  0  0  0  0  0
  194.0050  174.0890  142.4200 C   0  0  0  0  0  0  0  0  0  0  0  0
  191.2740  174.6420  143.3670 N   0  0  0  0  0  0  0  0  0  0  0  0
  186.3320  176.0150  142.9340 N   0  0  0  0  0  2  0  0  0  0  0  0
  189.3920  174.1930  142.2610 C   0  0  0  0  0  0  0  0  0  0  0  0
  192.9200  173.6770  141.8270 N   0  0  0  0  0  0  0  0  0  0  0  0
  194.0270  175.0710  143.5690 C   0  0  0  0  0  2  0  0  0  0  0  0
  187.2450  176.5960  142.2270 C   0  0  0  0  0  0  0  0  0  0  0  0
  189.1350  175.5960  144.4030 C   0  0  2  0  0  3  0  0  0  0  0  0
  188.8040  173.9200  140.0720 C   0  0  0  0  0  0  0  0  0  0  0  0
  195.3160  173.6890  141.8460 C   0  0  0  0  0  1  0  0  0  0  0  0
  187.9710  175.8620  141.2400 N   0  0  0  0  0  2  0  0  0  0  0  0
  189.3160  174.9620  145.7820 C   0  0  0  0  0  2  0  0  0  0  0  0
  188.7040  177.8320  145.5420 C   0  0  0  0  0  2  0  0  0  0  0  0
  188.9570  177.1650  146.8880 C   0  0  0  0  0  2  0  0  0  0  0  0
  187.7690  177.9210  142.6600 C   0  0  0  0  0  2  0  0  0  0  0  0
  190.4250  173.6560  141.5750 C   0  0  0  0  0  0  0  0  0  0  0  0
  188.2100  174.4330  141.3650 C   0  0  2  0  0  3  0  0  0  0  0  0
  191.5820  173.9730  142.2430 C   0  0  0  0  0  0  0  0  0  0  0  0
  191.1340  173.4160  139.1350 C   0  0  0  0  0  1  0  0  0  0  0  0
  189.9240  174.8270  143.3790 C   0  0  0  0  0  0  0  0  0  0  0  0
  1  6  1  6  0  0  0
  1 21  1  0  0  0  0
  3 17  2  0  0  0  0
  4 22  1  0  0  0  0
  5 24  1  0  0  0  0
  8  2  2  0  0  0  0
  8  7  2  0  0  0  0
  9 14  1  0  0  0  0
 10 28  1  0  0  0  0
 10  8  1  0  0  0  0
 12 28  2  0  0  0  0
 13 26  1  0  0  0  0
 13  9  2  0  0  0  0
 14  8  1  0  0  0  0
 15 23  1  0  0  0  0
 15 11  2  0  0  0  0
 16  1  1  0  0  0  0
 16 20  1  1  0  0  0
 17  5  1  0  0  0  0
 18  9  1  0  0  0  0
 19 25  1  0  0  0  0
 19 15  1  0  0  0  0
 20  4  1  0  0  0  0
 21 22  1  0  0  0  0
 23  6  1  0  0  0  0
 24 26  2  0  0  0  0
 24 12  1  0  0  0  0
 25 17  1  6  0  0  0
 25 12  1  0  0  0  0
 26 10  1  0  0  0  0
 27  5  1  0  0  0  0
 28 16  1  0  0  0  0
M  END
>  <MODEL>
4

>  <REMARK>
 VINA RESULT:      -7.7      2.991      6.302
  Name = 
  0 active torsions:
  status: ('A' for Active; 'I' for Inactive)
                            x       y       z     vdW  Elec       q    Type
                         _______ _______ _______ _____ _____    ______ ____

>  <TORSDO>
F 0

$$$$
=
 OpenBabel11112417413D

 28 32  0  0  1  0  0  0  0  0999 V2000
  188.7410  177.4100  145.0330 C   0  0  2  0  0  3  0  0  0  0  0  0
  191.0870  177.5130  146.7150 O   0  0  0  0  0  0  0  0  0  0  0  0
  190.3110  173.1800  140.4400 O   0  0  0  0  0  0  0  0  0  0  0  0
  186.9680  176.2870  147.0960 C   0  0  0  0  0  2  0  0  0  0  0  0
  191.5650  173.2920  142.4410 N   0  0  0  0  0  0  0  0  0  0  0  0
  189.0640  177.8240  143.5900 C   0  0  0  0  0  2  0  0  0  0  0  0
  191.2160  175.4400  148.0440 O   0  0  0  0  0  0  0  0  0  0  0  0
  191.6160  176.1080  146.7590 S   0  0  0  0  0  0  0  0  0  0  0  0
  193.9720  175.0070  145.8240 C   0  0  0  0  0  0  0  0  0  0  0  0
  191.0630  175.1880  145.4140 N   0  0  0  0  0  0  0  0  0  0  0  0
  186.7070  175.5140  142.6920 N   0  0  0  0  0  2  0  0  0  0  0  0
  189.9120  174.2130  143.7730 C   0  0  0  0  0  0  0  0  0  0  0  0
  193.3030  174.3030  144.9530 N   0  0  0  0  0  0  0  0  0  0  0  0
  193.3920  176.1540  146.6180 C   0  0  0  0  0  2  0  0  0  0  0  0
  187.7770  176.1290  142.3060 C   0  0  0  0  0  0  0  0  0  0  0  0
  188.6050  175.8840  145.2320 C   0  0  2  0  0  3  0  0  0  0  0  0
  190.3750  173.4690  141.6650 C   0  0  0  0  0  0  0  0  0  0  0  0
  195.4340  174.7680  145.9460 C   0  0  0  0  0  1  0  0  0  0  0  0
  188.9300  175.3890  141.9030 N   0  0  0  0  0  2  0  0  0  0  0  0
  188.2230  175.5360  146.6710 C   0  0  0  0  0  2  0  0  0  0  0  0
  187.5040  178.1580  145.5400 C   0  0  0  0  0  2  0  0  0  0  0  0
  187.2030  177.7870  146.9860 C   0  0  0  0  0  2  0  0  0  0  0  0
  187.9260  177.5830  142.5930 C   0  0  0  0  0  2  0  0  0  0  0  0
  191.1880  173.7720  143.7160 C   0  0  0  0  0  0  0  0  0  0  0  0
  189.2270  174.0720  142.4440 C   0  0  2  0  0  3  0  0  0  0  0  0
  191.8970  174.4090  144.7040 C   0  0  0  0  0  0  0  0  0  0  0  0
  192.9170  173.2620  141.9090 C   0  0  0  0  0  1  0  0  0  0  0  0
  189.8350  175.1150  144.8300 C   0  0  0  0  0  0  0  0  0  0  0  0
  1  6  1  6  0  0  0
  1 16  1  0  0  0  0
  1 21  1  0  0  0  0
  2  8  2  0  0  0  0
  3 17  2  0  0  0  0
  5 24  1  0  0  0  0
  8  7  2  0  0  0  0
  9 18  1  0  0  0  0
  9 14  1  0  0  0  0
 10  8  1  0  0  0  0
 12 28  2  0  0  0  0
 13  9  2  0  0  0  0
 14  8  1  0  0  0  0
 15 23  1  0  0  0  0
 15 11  2  0  0  0  0
 16 20  1  1  0  0  0
 17  5  1  0  0  0  0
 19 15  1  0  0  0  0
 19 25  1  0  0  0  0
 20  4  1  0  0  0  0
 21 22  1  0  0  0  0
 22  4  1  0  0  0  0
 23  6  1  0  0  0  0
 24 12  1  0  0  0  0
 24 26  2  0  0  0  0
 25 17  1  6  0  0  0
 25 12  1  0  0  0  0
 26 13  1  0  0  0  0
 26 10  1  0  0  0  0
 27  5  1  0  0  0  0
 28 16  1  0  0  0  0
 28 10  1  0  0  0  0
M  END
>  <MODEL>
5

>  <REMARK>
 VINA RESULT:      -7.6      2.658      6.571
  Name = 
  0 active torsions:
  status: ('A' for Active; 'I' for Inactive)
                            x       y       z     vdW  Elec       q    Type
                         _______ _______ _______ _____ _____    ______ ____

>  <TORSDO>
F 0

$$$$
=
 OpenBabel11112417413D

 28 32  0  0  1  0  0  0  0  0999 V2000
  188.6370  175.4850  145.5240 C   0  0  2  0  0  3  0  0  0  0  0  0
  188.1080  174.4600  142.8750 O   0  0  0  0  0  0  0  0  0  0  0  0
  195.0640  175.6210  145.8790 O   0  0  0  0  0  0  0  0  0  0  0  0
  187.4400  178.1310  145.0430 C   0  0  0  0  0  2  0  0  0  0  0  0
  193.9870  175.4250  143.7840 N   0  0  0  0  0  0  0  0  0  0  0  0
  189.4490  174.4880  146.3620 C   0  0  0  0  0  2  0  0  0  0  0  0
  188.6080  176.2150  141.2180 O   0  0  0  0  0  0  0  0  0  0  0  0
  189.1670  175.0550  141.9920 S   0  0  0  0  0  0  0  0  0  0  0  0
  191.2380  173.8940  140.5770 C   0  0  0  0  0  0  0  0  0  0  0  0
  190.5370  175.5540  142.9050 N   0  0  0  0  0  0  0  0  0  0  0  0
  190.9010  177.2570  147.7480 N   0  0  0  0  0  2  0  0  0  0  0  0
  191.9700  176.3800  144.3990 C   0  0  0  0  0  0  0  0  0  0  0  0
  192.1050  174.4940  141.3450 N   0  0  0  0  0  0  0  0  0  0  0  0
  189.7590  173.8000  140.8740 C   0  0  0  0  0  2  0  0  0  0  0  0
  191.0750  176.0060  147.4710 C   0  0  0  0  0  0  0  0  0  0  0  0
  189.4730  176.6550  144.9570 C   0  0  2  0  0  3  0  0  0  0  0  0
  194.0500  175.8200  145.1580 C   0  0  0  0  0  0  0  0  0  0  0  0
  191.7450  173.1280  139.4090 C   0  0  0  0  0  1  0  0  0  0  0  0
  192.1840  175.5900  146.6740 N   0  0  0  0  0  2  0  0  0  0  0  0
  188.6020  177.6460  144.1860 C   0  0  0  0  0  2  0  0  0  0  0  0
  187.4260  175.9890  146.3160 C   0  0  0  0  0  2  0  0  0  0  0  0
  186.5890  176.9440  145.4760 C   0  0  0  0  0  2  0  0  0  0  0  0
  189.9570  175.0480  147.6950 C   0  0  0  0  0  2  0  0  0  0  0  0
  192.6810  175.8070  143.4020 C   0  0  0  0  0  0  0  0  0  0  0  0
  192.7740  176.4560  145.6650 C   0  0  2  0  0  3  0  0  0  0  0  0
  191.7890  175.2660  142.5080 C   0  0  0  0  0  0  0  0  0  0  0  0
  194.7730  174.3620  143.1800 C   0  0  0  0  0  1  0  0  0  0  0  0
  190.6230  176.2080  144.0960 C   0  0  0  0  0  0  0  0  0  0  0  0
  1 21  1  1  0  0  0
  1  6  1  0  0  0  0
  4 22  1  0  0  0  0
  5 17  1  0  0  0  0
  6 23  1  0  0  0  0
  7  8  2  0  0  0  0
  8  2  2  0  0  0  0
  8 10  1  0  0  0  0
  9 14  1  0  0  0  0
  9 13  2  0  0  0  0
 10 28  1  0  0  0  0
 13 26  1  0  0  0  0
 14  8  1  0  0  0  0
 15 23  1  0  0  0  0
 15 11  2  0  0  0  0
 16 20  1  6  0  0  0
 16  1  1  0  0  0  0
 17 25  1  0  0  0  0
 17  3  2  0  0  0  0
 18  9  1  0  0  0  0
 19 15  1  0  0  0  0
 20  4  1  0  0  0  0
 22 21  1  0  0  0  0
 24  5  1  0  0  0  0
 24 12  1  0  0  0  0
 25 12  1  6  0  0  0
 25 19  1  0  0  0  0
 26 10  1  0  0  0  0
 26 24  2  0  0  0  0
 27  5  1  0  0  0  0
 28 12  2  0  0  0  0
 28 16  1  0  0  0  0
M  END
>  <MODEL>
6

>  <REMARK>
 VINA RESULT:      -7.6      2.701      5.309
  Name = 
  0 active torsions:
  status: ('A' for Active; 'I' for Inactive)
                            x       y       z     vdW  Elec       q    Type
                         _______ _______ _______ _____ _____    ______ ____

>  <TORSDO>
F 0

$$$$
=
 OpenBabel11112417413D

 28 32  0  0  1  0  0  0  0  0999 V2000
  187.1100  178.2660  144.6850 C   0  0  2  0  0  3  0  0  0  0  0  0
  189.1900  177.6280  146.5860 O   0  0  0  0  0  0  0  0  0  0  0  0
  188.4980  174.5970  139.5810 O   0  0  0  0  0  0  0  0  0  0  0  0
  184.9040  177.2040  146.3190 C   0  0  0  0  0  2  0  0  0  0  0  0
  189.4720  174.1350  141.6840 N   0  0  0  0  0  0  0  0  0  0  0  0
  187.6920  178.8320  143.3820 C   0  0  0  0  0  2  0  0  0  0  0  0
  188.7660  175.3870  147.5210 O   0  0  0  0  0  0  0  0  0  0  0  0
  189.4470  176.1580  146.4260 S   0  0  0  0  0  0  0  0  0  0  0  0
  191.6720  174.7720  145.5490 C   0  0  0  0  0  0  0  0  0  0  0  0
  188.9240  175.5930  144.8870 N   0  0  0  0  0  0  0  0  0  0  0  0
  185.1020  177.2130  141.8440 N   0  0  0  0  0  2  0  0  0  0  0  0
  187.8480  175.1430  142.9880 C   0  0  0  0  0  0  0  0  0  0  0  0
  191.0110  174.3650  144.5010 N   0  0  0  0  0  0  0  0  0  0  0  0
  191.2050  175.8710  146.4770 C   0  0  0  0  0  2  0  0  0  0  0  0
  186.3070  177.6550  141.6870 C   0  0  0  0  0  0  0  0  0  0  0  0
  186.6780  176.7850  144.5870 C   0  0  2  0  0  3  0  0  0  0  0  0
  188.4490  174.6680  140.8370 C   0  0  0  0  0  0  0  0  0  0  0  0
  193.0380  174.2310  145.7730 C   0  0  0  0  0  1  0  0  0  0  0  0
  187.3520  176.7740  141.2740 N   0  0  0  0  0  2  0  0  0  0  0  0
  186.0500  176.2960  145.8930 C   0  0  0  0  0  2  0  0  0  0  0  0
  185.9700  179.1550  145.1920 C   0  0  0  0  0  2  0  0  0  0  0  0
  185.4160  178.6250  146.5080 C   0  0  0  0  0  2  0  0  0  0  0  0
  186.6730  178.9850  142.2480 C   0  0  0  0  0  2  0  0  0  0  0  0
  189.0200  174.4700  142.9810 C   0  0  0  0  0  0  0  0  0  0  0  0
  187.3330  175.3550  141.5930 C   0  0  2  0  0  3  0  0  0  0  0  0
  189.6930  174.7870  144.1350 C   0  0  0  0  0  0  0  0  0  0  0  0
  190.8560  173.9210  141.2950 C   0  0  0  0  0  1  0  0  0  0  0  0
  187.7920  175.8610  144.1790 C   0  0  0  0  0  0  0  0  0  0  0  0
  1  6  1  6  0  0  0
  1 21  1  0  0  0  0
  3 17  2  0  0  0  0
  4 22  1  0  0  0  0
  5 24  1  0  0  0  0
  8 14  1  0  0  0  0
  8  2  2  0  0  0  0
  8  7  2  0  0  0  0
  9 18  1  0  0  0  0
  9 14  1  0  0  0  0
 10  8  1  0  0  0  0
 12 28  2  0  0  0  0
 13  9  2  0  0  0  0
 15 11  2  0  0  0  0
 15 23  1  0  0  0  0
 16  1  1  0  0  0  0
 16 20  1  1  0  0  0
 17  5  1  0  0  0  0
 19 25  1  0  0  0  0
 19 15  1  0  0  0  0
 20  4  1  0  0  0  0
 21 22  1  0  0  0  0
 23  6  1  0  0  0  0
 24 12  1  0  0  0  0
 24 26  2  0  0  0  0
 25 17  1  6  0  0  0
 25 12  1  0  0  0  0
 26 13  1  0  0  0  0
 26 10  1  0  0  0  0
 27  5  1  0  0  0  0
 28 16  1  0  0  0  0
 28 10  1  0  0  0  0
M  END
>  <MODEL>
7

>  <REMARK>
 VINA RESULT:      -7.5      2.133      6.381
  Name = 
  0 active torsions:
  status: ('A' for Active; 'I' for Inactive)
                            x       y       z     vdW  Elec       q    Type
                         _______ _______ _______ _____ _____    ______ ____

>  <TORSDO>
F 0

$$$$
=
 OpenBabel11112417413D

 28 32  0  0  1  0  0  0  0  0999 V2000
  191.2090  175.8990  144.8430 C   0  0  2  0  0  3  0  0  0  0  0  0
  192.6430  173.4740  144.2030 O   0  0  0  0  0  0  0  0  0  0  0  0
  187.1390  176.6400  139.9100 O   0  0  0  0  0  0  0  0  0  0  0  0
  189.9230  174.8310  147.2660 C   0  0  0  0  0  2  0  0  0  0  0  0
  188.1940  174.5580  140.2870 N   0  0  0  0  0  0  0  0  0  0  0  0
  191.3980  176.9670  143.7570 C   0  0  0  0  0  2  0  0  0  0  0  0
  191.1550  171.5410  144.5600 O   0  0  0  0  0  0  0  0  0  0  0  0
  191.6330  172.5620  143.5670 S   0  0  0  0  0  0  0  0  0  0  0  0
  191.4430  171.5410  141.0060 C   0  0  0  0  0  0  0  0  0  0  0  0
  190.3000  173.4470  142.9360 N   0  0  0  0  0  0  0  0  0  0  0  0
  188.1810  177.8760  144.4810 N   0  0  0  0  0  2  0  0  0  0  0  0
  188.6040  174.8410  142.5470 C   0  0  0  0  0  0  0  0  0  0  0  0
  190.3550  172.2320  140.8060 N   0  0  0  0  0  0  0  0  0  0  0  0
  192.3860  171.7530  142.1690 C   0  0  0  0  0  2  0  0  0  0  0  0
  189.0870  177.8610  143.5580 C   0  0  0  0  0  0  0  0  0  0  0  0
  189.8480  175.1700  144.7760 C   0  0  2  0  0  3  0  0  0  0  0  0
  187.6860  175.8290  140.7050 C   0  0  0  0  0  0  0  0  0  0  0  0
  191.8700  170.5810  139.9540 C   0  0  0  0  0  1  0  0  0  0  0  0
  188.8280  177.2350  142.3010 N   0  0  0  0  0  2  0  0  0  0  0  0
  189.6920  174.1630  145.9160 C   0  0  0  0  0  2  0  0  0  0  0  0
  191.4610  176.4960  146.2310 C   0  0  0  0  0  2  0  0  0  0  0  0
  191.3210  175.4320  147.3110 C   0  0  0  0  0  2  0  0  0  0  0  0
  190.4940  178.1950  143.9140 C   0  0  0  0  0  2  0  0  0  0  0  0
  188.7360  174.0240  141.4780 C   0  0  0  0  0  0  0  0  0  0  0  0
  187.9070  176.1170  142.1730 C   0  0  2  0  0  3  0  0  0  0  0  0
  189.8080  173.1980  141.7100 C   0  0  0  0  0  0  0  0  0  0  0  0
  188.6170  174.2270  138.9370 C   0  0  0  0  0  1  0  0  0  0  0  0
  189.5960  174.4900  143.4570 C   0  0  0  0  0  0  0  0  0  0  0  0
  1  6  1  6  0  0  0
  1 21  1  0  0  0  0
  3 17  2  0  0  0  0
  4 22  1  0  0  0  0
  5 17  1  0  0  0  0
  5 24  1  0  0  0  0
  6 23  1  0  0  0  0
  8  2  2  0  0  0  0
  8  7  2  0  0  0  0
  9 14  1  0  0  0  0
 10 28  1  0  0  0  0
 10  8  1  0  0  0  0
 12 28  2  0  0  0  0
 13  9  2  0  0  0  0
 13 26  1  0  0  0  0
 14  8  1  0  0  0  0
 15 23  1  0  0  0  0
 15 11  2  0  0  0  0
 16  1  1  0  0  0  0
 16 20  1  1  0  0  0
 18  9  1  0  0  0  0
 19 15  1  0  0  0  0
 20  4  1  0  0  0  0
 21 22  1  0  0  0  0
 24 26  2  0  0  0  0
 24 12  1  0  0  0  0
 25 17  1  6  0  0  0
 25 19  1  0  0  0  0
 25 12  1  0  0  0  0
 26 10  1  0  0  0  0
 27  5  1  0  0  0  0
 28 16  1  0  0  0  0
M  END
>  <MODEL>
8

>  <REMARK>
 VINA RESULT:      -7.5      3.022      5.261
  Name = 
  0 active torsions:
  status: ('A' for Active; 'I' for Inactive)
                            x       y       z     vdW  Elec       q    Type
                         _______ _______ _______ _____ _____    ______ ____

>  <TORSDO>
F 0

$$$$
=
 OpenBabel11112417413D

 28 32  0  0  1  0  0  0  0  0999 V2000
  191.8600  175.4970  143.3840 C   0  0  2  0  0  3  0  0  0  0  0  0
  192.0400  173.7400  141.0970 O   0  0  0  0  0  0  0  0  0  0  0  0
  186.4970  178.8930  142.3110 O   0  0  0  0  0  0  0  0  0  0  0  0
  191.5030  173.3460  145.3600 C   0  0  0  0  0  2  0  0  0  0  0  0
  186.9070  176.8970  141.1130 N   0  0  0  0  0  0  0  0  0  0  0  0
  191.8760  176.9730  142.9620 C   0  0  0  0  0  2  0  0  0  0  0  0
  190.3410  171.9670  141.3080 O   0  0  0  0  0  0  0  0  0  0  0  0
  190.6270  173.3440  140.7790 S   0  0  0  0  0  0  0  0  0  0  0  0
  189.0300  173.8540  138.5810 C   0  0  0  0  0  0  0  0  0  0  0  0
  189.4990  174.4740  141.4200 N   0  0  0  0  0  0  0  0  0  0  0  0
  189.7580  177.4640  145.6020 N   0  0  0  0  0  2  0  0  0  0  0  0
  188.3300  175.9160  142.6520 C   0  0  0  0  0  0  0  0  0  0  0  0
  188.2380  174.5810  139.3200 N   0  0  0  0  0  0  0  0  0  0  0  0
  190.4000  173.3810  139.0120 C   0  0  0  0  0  2  0  0  0  0  0  0
  190.1160  177.9130  144.4430 C   0  0  0  0  0  0  0  0  0  0  0  0
  190.4560  174.9630  143.7450 C   0  0  2  0  0  3  0  0  0  0  0  0
  187.0550  177.7660  142.2410 C   0  0  0  0  0  0  0  0  0  0  0  0
  188.6340  173.5900  137.1740 C   0  0  0  0  0  1  0  0  0  0  0  0
  189.1540  178.0630  143.3990 N   0  0  0  0  0  2  0  0  0  0  0  0
  190.5120  173.5090  144.2150 C   0  0  0  0  0  2  0  0  0  0  0  0
  192.8660  175.2520  144.5130 C   0  0  0  0  0  2  0  0  0  0  0  0
  192.8900  173.7820  144.9070 C   0  0  0  0  0  2  0  0  0  0  0  0
  191.5620  177.9570  144.0940 C   0  0  0  0  0  2  0  0  0  0  0  0
  187.7200  175.7920  141.4520 C   0  0  0  0  0  0  0  0  0  0  0  0
  187.9730  177.2180  143.3110 C   0  0  2  0  0  3  0  0  0  0  0  0
  188.4710  174.9330  140.6880 C   0  0  0  0  0  0  0  0  0  0  0  0
  186.5710  177.3230  139.7650 C   0  0  0  0  0  1  0  0  0  0  0  0
  189.4560  175.1000  142.6290 C   0  0  0  0  0  0  0  0  0  0  0  0
  1  6  1  1  0  0  0
  1 16  1  0  0  0  0
  1 21  1  0  0  0  0
  5 24  1  0  0  0  0
  5 17  1  0  0  0  0
  6 23  1  0  0  0  0
  8  2  2  0  0  0  0
  8  7  2  0  0  0  0
  8 10  1  0  0  0  0
  9 14  1  0  0  0  0
  9 13  2  0  0  0  0
 10 28  1  0  0  0  0
 12 25  1  0  0  0  0
 13 26  1  0  0  0  0
 14  8  1  0  0  0  0
 15 11  2  0  0  0  0
 16 20  1  6  0  0  0
 17  3  2  0  0  0  0
 18  9  1  0  0  0  0
 19 15  1  0  0  0  0
 20  4  1  0  0  0  0
 21 22  1  0  0  0  0
 22  4  1  0  0  0  0
 23 15  1  0  0  0  0
 24 12  1  0  0  0  0
 25 17  1  6  0  0  0
 25 19  1  0  0  0  0
 26 10  1  0  0  0  0
 26 24  2  0  0  0  0
 27  5  1  0  0  0  0
 28 12  2  0  0  0  0
 28 16  1  0  0  0  0
M  END
>  <MODEL>
9

>  <REMARK>
 VINA RESULT:      -7.2      2.585      3.685
  Name = 
  0 active torsions:
  status: ('A' for Active; 'I' for Inactive)
                            x       y       z     vdW  Elec       q    Type
                         _______ _______ _______ _____ _____    ______ ____

>  <TORSDO>
F 0

$$$$
