=
 OpenBabel11112417063D

 31 35  0  0  1  0  0  0  0  0999 V2000
  187.0300  177.5250  140.9050 C   0  0  0  0  0  0  0  0  0  0  0  0
  188.2400  177.9170  144.4920 C   0  0  2  0  0  3  0  0  0  0  0  0
  187.0240  177.9910  145.3970 C   0  0  0  0  0  0  0  0  0  0  0  0
  184.6510  178.3810  145.7510 C   0  0  0  0  0  0  0  0  0  0  0  0
  187.9350  177.3050  143.1460 C   0  0  0  0  0  0  0  0  0  0  0  0
  187.3310  176.1840  140.6480 C   0  0  0  0  0  3  0  0  0  0  0  0
  185.7510  178.2980  144.8920 C   0  0  0  0  0  3  0  0  0  0  0  0
  189.1850  175.6630  145.2070 C   0  0  2  0  0  3  0  0  0  0  0  0
  186.4460  178.2820  139.9470 F   0  0  0  0  0  0  0  0  0  0  0  0
  188.4860  177.5410  147.3090 N   0  0  0  0  0  2  0  0  0  0  0  0
  183.4240  178.6660  145.2520 F   0  0  0  0  0  0  0  0  0  0  0  0
  188.9180  175.1640  143.8610 N   0  0  0  0  0  2  0  0  0  0  0  0
  189.4160  177.1810  145.1790 C   0  0  2  0  0  3  0  0  0  0  0  0
  187.3340  178.0840  142.1490 C   0  0  0  0  0  3  0  0  0  0  0  0
  184.8160  178.1680  147.1210 C   0  0  0  0  0  3  0  0  0  0  0  0
  188.2380  175.9540  142.8830 C   0  0  0  0  0  0  0  0  0  0  0  0
  187.9380  175.4020  141.6340 C   0  0  0  0  0  3  0  0  0  0  0  0
  189.6450  177.7150  146.5260 N   0  0  0  0  0  2  0  0  0  0  0  0
  187.1870  177.8190  146.7820 C   0  0  0  0  0  0  0  0  0  0  0  0
  186.0840  177.8880  147.6380 C   0  0  0  0  0  3  0  0  0  0  0  0
  191.7880  175.6650  144.0440 O   0  0  0  0  0  0  0  0  0  0  0  0
  191.6320  175.0370  145.1270 C   0  0  0  0  0  0  0  0  0  0  0  0
  190.3520  174.9880  145.7570 N   0  0  0  0  0  2  0  0  0  0  0  0
  195.5780  174.9960  144.9250 C   0  0  1  0  0  3  0  0  0  0  0  0
  193.6940  175.3220  146.5080 C   0  0  0  0  0  2  0  0  0  0  0  0
  193.0320  172.4470  144.3150 O   0  0  0  0  0  0  0  0  0  0  0  0
  196.4950  175.6660  143.9240 C   0  0  0  0  0  1  0  0  0  0  0  0
  194.6520  176.0280  145.5540 C   0  0  0  0  0  2  0  0  0  0  0  0
  193.5440  173.5050  144.7650 C   0  0  0  0  0  0  0  0  0  0  0  0
  192.7880  174.3330  145.7680 C   0  0  2  0  0  3  0  0  0  0  0  0
  194.8100  173.9460  144.2620 N   0  0  0  0  0  2  0  0  0  0  0  0
  1 14  1  0  0  0  0
  2  5  1  6  0  0  0
  2 13  1  0  0  0  0
  2  3  1  0  0  0  0
  3 19  1  0  0  0  0
  4 15  2  0  0  0  0
  6  1  2  0  0  0  0
  6 17  1  0  0  0  0
  7  3  2  0  0  0  0
  7  4  1  0  0  0  0
  8 23  1  6  0  0  0
  9  1  1  0  0  0  0
 11  4  1  0  0  0  0
 12  8  1  0  0  0  0
 13  8  1  0  0  0  0
 13 18  1  1  0  0  0
 14  5  2  0  0  0  0
 15 20  1  0  0  0  0
 16  5  1  0  0  0  0
 16 12  1  0  0  0  0
 17 16  2  0  0  0  0
 18 10  1  0  0  0  0
 19 10  1  0  0  0  0
 19 20  2  0  0  0  0
 21 22  2  0  0  0  0
 22 23  1  0  0  0  0
 24 27  1  6  0  0  0
 24 28  1  0  0  0  0
 26 29  2  0  0  0  0
 28 25  1  0  0  0  0
 29 30  1  0  0  0  0
 30 22  1  6  0  0  0
 30 25  1  0  0  0  0
 31 29  1  0  0  0  0
 31 24  1  0  0  0  0
M  END
>  <MODEL>
1

>  <REMARK>
 VINA RESULT:      -9.1      0.000      0.000
  Name = 
  2 active torsions:
  status: ('A' for Active; 'I' for Inactive)
    1  A    between atoms: C_5  and  C_30
    2  A    between atoms: C_10  and  N_16
                            x       y       z     vdW  Elec       q    Type
                         _______ _______ _______ _____ _____    ______ ____

>  <TORSDO>
F 2

$$$$
=
 OpenBabel11112417063D

 31 35  0  0  1  0  0  0  0  0999 V2000
  184.8940  177.6340  146.7320 C   0  0  0  0  0  0  0  0  0  0  0  0
  187.0050  175.9880  144.0260 C   0  0  2  0  0  3  0  0  0  0  0  0
  186.6920  176.6630  142.7040 C   0  0  0  0  0  0  0  0  0  0  0  0
  185.2490  178.0150  141.2900 C   0  0  0  0  0  0  0  0  0  0  0  0
  186.6120  176.8220  145.2210 C   0  0  0  0  0  0  0  0  0  0  0  0
  185.8500  178.3890  147.4180 C   0  0  0  0  0  3  0  0  0  0  0  0
  185.5250  177.4210  142.5260 C   0  0  0  0  0  3  0  0  0  0  0  0
  189.4010  176.7800  144.3690 C   0  0  2  0  0  3  0  0  0  0  0  0
  183.6000  177.6600  147.1270 F   0  0  0  0  0  0  0  0  0  0  0  0
  188.7260  175.6660  141.7740 N   0  0  0  0  0  2  0  0  0  0  0  0
  184.1260  178.7550  141.1320 F   0  0  0  0  0  0  0  0  0  0  0  0
  188.9520  177.5100  145.5510 N   0  0  0  0  0  2  0  0  0  0  0  0
  188.4930  175.5690  144.1130 C   0  0  2  0  0  3  0  0  0  0  0  0
  185.2750  176.8510  145.6380 C   0  0  0  0  0  3  0  0  0  0  0  0
  186.1320  177.8470  140.2210 C   0  0  0  0  0  3  0  0  0  0  0  0
  187.5720  177.5840  145.9160 C   0  0  0  0  0  0  0  0  0  0  0  0
  187.1870  178.3600  147.0140 C   0  0  0  0  0  3  0  0  0  0  0  0
  188.8970  174.8410  142.9040 N   0  0  0  0  0  2  0  0  0  0  0  0
  187.5530  176.4660  141.6110 C   0  0  0  0  0  0  0  0  0  0  0  0
  187.2840  177.0720  140.3810 C   0  0  0  0  0  3  0  0  0  0  0  0
  191.6970  178.0770  143.2850 O   0  0  0  0  0  0  0  0  0  0  0  0
  191.8850  177.0480  143.9900 C   0  0  0  0  0  0  0  0  0  0  0  0
  190.7770  176.3460  144.5550 N   0  0  0  0  0  2  0  0  0  0  0  0
  193.7450  173.6230  144.6420 C   0  0  1  0  0  3  0  0  0  0  0  0
  193.7300  175.5960  143.1350 C   0  0  0  0  0  2  0  0  0  0  0  0
  193.3640  176.6620  146.6350 O   0  0  0  0  0  0  0  0  0  0  0  0
  193.1640  172.2490  144.9030 C   0  0  0  0  0  1  0  0  0  0  0  0
  193.1840  174.1870  143.3440 C   0  0  0  0  0  2  0  0  0  0  0  0
  193.3850  175.9280  145.6120 C   0  0  0  0  0  0  0  0  0  0  0  0
  193.2730  176.5480  144.2460 C   0  0  2  0  0  3  0  0  0  0  0  0
  193.4430  174.5050  145.7650 N   0  0  0  0  0  2  0  0  0  0  0  0
  1  9  1  0  0  0  0
  1  6  1  0  0  0  0
  2  3  1  6  0  0  0
  2 13  1  0  0  0  0
  2  5  1  0  0  0  0
  4  7  2  0  0  0  0
  5 14  1  0  0  0  0
  5 16  2  0  0  0  0
  7  3  1  0  0  0  0
  8 23  1  1  0  0  0
  8 12  1  0  0  0  0
 10 18  1  0  0  0  0
 11  4  1  0  0  0  0
 12 16  1  0  0  0  0
 13 18  1  6  0  0  0
 13  8  1  0  0  0  0
 14  1  2  0  0  0  0
 15 20  2  0  0  0  0
 15  4  1  0  0  0  0
 16 17  1  0  0  0  0
 17  6  2  0  0  0  0
 19 10  1  0  0  0  0
 19  3  2  0  0  0  0
 20 19  1  0  0  0  0
 21 22  2  0  0  0  0
 22 23  1  0  0  0  0
 24 27  1  1  0  0  0
 24 31  1  0  0  0  0
 25 28  1  0  0  0  0
 25 30  1  0  0  0  0
 28 24  1  0  0  0  0
 29 31  1  0  0  0  0
 29 26  2  0  0  0  0
 30 22  1  6  0  0  0
 30 29  1  0  0  0  0
M  END
>  <MODEL>
2

>  <REMARK>
 VINA RESULT:      -9.0      1.787      4.389
  Name = 
  2 active torsions:
  status: ('A' for Active; 'I' for Inactive)
    1  A    between atoms: C_5  and  C_30
    2  A    between atoms: C_10  and  N_16
                            x       y       z     vdW  Elec       q    Type
                         _______ _______ _______ _____ _____    ______ ____

>  <TORSDO>
F 2

$$$$
=
 OpenBabel11112417063D

 31 35  0  0  1  0  0  0  0  0999 V2000
  185.1750  178.2690  147.3380 C   0  0  0  0  0  0  0  0  0  0  0  0
  187.4500  176.0930  145.1990 C   0  0  2  0  0  3  0  0  0  0  0  0
  187.4450  176.6470  143.7870 C   0  0  0  0  0  0  0  0  0  0  0  0
  186.4400  177.9910  142.0270 C   0  0  0  0  0  0  0  0  0  0  0  0
  186.9860  177.0980  146.2270 C   0  0  0  0  0  0  0  0  0  0  0  0
  186.1010  178.9800  148.1060 C   0  0  0  0  0  3  0  0  0  0  0  0
  186.4340  177.5120  143.3410 C   0  0  0  0  0  3  0  0  0  0  0  0
  189.8450  176.6340  145.8760 C   0  0  2  0  0  3  0  0  0  0  0  0
  183.8490  178.4910  147.5000 F   0  0  0  0  0  0  0  0  0  0  0  0
  189.4490  175.3210  143.3160 N   0  0  0  0  0  2  0  0  0  0  0  0
  185.4670  178.8350  141.6100 F   0  0  0  0  0  0  0  0  0  0  0  0
  189.3150  177.5400  146.8910 N   0  0  0  0  0  2  0  0  0  0  0  0
  188.8350  175.5160  145.5790 C   0  0  2  0  0  3  0  0  0  0  0  0
  185.6160  177.3290  146.4030 C   0  0  0  0  0  3  0  0  0  0  0  0
  187.4520  177.6010  141.1470 C   0  0  0  0  0  3  0  0  0  0  0  0
  187.9170  177.8150  147.0040 C   0  0  0  0  0  0  0  0  0  0  0  0
  187.4700  178.7490  147.9430 C   0  0  0  0  0  3  0  0  0  0  0  0
  189.3250  174.6140  144.5300 N   0  0  0  0  0  2  0  0  0  0  0  0
  188.4350  176.2290  142.8810 C   0  0  0  0  0  0  0  0  0  0  0  0
  188.4490  176.7200  141.5730 C   0  0  0  0  0  3  0  0  0  0  0  0
  192.3200  176.7610  144.4670 O   0  0  0  0  0  0  0  0  0  0  0  0
  192.3120  176.1720  145.5830 C   0  0  0  0  0  0  0  0  0  0  0  0
  191.1030  176.0650  146.3350 N   0  0  0  0  0  2  0  0  0  0  0  0
  195.9950  175.3660  144.4010 C   0  0  1  0  0  3  0  0  0  0  0  0
  194.7120  176.6000  146.1320 C   0  0  0  0  0  2  0  0  0  0  0  0
  193.2540  173.2670  145.5970 O   0  0  0  0  0  0  0  0  0  0  0  0
  196.5930  175.4290  143.0120 C   0  0  0  0  0  1  0  0  0  0  0  0
  195.3650  176.7060  144.7580 C   0  0  0  0  0  2  0  0  0  0  0  0
  193.9360  174.3090  145.4130 C   0  0  0  0  0  0  0  0  0  0  0  0
  193.5700  175.5770  146.1360 C   0  0  2  0  0  3  0  0  0  0  0  0
  195.0060  174.2950  144.4630 N   0  0  0  0  0  2  0  0  0  0  0  0
  1  9  1  0  0  0  0
  1  6  1  0  0  0  0
  2  3  1  6  0  0  0
  2 13  1  0  0  0  0
  2  5  1  0  0  0  0
  4  7  2  0  0  0  0
  5 14  1  0  0  0  0
  5 16  2  0  0  0  0
  7  3  1  0  0  0  0
  8 23  1  1  0  0  0
  8 12  1  0  0  0  0
 10 18  1  0  0  0  0
 11  4  1  0  0  0  0
 12 16  1  0  0  0  0
 13 18  1  6  0  0  0
 13  8  1  0  0  0  0
 14  1  2  0  0  0  0
 15 20  2  0  0  0  0
 15  4  1  0  0  0  0
 16 17  1  0  0  0  0
 17  6  2  0  0  0  0
 19 10  1  0  0  0  0
 19  3  2  0  0  0  0
 20 19  1  0  0  0  0
 21 22  2  0  0  0  0
 22 23  1  0  0  0  0
 24 27  1  6  0  0  0
 24 31  1  0  0  0  0
 24 28  1  0  0  0  0
 25 30  1  0  0  0  0
 28 25  1  0  0  0  0
 29 26  2  0  0  0  0
 29 30  1  0  0  0  0
 30 22  1  6  0  0  0
 31 29  1  0  0  0  0
M  END
>  <MODEL>
3

>  <REMARK>
 VINA RESULT:      -8.9      1.185      4.034
  Name = 
  2 active torsions:
  status: ('A' for Active; 'I' for Inactive)
    1  A    between atoms: C_5  and  C_30
    2  A    between atoms: C_10  and  N_16
                            x       y       z     vdW  Elec       q    Type
                         _______ _______ _______ _____ _____    ______ ____

>  <TORSDO>
F 2

$$$$
=
 OpenBabel11112417063D

 31 35  0  0  1  0  0  0  0  0999 V2000
  194.5910  176.5830  145.1050 C   0  0  0  0  0  0  0  0  0  0  0  0
  191.2360  176.5750  143.3080 C   0  0  2  0  0  3  0  0  0  0  0  0
  191.0870  175.2480  142.5880 C   0  0  0  0  0  0  0  0  0  0  0  0
  192.0330  173.2210  141.6370 C   0  0  0  0  0  0  0  0  0  0  0  0
  192.2660  176.5340  144.4110 C   0  0  0  0  0  0  0  0  0  0  0  0
  194.1990  176.4300  146.4380 C   0  0  0  0  0  3  0  0  0  0  0  0
  192.1950  174.4290  142.3210 C   0  0  0  0  0  3  0  0  0  0  0  0
  189.4380  176.3140  145.0920 C   0  0  2  0  0  3  0  0  0  0  0  0
  195.9050  176.6800  144.7930 F   0  0  0  0  0  0  0  0  0  0  0  0
  188.6930  175.7050  142.3520 N   0  0  0  0  0  2  0  0  0  0  0  0
  193.1070  172.4320  141.3940 F   0  0  0  0  0  0  0  0  0  0  0  0
  190.4890  176.3480  146.1050 N   0  0  0  0  0  2  0  0  0  0  0  0
  189.8770  177.0890  143.8410 C   0  0  2  0  0  3  0  0  0  0  0  0
  193.6270  176.6380  144.0950 C   0  0  0  0  0  3  0  0  0  0  0  0
  190.7640  172.8260  141.2070 C   0  0  0  0  0  3  0  0  0  0  0  0
  191.8760  176.3810  145.7560 C   0  0  0  0  0  0  0  0  0  0  0  0
  192.8430  176.3340  146.7640 C   0  0  0  0  0  3  0  0  0  0  0  0
  188.8540  177.0360  142.7900 N   0  0  0  0  0  2  0  0  0  0  0  0
  189.8210  174.8610  142.1150 C   0  0  0  0  0  0  0  0  0  0  0  0
  189.6580  173.6460  141.4450 C   0  0  0  0  0  3  0  0  0  0  0  0
  188.0140  175.3180  147.3520 O   0  0  0  0  0  0  0  0  0  0  0  0
  187.5560  176.3440  146.7790 C   0  0  0  0  0  0  0  0  0  0  0  0
  188.2160  176.8890  145.6350 N   0  0  0  0  0  2  0  0  0  0  0  0
  184.8840  178.9940  145.5750 C   0  0  1  0  0  3  0  0  0  0  0  0
  185.1060  176.6660  146.4100 C   0  0  0  0  0  2  0  0  0  0  0  0
  187.2380  178.9330  148.3680 O   0  0  0  0  0  0  0  0  0  0  0  0
  184.9000  179.8860  144.3520 C   0  0  0  0  0  1  0  0  0  0  0  0
  185.0580  177.5390  145.1600 C   0  0  0  0  0  2  0  0  0  0  0  0
  186.5120  178.4900  147.4400 C   0  0  0  0  0  0  0  0  0  0  0  0
  186.3140  177.0070  147.2890 C   0  0  2  0  0  3  0  0  0  0  0  0
  185.9410  179.4010  146.4940 N   0  0  0  0  0  2  0  0  0  0  0  0
  1  6  1  0  0  0  0
  2  3  1  1  0  0  0
  2 13  1  0  0  0  0
  2  5  1  0  0  0  0
  4  7  2  0  0  0  0
  5 16  2  0  0  0  0
  6 17  2  0  0  0  0
  7  3  1  0  0  0  0
  8 23  1  1  0  0  0
  8 12  1  0  0  0  0
  9  1  1  0  0  0  0
 10 18  1  0  0  0  0
 11  4  1  0  0  0  0
 13 18  1  6  0  0  0
 13  8  1  0  0  0  0
 14  5  1  0  0  0  0
 14  1  2  0  0  0  0
 15 20  2  0  0  0  0
 15  4  1  0  0  0  0
 16 12  1  0  0  0  0
 16 17  1  0  0  0  0
 19 10  1  0  0  0  0
 19  3  2  0  0  0  0
 20 19  1  0  0  0  0
 22 21  2  0  0  0  0
 23 22  1  0  0  0  0
 24 27  1  6  0  0  0
 24 31  1  0  0  0  0
 25 30  1  0  0  0  0
 28 24  1  0  0  0  0
 28 25  1  0  0  0  0
 29 26  2  0  0  0  0
 30 22  1  6  0  0  0
 30 29  1  0  0  0  0
 31 29  1  0  0  0  0
M  END
>  <MODEL>
4

>  <REMARK>
 VINA RESULT:      -8.9      3.711      7.767
  Name = 
  2 active torsions:
  status: ('A' for Active; 'I' for Inactive)
    1  A    between atoms: C_5  and  C_30
    2  A    between atoms: C_10  and  N_16
                            x       y       z     vdW  Elec       q    Type
                         _______ _______ _______ _____ _____    ______ ____

>  <TORSDO>
F 2

$$$$
=
 OpenBabel11112417063D

 31 35  0  0  1  0  0  0  0  0999 V2000
  184.9060  177.7920  146.5680 C   0  0  0  0  0  0  0  0  0  0  0  0
  186.8080  176.0140  143.7920 C   0  0  2  0  0  3  0  0  0  0  0  0
  186.4920  176.7080  142.4800 C   0  0  0  0  0  0  0  0  0  0  0  0
  185.0890  178.1520  141.1170 C   0  0  0  0  0  0  0  0  0  0  0  0
  186.5120  176.8720  144.9980 C   0  0  0  0  0  0  0  0  0  0  0  0
  185.9320  178.4840  147.2180 C   0  0  0  0  0  3  0  0  0  0  0  0
  185.3710  177.5410  142.3420 C   0  0  0  0  0  3  0  0  0  0  0  0
  189.2610  176.6490  144.0470 C   0  0  2  0  0  3  0  0  0  0  0  0
  183.6310  177.9020  147.0100 F   0  0  0  0  0  0  0  0  0  0  0  0
  188.4220  175.5820  141.4800 N   0  0  0  0  0  2  0  0  0  0  0  0
  184.0120  178.9630  140.9970 F   0  0  0  0  0  0  0  0  0  0  0  0
  188.9030  177.4060  145.2430 N   0  0  0  0  0  2  0  0  0  0  0  0
  188.2670  175.4990  143.8260 C   0  0  2  0  0  3  0  0  0  0  0  0
  185.1960  176.9870  145.4630 C   0  0  0  0  0  3  0  0  0  0  0  0
  185.9210  177.9270  140.0170 C   0  0  0  0  0  3  0  0  0  0  0  0
  187.5440  177.5700  145.6570 C   0  0  0  0  0  0  0  0  0  0  0  0
  187.2500  178.3680  146.7660 C   0  0  0  0  0  3  0  0  0  0  0  0
  188.5800  174.7470  142.6050 N   0  0  0  0  0  2  0  0  0  0  0  0
  187.2980  176.4560  141.3580 C   0  0  0  0  0  0  0  0  0  0  0  0
  187.0250  177.0790  140.1370 C   0  0  0  0  0  3  0  0  0  0  0  0
  190.0300  174.5110  145.7680 O   0  0  0  0  0  0  0  0  0  0  0  0
  190.9290  175.0440  145.0610 C   0  0  0  0  0  0  0  0  0  0  0  0
  190.6120  176.1260  144.1840 N   0  0  0  0  0  2  0  0  0  0  0  0
  194.5610  176.4770  145.6640 C   0  0  1  0  0  3  0  0  0  0  0  0
  192.9440  174.7960  146.5160 C   0  0  0  0  0  2  0  0  0  0  0  0
  193.0050  174.7590  142.8400 O   0  0  0  0  0  0  0  0  0  0  0  0
  195.0240  177.9160  145.7500 C   0  0  0  0  0  1  0  0  0  0  0  0
  193.4400  176.2310  146.6650 C   0  0  0  0  0  2  0  0  0  0  0  0
  193.1770  175.1400  144.0270 C   0  0  0  0  0  0  0  0  0  0  0  0
  192.3400  174.5500  145.1290 C   0  0  2  0  0  3  0  0  0  0  0  0
  194.1180  176.1830  144.3050 N   0  0  0  0  0  2  0  0  0  0  0  0
  1  9  1  0  0  0  0
  1  6  1  0  0  0  0
  2  3  1  6  0  0  0
  2 13  1  0  0  0  0
  2  5  1  0  0  0  0
  4  7  2  0  0  0  0
  5 14  1  0  0  0  0
  5 16  2  0  0  0  0
  7  3  1  0  0  0  0
  8 23  1  1  0  0  0
  8 12  1  0  0  0  0
 10 18  1  0  0  0  0
 11  4  1  0  0  0  0
 12 16  1  0  0  0  0
 13 18  1  6  0  0  0
 13  8  1  0  0  0  0
 14  1  2  0  0  0  0
 15 20  2  0  0  0  0
 15  4  1  0  0  0  0
 16 17  1  0  0  0  0
 17  6  2  0  0  0  0
 19 10  1  0  0  0  0
 19  3  2  0  0  0  0
 20 19  1  0  0  0  0
 22 21  2  0  0  0  0
 23 22  1  0  0  0  0
 24 27  1  6  0  0  0
 24 28  1  0  0  0  0
 25 28  1  0  0  0  0
 26 29  2  0  0  0  0
 29 31  1  0  0  0  0
 29 30  1  0  0  0  0
 30 22  1  1  0  0  0
 30 25  1  0  0  0  0
 31 24  1  0  0  0  0
M  END
>  <MODEL>
5

>  <REMARK>
 VINA RESULT:      -8.7      1.588      4.188
  Name = 
  2 active torsions:
  status: ('A' for Active; 'I' for Inactive)
    1  A    between atoms: C_5  and  C_30
    2  A    between atoms: C_10  and  N_16
                            x       y       z     vdW  Elec       q    Type
                         _______ _______ _______ _____ _____    ______ ____

>  <TORSDO>
F 2

$$$$
=
 OpenBabel11112417063D

 31 35  0  0  1  0  0  0  0  0999 V2000
  185.8290  178.2790  140.8390 C   0  0  0  0  0  0  0  0  0  0  0  0
  188.2520  178.1490  143.7710 C   0  0  2  0  0  3  0  0  0  0  0  0
  187.4950  177.6590  144.9910 C   0  0  0  0  0  0  0  0  0  0  0  0
  185.4190  177.2630  146.1940 C   0  0  0  0  0  0  0  0  0  0  0  0
  187.5610  177.8080  142.4730 C   0  0  0  0  0  0  0  0  0  0  0  0
  186.2400  177.1790  140.0810 C   0  0  0  0  0  3  0  0  0  0  0  0
  186.0930  177.7000  145.0490 C   0  0  0  0  0  3  0  0  0  0  0  0
  189.7880  176.1550  143.3770 C   0  0  2  0  0  3  0  0  0  0  0  0
  184.7920  179.0410  140.4180 F   0  0  0  0  0  0  0  0  0  0  0  0
  189.6420  177.2100  146.0790 N   0  0  0  0  0  2  0  0  0  0  0  0
  184.0660  177.2940  146.2360 F   0  0  0  0  0  0  0  0  0  0  0  0
  189.1100  175.9310  142.1040 N   0  0  0  0  0  2  0  0  0  0  0  0
  189.7140  177.6390  143.7670 C   0  0  2  0  0  3  0  0  0  0  0  0
  186.4890  178.5950  142.0300 C   0  0  0  0  0  3  0  0  0  0  0  0
  186.1420  176.7910  147.2930 C   0  0  0  0  0  3  0  0  0  0  0  0
  187.9730  176.7000  141.7060 C   0  0  0  0  0  0  0  0  0  0  0  0
  187.3140  176.3940  140.5120 C   0  0  0  0  0  3  0  0  0  0  0  0
  190.3520  177.8850  145.0660 N   0  0  0  0  0  2  0  0  0  0  0  0
  188.2130  177.2220  146.1170 C   0  0  0  0  0  0  0  0  0  0  0  0
  187.5390  176.7710  147.2550 C   0  0  0  0  0  3  0  0  0  0  0  0
  190.9790  174.0410  144.8740 O   0  0  0  0  0  0  0  0  0  0  0  0
  191.7090  174.6570  144.0490 C   0  0  0  0  0  0  0  0  0  0  0  0
  191.1770  175.7320  143.2750 N   0  0  0  0  0  2  0  0  0  0  0  0
  193.9540  171.4080  144.1730 C   0  0  1  0  0  3  0  0  0  0  0  0
  193.3090  173.2960  142.6960 C   0  0  0  0  0  2  0  0  0  0  0  0
  193.9620  174.5090  146.1050 O   0  0  0  0  0  0  0  0  0  0  0  0
  193.5970  170.0120  144.6390 C   0  0  0  0  0  1  0  0  0  0  0  0
  192.9730  171.8650  143.1020 C   0  0  0  0  0  2  0  0  0  0  0  0
  193.7250  173.7280  145.1470 C   0  0  0  0  0  0  0  0  0  0  0  0
  193.1440  174.2690  143.8690 C   0  0  2  0  0  3  0  0  0  0  0  0
  193.9440  172.3220  145.3110 N   0  0  0  0  0  2  0  0  0  0  0  0
  1 14  1  0  0  0  0
  2  5  1  6  0  0  0
  2  3  1  0  0  0  0
  3  7  2  0  0  0  0
  3 19  1  0  0  0  0
  4 11  1  0  0  0  0
  4 15  2  0  0  0  0
  6 17  1  0  0  0  0
  6  1  2  0  0  0  0
  7  4  1  0  0  0  0
  8 23  1  6  0  0  0
  8 13  1  0  0  0  0
  9  1  1  0  0  0  0
 10 19  1  0  0  0  0
 12  8  1  0  0  0  0
 13  2  1  0  0  0  0
 13 18  1  1  0  0  0
 14  5  2  0  0  0  0
 16 12  1  0  0  0  0
 16  5  1  0  0  0  0
 17 16  2  0  0  0  0
 18 10  1  0  0  0  0
 19 20  2  0  0  0  0
 20 15  1  0  0  0  0
 22 21  2  0  0  0  0
 23 22  1  0  0  0  0
 24 27  1  1  0  0  0
 24 31  1  0  0  0  0
 25 28  1  0  0  0  0
 25 30  1  0  0  0  0
 28 24  1  0  0  0  0
 29 31  1  0  0  0  0
 29 26  2  0  0  0  0
 30 22  1  1  0  0  0
 30 29  1  0  0  0  0
M  END
>  <MODEL>
6

>  <REMARK>
 VINA RESULT:      -8.6      1.683      2.392
  Name = 
  2 active torsions:
  status: ('A' for Active; 'I' for Inactive)
    1  A    between atoms: C_5  and  C_30
    2  A    between atoms: C_10  and  N_16
                            x       y       z     vdW  Elec       q    Type
                         _______ _______ _______ _____ _____    ______ ____

>  <TORSDO>
F 2

$$$$
=
 OpenBabel11112417063D

 31 35  0  0  1  0  0  0  0  0999 V2000
  191.9080  172.9680  141.5680 C   0  0  0  0  0  0  0  0  0  0  0  0
  191.4670  174.0900  145.1780 C   0  0  2  0  0  3  0  0  0  0  0  0
  192.5700  175.0790  145.5060 C   0  0  0  0  0  0  0  0  0  0  0  0
  194.7460  176.0690  145.0620 C   0  0  0  0  0  0  0  0  0  0  0  0
  191.2410  173.9310  143.6940 C   0  0  0  0  0  0  0  0  0  0  0  0
  190.8620  173.6420  140.9310 C   0  0  0  0  0  3  0  0  0  0  0  0
  193.7340  175.1640  144.7270 C   0  0  0  0  0  3  0  0  0  0  0  0
  189.4510  175.6450  145.2320 C   0  0  2  0  0  3  0  0  0  0  0  0
  192.7400  172.1770  140.8500 F   0  0  0  0  0  0  0  0  0  0  0  0
  191.2910  175.7740  147.4750 N   0  0  0  0  0  2  0  0  0  0  0  0
  195.8600  176.1530  144.2970 F   0  0  0  0  0  0  0  0  0  0  0  0
  189.2610  175.3880  143.8070 N   0  0  0  0  0  2  0  0  0  0  0  0
  190.1470  174.4510  145.9010 C   0  0  2  0  0  3  0  0  0  0  0  0
  192.0950  173.1100  142.9460 C   0  0  0  0  0  3  0  0  0  0  0  0
  194.6050  176.8890  146.1850 C   0  0  0  0  0  3  0  0  0  0  0  0
  190.1870  174.6070  143.0480 C   0  0  0  0  0  0  0  0  0  0  0  0
  189.9990  174.4560  141.6710 C   0  0  0  0  0  3  0  0  0  0  0  0
  190.3880  174.7010  147.3270 N   0  0  0  0  0  2  0  0  0  0  0  0
  192.4570  175.8790  146.6560 C   0  0  0  0  0  0  0  0  0  0  0  0
  193.4620  176.7940  146.9820 C   0  0  0  0  0  3  0  0  0  0  0  0
  188.8590  177.8300  146.9650 O   0  0  0  0  0  0  0  0  0  0  0  0
  187.9290  177.0140  146.7140 C   0  0  0  0  0  0  0  0  0  0  0  0
  188.1620  175.8930  145.8610 N   0  0  0  0  0  2  0  0  0  0  0  0
  184.4600  178.6330  145.7370 C   0  0  1  0  0  3  0  0  0  0  0  0
  185.4960  176.5000  146.4730 C   0  0  0  0  0  2  0  0  0  0  0  0
  186.8540  179.3140  148.4120 O   0  0  0  0  0  0  0  0  0  0  0  0
  184.1070  179.5020  144.5490 C   0  0  0  0  0  1  0  0  0  0  0  0
  185.0880  177.3300  145.2600 C   0  0  0  0  0  2  0  0  0  0  0  0
  186.2660  178.6710  147.5030 C   0  0  0  0  0  0  0  0  0  0  0  0
  186.5680  177.2100  147.3070 C   0  0  2  0  0  3  0  0  0  0  0  0
  185.3700  179.3550  146.6210 N   0  0  0  0  0  2  0  0  0  0  0  0
  1 14  1  0  0  0  0
  2  5  1  6  0  0  0
  2  3  1  0  0  0  0
  2 13  1  0  0  0  0
  3 19  1  0  0  0  0
  4 15  2  0  0  0  0
  6  1  2  0  0  0  0
  6 17  1  0  0  0  0
  7  4  1  0  0  0  0
  7  3  2  0  0  0  0
  8 23  1  1  0  0  0
  8 13  1  0  0  0  0
  9  1  1  0  0  0  0
 11  4  1  0  0  0  0
 12  8  1  0  0  0  0
 13 18  1  1  0  0  0
 14  5  2  0  0  0  0
 15 20  1  0  0  0  0
 16  5  1  0  0  0  0
 16 12  1  0  0  0  0
 17 16  2  0  0  0  0
 18 10  1  0  0  0  0
 19 20  2  0  0  0  0
 19 10  1  0  0  0  0
 22 21  2  0  0  0  0
 23 22  1  0  0  0  0
 24 27  1  6  0  0  0
 24 31  1  0  0  0  0
 25 30  1  0  0  0  0
 28 24  1  0  0  0  0
 28 25  1  0  0  0  0
 29 26  2  0  0  0  0
 30 22  1  6  0  0  0
 30 29  1  0  0  0  0
 31 29  1  0  0  0  0
M  END
>  <MODEL>
7

>  <REMARK>
 VINA RESULT:      -8.5      3.753      7.460
  Name = 
  2 active torsions:
  status: ('A' for Active; 'I' for Inactive)
    1  A    between atoms: C_5  and  C_30
    2  A    between atoms: C_10  and  N_16
                            x       y       z     vdW  Elec       q    Type
                         _______ _______ _______ _____ _____    ______ ____

>  <TORSDO>
F 2

$$$$
=
 OpenBabel11112417063D

 31 35  0  0  1  0  0  0  0  0999 V2000
  185.8020  178.2470  140.9050 C   0  0  0  0  0  0  0  0  0  0  0  0
  188.3470  178.0430  143.7270 C   0  0  2  0  0  3  0  0  0  0  0  0
  187.6440  177.5110  144.9620 C   0  0  0  0  0  0  0  0  0  0  0  0
  185.6240  177.0620  146.2380 C   0  0  0  0  0  0  0  0  0  0  0  0
  187.6040  177.7380  142.4490 C   0  0  0  0  0  0  0  0  0  0  0  0
  186.1870  177.1740  140.0960 C   0  0  0  0  0  3  0  0  0  0  0  0
  186.2460  177.5390  145.0800 C   0  0  0  0  0  3  0  0  0  0  0  0
  189.8760  176.0740  143.2070 C   0  0  2  0  0  3  0  0  0  0  0  0
  184.7430  179.0140  140.5520 F   0  0  0  0  0  0  0  0  0  0  0  0
  189.8380  177.0430  145.9450 N   0  0  0  0  0  2  0  0  0  0  0  0
  184.2730  177.0820  146.3370 F   0  0  0  0  0  0  0  0  0  0  0  0
  189.1470  175.8850  141.9570 N   0  0  0  0  0  2  0  0  0  0  0  0
  189.8100  177.5450  143.6460 C   0  0  2  0  0  3  0  0  0  0  0  0
  186.5100  178.5300  142.0760 C   0  0  0  0  0  3  0  0  0  0  0  0
  186.3950  176.5620  147.2900 C   0  0  0  0  0  3  0  0  0  0  0  0
  187.9890  176.6580  141.6310 C   0  0  0  0  0  0  0  0  0  0  0  0
  187.2820  176.3840  140.4570 C   0  0  0  0  0  3  0  0  0  0  0  0
  190.5010  177.7550  144.9240 N   0  0  0  0  0  2  0  0  0  0  0  0
  188.4120  177.0430  146.0420 C   0  0  0  0  0  0  0  0  0  0  0  0
  187.7890  176.5530  147.1930 C   0  0  0  0  0  3  0  0  0  0  0  0
  190.7360  173.4790  142.3990 O   0  0  0  0  0  0  0  0  0  0  0  0
  191.6250  174.3480  142.6160 C   0  0  0  0  0  0  0  0  0  0  0  0
  191.2620  175.6650  143.0330 N   0  0  0  0  0  2  0  0  0  0  0  0
  194.9920  174.5010  144.6780 C   0  0  1  0  0  3  0  0  0  0  0  0
  193.5150  172.9370  143.4390 C   0  0  0  0  0  2  0  0  0  0  0  0
  193.9140  176.0720  141.5610 O   0  0  0  0  0  0  0  0  0  0  0  0
  195.2710  175.1570  146.0140 C   0  0  0  0  0  1  0  0  0  0  0  0
  193.8210  173.5350  144.8080 C   0  0  0  0  0  2  0  0  0  0  0  0
  193.9300  175.2450  142.5100 C   0  0  0  0  0  0  0  0  0  0  0  0
  193.0730  174.0110  142.4400 C   0  0  2  0  0  3  0  0  0  0  0  0
  194.7110  175.5250  143.6770 N   0  0  0  0  0  2  0  0  0  0  0  0
  1 14  1  0  0  0  0
  2  5  1  6  0  0  0
  2  3  1  0  0  0  0
  3  7  2  0  0  0  0
  3 19  1  0  0  0  0
  4 11  1  0  0  0  0
  4 15  2  0  0  0  0
  6 17  1  0  0  0  0
  6  1  2  0  0  0  0
  7  4  1  0  0  0  0
  8 23  1  6  0  0  0
  8 13  1  0  0  0  0
  9  1  1  0  0  0  0
 10 19  1  0  0  0  0
 12  8  1  0  0  0  0
 13  2  1  0  0  0  0
 13 18  1  1  0  0  0
 14  5  2  0  0  0  0
 16 12  1  0  0  0  0
 16  5  1  0  0  0  0
 17 16  2  0  0  0  0
 18 10  1  0  0  0  0
 19 20  2  0  0  0  0
 20 15  1  0  0  0  0
 21 22  2  0  0  0  0
 22 23  1  0  0  0  0
 24 28  1  0  0  0  0
 24 27  1  1  0  0  0
 25 28  1  0  0  0  0
 26 29  2  0  0  0  0
 29 31  1  0  0  0  0
 30 29  1  0  0  0  0
 30 22  1  1  0  0  0
 30 25  1  0  0  0  0
 31 24  1  0  0  0  0
M  END
>  <MODEL>
8

>  <REMARK>
 VINA RESULT:      -8.4      1.730      2.224
  Name = 
  2 active torsions:
  status: ('A' for Active; 'I' for Inactive)
    1  A    between atoms: C_5  and  C_30
    2  A    between atoms: C_10  and  N_16
                            x       y       z     vdW  Elec       q    Type
                         _______ _______ _______ _____ _____    ______ ____

>  <TORSDO>
F 2

$$$$
=
 OpenBabel11112417063D

 31 35  0  0  1  0  0  0  0  0999 V2000
  185.8970  179.2510  143.5160 C   0  0  0  0  0  0  0  0  0  0  0  0
  188.9010  176.9160  143.4350 C   0  0  2  0  0  3  0  0  0  0  0  0
  188.8920  176.0870  144.7050 C   0  0  0  0  0  0  0  0  0  0  0  0
  188.1760  175.7080  146.9980 C   0  0  0  0  0  0  0  0  0  0  0  0
  187.5560  177.5250  143.1190 C   0  0  0  0  0  0  0  0  0  0  0  0
  185.0500  178.6590  142.5750 C   0  0  0  0  0  3  0  0  0  0  0  0
  188.1510  176.4780  145.8310 C   0  0  0  0  0  3  0  0  0  0  0  0
  188.3860  175.1030  141.7220 C   0  0  2  0  0  3  0  0  0  0  0  0
  185.5050  180.3730  144.1660 F   0  0  0  0  0  0  0  0  0  0  0  0
  190.4840  174.5530  143.6530 N   0  0  0  0  0  2  0  0  0  0  0  0
  187.4480  176.0870  148.0750 F   0  0  0  0  0  0  0  0  0  0  0  0
  187.1310  175.7890  141.4280 N   0  0  0  0  0  2  0  0  0  0  0  0
  189.4340  176.1040  142.2300 C   0  0  2  0  0  3  0  0  0  0  0  0
  187.1470  178.6880  143.7850 C   0  0  0  0  0  3  0  0  0  0  0  0
  188.9500  174.5460  147.0510 C   0  0  0  0  0  3  0  0  0  0  0  0
  186.7000  176.9320  142.1700 C   0  0  0  0  0  0  0  0  0  0  0  0
  185.4540  177.5030  141.8990 C   0  0  0  0  0  3  0  0  0  0  0  0
  190.6940  175.4340  142.5730 N   0  0  0  0  0  2  0  0  0  0  0  0
  189.6990  174.9400  144.7830 C   0  0  0  0  0  0  0  0  0  0  0  0
  189.7120  174.1620  145.9440 C   0  0  0  0  0  3  0  0  0  0  0  0
  188.8260  172.2980  141.4700 O   0  0  0  0  0  0  0  0  0  0  0  0
  189.0610  173.0190  140.4620 C   0  0  0  0  0  0  0  0  0  0  0  0
  188.8710  174.4330  140.5240 N   0  0  0  0  0  2  0  0  0  0  0  0
  192.0210  173.4470  137.8800 C   0  0  1  0  0  3  0  0  0  0  0  0
  190.9320  171.7800  139.3630 C   0  0  0  0  0  2  0  0  0  0  0  0
  188.3930  173.7450  137.5720 O   0  0  0  0  0  0  0  0  0  0  0  0
  193.0650  174.5400  137.7880 C   0  0  0  0  0  1  0  0  0  0  0  0
  192.0340  172.8310  139.2720 C   0  0  0  0  0  2  0  0  0  0  0  0
  189.5010  173.3940  138.0540 C   0  0  0  0  0  0  0  0  0  0  0  0
  189.5430  172.4030  139.1850 C   0  0  2  0  0  3  0  0  0  0  0  0
  190.7060  173.9960  137.5670 N   0  0  0  0  0  2  0  0  0  0  0  0
  1 14  1  0  0  0  0
  1  9  1  0  0  0  0
  2  5  1  6  0  0  0
  2  3  1  0  0  0  0
  3 19  2  0  0  0  0
  3  7  1  0  0  0  0
  4 15  1  0  0  0  0
  4 11  1  0  0  0  0
  5 14  2  0  0  0  0
  6  1  2  0  0  0  0
  7  4  2  0  0  0  0
  8 23  1  6  0  0  0
  8 13  1  0  0  0  0
 10 19  1  0  0  0  0
 12  8  1  0  0  0  0
 12 16  1  0  0  0  0
 13 18  1  1  0  0  0
 13  2  1  0  0  0  0
 16  5  1  0  0  0  0
 17 16  2  0  0  0  0
 17  6  1  0  0  0  0
 18 10  1  0  0  0  0
 19 20  1  0  0  0  0
 20 15  2  0  0  0  0
 22 23  1  0  0  0  0
 22 21  2  0  0  0  0
 24 27  1  1  0  0  0
 24 28  1  0  0  0  0
 26 29  2  0  0  0  0
 28 25  1  0  0  0  0
 29 30  1  0  0  0  0
 30 25  1  0  0  0  0
 30 22  1  1  0  0  0
 31 24  1  0  0  0  0
 31 29  1  0  0  0  0
M  END
>  <MODEL>
9

>  <REMARK>
 VINA RESULT:      -8.3      3.628      5.328
  Name = 
  2 active torsions:
  status: ('A' for Active; 'I' for Inactive)
    1  A    between atoms: C_5  and  C_30
    2  A    between atoms: C_10  and  N_16
                            x       y       z     vdW  Elec       q    Type
                         _______ _______ _______ _____ _____    ______ ____

>  <TORSDO>
F 2

$$$$
