=
 OpenBabel11112416323D

 32 37  0  0  1  0  0  0  0  0999 V2000
  185.9820  178.5660  141.5900 O   0  0  0  0  0  0  0  0  0  0  0  0
  189.9500  176.0510  143.6180 N   0  0  1  0  0  0  0  0  0  0  0  0
  190.3880  177.5480  148.2920 C   0  0  0  0  0  3  0  0  0  0  0  0
  191.6200  176.8990  148.3760 C   0  0  0  0  0  3  0  0  0  0  0  0
  192.0000  175.1990  142.4400 C   0  0  0  0  0  0  0  0  0  0  0  0
  193.4960  175.0680  142.3580 C   0  0  1  0  0  3  0  0  0  0  0  0
  187.8530  176.2970  142.3890 C   0  0  1  0  0  3  0  0  0  0  0  0
  187.9740  176.9430  144.8020 C   0  0  0  0  0  2  0  0  0  0  0  0
  195.5160  175.4010  143.4510 C   0  0  2  0  0  3  0  0  0  0  0  0
  185.7780  177.2150  143.5780 C   0  0  0  0  0  2  0  0  0  0  0  0
  189.6980  177.5770  147.0790 C   0  0  0  0  0  3  0  0  0  0  0  0
  189.4970  177.0480  144.6160 C   0  0  1  0  0  3  0  0  0  0  0  0
  190.2240  176.9480  145.9390 C   0  0  0  0  0  0  0  0  0  0  0  0
  192.0700  175.6450  144.8150 C   0  0  2  0  0  3  0  0  0  0  0  0
  195.5640  176.1900  142.1480 C   0  0  0  0  0  2  0  0  0  0  0  0
  186.7290  177.8610  140.6110 C   0  0  0  0  0  2  0  0  0  0  0  0
  187.3030  177.2350  143.4690 C   0  0  2  0  0  3  0  0  0  0  0  0
  194.1480  176.2150  141.6280 C   0  0  0  0  0  2  0  0  0  0  0  0
  187.2090  176.4420  141.0010 C   0  0  0  0  0  2  0  0  0  0  0  0
  185.1260  177.6760  142.2690 C   0  0  1  0  0  3  0  0  0  0  0  0
  192.1680  176.2960  147.2430 C   0  0  0  0  0  3  0  0  0  0  0  0
  191.4970  176.3480  146.0120 C   0  0  0  0  0  0  0  0  0  0  0  0
  193.5800  175.8500  144.6800 C   0  0  0  0  0  2  0  0  0  0  0  0
  189.3660  176.4570  142.3300 C   0  0  0  0  0  2  0  0  0  0  0  0
  191.2950  174.5590  141.6760 O   0  0  0  0  0  0  0  0  0  0  0  0
  196.3730  174.3030  143.3640 O   0  0  0  0  0  1  0  0  0  0  0  0
  191.4200  176.1000  143.5080 C   0  0  2  0  0  3  0  0  0  0  0  0
  194.1490  174.9390  143.6730 N   0  0  1  0  0  0  0  0  0  0  0  0
  183.7970  178.3470  142.5710 C   0  0  0  0  0  2  0  0  0  0  0  0
  182.8460  178.1550  141.4400 C   0  0  0  0  0  0  0  0  0  0  0  0
  181.6080  178.2670  141.6340 O   0  0  0  0  0  1  0  0  0  0  0  0
  183.3280  177.8870  140.1660 O   0  0  0  0  0  0  0  0  0  0  0  0
  1 20  1  0  0  0  0
  2 24  1  6  0  0  0
  2 12  1  0  0  0  0
  3  4  1  0  0  0  0
  6 18  1  1  0  0  0
  6  5  1  0  0  0  0
  6 28  1  0  0  0  0
  7 19  1  6  0  0  0
  7 17  1  0  0  0  0
  9 26  1  6  0  0  0
  9 28  1  0  0  0  0
 11  3  2  0  0  0  0
 12  8  1  1  0  0  0
 12 13  1  0  0  0  0
 13 22  2  0  0  0  0
 13 11  1  0  0  0  0
 14 23  1  6  0  0  0
 14 22  1  0  0  0  0
 15  9  1  0  0  0  0
 16 19  1  0  0  0  0
 16  1  1  0  0  0  0
 17 10  1  1  0  0  0
 17  8  1  0  0  0  0
 18 15  1  0  0  0  0
 20 29  1  1  0  0  0
 20 10  1  0  0  0  0
 21  4  2  0  0  0  0
 22 21  1  0  0  0  0
 24  7  1  0  0  0  0
 25  5  2  0  0  0  0
 27  5  1  6  0  0  0
 27  2  1  0  0  0  0
 27 14  1  0  0  0  0
 28 23  1  1  0  0  0
 30 31  1  0  0  0  0
 30 29  1  0  0  0  0
 32 30  2  0  0  0  0
M  END
>  <MODEL>
1

>  <REMARK>
 VINA RESULT:      -8.5      0.000      0.000
  Name = 
  2 active torsions:
  status: ('A' for Active; 'I' for Inactive)
    1  A    between atoms: C_20  and  C_29
    2  A    between atoms: C_29  and  C_30
                            x       y       z     vdW  Elec       q    Type
                         _______ _______ _______ _____ _____    ______ ____

>  <TORSDO>
F 2

$$$$
=
 OpenBabel11112416323D

 32 37  0  0  1  0  0  0  0  0999 V2000
  186.7620  178.6360  143.1180 O   0  0  0  0  0  0  0  0  0  0  0  0
  190.3140  174.9600  143.3630 N   0  0  1  0  0  0  0  0  0  0  0  0
  193.7550  176.4710  146.5500 C   0  0  0  0  0  3  0  0  0  0  0  0
  194.5780  175.4190  146.1480 C   0  0  0  0  0  3  0  0  0  0  0  0
  190.9830  173.3410  141.5620 C   0  0  0  0  0  0  0  0  0  0  0  0
  192.0530  172.6610  140.7530 C   0  0  1  0  0  3  0  0  0  0  0  0
  188.0540  175.8890  143.3880 C   0  0  1  0  0  3  0  0  0  0  0  0
  189.7160  176.5900  145.1210 C   0  0  0  0  0  2  0  0  0  0  0  0
  194.3310  172.2890  140.5060 C   0  0  2  0  0  3  0  0  0  0  0  0
  187.3900  177.5800  145.1940 C   0  0  0  0  0  2  0  0  0  0  0  0
  192.5300  176.6800  145.9130 C   0  0  0  0  0  3  0  0  0  0  0  0
  190.8090  176.1130  144.1510 C   0  0  1  0  0  3  0  0  0  0  0  0
  192.1080  175.8320  144.8760 C   0  0  0  0  0  0  0  0  0  0  0  0
  192.5290  173.8730  143.3430 C   0  0  2  0  0  3  0  0  0  0  0  0
  193.8270  172.9240  139.2160 C   0  0  0  0  0  2  0  0  0  0  0  0
  186.5830  177.6460  142.1170 C   0  0  0  0  0  2  0  0  0  0  0  0
  188.5070  177.0280  144.3090 C   0  0  2  0  0  3  0  0  0  0  0  0
  192.4430  173.4390  139.5210 C   0  0  0  0  0  2  0  0  0  0  0  0
  186.7950  176.1770  142.5550 C   0  0  0  0  0  2  0  0  0  0  0  0
  186.2560  178.1680  144.3470 C   0  0  1  0  0  3  0  0  0  0  0  0
  194.1830  174.5880  145.0980 C   0  0  0  0  0  3  0  0  0  0  0  0
  192.9680  174.8090  144.4310 C   0  0  0  0  0  0  0  0  0  0  0  0
  193.6700  173.4960  142.3950 C   0  0  0  0  0  2  0  0  0  0  0  0
  189.2290  175.4740  142.5130 C   0  0  0  0  0  2  0  0  0  0  0  0
  189.8260  172.9610  141.4730 O   0  0  0  0  0  0  0  0  0  0  0  0
  194.6450  170.9500  140.2770 O   0  0  0  0  0  1  0  0  0  0  0  0
  191.3960  174.4560  142.4980 C   0  0  2  0  0  3  0  0  0  0  0  0
  193.2810  172.3810  141.5170 N   0  0  1  0  0  0  0  0  0  0  0  0
  185.5870  179.3000  145.1090 C   0  0  0  0  0  2  0  0  0  0  0  0
  185.0700  178.8150  146.4190 C   0  0  0  0  0  0  0  0  0  0  0  0
  184.1290  177.9810  146.4540 O   0  0  0  0  0  0  0  0  0  0  0  0
  185.6490  179.2580  147.6010 O   0  0  0  0  0  1  0  0  0  0  0  0
  1 20  1  0  0  0  0
  2 24  1  6  0  0  0
  2 12  1  0  0  0  0
  4  3  1  0  0  0  0
  6 18  1  6  0  0  0
  6 28  1  0  0  0  0
  6  5  1  0  0  0  0
  7 24  1  6  0  0  0
  7 17  1  0  0  0  0
  9 26  1  6  0  0  0
  9 28  1  0  0  0  0
 11  3  2  0  0  0  0
 12 13  1  0  0  0  0
 12  8  1  1  0  0  0
 13 11  1  0  0  0  0
 14 23  1  6  0  0  0
 14 22  1  0  0  0  0
 15 18  1  0  0  0  0
 15  9  1  0  0  0  0
 16 19  1  0  0  0  0
 16  1  1  0  0  0  0
 17  8  1  1  0  0  0
 17 10  1  0  0  0  0
 19  7  1  0  0  0  0
 20 29  1  1  0  0  0
 20 10  1  0  0  0  0
 21  4  2  0  0  0  0
 22 13  2  0  0  0  0
 22 21  1  0  0  0  0
 25  5  2  0  0  0  0
 27  5  1  6  0  0  0
 27 14  1  0  0  0  0
 27  2  1  0  0  0  0
 28 23  1  1  0  0  0
 29 30  1  0  0  0  0
 30 31  2  0  0  0  0
 30 32  1  0  0  0  0
M  END
>  <MODEL>
2

>  <REMARK>
 VINA RESULT:      -8.1      2.544      3.370
  Name = 
  2 active torsions:
  status: ('A' for Active; 'I' for Inactive)
    1  A    between atoms: C_20  and  C_29
    2  A    between atoms: C_29  and  C_30
                            x       y       z     vdW  Elec       q    Type
                         _______ _______ _______ _____ _____    ______ ____

>  <TORSDO>
F 2

$$$$
=
 OpenBabel11112416323D

 32 37  0  0  1  0  0  0  0  0999 V2000
  187.1040  176.2780  146.5830 O   0  0  0  0  0  0  0  0  0  0  0  0
  191.4210  176.0350  143.8450 N   0  0  1  0  0  0  0  0  0  0  0  0
  190.4750  173.2700  139.8780 C   0  0  0  0  0  3  0  0  0  0  0  0
  191.8390  173.2350  139.5870 C   0  0  0  0  0  3  0  0  0  0  0  0
  193.7860  176.1490  144.6850 C   0  0  0  0  0  0  0  0  0  0  0  0
  195.1870  175.6020  144.7140 C   0  0  1  0  0  3  0  0  0  0  0  0
  189.6290  177.1230  145.1010 C   0  0  1  0  0  3  0  0  0  0  0  0
  189.1030  175.8510  143.0130 C   0  0  0  0  0  2  0  0  0  0  0  0
  196.6810  174.0970  143.7710 C   0  0  2  0  0  3  0  0  0  0  0  0
  187.2100  176.9610  144.2720 C   0  0  0  0  0  2  0  0  0  0  0  0
  190.0280  173.8970  141.0420 C   0  0  0  0  0  3  0  0  0  0  0  0
  190.4400  175.1210  143.2150 C   0  0  1  0  0  3  0  0  0  0  0  0
  190.9360  174.5060  141.9230 C   0  0  0  0  0  0  0  0  0  0  0  0
  193.3060  175.0800  142.5700 C   0  0  2  0  0  3  0  0  0  0  0  0
  196.5760  173.7690  145.2550 C   0  0  0  0  0  2  0  0  0  0  0  0
  188.2180  176.8060  147.2860 C   0  0  0  0  0  2  0  0  0  0  0  0
  188.5760  176.2800  144.3730 C   0  0  2  0  0  3  0  0  0  0  0  0
  195.3820  174.5370  145.7640 C   0  0  0  0  0  2  0  0  0  0  0  0
  189.1980  177.6790  146.4670 C   0  0  0  0  0  2  0  0  0  0  0  0
  186.6250  177.2320  145.6620 C   0  0  1  0  0  3  0  0  0  0  0  0
  192.7550  173.8100  140.4710 C   0  0  0  0  0  3  0  0  0  0  0  0
  192.3160  174.4140  141.6590 C   0  0  0  0  0  0  0  0  0  0  0  0
  194.5830  174.2570  142.7550 C   0  0  0  0  0  2  0  0  0  0  0  0
  190.9170  176.3150  145.1990 C   0  0  0  0  0  2  0  0  0  0  0  0
  193.5480  177.2240  145.2120 O   0  0  0  0  0  0  0  0  0  0  0  0
  197.9290  174.6590  143.5030 O   0  0  0  0  0  1  0  0  0  0  0  0
  192.7250  175.3540  143.9570 C   0  0  2  0  0  3  0  0  0  0  0  0
  195.6300  175.0480  143.4220 N   0  0  1  0  0  0  0  0  0  0  0  0
  185.1090  177.1850  145.5940 C   0  0  0  0  0  2  0  0  0  0  0  0
  184.5170  178.3510  146.3090 C   0  0  0  0  0  0  0  0  0  0  0  0
  183.6270  179.0440  145.7520 O   0  0  0  0  0  0  0  0  0  0  0  0
  184.9250  178.6530  147.6020 O   0  0  0  0  0  1  0  0  0  0  0  0
  1 16  1  0  0  0  0
  2 27  1  0  0  0  0
  2 24  1  1  0  0  0
  3 11  1  0  0  0  0
  4  3  2  0  0  0  0
  4 21  1  0  0  0  0
  5  6  1  0  0  0  0
  5 25  2  0  0  0  0
  6 18  1  1  0  0  0
  7 24  1  1  0  0  0
  7 19  1  0  0  0  0
  9 26  1  1  0  0  0
  9 15  1  0  0  0  0
 10 17  1  0  0  0  0
 10 20  1  0  0  0  0
 11 13  2  0  0  0  0
 12  8  1  6  0  0  0
 12  2  1  0  0  0  0
 13 12  1  0  0  0  0
 14 23  1  1  0  0  0
 14 27  1  0  0  0  0
 15 18  1  0  0  0  0
 17  8  1  6  0  0  0
 17  7  1  0  0  0  0
 19 16  1  0  0  0  0
 20 29  1  6  0  0  0
 20  1  1  0  0  0  0
 21 22  2  0  0  0  0
 22 13  1  0  0  0  0
 22 14  1  0  0  0  0
 27  5  1  1  0  0  0
 28 23  1  1  0  0  0
 28  9  1  0  0  0  0
 28  6  1  0  0  0  0
 29 30  1  0  0  0  0
 30 32  1  0  0  0  0
 31 30  2  0  0  0  0
M  END
>  <MODEL>
3

>  <REMARK>
 VINA RESULT:      -8.1      2.630      4.753
  Name = 
  2 active torsions:
  status: ('A' for Active; 'I' for Inactive)
    1  A    between atoms: C_20  and  C_29
    2  A    between atoms: C_29  and  C_30
                            x       y       z     vdW  Elec       q    Type
                         _______ _______ _______ _____ _____    ______ ____

>  <TORSDO>
F 2

$$$$
=
 OpenBabel11112416323D

 32 37  0  0  1  0  0  0  0  0999 V2000
  189.3210  171.8460  139.7550 O   0  0  0  0  0  0  0  0  0  0  0  0
  189.2800  175.6660  143.1600 N   0  0  1  0  0  0  0  0  0  0  0  0
  192.8220  174.7200  146.4520 C   0  0  0  0  0  3  0  0  0  0  0  0
  192.3320  175.7440  147.2620 C   0  0  0  0  0  3  0  0  0  0  0  0
  187.3230  177.0660  143.8820 C   0  0  0  0  0  0  0  0  0  0  0  0
  186.4920  177.6810  144.9750 C   0  0  1  0  0  3  0  0  0  0  0  0
  189.3010  174.6560  140.9350 C   0  0  1  0  0  3  0  0  0  0  0  0
  191.1990  174.2520  142.5130 C   0  0  0  0  0  2  0  0  0  0  0  0
  186.3260  178.1110  147.2490 C   0  0  2  0  0  3  0  0  0  0  0  0
  191.2730  173.1840  140.2210 C   0  0  0  0  0  2  0  0  0  0  0  0
  192.1510  174.3800  145.2760 C   0  0  0  0  0  3  0  0  0  0  0  0
  190.2380  174.6450  143.6460 C   0  0  1  0  0  3  0  0  0  0  0  0
  190.9910  175.0700  144.8880 C   0  0  0  0  0  0  0  0  0  0  0  0
  189.2410  176.8320  145.3350 C   0  0  2  0  0  3  0  0  0  0  0  0
  185.1030  177.2960  146.8460 C   0  0  0  0  0  2  0  0  0  0  0  0
  188.1910  172.6910  139.6030 C   0  0  0  0  0  2  0  0  0  0  0  0
  190.3860  173.6640  141.3700 C   0  0  2  0  0  3  0  0  0  0  0  0
  185.3960  176.7680  145.4640 C   0  0  0  0  0  2  0  0  0  0  0  0
  188.4450  174.2110  139.7390 C   0  0  0  0  0  2  0  0  0  0  0  0
  190.4490  172.4460  139.1600 C   0  0  1  0  0  3  0  0  0  0  0  0
  191.1630  176.4160  146.9040 C   0  0  0  0  0  3  0  0  0  0  0  0
  190.4650  176.0610  145.7390 C   0  0  0  0  0  0  0  0  0  0  0  0
  188.3170  177.1310  146.5180 C   0  0  0  0  0  2  0  0  0  0  0  0
  188.4450  175.0030  142.1460 C   0  0  0  0  0  2  0  0  0  0  0  0
  187.1220  177.3840  142.7200 O   0  0  0  0  0  0  0  0  0  0  0  0
  185.9410  179.4220  147.5320 O   0  0  0  0  0  1  0  0  0  0  0  0
  188.4180  176.0990  144.2750 C   0  0  2  0  0  3  0  0  0  0  0  0
  187.2800  178.1070  146.1440 N   0  0  1  0  0  0  0  0  0  0  0  0
  191.3130  171.3950  138.4850 C   0  0  0  0  0  2  0  0  0  0  0  0
  190.4800  170.5060  137.6280 C   0  0  0  0  0  0  0  0  0  0  0  0
  189.9740  170.9510  136.5650 O   0  0  0  0  0  0  0  0  0  0  0  0
  190.2900  169.1770  137.9830 O   0  0  0  0  0  1  0  0  0  0  0  0
  2 24  1  6  0  0  0
  2 12  1  0  0  0  0
  2 27  1  0  0  0  0
  3  4  1  0  0  0  0
  5  6  1  0  0  0  0
  6 18  1  1  0  0  0
  6 28  1  0  0  0  0
  7 19  1  6  0  0  0
  7 17  1  0  0  0  0
  7 24  1  0  0  0  0
  9 26  1  6  0  0  0
 11  3  2  0  0  0  0
 12  8  1  6  0  0  0
 12 13  1  0  0  0  0
 13 11  1  0  0  0  0
 13 22  2  0  0  0  0
 14 22  1  0  0  0  0
 14 23  1  1  0  0  0
 15  9  1  0  0  0  0
 16 19  1  0  0  0  0
 16  1  1  0  0  0  0
 17 10  1  6  0  0  0
 17  8  1  0  0  0  0
 18 15  1  0  0  0  0
 20 29  1  1  0  0  0
 20  1  1  0  0  0  0
 20 10  1  0  0  0  0
 21  4  2  0  0  0  0
 22 21  1  0  0  0  0
 25  5  2  0  0  0  0
 27  5  1  6  0  0  0
 27 14  1  0  0  0  0
 28 23  1  1  0  0  0
 28  9  1  0  0  0  0
 30 32  1  0  0  0  0
 30 29  1  0  0  0  0
 31 30  2  0  0  0  0
M  END
>  <MODEL>
4

>  <REMARK>
 VINA RESULT:      -8.1      3.312      7.031
  Name = 
  2 active torsions:
  status: ('A' for Active; 'I' for Inactive)
    1  A    between atoms: C_20  and  C_29
    2  A    between atoms: C_29  and  C_30
                            x       y       z     vdW  Elec       q    Type
                         _______ _______ _______ _____ _____    ______ ____

>  <TORSDO>
F 2

$$$$
=
 OpenBabel11112416323D

 32 37  0  0  1  0  0  0  0  0999 V2000
  186.5880  179.0280  143.2140 O   0  0  0  0  0  0  0  0  0  0  0  0
  189.1130  174.6020  142.7400 N   0  0  1  0  0  0  0  0  0  0  0  0
  192.7430  174.6320  146.0710 C   0  0  0  0  0  3  0  0  0  0  0  0
  193.2900  173.4960  145.4740 C   0  0  0  0  0  3  0  0  0  0  0  0
  189.4040  173.2080  140.6700 C   0  0  0  0  0  0  0  0  0  0  0  0
  190.2920  172.4360  139.7320 C   0  0  1  0  0  3  0  0  0  0  0  0
  187.1530  176.0430  142.9730 C   0  0  1  0  0  3  0  0  0  0  0  0
  188.8950  175.9960  144.7670 C   0  0  0  0  0  2  0  0  0  0  0  0
  192.4110  171.5610  139.3780 C   0  0  2  0  0  3  0  0  0  0  0  0
  186.8850  177.5030  145.0610 C   0  0  0  0  0  2  0  0  0  0  0  0
  191.6240  175.2460  145.5060 C   0  0  0  0  0  3  0  0  0  0  0  0
  189.8590  175.4400  143.7070 C   0  0  1  0  0  3  0  0  0  0  0  0
  191.0300  174.7230  144.3450 C   0  0  0  0  0  0  0  0  0  0  0  0
  190.9900  173.0200  142.4840 C   0  0  2  0  0  3  0  0  0  0  0  0
  192.1120  172.5160  138.2290 C   0  0  0  0  0  2  0  0  0  0  0  0
  186.1940  178.3030  142.0600 C   0  0  0  0  0  2  0  0  0  0  0  0
  187.8520  176.8550  144.0690 C   0  0  2  0  0  3  0  0  0  0  0  0
  190.8910  173.2960  138.6480 C   0  0  0  0  0  2  0  0  0  0  0  0
  186.0250  176.7750  142.2290 C   0  0  0  0  0  2  0  0  0  0  0  0
  185.9520  178.4930  144.3530 C   0  0  1  0  0  3  0  0  0  0  0  0
  192.7270  172.9860  144.3030 C   0  0  0  0  0  3  0  0  0  0  0  0
  191.6210  173.6140  143.7110 C   0  0  0  0  0  0  0  0  0  0  0  0
  192.0250  172.5440  141.4620 C   0  0  0  0  0  2  0  0  0  0  0  0
  188.2100  175.5090  142.0140 C   0  0  0  0  0  2  0  0  0  0  0  0
  188.1910  173.1480  140.5390 O   0  0  0  0  0  0  0  0  0  0  0  0
  192.3900  170.2470  138.9110 O   0  0  0  0  0  1  0  0  0  0  0  0
  190.0580  174.0040  141.7780 C   0  0  2  0  0  3  0  0  0  0  0  0
  191.3930  171.7310  140.4100 N   0  0  1  0  0  0  0  0  0  0  0  0
  185.5660  179.6040  145.3140 C   0  0  0  0  0  2  0  0  0  0  0  0
  185.1990  179.0410  146.6440 C   0  0  0  0  0  0  0  0  0  0  0  0
  185.8980  179.3080  147.6550 O   0  0  0  0  0  1  0  0  0  0  0  0
  184.0660  178.2480  146.7730 O   0  0  0  0  0  0  0  0  0  0  0  0
  1 20  1  0  0  0  0
  2 24  1  6  0  0  0
  2 12  1  0  0  0  0
  4  3  2  0  0  0  0
  6 18  1  6  0  0  0
  6 28  1  0  0  0  0
  6  5  1  0  0  0  0
  7 24  1  6  0  0  0
  7 17  1  0  0  0  0
  9 26  1  6  0  0  0
  9 28  1  0  0  0  0
 11  3  1  0  0  0  0
 12 13  1  0  0  0  0
 12  8  1  1  0  0  0
 13 11  2  0  0  0  0
 14 23  1  6  0  0  0
 14 22  1  0  0  0  0
 15 18  1  0  0  0  0
 15  9  1  0  0  0  0
 16 19  1  0  0  0  0
 16  1  1  0  0  0  0
 17  8  1  1  0  0  0
 17 10  1  0  0  0  0
 19  7  1  0  0  0  0
 20 10  1  0  0  0  0
 20 29  1  1  0  0  0
 21  4  1  0  0  0  0
 22 21  2  0  0  0  0
 22 13  1  0  0  0  0
 25  5  2  0  0  0  0
 27  5  1  6  0  0  0
 27 14  1  0  0  0  0
 27  2  1  0  0  0  0
 28 23  1  1  0  0  0
 29 30  1  0  0  0  0
 30 32  2  0  0  0  0
 30 31  1  0  0  0  0
M  END
>  <MODEL>
5

>  <REMARK>
 VINA RESULT:      -8.0      3.166      4.178
  Name = 
  2 active torsions:
  status: ('A' for Active; 'I' for Inactive)
    1  A    between atoms: C_20  and  C_29
    2  A    between atoms: C_29  and  C_30
                            x       y       z     vdW  Elec       q    Type
                         _______ _______ _______ _____ _____    ______ ____

>  <TORSDO>
F 2

$$$$
=
 OpenBabel11112416323D

 32 37  0  0  1  0  0  0  0  0999 V2000
  194.9570  175.9810  145.7270 O   0  0  0  0  0  0  0  0  0  0  0  0
  190.2160  175.1960  143.9670 N   0  0  1  0  0  0  0  0  0  0  0  0
  190.6380  173.3240  139.4290 C   0  0  0  0  0  3  0  0  0  0  0  0
  189.2690  173.5050  139.2360 C   0  0  0  0  0  3  0  0  0  0  0  0
  188.1280  176.4700  144.5440 C   0  0  0  0  0  0  0  0  0  0  0  0
  186.8810  177.1930  144.1130 C   0  0  1  0  0  3  0  0  0  0  0  0
  192.0510  175.0740  145.5760 C   0  0  1  0  0  3  0  0  0  0  0  0
  192.2710  173.9800  143.3370 C   0  0  0  0  0  2  0  0  0  0  0  0
  185.4730  177.7040  142.3410 C   0  0  2  0  0  3  0  0  0  0  0  0
  194.2000  173.8200  144.9660 C   0  0  0  0  0  2  0  0  0  0  0  0
  191.2400  173.7680  140.6090 C   0  0  0  0  0  3  0  0  0  0  0  0
  191.1560  174.9220  142.8550 C   0  0  1  0  0  3  0  0  0  0  0  0
  190.4770  174.3850  141.6130 C   0  0  0  0  0  0  0  0  0  0  0  0
  188.2650  175.2560  142.4570 C   0  0  2  0  0  3  0  0  0  0  0  0
  185.9760  179.0200  142.9210 C   0  0  0  0  0  2  0  0  0  0  0  0
  193.9690  176.5620  146.5640 C   0  0  0  0  0  2  0  0  0  0  0  0
  193.0270  174.6630  144.4670 C   0  0  2  0  0  3  0  0  0  0  0  0
  187.1150  178.6570  143.8410 C   0  0  0  0  0  2  0  0  0  0  0  0
  192.6950  175.7190  146.8130 C   0  0  0  0  0  2  0  0  0  0  0  0
  195.0440  174.5970  145.9820 C   0  0  1  0  0  3  0  0  0  0  0  0
  188.5060  174.1450  140.2130 C   0  0  0  0  0  3  0  0  0  0  0  0
  189.1070  174.6220  141.3880 C   0  0  0  0  0  0  0  0  0  0  0  0
  187.2190  176.2180  141.8890 C   0  0  0  0  0  2  0  0  0  0  0  0
  190.9720  175.9620  144.9710 C   0  0  0  0  0  2  0  0  0  0  0  0
  188.3060  176.2260  145.7270 O   0  0  0  0  0  0  0  0  0  0  0  0
  184.1230  177.5420  142.6500 O   0  0  0  0  0  1  0  0  0  0  0  0
  189.1030  176.0300  143.4750 C   0  0  2  0  0  3  0  0  0  0  0  0
  186.2440  176.6080  142.9200 N   0  0  1  0  0  0  0  0  0  0  0  0
  196.4890  174.1350  145.9030 C   0  0  0  0  0  2  0  0  0  0  0  0
  196.9780  174.1870  144.4970 C   0  0  0  0  0  0  0  0  0  0  0  0
  197.2500  175.2950  143.9660 O   0  0  0  0  0  1  0  0  0  0  0  0
  197.1660  173.0110  143.7830 O   0  0  0  0  0  0  0  0  0  0  0  0
  1 20  1  0  0  0  0
  1 16  1  0  0  0  0
  2 24  1  1  0  0  0
  3 11  1  0  0  0  0
  4  3  2  0  0  0  0
  4 21  1  0  0  0  0
  5 25  2  0  0  0  0
  6 18  1  6  0  0  0
  6  5  1  0  0  0  0
  7 24  1  6  0  0  0
  7 19  1  0  0  0  0
  9 26  1  1  0  0  0
  9 28  1  0  0  0  0
  9 15  1  0  0  0  0
 10 20  1  0  0  0  0
 11 13  2  0  0  0  0
 12  8  1  1  0  0  0
 12  2  1  0  0  0  0
 13 12  1  0  0  0  0
 14 23  1  6  0  0  0
 14 27  1  0  0  0  0
 15 18  1  0  0  0  0
 16 19  1  0  0  0  0
 17  8  1  6  0  0  0
 17 10  1  0  0  0  0
 17  7  1  0  0  0  0
 20 29  1  6  0  0  0
 21 22  2  0  0  0  0
 22 13  1  0  0  0  0
 22 14  1  0  0  0  0
 27  2  1  0  0  0  0
 27  5  1  1  0  0  0
 28 23  1  6  0  0  0
 28  6  1  0  0  0  0
 30 29  1  0  0  0  0
 31 30  1  0  0  0  0
 32 30  2  0  0  0  0
M  END
>  <MODEL>
6

>  <REMARK>
 VINA RESULT:      -7.9      2.242      8.900
  Name = 
  2 active torsions:
  status: ('A' for Active; 'I' for Inactive)
    1  A    between atoms: C_20  and  C_29
    2  A    between atoms: C_29  and  C_30
                            x       y       z     vdW  Elec       q    Type
                         _______ _______ _______ _____ _____    ______ ____

>  <TORSDO>
F 2

$$$$
=
 OpenBabel11112416323D

 32 37  0  0  1  0  0  0  0  0999 V2000
  189.3060  171.3060  139.4660 O   0  0  0  0  0  0  0  0  0  0  0  0
  188.7820  175.5920  142.2120 N   0  0  1  0  0  0  0  0  0  0  0  0
  190.1570  174.5420  146.8260 C   0  0  0  0  0  3  0  0  0  0  0  0
  189.6480  175.7700  147.2480 C   0  0  0  0  0  3  0  0  0  0  0  0
  187.1460  177.4630  141.8510 C   0  0  0  0  0  0  0  0  0  0  0  0
  186.1130  178.4150  142.3910 C   0  0  1  0  0  3  0  0  0  0  0  0
  189.5060  174.2240  140.3210 C   0  0  1  0  0  3  0  0  0  0  0  0
  190.3510  173.7280  142.6220 C   0  0  0  0  0  2  0  0  0  0  0  0
  185.0910  179.2620  144.2940 C   0  0  2  0  0  3  0  0  0  0  0  0
  191.1340  172.2830  140.7000 C   0  0  0  0  0  2  0  0  0  0  0  0
  190.0020  174.1450  145.4970 C   0  0  0  0  0  3  0  0  0  0  0  0
  189.1310  174.5000  143.1510 C   0  0  1  0  0  3  0  0  0  0  0  0
  189.3500  174.9760  144.5710 C   0  0  0  0  0  0  0  0  0  0  0  0
  188.1050  177.1050  144.0400 C   0  0  2  0  0  3  0  0  0  0  0  0
  184.0010  178.6530  143.4220 C   0  0  0  0  0  2  0  0  0  0  0  0
  188.6180  172.3220  138.7530 C   0  0  0  0  0  2  0  0  0  0  0  0
  189.9940  173.1260  141.2720 C   0  0  2  0  0  3  0  0  0  0  0  0
  184.7180  177.8430  142.3710 C   0  0  0  0  0  2  0  0  0  0  0  0
  189.1730  173.7590  138.8950 C   0  0  0  0  0  2  0  0  0  0  0  0
  190.6930  171.5520  139.4270 C   0  0  1  0  0  3  0  0  0  0  0  0
  188.9710  176.5910  146.3460 C   0  0  0  0  0  3  0  0  0  0  0  0
  188.7840  176.1860  145.0150 C   0  0  0  0  0  0  0  0  0  0  0  0
  186.8710  177.7870  144.6360 C   0  0  0  0  0  2  0  0  0  0  0  0
  188.3320  174.9440  140.9710 C   0  0  0  0  0  2  0  0  0  0  0  0
  187.5600  177.6060  140.7110 O   0  0  0  0  0  0  0  0  0  0  0  0
  184.9780  180.6520  144.2820 O   0  0  0  0  0  1  0  0  0  0  0  0
  187.6660  176.3800  142.7680 C   0  0  2  0  0  3  0  0  0  0  0  0
  186.3940  178.8720  143.7630 N   0  0  1  0  0  0  0  0  0  0  0  0
  191.4590  170.2460  139.2990 C   0  0  0  0  0  2  0  0  0  0  0  0
  191.8710  170.0180  137.8860 C   0  0  0  0  0  0  0  0  0  0  0  0
  192.4800  168.9630  137.5710 O   0  0  0  0  0  1  0  0  0  0  0  0
  191.5550  170.9540  136.9100 O   0  0  0  0  0  0  0  0  0  0  0  0
  2 24  1  6  0  0  0
  2 27  1  0  0  0  0
  2 12  1  0  0  0  0
  3  4  1  0  0  0  0
  5  6  1  0  0  0  0
  6 18  1  1  0  0  0
  6 28  1  0  0  0  0
  7 19  1  6  0  0  0
  7 24  1  0  0  0  0
  7 17  1  0  0  0  0
  9 26  1  6  0  0  0
 11  3  2  0  0  0  0
 12  8  1  6  0  0  0
 12 13  1  0  0  0  0
 13 22  2  0  0  0  0
 13 11  1  0  0  0  0
 14 23  1  1  0  0  0
 14 22  1  0  0  0  0
 15  9  1  0  0  0  0
 16 19  1  0  0  0  0
 16  1  1  0  0  0  0
 17 10  1  6  0  0  0
 17  8  1  0  0  0  0
 18 15  1  0  0  0  0
 20 29  1  1  0  0  0
 20  1  1  0  0  0  0
 20 10  1  0  0  0  0
 21  4  2  0  0  0  0
 22 21  1  0  0  0  0
 25  5  2  0  0  0  0
 27  5  1  6  0  0  0
 27 14  1  0  0  0  0
 28  9  1  0  0  0  0
 28 23  1  1  0  0  0
 30 29  1  0  0  0  0
 31 30  1  0  0  0  0
 32 30  2  0  0  0  0
M  END
>  <MODEL>
7

>  <REMARK>
 VINA RESULT:      -7.8      3.406      7.591
  Name = 
  2 active torsions:
  status: ('A' for Active; 'I' for Inactive)
    1  A    between atoms: C_20  and  C_29
    2  A    between atoms: C_29  and  C_30
                            x       y       z     vdW  Elec       q    Type
                         _______ _______ _______ _____ _____    ______ ____

>  <TORSDO>
F 2

$$$$
=
 OpenBabel11112416323D

 32 37  0  0  1  0  0  0  0  0999 V2000
  190.1660  171.0940  140.4020 O   0  0  0  0  0  0  0  0  0  0  0  0
  189.3560  175.6360  142.6170 N   0  0  1  0  0  0  0  0  0  0  0  0
  191.1110  175.3480  147.2130 C   0  0  0  0  0  3  0  0  0  0  0  0
  190.5010  176.5660  147.5130 C   0  0  0  0  0  3  0  0  0  0  0  0
  187.5110  177.2740  142.1440 C   0  0  0  0  0  0  0  0  0  0  0  0
  186.4180  178.1840  142.6350 C   0  0  1  0  0  3  0  0  0  0  0  0
  190.1060  174.1060  140.8660 C   0  0  1  0  0  3  0  0  0  0  0  0
  191.1360  174.0050  143.1430 C   0  0  0  0  0  2  0  0  0  0  0  0
  185.4290  179.1740  144.4860 C   0  0  2  0  0  3  0  0  0  0  0  0
  191.9510  172.4000  141.3660 C   0  0  0  0  0  2  0  0  0  0  0  0
  190.9190  174.7640  145.9590 C   0  0  0  0  0  3  0  0  0  0  0  0
  189.8750  174.7180  143.6580 C   0  0  1  0  0  3  0  0  0  0  0  0
  190.1280  175.3970  144.9870 C   0  0  0  0  0  0  0  0  0  0  0  0
  188.6340  177.3060  144.2850 C   0  0  2  0  0  3  0  0  0  0  0  0
  184.3590  178.3500  143.7800 C   0  0  0  0  0  2  0  0  0  0  0  0
  189.3320  171.9350  139.6200 C   0  0  0  0  0  2  0  0  0  0  0  0
  190.7640  173.1970  141.9090 C   0  0  2  0  0  3  0  0  0  0  0  0
  185.0930  177.4810  142.7900 C   0  0  0  0  0  2  0  0  0  0  0  0
  189.7380  173.4250  139.5380 C   0  0  0  0  0  2  0  0  0  0  0  0
  191.5140  171.4670  140.2310 C   0  0  1  0  0  3  0  0  0  0  0  0
  189.6870  177.1900  146.5660 C   0  0  0  0  0  3  0  0  0  0  0  0
  189.4640  176.5950  145.3150 C   0  0  0  0  0  0  0  0  0  0  0  0
  187.3730  177.9370  144.8790 C   0  0  0  0  0  2  0  0  0  0  0  0
  188.9030  174.7880  141.5040 C   0  0  0  0  0  2  0  0  0  0  0  0
  187.8390  177.3040  140.9680 O   0  0  0  0  0  0  0  0  0  0  0  0
  185.1680  180.5320  144.3070 O   0  0  0  0  0  1  0  0  0  0  0  0
  188.1990  176.3780  143.1500 C   0  0  2  0  0  3  0  0  0  0  0  0
  186.7310  178.8450  143.9140 N   0  0  1  0  0  0  0  0  0  0  0  0
  192.4050  170.2370  140.2130 C   0  0  0  0  0  2  0  0  0  0  0  0
  191.5830  168.9960  140.2850 C   0  0  0  0  0  0  0  0  0  0  0  0
  191.3590  168.4530  141.3980 O   0  0  0  0  0  1  0  0  0  0  0  0
  191.0360  168.4570  139.1280 O   0  0  0  0  0  0  0  0  0  0  0  0
  2 24  1  6  0  0  0
  2 27  1  0  0  0  0
  2 12  1  0  0  0  0
  3  4  1  0  0  0  0
  5  6  1  0  0  0  0
  6 18  1  1  0  0  0
  6 28  1  0  0  0  0
  7 19  1  6  0  0  0
  7 24  1  0  0  0  0
  7 17  1  0  0  0  0
  9 26  1  6  0  0  0
 11  3  2  0  0  0  0
 12  8  1  6  0  0  0
 12 13  1  0  0  0  0
 13 22  2  0  0  0  0
 13 11  1  0  0  0  0
 14 23  1  1  0  0  0
 14 22  1  0  0  0  0
 15  9  1  0  0  0  0
 16  1  1  0  0  0  0
 17 10  1  6  0  0  0
 17  8  1  0  0  0  0
 18 15  1  0  0  0  0
 19 16  1  0  0  0  0
 20 29  1  1  0  0  0
 20  1  1  0  0  0  0
 20 10  1  0  0  0  0
 21  4  2  0  0  0  0
 22 21  1  0  0  0  0
 25  5  2  0  0  0  0
 27  5  1  6  0  0  0
 27 14  1  0  0  0  0
 28  9  1  0  0  0  0
 28 23  1  1  0  0  0
 29 30  1  0  0  0  0
 30 31  1  0  0  0  0
 32 30  2  0  0  0  0
M  END
>  <MODEL>
8

>  <REMARK>
 VINA RESULT:      -7.6      3.180      7.472
  Name = 
  2 active torsions:
  status: ('A' for Active; 'I' for Inactive)
    1  A    between atoms: C_20  and  C_29
    2  A    between atoms: C_29  and  C_30
                            x       y       z     vdW  Elec       q    Type
                         _______ _______ _______ _____ _____    ______ ____

>  <TORSDO>
F 2

$$$$
=
 OpenBabel11112416323D

 32 37  0  0  1  0  0  0  0  0999 V2000
  186.8090  176.6970  145.7590 O   0  0  0  0  0  0  0  0  0  0  0  0
  190.3170  174.5380  142.7230 N   0  0  1  0  0  0  0  0  0  0  0  0
  188.2740  174.0300  138.2680 C   0  0  0  0  0  3  0  0  0  0  0  0
  189.3510  173.2360  137.8730 C   0  0  0  0  0  3  0  0  0  0  0  0
  192.1610  172.9610  143.3770 C   0  0  0  0  0  0  0  0  0  0  0  0
  192.9230  171.6830  143.1570 C   0  0  1  0  0  3  0  0  0  0  0  0
  189.4540  176.1440  144.3490 C   0  0  1  0  0  3  0  0  0  0  0  0
  188.4670  176.0310  142.0530 C   0  0  0  0  0  2  0  0  0  0  0  0
  193.2670  169.8700  141.7490 C   0  0  2  0  0  3  0  0  0  0  0  0
  187.5370  177.7150  143.6960 C   0  0  0  0  0  2  0  0  0  0  0  0
  188.1910  174.4860  139.5850 C   0  0  0  0  0  3  0  0  0  0  0  0
  189.0500  174.6120  141.9580 C   0  0  1  0  0  3  0  0  0  0  0  0
  189.1900  174.1660  140.5180 C   0  0  0  0  0  0  0  0  0  0  0  0
  191.3380  172.9790  141.1040 C   0  0  2  0  0  3  0  0  0  0  0  0
  192.8380  169.3230  143.1050 C   0  0  0  0  0  2  0  0  0  0  0  0
  187.9370  176.2340  146.4840 C   0  0  0  0  0  2  0  0  0  0  0  0
  188.1820  176.3400  143.5150 C   0  0  2  0  0  3  0  0  0  0  0  0
  192.3210  170.5070  143.8840 C   0  0  0  0  0  2  0  0  0  0  0  0
  189.3210  176.4880  145.8410 C   0  0  0  0  0  2  0  0  0  0  0  0
  187.1070  177.9340  145.1510 C   0  0  1  0  0  3  0  0  0  0  0  0
  190.3340  172.8860  138.8000 C   0  0  0  0  0  3  0  0  0  0  0  0
  190.2430  173.3140  140.1330 C   0  0  0  0  0  0  0  0  0  0  0  0
  191.8180  171.5320  140.9740 C   0  0  0  0  0  2  0  0  0  0  0  0
  189.9600  174.7230  144.1380 C   0  0  0  0  0  2  0  0  0  0  0  0
  192.5800  173.7830  144.1780 O   0  0  0  0  0  0  0  0  0  0  0  0
  194.6160  169.5900  141.5370 O   0  0  0  0  0  1  0  0  0  0  0  0
  190.9130  173.1990  142.5560 C   0  0  2  0  0  3  0  0  0  0  0  0
  193.0580  171.3160  141.7370 N   0  0  1  0  0  0  0  0  0  0  0  0
  185.8950  178.8480  145.1910 C   0  0  0  0  0  2  0  0  0  0  0  0
  185.2390  178.7890  146.5270 C   0  0  0  0  0  0  0  0  0  0  0  0
  185.7370  179.4120  147.5000 O   0  0  0  0  0  1  0  0  0  0  0  0
  184.0600  178.0730  146.6910 O   0  0  0  0  0  0  0  0  0  0  0  0
  1 16  1  0  0  0  0
  2 24  1  1  0  0  0
  3 11  1  0  0  0  0
  4  3  2  0  0  0  0
  4 21  1  0  0  0  0
  5 25  2  0  0  0  0
  6  5  1  0  0  0  0
  6 18  1  1  0  0  0
  7 24  1  1  0  0  0
  7 19  1  0  0  0  0
  9 26  1  1  0  0  0
  9 15  1  0  0  0  0
 10 20  1  0  0  0  0
 11 13  2  0  0  0  0
 12  8  1  6  0  0  0
 12  2  1  0  0  0  0
 13 12  1  0  0  0  0
 14 23  1  1  0  0  0
 14 27  1  0  0  0  0
 15 18  1  0  0  0  0
 17  8  1  6  0  0  0
 17 10  1  0  0  0  0
 17  7  1  0  0  0  0
 19 16  1  0  0  0  0
 20 29  1  6  0  0  0
 20  1  1  0  0  0  0
 21 22  2  0  0  0  0
 22 13  1  0  0  0  0
 22 14  1  0  0  0  0
 27  2  1  0  0  0  0
 27  5  1  1  0  0  0
 28 23  1  6  0  0  0
 28  9  1  0  0  0  0
 28  6  1  0  0  0  0
 29 30  1  0  0  0  0
 30 32  2  0  0  0  0
 30 31  1  0  0  0  0
M  END
>  <MODEL>
9

>  <REMARK>
 VINA RESULT:      -7.4      3.534      5.706
  Name = 
  2 active torsions:
  status: ('A' for Active; 'I' for Inactive)
    1  A    between atoms: C_20  and  C_29
    2  A    between atoms: C_29  and  C_30
                            x       y       z     vdW  Elec       q    Type
                         _______ _______ _______ _____ _____    ______ ____

>  <TORSDO>
F 2

$$$$
