=
 OpenBabel11112416333D

 32 38  0  0  1  0  0  0  0  0999 V2000
  192.6390  175.3270  144.2830 C   0  0  1  0  0  3  0  0  0  0  0  0
  187.8370  177.1050  143.3590 C   0  0  0  0  0  0  0  0  0  0  0  0
  185.7220  177.2990  147.8530 C   0  0  0  0  0  2  0  0  0  0  0  0
  184.7710  178.3490  147.3090 C   0  0  0  0  0  2  0  0  0  0  0  0
  186.3540  177.4260  141.3010 C   0  0  0  0  0  0  0  0  0  0  0  0
  185.0510  177.8830  140.8210 C   0  0  1  0  0  3  0  0  0  0  0  0
  190.1110  176.0390  143.1740 C   0  0  2  0  0  3  0  0  0  0  0  0
  189.2580  176.6000  145.4200 C   0  0  0  0  0  2  0  0  0  0  0  0
  182.8850  178.4220  141.0150 C   0  0  0  0  0  0  0  0  0  0  0  0
  191.7010  176.1010  145.1410 C   0  0  2  0  0  3  0  0  0  0  0  0
  187.0420  177.3790  147.0970 C   0  0  0  0  0  2  0  0  0  0  0  0
  187.9700  177.0680  144.7730 C   0  0  0  0  0  0  0  0  0  0  0  0
  186.8650  177.3620  145.5940 C   0  0  0  0  0  0  0  0  0  0  0  0
  185.5050  177.8010  143.6200 C   0  0  0  0  0  0  0  0  0  0  0  0
  183.0420  177.6640  139.9820 N   0  0  0  0  0  0  0  0  0  0  0  0
  192.2740  175.0780  142.9200 O   0  0  0  0  0  0  0  0  0  0  0  0
  190.4540  176.6990  144.4870 C   0  0  1  0  0  3  0  0  0  0  0  0
  184.3870  177.2960  139.8830 N   0  0  0  0  0  2  0  0  0  0  0  0
  191.3810  176.0150  142.3630 C   0  0  0  0  0  2  0  0  0  0  0  0
  192.8920  176.7530  144.5520 N   0  0  0  0  0  0  0  0  0  0  0  0
  184.4170  178.0010  145.8690 C   0  0  0  0  0  2  0  0  0  0  0  0
  185.6360  177.7450  145.0140 C   0  0  0  0  0  0  0  0  0  0  0  0
  184.2440  178.2010  143.0440 N   0  0  0  0  0  2  0  0  0  0  0  0
  189.0520  176.8810  142.4840 C   0  0  0  0  0  2  0  0  0  0  0  0
  187.1860  176.9390  140.4890 O   0  0  0  0  0  0  0  0  0  0  0  0
  181.5710  179.0040  141.3990 C   0  0  0  0  0  1  0  0  0  0  0  0
  186.5980  177.4630  142.7770 C   0  0  0  0  0  0  0  0  0  0  0  0
  184.1820  178.7180  141.6820 C   0  0  1  0  0  3  0  0  0  0  0  0
  193.8980  176.8070  145.5990 C   0  0  0  0  0  2  0  0  0  0  0  0
  195.1550  176.1710  145.1200 C   0  0  0  0  0  0  0  0  0  0  0  0
  195.6690  175.0230  145.7850 N   0  0  0  0  0  1  0  0  0  0  0  0
  195.7830  176.6680  144.1490 O   0  0  0  0  0  0  0  0  0  0  0  0
  1 16  1  6  0  0  0
  1 20  1  0  0  0  0
  1 10  1  0  0  0  0
  2 12  1  0  0  0  0
  4  3  1  0  0  0  0
  5 27  1  0  0  0  0
  6 18  1  1  0  0  0
  6  5  1  0  0  0  0
  6 28  1  0  0  0  0
  7 19  1  6  0  0  0
  7 17  1  0  0  0  0
  9 26  1  0  0  0  0
 10 20  1  6  0  0  0
 11  3  1  0  0  0  0
 12  8  1  0  0  0  0
 12 13  2  0  0  0  0
 13 11  1  0  0  0  0
 14 22  2  0  0  0  0
 15  9  2  0  0  0  0
 17 10  1  0  0  0  0
 17  8  1  1  0  0  0
 18 15  1  0  0  0  0
 19 16  1  0  0  0  0
 20 29  1  0  0  0  0
 21  4  1  0  0  0  0
 22 13  1  0  0  0  0
 22 21  1  0  0  0  0
 23 14  1  0  0  0  0
 24  7  1  0  0  0  0
 24  2  1  0  0  0  0
 25  5  2  0  0  0  0
 27  2  2  0  0  0  0
 27 14  1  0  0  0  0
 28  9  1  6  0  0  0
 28 23  1  0  0  0  0
 30 29  1  0  0  0  0
 30 31  1  0  0  0  0
 32 30  2  0  0  0  0
M  END
>  <MODEL>
1

>  <REMARK>
 VINA RESULT:      -8.8      0.000      0.000
  Name = 
  2 active torsions:
  status: ('A' for Active; 'I' for Inactive)
    1  A    between atoms: N_20  and  C_29
    2  A    between atoms: C_29  and  C_30
                            x       y       z     vdW  Elec       q    Type
                         _______ _______ _______ _____ _____    ______ ____

>  <TORSDO>
F 2

$$$$
=
 OpenBabel11112416333D

 32 38  0  0  1  0  0  0  0  0999 V2000
  185.3190  177.4390  146.7970 C   0  0  1  0  0  3  0  0  0  0  0  0
  190.0320  176.1460  145.0140 C   0  0  0  0  0  0  0  0  0  0  0  0
  189.0980  173.4160  140.9660 C   0  0  0  0  0  2  0  0  0  0  0  0
  190.4780  173.7860  140.4550 C   0  0  0  0  0  2  0  0  0  0  0  0
  192.4250  176.2130  145.9110 C   0  0  0  0  0  0  0  0  0  0  0  0
  193.8270  175.9250  145.6120 C   0  0  1  0  0  3  0  0  0  0  0  0
  188.0800  176.8190  146.4540 C   0  0  2  0  0  3  0  0  0  0  0  0
  187.6210  175.9090  144.2080 C   0  0  0  0  0  2  0  0  0  0  0  0
  195.5130  174.9360  144.5160 C   0  0  0  0  0  0  0  0  0  0  0  0
  185.7900  177.1230  145.4220 C   0  0  2  0  0  3  0  0  0  0  0  0
  188.5770  174.5360  141.8560 C   0  0  0  0  0  2  0  0  0  0  0  0
  189.1110  175.6970  144.0300 C   0  0  0  0  0  0  0  0  0  0  0  0
  189.5640  174.9510  142.9270 C   0  0  0  0  0  0  0  0  0  0  0  0
  191.8580  175.1460  143.7260 C   0  0  0  0  0  0  0  0  0  0  0  0
  195.7290  174.8570  145.7870 N   0  0  0  0  0  0  0  0  0  0  0  0
  186.2860  177.5250  147.8510 O   0  0  0  0  0  0  0  0  0  0  0  0
  187.2980  177.0320  145.1810 C   0  0  1  0  0  3  0  0  0  0  0  0
  194.6580  175.4380  146.4720 N   0  0  0  0  0  2  0  0  0  0  0  0
  187.5910  177.8550  147.4340 C   0  0  0  0  0  2  0  0  0  0  0  0
  185.4650  178.5150  145.8030 N   0  0  0  0  0  0  0  0  0  0  0  0
  191.4470  173.8350  141.6280 C   0  0  0  0  0  2  0  0  0  0  0  0
  190.9420  174.6900  142.7670 C   0  0  0  0  0  0  0  0  0  0  0  0
  193.2630  174.8770  143.5440 N   0  0  0  0  0  2  0  0  0  0  0  0
  189.5520  177.0280  146.1460 C   0  0  0  0  0  2  0  0  0  0  0  0
  192.1040  176.6540  147.0470 O   0  0  0  0  0  0  0  0  0  0  0  0
  196.4710  174.4250  143.4990 C   0  0  0  0  0  1  0  0  0  0  0  0
  191.4110  175.8620  144.8690 C   0  0  0  0  0  0  0  0  0  0  0  0
  194.2670  175.6930  144.2170 C   0  0  1  0  0  3  0  0  0  0  0  0
  184.1350  178.7880  145.2860 C   0  0  0  0  0  2  0  0  0  0  0  0
  184.1880  178.9200  143.8050 C   0  0  0  0  0  0  0  0  0  0  0  0
  185.3850  179.3550  143.1720 N   0  0  0  0  0  1  0  0  0  0  0  0
  183.1630  178.6800  143.1140 O   0  0  0  0  0  0  0  0  0  0  0  0
  1 16  1  1  0  0  0
  2 24  1  0  0  0  0
  3 11  1  0  0  0  0
  4  3  1  0  0  0  0
  4 21  1  0  0  0  0
  5 25  2  0  0  0  0
  6  5  1  6  0  0  0
  6 18  1  0  0  0  0
  7 24  1  6  0  0  0
  7 19  1  0  0  0  0
  9 15  2  0  0  0  0
 10 20  1  6  0  0  0
 10  1  1  0  0  0  0
 11 13  1  0  0  0  0
 12  8  1  0  0  0  0
 12  2  2  0  0  0  0
 13 12  1  0  0  0  0
 14 27  2  0  0  0  0
 15 18  1  0  0  0  0
 17  8  1  6  0  0  0
 17 10  1  0  0  0  0
 17  7  1  0  0  0  0
 19 16  1  0  0  0  0
 20  1  1  0  0  0  0
 21 22  1  0  0  0  0
 22 13  2  0  0  0  0
 22 14  1  0  0  0  0
 23 14  1  0  0  0  0
 26  9  1  0  0  0  0
 27  2  1  0  0  0  0
 27  5  1  0  0  0  0
 28 23  1  6  0  0  0
 28  9  1  0  0  0  0
 28  6  1  0  0  0  0
 29 20  1  0  0  0  0
 30 29  1  0  0  0  0
 31 30  1  0  0  0  0
 32 30  2  0  0  0  0
M  END
>  <MODEL>
2

>  <REMARK>
 VINA RESULT:      -8.5      2.431      8.865
  Name = 
  2 active torsions:
  status: ('A' for Active; 'I' for Inactive)
    1  A    between atoms: N_20  and  C_29
    2  A    between atoms: C_29  and  C_30
                            x       y       z     vdW  Elec       q    Type
                         _______ _______ _______ _____ _____    ______ ____

>  <TORSDO>
F 2

$$$$
=
 OpenBabel11112416333D

 32 38  0  0  1  0  0  0  0  0999 V2000
  185.3640  179.3460  143.9750 C   0  0  1  0  0  3  0  0  0  0  0  0
  188.8770  175.7000  142.7780 C   0  0  0  0  0  0  0  0  0  0  0  0
  192.5340  176.4000  146.0710 C   0  0  0  0  0  2  0  0  0  0  0  0
  192.9340  174.9520  145.8650 C   0  0  0  0  0  2  0  0  0  0  0  0
  189.2930  174.1150  140.8150 C   0  0  0  0  0  0  0  0  0  0  0  0
  190.1600  173.0620  140.2860 C   0  0  1  0  0  3  0  0  0  0  0  0
  187.0100  177.3880  142.7170 C   0  0  2  0  0  3  0  0  0  0  0  0
  188.5570  177.4190  144.6380 C   0  0  0  0  0  2  0  0  0  0  0  0
  192.0480  171.8670  140.1310 C   0  0  0  0  0  0  0  0  0  0  0  0
  186.3790  178.6530  144.8150 C   0  0  2  0  0  3  0  0  0  0  0  0
  191.0380  176.5460  145.8260 C   0  0  0  0  0  2  0  0  0  0  0  0
  189.3390  176.3010  143.9780 C   0  0  0  0  0  0  0  0  0  0  0  0
  190.5900  175.9410  144.5120 C   0  0  0  0  0  0  0  0  0  0  0  0
  190.9060  174.3330  142.7090 C   0  0  0  0  0  0  0  0  0  0  0  0
  191.6520  172.1890  138.9450 N   0  0  0  0  0  0  0  0  0  0  0  0
  185.1910  178.9200  142.6180 O   0  0  0  0  0  0  0  0  0  0  0  0
  187.0940  177.4370  144.2220 C   0  0  1  0  0  3  0  0  0  0  0  0
  190.4960  172.9690  139.0430 N   0  0  0  0  0  2  0  0  0  0  0  0
  185.5580  177.5840  142.3630 C   0  0  0  0  0  2  0  0  0  0  0  0
  184.9420  178.3250  144.9500 N   0  0  0  0  0  0  0  0  0  0  0  0
  192.7410  174.5850  144.3990 C   0  0  0  0  0  2  0  0  0  0  0  0
  191.3660  174.9430  143.8840 C   0  0  0  0  0  0  0  0  0  0  0  0
  191.7080  173.3090  142.0840 N   0  0  0  0  0  2  0  0  0  0  0  0
  187.4910  176.0220  142.2600 C   0  0  0  0  0  2  0  0  0  0  0  0
  188.3300  174.5410  140.1230 O   0  0  0  0  0  0  0  0  0  0  0  0
  193.2470  171.0220  140.3820 C   0  0  0  0  0  1  0  0  0  0  0  0
  189.6660  174.7180  142.1320 C   0  0  0  0  0  0  0  0  0  0  0  0
  191.1010  172.3440  141.1750 C   0  0  1  0  0  3  0  0  0  0  0  0
  184.4600  179.0410  146.1180 C   0  0  0  0  0  2  0  0  0  0  0  0
  185.3830  178.8130  147.2630 C   0  0  0  0  0  0  0  0  0  0  0  0
  185.6050  177.4940  147.7460 N   0  0  0  0  0  1  0  0  0  0  0  0
  185.9410  179.7910  147.8260 O   0  0  0  0  0  0  0  0  0  0  0  0
  1 16  1  6  0  0  0
  1 10  1  0  0  0  0
  1 20  1  0  0  0  0
  2 12  1  0  0  0  0
  4  3  1  0  0  0  0
  5 27  1  0  0  0  0
  6 18  1  6  0  0  0
  6  5  1  0  0  0  0
  6 28  1  0  0  0  0
  7 24  1  1  0  0  0
  7 17  1  0  0  0  0
  9 26  1  0  0  0  0
 10 20  1  1  0  0  0
 11  3  1  0  0  0  0
 12 13  2  0  0  0  0
 12  8  1  0  0  0  0
 13 11  1  0  0  0  0
 14 22  2  0  0  0  0
 15 18  1  0  0  0  0
 15  9  2  0  0  0  0
 17  8  1  6  0  0  0
 17 10  1  0  0  0  0
 19 16  1  0  0  0  0
 19  7  1  0  0  0  0
 20 29  1  0  0  0  0
 21  4  1  0  0  0  0
 22 21  1  0  0  0  0
 22 13  1  0  0  0  0
 23 14  1  0  0  0  0
 24  2  1  0  0  0  0
 25  5  2  0  0  0  0
 27 14  1  0  0  0  0
 27  2  2  0  0  0  0
 28  9  1  6  0  0  0
 28 23  1  0  0  0  0
 29 30  1  0  0  0  0
 30 31  1  0  0  0  0
 30 32  2  0  0  0  0
M  END
>  <MODEL>
3

>  <REMARK>
 VINA RESULT:      -8.4      3.348      7.555
  Name = 
  2 active torsions:
  status: ('A' for Active; 'I' for Inactive)
    1  A    between atoms: N_20  and  C_29
    2  A    between atoms: C_29  and  C_30
                            x       y       z     vdW  Elec       q    Type
                         _______ _______ _______ _____ _____    ______ ____

>  <TORSDO>
F 2

$$$$
=
 OpenBabel11112416333D

 32 38  0  0  1  0  0  0  0  0999 V2000
  185.8800  179.0990  143.1480 C   0  0  1  0  0  3  0  0  0  0  0  0
  189.0350  175.0070  142.5390 C   0  0  0  0  0  0  0  0  0  0  0  0
  192.5790  175.6780  145.9590 C   0  0  0  0  0  2  0  0  0  0  0  0
  192.8310  174.1830  145.9250 C   0  0  0  0  0  2  0  0  0  0  0  0
  189.3740  173.1870  140.7750 C   0  0  0  0  0  0  0  0  0  0  0  0
  190.1480  172.0020  140.4080 C   0  0  1  0  0  3  0  0  0  0  0  0
  187.3650  176.8600  142.1960 C   0  0  2  0  0  3  0  0  0  0  0  0
  188.8100  176.9380  144.1930 C   0  0  0  0  0  2  0  0  0  0  0  0
  191.9020  170.6100  140.4890 C   0  0  0  0  0  0  0  0  0  0  0  0
  186.7710  178.4000  144.1130 C   0  0  2  0  0  3  0  0  0  0  0  0
  191.1210  175.9490  145.6110 C   0  0  0  0  0  2  0  0  0  0  0  0
  189.4990  175.6830  143.6990 C   0  0  0  0  0  0  0  0  0  0  0  0
  190.6770  175.2560  144.3410 C   0  0  0  0  0  0  0  0  0  0  0  0
  190.9060  173.4410  142.7320 C   0  0  0  0  0  0  0  0  0  0  0  0
  191.6020  170.8430  139.2550 N   0  0  0  0  0  0  0  0  0  0  0  0
  185.7290  178.5500  141.8340 O   0  0  0  0  0  0  0  0  0  0  0  0
  187.3800  177.0610  143.6910 C   0  0  1  0  0  3  0  0  0  0  0  0
  190.5330  171.7420  139.2040 N   0  0  0  0  0  2  0  0  0  0  0  0
  185.9620  177.1640  141.7370 C   0  0  0  0  0  2  0  0  0  0  0  0
  185.3030  178.2360  144.1940 N   0  0  0  0  0  0  0  0  0  0  0  0
  192.6710  173.6840  144.4950 C   0  0  0  0  0  2  0  0  0  0  0  0
  191.3700  174.1220  143.8650 C   0  0  0  0  0  0  0  0  0  0  0  0
  191.6230  172.2800  142.2620 N   0  0  0  0  0  2  0  0  0  0  0  0
  187.7190  175.4110  141.9090 C   0  0  0  0  0  2  0  0  0  0  0  0
  188.4980  173.6330  139.9870 O   0  0  0  0  0  0  0  0  0  0  0  0
  192.9890  169.6790  140.8960 C   0  0  0  0  0  1  0  0  0  0  0  0
  189.7450  173.8860  142.0450 C   0  0  0  0  0  0  0  0  0  0  0  0
  190.9610  171.2900  141.4210 C   0  0  1  0  0  3  0  0  0  0  0  0
  184.8430  179.1180  145.2530 C   0  0  0  0  0  2  0  0  0  0  0  0
  184.8720  178.3960  146.5550 C   0  0  0  0  0  0  0  0  0  0  0  0
  185.7720  178.8080  147.5760 N   0  0  0  0  0  1  0  0  0  0  0  0
  184.1240  177.4000  146.7390 O   0  0  0  0  0  0  0  0  0  0  0  0
  1 16  1  6  0  0  0
  1 10  1  0  0  0  0
  1 20  1  0  0  0  0
  2 12  1  0  0  0  0
  4  3  1  0  0  0  0
  5 27  1  0  0  0  0
  6 18  1  6  0  0  0
  6  5  1  0  0  0  0
  6 28  1  0  0  0  0
  7 19  1  1  0  0  0
  7 17  1  0  0  0  0
  9 26  1  0  0  0  0
 10 20  1  1  0  0  0
 11  3  1  0  0  0  0
 12  8  1  0  0  0  0
 12 13  2  0  0  0  0
 13 11  1  0  0  0  0
 14 22  2  0  0  0  0
 15  9  2  0  0  0  0
 17 10  1  0  0  0  0
 17  8  1  6  0  0  0
 18 15  1  0  0  0  0
 19 16  1  0  0  0  0
 20 29  1  0  0  0  0
 21  4  1  0  0  0  0
 22 13  1  0  0  0  0
 22 21  1  0  0  0  0
 23 14  1  0  0  0  0
 24  7  1  0  0  0  0
 24  2  1  0  0  0  0
 25  5  2  0  0  0  0
 27  2  2  0  0  0  0
 27 14  1  0  0  0  0
 28  9  1  6  0  0  0
 28 23  1  0  0  0  0
 29 30  1  0  0  0  0
 30 32  2  0  0  0  0
 30 31  1  0  0  0  0
M  END
>  <MODEL>
4

>  <REMARK>
 VINA RESULT:      -8.0      3.645      7.835
  Name = 
  2 active torsions:
  status: ('A' for Active; 'I' for Inactive)
    1  A    between atoms: N_20  and  C_29
    2  A    between atoms: C_29  and  C_30
                            x       y       z     vdW  Elec       q    Type
                         _______ _______ _______ _____ _____    ______ ____

>  <TORSDO>
F 2

$$$$
=
 OpenBabel11112416333D

 32 38  0  0  1  0  0  0  0  0999 V2000
  190.1950  172.2270  139.3630 C   0  0  1  0  0  3  0  0  0  0  0  0
  188.7530  175.4370  143.1950 C   0  0  0  0  0  0  0  0  0  0  0  0
  192.3110  174.9180  146.6260 C   0  0  0  0  0  2  0  0  0  0  0  0
  191.9480  176.2970  147.1440 C   0  0  0  0  0  2  0  0  0  0  0  0
  186.6340  176.7220  143.8240 C   0  0  0  0  0  0  0  0  0  0  0  0
  186.0270  177.6350  144.7910 C   0  0  1  0  0  3  0  0  0  0  0  0
  188.7970  173.8880  141.2100 C   0  0  2  0  0  3  0  0  0  0  0  0
  190.7920  173.9990  142.6570 C   0  0  0  0  0  2  0  0  0  0  0  0
  185.8310  178.6680  146.7700 C   0  0  0  0  0  0  0  0  0  0  0  0
  190.9980  172.9510  140.3860 C   0  0  2  0  0  3  0  0  0  0  0  0
  192.0020  174.8450  145.1370 C   0  0  0  0  0  2  0  0  0  0  0  0
  190.0440  174.9660  143.5520 C   0  0  0  0  0  0  0  0  0  0  0  0
  190.5990  175.3040  144.8000 C   0  0  0  0  0  0  0  0  0  0  0  0
  188.6290  176.6400  145.3230 C   0  0  0  0  0  0  0  0  0  0  0  0
  184.6750  178.2220  146.4080 N   0  0  0  0  0  0  0  0  0  0  0  0
  188.7880  172.4850  139.2880 O   0  0  0  0  0  0  0  0  0  0  0  0
  190.3000  174.0280  141.2180 C   0  0  1  0  0  3  0  0  0  0  0  0
  184.8030  177.5430  145.1930 N   0  0  0  0  0  2  0  0  0  0  0  0
  188.3890  173.7480  139.7660 C   0  0  0  0  0  2  0  0  0  0  0  0
  191.0080  173.3910  138.9730 N   0  0  0  0  0  0  0  0  0  0  0  0
  190.4400  176.4830  147.0490 C   0  0  0  0  0  2  0  0  0  0  0  0
  189.8960  176.1580  145.6780 C   0  0  0  0  0  0  0  0  0  0  0  0
  187.9270  177.5170  146.2290 N   0  0  0  0  0  2  0  0  0  0  0  0
  188.2010  175.1470  141.8150 C   0  0  0  0  0  2  0  0  0  0  0  0
  185.9470  176.2780  142.8660 O   0  0  0  0  0  0  0  0  0  0  0  0
  186.0430  179.4540  148.0160 C   0  0  0  0  0  1  0  0  0  0  0  0
  188.0350  176.2700  144.0860 C   0  0  0  0  0  0  0  0  0  0  0  0
  186.8710  178.3960  145.7410 C   0  0  1  0  0  3  0  0  0  0  0  0
  192.2280  172.8680  138.3830 C   0  0  0  0  0  2  0  0  0  0  0  0
  193.2480  173.9490  138.2970 C   0  0  0  0  0  0  0  0  0  0  0  0
  194.4020  173.9040  139.1270 N   0  0  0  0  0  1  0  0  0  0  0  0
  193.0730  174.9190  137.5150 O   0  0  0  0  0  0  0  0  0  0  0  0
  1 16  1  1  0  0  0
  1 10  1  0  0  0  0
  2 12  2  0  0  0  0
  2 27  1  0  0  0  0
  3  4  1  0  0  0  0
  5 27  1  0  0  0  0
  6  5  1  1  0  0  0
  6 18  1  0  0  0  0
  6 28  1  0  0  0  0
  7 19  1  6  0  0  0
  7 17  1  0  0  0  0
  7 24  1  0  0  0  0
  8 12  1  0  0  0  0
  9 26  1  0  0  0  0
 10 20  1  6  0  0  0
 10 17  1  0  0  0  0
 11  3  1  0  0  0  0
 12 13  1  0  0  0  0
 13 11  1  0  0  0  0
 13 22  2  0  0  0  0
 14 22  1  0  0  0  0
 14 23  1  0  0  0  0
 15  9  2  0  0  0  0
 16 19  1  0  0  0  0
 17  8  1  1  0  0  0
 18 15  1  0  0  0  0
 20  1  1  0  0  0  0
 21  4  1  0  0  0  0
 22 21  1  0  0  0  0
 24  2  1  0  0  0  0
 25  5  2  0  0  0  0
 27 14  2  0  0  0  0
 28 23  1  1  0  0  0
 28  9  1  0  0  0  0
 29 20  1  0  0  0  0
 30 29  1  0  0  0  0
 30 31  1  0  0  0  0
 32 30  2  0  0  0  0
M  END
>  <MODEL>
5

>  <REMARK>
 VINA RESULT:      -8.0      3.413      5.477
  Name = 
  2 active torsions:
  status: ('A' for Active; 'I' for Inactive)
    1  A    between atoms: N_20  and  C_29
    2  A    between atoms: C_29  and  C_30
                            x       y       z     vdW  Elec       q    Type
                         _______ _______ _______ _____ _____    ______ ____

>  <TORSDO>
F 2

$$$$
=
 OpenBabel11112416333D

 32 38  0  0  1  0  0  0  0  0999 V2000
  195.5890  175.5230  144.7350 C   0  0  1  0  0  3  0  0  0  0  0  0
  190.4730  176.2790  145.3050 C   0  0  0  0  0  0  0  0  0  0  0  0
  188.5480  174.9690  140.9130 C   0  0  0  0  0  2  0  0  0  0  0  0
  187.2330  174.7050  141.6210 C   0  0  0  0  0  2  0  0  0  0  0  0
  188.9620  177.4680  146.9900 C   0  0  0  0  0  0  0  0  0  0  0  0
  187.5800  177.7940  147.3420 C   0  0  1  0  0  3  0  0  0  0  0  0
  192.9810  176.3740  145.5090 C   0  0  2  0  0  3  0  0  0  0  0  0
  192.0060  175.2630  143.5340 C   0  0  0  0  0  2  0  0  0  0  0  0
  185.3940  178.0850  146.9470 C   0  0  0  0  0  0  0  0  0  0  0  0
  194.4250  174.8710  144.0750 C   0  0  2  0  0  3  0  0  0  0  0  0
  189.6960  174.7340  141.8860 C   0  0  0  0  0  2  0  0  0  0  0  0
  190.6310  175.6460  144.0430 C   0  0  0  0  0  0  0  0  0  0  0  0
  189.5200  175.4670  143.1990 C   0  0  0  0  0  0  0  0  0  0  0  0
  188.0710  176.4760  144.8780 C   0  0  0  0  0  0  0  0  0  0  0  0
  185.8420  179.0940  147.6170 N   0  0  0  0  0  0  0  0  0  0  0  0
  195.3430  176.4550  145.7940 O   0  0  0  0  0  0  0  0  0  0  0  0
  193.0320  175.1350  144.6490 C   0  0  1  0  0  3  0  0  0  0  0  0
  187.2140  178.9310  147.8290 N   0  0  0  0  0  2  0  0  0  0  0  0
  194.1270  176.2670  146.4810 C   0  0  0  0  0  2  0  0  0  0  0  0
  195.2160  174.1440  145.0930 N   0  0  0  0  0  0  0  0  0  0  0  0
  187.0380  175.7470  142.7140 C   0  0  0  0  0  2  0  0  0  0  0  0
  188.2350  175.8680  143.6260 C   0  0  0  0  0  0  0  0  0  0  0  0
  186.7510  176.8740  145.3030 N   0  0  0  0  0  2  0  0  0  0  0  0
  191.6530  176.3840  146.2460 C   0  0  0  0  0  2  0  0  0  0  0  0
  189.9080  177.9050  147.6980 O   0  0  0  0  0  0  0  0  0  0  0  0
  183.9630  177.9380  146.5660 C   0  0  0  0  0  1  0  0  0  0  0  0
  189.1900  176.7060  145.7230 C   0  0  0  0  0  0  0  0  0  0  0  0
  186.4530  177.0640  146.7170 C   0  0  1  0  0  3  0  0  0  0  0  0
  196.1200  173.2670  144.3690 C   0  0  0  0  0  2  0  0  0  0  0  0
  196.9430  172.4880  145.3340 C   0  0  0  0  0  0  0  0  0  0  0  0
  197.5350  171.2580  144.9330 N   0  0  0  0  0  1  0  0  0  0  0  0
  197.0890  172.9010  146.5140 O   0  0  0  0  0  0  0  0  0  0  0  0
  1 20  1  0  0  0  0
  1 16  1  1  0  0  0
  2 27  1  0  0  0  0
  2 24  1  0  0  0  0
  3  4  1  0  0  0  0
  3 11  1  0  0  0  0
  4 21  1  0  0  0  0
  5 25  2  0  0  0  0
  6  5  1  6  0  0  0
  6 18  1  0  0  0  0
  7 24  1  1  0  0  0
  7 19  1  0  0  0  0
  8 12  1  0  0  0  0
  9 15  2  0  0  0  0
 10 17  1  0  0  0  0
 10  1  1  0  0  0  0
 10 20  1  1  0  0  0
 11 13  1  0  0  0  0
 12  2  2  0  0  0  0
 13 22  2  0  0  0  0
 13 12  1  0  0  0  0
 14 23  1  0  0  0  0
 14 27  2  0  0  0  0
 15 18  1  0  0  0  0
 16 19  1  0  0  0  0
 17  8  1  6  0  0  0
 17  7  1  0  0  0  0
 21 22  1  0  0  0  0
 22 14  1  0  0  0  0
 26  9  1  0  0  0  0
 27  5  1  0  0  0  0
 28 23  1  6  0  0  0
 28  9  1  0  0  0  0
 28  6  1  0  0  0  0
 29 20  1  0  0  0  0
 29 30  1  0  0  0  0
 30 32  2  0  0  0  0
 31 30  1  0  0  0  0
M  END
>  <MODEL>
6

>  <REMARK>
 VINA RESULT:      -7.9      3.140      5.221
  Name = 
  2 active torsions:
  status: ('A' for Active; 'I' for Inactive)
    1  A    between atoms: N_20  and  C_29
    2  A    between atoms: C_29  and  C_30
                            x       y       z     vdW  Elec       q    Type
                         _______ _______ _______ _____ _____    ______ ____

>  <TORSDO>
F 2

$$$$
=
 OpenBabel11112416333D

 32 38  0  0  1  0  0  0  0  0999 V2000
  186.6930  178.1130  143.0640 C   0  0  1  0  0  3  0  0  0  0  0  0
  190.2820  174.4080  143.7430 C   0  0  0  0  0  0  0  0  0  0  0  0
  194.1520  176.8080  145.7370 C   0  0  0  0  0  2  0  0  0  0  0  0
  194.6080  175.4870  146.3270 C   0  0  0  0  0  2  0  0  0  0  0  0
  190.6210  172.0010  142.9500 C   0  0  0  0  0  0  0  0  0  0  0  0
  191.4950  170.8310  143.0080 C   0  0  1  0  0  3  0  0  0  0  0  0
  188.3310  175.7830  142.9420 C   0  0  2  0  0  3  0  0  0  0  0  0
  190.0240  176.8700  144.3690 C   0  0  0  0  0  2  0  0  0  0  0  0
  193.4240  169.7460  143.3570 C   0  0  0  0  0  0  0  0  0  0  0  0
  187.8070  177.9990  144.0450 C   0  0  2  0  0  3  0  0  0  0  0  0
  192.6350  176.7970  145.5980 C   0  0  0  0  0  2  0  0  0  0  0  0
  190.8080  175.5730  144.3640 C   0  0  0  0  0  0  0  0  0  0  0  0
  192.1150  175.5670  144.8840 C   0  0  0  0  0  0  0  0  0  0  0  0
  192.3680  173.2290  144.2450 C   0  0  0  0  0  0  0  0  0  0  0  0
  192.9180  169.3600  142.2340 N   0  0  0  0  0  0  0  0  0  0  0  0
  186.4330  177.0080  142.1900 O   0  0  0  0  0  0  0  0  0  0  0  0
  188.5340  176.6580  144.1550 C   0  0  1  0  0  3  0  0  0  0  0  0
  191.7350  170.0650  141.9970 N   0  0  0  0  0  2  0  0  0  0  0  0
  186.8470  175.7530  142.6800 C   0  0  0  0  0  2  0  0  0  0  0  0
  186.4040  177.8030  144.4750 N   0  0  0  0  0  0  0  0  0  0  0  0
  194.3170  174.3720  145.3320 C   0  0  0  0  0  2  0  0  0  0  0  0
  192.8890  174.3860  144.8400 C   0  0  0  0  0  0  0  0  0  0  0  0
  193.1680  172.0290  144.2140 N   0  0  0  0  0  2  0  0  0  0  0  0
  188.8450  174.3920  143.2700 C   0  0  0  0  0  2  0  0  0  0  0  0
  189.5850  171.9750  142.2340 O   0  0  0  0  0  0  0  0  0  0  0  0
  194.6820  169.1800  143.9160 C   0  0  0  0  0  1  0  0  0  0  0  0
  191.0670  173.2320  143.6740 C   0  0  0  0  0  0  0  0  0  0  0  0
  192.5410  170.7230  144.0510 C   0  0  1  0  0  3  0  0  0  0  0  0
  185.9820  179.0460  145.0960 C   0  0  0  0  0  2  0  0  0  0  0  0
  184.9020  178.7730  146.0830 C   0  0  0  0  0  0  0  0  0  0  0  0
  185.2330  178.4390  147.4250 N   0  0  0  0  0  1  0  0  0  0  0  0
  183.6960  178.8030  145.7220 O   0  0  0  0  0  0  0  0  0  0  0  0
  1 16  1  6  0  0  0
  1 10  1  0  0  0  0
  1 20  1  0  0  0  0
  2 12  1  0  0  0  0
  3  4  1  0  0  0  0
  5  6  1  0  0  0  0
  5 27  1  0  0  0  0
  6 18  1  6  0  0  0
  6 28  1  0  0  0  0
  7 19  1  1  0  0  0
  7 24  1  0  0  0  0
  7 17  1  0  0  0  0
  9 26  1  0  0  0  0
 10 17  1  0  0  0  0
 10 20  1  1  0  0  0
 11  3  1  0  0  0  0
 12  8  1  0  0  0  0
 12 13  2  0  0  0  0
 13 11  1  0  0  0  0
 14 22  2  0  0  0  0
 15  9  2  0  0  0  0
 16 19  1  0  0  0  0
 17  8  1  6  0  0  0
 18 15  1  0  0  0  0
 20 29  1  0  0  0  0
 21  4  1  0  0  0  0
 22 13  1  0  0  0  0
 22 21  1  0  0  0  0
 23 14  1  0  0  0  0
 24  2  1  0  0  0  0
 25  5  2  0  0  0  0
 27  2  2  0  0  0  0
 27 14  1  0  0  0  0
 28  9  1  6  0  0  0
 28 23  1  0  0  0  0
 29 30  1  0  0  0  0
 30 31  1  0  0  0  0
 32 30  2  0  0  0  0
M  END
>  <MODEL>
7

>  <REMARK>
 VINA RESULT:      -7.9      3.490      8.624
  Name = 
  2 active torsions:
  status: ('A' for Active; 'I' for Inactive)
    1  A    between atoms: N_20  and  C_29
    2  A    between atoms: C_29  and  C_30
                            x       y       z     vdW  Elec       q    Type
                         _______ _______ _______ _____ _____    ______ ____

>  <TORSDO>
F 2

$$$$
=
 OpenBabel11112416333D

 32 38  0  0  1  0  0  0  0  0999 V2000
  186.0410  179.3140  143.8350 C   0  0  1  0  0  3  0  0  0  0  0  0
  188.1720  175.1710  141.5190 C   0  0  0  0  0  0  0  0  0  0  0  0
  191.2270  173.2870  144.9570 C   0  0  0  0  0  2  0  0  0  0  0  0
  191.1130  171.9460  144.2570 C   0  0  0  0  0  2  0  0  0  0  0  0
  188.3200  174.2660  139.1320 C   0  0  0  0  0  0  0  0  0  0  0  0
  188.8310  173.1870  138.2870 C   0  0  1  0  0  3  0  0  0  0  0  0
  187.0680  177.3800  142.0100 C   0  0  2  0  0  3  0  0  0  0  0  0
  188.1770  176.1860  143.8610 C   0  0  0  0  0  2  0  0  0  0  0  0
  190.1660  171.4640  137.7730 C   0  0  0  0  0  0  0  0  0  0  0  0
  186.5850  178.0500  144.4010 C   0  0  2  0  0  3  0  0  0  0  0  0
  189.9460  174.0790  144.7340 C   0  0  0  0  0  2  0  0  0  0  0  0
  188.6090  175.1250  142.8690 C   0  0  0  0  0  0  0  0  0  0  0  0
  189.5400  174.1520  143.2780 C   0  0  0  0  0  0  0  0  0  0  0  0
  189.5610  173.2160  141.0280 C   0  0  0  0  0  0  0  0  0  0  0  0
  190.1170  172.2760  136.7700 N   0  0  0  0  0  0  0  0  0  0  0  0
  185.9590  179.4470  142.4110 O   0  0  0  0  0  0  0  0  0  0  0  0
  186.9090  176.9090  143.4340 C   0  0  1  0  0  3  0  0  0  0  0  0
  189.3160  173.3710  137.1050 N   0  0  0  0  0  2  0  0  0  0  0  0
  185.8630  178.2320  141.7050 C   0  0  0  0  0  2  0  0  0  0  0  0
  185.1250  178.2890  144.3640 N   0  0  0  0  0  0  0  0  0  0  0  0
  191.0520  172.1740  142.7530 C   0  0  0  0  0  2  0  0  0  0  0  0
  190.0030  173.1860  142.3570 C   0  0  0  0  0  0  0  0  0  0  0  0
  190.0390  172.2180  140.1020 N   0  0  0  0  0  2  0  0  0  0  0  0
  187.1010  176.1580  141.1080 C   0  0  0  0  0  2  0  0  0  0  0  0
  187.7040  175.2330  138.6090 O   0  0  0  0  0  0  0  0  0  0  0  0
  190.9240  170.1840  137.7410 C   0  0  0  0  0  1  0  0  0  0  0  0
  188.6560  174.2200  140.5890 C   0  0  0  0  0  0  0  0  0  0  0  0
  189.2900  171.9140  138.8880 C   0  0  1  0  0  3  0  0  0  0  0  0
  184.7400  178.7220  145.6960 C   0  0  0  0  0  2  0  0  0  0  0  0
  185.1590  177.7030  146.6960 C   0  0  0  0  0  0  0  0  0  0  0  0
  185.9770  178.0820  147.7970 N   0  0  0  0  0  1  0  0  0  0  0  0
  184.8190  176.5000  146.5500 O   0  0  0  0  0  0  0  0  0  0  0  0
  1 16  1  6  0  0  0
  1 20  1  0  0  0  0
  1 10  1  0  0  0  0
  2 12  1  0  0  0  0
  4  3  1  0  0  0  0
  5 27  1  0  0  0  0
  6 18  1  1  0  0  0
  6 28  1  0  0  0  0
  6  5  1  0  0  0  0
  7 24  1  6  0  0  0
  7 17  1  0  0  0  0
 10 20  1  1  0  0  0
 11  3  1  0  0  0  0
 12 13  2  0  0  0  0
 12  8  1  0  0  0  0
 13 11  1  0  0  0  0
 14 22  2  0  0  0  0
 15 18  1  0  0  0  0
 15  9  2  0  0  0  0
 17  8  1  1  0  0  0
 17 10  1  0  0  0  0
 19  7  1  0  0  0  0
 19 16  1  0  0  0  0
 20 29  1  0  0  0  0
 21  4  1  0  0  0  0
 22 21  1  0  0  0  0
 22 13  1  0  0  0  0
 23 14  1  0  0  0  0
 24  2  1  0  0  0  0
 25  5  2  0  0  0  0
 26  9  1  0  0  0  0
 27 14  1  0  0  0  0
 27  2  2  0  0  0  0
 28  9  1  6  0  0  0
 28 23  1  0  0  0  0
 29 30  1  0  0  0  0
 30 31  1  0  0  0  0
 32 30  2  0  0  0  0
M  END
>  <MODEL>
8

>  <REMARK>
 VINA RESULT:      -7.8      4.076      7.437
  Name = 
  2 active torsions:
  status: ('A' for Active; 'I' for Inactive)
    1  A    between atoms: N_20  and  C_29
    2  A    between atoms: C_29  and  C_30
                            x       y       z     vdW  Elec       q    Type
                         _______ _______ _______ _____ _____    ______ ____

>  <TORSDO>
F 2

$$$$
=
 OpenBabel11112416333D

 32 38  0  0  1  0  0  0  0  0999 V2000
  186.0240  178.4630  141.4650 C   0  0  1  0  0  3  0  0  0  0  0  0
  189.7890  175.4310  143.3890 C   0  0  0  0  0  0  0  0  0  0  0  0
  190.6500  177.2800  147.9220 C   0  0  0  0  0  2  0  0  0  0  0  0
  191.1920  175.9210  148.3220 C   0  0  0  0  0  2  0  0  0  0  0  0
  191.4170  173.6950  142.4530 C   0  0  0  0  0  0  0  0  0  0  0  0
  192.4970  172.7650  142.7790 C   0  0  1  0  0  3  0  0  0  0  0  0
  188.2270  176.7010  141.8770 C   0  0  2  0  0  3  0  0  0  0  0  0
  188.2900  177.3010  144.2690 C   0  0  0  0  0  2  0  0  0  0  0  0
  194.1720  171.9460  144.0220 C   0  0  0  0  0  0  0  0  0  0  0  0
  186.3690  178.1050  142.8680 C   0  0  2  0  0  3  0  0  0  0  0  0
  189.6000  177.0990  146.8330 C   0  0  0  0  0  2  0  0  0  0  0  0
  189.3880  176.2730  144.4600 C   0  0  0  0  0  0  0  0  0  0  0  0
  190.0820  176.2400  145.6830 C   0  0  0  0  0  0  0  0  0  0  0  0
  191.5350  174.4850  144.8190 C   0  0  0  0  0  0  0  0  0  0  0  0
  194.5530  172.0160  142.7900 N   0  0  0  0  0  0  0  0  0  0  0  0
  186.7370  177.8250  140.3990 O   0  0  0  0  0  0  0  0  0  0  0  0
  187.3800  176.9780  143.0940 C   0  0  1  0  0  3  0  0  0  0  0  0
  193.5220  172.5640  142.0210 N   0  0  0  0  0  2  0  0  0  0  0  0
  187.2760  176.5620  140.7160 C   0  0  0  0  0  2  0  0  0  0  0  0
  185.1710  177.5290  142.2180 N   0  0  0  0  0  0  0  0  0  0  0  0
  191.9510  175.3210  147.1460 C   0  0  0  0  0  2  0  0  0  0  0  0
  191.1470  175.3310  145.8670 C   0  0  0  0  0  0  0  0  0  0  0  0
  192.6210  173.5570  145.0260 N   0  0  0  0  0  2  0  0  0  0  0  0
  188.9800  175.4030  142.1100 C   0  0  0  0  0  2  0  0  0  0  0  0
  191.0420  173.8250  141.2580 O   0  0  0  0  0  0  0  0  0  0  0  0
  195.0300  171.3920  145.1040 C   0  0  0  0  0  1  0  0  0  0  0  0
  190.8740  174.5380  143.5630 C   0  0  0  0  0  0  0  0  0  0  0  0
  192.7560  172.3740  144.1840 C   0  0  1  0  0  3  0  0  0  0  0  0
  184.0320  178.2950  142.6930 C   0  0  0  0  0  2  0  0  0  0  0  0
  182.9590  178.2900  141.6620 C   0  0  0  0  0  0  0  0  0  0  0  0
  181.6330  178.6680  142.0130 N   0  0  0  0  0  1  0  0  0  0  0  0
  183.2160  177.9190  140.4870 O   0  0  0  0  0  0  0  0  0  0  0  0
  1 16  1  6  0  0  0
  1 20  1  0  0  0  0
  1 10  1  0  0  0  0
  2 27  2  0  0  0  0
  2 12  1  0  0  0  0
  3  4  1  0  0  0  0
  5  6  1  0  0  0  0
  5 27  1  0  0  0  0
  6 18  1  1  0  0  0
  6 28  1  0  0  0  0
  7 19  1  6  0  0  0
  7 24  1  0  0  0  0
  7 17  1  0  0  0  0
  8 12  1  0  0  0  0
  9 26  1  0  0  0  0
 10 20  1  1  0  0  0
 10 17  1  0  0  0  0
 11  3  1  0  0  0  0
 12 13  2  0  0  0  0
 13 22  1  0  0  0  0
 13 11  1  0  0  0  0
 14 23  1  0  0  0  0
 14 22  2  0  0  0  0
 15  9  2  0  0  0  0
 16 19  1  0  0  0  0
 17  8  1  1  0  0  0
 18 15  1  0  0  0  0
 20 29  1  0  0  0  0
 21  4  1  0  0  0  0
 22 21  1  0  0  0  0
 24  2  1  0  0  0  0
 25  5  2  0  0  0  0
 27 14  1  0  0  0  0
 28  9  1  6  0  0  0
 28 23  1  0  0  0  0
 30 31  1  0  0  0  0
 30 29  1  0  0  0  0
 32 30  2  0  0  0  0
M  END
>  <MODEL>
9

>  <REMARK>
 VINA RESULT:      -7.8      2.450      8.445
  Name = 
  2 active torsions:
  status: ('A' for Active; 'I' for Inactive)
    1  A    between atoms: N_20  and  C_29
    2  A    between atoms: C_29  and  C_30
                            x       y       z     vdW  Elec       q    Type
                         _______ _______ _______ _____ _____    ______ ____

>  <TORSDO>
F 2

$$$$
