=
 OpenBabel11112416243D

 30 35  0  0  1  0  0  0  0  0999 V2000
  190.2680  176.4330  143.4270 C   0  0  2  0  0  3  0  0  0  0  0  0
  192.0640  174.9820  144.5380 C   0  0  0  0  0  0  0  0  0  0  0  0
  188.7900  177.2460  147.1630 O   0  0  0  0  0  0  0  0  0  0  0  0
  188.8030  176.7290  143.7910 C   0  0  2  0  0  3  0  0  0  0  0  0
  190.4870  175.6480  142.2470 O   0  0  0  0  0  0  0  0  0  0  0  0
  187.4180  176.0060  140.5610 O   0  0  0  0  0  0  0  0  0  0  0  0
  185.8580  177.8040  143.3290 C   0  0  1  0  0  3  0  0  0  0  0  0
  188.2080  176.0630  141.5390 C   0  0  0  0  0  0  0  0  0  0  0  0
  186.1270  177.2880  144.7440 C   0  0  2  0  0  3  0  0  0  0  0  0
  187.4810  177.5430  146.8660 C   0  0  0  0  0  0  0  0  0  0  0  0
  189.3170  175.0650  141.6810 C   0  0  2  0  0  3  0  0  0  0  0  0
  188.0630  177.0420  142.5730 N   0  0  0  0  0  0  0  0  0  0  0  0
  192.7550  174.5790  145.6830 C   0  0  0  0  0  3  0  0  0  0  0  0
  184.8110  177.5840  145.4250 C   0  0  0  0  0  2  0  0  0  0  0  0
  184.9680  178.9500  143.4380 N   0  0  0  0  0  2  0  0  0  0  0  0
  192.4430  174.4570  143.3470 F   0  0  0  0  0  0  0  0  0  0  0  0
  189.6450  177.5440  146.0760 C   0  0  2  0  0  3  0  0  0  0  0  0
  192.4310  175.1130  146.9280 C   0  0  0  0  0  3  0  0  0  0  0  0
  191.0140  175.9240  144.6360 C   0  0  0  0  0  0  0  0  0  0  0  0
  188.7120  177.8280  144.8650 C   0  0  2  0  0  3  0  0  0  0  0  0
  186.5650  177.4710  147.7280 O   0  0  0  0  0  0  0  0  0  0  0  0
  187.2890  178.0200  145.4700 C   0  0  1  0  0  3  0  0  0  0  0  0
  184.2040  178.7490  144.6640 C   0  0  0  0  0  2  0  0  0  0  0  0
  186.7830  178.5100  141.2220 O   0  0  0  0  0  1  0  0  0  0  0  0
  191.4140  176.0600  147.0350 C   0  0  0  0  0  3  0  0  0  0  0  0
  190.6980  176.4700  145.9030 C   0  0  0  0  0  0  0  0  0  0  0  0
  187.1090  178.1550  142.5330 C   0  0  1  0  0  3  0  0  0  0  0  0
  188.8710  173.8620  142.4550 C   0  0  0  0  0  3  0  0  0  0  0  0
  189.2450  171.6650  143.4520 C   0  0  0  0  0  1  0  0  0  0  0  0
  189.7040  172.8500  142.6760 C   0  0  0  0  0  3  0  0  0  0  0  0
  1  5  1  6  0  0  0
  1  4  1  0  0  0  0
  1 19  1  0  0  0  0
  2 19  2  0  0  0  0
  2 13  1  0  0  0  0
  4 12  1  6  0  0  0
  4 20  1  0  0  0  0
  6  8  2  0  0  0  0
  7 15  1  1  0  0  0
  7  9  1  0  0  0  0
  8 11  1  0  0  0  0
  8 12  1  0  0  0  0
  9 14  1  1  0  0  0
  9 22  1  0  0  0  0
 10  3  1  0  0  0  0
 10 21  2  0  0  0  0
 11  5  1  0  0  0  0
 11 28  1  1  0  0  0
 13 18  2  0  0  0  0
 15 23  1  0  0  0  0
 16  2  1  0  0  0  0
 17 26  1  6  0  0  0
 17  3  1  0  0  0  0
 18 25  1  0  0  0  0
 19 26  1  0  0  0  0
 20 22  1  0  0  0  0
 20 17  1  0  0  0  0
 22 10  1  0  0  0  0
 23 14  1  0  0  0  0
 24 27  1  0  0  0  0
 26 25  2  0  0  0  0
 27 12  1  0  0  0  0
 27  7  1  0  0  0  0
 28 30  2  0  0  0  0
 30 29  1  0  0  0  0
M  END
>  <MODEL>
1

>  <REMARK>
 VINA RESULT:      -8.9      0.000      0.000
  Name = 
  1 active torsions:
  status: ('A' for Active; 'I' for Inactive)
    1  A    between atoms: C_11  and  C_28
                            x       y       z     vdW  Elec       q    Type
                         _______ _______ _______ _____ _____    ______ ____

>  <TORSDO>
F 1

$$$$
=
 OpenBabel11112416243D

 30 35  0  0  1  0  0  0  0  0999 V2000
  188.6010  177.6390  144.1430 C   0  0  2  0  0  3  0  0  0  0  0  0
  186.3850  178.7270  143.4570 C   0  0  0  0  0  0  0  0  0  0  0  0
  187.9550  174.7970  141.2610 O   0  0  0  0  0  0  0  0  0  0  0  0
  189.0710  176.1750  144.1750 C   0  0  2  0  0  3  0  0  0  0  0  0
  188.4230  178.2810  145.4140 O   0  0  0  0  0  0  0  0  0  0  0  0
  190.3160  176.2120  147.5410 O   0  0  0  0  0  0  0  0  0  0  0  0
  190.9730  173.7520  144.9230 C   0  0  1  0  0  3  0  0  0  0  0  0
  189.7040  176.5280  146.4870 C   0  0  0  0  0  0  0  0  0  0  0  0
  189.8120  173.3810  143.9990 C   0  0  2  0  0  3  0  0  0  0  0  0
  188.6900  173.7480  141.7610 C   0  0  0  0  0  0  0  0  0  0  0  0
  188.5010  177.4190  146.5440 C   0  0  2  0  0  3  0  0  0  0  0  0
  190.0940  176.0250  145.2050 N   0  0  0  0  0  0  0  0  0  0  0  0
  185.3320  178.8570  142.5490 C   0  0  0  0  0  3  0  0  0  0  0  0
  190.0950  171.9210  143.7340 C   0  0  0  0  0  2  0  0  0  0  0  0
  192.1280  172.9660  144.5190 N   0  0  0  0  0  2  0  0  0  0  0  0
  186.3900  179.5340  144.5470 F   0  0  0  0  0  0  0  0  0  0  0  0
  188.4830  176.0410  141.6790 C   0  0  2  0  0  3  0  0  0  0  0  0
  185.2950  178.0780  141.3950 C   0  0  0  0  0  3  0  0  0  0  0  0
  187.4140  177.7870  143.2220 C   0  0  0  0  0  0  0  0  0  0  0  0
  189.5290  175.7120  142.7810 C   0  0  2  0  0  3  0  0  0  0  0  0
  188.4730  172.5550  141.4190 O   0  0  0  0  0  0  0  0  0  0  0  0
  189.7880  174.1790  142.6660 C   0  0  1  0  0  3  0  0  0  0  0  0
  191.5940  171.7530  143.9110 C   0  0  0  0  0  2  0  0  0  0  0  0
  192.2990  175.5060  145.9030 O   0  0  0  0  0  1  0  0  0  0  0  0
  186.3170  177.1660  141.1390 C   0  0  0  0  0  3  0  0  0  0  0  0
  187.3760  177.0060  142.0420 C   0  0  0  0  0  0  0  0  0  0  0  0
  191.3070  175.2390  144.9570 C   0  0  1  0  0  3  0  0  0  0  0  0
  187.2430  176.6240  146.7180 C   0  0  0  0  0  3  0  0  0  0  0  0
  184.8160  176.4160  146.8880 C   0  0  0  0  0  1  0  0  0  0  0  0
  186.0550  177.2220  146.7190 C   0  0  0  0  0  3  0  0  0  0  0  0
  1 19  1  1  0  0  0
  1  4  1  0  0  0  0
  1  5  1  0  0  0  0
  2 16  1  0  0  0  0
  3 10  1  0  0  0  0
  4 12  1  1  0  0  0
  5 11  1  0  0  0  0
  7 15  1  6  0  0  0
  7 27  1  0  0  0  0
  8 11  1  0  0  0  0
  8  6  2  0  0  0  0
  9 14  1  6  0  0  0
  9  7  1  0  0  0  0
 10 22  1  0  0  0  0
 11 28  1  6  0  0  0
 12  8  1  0  0  0  0
 13  2  2  0  0  0  0
 14 23  1  0  0  0  0
 17  3  1  1  0  0  0
 17 26  1  0  0  0  0
 17 20  1  0  0  0  0
 18 13  1  0  0  0  0
 19  2  1  0  0  0  0
 20  4  1  0  0  0  0
 21 10  2  0  0  0  0
 22 20  1  0  0  0  0
 22  9  1  0  0  0  0
 23 15  1  0  0  0  0
 25 18  2  0  0  0  0
 25 26  1  0  0  0  0
 26 19  2  0  0  0  0
 27 12  1  0  0  0  0
 27 24  1  0  0  0  0
 28 30  2  0  0  0  0
 30 29  1  0  0  0  0
M  END
>  <MODEL>
2

>  <REMARK>
 VINA RESULT:      -8.1      2.544      6.610
  Name = 
  1 active torsions:
  status: ('A' for Active; 'I' for Inactive)
    1  A    between atoms: C_11  and  C_28
                            x       y       z     vdW  Elec       q    Type
                         _______ _______ _______ _____ _____    ______ ____

>  <TORSDO>
F 1

$$$$
=
 OpenBabel11112416243D

 30 35  0  0  1  0  0  0  0  0999 V2000
  189.3510  174.4490  144.4870 C   0  0  2  0  0  3  0  0  0  0  0  0
  191.3440  173.3430  143.3160 C   0  0  0  0  0  0  0  0  0  0  0  0
  188.0210  175.6640  140.8050 O   0  0  0  0  0  0  0  0  0  0  0  0
  188.5390  175.7180  144.1760 C   0  0  2  0  0  3  0  0  0  0  0  0
  190.1730  174.4870  145.6610 O   0  0  0  0  0  0  0  0  0  0  0  0
  188.7410  177.1540  147.4590 O   0  0  0  0  0  0  0  0  0  0  0  0
  186.4730  178.0530  144.7420 C   0  0  1  0  0  3  0  0  0  0  0  0
  188.9660  176.4320  146.4510 C   0  0  0  0  0  0  0  0  0  0  0  0
  187.0380  178.0410  143.3210 C   0  0  2  0  0  3  0  0  0  0  0  0
  187.2720  176.7640  141.1490 C   0  0  0  0  0  0  0  0  0  0  0  0
  190.2960  175.7680  146.2730 C   0  0  2  0  0  3  0  0  0  0  0  0
  187.9910  176.2490  145.4200 N   0  0  0  0  0  0  0  0  0  0  0  0
  191.9600  172.8880  142.1480 C   0  0  0  0  0  3  0  0  0  0  0  0
  186.2780  179.1830  142.6870 C   0  0  0  0  0  2  0  0  0  0  0  0
  185.0810  178.4690  144.6610 N   0  0  0  0  0  2  0  0  0  0  0  0
  191.9820  173.1390  144.4940 F   0  0  0  0  0  0  0  0  0  0  0  0
  188.0640  174.7200  141.8580 C   0  0  2  0  0  3  0  0  0  0  0  0
  191.3330  173.0410  140.9130 C   0  0  0  0  0  3  0  0  0  0  0  0
  190.0850  173.9820  143.2530 C   0  0  0  0  0  0  0  0  0  0  0  0
  187.4730  175.4420  143.1020 C   0  0  2  0  0  3  0  0  0  0  0  0
  186.9980  177.6740  140.3220 O   0  0  0  0  0  0  0  0  0  0  0  0
  186.7710  176.7200  142.5490 C   0  0  1  0  0  3  0  0  0  0  0  0
  184.9790  179.2970  143.4660 C   0  0  0  0  0  2  0  0  0  0  0  0
  186.1710  176.8590  146.8110 O   0  0  0  0  0  1  0  0  0  0  0  0
  190.0800  173.6470  140.8410 C   0  0  0  0  0  3  0  0  0  0  0  0
  189.4480  174.1250  141.9960 C   0  0  0  0  0  0  0  0  0  0  0  0
  186.6080  176.7320  145.4900 C   0  0  1  0  0  3  0  0  0  0  0  0
  191.2480  176.6480  145.5210 C   0  0  0  0  0  3  0  0  0  0  0  0
  193.4520  177.1840  144.6190 C   0  0  0  0  0  1  0  0  0  0  0  0
  192.5230  176.3000  145.3730 C   0  0  0  0  0  3  0  0  0  0  0  0
  1 19  1  6  0  0  0
  1  5  1  0  0  0  0
  2 16  1  0  0  0  0
  3 10  1  0  0  0  0
  4  1  1  0  0  0  0
  4 12  1  1  0  0  0
  5 11  1  0  0  0  0
  7 15  1  6  0  0  0
  7 27  1  0  0  0  0
  8  6  2  0  0  0  0
  9 14  1  6  0  0  0
  9  7  1  0  0  0  0
 10 22  1  0  0  0  0
 11 28  1  6  0  0  0
 11  8  1  0  0  0  0
 12 27  1  0  0  0  0
 12  8  1  0  0  0  0
 13  2  2  0  0  0  0
 14 23  1  0  0  0  0
 17  3  1  6  0  0  0
 17 26  1  0  0  0  0
 17 20  1  0  0  0  0
 18 13  1  0  0  0  0
 19  2  1  0  0  0  0
 20  4  1  0  0  0  0
 21 10  2  0  0  0  0
 22 20  1  0  0  0  0
 22  9  1  0  0  0  0
 23 15  1  0  0  0  0
 25 18  2  0  0  0  0
 25 26  1  0  0  0  0
 26 19  2  0  0  0  0
 27 24  1  0  0  0  0
 29 30  1  0  0  0  0
 30 28  2  0  0  0  0
M  END
>  <MODEL>
3

>  <REMARK>
 VINA RESULT:      -7.7      1.664      4.529
  Name = 
  1 active torsions:
  status: ('A' for Active; 'I' for Inactive)
    1  A    between atoms: C_11  and  C_28
                            x       y       z     vdW  Elec       q    Type
                         _______ _______ _______ _____ _____    ______ ____

>  <TORSDO>
F 1

$$$$
=
 OpenBabel11112416243D

 30 35  0  0  1  0  0  0  0  0999 V2000
  191.8320  173.9420  144.7040 C   0  0  2  0  0  3  0  0  0  0  0  0
  193.7550  173.7350  143.0220 C   0  0  0  0  0  0  0  0  0  0  0  0
  189.5170  175.4620  141.6820 O   0  0  0  0  0  0  0  0  0  0  0  0
  190.6840  174.9560  144.8470 C   0  0  2  0  0  3  0  0  0  0  0  0
  192.8410  173.9710  145.7230 O   0  0  0  0  0  0  0  0  0  0  0  0
  191.1900  175.6660  148.3280 O   0  0  0  0  0  0  0  0  0  0  0  0
  188.2630  176.4160  146.2780 C   0  0  1  0  0  3  0  0  0  0  0  0
  191.3760  175.2700  147.1480 C   0  0  0  0  0  0  0  0  0  0  0  0
  188.5100  176.8670  144.8380 C   0  0  2  0  0  3  0  0  0  0  0  0
  188.6050  176.2000  142.3990 C   0  0  0  0  0  0  0  0  0  0  0  0
  192.7640  175.0730  146.6210 C   0  0  2  0  0  3  0  0  0  0  0  0
  190.2880  175.0320  146.2500 N   0  0  0  0  0  0  0  0  0  0  0  0
  194.2120  173.7350  141.7030 C   0  0  0  0  0  3  0  0  0  0  0  0
  187.3770  177.8460  144.6320 C   0  0  0  0  0  2  0  0  0  0  0  0
  186.8250  176.4160  146.5020 N   0  0  0  0  0  2  0  0  0  0  0  0
  194.6510  173.4830  144.0080 F   0  0  0  0  0  0  0  0  0  0  0  0
  190.0090  174.3730  142.4400 C   0  0  2  0  0  3  0  0  0  0  0  0
  193.3280  173.9540  140.6490 C   0  0  0  0  0  3  0  0  0  0  0  0
  192.3910  173.9790  143.3020 C   0  0  0  0  0  0  0  0  0  0  0  0
  189.5240  174.6140  143.8970 C   0  0  2  0  0  3  0  0  0  0  0  0
  187.9490  177.1430  141.8810 O   0  0  0  0  0  0  0  0  0  0  0  0
  188.4280  175.7180  143.7950 C   0  0  1  0  0  3  0  0  0  0  0  0
  186.2780  177.4110  145.5860 C   0  0  0  0  0  2  0  0  0  0  0  0
  188.6980  174.7800  147.9900 O   0  0  0  0  0  1  0  0  0  0  0  0
  191.9760  174.1710  140.9100 C   0  0  0  0  0  3  0  0  0  0  0  0
  191.4960  174.1900  142.2260 C   0  0  0  0  0  0  0  0  0  0  0  0
  188.8720  175.0650  146.6330 C   0  0  1  0  0  3  0  0  0  0  0  0
  193.2920  176.3300  145.9970 C   0  0  0  0  0  3  0  0  0  0  0  0
  195.0790  177.9160  145.4970 C   0  0  0  0  0  1  0  0  0  0  0  0
  194.5720  176.6670  146.1280 C   0  0  0  0  0  3  0  0  0  0  0  0
  1 19  1  6  0  0  0
  1  4  1  0  0  0  0
  1  5  1  0  0  0  0
  2 19  1  0  0  0  0
  2 16  1  0  0  0  0
  3 10  1  0  0  0  0
  4 12  1  1  0  0  0
  5 11  1  0  0  0  0
  7 15  1  6  0  0  0
  7 27  1  0  0  0  0
  8  6  2  0  0  0  0
  9 14  1  6  0  0  0
  9  7  1  0  0  0  0
 10 22  1  0  0  0  0
 11 28  1  6  0  0  0
 11  8  1  0  0  0  0
 12 27  1  0  0  0  0
 12  8  1  0  0  0  0
 13  2  2  0  0  0  0
 14 23  1  0  0  0  0
 17  3  1  6  0  0  0
 17 20  1  0  0  0  0
 18 25  2  0  0  0  0
 18 13  1  0  0  0  0
 20  4  1  0  0  0  0
 21 10  2  0  0  0  0
 22 20  1  0  0  0  0
 22  9  1  0  0  0  0
 23 15  1  0  0  0  0
 25 26  1  0  0  0  0
 26 17  1  0  0  0  0
 26 19  2  0  0  0  0
 27 24  1  0  0  0  0
 28 30  2  0  0  0  0
 29 30  1  0  0  0  0
M  END
>  <MODEL>
4

>  <REMARK>
 VINA RESULT:      -7.4      2.518      5.188
  Name = 
  1 active torsions:
  status: ('A' for Active; 'I' for Inactive)
    1  A    between atoms: C_11  and  C_28
                            x       y       z     vdW  Elec       q    Type
                         _______ _______ _______ _____ _____    ______ ____

>  <TORSDO>
F 1

$$$$
=
 OpenBabel11112416243D

 30 35  0  0  1  0  0  0  0  0999 V2000
  192.6500  175.6040  142.8070 C   0  0  2  0  0  3  0  0  0  0  0  0
  194.9680  174.5120  142.8060 C   0  0  0  0  0  0  0  0  0  0  0  0
  192.9190  175.8810  146.8880 O   0  0  0  0  0  0  0  0  0  0  0  0
  191.4840  175.5610  143.8100 C   0  0  2  0  0  3  0  0  0  0  0  0
  192.4360  174.9480  141.5490 O   0  0  0  0  0  0  0  0  0  0  0  0
  188.9240  174.7330  141.4350 O   0  0  0  0  0  0  0  0  0  0  0  0
  188.5180  176.0060  144.8330 C   0  0  1  0  0  3  0  0  0  0  0  0
  190.0510  174.9050  141.9700 C   0  0  0  0  0  0  0  0  0  0  0  0
  189.4820  175.4840  145.9000 C   0  0  2  0  0  3  0  0  0  0  0  0
  191.5890  175.9070  147.2350 C   0  0  0  0  0  0  0  0  0  0  0  0
  191.2510  174.1610  141.4700 C   0  0  2  0  0  3  0  0  0  0  0  0
  190.2310  175.7740  143.0930 N   0  0  0  0  0  0  0  0  0  0  0  0
  196.1600  174.2040  143.4660 C   0  0  0  0  0  3  0  0  0  0  0  0
  188.5910  175.4550  147.1200 C   0  0  0  0  0  2  0  0  0  0  0  0
  187.5990  176.9280  145.4820 N   0  0  0  0  0  2  0  0  0  0  0  0
  194.8450  174.1450  141.5070 F   0  0  0  0  0  0  0  0  0  0  0  0
  193.1240  176.4130  145.5920 C   0  0  2  0  0  3  0  0  0  0  0  0
  196.3540  174.5890  144.7900 C   0  0  0  0  0  3  0  0  0  0  0  0
  193.9370  175.2010  143.4850 C   0  0  0  0  0  0  0  0  0  0  0  0
  191.7100  176.5560  144.9620 C   0  0  2  0  0  3  0  0  0  0  0  0
  191.1910  175.5960  148.3890 O   0  0  0  0  0  0  0  0  0  0  0  0
  190.7080  176.4070  146.1460 C   0  0  1  0  0  3  0  0  0  0  0  0
  187.5210  176.5040  146.8740 C   0  0  0  0  0  2  0  0  0  0  0  0
  188.2520  177.0050  142.6590 O   0  0  0  0  0  1  0  0  0  0  0  0
  195.3550  175.2910  145.4630 C   0  0  0  0  0  3  0  0  0  0  0  0
  194.1450  175.5990  144.8270 C   0  0  0  0  0  0  0  0  0  0  0  0
  189.1930  176.6580  143.6330 C   0  0  1  0  0  3  0  0  0  0  0  0
  191.4130  172.8500  142.1790 C   0  0  0  0  0  3  0  0  0  0  0  0
  192.5010  170.6930  142.5240 C   0  0  0  0  0  1  0  0  0  0  0  0
  192.3520  171.9870  141.8050 C   0  0  0  0  0  3  0  0  0  0  0  0
  1  5  1  6  0  0  0
  1 19  1  0  0  0  0
  1  4  1  0  0  0  0
  2 13  2  0  0  0  0
  2 19  1  0  0  0  0
  3 10  1  0  0  0  0
  4 12  1  6  0  0  0
  4 20  1  0  0  0  0
  6  8  2  0  0  0  0
  7 15  1  1  0  0  0
  7  9  1  0  0  0  0
  8 12  1  0  0  0  0
  9 22  1  0  0  0  0
  9 14  1  1  0  0  0
 10 21  2  0  0  0  0
 11  5  1  0  0  0  0
 11  8  1  0  0  0  0
 11 28  1  1  0  0  0
 12 27  1  0  0  0  0
 13 18  1  0  0  0  0
 15 23  1  0  0  0  0
 16  2  1  0  0  0  0
 17 26  1  6  0  0  0
 17  3  1  0  0  0  0
 18 25  2  0  0  0  0
 19 26  2  0  0  0  0
 20 17  1  0  0  0  0
 20 22  1  0  0  0  0
 22 10  1  0  0  0  0
 23 14  1  0  0  0  0
 24 27  1  0  0  0  0
 26 25  1  0  0  0  0
 27  7  1  0  0  0  0
 30 28  2  0  0  0  0
 30 29  1  0  0  0  0
M  END
>  <MODEL>
5

>  <REMARK>
 VINA RESULT:      -7.4      2.444      3.528
  Name = 
  1 active torsions:
  status: ('A' for Active; 'I' for Inactive)
    1  A    between atoms: C_11  and  C_28
                            x       y       z     vdW  Elec       q    Type
                         _______ _______ _______ _____ _____    ______ ____

>  <TORSDO>
F 1

$$$$
=
 OpenBabel11112416243D

 30 35  0  0  1  0  0  0  0  0999 V2000
  192.9020  176.4370  144.7530 C   0  0  2  0  0  3  0  0  0  0  0  0
  191.6620  175.8820  146.9260 C   0  0  0  0  0  0  0  0  0  0  0  0
  190.5230  173.7010  142.8410 O   0  0  0  0  0  0  0  0  0  0  0  0
  193.2810  175.5870  143.5290 C   0  0  2  0  0  3  0  0  0  0  0  0
  193.9840  176.8790  145.5850 O   0  0  0  0  0  0  0  0  0  0  0  0
  196.7440  176.5220  143.4300 O   0  0  0  0  0  0  0  0  0  0  0  0
  194.7720  174.9060  140.8170 C   0  0  1  0  0  3  0  0  0  0  0  0
  195.5620  176.3470  143.8270 C   0  0  0  0  0  0  0  0  0  0  0  0
  193.7490  173.8580  141.2540 C   0  0  2  0  0  3  0  0  0  0  0  0
  191.3240  173.3580  141.7780 C   0  0  0  0  0  0  0  0  0  0  0  0
  195.2500  176.2970  145.2910 C   0  0  2  0  0  3  0  0  0  0  0  0
  194.4790  176.1460  142.9120 N   0  0  0  0  0  0  0  0  0  0  0  0
  190.5800  175.2930  147.5830 C   0  0  0  0  0  3  0  0  0  0  0  0
  193.8080  172.8820  140.1020 C   0  0  0  0  0  2  0  0  0  0  0  0
  194.7210  174.9940  139.3650 N   0  0  0  0  0  2  0  0  0  0  0  0
  192.5700  176.5580  147.6710 F   0  0  0  0  0  0  0  0  0  0  0  0
  190.7890  175.0190  143.2820 C   0  0  2  0  0  3  0  0  0  0  0  0
  189.5980  174.6160  146.8620 C   0  0  0  0  0  3  0  0  0  0  0  0
  191.7810  175.7780  145.5210 C   0  0  0  0  0  0  0  0  0  0  0  0
  192.0940  175.4560  142.5590 C   0  0  2  0  0  3  0  0  0  0  0  0
  191.1750  172.2770  141.1480 O   0  0  0  0  0  0  0  0  0  0  0  0
  192.3070  174.4140  141.4180 C   0  0  1  0  0  3  0  0  0  0  0  0
  194.2640  173.6900  138.9000 C   0  0  0  0  0  2  0  0  0  0  0  0
  195.6240  177.1410  141.0900 O   0  0  0  0  0  1  0  0  0  0  0  0
  189.6920  174.5280  145.4750 C   0  0  0  0  0  3  0  0  0  0  0  0
  190.7750  175.0980  144.7930 C   0  0  0  0  0  0  0  0  0  0  0  0
  194.5880  176.2770  141.4550 C   0  0  1  0  0  3  0  0  0  0  0  0
  195.3510  174.8990  145.8210 C   0  0  0  0  0  3  0  0  0  0  0  0
  196.5220  172.7810  146.1390 C   0  0  0  0  0  1  0  0  0  0  0  0
  196.4370  174.1650  145.6000 C   0  0  0  0  0  3  0  0  0  0  0  0
  1 19  1  1  0  0  0
  1  5  1  0  0  0  0
  2 13  1  0  0  0  0
  2 16  1  0  0  0  0
  4 12  1  6  0  0  0
  4  1  1  0  0  0  0
  6  8  2  0  0  0  0
  7 15  1  6  0  0  0
  7  9  1  0  0  0  0
  7 27  1  0  0  0  0
  8 11  1  0  0  0  0
  9 14  1  6  0  0  0
  9 22  1  0  0  0  0
 10  3  1  0  0  0  0
 11  5  1  0  0  0  0
 11 28  1  6  0  0  0
 12  8  1  0  0  0  0
 17  3  1  1  0  0  0
 17 26  1  0  0  0  0
 18 13  2  0  0  0  0
 19  2  2  0  0  0  0
 20 17  1  0  0  0  0
 20  4  1  0  0  0  0
 21 10  2  0  0  0  0
 22 10  1  0  0  0  0
 22 20  1  0  0  0  0
 23 15  1  0  0  0  0
 23 14  1  0  0  0  0
 24 27  1  0  0  0  0
 25 18  1  0  0  0  0
 26 25  2  0  0  0  0
 26 19  1  0  0  0  0
 27 12  1  0  0  0  0
 30 28  2  0  0  0  0
 30 29  1  0  0  0  0
M  END
>  <MODEL>
6

>  <REMARK>
 VINA RESULT:      -7.3      4.360      7.175
  Name = 
  1 active torsions:
  status: ('A' for Active; 'I' for Inactive)
    1  A    between atoms: C_11  and  C_28
                            x       y       z     vdW  Elec       q    Type
                         _______ _______ _______ _____ _____    ______ ____

>  <TORSDO>
F 1

$$$$
=
 OpenBabel11112416243D

 30 35  0  0  1  0  0  0  0  0999 V2000
  191.1140  173.7440  144.9090 C   0  0  2  0  0  3  0  0  0  0  0  0
  189.2240  175.1730  143.9330 C   0  0  0  0  0  0  0  0  0  0  0  0
  193.4270  177.1250  145.0590 O   0  0  0  0  0  0  0  0  0  0  0  0
  192.6450  173.8170  144.7740 C   0  0  2  0  0  3  0  0  0  0  0  0
  190.4710  172.6230  144.2870 O   0  0  0  0  0  0  0  0  0  0  0  0
  193.1490  170.3720  143.9040 O   0  0  0  0  0  0  0  0  0  0  0  0
  195.6330  172.7960  145.0370 C   0  0  1  0  0  3  0  0  0  0  0  0
  192.6020  171.4860  144.1120 C   0  0  0  0  0  0  0  0  0  0  0  0
  195.4990  174.2320  144.5270 C   0  0  2  0  0  3  0  0  0  0  0  0
  194.6880  176.5800  145.0070 C   0  0  0  0  0  0  0  0  0  0  0  0
  191.3060  171.8340  143.4460 C   0  0  2  0  0  3  0  0  0  0  0  0
  193.2030  172.4790  144.9490 N   0  0  0  0  0  0  0  0  0  0  0  0
  188.6740  176.4280  143.6620 C   0  0  0  0  0  3  0  0  0  0  0  0
  196.9480  174.6450  144.4130 C   0  0  0  0  0  2  0  0  0  0  0  0
  196.8100  172.7380  145.8910 N   0  0  0  0  0  2  0  0  0  0  0  0
  188.5010  174.0750  143.6050 F   0  0  0  0  0  0  0  0  0  0  0  0
  192.5020  176.2280  145.6440 C   0  0  2  0  0  3  0  0  0  0  0  0
  189.3590  177.5890  144.0100 C   0  0  0  0  0  3  0  0  0  0  0  0
  190.4940  175.0710  144.5470 C   0  0  0  0  0  0  0  0  0  0  0  0
  193.2350  174.8600  145.7390 C   0  0  2  0  0  3  0  0  0  0  0  0
  195.6910  177.2450  144.6370 O   0  0  0  0  0  0  0  0  0  0  0  0
  194.7420  175.1770  145.5000 C   0  0  1  0  0  3  0  0  0  0  0  0
  197.7020  173.7890  145.4150 C   0  0  0  0  0  2  0  0  0  0  0  0
  194.5660  170.9160  146.0970 O   0  0  0  0  0  1  0  0  0  0  0  0
  190.6000  177.5030  144.6380 C   0  0  0  0  0  3  0  0  0  0  0  0
  191.1790  176.2560  144.9080 C   0  0  0  0  0  0  0  0  0  0  0  0
  194.4040  172.2630  145.7630 C   0  0  1  0  0  3  0  0  0  0  0  0
  191.5370  172.4960  142.1210 C   0  0  0  0  0  3  0  0  0  0  0  0
  190.7660  173.4190  139.9970 C   0  0  0  0  0  1  0  0  0  0  0  0
  190.5190  172.7560  141.3060 C   0  0  0  0  0  3  0  0  0  0  0  0
  1  5  1  6  0  0  0
  2 19  1  0  0  0  0
  3 17  1  0  0  0  0
  4  1  1  0  0  0  0
  4 12  1  1  0  0  0
  4 20  1  0  0  0  0
  6  8  2  0  0  0  0
  7 27  1  0  0  0  0
  7 15  1  1  0  0  0
  8 12  1  0  0  0  0
  9 14  1  1  0  0  0
  9  7  1  0  0  0  0
  9 22  1  0  0  0  0
 10  3  1  0  0  0  0
 10 22  1  0  0  0  0
 11 28  1  6  0  0  0
 11  8  1  0  0  0  0
 11  5  1  0  0  0  0
 12 27  1  0  0  0  0
 13  2  2  0  0  0  0
 13 18  1  0  0  0  0
 14 23  1  0  0  0  0
 16  2  1  0  0  0  0
 17 26  1  6  0  0  0
 17 20  1  0  0  0  0
 18 25  2  0  0  0  0
 19 26  2  0  0  0  0
 19  1  1  0  0  0  0
 21 10  2  0  0  0  0
 22 20  1  0  0  0  0
 23 15  1  0  0  0  0
 25 26  1  0  0  0  0
 27 24  1  0  0  0  0
 29 30  1  0  0  0  0
 30 28  2  0  0  0  0
M  END
>  <MODEL>
7

>  <REMARK>
 VINA RESULT:      -7.1      4.034      7.399
  Name = 
  1 active torsions:
  status: ('A' for Active; 'I' for Inactive)
    1  A    between atoms: C_11  and  C_28
                            x       y       z     vdW  Elec       q    Type
                         _______ _______ _______ _____ _____    ______ ____

>  <TORSDO>
F 1

$$$$
=
 OpenBabel11112416243D

 30 35  0  0  1  0  0  0  0  0999 V2000
  191.5670  176.5020  143.2170 C   0  0  2  0  0  3  0  0  0  0  0  0
  189.4180  177.3960  144.2870 C   0  0  0  0  0  0  0  0  0  0  0  0
  189.4210  173.2670  141.9000 O   0  0  0  0  0  0  0  0  0  0  0  0
  192.0990  175.0760  142.9920 C   0  0  2  0  0  3  0  0  0  0  0  0
  192.2750  177.3050  144.1720 O   0  0  0  0  0  0  0  0  0  0  0  0
  195.3600  175.6240  144.3870 O   0  0  0  0  0  0  0  0  0  0  0  0
  194.2470  172.8570  142.2800 C   0  0  1  0  0  3  0  0  0  0  0  0
  194.1440  175.7680  144.0910 C   0  0  0  0  0  0  0  0  0  0  0  0
  192.8360  172.3170  142.5160 C   0  0  2  0  0  3  0  0  0  0  0  0
  190.4160  172.3270  141.7770 C   0  0  0  0  0  0  0  0  0  0  0  0
  193.2480  176.6100  144.9460 C   0  0  2  0  0  3  0  0  0  0  0  0
  193.5580  175.1100  142.9630 N   0  0  0  0  0  0  0  0  0  0  0  0
  188.0280  177.3580  144.4220 C   0  0  0  0  0  3  0  0  0  0  0  0
  193.0260  170.8460  142.2250 C   0  0  0  0  0  2  0  0  0  0  0  0
  194.8500  172.0690  141.2160 N   0  0  0  0  0  2  0  0  0  0  0  0
  190.1000  178.3440  144.9750 F   0  0  0  0  0  0  0  0  0  0  0  0
  189.9240  174.5780  141.7210 C   0  0  2  0  0  3  0  0  0  0  0  0
  187.2750  176.4270  143.7100 C   0  0  0  0  0  3  0  0  0  0  0  0
  190.0750  176.4740  143.4390 C   0  0  0  0  0  0  0  0  0  0  0  0
  191.4730  174.4440  141.7360 C   0  0  2  0  0  3  0  0  0  0  0  0
  190.1740  171.0910  141.7790 O   0  0  0  0  0  0  0  0  0  0  0  0
  191.7630  172.9220  141.5690 C   0  0  1  0  0  3  0  0  0  0  0  0
  194.2020  170.7640  141.2680 C   0  0  0  0  0  2  0  0  0  0  0  0
  195.6360  174.7800  141.8720 O   0  0  0  0  0  1  0  0  0  0  0  0
  187.9080  175.5300  142.8530 C   0  0  0  0  0  3  0  0  0  0  0  0
  189.3020  175.5380  142.7110 C   0  0  0  0  0  0  0  0  0  0  0  0
  194.3110  174.3460  141.9630 C   0  0  1  0  0  3  0  0  0  0  0  0
  192.6100  175.7960  146.0310 C   0  0  0  0  0  3  0  0  0  0  0  0
  191.2150  175.5480  148.0190 C   0  0  0  0  0  1  0  0  0  0  0  0
  191.8440  176.3730  146.9520 C   0  0  0  0  0  3  0  0  0  0  0  0
  1 19  1  1  0  0  0
  1  5  1  0  0  0  0
  2 13  1  0  0  0  0
  2 16  1  0  0  0  0
  4 12  1  6  0  0  0
  4  1  1  0  0  0  0
  5 11  1  0  0  0  0
  7 15  1  6  0  0  0
  7  9  1  0  0  0  0
  8  6  2  0  0  0  0
  8 11  1  0  0  0  0
  9 14  1  6  0  0  0
 10 21  2  0  0  0  0
 10  3  1  0  0  0  0
 11 28  1  1  0  0  0
 12  8  1  0  0  0  0
 15 23  1  0  0  0  0
 17 20  1  0  0  0  0
 17  3  1  1  0  0  0
 17 26  1  0  0  0  0
 18 13  2  0  0  0  0
 19  2  2  0  0  0  0
 20  4  1  0  0  0  0
 22 20  1  0  0  0  0
 22 10  1  0  0  0  0
 22  9  1  0  0  0  0
 23 14  1  0  0  0  0
 24 27  1  0  0  0  0
 25 18  1  0  0  0  0
 26 25  2  0  0  0  0
 26 19  1  0  0  0  0
 27  7  1  0  0  0  0
 27 12  1  0  0  0  0
 28 30  2  0  0  0  0
 30 29  1  0  0  0  0
M  END
>  <MODEL>
8

>  <REMARK>
 VINA RESULT:      -7.0      3.370      7.203
  Name = 
  1 active torsions:
  status: ('A' for Active; 'I' for Inactive)
    1  A    between atoms: C_11  and  C_28
                            x       y       z     vdW  Elec       q    Type
                         _______ _______ _______ _____ _____    ______ ____

>  <TORSDO>
F 1

$$$$
=
 OpenBabel11112416243D

 30 35  0  0  1  0  0  0  0  0999 V2000
  191.5770  173.2030  143.9990 C   0  0  2  0  0  3  0  0  0  0  0  0
  193.0830  172.4810  142.0560 C   0  0  0  0  0  0  0  0  0  0  0  0
  189.0680  174.9240  141.2520 O   0  0  0  0  0  0  0  0  0  0  0  0
  190.6840  174.4370  144.2160 C   0  0  2  0  0  3  0  0  0  0  0  0
  192.7440  173.1040  144.8270 O   0  0  0  0  0  0  0  0  0  0  0  0
  191.9470  175.2950  147.4640 O   0  0  0  0  0  0  0  0  0  0  0  0
  188.8840  176.4640  145.8570 C   0  0  1  0  0  3  0  0  0  0  0  0
  191.8350  174.7790  146.3210 C   0  0  0  0  0  0  0  0  0  0  0  0
  188.9400  176.7430  144.3540 C   0  0  2  0  0  3  0  0  0  0  0  0
  188.4570  175.8840  142.0240 C   0  0  0  0  0  0  0  0  0  0  0  0
  193.0410  174.2650  145.5960 C   0  0  2  0  0  3  0  0  0  0  0  0
  190.5750  174.6990  145.6480 N   0  0  0  0  0  0  0  0  0  0  0  0
  193.2810  172.2860  140.6870 C   0  0  0  0  0  3  0  0  0  0  0  0
  187.9910  177.9130  144.2310 C   0  0  0  0  0  2  0  0  0  0  0  0
  187.5380  176.7730  146.3140 N   0  0  0  0  0  2  0  0  0  0  0  0
  194.0830  172.1280  142.9010 F   0  0  0  0  0  0  0  0  0  0  0  0
  189.4790  173.8190  142.0350 C   0  0  2  0  0  3  0  0  0  0  0  0
  192.2730  172.5980  139.7770 C   0  0  0  0  0  3  0  0  0  0  0  0
  191.8640  173.0170  142.5290 C   0  0  0  0  0  0  0  0  0  0  0  0
  189.3250  174.2650  143.5160 C   0  0  2  0  0  3  0  0  0  0  0  0
  187.9050  176.8980  141.5200 O   0  0  0  0  0  0  0  0  0  0  0  0
  188.4550  175.5580  143.4750 C   0  0  1  0  0  3  0  0  0  0  0  0
  187.0260  177.7850  145.3970 C   0  0  0  0  0  2  0  0  0  0  0  0
  189.3150  174.9100  147.6450 O   0  0  0  0  0  1  0  0  0  0  0  0
  191.0580  173.1040  140.2320 C   0  0  0  0  0  3  0  0  0  0  0  0
  190.8410  173.3230  141.5990 C   0  0  0  0  0  0  0  0  0  0  0  0
  189.2860  175.0490  146.2550 C   0  0  1  0  0  3  0  0  0  0  0  0
  193.6690  175.3370  144.7570 C   0  0  0  0  0  3  0  0  0  0  0  0
  195.4170  176.1870  143.2810 C   0  0  0  0  0  1  0  0  0  0  0  0
  194.8110  175.1130  144.1130 C   0  0  0  0  0  3  0  0  0  0  0  0
  1 19  1  6  0  0  0
  1  4  1  0  0  0  0
  1  5  1  0  0  0  0
  2 19  1  0  0  0  0
  2 16  1  0  0  0  0
  3 10  1  0  0  0  0
  4 12  1  1  0  0  0
  5 11  1  0  0  0  0
  7 27  1  0  0  0  0
  7 15  1  6  0  0  0
  8  6  2  0  0  0  0
  9 14  1  1  0  0  0
  9  7  1  0  0  0  0
 10 22  1  0  0  0  0
 11 28  1  6  0  0  0
 11  8  1  0  0  0  0
 12 27  1  0  0  0  0
 12  8  1  0  0  0  0
 13  2  2  0  0  0  0
 14 23  1  0  0  0  0
 17  3  1  6  0  0  0
 17 20  1  0  0  0  0
 18 25  2  0  0  0  0
 18 13  1  0  0  0  0
 20  4  1  0  0  0  0
 21 10  2  0  0  0  0
 22 20  1  0  0  0  0
 22  9  1  0  0  0  0
 23 15  1  0  0  0  0
 25 26  1  0  0  0  0
 26 17  1  0  0  0  0
 26 19  2  0  0  0  0
 27 24  1  0  0  0  0
 29 30  1  0  0  0  0
 30 28  2  0  0  0  0
M  END
>  <MODEL>
9

>  <REMARK>
 VINA RESULT:      -7.0      2.507      5.312
  Name = 
  1 active torsions:
  status: ('A' for Active; 'I' for Inactive)
    1  A    between atoms: C_11  and  C_28
                            x       y       z     vdW  Elec       q    Type
                         _______ _______ _______ _____ _____    ______ ____

>  <TORSDO>
F 1

$$$$
