=
 OpenBabel11112418093D

 34 40  0  0  1  0  0  0  0  0999 V2000
  189.3080  174.6120  143.0030 C   0  0  1  0  0  3  0  0  0  0  0  0
  191.6710  173.6310  143.1560 C   0  0  0  0  0  2  0  0  0  0  0  0
  185.2580  179.5890  144.6170 C   0  0  1  0  0  3  0  0  0  0  0  0
  187.1510  175.8220  142.9390 C   0  0  2  0  0  3  0  0  0  0  0  0
  186.5150  177.3860  144.8110 C   0  0  0  0  0  0  0  0  0  0  0  0
  185.9220  178.7580  146.8750 C   0  0  0  0  0  1  0  0  0  0  0  0
  186.4180  180.1720  144.1210 F   0  0  0  0  0  0  0  0  0  0  0  0
  184.8840  178.6520  142.5520 C   0  0  0  0  0  2  0  0  0  0  0  0
  190.5700  174.4770  145.0680 N   0  0  2  0  0  0  0  0  0  0  0  0
  192.2750  176.0270  147.3170 C   0  0  0  0  0  2  0  0  0  0  0  0
  187.8400  177.1130  145.5070 C   0  0  0  0  0  2  0  0  0  0  0  0
  184.9590  177.1650  142.8690 C   0  0  0  0  0  2  0  0  0  0  0  0
  189.8950  175.6430  145.6790 C   0  0  1  0  0  3  0  0  0  0  0  0
  192.6550  173.5460  144.3080 C   0  0  0  0  0  2  0  0  0  0  0  0
  186.2470  176.8560  143.5830 C   0  0  0  0  0  0  0  0  0  0  0  0
  184.2900  179.3510  143.6180 O   0  0  0  0  0  0  0  0  0  0  0  0
  192.7390  175.4680  145.9610 C   0  0  1  0  0  3  0  0  0  0  0  0
  188.5450  175.8060  143.5600 C   0  0  1  0  0  3  0  0  0  0  0  0
  185.5270  178.3410  145.4650 C   0  0  1  0  0  3  0  0  0  0  0  0
  188.4780  175.7940  145.0820 C   0  0  2  0  0  3  0  0  0  0  0  0
  187.8740  174.8910  140.9930 C   0  0  0  0  0  2  0  0  0  0  0  0
  191.1050  175.2590  147.9330 C   0  0  0  0  0  2  0  0  0  0  0  0
  187.2790  176.0440  141.5520 O   0  0  0  0  0  0  0  0  0  0  0  0
  189.7800  175.5070  147.2060 C   0  0  0  0  0  2  0  0  0  0  0  0
  191.9560  174.2160  145.4900 C   0  0  1  0  0  3  0  0  0  0  0  0
  189.3230  174.7300  141.4800 C   0  0  0  0  0  2  0  0  0  0  0  0
  190.6900  174.6740  143.6300 C   0  0  2  0  0  3  0  0  0  0  0  0
  192.7080  176.4830  144.9970 O   0  0  0  0  0  0  0  0  0  0  0  0
  194.0410  176.8550  144.8100 C   0  0  0  0  0  2  0  0  0  0  0  0
  194.7450  176.0960  141.3070 C   0  0  0  0  0  2  0  0  0  0  0  0
  196.3590  176.5770  143.3890 S   0  0  0  0  0  0  0  0  0  0  0  0
  194.6180  176.1110  143.6210 C   0  0  2  0  0  3  0  0  0  0  0  0
  196.1120  176.6690  141.5980 C   0  0  0  0  0  2  0  0  0  0  0  0
  193.8710  176.4340  142.4150 N   0  0  0  0  0  2  0  0  0  0  0  0
  1 26  1  6  0  0  0
  1 18  1  0  0  0  0
  1 27  1  0  0  0  0
  2 27  1  0  0  0  0
  2 14  1  0  0  0  0
  3  7  1  6  0  0  0
  3 19  1  0  0  0  0
  4 23  1  6  0  0  0
  4 18  1  0  0  0  0
  4 15  1  0  0  0  0
  5 19  1  0  0  0  0
  5 11  1  0  0  0  0
  8 12  1  0  0  0  0
  8 16  1  0  0  0  0
  9 25  1  0  0  0  0
  9 13  1  0  0  0  0
 10 22  1  0  0  0  0
 12 15  1  0  0  0  0
 13 24  1  0  0  0  0
 14 25  1  0  0  0  0
 15  5  2  0  0  0  0
 16  3  1  0  0  0  0
 17 10  1  0  0  0  0
 18 20  1  0  0  0  0
 19  6  1  0  0  0  0
 20 11  1  0  0  0  0
 20 13  1  0  0  0  0
 21 26  1  0  0  0  0
 21 23  1  0  0  0  0
 24 22  1  0  0  0  0
 25 17  1  0  0  0  0
 27  9  1  0  0  0  0
 28 17  1  0  0  0  0
 29 28  1  0  0  0  0
 30 33  1  0  0  0  0
 30 34  1  0  0  0  0
 31 32  1  0  0  0  0
 32 29  1  0  0  0  0
 33 31  1  0  0  0  0
 34 32  1  0  0  0  0
M  END
>  <MODEL>
1

>  <REMARK>
 VINA RESULT:      -8.8      0.000      0.000
  Name = 
  3 active torsions:
  status: ('A' for Active; 'I' for Inactive)
    1  A    between atoms: C_17  and  O_28
    2  A    between atoms: O_28  and  C_29
    3  A    between atoms: C_29  and  C_32
                            x       y       z     vdW  Elec       q    Type
                         _______ _______ _______ _____ _____    ______ ____

>  <TORSDO>
F 3

$$$$
=
 OpenBabel11112418093D

 34 40  0  0  1  0  0  0  0  0999 V2000
  191.8210  176.6470  146.1040 C   0  0  1  0  0  3  0  0  0  0  0  0
  194.0940  175.5690  146.5980 C   0  0  0  0  0  2  0  0  0  0  0  0
  186.1520  176.3210  142.7080 C   0  0  1  0  0  3  0  0  0  0  0  0
  189.5480  177.4220  145.5090 C   0  0  2  0  0  3  0  0  0  0  0  0
  188.5740  176.8840  143.2480 C   0  0  0  0  0  0  0  0  0  0  0  0
  187.8160  176.4490  140.8530 C   0  0  0  0  0  1  0  0  0  0  0  0
  186.3550  175.0590  143.2540 F   0  0  0  0  0  0  0  0  0  0  0  0
  185.9720  177.1770  144.8330 C   0  0  0  0  0  2  0  0  0  0  0  0
  193.3310  175.8590  144.3800 N   0  0  2  0  0  0  0  0  0  0  0  0
  194.0000  173.6130  142.1720 C   0  0  0  0  0  2  0  0  0  0  0  0
  189.8290  176.1080  142.8760 C   0  0  0  0  0  2  0  0  0  0  0  0
  187.1570  178.1330  144.8840 C   0  0  0  0  0  2  0  0  0  0  0  0
  192.2480  175.5870  143.4090 C   0  0  1  0  0  3  0  0  0  0  0  0
  195.1250  174.9290  145.6870 C   0  0  0  0  0  2  0  0  0  0  0  0
  188.4180  177.4080  144.4970 C   0  0  0  0  0  0  0  0  0  0  0  0
  185.4010  177.1710  143.5490 O   0  0  0  0  0  0  0  0  0  0  0  0
  194.3050  173.6130  143.6800 C   0  0  1  0  0  3  0  0  0  0  0  0
  190.6460  176.4200  145.1630 C   0  0  1  0  0  3  0  0  0  0  0  0
  187.4470  176.9850  142.2290 C   0  0  1  0  0  3  0  0  0  0  0  0
  191.0480  176.5160  143.6970 C   0  0  2  0  0  3  0  0  0  0  0  0
  190.1130  177.4670  147.7120 C   0  0  0  0  0  2  0  0  0  0  0  0
  193.9540  175.0100  141.5520 C   0  0  0  0  0  2  0  0  0  0  0  0
  189.0770  177.1430  146.8090 O   0  0  0  0  0  0  0  0  0  0  0  0
  192.7080  175.8020  141.9580 C   0  0  0  0  0  2  0  0  0  0  0  0
  194.5390  175.0230  144.2790 C   0  0  1  0  0  3  0  0  0  0  0  0
  191.3110  176.5180  147.5380 C   0  0  0  0  0  2  0  0  0  0  0  0
  192.8580  175.6020  145.7330 C   0  0  2  0  0  3  0  0  0  0  0  0
  193.2950  172.9280  144.3650 O   0  0  0  0  0  0  0  0  0  0  0  0
  192.9490  171.8570  143.5380 C   0  0  0  0  0  2  0  0  0  0  0  0
  189.4120  172.2810  144.3470 C   0  0  0  0  0  2  0  0  0  0  0  0
  190.6430  171.2380  142.2090 S   0  0  0  0  0  0  0  0  0  0  0  0
  191.5070  171.4600  143.7920 C   0  0  2  0  0  3  0  0  0  0  0  0
  189.1910  172.0980  142.8640 C   0  0  0  0  0  2  0  0  0  0  0  0
  190.8310  172.4900  144.5660 N   0  0  0  0  0  2  0  0  0  0  0  0
  1 26  1  1  0  0  0
  3  7  1  1  0  0  0
  3 16  1  0  0  0  0
  4 15  1  6  0  0  0
  4 23  1  0  0  0  0
  5 15  2  0  0  0  0
  6 19  1  0  0  0  0
  8 12  1  0  0  0  0
  9 27  1  0  0  0  0
 10 17  1  0  0  0  0
 11  5  1  0  0  0  0
 11 20  1  0  0  0  0
 13 20  1  0  0  0  0
 13  9  1  0  0  0  0
 14  2  1  0  0  0  0
 15 12  1  0  0  0  0
 16  8  1  0  0  0  0
 17 25  1  0  0  0  0
 17 28  1  0  0  0  0
 18  4  1  0  0  0  0
 18  1  1  0  0  0  0
 19  3  1  0  0  0  0
 19  5  1  0  0  0  0
 20 18  1  0  0  0  0
 22 24  1  0  0  0  0
 22 10  1  0  0  0  0
 23 21  1  0  0  0  0
 24 13  1  0  0  0  0
 25  9  1  0  0  0  0
 25 14  1  0  0  0  0
 26 21  1  0  0  0  0
 27  1  1  0  0  0  0
 27  2  1  0  0  0  0
 29 32  1  0  0  0  0
 29 28  1  0  0  0  0
 30 34  1  0  0  0  0
 31 33  1  0  0  0  0
 31 32  1  0  0  0  0
 32 34  1  0  0  0  0
 33 30  1  0  0  0  0
M  END
>  <MODEL>
2

>  <REMARK>
 VINA RESULT:      -8.0      2.502      4.928
  Name = 
  3 active torsions:
  status: ('A' for Active; 'I' for Inactive)
    1  A    between atoms: C_17  and  O_28
    2  A    between atoms: O_28  and  C_29
    3  A    between atoms: C_29  and  C_32
                            x       y       z     vdW  Elec       q    Type
                         _______ _______ _______ _____ _____    ______ ____

>  <TORSDO>
F 3

$$$$
=
 OpenBabel11112418093D

 34 40  0  0  1  0  0  0  0  0999 V2000
  192.0930  176.5850  146.1960 C   0  0  1  0  0  3  0  0  0  0  0  0
  194.4410  175.6060  146.5080 C   0  0  0  0  0  2  0  0  0  0  0  0
  186.3810  176.3340  142.8650 C   0  0  1  0  0  3  0  0  0  0  0  0
  189.7620  177.2780  145.7410 C   0  0  2  0  0  3  0  0  0  0  0  0
  188.7730  176.9820  143.4420 C   0  0  0  0  0  0  0  0  0  0  0  0
  187.9920  176.8190  141.0210 C   0  0  0  0  0  1  0  0  0  0  0  0
  186.6790  175.0270  143.2340 F   0  0  0  0  0  0  0  0  0  0  0  0
  186.1950  176.8850  145.0880 C   0  0  0  0  0  2  0  0  0  0  0  0
  193.6120  176.1370  144.3600 N   0  0  2  0  0  0  0  0  0  0  0  0
  194.3750  174.2550  141.8610 C   0  0  0  0  0  2  0  0  0  0  0  0
  190.0670  176.3480  142.9520 C   0  0  0  0  0  2  0  0  0  0  0  0
  187.3170  177.9030  145.2500 C   0  0  0  0  0  2  0  0  0  0  0  0
  192.5270  175.9240  143.3770 C   0  0  1  0  0  3  0  0  0  0  0  0
  195.4910  175.1640  145.5060 C   0  0  0  0  0  2  0  0  0  0  0  0
  188.6130  177.3230  144.7530 C   0  0  0  0  0  0  0  0  0  0  0  0
  185.5960  177.0120  143.8220 O   0  0  0  0  0  0  0  0  0  0  0  0
  194.7130  174.0750  143.3520 C   0  0  1  0  0  3  0  0  0  0  0  0
  190.9140  176.4070  145.2490 C   0  0  1  0  0  3  0  0  0  0  0  0
  187.6200  177.1420  142.4610 C   0  0  1  0  0  3  0  0  0  0  0  0
  191.2760  176.7240  143.8040 C   0  0  2  0  0  3  0  0  0  0  0  0
  190.3730  177.0670  147.9220 C   0  0  0  0  0  2  0  0  0  0  0  0
  194.2250  175.7160  141.4350 C   0  0  0  0  0  2  0  0  0  0  0  0
  189.3390  176.7970  146.9980 O   0  0  0  0  0  0  0  0  0  0  0  0
  192.9390  176.3610  141.9620 C   0  0  0  0  0  2  0  0  0  0  0  0
  194.8690  175.4050  144.1310 C   0  0  1  0  0  3  0  0  0  0  0  0
  191.6250  176.2320  147.6060 C   0  0  0  0  0  2  0  0  0  0  0  0
  193.1870  175.6710  145.6730 C   0  0  2  0  0  3  0  0  0  0  0  0
  193.7660  173.2380  143.9530 O   0  0  0  0  0  0  0  0  0  0  0  0
  194.3080  171.9530  143.8760 C   0  0  0  0  0  2  0  0  0  0  0  0
  194.8750  169.5050  146.5270 C   0  0  0  0  0  2  0  0  0  0  0  0
  196.3680  171.5370  145.6220 S   0  0  0  0  0  0  0  0  0  0  0  0
  194.5880  171.4320  145.2730 C   0  0  2  0  0  3  0  0  0  0  0  0
  196.3280  169.8990  146.3940 C   0  0  0  0  0  2  0  0  0  0  0  0
  194.1570  170.0480  145.3890 N   0  0  0  0  0  2  0  0  0  0  0  0
  1 26  1  1  0  0  0
  3  7  1  1  0  0  0
  3 16  1  0  0  0  0
  4 15  1  6  0  0  0
  4 23  1  0  0  0  0
  5 15  2  0  0  0  0
  6 19  1  0  0  0  0
  8 12  1  0  0  0  0
  9 27  1  0  0  0  0
 10 17  1  0  0  0  0
 11  5  1  0  0  0  0
 11 20  1  0  0  0  0
 13 20  1  0  0  0  0
 13  9  1  0  0  0  0
 14  2  1  0  0  0  0
 15 12  1  0  0  0  0
 16  8  1  0  0  0  0
 17 28  1  0  0  0  0
 17 25  1  0  0  0  0
 18  4  1  0  0  0  0
 18  1  1  0  0  0  0
 19  3  1  0  0  0  0
 19  5  1  0  0  0  0
 20 18  1  0  0  0  0
 22 10  1  0  0  0  0
 22 24  1  0  0  0  0
 23 21  1  0  0  0  0
 24 13  1  0  0  0  0
 25  9  1  0  0  0  0
 25 14  1  0  0  0  0
 26 21  1  0  0  0  0
 27  1  1  0  0  0  0
 27  2  1  0  0  0  0
 29 28  1  0  0  0  0
 29 32  1  0  0  0  0
 31 33  1  0  0  0  0
 32 34  1  0  0  0  0
 32 31  1  0  0  0  0
 33 30  1  0  0  0  0
 34 30  1  0  0  0  0
M  END
>  <MODEL>
3

>  <REMARK>
 VINA RESULT:      -7.5      2.745      5.022
  Name = 
  3 active torsions:
  status: ('A' for Active; 'I' for Inactive)
    1  A    between atoms: C_17  and  O_28
    2  A    between atoms: O_28  and  C_29
    3  A    between atoms: C_29  and  C_32
                            x       y       z     vdW  Elec       q    Type
                         _______ _______ _______ _____ _____    ______ ____

>  <TORSDO>
F 3

$$$$
=
 OpenBabel11112418093D

 34 40  0  0  1  0  0  0  0  0999 V2000
  192.3070  173.3180  142.6450 C   0  0  1  0  0  3  0  0  0  0  0  0
  194.7540  172.8830  143.2730 C   0  0  0  0  0  2  0  0  0  0  0  0
  187.4450  177.7670  142.0490 C   0  0  1  0  0  3  0  0  0  0  0  0
  190.0210  174.0300  142.0230 C   0  0  2  0  0  3  0  0  0  0  0  0
  188.9710  176.0390  143.1270 C   0  0  0  0  0  0  0  0  0  0  0  0
  187.9690  177.9500  144.4830 C   0  0  0  0  0  1  0  0  0  0  0  0
  188.5590  178.3150  141.4250 F   0  0  0  0  0  0  0  0  0  0  0  0
  187.4340  176.0870  140.4810 C   0  0  0  0  0  2  0  0  0  0  0  0
  193.3430  174.1700  144.6650 N   0  0  2  0  0  0  0  0  0  0  0  0
  194.5570  176.7050  146.2340 C   0  0  0  0  0  2  0  0  0  0  0  0
  190.2380  176.2720  143.9370 C   0  0  0  0  0  2  0  0  0  0  0  0
  187.6830  174.8560  141.3430 C   0  0  0  0  0  2  0  0  0  0  0  0
  192.4480  175.3450  144.7530 C   0  0  1  0  0  3  0  0  0  0  0  0
  195.6080  173.3970  144.4170 C   0  0  0  0  0  2  0  0  0  0  0  0
  188.9160  175.0570  142.1810 C   0  0  0  0  0  0  0  0  0  0  0  0
  186.6350  177.0160  141.1710 O   0  0  0  0  0  0  0  0  0  0  0  0
  195.2410  175.7760  145.2160 C   0  0  1  0  0  3  0  0  0  0  0  0
  191.3270  174.4830  142.6690 C   0  0  1  0  0  3  0  0  0  0  0  0
  187.7930  176.9830  143.3200 C   0  0  1  0  0  3  0  0  0  0  0  0
  191.0970  175.0200  144.0760 C   0  0  2  0  0  3  0  0  0  0  0  0
  191.0750  172.5880  140.6140 C   0  0  0  0  0  2  0  0  0  0  0  0
  193.4470  176.0290  147.0390 C   0  0  0  0  0  2  0  0  0  0  0  0
  190.2670  173.7460  140.6630 O   0  0  0  0  0  0  0  0  0  0  0  0
  192.1880  175.7620  146.2100 C   0  0  0  0  0  2  0  0  0  0  0  0
  194.6980  174.3240  145.2200 C   0  0  1  0  0  3  0  0  0  0  0  0
  192.4720  172.8690  141.1940 C   0  0  0  0  0  2  0  0  0  0  0  0
  193.5900  173.8410  143.2670 C   0  0  2  0  0  3  0  0  0  0  0  0
  195.1720  176.3430  143.9390 O   0  0  0  0  0  0  0  0  0  0  0  0
  196.4640  176.8000  143.6680 C   0  0  0  0  0  2  0  0  0  0  0  0
  197.4110  174.8900  140.7020 C   0  0  0  0  0  2  0  0  0  0  0  0
  195.2770  176.4170  141.2370 S   0  0  0  0  0  0  0  0  0  0  0  0
  196.8040  176.5390  142.2130 C   0  0  2  0  0  3  0  0  0  0  0  0
  195.9510  175.0030  140.3300 C   0  0  0  0  0  2  0  0  0  0  0  0
  197.5540  175.2980  142.0870 N   0  0  0  0  0  2  0  0  0  0  0  0
  1 26  1  6  0  0  0
  1 18  1  0  0  0  0
  1 27  1  0  0  0  0
  2 14  1  0  0  0  0
  3  7  1  6  0  0  0
  3 19  1  0  0  0  0
  4 23  1  6  0  0  0
  4 15  1  0  0  0  0
  4 18  1  0  0  0  0
  5 19  1  0  0  0  0
  5 11  1  0  0  0  0
  8 16  1  0  0  0  0
  8 12  1  0  0  0  0
  9 13  1  0  0  0  0
  9 25  1  0  0  0  0
 10 22  1  0  0  0  0
 11 20  1  0  0  0  0
 12 15  1  0  0  0  0
 13 24  1  0  0  0  0
 14 25  1  0  0  0  0
 15  5  2  0  0  0  0
 16  3  1  0  0  0  0
 17 25  1  0  0  0  0
 17 10  1  0  0  0  0
 18 20  1  0  0  0  0
 19  6  1  0  0  0  0
 20 13  1  0  0  0  0
 21 23  1  0  0  0  0
 21 26  1  0  0  0  0
 24 22  1  0  0  0  0
 27  2  1  0  0  0  0
 27  9  1  0  0  0  0
 28 17  1  0  0  0  0
 29 28  1  0  0  0  0
 30 34  1  0  0  0  0
 31 32  1  0  0  0  0
 32 29  1  0  0  0  0
 33 30  1  0  0  0  0
 33 31  1  0  0  0  0
 34 32  1  0  0  0  0
M  END
>  <MODEL>
4

>  <REMARK>
 VINA RESULT:      -7.5      2.133      3.224
  Name = 
  3 active torsions:
  status: ('A' for Active; 'I' for Inactive)
    1  A    between atoms: C_17  and  O_28
    2  A    between atoms: O_28  and  C_29
    3  A    between atoms: C_29  and  C_32
                            x       y       z     vdW  Elec       q    Type
                         _______ _______ _______ _____ _____    ______ ____

>  <TORSDO>
F 3

$$$$
=
 OpenBabel11112418093D

 34 40  0  0  1  0  0  0  0  0999 V2000
  191.9030  175.7600  145.8500 C   0  0  1  0  0  3  0  0  0  0  0  0
  189.4800  176.1400  146.5960 C   0  0  0  0  0  2  0  0  0  0  0  0
  196.2840  176.0170  140.8990 C   0  0  1  0  0  3  0  0  0  0  0  0
  194.1750  175.5630  144.8910 C   0  0  2  0  0  3  0  0  0  0  0  0
  194.4810  175.0890  142.4350 C   0  0  0  0  0  0  0  0  0  0  0  0
  194.6230  174.3940  139.9860 C   0  0  0  0  0  1  0  0  0  0  0  0
  195.6080  177.2310  140.8880 F   0  0  0  0  0  0  0  0  0  0  0  0
  197.1210  176.5400  142.9750 C   0  0  0  0  0  2  0  0  0  0  0  0
  189.9800  174.9730  144.6030 N   0  0  2  0  0  0  0  0  0  0  0  0
  188.0710  175.3380  142.0360 C   0  0  0  0  0  2  0  0  0  0  0  0
  192.9720  175.0970  142.2320 C   0  0  0  0  0  2  0  0  0  0  0  0
  196.5170  175.4390  143.8380 C   0  0  0  0  0  2  0  0  0  0  0  0
  190.6780  175.0150  143.2990 C   0  0  1  0  0  3  0  0  0  0  0  0
  188.1580  175.8240  145.9230 C   0  0  0  0  0  2  0  0  0  0  0  0
  195.0260  175.3960  143.6470 C   0  0  0  0  0  0  0  0  0  0  0  0
  197.4460  176.0410  141.7010 O   0  0  0  0  0  0  0  0  0  0  0  0
  188.0080  176.0450  143.4010 C   0  0  1  0  0  3  0  0  0  0  0  0
  192.7070  175.8120  144.5590 C   0  0  1  0  0  3  0  0  0  0  0  0
  195.3790  174.8270  141.2340 C   0  0  1  0  0  3  0  0  0  0  0  0
  192.1960  174.8260  143.5160 C   0  0  2  0  0  3  0  0  0  0  0  0
  193.9990  176.5240  146.9460 C   0  0  0  0  0  2  0  0  0  0  0  0
  188.6600  173.9280  142.0980 C   0  0  0  0  0  2  0  0  0  0  0  0
  194.6410  176.6270  145.6920 O   0  0  0  0  0  0  0  0  0  0  0  0
  190.1720  173.9240  142.3400 C   0  0  0  0  0  2  0  0  0  0  0  0
  188.5230  175.1860  144.5840 C   0  0  1  0  0  3  0  0  0  0  0  0
  192.4900  176.7900  146.8140 C   0  0  0  0  0  2  0  0  0  0  0  0
  190.4650  176.0480  145.4570 C   0  0  2  0  0  3  0  0  0  0  0  0
  188.6800  177.2710  143.3280 O   0  0  0  0  0  0  0  0  0  0  0  0
  187.7110  178.2010  142.9430 C   0  0  0  0  0  2  0  0  0  0  0  0
  184.9100  178.9560  145.1620 C   0  0  0  0  0  2  0  0  0  0  0  0
  184.9990  178.1100  142.6220 S   0  0  0  0  0  0  0  0  0  0  0  0
  186.4350  177.9630  143.7270 C   0  0  2  0  0  3  0  0  0  0  0  0
  184.1010  179.0410  143.8890 C   0  0  0  0  0  2  0  0  0  0  0  0
  186.3150  178.9380  144.7990 N   0  0  0  0  0  2  0  0  0  0  0  0
  1 26  1  1  0  0  0
  3  7  1  1  0  0  0
  3 19  1  0  0  0  0
  3 16  1  0  0  0  0
  4 15  1  6  0  0  0
  4 23  1  0  0  0  0
  5 15  2  0  0  0  0
  6 19  1  0  0  0  0
  8 12  1  0  0  0  0
  9 27  1  0  0  0  0
 10 22  1  0  0  0  0
 10 17  1  0  0  0  0
 11  5  1  0  0  0  0
 11 20  1  0  0  0  0
 13 20  1  0  0  0  0
 13  9  1  0  0  0  0
 14  2  1  0  0  0  0
 15 12  1  0  0  0  0
 16  8  1  0  0  0  0
 17 25  1  0  0  0  0
 18  4  1  0  0  0  0
 18  1  1  0  0  0  0
 19  5  1  0  0  0  0
 20 18  1  0  0  0  0
 22 24  1  0  0  0  0
 23 21  1  0  0  0  0
 24 13  1  0  0  0  0
 25  9  1  0  0  0  0
 25 14  1  0  0  0  0
 26 21  1  0  0  0  0
 27  1  1  0  0  0  0
 27  2  1  0  0  0  0
 28 17  1  0  0  0  0
 29 28  1  0  0  0  0
 29 32  1  0  0  0  0
 31 32  1  0  0  0  0
 31 33  1  0  0  0  0
 32 34  1  0  0  0  0
 33 30  1  0  0  0  0
 34 30  1  0  0  0  0
M  END
>  <MODEL>
5

>  <REMARK>
 VINA RESULT:      -7.5      3.291      8.265
  Name = 
  3 active torsions:
  status: ('A' for Active; 'I' for Inactive)
    1  A    between atoms: C_17  and  O_28
    2  A    between atoms: O_28  and  C_29
    3  A    between atoms: C_29  and  C_32
                            x       y       z     vdW  Elec       q    Type
                         _______ _______ _______ _____ _____    ______ ____

>  <TORSDO>
F 3

$$$$
=
 OpenBabel11112418093D

 34 40  0  0  1  0  0  0  0  0999 V2000
  190.0130  173.5140  141.9950 C   0  0  1  0  0  3  0  0  0  0  0  0
  187.8040  174.8150  142.0190 C   0  0  0  0  0  2  0  0  0  0  0  0
  195.5230  171.8890  145.2780 C   0  0  1  0  0  3  0  0  0  0  0  0
  192.1480  172.2950  142.2720 C   0  0  2  0  0  3  0  0  0  0  0  0
  193.9480  173.2110  143.7790 C   0  0  0  0  0  0  0  0  0  0  0  0
  195.7480  174.3720  145.1610 C   0  0  0  0  0  1  0  0  0  0  0  0
  194.4670  171.6900  146.1600 F   0  0  0  0  0  0  0  0  0  0  0  0
  194.6650  170.2390  143.9280 C   0  0  0  0  0  2  0  0  0  0  0  0
  189.8270  175.8250  142.7040 N   0  0  2  0  0  0  0  0  0  0  0  0
  189.7980  177.9250  145.1450 C   0  0  0  0  0  2  0  0  0  0  0  0
  193.0580  174.3880  144.1500 C   0  0  0  0  0  2  0  0  0  0  0  0
  194.3440  171.0150  142.6570 C   0  0  0  0  0  2  0  0  0  0  0  0
  190.9900  175.7470  143.6160 C   0  0  1  0  0  3  0  0  0  0  0  0
  187.4600  176.2080  142.5110 C   0  0  0  0  0  2  0  0  0  0  0  0
  193.4840  172.2050  142.9840 C   0  0  0  0  0  0  0  0  0  0  0  0
  195.8370  170.7380  144.5250 O   0  0  0  0  0  0  0  0  0  0  0  0
  188.6440  177.0800  144.5770 C   0  0  1  0  0  3  0  0  0  0  0  0
  191.2330  173.3490  142.8900 C   0  0  1  0  0  3  0  0  0  0  0  0
  195.3400  173.1250  144.3900 C   0  0  1  0  0  3  0  0  0  0  0  0
  191.9700  174.6630  143.1170 C   0  0  2  0  0  3  0  0  0  0  0  0
  190.4090  171.1440  141.3620 C   0  0  0  0  0  2  0  0  0  0  0  0
  190.8660  178.2840  144.1110 C   0  0  0  0  0  2  0  0  0  0  0  0
  191.4760  171.0540  142.2840 O   0  0  0  0  0  0  0  0  0  0  0  0
  191.7360  177.0880  143.7130 C   0  0  0  0  0  2  0  0  0  0  0  0
  188.7650  176.7800  143.0610 C   0  0  1  0  0  3  0  0  0  0  0  0
  189.3480  172.1470  141.8450 C   0  0  0  0  0  2  0  0  0  0  0  0
  189.1320  174.5450  142.6800 C   0  0  2  0  0  3  0  0  0  0  0  0
  188.5100  175.9030  145.3220 O   0  0  0  0  0  0  0  0  0  0  0  0
  187.8340  176.2780  146.4850 C   0  0  0  0  0  2  0  0  0  0  0  0
  184.4960  177.6930  146.0410 C   0  0  0  0  0  2  0  0  0  0  0  0
  186.5710  178.4530  147.5540 S   0  0  0  0  0  0  0  0  0  0  0  0
  186.7790  177.3170  146.1520 C   0  0  2  0  0  3  0  0  0  0  0  0
  184.7730  178.4080  147.3420 C   0  0  0  0  0  2  0  0  0  0  0  0
  185.5090  176.6690  145.8670 N   0  0  0  0  0  2  0  0  0  0  0  0
  1 26  1  1  0  0  0
  1 27  1  0  0  0  0
  1 18  1  0  0  0  0
  2 14  1  0  0  0  0
  2 27  1  0  0  0  0
  3  7  1  6  0  0  0
  4 23  1  1  0  0  0
  4 18  1  0  0  0  0
  4 15  1  0  0  0  0
  5 11  1  0  0  0  0
  5 19  1  0  0  0  0
  8 16  1  0  0  0  0
  9 25  1  0  0  0  0
  9 13  1  0  0  0  0
 12 15  1  0  0  0  0
 12  8  1  0  0  0  0
 13 24  1  0  0  0  0
 14 25  1  0  0  0  0
 15  5  2  0  0  0  0
 16  3  1  0  0  0  0
 17 10  1  0  0  0  0
 17 28  1  0  0  0  0
 18 20  1  0  0  0  0
 19  6  1  0  0  0  0
 19  3  1  0  0  0  0
 20 13  1  0  0  0  0
 20 11  1  0  0  0  0
 21 26  1  0  0  0  0
 21 23  1  0  0  0  0
 22 10  1  0  0  0  0
 24 22  1  0  0  0  0
 25 17  1  0  0  0  0
 27  9  1  0  0  0  0
 28 29  1  0  0  0  0
 30 33  1  0  0  0  0
 32 29  1  0  0  0  0
 32 31  1  0  0  0  0
 33 31  1  0  0  0  0
 34 30  1  0  0  0  0
 34 32  1  0  0  0  0
M  END
>  <MODEL>
6

>  <REMARK>
 VINA RESULT:      -7.2      3.881      7.995
  Name = 
  3 active torsions:
  status: ('A' for Active; 'I' for Inactive)
    1  A    between atoms: C_17  and  O_28
    2  A    between atoms: O_28  and  C_29
    3  A    between atoms: C_29  and  C_32
                            x       y       z     vdW  Elec       q    Type
                         _______ _______ _______ _____ _____    ______ ____

>  <TORSDO>
F 3

$$$$
=
 OpenBabel11112418093D

 34 40  0  0  1  0  0  0  0  0999 V2000
  191.4850  173.4130  141.9550 C   0  0  1  0  0  3  0  0  0  0  0  0
  193.9480  172.7370  141.7350 C   0  0  0  0  0  2  0  0  0  0  0  0
  187.1440  177.9130  144.1190 C   0  0  1  0  0  3  0  0  0  0  0  0
  189.2090  174.3430  142.2250 C   0  0  2  0  0  3  0  0  0  0  0  0
  188.6880  175.8910  144.1450 C   0  0  0  0  0  0  0  0  0  0  0  0
  188.2640  177.2610  146.2520 C   0  0  0  0  0  1  0  0  0  0  0  0
  188.1240  178.6140  143.4260 F   0  0  0  0  0  0  0  0  0  0  0  0
  186.5650  176.8550  142.1620 C   0  0  0  0  0  2  0  0  0  0  0  0
  193.0700  173.5170  143.7860 N   0  0  2  0  0  0  0  0  0  0  0  0
  194.9020  175.3540  145.6930 C   0  0  0  0  0  2  0  0  0  0  0  0
  190.1310  175.8110  144.6180 C   0  0  0  0  0  2  0  0  0  0  0  0
  186.8810  175.4020  142.4910 C   0  0  0  0  0  2  0  0  0  0  0  0
  192.3580  174.6150  144.4770 C   0  0  1  0  0  3  0  0  0  0  0  0
  195.1070  172.8210  142.7110 C   0  0  0  0  0  2  0  0  0  0  0  0
  188.2960  175.2830  142.9880 C   0  0  0  0  0  0  0  0  0  0  0  0
  186.0660  177.5180  143.2970 O   0  0  0  0  0  0  0  0  0  0  0  0
  195.2100  174.8030  144.2900 C   0  0  1  0  0  3  0  0  0  0  0  0
  190.6750  174.5240  142.6070 C   0  0  1  0  0  3  0  0  0  0  0  0
  187.7040  176.7430  144.9340 C   0  0  1  0  0  3  0  0  0  0  0  0
  190.8560  174.5650  144.1190 C   0  0  2  0  0  3  0  0  0  0  0  0
  189.7220  173.4320  140.2040 C   0  0  0  0  0  2  0  0  0  0  0  0
  193.9550  174.4730  146.5080 C   0  0  0  0  0  2  0  0  0  0  0  0
  189.0820  174.5240  140.8310 O   0  0  0  0  0  0  0  0  0  0  0  0
  192.5100  174.5260  146.0050 C   0  0  0  0  0  2  0  0  0  0  0  0
  194.5280  173.4460  143.9790 C   0  0  1  0  0  3  0  0  0  0  0  0
  191.2400  173.4710  140.4480 C   0  0  0  0  0  2  0  0  0  0  0  0
  192.9310  173.6690  142.3440 C   0  0  2  0  0  3  0  0  0  0  0  0
  194.8930  175.7660  143.3250 O   0  0  0  0  0  0  0  0  0  0  0  0
  196.0340  176.5650  143.2140 C   0  0  0  0  0  2  0  0  0  0  0  0
  197.6060  175.3760  140.1390 C   0  0  0  0  0  2  0  0  0  0  0  0
  195.1120  176.1960  140.6690 S   0  0  0  0  0  0  0  0  0  0  0  0
  196.5000  176.5940  141.7710 C   0  0  2  0  0  3  0  0  0  0  0  0
  196.1900  175.1420  139.6670 C   0  0  0  0  0  2  0  0  0  0  0  0
  197.5660  175.6250  141.5680 N   0  0  0  0  0  2  0  0  0  0  0  0
  1 26  1  6  0  0  0
  1 27  1  0  0  0  0
  1 18  1  0  0  0  0
  2 27  1  0  0  0  0
  2 14  1  0  0  0  0
  3  7  1  6  0  0  0
  3 19  1  0  0  0  0
  4 23  1  6  0  0  0
  4 18  1  0  0  0  0
  4 15  1  0  0  0  0
  5 11  1  0  0  0  0
  5 19  1  0  0  0  0
  8 12  1  0  0  0  0
  8 16  1  0  0  0  0
  9 25  1  0  0  0  0
  9 13  1  0  0  0  0
 10 22  1  0  0  0  0
 12 15  1  0  0  0  0
 13 24  1  0  0  0  0
 14 25  1  0  0  0  0
 15  5  2  0  0  0  0
 16  3  1  0  0  0  0
 17 10  1  0  0  0  0
 18 20  1  0  0  0  0
 19  6  1  0  0  0  0
 20 13  1  0  0  0  0
 20 11  1  0  0  0  0
 21 26  1  0  0  0  0
 21 23  1  0  0  0  0
 24 22  1  0  0  0  0
 25 17  1  0  0  0  0
 27  9  1  0  0  0  0
 28 17  1  0  0  0  0
 29 28  1  0  0  0  0
 30 34  1  0  0  0  0
 31 32  1  0  0  0  0
 32 29  1  0  0  0  0
 33 30  1  0  0  0  0
 33 31  1  0  0  0  0
 34 32  1  0  0  0  0
M  END
>  <MODEL>
7

>  <REMARK>
 VINA RESULT:      -7.2      1.942      2.827
  Name = 
  3 active torsions:
  status: ('A' for Active; 'I' for Inactive)
    1  A    between atoms: C_17  and  O_28
    2  A    between atoms: O_28  and  C_29
    3  A    between atoms: C_29  and  C_32
                            x       y       z     vdW  Elec       q    Type
                         _______ _______ _______ _____ _____    ______ ____

>  <TORSDO>
F 3

$$$$
=
 OpenBabel11112418093D

 34 40  0  0  1  0  0  0  0  0999 V2000
  189.8820  172.9580  140.4580 C   0  0  1  0  0  3  0  0  0  0  0  0
  191.7440  171.5020  139.4670 C   0  0  0  0  0  2  0  0  0  0  0  0
  188.2390  177.6190  144.8580 C   0  0  1  0  0  3  0  0  0  0  0  0
  188.3050  174.5350  141.5290 C   0  0  2  0  0  3  0  0  0  0  0  0
  188.6920  175.3060  143.8970 C   0  0  0  0  0  0  0  0  0  0  0  0
  189.0980  175.8200  146.3610 C   0  0  0  0  0  1  0  0  0  0  0  0
  189.3750  178.0790  144.2040 F   0  0  0  0  0  0  0  0  0  0  0  0
  187.0960  177.7060  142.8660 C   0  0  0  0  0  2  0  0  0  0  0  0
  191.4750  171.7230  141.8040 N   0  0  2  0  0  0  0  0  0  0  0  0
  194.0800  171.8100  143.6940 C   0  0  0  0  0  2  0  0  0  0  0  0
  189.9730  174.4890  143.9690 C   0  0  0  0  0  2  0  0  0  0  0  0
  186.7400  176.2410  142.6490 C   0  0  0  0  0  2  0  0  0  0  0  0
  191.3940  172.6600  142.9470 C   0  0  1  0  0  3  0  0  0  0  0  0
  192.8840  170.7420  140.1190 C   0  0  0  0  0  2  0  0  0  0  0  0
  187.9800  175.3930  142.7370 C   0  0  0  0  0  0  0  0  0  0  0  0
  187.0400  178.0260  144.2340 O   0  0  0  0  0  0  0  0  0  0  0  0
  193.9960  171.7600  142.1590 C   0  0  1  0  0  3  0  0  0  0  0  0
  189.7180  173.9610  141.5920 C   0  0  1  0  0  3  0  0  0  0  0  0
  188.2660  176.1090  145.1190 C   0  0  1  0  0  3  0  0  0  0  0  0
  190.0120  173.3500  142.9550 C   0  0  2  0  0  3  0  0  0  0  0  0
  188.1930  174.3370  139.2660 C   0  0  0  0  0  2  0  0  0  0  0  0
  192.9010  171.1380  144.3990 C   0  0  0  0  0  2  0  0  0  0  0  0
  188.1690  175.2660  140.3300 O   0  0  0  0  0  0  0  0  0  0  0  0
  191.6050  171.9470  144.2920 C   0  0  0  0  0  2  0  0  0  0  0  0
  192.7510  171.0130  141.6160 C   0  0  1  0  0  3  0  0  0  0  0  0
  189.5760  173.6760  139.1440 C   0  0  0  0  0  2  0  0  0  0  0  0
  191.3110  172.4520  140.5540 C   0  0  2  0  0  3  0  0  0  0  0  0
  194.0810  173.0570  141.6390 O   0  0  0  0  0  0  0  0  0  0  0  0
  194.9960  173.7230  142.4580 C   0  0  0  0  0  2  0  0  0  0  0  0
  192.7400  176.5840  142.7080 C   0  0  0  0  0  2  0  0  0  0  0  0
  194.5890  175.6150  144.3860 S   0  0  0  0  0  0  0  0  0  0  0  0
  194.5740  175.1700  142.6250 C   0  0  2  0  0  3  0  0  0  0  0  0
  193.0260  176.5070  144.1900 C   0  0  0  0  0  2  0  0  0  0  0  0
  193.2340  175.3670  142.0930 N   0  0  0  0  0  2  0  0  0  0  0  0
  1 26  1  6  0  0  0
  1 27  1  0  0  0  0
  1 18  1  0  0  0  0
  2 14  1  0  0  0  0
  2 27  1  0  0  0  0
  3  7  1  6  0  0  0
  3 19  1  0  0  0  0
  4 23  1  6  0  0  0
  4 18  1  0  0  0  0
  4 15  1  0  0  0  0
  5 11  1  0  0  0  0
  5 19  1  0  0  0  0
  8 16  1  0  0  0  0
  9 13  1  0  0  0  0
 10 22  1  0  0  0  0
 12 15  1  0  0  0  0
 12  8  1  0  0  0  0
 13 20  1  0  0  0  0
 13 24  1  0  0  0  0
 14 25  1  0  0  0  0
 15  5  2  0  0  0  0
 16  3  1  0  0  0  0
 17 10  1  0  0  0  0
 18 20  1  0  0  0  0
 19  6  1  0  0  0  0
 20 11  1  0  0  0  0
 21 23  1  0  0  0  0
 24 22  1  0  0  0  0
 25  9  1  0  0  0  0
 25 17  1  0  0  0  0
 26 21  1  0  0  0  0
 27  9  1  0  0  0  0
 28 17  1  0  0  0  0
 28 29  1  0  0  0  0
 29 32  1  0  0  0  0
 30 33  1  0  0  0  0
 32 31  1  0  0  0  0
 33 31  1  0  0  0  0
 34 32  1  0  0  0  0
 34 30  1  0  0  0  0
M  END
>  <MODEL>
8

>  <REMARK>
 VINA RESULT:      -7.2      2.409      3.722
  Name = 
  3 active torsions:
  status: ('A' for Active; 'I' for Inactive)
    1  A    between atoms: C_17  and  O_28
    2  A    between atoms: O_28  and  C_29
    3  A    between atoms: C_29  and  C_32
                            x       y       z     vdW  Elec       q    Type
                         _______ _______ _______ _____ _____    ______ ____

>  <TORSDO>
F 3

$$$$
=
 OpenBabel11112418093D

 34 40  0  0  1  0  0  0  0  0999 V2000
  189.8670  172.6080  143.1580 C   0  0  1  0  0  3  0  0  0  0  0  0
  190.2070  173.6490  145.4760 C   0  0  0  0  0  2  0  0  0  0  0  0
  189.4810  173.6200  136.6300 C   0  0  1  0  0  3  0  0  0  0  0  0
  189.6530  171.8600  140.8100 C   0  0  2  0  0  3  0  0  0  0  0  0
  188.7380  173.4220  139.0560 C   0  0  0  0  0  0  0  0  0  0  0  0
  187.5970  175.0380  137.4490 C   0  0  0  0  0  1  0  0  0  0  0  0
  190.6180  174.2910  137.0660 F   0  0  0  0  0  0  0  0  0  0  0  0
  190.4520  171.6340  137.2580 C   0  0  0  0  0  2  0  0  0  0  0  0
  188.7170  174.6050  143.9110 N   0  0  2  0  0  0  0  0  0  0  0  0
  188.4420  177.8090  143.7430 C   0  0  0  0  0  2  0  0  0  0  0  0
  188.5980  174.5260  140.0940 C   0  0  0  0  0  2  0  0  0  0  0  0
  189.4980  171.1520  138.3430 C   0  0  0  0  0  2  0  0  0  0  0  0
  188.5570  175.1540  142.5460 C   0  0  1  0  0  3  0  0  0  0  0  0
  189.6730  174.9270  146.0950 C   0  0  0  0  0  2  0  0  0  0  0  0
  189.3120  172.2270  139.3780 C   0  0  0  0  0  0  0  0  0  0  0  0
  189.7430  172.2900  136.2370 O   0  0  0  0  0  0  0  0  0  0  0  0
  189.3930  176.9600  144.6050 C   0  0  1  0  0  3  0  0  0  0  0  0
  189.7260  173.0830  141.7190 C   0  0  1  0  0  3  0  0  0  0  0  0
  188.3160  173.7070  137.6220 C   0  0  1  0  0  3  0  0  0  0  0  0
  188.5240  173.9970  141.5220 C   0  0  2  0  0  3  0  0  0  0  0  0
  190.9760  170.6130  142.1780 C   0  0  0  0  0  2  0  0  0  0  0  0
  187.1170  177.1170  143.4220 C   0  0  0  0  0  2  0  0  0  0  0  0
  190.8820  171.1710  140.8830 O   0  0  0  0  0  0  0  0  0  0  0  0
  187.2690  175.9820  142.4050 C   0  0  0  0  0  2  0  0  0  0  0  0
  188.8170  175.5790  145.0110 C   0  0  1  0  0  3  0  0  0  0  0  0
  191.1030  171.7140  143.2430 C   0  0  0  0  0  2  0  0  0  0  0  0
  189.9690  173.8660  144.0030 C   0  0  2  0  0  3  0  0  0  0  0  0
  190.6270  176.8290  143.9580 O   0  0  0  0  0  0  0  0  0  0  0  0
  191.5130  177.6230  144.6890 C   0  0  0  0  0  2  0  0  0  0  0  0
  194.0360  175.2360  145.8190 C   0  0  0  0  0  2  0  0  0  0  0  0
  193.0490  175.7750  143.3880 S   0  0  0  0  0  0  0  0  0  0  0  0
  192.8640  176.9380  144.7720 C   0  0  2  0  0  3  0  0  0  0  0  0
  193.7790  174.5460  144.5000 C   0  0  0  0  0  2  0  0  0  0  0  0
  192.9840  176.2130  146.0270 N   0  0  0  0  0  2  0  0  0  0  0  0
  1 26  1  6  0  0  0
  1 27  1  0  0  0  0
  2 14  1  0  0  0  0
  3  7  1  1  0  0  0
  3 19  1  0  0  0  0
  4 15  1  6  0  0  0
  4 23  1  0  0  0  0
  4 18  1  0  0  0  0
  5 15  2  0  0  0  0
  5 11  1  0  0  0  0
  6 19  1  0  0  0  0
  8 12  1  0  0  0  0
  9 27  1  0  0  0  0
  9 25  1  0  0  0  0
 10 17  1  0  0  0  0
 11 20  1  0  0  0  0
 12 15  1  0  0  0  0
 13  9  1  0  0  0  0
 16  3  1  0  0  0  0
 16  8  1  0  0  0  0
 17 25  1  0  0  0  0
 18  1  1  0  0  0  0
 19  5  1  0  0  0  0
 20 18  1  0  0  0  0
 20 13  1  0  0  0  0
 21 26  1  0  0  0  0
 22 10  1  0  0  0  0
 23 21  1  0  0  0  0
 24 13  1  0  0  0  0
 24 22  1  0  0  0  0
 25 14  1  0  0  0  0
 27  2  1  0  0  0  0
 28 17  1  0  0  0  0
 28 29  1  0  0  0  0
 29 32  1  0  0  0  0
 30 34  1  0  0  0  0
 31 33  1  0  0  0  0
 31 32  1  0  0  0  0
 32 34  1  0  0  0  0
 33 30  1  0  0  0  0
M  END
>  <MODEL>
9

>  <REMARK>
 VINA RESULT:      -7.1      3.416      6.098
  Name = 
  3 active torsions:
  status: ('A' for Active; 'I' for Inactive)
    1  A    between atoms: C_17  and  O_28
    2  A    between atoms: O_28  and  C_29
    3  A    between atoms: C_29  and  C_32
                            x       y       z     vdW  Elec       q    Type
                         _______ _______ _______ _____ _____    ______ ____

>  <TORSDO>
F 3

$$$$
