=
 OpenBabel11112418043D

 34 40  0  0  1  0  0  0  0  0999 V2000
  189.1840  175.1100  142.7450 C   0  0  0  0  0  0  0  0  0  0  0  0
  191.2640  173.5040  142.5740 C   0  0  0  0  0  3  0  0  0  0  0  0
  184.6740  178.3130  146.3070 C   0  0  0  0  0  0  0  0  0  0  0  0
  187.3120  176.6340  143.0710 C   0  0  0  0  0  0  0  0  0  0  0  0
  186.8540  177.4810  145.3160 C   0  0  0  0  0  0  0  0  0  0  0  0
  186.7390  178.3340  147.7240 C   0  0  0  0  0  1  0  0  0  0  0  0
  184.0610  177.6350  147.1740 O   0  0  0  0  0  0  0  0  0  0  0  0
  184.8400  179.7120  143.9470 S   0  0  0  0  0  0  0  0  0  0  0  0
  190.5900  174.4280  144.6050 C   0  0  0  0  0  0  0  0  0  0  0  0
  192.5740  174.8950  147.0190 C   0  0  0  0  0  2  0  0  0  0  0  0
  187.9200  176.7610  145.7670 N   0  0  0  0  0  0  0  0  0  0  0  0
  185.2750  178.0640  143.3190 C   0  0  0  0  0  2  0  0  0  0  0  0
  189.7980  175.2320  145.5000 N   0  0  0  0  0  0  0  0  0  0  0  0
  192.2310  173.0110  143.6520 C   0  0  0  0  0  3  0  0  0  0  0  0
  186.5190  177.4380  143.9240 C   0  0  0  0  0  0  0  0  0  0  0  0
  183.9470  178.9600  145.2690 N   0  0  0  0  0  2  0  0  0  0  0  0
  192.8750  174.5500  145.5620 C   0  0  2  0  0  3  0  0  0  0  0  0
  188.3960  175.9090  143.5950 C   0  0  0  0  0  0  0  0  0  0  0  0
  186.1700  178.4050  146.3100 C   0  0  2  0  0  3  0  0  0  0  0  0
  188.6860  175.9790  144.9640 C   0  0  0  0  0  0  0  0  0  0  0  0
  187.8500  175.7260  140.8840 C   0  0  0  0  0  3  0  0  0  0  0  0
  191.4670  175.9280  147.1520 C   0  0  0  0  0  2  0  0  0  0  0  0
  187.0450  176.5310  141.6960 C   0  0  0  0  0  3  0  0  0  0  0  0
  190.1050  175.2880  146.9250 C   0  0  0  0  0  2  0  0  0  0  0  0
  191.7870  173.6340  144.9850 C   0  0  1  0  0  3  0  0  0  0  0  0
  188.8940  175.0390  141.4180 N   0  0  0  0  0  0  0  0  0  0  0  0
  190.3160  174.3620  143.3180 C   0  0  0  0  0  0  0  0  0  0  0  0
  194.1230  173.9190  145.5080 O   0  0  0  0  0  0  0  0  0  0  0  0
  195.0260  174.9030  145.7520 N   0  0  0  0  0  2  0  0  0  0  0  0
  197.6670  175.4310  143.3710 N   0  0  0  0  0  0  0  0  0  0  0  0
  195.7130  176.5020  144.0420 C   0  0  0  0  0  3  0  0  0  0  0  0
  195.8980  175.3910  144.7310 C   0  0  0  0  0  0  0  0  0  0  0  0
  196.8610  176.6160  143.0920 C   0  0  0  0  0  3  0  0  0  0  0  0
  197.1120  174.7370  144.3060 C   0  0  0  0  0  2  0  0  0  0  0  0
  1 27  1  0  0  0  0
  1 18  1  0  0  0  0
  2 27  1  0  0  0  0
  2 14  2  0  0  0  0
  3 19  1  0  0  0  0
  3  7  2  0  0  0  0
  4 18  2  0  0  0  0
  4 15  1  0  0  0  0
  5 11  1  0  0  0  0
  5 19  1  0  0  0  0
  8 16  1  0  0  0  0
  9 25  1  0  0  0  0
  9 13  1  0  0  0  0
 10 22  1  0  0  0  0
 12 15  1  0  0  0  0
 12  8  1  0  0  0  0
 13 24  1  0  0  0  0
 15  5  2  0  0  0  0
 16  3  1  0  0  0  0
 17 28  1  1  0  0  0
 17 10  1  0  0  0  0
 18 20  1  0  0  0  0
 19  6  1  1  0  0  0
 20 13  1  0  0  0  0
 20 11  2  0  0  0  0
 21 26  1  0  0  0  0
 21 23  2  0  0  0  0
 23  4  1  0  0  0  0
 24 22  1  0  0  0  0
 25 14  1  6  0  0  0
 25 17  1  0  0  0  0
 26  1  2  0  0  0  0
 27  9  2  0  0  0  0
 28 29  1  0  0  0  0
 30 34  1  0  0  0  0
 31 32  2  0  0  0  0
 32 29  1  0  0  0  0
 33 30  2  0  0  0  0
 33 31  1  0  0  0  0
 34 32  1  0  0  0  0
M  END
>  <MODEL>
1

>  <REMARK>
 VINA RESULT:      -8.9      0.000      0.000
  Name = 
  3 active torsions:
  status: ('A' for Active; 'I' for Inactive)
    1  A    between atoms: C_17  and  O_28
    2  A    between atoms: O_28  and  N_29
    3  A    between atoms: N_29  and  C_32
                            x       y       z     vdW  Elec       q    Type
                         _______ _______ _______ _____ _____    ______ ____

>  <TORSDO>
F 3

$$$$
=
 OpenBabel11112418043D

 34 40  0  0  1  0  0  0  0  0999 V2000
  192.7050  176.1010  144.9640 C   0  0  0  0  0  0  0  0  0  0  0  0
  190.6940  177.7360  144.4970 C   0  0  0  0  0  3  0  0  0  0  0  0
  195.0650  170.0550  146.0420 C   0  0  0  0  0  0  0  0  0  0  0  0
  194.4660  174.4570  145.3270 C   0  0  0  0  0  0  0  0  0  0  0  0
  193.9540  172.0880  145.0160 C   0  0  0  0  0  0  0  0  0  0  0  0
  193.1690  169.7240  144.4390 C   0  0  0  0  0  1  0  0  0  0  0  0
  194.4710  169.3700  146.9180 O   0  0  0  0  0  0  0  0  0  0  0  0
  197.2010  171.4890  145.0760 S   0  0  0  0  0  0  0  0  0  0  0  0
  190.4680  175.4240  144.3030 C   0  0  0  0  0  0  0  0  0  0  0  0
  188.3240  174.0630  142.4230 C   0  0  0  0  0  2  0  0  0  0  0  0
  192.6790  172.4430  144.6870 N   0  0  0  0  0  0  0  0  0  0  0  0
  196.2990  172.8470  145.8770 C   0  0  0  0  0  2  0  0  0  0  0  0
  190.8790  174.0440  144.3210 N   0  0  0  0  0  0  0  0  0  0  0  0
  189.2550  177.4440  144.0660 C   0  0  0  0  0  3  0  0  0  0  0  0
  194.9010  173.1110  145.3470 C   0  0  0  0  0  0  0  0  0  0  0  0
  196.4480  170.3480  146.1920 N   0  0  0  0  0  2  0  0  0  0  0  0
  188.7820  175.5180  142.4860 C   0  0  2  0  0  3  0  0  0  0  0  0
  193.1360  174.7610  144.9840 C   0  0  0  0  0  0  0  0  0  0  0  0
  194.3260  170.6220  144.8690 C   0  0  2  0  0  3  0  0  0  0  0  0
  192.2430  173.7290  144.6690 C   0  0  0  0  0  0  0  0  0  0  0  0
  194.8630  176.8350  145.6170 C   0  0  0  0  0  3  0  0  0  0  0  0
  189.4820  173.0860  142.5520 C   0  0  0  0  0  2  0  0  0  0  0  0
  195.3290  175.5170  145.6470 C   0  0  0  0  0  3  0  0  0  0  0  0
  189.9350  172.9780  144.0000 C   0  0  0  0  0  2  0  0  0  0  0  0
  189.1170  175.9200  143.9280 C   0  0  1  0  0  3  0  0  0  0  0  0
  193.5730  177.0990  145.2790 N   0  0  0  0  0  0  0  0  0  0  0  0
  191.3080  176.3940  144.6000 C   0  0  0  0  0  0  0  0  0  0  0  0
  187.7550  176.3250  141.9810 O   0  0  0  0  0  0  0  0  0  0  0  0
  186.6400  175.9360  142.6510 N   0  0  0  0  0  2  0  0  0  0  0  0
  184.1090  178.4190  143.2390 N   0  0  0  0  0  0  0  0  0  0  0  0
  185.6400  177.1910  144.4880 C   0  0  0  0  0  3  0  0  0  0  0  0
  185.7300  176.8870  143.2060 C   0  0  0  0  0  0  0  0  0  0  0  0
  184.5660  178.2230  144.6110 C   0  0  0  0  0  2  0  0  0  0  0  0
  184.7760  177.6550  142.4430 C   0  0  0  0  0  3  0  0  0  0  0  0
  1 18  2  0  0  0  0
  1 26  1  0  0  0  0
  2 27  1  0  0  0  0
  3 16  1  0  0  0  0
  3  7  2  0  0  0  0
  4 15  1  0  0  0  0
  4 23  2  0  0  0  0
  5 15  2  0  0  0  0
  8 12  1  0  0  0  0
  8 16  1  0  0  0  0
  9 13  1  0  0  0  0
  9 27  2  0  0  0  0
 10 17  1  0  0  0  0
 10 22  1  0  0  0  0
 11  5  1  0  0  0  0
 13 20  1  0  0  0  0
 14  2  2  0  0  0  0
 15 12  1  0  0  0  0
 17 28  1  1  0  0  0
 17 25  1  0  0  0  0
 18  4  1  0  0  0  0
 19  6  1  1  0  0  0
 19  5  1  0  0  0  0
 19  3  1  0  0  0  0
 20 11  2  0  0  0  0
 20 18  1  0  0  0  0
 21 23  1  0  0  0  0
 22 24  1  0  0  0  0
 24 13  1  0  0  0  0
 25 14  1  6  0  0  0
 25  9  1  0  0  0  0
 26 21  2  0  0  0  0
 27  1  1  0  0  0  0
 28 29  1  0  0  0  0
 29 32  1  0  0  0  0
 30 33  1  0  0  0  0
 31 33  1  0  0  0  0
 32 31  2  0  0  0  0
 34 32  1  0  0  0  0
 34 30  2  0  0  0  0
M  END
>  <MODEL>
2

>  <REMARK>
 VINA RESULT:      -8.5      3.644      9.082
  Name = 
  3 active torsions:
  status: ('A' for Active; 'I' for Inactive)
    1  A    between atoms: C_17  and  O_28
    2  A    between atoms: O_28  and  N_29
    3  A    between atoms: N_29  and  C_32
                            x       y       z     vdW  Elec       q    Type
                         _______ _______ _______ _____ _____    ______ ____

>  <TORSDO>
F 3

$$$$
=
 OpenBabel11112418043D

 34 40  0  0  1  0  0  0  0  0999 V2000
  189.9280  174.2390  142.4090 C   0  0  0  0  0  0  0  0  0  0  0  0
  192.0800  172.7210  142.4430 C   0  0  0  0  0  3  0  0  0  0  0  0
  185.2340  177.6230  145.5390 C   0  0  0  0  0  0  0  0  0  0  0  0
  187.9840  175.7020  142.5410 C   0  0  0  0  0  0  0  0  0  0  0  0
  187.4610  176.7830  144.6680 C   0  0  0  0  0  0  0  0  0  0  0  0
  187.2780  177.9050  146.9590 C   0  0  0  0  0  1  0  0  0  0  0  0
  184.6410  177.0230  146.4750 O   0  0  0  0  0  0  0  0  0  0  0  0
  185.3650  178.7430  143.0330 S   0  0  0  0  0  0  0  0  0  0  0  0
  191.3400  173.8440  144.3460 C   0  0  0  0  0  0  0  0  0  0  0  0
  193.2710  174.6810  146.7020 C   0  0  0  0  0  2  0  0  0  0  0  0
  188.5530  176.1700  145.2080 N   0  0  0  0  0  0  0  0  0  0  0  0
  185.8830  177.0550  142.6060 C   0  0  0  0  0  2  0  0  0  0  0  0
  190.5010  174.7100  145.1350 N   0  0  0  0  0  0  0  0  0  0  0  0
  193.0550  172.4030  143.5780 C   0  0  0  0  0  3  0  0  0  0  0  0
  187.1460  176.5620  143.2880 C   0  0  0  0  0  0  0  0  0  0  0  0
  184.4910  178.1090  144.4270 N   0  0  0  0  0  2  0  0  0  0  0  0
  193.6050  174.1830  145.2990 C   0  0  2  0  0  3  0  0  0  0  0  0
  189.0940  175.0940  143.1540 C   0  0  0  0  0  0  0  0  0  0  0  0
  186.7240  177.7840  145.5420 C   0  0  2  0  0  3  0  0  0  0  0  0
  189.3630  175.3370  144.5070 C   0  0  0  0  0  0  0  0  0  0  0  0
  188.5900  174.5710  140.4790 C   0  0  0  0  0  3  0  0  0  0  0  0
  192.1160  175.6710  146.7050 C   0  0  0  0  0  2  0  0  0  0  0  0
  187.7400  175.4260  141.1860 C   0  0  0  0  0  3  0  0  0  0  0  0
  190.7880  174.9460  146.5460 C   0  0  0  0  0  2  0  0  0  0  0  0
  192.5670  173.1560  144.8250 C   0  0  1  0  0  3  0  0  0  0  0  0
  189.6580  173.9990  141.0980 N   0  0  0  0  0  0  0  0  0  0  0  0
  191.0850  173.6160  143.0740 C   0  0  0  0  0  0  0  0  0  0  0  0
  194.8810  173.6080  145.3270 O   0  0  0  0  0  0  0  0  0  0  0  0
  195.7400  174.6540  145.2230 N   0  0  0  0  0  2  0  0  0  0  0  0
  196.7470  175.2950  141.8330 N   0  0  0  0  0  0  0  0  0  0  0  0
  196.0000  176.5150  143.6670 C   0  0  0  0  0  3  0  0  0  0  0  0
  196.0720  175.2290  143.9580 C   0  0  0  0  0  0  0  0  0  0  0  0
  196.4380  176.6600  142.2460 C   0  0  0  0  0  3  0  0  0  0  0  0
  196.5370  174.4840  142.8130 C   0  0  0  0  0  2  0  0  0  0  0  0
  1 27  1  0  0  0  0
  1 18  1  0  0  0  0
  2 27  1  0  0  0  0
  2 14  2  0  0  0  0
  3 19  1  0  0  0  0
  3  7  2  0  0  0  0
  4 18  2  0  0  0  0
  4 15  1  0  0  0  0
  5 11  1  0  0  0  0
  5 19  1  0  0  0  0
  8 16  1  0  0  0  0
  9 25  1  0  0  0  0
  9 13  1  0  0  0  0
 10 22  1  0  0  0  0
 12  8  1  0  0  0  0
 12 15  1  0  0  0  0
 13 24  1  0  0  0  0
 15  5  2  0  0  0  0
 16  3  1  0  0  0  0
 17 28  1  1  0  0  0
 17 10  1  0  0  0  0
 18 20  1  0  0  0  0
 19  6  1  1  0  0  0
 20 13  1  0  0  0  0
 20 11  2  0  0  0  0
 21 26  1  0  0  0  0
 21 23  2  0  0  0  0
 23  4  1  0  0  0  0
 24 22  1  0  0  0  0
 25 14  1  6  0  0  0
 25 17  1  0  0  0  0
 26  1  2  0  0  0  0
 27  9  2  0  0  0  0
 29 28  1  0  0  0  0
 30 33  2  0  0  0  0
 30 34  1  0  0  0  0
 31 32  2  0  0  0  0
 32 29  1  0  0  0  0
 33 31  1  0  0  0  0
 34 32  1  0  0  0  0
M  END
>  <MODEL>
3

>  <REMARK>
 VINA RESULT:      -8.4      1.036      1.137
  Name = 
  3 active torsions:
  status: ('A' for Active; 'I' for Inactive)
    1  A    between atoms: C_17  and  O_28
    2  A    between atoms: O_28  and  N_29
    3  A    between atoms: N_29  and  C_32
                            x       y       z     vdW  Elec       q    Type
                         _______ _______ _______ _____ _____    ______ ____

>  <TORSDO>
F 3

$$$$
=
 OpenBabel11112418043D

 34 40  0  0  1  0  0  0  0  0999 V2000
  189.2860  176.8450  146.0940 C   0  0  0  0  0  0  0  0  0  0  0  0
  186.8130  177.7160  146.3390 C   0  0  0  0  0  3  0  0  0  0  0  0
  193.8540  173.3410  142.9090 C   0  0  0  0  0  0  0  0  0  0  0  0
  191.5420  176.0180  145.6900 C   0  0  0  0  0  0  0  0  0  0  0  0
  192.0690  175.0350  143.5160 C   0  0  0  0  0  0  0  0  0  0  0  0
  192.3640  174.2360  141.1050 C   0  0  0  0  0  1  0  0  0  0  0  0
  193.5420  172.1580  142.6070 O   0  0  0  0  0  0  0  0  0  0  0  0
  195.2650  175.2250  144.3280 S   0  0  0  0  0  0  0  0  0  0  0  0
  187.5700  176.7090  144.3790 C   0  0  0  0  0  0  0  0  0  0  0  0
  186.2950  177.2940  141.5480 C   0  0  0  0  0  2  0  0  0  0  0  0
  190.7840  175.2810  143.1330 N   0  0  0  0  0  0  0  0  0  0  0  0
  193.8370  175.0590  145.4380 C   0  0  0  0  0  2  0  0  0  0  0  0
  188.5110  176.0830  143.4860 N   0  0  0  0  0  0  0  0  0  0  0  0
  185.6510  177.7050  145.3450 C   0  0  0  0  0  3  0  0  0  0  0  0
  192.4900  175.4110  144.8330 C   0  0  0  0  0  0  0  0  0  0  0  0
  194.9820  173.5870  143.7390 N   0  0  0  0  0  2  0  0  0  0  0  0
  186.1090  178.0310  142.8720 C   0  0  2  0  0  3  0  0  0  0  0  0
  190.2290  176.2410  145.2400 C   0  0  0  0  0  0  0  0  0  0  0  0
  193.0200  174.5020  142.4580 C   0  0  2  0  0  3  0  0  0  0  0  0
  189.8600  175.8560  143.9450 C   0  0  0  0  0  0  0  0  0  0  0  0
  190.9070  177.0050  147.8160 C   0  0  0  0  0  3  0  0  0  0  0  0
  187.7430  176.8940  141.3060 C   0  0  0  0  0  2  0  0  0  0  0  0
  191.8710  176.4080  146.9980 C   0  0  0  0  0  3  0  0  0  0  0  0
  188.1110  175.6780  142.1420 C   0  0  0  0  0  2  0  0  0  0  0  0
  186.1610  177.0500  144.0510 C   0  0  1  0  0  3  0  0  0  0  0  0
  189.6460  177.2110  147.3530 N   0  0  0  0  0  0  0  0  0  0  0  0
  187.9170  177.0700  145.5970 C   0  0  0  0  0  0  0  0  0  0  0  0
  184.8740  178.6890  142.8390 O   0  0  0  0  0  0  0  0  0  0  0  0
  184.0940  177.9340  142.0250 N   0  0  0  0  0  2  0  0  0  0  0  0
  180.7250  179.1870  142.0120 N   0  0  0  0  0  0  0  0  0  0  0  0
  182.1680  178.1130  140.5370 C   0  0  0  0  0  3  0  0  0  0  0  0
  182.7560  178.3170  141.7020 C   0  0  0  0  0  0  0  0  0  0  0  0
  180.7860  178.6700  140.6490 C   0  0  0  0  0  3  0  0  0  0  0  0
  181.8510  178.9830  142.6080 C   0  0  0  0  0  2  0  0  0  0  0  0
  1 26  1  0  0  0  0
  3 16  1  0  0  0  0
  4 23  2  0  0  0  0
  5 15  2  0  0  0  0
  7  3  2  0  0  0  0
  8 12  1  0  0  0  0
  9 27  2  0  0  0  0
 10 17  1  0  0  0  0
 11  5  1  0  0  0  0
 11 20  2  0  0  0  0
 13 20  1  0  0  0  0
 13  9  1  0  0  0  0
 14  2  2  0  0  0  0
 15 12  1  0  0  0  0
 15  4  1  0  0  0  0
 16  8  1  0  0  0  0
 17 28  1  6  0  0  0
 17 25  1  0  0  0  0
 18  4  1  0  0  0  0
 18  1  2  0  0  0  0
 19  6  1  6  0  0  0
 19  3  1  0  0  0  0
 19  5  1  0  0  0  0
 20 18  1  0  0  0  0
 22 10  1  0  0  0  0
 22 24  1  0  0  0  0
 23 21  1  0  0  0  0
 24 13  1  0  0  0  0
 25  9  1  0  0  0  0
 25 14  1  1  0  0  0
 26 21  2  0  0  0  0
 27  1  1  0  0  0  0
 27  2  1  0  0  0  0
 29 28  1  0  0  0  0
 30 34  1  0  0  0  0
 31 33  1  0  0  0  0
 31 32  2  0  0  0  0
 32 29  1  0  0  0  0
 32 34  1  0  0  0  0
 33 30  2  0  0  0  0
M  END
>  <MODEL>
4

>  <REMARK>
 VINA RESULT:      -8.2      3.088      9.369
  Name = 
  3 active torsions:
  status: ('A' for Active; 'I' for Inactive)
    1  A    between atoms: C_17  and  O_28
    2  A    between atoms: O_28  and  N_29
    3  A    between atoms: N_29  and  C_32
                            x       y       z     vdW  Elec       q    Type
                         _______ _______ _______ _____ _____    ______ ____

>  <TORSDO>
F 3

$$$$
=
 OpenBabel11112418043D

 34 40  0  0  1  0  0  0  0  0999 V2000
  189.0830  175.1510  142.4050 C   0  0  0  0  0  0  0  0  0  0  0  0
  191.1500  173.5540  142.0700 C   0  0  0  0  0  3  0  0  0  0  0  0
  184.7510  178.2000  146.3070 C   0  0  0  0  0  0  0  0  0  0  0  0
  187.2300  176.6580  142.8820 C   0  0  0  0  0  0  0  0  0  0  0  0
  186.8800  177.4120  145.1800 C   0  0  0  0  0  0  0  0  0  0  0  0
  186.8810  178.1640  147.6240 C   0  0  0  0  0  1  0  0  0  0  0  0
  184.1780  177.4860  147.1730 O   0  0  0  0  0  0  0  0  0  0  0  0
  184.8050  179.6950  144.0010 S   0  0  0  0  0  0  0  0  0  0  0  0
  190.5750  174.3940  144.1670 C   0  0  0  0  0  0  0  0  0  0  0  0
  192.6730  174.7630  146.5010 C   0  0  0  0  0  2  0  0  0  0  0  0
  187.9650  176.6740  145.5500 N   0  0  0  0  0  0  0  0  0  0  0  0
  185.2090  178.0750  143.2860 C   0  0  0  0  0  2  0  0  0  0  0  0
  189.8270  175.1600  145.1310 N   0  0  0  0  0  0  0  0  0  0  0  0
  192.1670  173.0190  143.0800 C   0  0  0  0  0  3  0  0  0  0  0  0
  186.4800  177.4250  143.8040 C   0  0  0  0  0  0  0  0  0  0  0  0
  183.9760  178.8880  145.3320 N   0  0  0  0  0  2  0  0  0  0  0  0
  192.9040  174.4790  145.0190 C   0  0  2  0  0  3  0  0  0  0  0  0
  188.3370  175.9130  143.3250 C   0  0  0  0  0  0  0  0  0  0  0  0
  186.2450  178.2930  146.2420 C   0  0  2  0  0  3  0  0  0  0  0  0
  188.6920  175.9270  144.6790 C   0  0  0  0  0  0  0  0  0  0  0  0
  187.6630  175.8410  140.6370 C   0  0  0  0  0  3  0  0  0  0  0  0
  191.5730  175.7890  146.7280 C   0  0  0  0  0  2  0  0  0  0  0  0
  186.8980  176.6110  141.5190 C   0  0  0  0  0  3  0  0  0  0  0  0
  190.2020  175.1580  146.5410 C   0  0  0  0  0  2  0  0  0  0  0  0
  191.7890  173.5860  144.4570 C   0  0  1  0  0  3  0  0  0  0  0  0
  188.7300  175.1330  141.0920 N   0  0  0  0  0  0  0  0  0  0  0  0
  190.2400  174.3810  142.8930 C   0  0  0  0  0  0  0  0  0  0  0  0
  194.1470  173.8520  144.8790 O   0  0  0  0  0  0  0  0  0  0  0  0
  194.1230  172.8220  145.7640 N   0  0  0  0  0  2  0  0  0  0  0  0
  197.1410  170.8690  145.7310 N   0  0  0  0  0  0  0  0  0  0  0  0
  194.8460  170.4940  145.6690 C   0  0  0  0  0  3  0  0  0  0  0  0
  195.1070  171.7870  145.7350 C   0  0  0  0  0  0  0  0  0  0  0  0
  196.1640  169.7880  145.6620 C   0  0  0  0  0  3  0  0  0  0  0  0
  196.5330  172.0060  145.7730 C   0  0  0  0  0  2  0  0  0  0  0  0
  1 27  1  0  0  0  0
  1 18  1  0  0  0  0
  2 27  1  0  0  0  0
  2 14  2  0  0  0  0
  3  7  2  0  0  0  0
  4 18  2  0  0  0  0
  4 15  1  0  0  0  0
  5 11  1  0  0  0  0
  5 19  1  0  0  0  0
  8 16  1  0  0  0  0
  9 25  1  0  0  0  0
  9 13  1  0  0  0  0
 10 22  1  0  0  0  0
 12 15  1  0  0  0  0
 12  8  1  0  0  0  0
 13 24  1  0  0  0  0
 15  5  2  0  0  0  0
 16  3  1  0  0  0  0
 17 28  1  1  0  0  0
 17 10  1  0  0  0  0
 18 20  1  0  0  0  0
 19  3  1  0  0  0  0
 19  6  1  1  0  0  0
 20 13  1  0  0  0  0
 20 11  2  0  0  0  0
 21 26  1  0  0  0  0
 21 23  2  0  0  0  0
 23  4  1  0  0  0  0
 24 22  1  0  0  0  0
 25 14  1  6  0  0  0
 25 17  1  0  0  0  0
 26  1  2  0  0  0  0
 27  9  2  0  0  0  0
 28 29  1  0  0  0  0
 30 34  1  0  0  0  0
 31 32  2  0  0  0  0
 32 29  1  0  0  0  0
 32 34  1  0  0  0  0
 33 31  1  0  0  0  0
 33 30  2  0  0  0  0
M  END
>  <MODEL>
5

>  <REMARK>
 VINA RESULT:      -8.2      1.686      2.123
  Name = 
  3 active torsions:
  status: ('A' for Active; 'I' for Inactive)
    1  A    between atoms: C_17  and  O_28
    2  A    between atoms: O_28  and  N_29
    3  A    between atoms: N_29  and  C_32
                            x       y       z     vdW  Elec       q    Type
                         _______ _______ _______ _____ _____    ______ ____

>  <TORSDO>
F 3

$$$$
=
 OpenBabel11112418043D

 34 40  0  0  1  0  0  0  0  0999 V2000
  190.6280  173.3130  142.5940 C   0  0  0  0  0  0  0  0  0  0  0  0
  188.0860  173.6730  142.0110 C   0  0  0  0  0  3  0  0  0  0  0  0
  196.5570  175.6980  144.1580 C   0  0  0  0  0  0  0  0  0  0  0  0
  192.9770  173.1400  143.2180 C   0  0  0  0  0  0  0  0  0  0  0  0
  194.0960  175.0940  144.1650 C   0  0  0  0  0  0  0  0  0  0  0  0
  194.9340  177.2320  145.2900 C   0  0  0  0  0  1  0  0  0  0  0  0
  196.9860  176.6440  143.4450 O   0  0  0  0  0  0  0  0  0  0  0  0
  196.5730  173.1040  145.0670 S   0  0  0  0  0  0  0  0  0  0  0  0
  189.3950  175.3840  142.9000 C   0  0  0  0  0  0  0  0  0  0  0  0
  188.1850  177.7790  144.5670 C   0  0  0  0  0  2  0  0  0  0  0  0
  192.9220  175.7780  144.0510 N   0  0  0  0  0  0  0  0  0  0  0  0
  195.4240  172.9000  143.6750 C   0  0  0  0  0  2  0  0  0  0  0  0
  190.5760  176.0100  143.4360 N   0  0  0  0  0  0  0  0  0  0  0  0
  187.1950  174.9060  142.1660 C   0  0  0  0  0  3  0  0  0  0  0  0
  194.1510  173.7250  143.7460 C   0  0  0  0  0  0  0  0  0  0  0  0
  197.2990  174.4870  144.2480 N   0  0  0  0  0  2  0  0  0  0  0  0
  187.5360  176.4660  144.1360 C   0  0  2  0  0  3  0  0  0  0  0  0
  191.7970  173.8980  143.1200 C   0  0  0  0  0  0  0  0  0  0  0  0
  195.2430  175.7980  144.8710 C   0  0  2  0  0  3  0  0  0  0  0  0
  191.7880  175.2340  143.5400 C   0  0  0  0  0  0  0  0  0  0  0  0
  191.7710  171.2630  142.2600 C   0  0  0  0  0  3  0  0  0  0  0  0
  189.6170  177.5890  145.0430 C   0  0  0  0  0  2  0  0  0  0  0  0
  192.9500  171.8070  142.7770 C   0  0  0  0  0  3  0  0  0  0  0  0
  190.5560  177.4060  143.8600 C   0  0  0  0  0  2  0  0  0  0  0  0
  188.0610  176.0260  142.7630 C   0  0  1  0  0  3  0  0  0  0  0  0
  190.6430  172.0180  142.1800 N   0  0  0  0  0  0  0  0  0  0  0  0
  189.4040  174.1280  142.5040 C   0  0  0  0  0  0  0  0  0  0  0  0
  186.1500  176.6530  144.0910 O   0  0  0  0  0  0  0  0  0  0  0  0
  185.9780  177.8690  143.5120 N   0  0  0  0  0  2  0  0  0  0  0  0
  184.4940  178.3230  140.2690 N   0  0  0  0  0  0  0  0  0  0  0  0
  183.7850  178.1440  142.4780 C   0  0  0  0  0  3  0  0  0  0  0  0
  185.1000  178.0520  142.4000 C   0  0  0  0  0  0  0  0  0  0  0  0
  183.2820  178.3280  141.0830 C   0  0  0  0  0  2  0  0  0  0  0  0
  185.5270  178.1650  141.0260 C   0  0  0  0  0  3  0  0  0  0  0  0
  1 18  1  0  0  0  0
  2 14  2  0  0  0  0
  2 27  1  0  0  0  0
  3 16  1  0  0  0  0
  3 19  1  0  0  0  0
  4 15  1  0  0  0  0
  5 19  1  0  0  0  0
  7  3  2  0  0  0  0
  9 13  1  0  0  0  0
 10 22  1  0  0  0  0
 11  5  1  0  0  0  0
 12 15  1  0  0  0  0
 12  8  1  0  0  0  0
 13 20  1  0  0  0  0
 13 24  1  0  0  0  0
 15  5  2  0  0  0  0
 16  8  1  0  0  0  0
 17 28  1  6  0  0  0
 17 10  1  0  0  0  0
 18  4  2  0  0  0  0
 18 20  1  0  0  0  0
 19  6  1  6  0  0  0
 20 11  2  0  0  0  0
 21 23  2  0  0  0  0
 23  4  1  0  0  0  0
 24 22  1  0  0  0  0
 25 14  1  1  0  0  0
 25  9  1  0  0  0  0
 25 17  1  0  0  0  0
 26 21  1  0  0  0  0
 26  1  2  0  0  0  0
 27  1  1  0  0  0  0
 27  9  2  0  0  0  0
 29 28  1  0  0  0  0
 30 34  2  0  0  0  0
 30 33  1  0  0  0  0
 32 31  2  0  0  0  0
 32 29  1  0  0  0  0
 33 31  1  0  0  0  0
 34 32  1  0  0  0  0
M  END
>  <MODEL>
6

>  <REMARK>
 VINA RESULT:      -8.0      3.242      8.599
  Name = 
  3 active torsions:
  status: ('A' for Active; 'I' for Inactive)
    1  A    between atoms: C_17  and  O_28
    2  A    between atoms: O_28  and  N_29
    3  A    between atoms: N_29  and  C_32
                            x       y       z     vdW  Elec       q    Type
                         _______ _______ _______ _____ _____    ______ ____

>  <TORSDO>
F 3

$$$$
=
 OpenBabel11112418043D

 34 40  0  0  1  0  0  0  0  0999 V2000
  190.7380  173.2950  141.9110 C   0  0  0  0  0  0  0  0  0  0  0  0
  188.5470  174.3240  140.8750 C   0  0  0  0  0  3  0  0  0  0  0  0
  196.4450  173.9680  145.1140 C   0  0  0  0  0  0  0  0  0  0  0  0
  192.7730  172.4860  142.9780 C   0  0  0  0  0  0  0  0  0  0  0  0
  193.9900  173.9740  144.4850 C   0  0  0  0  0  0  0  0  0  0  0  0
  194.9340  175.6840  146.1360 C   0  0  0  0  0  1  0  0  0  0  0  0
  197.2200  174.8700  144.6950 O   0  0  0  0  0  0  0  0  0  0  0  0
  195.7120  171.3500  145.5130 S   0  0  0  0  0  0  0  0  0  0  0  0
  189.9100  175.5410  142.3210 C   0  0  0  0  0  0  0  0  0  0  0  0
  188.8300  177.9160  144.1030 C   0  0  0  0  0  2  0  0  0  0  0  0
  193.0440  174.9280  144.2510 N   0  0  0  0  0  0  0  0  0  0  0  0
  194.9290  171.6100  143.8950 C   0  0  0  0  0  2  0  0  0  0  0  0
  191.0210  175.7920  143.2030 N   0  0  0  0  0  0  0  0  0  0  0  0
  187.9120  175.7040  141.0600 C   0  0  0  0  0  3  0  0  0  0  0  0
  193.8720  172.6990  143.8430 C   0  0  0  0  0  0  0  0  0  0  0  0
  196.8820  172.6150  145.1360 N   0  0  0  0  0  2  0  0  0  0  0  0
  188.0590  176.8640  143.3100 C   0  0  2  0  0  3  0  0  0  0  0  0
  191.8320  173.5090  142.7720 C   0  0  0  0  0  0  0  0  0  0  0  0
  195.0430  174.2850  145.5360 C   0  0  2  0  0  3  0  0  0  0  0  0
  191.9880  174.7410  143.4180 C   0  0  0  0  0  0  0  0  0  0  0  0
  191.4910  171.0930  141.4570 C   0  0  0  0  0  3  0  0  0  0  0  0
  190.0290  177.3290  144.8310 C   0  0  0  0  0  2  0  0  0  0  0  0
  192.5890  171.2670  142.3040 C   0  0  0  0  0  3  0  0  0  0  0  0
  191.1770  177.0840  143.8620 C   0  0  0  0  0  2  0  0  0  0  0  0
  188.8100  176.4960  142.0230 C   0  0  1  0  0  3  0  0  0  0  0  0
  190.5950  172.0990  141.2790 N   0  0  0  0  0  0  0  0  0  0  0  0
  189.7640  174.3820  141.7130 C   0  0  0  0  0  0  0  0  0  0  0  0
  186.7940  177.3810  143.0060 O   0  0  0  0  0  0  0  0  0  0  0  0
  185.9410  176.7420  143.8470 N   0  0  0  0  0  2  0  0  0  0  0  0
  184.0500  179.0410  145.8620 N   0  0  0  0  0  0  0  0  0  0  0  0
  185.1950  177.0360  146.1510 C   0  0  0  0  0  3  0  0  0  0  0  0
  185.2610  177.4360  144.8940 C   0  0  0  0  0  0  0  0  0  0  0  0
  184.3920  178.0590  146.8870 C   0  0  0  0  0  2  0  0  0  0  0  0
  184.5480  178.6800  144.7280 C   0  0  0  0  0  3  0  0  0  0  0  0
  1 18  1  0  0  0  0
  2 14  2  0  0  0  0
  2 27  1  0  0  0  0
  3 16  1  0  0  0  0
  3 19  1  0  0  0  0
  4 15  1  0  0  0  0
  5 19  1  0  0  0  0
  7  3  2  0  0  0  0
  9 13  1  0  0  0  0
 10 22  1  0  0  0  0
 11  5  1  0  0  0  0
 12  8  1  0  0  0  0
 13 20  1  0  0  0  0
 13 24  1  0  0  0  0
 15 12  1  0  0  0  0
 15  5  2  0  0  0  0
 16  8  1  0  0  0  0
 17 28  1  6  0  0  0
 17 10  1  0  0  0  0
 18  4  2  0  0  0  0
 18 20  1  0  0  0  0
 19  6  1  6  0  0  0
 20 11  2  0  0  0  0
 21 23  2  0  0  0  0
 23  4  1  0  0  0  0
 24 22  1  0  0  0  0
 25 14  1  6  0  0  0
 25  9  1  0  0  0  0
 25 17  1  0  0  0  0
 26 21  1  0  0  0  0
 26  1  2  0  0  0  0
 27  1  1  0  0  0  0
 27  9  2  0  0  0  0
 28 29  1  0  0  0  0
 29 32  1  0  0  0  0
 30 33  1  0  0  0  0
 31 33  1  0  0  0  0
 32 31  2  0  0  0  0
 34 32  1  0  0  0  0
 34 30  2  0  0  0  0
M  END
>  <MODEL>
7

>  <REMARK>
 VINA RESULT:      -7.9      3.225      8.636
  Name = 
  3 active torsions:
  status: ('A' for Active; 'I' for Inactive)
    1  A    between atoms: C_17  and  O_28
    2  A    between atoms: O_28  and  N_29
    3  A    between atoms: N_29  and  C_32
                            x       y       z     vdW  Elec       q    Type
                         _______ _______ _______ _____ _____    ______ ____

>  <TORSDO>
F 3

$$$$
=
 OpenBabel11112418043D

 34 40  0  0  1  0  0  0  0  0999 V2000
  192.3040  176.2360  146.1580 C   0  0  0  0  0  0  0  0  0  0  0  0
  194.8440  175.5430  146.1940 C   0  0  0  0  0  3  0  0  0  0  0  0
  186.8110  177.7650  142.8750 C   0  0  0  0  0  0  0  0  0  0  0  0
  189.9440  176.8060  145.9600 C   0  0  0  0  0  0  0  0  0  0  0  0
  188.8470  176.5650  143.7890 C   0  0  0  0  0  0  0  0  0  0  0  0
  187.9420  176.0390  141.4560 C   0  0  0  0  0  1  0  0  0  0  0  0
  186.9260  178.6240  141.9600 O   0  0  0  0  0  0  0  0  0  0  0  0
  185.9500  176.9000  145.3370 S   0  0  0  0  0  0  0  0  0  0  0  0
  193.5710  175.4380  144.2450 C   0  0  0  0  0  0  0  0  0  0  0  0
  194.2330  173.4650  141.8680 C   0  0  0  0  0  2  0  0  0  0  0  0
  190.0330  176.1240  143.2790 N   0  0  0  0  0  0  0  0  0  0  0  0
  187.5650  177.5660  145.8320 C   0  0  0  0  0  2  0  0  0  0  0  0
  192.3960  175.5500  143.4190 N   0  0  0  0  0  0  0  0  0  0  0  0
  195.7470  175.0170  145.0770 C   0  0  0  0  0  3  0  0  0  0  0  0
  188.7720  176.9200  145.1760 C   0  0  0  0  0  0  0  0  0  0  0  0
  185.9270  178.0050  143.9640 N   0  0  0  0  0  2  0  0  0  0  0  0
  194.7840  173.4950  143.2920 C   0  0  2  0  0  3  0  0  0  0  0  0
  191.1380  176.3500  145.3760 C   0  0  0  0  0  0  0  0  0  0  0  0
  187.6360  176.5140  142.8740 C   0  0  2  0  0  3  0  0  0  0  0  0
  191.1680  176.0150  144.0160 C   0  0  0  0  0  0  0  0  0  0  0  0
  191.1330  177.0160  148.0660 C   0  0  0  0  0  3  0  0  0  0  0  0
  192.7360  173.7250  141.8210 C   0  0  0  0  0  2  0  0  0  0  0  0
  189.9560  177.1420  147.3230 C   0  0  0  0  0  3  0  0  0  0  0  0
  192.4430  175.2070  142.0010 C   0  0  0  0  0  2  0  0  0  0  0  0
  194.8980  174.9390  143.7980 C   0  0  1  0  0  3  0  0  0  0  0  0
  192.2730  176.5690  147.4760 N   0  0  0  0  0  0  0  0  0  0  0  0
  193.5430  175.7530  145.5230 C   0  0  0  0  0  0  0  0  0  0  0  0
  196.0400  172.8780  143.2920 O   0  0  0  0  0  0  0  0  0  0  0  0
  195.7790  171.5500  143.4020 N   0  0  0  0  0  2  0  0  0  0  0  0
  195.0950  169.6740  146.3910 N   0  0  0  0  0  0  0  0  0  0  0  0
  196.8860  170.8240  145.4520 C   0  0  0  0  0  3  0  0  0  0  0  0
  195.8290  170.8790  144.6620 C   0  0  0  0  0  0  0  0  0  0  0  0
  196.4870  170.0270  146.6510 C   0  0  0  0  0  2  0  0  0  0  0  0
  194.7260  170.1620  145.2560 C   0  0  0  0  0  3  0  0  0  0  0  0
  1 26  1  0  0  0  0
  3 16  1  0  0  0  0
  4 23  2  0  0  0  0
  5 15  2  0  0  0  0
  7  3  2  0  0  0  0
  8 12  1  0  0  0  0
  9 27  2  0  0  0  0
 10 17  1  0  0  0  0
 11  5  1  0  0  0  0
 11 20  2  0  0  0  0
 13 20  1  0  0  0  0
 13  9  1  0  0  0  0
 14  2  2  0  0  0  0
 15 12  1  0  0  0  0
 15  4  1  0  0  0  0
 16  8  1  0  0  0  0
 17 28  1  6  0  0  0
 17 25  1  0  0  0  0
 18  4  1  0  0  0  0
 18  1  2  0  0  0  0
 19  6  1  6  0  0  0
 19  3  1  0  0  0  0
 19  5  1  0  0  0  0
 20 18  1  0  0  0  0
 22 10  1  0  0  0  0
 22 24  1  0  0  0  0
 23 21  1  0  0  0  0
 24 13  1  0  0  0  0
 25  9  1  0  0  0  0
 25 14  1  1  0  0  0
 26 21  2  0  0  0  0
 27  1  1  0  0  0  0
 27  2  1  0  0  0  0
 28 29  1  0  0  0  0
 29 32  1  0  0  0  0
 30 33  1  0  0  0  0
 31 33  1  0  0  0  0
 32 34  1  0  0  0  0
 32 31  2  0  0  0  0
 34 30  2  0  0  0  0
M  END
>  <MODEL>
8

>  <REMARK>
 VINA RESULT:      -7.9      2.817      4.860
  Name = 
  3 active torsions:
  status: ('A' for Active; 'I' for Inactive)
    1  A    between atoms: C_17  and  O_28
    2  A    between atoms: O_28  and  N_29
    3  A    between atoms: N_29  and  C_32
                            x       y       z     vdW  Elec       q    Type
                         _______ _______ _______ _____ _____    ______ ____

>  <TORSDO>
F 3

$$$$
=
 OpenBabel11112418043D

 34 40  0  0  1  0  0  0  0  0999 V2000
  187.5340  175.9770  140.9060 C   0  0  0  0  0  0  0  0  0  0  0  0
  185.6830  177.6170  140.0000 C   0  0  0  0  0  3  0  0  0  0  0  0
  191.7630  174.1100  145.5870 C   0  0  0  0  0  0  0  0  0  0  0  0
  189.2000  174.5110  141.9110 C   0  0  0  0  0  0  0  0  0  0  0  0
  189.6640  174.7110  144.3010 C   0  0  0  0  0  0  0  0  0  0  0  0
  189.7960  175.0300  146.8350 C   0  0  0  0  0  1  0  0  0  0  0  0
  192.5100  175.0090  146.0580 O   0  0  0  0  0  0  0  0  0  0  0  0
  191.2810  171.8380  144.1180 S   0  0  0  0  0  0  0  0  0  0  0  0
  186.3380  177.6200  142.2360 C   0  0  0  0  0  0  0  0  0  0  0  0
  184.4460  178.5850  144.5750 C   0  0  0  0  0  2  0  0  0  0  0  0
  188.7310  175.7040  144.3630 N   0  0  0  0  0  0  0  0  0  0  0  0
  191.0370  173.0690  142.8050 C   0  0  0  0  0  2  0  0  0  0  0  0
  187.0630  177.2020  143.4080 N   0  0  0  0  0  0  0  0  0  0  0  0
  184.8520  178.6770  140.7250 C   0  0  0  0  0  3  0  0  0  0  0  0
  189.9230  174.0730  143.0450 C   0  0  0  0  0  0  0  0  0  0  0  0
  192.3380  172.9670  144.9650 N   0  0  0  0  0  2  0  0  0  0  0  0
  184.1140  178.2760  143.1180 C   0  0  2  0  0  3  0  0  0  0  0  0
  188.2540  175.5430  142.0360 C   0  0  0  0  0  0  0  0  0  0  0  0
  190.2720  174.2470  145.6140 C   0  0  2  0  0  3  0  0  0  0  0  0
  188.0330  176.1400  143.2830 C   0  0  0  0  0  0  0  0  0  0  0  0
  188.6680  174.4020  139.5440 C   0  0  0  0  0  3  0  0  0  0  0  0
  185.4100  177.5750  145.1760 C   0  0  0  0  0  2  0  0  0  0  0  0
  189.4020  173.9440  140.6420 C   0  0  0  0  0  3  0  0  0  0  0  0
  186.8310  177.8390  144.7000 C   0  0  0  0  0  2  0  0  0  0  0  0
  185.2810  178.6650  142.2010 C   0  0  1  0  0  3  0  0  0  0  0  0
  187.7570  175.4000  139.6950 N   0  0  0  0  0  0  0  0  0  0  0  0
  186.5460  177.0590  141.0630 C   0  0  0  0  0  0  0  0  0  0  0  0
  182.9600  178.9880  142.7680 O   0  0  0  0  0  0  0  0  0  0  0  0
  182.2390  178.1330  141.9990 N   0  0  0  0  0  2  0  0  0  0  0  0
  179.4140  179.6280  140.3540 N   0  0  0  0  0  0  0  0  0  0  0  0
  179.8250  177.8440  141.7910 C   0  0  0  0  0  3  0  0  0  0  0  0
  180.9450  178.4810  141.5020 C   0  0  0  0  0  0  0  0  0  0  0  0
  178.7290  178.5480  141.0580 C   0  0  0  0  0  2  0  0  0  0  0  0
  180.6770  179.5850  140.6120 C   0  0  0  0  0  3  0  0  0  0  0  0
  1 27  1  0  0  0  0
  1 18  1  0  0  0  0
  2 14  2  0  0  0  0
  2 27  1  0  0  0  0
  3 19  1  0  0  0  0
  3  7  2  0  0  0  0
  4 18  2  0  0  0  0
  4 15  1  0  0  0  0
  5 11  1  0  0  0  0
  5 19  1  0  0  0  0
  8 16  1  0  0  0  0
  9 13  1  0  0  0  0
 10 22  1  0  0  0  0
 12 15  1  0  0  0  0
 12  8  1  0  0  0  0
 13 24  1  0  0  0  0
 15  5  2  0  0  0  0
 16  3  1  0  0  0  0
 17 28  1  6  0  0  0
 17 10  1  0  0  0  0
 18 20  1  0  0  0  0
 19  6  1  1  0  0  0
 20 13  1  0  0  0  0
 20 11  2  0  0  0  0
 21 26  1  0  0  0  0
 21 23  2  0  0  0  0
 23  4  1  0  0  0  0
 24 22  1  0  0  0  0
 25 14  1  6  0  0  0
 25  9  1  0  0  0  0
 25 17  1  0  0  0  0
 26  1  2  0  0  0  0
 27  9  2  0  0  0  0
 29 28  1  0  0  0  0
 30 34  2  0  0  0  0
 30 33  1  0  0  0  0
 32 31  2  0  0  0  0
 32 29  1  0  0  0  0
 33 31  1  0  0  0  0
 34 32  1  0  0  0  0
M  END
>  <MODEL>
9

>  <REMARK>
 VINA RESULT:      -7.8      3.381      9.333
  Name = 
  3 active torsions:
  status: ('A' for Active; 'I' for Inactive)
    1  A    between atoms: C_17  and  O_28
    2  A    between atoms: O_28  and  N_29
    3  A    between atoms: N_29  and  C_32
                            x       y       z     vdW  Elec       q    Type
                         _______ _______ _______ _____ _____    ______ ____

>  <TORSDO>
F 3

$$$$
