=
 OpenBabel11112416163D

 30 36  0  0  1  0  0  0  0  0999 V2000
  187.0960  177.1250  143.9930 C   0  0  1  0  0  3  0  0  0  0  0  0
  185.2810  178.3440  145.3210 C   0  0  0  0  0  0  0  0  0  0  0  0
  189.6180  177.1110  147.5250 C   0  0  0  0  0  2  0  0  0  0  0  0
  188.3580  176.2500  144.1680 C   0  0  1  0  0  3  0  0  0  0  0  0
  186.1530  176.4220  143.2210 O   0  0  0  0  0  0  0  0  0  0  0  0
  188.4250  175.5250  140.5950 O   0  0  0  0  0  0  0  0  0  0  0  0
  191.3670  176.3560  142.9780 C   0  0  1  0  0  3  0  0  0  0  0  0
  188.0270  175.9310  141.7200 C   0  0  0  0  0  0  0  0  0  0  0  0
  191.7190  176.5720  144.4490 C   0  0  2  0  0  3  0  0  0  0  0  0
  190.8040  176.5950  146.7960 C   0  0  0  0  0  0  0  0  0  0  0  0
  186.6000  176.4130  141.8730 C   0  0  2  0  0  3  0  0  0  0  0  0
  188.9270  175.9670  142.8460 N   0  0  0  0  0  0  0  0  0  0  0  0
  184.8230  178.9110  146.5120 C   0  0  0  0  0  3  0  0  0  0  0  0
  192.8440  175.5980  144.7310 C   0  0  0  0  0  2  0  0  0  0  0  0
  192.6500  175.8760  142.3200 C   0  0  0  0  0  2  0  0  0  0  0  0
  184.5140  178.4750  144.1690 O   0  0  0  0  0  1  0  0  0  0  0  0
  188.5680  176.8750  146.4690 C   0  0  2  0  0  3  0  0  0  0  0  0
  185.6020  178.8180  147.6660 C   0  0  0  0  0  3  0  0  0  0  0  0
  186.5120  177.6650  145.2960 C   0  0  0  0  0  0  0  0  0  0  0  0
  189.2800  176.9910  145.1350 C   0  0  1  0  0  3  0  0  0  0  0  0
  191.9100  176.3870  147.3610 O   0  0  0  0  0  0  0  0  0  0  0  0
  190.5990  176.4220  145.3870 N   0  0  0  0  0  0  0  0  0  0  0  0
  193.6190  175.5090  143.4330 C   0  0  0  0  0  2  0  0  0  0  0  0
  190.3440  174.0230  143.4410 C   0  0  0  0  0  1  0  0  0  0  0  0
  186.8070  178.1920  147.6290 N   0  0  0  0  0  0  0  0  0  0  0  0
  187.2880  177.6490  146.4790 C   0  0  0  0  0  0  0  0  0  0  0  0
  190.2430  175.3520  142.6960 C   0  0  2  0  0  3  0  0  0  0  0  0
  186.3830  177.7620  141.1930 C   0  0  0  0  0  3  0  0  0  0  0  0
  184.9030  177.9750  140.9450 C   0  0  0  0  0  2  0  0  0  0  0  0
  185.8040  177.5380  139.8100 C   0  0  0  0  0  2  0  0  0  0  0  0
  1  5  1  1  0  0  0
  1  4  1  0  0  0  0
  1 19  1  0  0  0  0
  2 13  1  0  0  0  0
  4 12  1  6  0  0  0
  4 20  1  0  0  0  0
  6  8  2  0  0  0  0
  7 15  1  6  0  0  0
  7  9  1  0  0  0  0
  8 11  1  0  0  0  0
  8 12  1  0  0  0  0
  9 14  1  1  0  0  0
  9 22  1  0  0  0  0
 10 21  2  0  0  0  0
 10  3  1  0  0  0  0
 11 28  1  1  0  0  0
 11  5  1  0  0  0  0
 13 18  2  0  0  0  0
 15 23  1  0  0  0  0
 16  2  1  0  0  0  0
 17 26  1  0  0  0  0
 17  3  1  1  0  0  0
 19  2  2  0  0  0  0
 19 26  1  0  0  0  0
 20 22  1  1  0  0  0
 20 17  1  0  0  0  0
 22 10  1  0  0  0  0
 23 14  1  0  0  0  0
 25 18  1  0  0  0  0
 26 25  2  0  0  0  0
 27 12  1  0  0  0  0
 27  7  1  0  0  0  0
 27 24  1  1  0  0  0
 29 28  1  0  0  0  0
 30 29  1  0  0  0  0
 30 28  1  0  0  0  0
M  END
>  <MODEL>
1

>  <REMARK>
 VINA RESULT:      -8.6      0.000      0.000
  Name = 
  1 active torsions:
  status: ('A' for Active; 'I' for Inactive)
    1  A    between atoms: C_11  and  C_28
                            x       y       z     vdW  Elec       q    Type
                         _______ _______ _______ _____ _____    ______ ____

>  <TORSDO>
F 1

$$$$
=
 OpenBabel11112416163D

 30 36  0  0  1  0  0  0  0  0999 V2000
  186.8200  177.0880  143.8690 C   0  0  1  0  0  3  0  0  0  0  0  0
  184.8450  178.3310  142.8210 C   0  0  0  0  0  0  0  0  0  0  0  0
  187.8160  175.4620  139.9700 C   0  0  0  0  0  2  0  0  0  0  0  0
  188.1660  176.4130  143.5150 C   0  0  1  0  0  3  0  0  0  0  0  0
  187.0510  178.1090  144.8090 O   0  0  0  0  0  0  0  0  0  0  0  0
  189.0100  176.1070  147.0500 O   0  0  0  0  0  0  0  0  0  0  0  0
  189.5020  173.5420  144.1860 C   0  0  1  0  0  3  0  0  0  0  0  0
  188.4150  176.4520  145.9940 C   0  0  0  0  0  0  0  0  0  0  0  0
  189.4010  173.3740  142.6720 C   0  0  2  0  0  3  0  0  0  0  0  0
  188.8510  174.5440  140.5090 C   0  0  0  0  0  0  0  0  0  0  0  0
  187.3280  177.5040  146.0640 C   0  0  2  0  0  3  0  0  0  0  0  0
  188.7400  175.8310  144.7330 N   0  0  0  0  0  0  0  0  0  0  0  0
  184.0760  178.6660  141.7050 C   0  0  0  0  0  3  0  0  0  0  0  0
  190.7660  172.8820  142.2380 C   0  0  0  0  0  2  0  0  0  0  0  0
  190.5450  172.5330  144.6380 C   0  0  0  0  0  2  0  0  0  0  0  0
  184.4340  178.7550  144.0800 O   0  0  0  0  0  1  0  0  0  0  0  0
  187.5970  176.3170  141.1930 C   0  0  2  0  0  3  0  0  0  0  0  0
  184.4600  178.2140  140.4410 C   0  0  0  0  0  3  0  0  0  0  0  0
  186.0120  177.5630  142.6640 C   0  0  0  0  0  0  0  0  0  0  0  0
  187.8830  175.4250  142.3860 C   0  0  1  0  0  3  0  0  0  0  0  0
  189.5140  173.7640  139.7750 O   0  0  0  0  0  0  0  0  0  0  0  0
  188.9780  174.5740  141.9370 N   0  0  0  0  0  0  0  0  0  0  0  0
  191.2610  172.0350  143.3920 C   0  0  0  0  0  2  0  0  0  0  0  0
  191.0850  175.5790  143.9750 C   0  0  0  0  0  1  0  0  0  0  0  0
  185.5680  177.4420  140.2990 N   0  0  0  0  0  0  0  0  0  0  0  0
  186.3250  177.0830  141.3700 C   0  0  0  0  0  0  0  0  0  0  0  0
  189.8940  174.9380  144.6830 C   0  0  2  0  0  3  0  0  0  0  0  0
  186.0620  176.9650  146.7270 C   0  0  0  0  0  3  0  0  0  0  0  0
  185.1030  178.1070  146.9950 C   0  0  0  0  0  2  0  0  0  0  0  0
  185.9410  177.5450  148.1220 C   0  0  0  0  0  2  0  0  0  0  0  0
  1 19  1  6  0  0  0
  1  5  1  0  0  0  0
  2 16  1  0  0  0  0
  3 10  1  0  0  0  0
  4  1  1  0  0  0  0
  4 12  1  1  0  0  0
  5 11  1  0  0  0  0
  7 15  1  6  0  0  0
  7 27  1  0  0  0  0
  8 11  1  0  0  0  0
  8  6  2  0  0  0  0
  9 14  1  6  0  0  0
  9  7  1  0  0  0  0
 10 22  1  0  0  0  0
 11 28  1  6  0  0  0
 12  8  1  0  0  0  0
 13  2  2  0  0  0  0
 14 23  1  0  0  0  0
 17  3  1  6  0  0  0
 17 26  1  0  0  0  0
 17 20  1  0  0  0  0
 18 13  1  0  0  0  0
 19  2  1  0  0  0  0
 20 22  1  6  0  0  0
 20  4  1  0  0  0  0
 21 10  2  0  0  0  0
 22  9  1  0  0  0  0
 23 15  1  0  0  0  0
 25 18  2  0  0  0  0
 25 26  1  0  0  0  0
 26 19  2  0  0  0  0
 27 24  1  6  0  0  0
 27 12  1  0  0  0  0
 28 29  1  0  0  0  0
 28 30  1  0  0  0  0
 29 30  1  0  0  0  0
M  END
>  <MODEL>
2

>  <REMARK>
 VINA RESULT:      -8.2      1.754      4.959
  Name = 
  1 active torsions:
  status: ('A' for Active; 'I' for Inactive)
    1  A    between atoms: C_11  and  C_28
                            x       y       z     vdW  Elec       q    Type
                         _______ _______ _______ _____ _____    ______ ____

>  <TORSDO>
F 1

$$$$
=
 OpenBabel11112416163D

 30 36  0  0  1  0  0  0  0  0999 V2000
  189.6740  175.2090  144.1420 C   0  0  1  0  0  3  0  0  0  0  0  0
  191.4470  173.8960  142.8470 C   0  0  0  0  0  0  0  0  0  0  0  0
  187.5790  175.9790  140.4200 C   0  0  0  0  0  2  0  0  0  0  0  0
  188.2200  175.7240  144.0420 C   0  0  1  0  0  3  0  0  0  0  0  0
  189.7920  174.3810  145.2740 O   0  0  0  0  0  0  0  0  0  0  0  0
  188.2500  176.6700  147.5640 O   0  0  0  0  0  0  0  0  0  0  0  0
  186.7980  178.5910  144.5270 C   0  0  1  0  0  3  0  0  0  0  0  0
  188.5980  176.1580  146.4660 C   0  0  0  0  0  0  0  0  0  0  0  0
  186.5030  178.4640  143.0340 C   0  0  2  0  0  3  0  0  0  0  0  0
  186.6200  176.9250  141.0430 C   0  0  0  0  0  0  0  0  0  0  0  0
  189.7730  175.2040  146.4310 C   0  0  2  0  0  3  0  0  0  0  0  0
  187.9080  176.5010  145.2470 N   0  0  0  0  0  0  0  0  0  0  0  0
  191.9470  173.3930  141.6440 C   0  0  0  0  0  3  0  0  0  0  0  0
  185.0290  178.7850  142.8960 C   0  0  0  0  0  2  0  0  0  0  0  0
  185.8000  179.6090  145.0530 C   0  0  0  0  0  2  0  0  0  0  0  0
  192.2000  173.7520  144.0070 O   0  0  0  0  0  1  0  0  0  0  0  0
  188.1820  175.3940  141.6730 C   0  0  2  0  0  3  0  0  0  0  0  0
  191.2170  173.5660  140.4670 C   0  0  0  0  0  3  0  0  0  0  0  0
  190.2040  174.5530  142.8700 C   0  0  0  0  0  0  0  0  0  0  0  0
  188.1090  176.4850  142.7240 C   0  0  1  0  0  3  0  0  0  0  0  0
  185.7170  177.5080  140.3840 O   0  0  0  0  0  0  0  0  0  0  0  0
  186.8540  177.1690  142.4360 N   0  0  0  0  0  0  0  0  0  0  0  0
  184.7490  179.8120  143.9720 C   0  0  0  0  0  2  0  0  0  0  0  0
  185.4350  176.4670  145.1000 C   0  0  0  0  0  1  0  0  0  0  0  0
  190.0330  174.2310  140.4880 N   0  0  0  0  0  0  0  0  0  0  0  0
  189.5320  174.7510  141.6400 C   0  0  0  0  0  0  0  0  0  0  0  0
  186.6900  177.3000  145.3470 C   0  0  2  0  0  3  0  0  0  0  0  0
  191.0990  175.9320  146.6330 C   0  0  0  0  0  3  0  0  0  0  0  0
  192.1820  174.9300  146.9780 C   0  0  0  0  0  2  0  0  0  0  0  0
  191.5500  175.7640  148.0700 C   0  0  0  0  0  2  0  0  0  0  0  0
  1 19  1  6  0  0  0
  1  5  1  0  0  0  0
  2 19  1  0  0  0  0
  2 16  1  0  0  0  0
  3 10  1  0  0  0  0
  4  1  1  0  0  0  0
  4 12  1  1  0  0  0
  5 11  1  0  0  0  0
  7 15  1  1  0  0  0
  7 27  1  0  0  0  0
  8  6  2  0  0  0  0
  9 14  1  1  0  0  0
  9  7  1  0  0  0  0
 10 22  1  0  0  0  0
 11  8  1  0  0  0  0
 11 28  1  6  0  0  0
 12 27  1  0  0  0  0
 12  8  1  0  0  0  0
 13  2  2  0  0  0  0
 14 23  1  0  0  0  0
 17  3  1  6  0  0  0
 17 20  1  0  0  0  0
 18 25  2  0  0  0  0
 18 13  1  0  0  0  0
 20 22  1  1  0  0  0
 20  4  1  0  0  0  0
 21 10  2  0  0  0  0
 22  9  1  0  0  0  0
 23 15  1  0  0  0  0
 25 26  1  0  0  0  0
 26 17  1  0  0  0  0
 26 19  2  0  0  0  0
 27 24  1  6  0  0  0
 28 29  1  0  0  0  0
 28 30  1  0  0  0  0
 29 30  1  0  0  0  0
M  END
>  <MODEL>
3

>  <REMARK>
 VINA RESULT:      -7.6      2.137      7.108
  Name = 
  1 active torsions:
  status: ('A' for Active; 'I' for Inactive)
    1  A    between atoms: C_11  and  C_28
                            x       y       z     vdW  Elec       q    Type
                         _______ _______ _______ _____ _____    ______ ____

>  <TORSDO>
F 1

$$$$
=
 OpenBabel11112416163D

 30 36  0  0  1  0  0  0  0  0999 V2000
  189.2450  175.7060  143.8990 C   0  0  1  0  0  3  0  0  0  0  0  0
  191.0210  174.6180  145.3840 C   0  0  0  0  0  0  0  0  0  0  0  0
  187.8620  178.0110  147.3060 C   0  0  0  0  0  2  0  0  0  0  0  0
  188.3160  176.9390  143.8070 C   0  0  1  0  0  3  0  0  0  0  0  0
  190.0760  175.6710  142.7640 O   0  0  0  0  0  0  0  0  0  0  0  0
  187.4420  176.1010  140.3670 O   0  0  0  0  0  0  0  0  0  0  0  0
  185.1570  177.3550  143.2370 C   0  0  1  0  0  3  0  0  0  0  0  0
  188.0280  176.0900  141.4830 C   0  0  0  0  0  0  0  0  0  0  0  0
  185.1820  177.8960  144.6650 C   0  0  2  0  0  3  0  0  0  0  0  0
  186.6750  178.5410  146.5890 C   0  0  0  0  0  0  0  0  0  0  0  0
  189.2910  175.2710  141.6490 C   0  0  2  0  0  3  0  0  0  0  0  0
  187.4880  176.8220  142.6020 N   0  0  0  0  0  0  0  0  0  0  0  0
  191.6440  174.4770  146.6250 C   0  0  0  0  0  3  0  0  0  0  0  0
  184.4340  179.2110  144.6010 C   0  0  0  0  0  2  0  0  0  0  0  0
  183.8900  177.9160  142.6120 C   0  0  0  0  0  2  0  0  0  0  0  0
  191.3910  173.7770  144.3400 O   0  0  0  0  0  1  0  0  0  0  0  0
  188.6070  177.4280  146.1320 C   0  0  2  0  0  3  0  0  0  0  0  0
  191.2540  175.2910  147.6900 C   0  0  0  0  0  3  0  0  0  0  0  0
  190.0220  175.5910  145.2070 C   0  0  0  0  0  0  0  0  0  0  0  0
  187.5500  177.0150  145.1250 C   0  0  1  0  0  3  0  0  0  0  0  0
  185.8450  179.3180  147.1330 O   0  0  0  0  0  0  0  0  0  0  0  0
  186.5200  178.0390  145.2550 N   0  0  0  0  0  0  0  0  0  0  0  0
  183.3760  179.0080  143.5380 C   0  0  0  0  0  2  0  0  0  0  0  0
  186.7790  179.1860  142.3880 C   0  0  0  0  0  1  0  0  0  0  0  0
  190.2650  176.2060  147.5250 N   0  0  0  0  0  0  0  0  0  0  0  0
  189.6250  176.3510  146.3330 C   0  0  0  0  0  0  0  0  0  0  0  0
  186.3620  177.7180  142.3590 C   0  0  2  0  0  3  0  0  0  0  0  0
  188.9940  173.7730  141.6720 C   0  0  0  0  0  3  0  0  0  0  0  0
  190.2640  172.9990  141.3760 C   0  0  0  0  0  2  0  0  0  0  0  0
  189.2290  173.1960  140.2900 C   0  0  0  0  0  2  0  0  0  0  0  0
  1  5  1  6  0  0  0
  1 19  1  0  0  0  0
  2 13  1  0  0  0  0
  4 12  1  6  0  0  0
  4  1  1  0  0  0  0
  4 20  1  0  0  0  0
  6  8  2  0  0  0  0
  7 15  1  6  0  0  0
  7  9  1  0  0  0  0
  8 11  1  0  0  0  0
  8 12  1  0  0  0  0
  9 14  1  6  0  0  0
  9 22  1  0  0  0  0
 10 21  2  0  0  0  0
 10  3  1  0  0  0  0
 11 28  1  1  0  0  0
 11  5  1  0  0  0  0
 13 18  2  0  0  0  0
 15 23  1  0  0  0  0
 16  2  1  0  0  0  0
 17 26  1  0  0  0  0
 17  3  1  1  0  0  0
 19  2  2  0  0  0  0
 19 26  1  0  0  0  0
 20 22  1  6  0  0  0
 20 17  1  0  0  0  0
 22 10  1  0  0  0  0
 23 14  1  0  0  0  0
 25 18  1  0  0  0  0
 26 25  2  0  0  0  0
 27 24  1  1  0  0  0
 27 12  1  0  0  0  0
 27  7  1  0  0  0  0
 29 28  1  0  0  0  0
 30 29  1  0  0  0  0
 30 28  1  0  0  0  0
M  END
>  <MODEL>
4

>  <REMARK>
 VINA RESULT:      -7.5      2.065      5.570
  Name = 
  1 active torsions:
  status: ('A' for Active; 'I' for Inactive)
    1  A    between atoms: C_11  and  C_28
                            x       y       z     vdW  Elec       q    Type
                         _______ _______ _______ _____ _____    ______ ____

>  <TORSDO>
F 1

$$$$
=
 OpenBabel11112416163D

 30 36  0  0  1  0  0  0  0  0999 V2000
  188.6100  175.1710  141.5360 C   0  0  1  0  0  3  0  0  0  0  0  0
  187.0120  176.5010  140.0460 C   0  0  0  0  0  0  0  0  0  0  0  0
  187.6650  177.8160  144.8450 C   0  0  0  0  0  2  0  0  0  0  0  0
  188.9390  174.8770  143.0180 C   0  0  1  0  0  3  0  0  0  0  0  0
  188.3190  173.9600  140.8810 O   0  0  0  0  0  0  0  0  0  0  0  0
  191.2260  172.2090  142.0440 O   0  0  0  0  0  0  0  0  0  0  0  0
  191.6520  174.9180  144.7830 C   0  0  1  0  0  3  0  0  0  0  0  0
  190.3400  173.1030  141.9720 C   0  0  0  0  0  0  0  0  0  0  0  0
  190.9130  176.0360  145.5150 C   0  0  2  0  0  3  0  0  0  0  0  0
  188.7130  177.2450  145.7280 C   0  0  0  0  0  0  0  0  0  0  0  0
  189.5360  173.2500  140.6970 C   0  0  2  0  0  3  0  0  0  0  0  0
  190.1120  173.9990  143.0790 N   0  0  0  0  0  0  0  0  0  0  0  0
  186.1020  177.5450  139.8710 C   0  0  0  0  0  3  0  0  0  0  0  0
  191.0480  175.6990  146.9860 C   0  0  0  0  0  2  0  0  0  0  0  0
  192.7240  174.4390  145.7480 C   0  0  0  0  0  2  0  0  0  0  0  0
  187.4000  175.7480  138.9430 O   0  0  0  0  0  1  0  0  0  0  0  0
  187.6790  176.7730  143.7560 C   0  0  2  0  0  3  0  0  0  0  0  0
  185.7340  178.3310  140.9640 C   0  0  0  0  0  3  0  0  0  0  0  0
  187.5340  176.2330  141.3230 C   0  0  0  0  0  0  0  0  0  0  0  0
  189.0940  176.2280  143.7130 C   0  0  1  0  0  3  0  0  0  0  0  0
  188.9160  177.6650  146.8990 O   0  0  0  0  0  0  0  0  0  0  0  0
  189.5150  176.2290  145.1100 N   0  0  0  0  0  0  0  0  0  0  0  0
  192.4000  175.0310  147.1120 C   0  0  0  0  0  2  0  0  0  0  0  0
  189.8510  173.1620  145.3960 C   0  0  0  0  0  1  0  0  0  0  0  0
  186.2670  178.0910  142.1890 N   0  0  0  0  0  0  0  0  0  0  0  0
  187.1720  177.0940  142.3860 C   0  0  0  0  0  0  0  0  0  0  0  0
  190.7980  173.7250  144.3380 C   0  0  2  0  0  3  0  0  0  0  0  0
  190.3740  173.8430  139.5660 C   0  0  0  0  0  3  0  0  0  0  0  0
  189.6920  173.5820  138.2380 C   0  0  0  0  0  2  0  0  0  0  0  0
  190.8620  172.7240  138.6670 C   0  0  0  0  0  2  0  0  0  0  0  0
  1  5  1  1  0  0  0
  1  4  1  0  0  0  0
  2 19  1  0  0  0  0
  3 10  1  0  0  0  0
  4 12  1  6  0  0  0
  4 20  1  0  0  0  0
  7  9  1  0  0  0  0
  7 15  1  1  0  0  0
  8  6  2  0  0  0  0
  8 12  1  0  0  0  0
  9 14  1  1  0  0  0
 10 21  2  0  0  0  0
 11 28  1  6  0  0  0
 11  5  1  0  0  0  0
 11  8  1  0  0  0  0
 12 27  1  0  0  0  0
 13  2  2  0  0  0  0
 13 18  1  0  0  0  0
 14 23  1  0  0  0  0
 15 23  1  0  0  0  0
 16  2  1  0  0  0  0
 17  3  1  1  0  0  0
 18 25  2  0  0  0  0
 19  1  1  0  0  0  0
 19 26  2  0  0  0  0
 20 17  1  0  0  0  0
 20 22  1  1  0  0  0
 22  9  1  0  0  0  0
 22 10  1  0  0  0  0
 25 26  1  0  0  0  0
 26 17  1  0  0  0  0
 27  7  1  0  0  0  0
 27 24  1  1  0  0  0
 29 30  1  0  0  0  0
 29 28  1  0  0  0  0
 30 28  1  0  0  0  0
M  END
>  <MODEL>
5

>  <REMARK>
 VINA RESULT:      -7.4      2.269      4.308
  Name = 
  1 active torsions:
  status: ('A' for Active; 'I' for Inactive)
    1  A    between atoms: C_11  and  C_28
                            x       y       z     vdW  Elec       q    Type
                         _______ _______ _______ _____ _____    ______ ____

>  <TORSDO>
F 1

$$$$
=
 OpenBabel11112416163D

 30 36  0  0  1  0  0  0  0  0999 V2000
  190.9920  173.8250  142.9380 C   0  0  1  0  0  3  0  0  0  0  0  0
  192.8620  172.0820  142.8470 C   0  0  0  0  0  0  0  0  0  0  0  0
  192.3350  175.0060  146.8920 C   0  0  0  0  0  2  0  0  0  0  0  0
  190.5670  175.1250  143.6580 C   0  0  1  0  0  3  0  0  0  0  0  0
  191.0600  174.0680  141.5530 O   0  0  0  0  0  0  0  0  0  0  0  0
  187.8340  175.6150  141.2940 O   0  0  0  0  0  0  0  0  0  0  0  0
  187.8620  176.1120  145.1380 C   0  0  1  0  0  3  0  0  0  0  0  0
  188.8790  175.1530  141.8270 C   0  0  0  0  0  0  0  0  0  0  0  0
  188.7830  176.1320  146.3560 C   0  0  2  0  0  3  0  0  0  0  0  0
  191.1690  175.8940  147.1290 C   0  0  0  0  0  0  0  0  0  0  0  0
  189.7340  174.1710  141.0540 C   0  0  2  0  0  3  0  0  0  0  0  0
  189.2440  175.5290  143.1710 N   0  0  0  0  0  0  0  0  0  0  0  0
  193.9630  171.4520  143.4310 C   0  0  0  0  0  3  0  0  0  0  0  0
  188.5420  177.4770  147.0100 C   0  0  0  0  0  2  0  0  0  0  0  0
  186.6900  177.0080  145.5010 C   0  0  0  0  0  2  0  0  0  0  0  0
  192.3670  171.6020  141.6400 O   0  0  0  0  0  1  0  0  0  0  0  0
  192.1510  174.7620  145.4150 C   0  0  2  0  0  3  0  0  0  0  0  0
  194.4440  171.9020  144.6610 C   0  0  0  0  0  3  0  0  0  0  0  0
  192.2590  173.1780  143.4890 C   0  0  0  0  0  0  0  0  0  0  0  0
  190.6580  174.8510  145.1580 C   0  0  1  0  0  3  0  0  0  0  0  0
  191.0170  176.5430  148.1990 O   0  0  0  0  0  0  0  0  0  0  0  0
  190.2040  175.8950  146.0690 N   0  0  0  0  0  0  0  0  0  0  0  0
  187.0820  177.7820  146.7500 C   0  0  0  0  0  2  0  0  0  0  0  0
  189.2680  177.8970  143.8970 C   0  0  0  0  0  1  0  0  0  0  0  0
  193.8380  172.9390  145.2950 N   0  0  0  0  0  0  0  0  0  0  0  0
  192.7510  173.5580  144.7610 C   0  0  0  0  0  0  0  0  0  0  0  0
  188.4810  176.5910  143.8190 C   0  0  2  0  0  3  0  0  0  0  0  0
  189.0620  172.8040  140.9400 C   0  0  0  0  0  3  0  0  0  0  0  0
  189.6760  172.0300  139.7910 C   0  0  0  0  0  2  0  0  0  0  0  0
  188.3370  172.7130  139.6110 C   0  0  0  0  0  2  0  0  0  0  0  0
  1  5  1  6  0  0  0
  1 19  1  0  0  0  0
  1  4  1  0  0  0  0
  2 13  2  0  0  0  0
  2 19  1  0  0  0  0
  3 10  1  0  0  0  0
  4 12  1  1  0  0  0
  4 20  1  0  0  0  0
  6  8  2  0  0  0  0
  7 15  1  1  0  0  0
  7  9  1  0  0  0  0
  8 12  1  0  0  0  0
  9 14  1  6  0  0  0
 10 21  2  0  0  0  0
 11 28  1  1  0  0  0
 11  5  1  0  0  0  0
 11  8  1  0  0  0  0
 12 27  1  0  0  0  0
 13 18  1  0  0  0  0
 15 23  1  0  0  0  0
 16  2  1  0  0  0  0
 17  3  1  1  0  0  0
 18 25  2  0  0  0  0
 19 26  2  0  0  0  0
 20 17  1  0  0  0  0
 20 22  1  1  0  0  0
 22  9  1  0  0  0  0
 22 10  1  0  0  0  0
 23 14  1  0  0  0  0
 26 25  1  0  0  0  0
 26 17  1  0  0  0  0
 27 24  1  1  0  0  0
 27  7  1  0  0  0  0
 29 28  1  0  0  0  0
 30 29  1  0  0  0  0
 30 28  1  0  0  0  0
M  END
>  <MODEL>
6

>  <REMARK>
 VINA RESULT:      -7.4      2.485      6.111
  Name = 
  1 active torsions:
  status: ('A' for Active; 'I' for Inactive)
    1  A    between atoms: C_11  and  C_28
                            x       y       z     vdW  Elec       q    Type
                         _______ _______ _______ _____ _____    ______ ____

>  <TORSDO>
F 1

$$$$
=
 OpenBabel11112416163D

 30 36  0  0  1  0  0  0  0  0999 V2000
  190.0670  175.3330  144.0590 C   0  0  1  0  0  3  0  0  0  0  0  0
  192.4150  174.3400  144.2680 C   0  0  0  0  0  0  0  0  0  0  0  0
  190.7140  177.5410  147.7390 C   0  0  0  0  0  2  0  0  0  0  0  0
  189.1910  176.5120  144.5430 C   0  0  1  0  0  3  0  0  0  0  0  0
  190.1260  175.3500  142.6540 O   0  0  0  0  0  0  0  0  0  0  0  0
  186.5880  175.6430  142.1410 O   0  0  0  0  0  0  0  0  0  0  0  0
  186.2340  176.7520  145.8380 C   0  0  1  0  0  3  0  0  0  0  0  0
  187.6960  175.6590  142.7420 C   0  0  0  0  0  0  0  0  0  0  0  0
  187.0260  177.2870  147.0300 C   0  0  2  0  0  3  0  0  0  0  0  0
  189.3070  178.0060  147.8220 C   0  0  0  0  0  0  0  0  0  0  0  0
  188.8730  174.9120  142.1500 C   0  0  2  0  0  3  0  0  0  0  0  0
  187.8390  176.3540  143.9970 N   0  0  0  0  0  0  0  0  0  0  0  0
  193.6290  174.2280  144.9480 C   0  0  0  0  0  3  0  0  0  0  0  0
  186.3110  178.5580  147.4380 C   0  0  0  0  0  2  0  0  0  0  0  0
  184.8110  177.2430  146.0430 C   0  0  0  0  0  2  0  0  0  0  0  0
  192.1780  173.5270  143.1660 O   0  0  0  0  0  1  0  0  0  0  0  0
  190.7050  177.0060  146.3290 C   0  0  2  0  0  3  0  0  0  0  0  0
  193.8630  175.0140  146.0780 C   0  0  0  0  0  3  0  0  0  0  0  0
  191.4450  175.2570  144.7100 C   0  0  0  0  0  0  0  0  0  0  0  0
  189.2860  176.5390  146.0660 C   0  0  1  0  0  3  0  0  0  0  0  0
  188.8870  178.7330  148.7620 O   0  0  0  0  0  0  0  0  0  0  0  0
  188.4580  177.5020  146.7820 N   0  0  0  0  0  0  0  0  0  0  0  0
  184.8510  178.3010  147.1360 C   0  0  0  0  0  2  0  0  0  0  0  0
  187.0260  178.6760  144.2960 C   0  0  0  0  0  1  0  0  0  0  0  0
  192.9090  175.8730  146.5230 N   0  0  0  0  0  0  0  0  0  0  0  0
  191.7090  175.9870  145.8930 C   0  0  0  0  0  0  0  0  0  0  0  0
  186.7290  177.1860  144.4530 C   0  0  2  0  0  3  0  0  0  0  0  0
  188.7050  173.4000  142.2800 C   0  0  0  0  0  3  0  0  0  0  0  0
  189.6580  172.6990  141.3320 C   0  0  0  0  0  2  0  0  0  0  0  0
  188.1960  172.8380  140.9670 C   0  0  0  0  0  2  0  0  0  0  0  0
  1  5  1  6  0  0  0
  1  4  1  0  0  0  0
  1 19  1  0  0  0  0
  2 19  2  0  0  0  0
  2 13  1  0  0  0  0
  3 10  1  0  0  0  0
  4 12  1  1  0  0  0
  4 20  1  0  0  0  0
  6  8  2  0  0  0  0
  7 15  1  1  0  0  0
  7  9  1  0  0  0  0
  8 12  1  0  0  0  0
  9 14  1  6  0  0  0
 10 21  2  0  0  0  0
 11 28  1  1  0  0  0
 11  5  1  0  0  0  0
 11  8  1  0  0  0  0
 12 27  1  0  0  0  0
 13 18  2  0  0  0  0
 15 23  1  0  0  0  0
 16  2  1  0  0  0  0
 17  3  1  1  0  0  0
 18 25  1  0  0  0  0
 19 26  1  0  0  0  0
 20 17  1  0  0  0  0
 20 22  1  1  0  0  0
 22  9  1  0  0  0  0
 22 10  1  0  0  0  0
 23 14  1  0  0  0  0
 26 17  1  0  0  0  0
 26 25  2  0  0  0  0
 27 24  1  1  0  0  0
 27  7  1  0  0  0  0
 29 28  1  0  0  0  0
 30 29  1  0  0  0  0
 30 28  1  0  0  0  0
M  END
>  <MODEL>
7

>  <REMARK>
 VINA RESULT:      -7.4      2.073      5.704
  Name = 
  1 active torsions:
  status: ('A' for Active; 'I' for Inactive)
    1  A    between atoms: C_11  and  C_28
                            x       y       z     vdW  Elec       q    Type
                         _______ _______ _______ _____ _____    ______ ____

>  <TORSDO>
F 1

$$$$
=
 OpenBabel11112416163D

 30 36  0  0  1  0  0  0  0  0999 V2000
  191.8210  174.4800  143.4680 C   0  0  1  0  0  3  0  0  0  0  0  0
  192.5820  173.6530  141.1700 C   0  0  0  0  0  0  0  0  0  0  0  0
  187.8010  174.9890  141.9110 C   0  0  0  0  0  2  0  0  0  0  0  0
  190.5580  174.6760  144.3390 C   0  0  1  0  0  3  0  0  0  0  0  0
  192.7200  173.6350  144.1440 O   0  0  0  0  0  0  0  0  0  0  0  0
  192.6150  175.4090  147.2600 O   0  0  0  0  0  0  0  0  0  0  0  0
  189.3600  177.1400  146.0630 C   0  0  1  0  0  3  0  0  0  0  0  0
  192.2810  175.0460  146.1000 C   0  0  0  0  0  0  0  0  0  0  0  0
  188.2310  177.0360  145.0400 C   0  0  2  0  0  3  0  0  0  0  0  0
  187.3090  175.6710  143.1340 C   0  0  0  0  0  0  0  0  0  0  0  0
  193.3030  174.3690  145.2110 C   0  0  2  0  0  3  0  0  0  0  0  0
  190.9490  175.2990  145.6080 N   0  0  0  0  0  0  0  0  0  0  0  0
  192.3010  173.3370  139.8400 C   0  0  0  0  0  3  0  0  0  0  0  0
  186.9570  177.0400  145.8590 C   0  0  0  0  0  2  0  0  0  0  0  0
  188.7680  177.8890  147.2460 C   0  0  0  0  0  2  0  0  0  0  0  0
  193.8990  173.6090  141.6140 O   0  0  0  0  0  1  0  0  0  0  0  0
  189.1190  174.4780  142.4380 C   0  0  2  0  0  3  0  0  0  0  0  0
  190.9870  173.4140  139.3750 C   0  0  0  0  0  3  0  0  0  0  0  0
  191.5410  174.0250  142.0380 C   0  0  0  0  0  0  0  0  0  0  0  0
  189.5590  175.4680  143.4990 C   0  0  1  0  0  3  0  0  0  0  0  0
  186.1240  176.0820  143.2510 O   0  0  0  0  0  0  0  0  0  0  0  0
  188.3130  175.8820  144.1350 N   0  0  0  0  0  0  0  0  0  0  0  0
  187.2600  177.9210  147.0510 C   0  0  0  0  0  2  0  0  0  0  0  0
  188.9410  174.7440  146.9480 C   0  0  0  0  0  1  0  0  0  0  0  0
  189.9890  173.8080  140.2070 N   0  0  0  0  0  0  0  0  0  0  0  0
  190.2360  174.1420  141.5020 C   0  0  0  0  0  0  0  0  0  0  0  0
  189.9550  175.8120  146.5460 C   0  0  2  0  0  3  0  0  0  0  0  0
  194.3590  175.3530  144.7130 C   0  0  0  0  0  3  0  0  0  0  0  0
  195.5550  174.5890  144.1810 C   0  0  0  0  0  2  0  0  0  0  0  0
  195.6100  175.2150  145.5580 C   0  0  0  0  0  2  0  0  0  0  0  0
  1 19  1  6  0  0  0
  1  5  1  0  0  0  0
  1  4  1  0  0  0  0
  2 16  1  0  0  0  0
  2 19  1  0  0  0  0
  3 10  1  0  0  0  0
  4 12  1  1  0  0  0
  5 11  1  0  0  0  0
  7 27  1  0  0  0  0
  7 15  1  1  0  0  0
  8  6  2  0  0  0  0
  9 14  1  1  0  0  0
  9  7  1  0  0  0  0
 10 21  2  0  0  0  0
 10 22  1  0  0  0  0
 11 28  1  6  0  0  0
 11  8  1  0  0  0  0
 12  8  1  0  0  0  0
 12 27  1  0  0  0  0
 13  2  2  0  0  0  0
 14 23  1  0  0  0  0
 17  3  1  6  0  0  0
 17 20  1  0  0  0  0
 18 13  1  0  0  0  0
 18 25  2  0  0  0  0
 20 22  1  1  0  0  0
 20  4  1  0  0  0  0
 22  9  1  0  0  0  0
 23 15  1  0  0  0  0
 25 26  1  0  0  0  0
 26 19  2  0  0  0  0
 26 17  1  0  0  0  0
 27 24  1  6  0  0  0
 28 30  1  0  0  0  0
 29 28  1  0  0  0  0
 29 30  1  0  0  0  0
M  END
>  <MODEL>
8

>  <REMARK>
 VINA RESULT:      -7.3      2.261      7.326
  Name = 
  1 active torsions:
  status: ('A' for Active; 'I' for Inactive)
    1  A    between atoms: C_11  and  C_28
                            x       y       z     vdW  Elec       q    Type
                         _______ _______ _______ _____ _____    ______ ____

>  <TORSDO>
F 1

$$$$
=
 OpenBabel11112416163D

 30 36  0  0  1  0  0  0  0  0999 V2000
  188.6280  176.0840  143.6430 C   0  0  1  0  0  3  0  0  0  0  0  0
  186.9650  177.9160  144.2920 C   0  0  0  0  0  0  0  0  0  0  0  0
  187.0660  176.1520  139.5940 C   0  0  0  0  0  2  0  0  0  0  0  0
  189.3260  175.4450  142.4210 C   0  0  1  0  0  3  0  0  0  0  0  0
  189.6070  176.5650  144.5320 O   0  0  0  0  0  0  0  0  0  0  0  0
  191.5480  173.5490  144.6050 O   0  0  0  0  0  0  0  0  0  0  0  0
  189.7290  172.4070  141.3780 C   0  0  1  0  0  3  0  0  0  0  0  0
  190.6920  174.3900  144.2170 C   0  0  0  0  0  0  0  0  0  0  0  0
  188.8860  172.9150  140.2110 C   0  0  2  0  0  3  0  0  0  0  0  0
  187.8400  174.9580  139.1710 C   0  0  0  0  0  0  0  0  0  0  0  0
  190.2050  175.4510  145.1810 C   0  0  2  0  0  3  0  0  0  0  0  0
  190.1570  174.3260  142.8790 N   0  0  0  0  0  0  0  0  0  0  0  0
  185.9360  178.7970  143.9520 C   0  0  0  0  0  3  0  0  0  0  0  0
  189.6260  172.4700  138.9670 C   0  0  0  0  0  2  0  0  0  0  0  0
  190.4380  171.1680  140.8570 C   0  0  0  0  0  2  0  0  0  0  0  0
  187.3610  177.8160  145.6210 O   0  0  0  0  0  1  0  0  0  0  0  0
  187.7520  176.4270  140.9090 C   0  0  2  0  0  3  0  0  0  0  0  0
  185.5060  178.8780  142.6270 C   0  0  0  0  0  3  0  0  0  0  0  0
  187.5750  177.1340  143.2960 C   0  0  0  0  0  0  0  0  0  0  0  0
  188.2290  175.0820  141.4240 C   0  0  1  0  0  3  0  0  0  0  0  0
  187.7700  174.4810  138.0070 O   0  0  0  0  0  0  0  0  0  0  0  0
  188.6170  174.3590  140.2170 N   0  0  0  0  0  0  0  0  0  0  0  0
  190.2700  171.1530  139.3460 C   0  0  0  0  0  2  0  0  0  0  0  0
  191.6290  174.0990  140.9000 C   0  0  0  0  0  1  0  0  0  0  0  0
  186.0740  178.0950  141.6740 N   0  0  0  0  0  0  0  0  0  0  0  0
  187.0640  177.2120  141.9790 C   0  0  0  0  0  0  0  0  0  0  0  0
  190.7640  173.3890  141.9390 C   0  0  2  0  0  3  0  0  0  0  0  0
  189.2930  174.8630  146.2550 C   0  0  0  0  0  3  0  0  0  0  0  0
  188.9350  175.9370  147.2620 C   0  0  0  0  0  2  0  0  0  0  0  0
  190.0010  174.9160  147.5950 C   0  0  0  0  0  2  0  0  0  0  0  0
  1 19  1  6  0  0  0
  1  5  1  0  0  0  0
  2 16  1  0  0  0  0
  4 12  1  1  0  0  0
  4  1  1  0  0  0  0
  5 11  1  0  0  0  0
  7 15  1  6  0  0  0
  7 27  1  0  0  0  0
  8  6  2  0  0  0  0
  8 11  1  0  0  0  0
  9 14  1  6  0  0  0
  9 22  1  0  0  0  0
  9  7  1  0  0  0  0
 10  3  1  0  0  0  0
 10 22  1  0  0  0  0
 11 28  1  1  0  0  0
 12  8  1  0  0  0  0
 13  2  1  0  0  0  0
 14 23  1  0  0  0  0
 17  3  1  6  0  0  0
 17 20  1  0  0  0  0
 17 26  1  0  0  0  0
 18 13  2  0  0  0  0
 19  2  2  0  0  0  0
 20 22  1  6  0  0  0
 20  4  1  0  0  0  0
 21 10  2  0  0  0  0
 23 15  1  0  0  0  0
 25 26  2  0  0  0  0
 25 18  1  0  0  0  0
 26 19  1  0  0  0  0
 27 24  1  6  0  0  0
 27 12  1  0  0  0  0
 28 29  1  0  0  0  0
 28 30  1  0  0  0  0
 29 30  1  0  0  0  0
M  END
>  <MODEL>
9

>  <REMARK>
 VINA RESULT:      -7.1      2.596      5.568
  Name = 
  1 active torsions:
  status: ('A' for Active; 'I' for Inactive)
    1  A    between atoms: C_11  and  C_28
                            x       y       z     vdW  Elec       q    Type
                         _______ _______ _______ _____ _____    ______ ____

>  <TORSDO>
F 1

$$$$
