=
 OpenBabel11112417053D

 31 35  0  0  1  0  0  0  0  0999 V2000
  192.8620  174.9990  145.7310 C   0  0  0  0  0  0  0  0  0  0  0  0
  190.4560  176.4680  143.1690 C   0  0  2  0  0  3  0  0  0  0  0  0
  189.6870  175.2850  142.6020 C   0  0  0  0  0  0  0  0  0  0  0  0
  189.4030  172.8970  142.2450 C   0  0  0  0  0  0  0  0  0  0  0  0
  191.1410  176.1880  144.4940 C   0  0  0  0  0  0  0  0  0  0  0  0
  192.4120  175.5710  146.9210 C   0  0  0  0  0  3  0  0  0  0  0  0
  190.0700  173.9600  142.8570 C   0  0  0  0  0  3  0  0  0  0  0  0
  188.7280  177.7940  144.5000 C   0  0  1  0  0  3  0  0  0  0  0  0
  193.9080  174.1380  145.7470 F   0  0  0  0  0  0  0  0  0  0  0  0
  188.2770  176.8730  141.3470 N   0  0  0  0  0  0  0  0  0  0  0  0
  189.8830  171.2500  142.5900 Cl  0  0  0  0  0  0  0  0  0  0  0  0
  189.6400  177.8450  145.7220 C   0  0  0  0  0  2  0  0  0  0  0  0
  189.5810  177.7420  143.2280 C   0  0  2  0  0  3  0  0  0  0  0  0
  192.2330  175.3100  144.5240 C   0  0  0  0  0  3  0  0  0  0  0  0
  188.3600  173.1480  141.3530 C   0  0  0  0  0  3  0  0  0  0  0  0
  190.6970  176.7780  145.7020 C   0  0  0  0  0  0  0  0  0  0  0  0
  191.3400  176.4660  146.9040 C   0  0  0  0  0  3  0  0  0  0  0  0
  188.7190  177.9020  142.0070 C   0  0  0  0  0  3  0  0  0  0  0  0
  188.6450  175.5300  141.6830 C   0  0  0  0  0  0  0  0  0  0  0  0
  187.9860  174.4620  141.0670 C   0  0  0  0  0  3  0  0  0  0  0  0
  187.8660  176.6660  144.5890 O   0  0  0  0  0  0  0  0  0  0  0  0
  185.8150  177.1060  143.6240 O   0  0  0  0  0  0  0  0  0  0  0  0
  186.4760  176.7920  144.6510 C   0  0  0  0  0  0  0  0  0  0  0  0
  186.0490  179.1170  147.4630 C   0  0  0  0  0  0  0  0  0  0  0  0
  184.6160  177.6310  146.0810 C   0  0  0  0  0  2  0  0  0  0  0  0
  187.4070  175.7520  147.4630 O   0  0  0  0  0  0  0  0  0  0  0  0
  186.1720  180.1920  148.1060 O   0  0  0  0  0  0  0  0  0  0  0  0
  185.1280  179.0570  146.2850 C   0  0  0  0  0  2  0  0  0  0  0  0
  186.7040  176.7380  147.1230 C   0  0  0  0  0  0  0  0  0  0  0  0
  185.7640  176.6220  145.9560 C   0  0  2  0  0  3  0  0  0  0  0  0
  186.8280  177.9760  147.8300 N   0  0  0  0  0  2  0  0  0  0  0  0
  1  9  1  0  0  0  0
  1  6  1  0  0  0  0
  2  3  1  1  0  0  0
  2 13  1  0  0  0  0
  2  5  1  0  0  0  0
  3  7  1  0  0  0  0
  4 11  1  0  0  0  0
  4  7  2  0  0  0  0
  5 14  1  0  0  0  0
  5 16  2  0  0  0  0
  8 21  1  1  0  0  0
  8 12  1  0  0  0  0
 10 19  1  0  0  0  0
 10 18  2  0  0  0  0
 13 18  1  6  0  0  0
 13  8  1  0  0  0  0
 14  1  2  0  0  0  0
 15  4  1  0  0  0  0
 16 12  1  0  0  0  0
 16 17  1  0  0  0  0
 17  6  2  0  0  0  0
 19  3  2  0  0  0  0
 20 15  2  0  0  0  0
 20 19  1  0  0  0  0
 21 23  1  0  0  0  0
 22 23  2  0  0  0  0
 24 31  1  0  0  0  0
 24 27  2  0  0  0  0
 25 28  1  0  0  0  0
 28 24  1  0  0  0  0
 29 26  2  0  0  0  0
 29 31  1  0  0  0  0
 30 23  1  6  0  0  0
 30 25  1  0  0  0  0
 30 29  1  0  0  0  0
M  END
>  <MODEL>
1

>  <REMARK>
 VINA RESULT:      -8.6      0.000      0.000
  Name = 
  3 active torsions:
  status: ('A' for Active; 'I' for Inactive)
    1  A    between atoms: C_5  and  O_16
    2  A    between atoms: C_5  and  C_30
    3  A    between atoms: C_10  and  O_16
                            x       y       z     vdW  Elec       q    Type
                         _______ _______ _______ _____ _____    ______ ____

>  <TORSDO>
F 3

$$$$
=
 OpenBabel11112417053D

 31 35  0  0  1  0  0  0  0  0999 V2000
  186.3210  177.4760  147.2750 C   0  0  0  0  0  0  0  0  0  0  0  0
  189.1760  177.7310  144.7660 C   0  0  2  0  0  3  0  0  0  0  0  0
  190.3160  176.9140  145.3560 C   0  0  0  0  0  0  0  0  0  0  0  0
  191.3860  175.7800  147.2220 C   0  0  0  0  0  0  0  0  0  0  0  0
  187.8140  177.4180  145.3590 C   0  0  0  0  0  0  0  0  0  0  0  0
  185.3410  176.8080  146.5390 C   0  0  0  0  0  3  0  0  0  0  0  0
  190.2840  176.4440  146.6780 C   0  0  0  0  0  3  0  0  0  0  0  0
  188.4290  176.4200  142.7080 C   0  0  1  0  0  3  0  0  0  0  0  0
  186.0830  177.8220  148.5630 F   0  0  0  0  0  0  0  0  0  0  0  0
  191.5820  177.2770  143.2710 N   0  0  0  0  0  0  0  0  0  0  0  0
  191.3220  175.1840  148.8650 Cl  0  0  0  0  0  0  0  0  0  0  0  0
  186.9680  176.4780  143.1440 C   0  0  0  0  0  2  0  0  0  0  0  0
  189.1650  177.6620  143.2210 C   0  0  2  0  0  3  0  0  0  0  0  0
  187.5490  177.7830  146.6860 C   0  0  0  0  0  3  0  0  0  0  0  0
  192.5400  175.5990  146.4570 C   0  0  0  0  0  3  0  0  0  0  0  0
  186.8110  176.7540  144.6120 C   0  0  0  0  0  0  0  0  0  0  0  0
  185.5820  176.4590  145.2090 C   0  0  0  0  0  3  0  0  0  0  0  0
  190.5470  177.7380  142.6350 C   0  0  0  0  0  3  0  0  0  0  0  0
  191.4930  176.7460  144.5980 C   0  0  0  0  0  0  0  0  0  0  0  0
  192.5950  176.0860  145.1500 C   0  0  0  0  0  3  0  0  0  0  0  0
  189.0300  175.2260  143.1960 O   0  0  0  0  0  0  0  0  0  0  0  0
  189.9630  174.4900  141.2160 O   0  0  0  0  0  0  0  0  0  0  0  0
  189.4710  174.2110  142.3430 C   0  0  0  0  0  0  0  0  0  0  0  0
  191.8120  171.8740  143.9420 C   0  0  0  0  0  0  0  0  0  0  0  0
  189.4570  172.6060  144.2480 C   0  0  0  0  0  2  0  0  0  0  0  0
  189.9960  171.5160  140.8210 O   0  0  0  0  0  0  0  0  0  0  0  0
  192.8910  171.4920  144.4630 O   0  0  0  0  0  0  0  0  0  0  0  0
  190.9060  172.7950  144.6990 C   0  0  0  0  0  2  0  0  0  0  0  0
  190.2580  171.8810  141.9960 C   0  0  0  0  0  0  0  0  0  0  0  0
  189.3010  172.7750  142.7330 C   0  0  2  0  0  3  0  0  0  0  0  0
  191.4820  171.4690  142.6110 N   0  0  0  0  0  2  0  0  0  0  0  0
  1  9  1  0  0  0  0
  2  3  1  1  0  0  0
  2  5  1  0  0  0  0
  3  7  1  0  0  0  0
  4 11  1  0  0  0  0
  5 14  2  0  0  0  0
  6  1  2  0  0  0  0
  7  4  2  0  0  0  0
  8 12  1  0  0  0  0
  8 21  1  1  0  0  0
  8 13  1  0  0  0  0
 10 19  1  0  0  0  0
 12 16  1  0  0  0  0
 13 18  1  1  0  0  0
 13  2  1  0  0  0  0
 14  1  1  0  0  0  0
 15  4  1  0  0  0  0
 16 17  2  0  0  0  0
 16  5  1  0  0  0  0
 17  6  1  0  0  0  0
 18 10  2  0  0  0  0
 19 20  1  0  0  0  0
 19  3  2  0  0  0  0
 20 15  2  0  0  0  0
 22 23  2  0  0  0  0
 23 21  1  0  0  0  0
 24 27  2  0  0  0  0
 24 28  1  0  0  0  0
 25 28  1  0  0  0  0
 26 29  2  0  0  0  0
 29 31  1  0  0  0  0
 29 30  1  0  0  0  0
 30 23  1  1  0  0  0
 30 25  1  0  0  0  0
 31 24  1  0  0  0  0
M  END
>  <MODEL>
2

>  <REMARK>
 VINA RESULT:      -8.3      3.386      6.321
  Name = 
  3 active torsions:
  status: ('A' for Active; 'I' for Inactive)
    1  A    between atoms: C_5  and  O_16
    2  A    between atoms: C_5  and  C_30
    3  A    between atoms: C_10  and  O_16
                            x       y       z     vdW  Elec       q    Type
                         _______ _______ _______ _____ _____    ______ ____

>  <TORSDO>
F 3

$$$$
=
 OpenBabel11112417053D

 31 35  0  0  1  0  0  0  0  0999 V2000
  186.2750  177.7250  147.4870 C   0  0  0  0  0  0  0  0  0  0  0  0
  188.8350  177.7630  144.6660 C   0  0  2  0  0  3  0  0  0  0  0  0
  190.0060  176.9280  145.1620 C   0  0  0  0  0  0  0  0  0  0  0  0
  191.2410  175.8320  146.9470 C   0  0  0  0  0  0  0  0  0  0  0  0
  187.5390  177.5290  145.4200 C   0  0  0  0  0  0  0  0  0  0  0  0
  185.1960  177.0660  146.8960 C   0  0  0  0  0  3  0  0  0  0  0  0
  190.1080  176.5150  146.4990 C   0  0  0  0  0  3  0  0  0  0  0  0
  187.8160  176.3970  142.7660 C   0  0  1  0  0  3  0  0  0  0  0  0
  186.1960  178.1350  148.7750 F   0  0  0  0  0  0  0  0  0  0  0  0
  191.0400  177.1530  142.9340 N   0  0  0  0  0  0  0  0  0  0  0  0
  191.3430  175.3090  148.6130 Cl  0  0  0  0  0  0  0  0  0  0  0  0
  186.4160  176.5300  143.3590 C   0  0  0  0  0  2  0  0  0  0  0  0
  188.6470  177.6300  143.1370 C   0  0  2  0  0  3  0  0  0  0  0  0
  187.4380  177.9590  146.7500 C   0  0  0  0  0  3  0  0  0  0  0  0
  192.2940  175.5750  146.0680 C   0  0  0  0  0  3  0  0  0  0  0  0
  186.4360  176.8740  144.8210 C   0  0  0  0  0  0  0  0  0  0  0  0
  185.2730  176.6530  145.5650 C   0  0  0  0  0  3  0  0  0  0  0  0
  189.9560  177.6270  142.3970 C   0  0  0  0  0  3  0  0  0  0  0  0
  191.0830  176.6820  144.2860 C   0  0  0  0  0  0  0  0  0  0  0  0
  192.2180  176.0040  144.7420 C   0  0  0  0  0  3  0  0  0  0  0  0
  188.4270  175.2020  143.2390 O   0  0  0  0  0  0  0  0  0  0  0  0
  187.7960  173.5760  141.7250 O   0  0  0  0  0  0  0  0  0  0  0  0
  188.7130  174.1260  142.3940 C   0  0  0  0  0  0  0  0  0  0  0  0
  190.2980  171.9430  139.9010 C   0  0  0  0  0  0  0  0  0  0  0  0
  190.8210  174.0720  141.0680 C   0  0  0  0  0  2  0  0  0  0  0  0
  190.0060  171.4840  143.4890 O   0  0  0  0  0  0  0  0  0  0  0  0
  190.3790  171.2450  138.8570 O   0  0  0  0  0  0  0  0  0  0  0  0
  190.2590  173.4350  139.7970 C   0  0  0  0  0  2  0  0  0  0  0  0
  190.1070  172.0710  142.3810 C   0  0  0  0  0  0  0  0  0  0  0  0
  190.1020  173.5730  142.3260 C   0  0  2  0  0  3  0  0  0  0  0  0
  190.1910  171.3040  141.1770 N   0  0  0  0  0  2  0  0  0  0  0  0
  1  9  1  0  0  0  0
  2  3  1  1  0  0  0
  2  5  1  0  0  0  0
  3  7  1  0  0  0  0
  4 11  1  0  0  0  0
  5 14  1  0  0  0  0
  6  1  1  0  0  0  0
  7  4  2  0  0  0  0
  8 13  1  0  0  0  0
  8 21  1  1  0  0  0
  8 12  1  0  0  0  0
 10 19  1  0  0  0  0
 12 16  1  0  0  0  0
 13 18  1  6  0  0  0
 13  2  1  0  0  0  0
 14  1  2  0  0  0  0
 15  4  1  0  0  0  0
 16  5  2  0  0  0  0
 16 17  1  0  0  0  0
 17  6  2  0  0  0  0
 18 10  2  0  0  0  0
 19 20  1  0  0  0  0
 19  3  2  0  0  0  0
 20 15  2  0  0  0  0
 22 23  2  0  0  0  0
 23 21  1  0  0  0  0
 24 31  1  0  0  0  0
 25 30  1  0  0  0  0
 27 24  2  0  0  0  0
 28 24  1  0  0  0  0
 28 25  1  0  0  0  0
 29 26  2  0  0  0  0
 30 29  1  0  0  0  0
 30 23  1  6  0  0  0
 31 29  1  0  0  0  0
M  END
>  <MODEL>
3

>  <REMARK>
 VINA RESULT:      -8.1      3.340      6.524
  Name = 
  3 active torsions:
  status: ('A' for Active; 'I' for Inactive)
    1  A    between atoms: C_5  and  O_16
    2  A    between atoms: C_5  and  C_30
    3  A    between atoms: C_10  and  O_16
                            x       y       z     vdW  Elec       q    Type
                         _______ _______ _______ _____ _____    ______ ____

>  <TORSDO>
F 3

$$$$
=
 OpenBabel11112417053D

 31 35  0  0  1  0  0  0  0  0999 V2000
  186.1230  177.6100  147.4670 C   0  0  0  0  0  0  0  0  0  0  0  0
  188.6290  177.8650  144.6100 C   0  0  2  0  0  3  0  0  0  0  0  0
  189.8320  177.0420  145.0430 C   0  0  0  0  0  0  0  0  0  0  0  0
  191.1310  175.8960  146.7500 C   0  0  0  0  0  0  0  0  0  0  0  0
  187.3540  177.5550  145.3730 C   0  0  0  0  0  0  0  0  0  0  0  0
  185.0520  176.9490  146.8630 C   0  0  0  0  0  3  0  0  0  0  0  0
  189.9710  176.5660  146.3560 C   0  0  0  0  0  3  0  0  0  0  0  0
  187.6150  176.5650  142.6610 C   0  0  1  0  0  3  0  0  0  0  0  0
  186.0550  177.9520  148.7760 F   0  0  0  0  0  0  0  0  0  0  0  0
  190.8180  177.4080  142.8130 N   0  0  0  0  0  0  0  0  0  0  0  0
  191.2780  175.2930  148.3860 Cl  0  0  0  0  0  0  0  0  0  0  0  0
  186.2230  176.6260  143.2830 C   0  0  0  0  0  2  0  0  0  0  0  0
  188.4160  177.8020  143.0790 C   0  0  2  0  0  3  0  0  0  0  0  0
  187.2650  177.9140  146.7240 C   0  0  0  0  0  3  0  0  0  0  0  0
  192.1750  175.7140  145.8420 C   0  0  0  0  0  3  0  0  0  0  0  0
  186.2600  176.8970  144.7610 C   0  0  0  0  0  0  0  0  0  0  0  0
  185.1170  176.6050  145.5110 C   0  0  0  0  0  3  0  0  0  0  0  0
  189.7110  177.8750  142.3180 C   0  0  0  0  0  3  0  0  0  0  0  0
  190.9000  176.8710  144.1380 C   0  0  0  0  0  0  0  0  0  0  0  0
  192.0620  176.2060  144.5410 C   0  0  0  0  0  3  0  0  0  0  0  0
  188.2690  175.3660  143.0630 O   0  0  0  0  0  0  0  0  0  0  0  0
  188.0690  173.1590  142.4140 O   0  0  0  0  0  0  0  0  0  0  0  0
  188.5110  174.3150  142.1740 C   0  0  0  0  0  0  0  0  0  0  0  0
  189.6230  171.9740  139.5710 C   0  0  0  0  0  0  0  0  0  0  0  0
  188.5670  174.2190  139.6860 C   0  0  0  0  0  2  0  0  0  0  0  0
  191.6070  174.1610  141.6800 O   0  0  0  0  0  0  0  0  0  0  0  0
  189.7330  170.8710  138.9770 O   0  0  0  0  0  0  0  0  0  0  0  0
  188.3260  172.7180  139.5230 C   0  0  0  0  0  2  0  0  0  0  0  0
  190.6290  173.7400  141.0120 C   0  0  0  0  0  0  0  0  0  0  0  0
  189.3570  174.5390  140.9600 C   0  0  2  0  0  3  0  0  0  0  0  0
  190.7220  172.4840  140.3320 N   0  0  0  0  0  2  0  0  0  0  0  0
  1  9  1  0  0  0  0
  2  3  1  1  0  0  0
  2  5  1  0  0  0  0
  3  7  1  0  0  0  0
  4 11  1  0  0  0  0
  5 14  1  0  0  0  0
  6  1  1  0  0  0  0
  7  4  2  0  0  0  0
  8 21  1  1  0  0  0
  8 13  1  0  0  0  0
  8 12  1  0  0  0  0
 10 19  1  0  0  0  0
 12 16  1  0  0  0  0
 13 18  1  6  0  0  0
 13  2  1  0  0  0  0
 14  1  2  0  0  0  0
 15  4  1  0  0  0  0
 16  5  2  0  0  0  0
 16 17  1  0  0  0  0
 17  6  2  0  0  0  0
 18 10  2  0  0  0  0
 19 20  1  0  0  0  0
 19  3  2  0  0  0  0
 20 15  2  0  0  0  0
 23 22  2  0  0  0  0
 23 21  1  0  0  0  0
 24 31  1  0  0  0  0
 25 30  1  0  0  0  0
 27 24  2  0  0  0  0
 28 24  1  0  0  0  0
 28 25  1  0  0  0  0
 29 26  2  0  0  0  0
 30 29  1  0  0  0  0
 30 23  1  1  0  0  0
 31 29  1  0  0  0  0
M  END
>  <MODEL>
4

>  <REMARK>
 VINA RESULT:      -8.0      3.259      6.546
  Name = 
  3 active torsions:
  status: ('A' for Active; 'I' for Inactive)
    1  A    between atoms: C_5  and  O_16
    2  A    between atoms: C_5  and  C_30
    3  A    between atoms: C_10  and  O_16
                            x       y       z     vdW  Elec       q    Type
                         _______ _______ _______ _____ _____    ______ ____

>  <TORSDO>
F 3

$$$$
=
 OpenBabel11112417053D

 31 35  0  0  1  0  0  0  0  0999 V2000
  195.1260  175.8840  143.7890 C   0  0  0  0  0  0  0  0  0  0  0  0
  192.1140  173.5940  144.2330 C   0  0  2  0  0  3  0  0  0  0  0  0
  191.2890  174.2110  145.3510 C   0  0  0  0  0  0  0  0  0  0  0  0
  191.0430  175.7350  147.2310 C   0  0  0  0  0  0  0  0  0  0  0  0
  193.1060  174.5470  143.5920 C   0  0  0  0  0  0  0  0  0  0  0  0
  194.9440  176.3630  142.4910 C   0  0  0  0  0  3  0  0  0  0  0  0
  191.7850  175.2530  146.1500 C   0  0  0  0  0  3  0  0  0  0  0  0
  190.6900  173.8830  142.1340 C   0  0  1  0  0  3  0  0  0  0  0  0
  196.1850  176.3020  144.5230 F   0  0  0  0  0  0  0  0  0  0  0  0
  189.5490  172.5150  144.9310 N   0  0  0  0  0  0  0  0  0  0  0  0
  191.6690  177.0470  148.2040 Cl  0  0  0  0  0  0  0  0  0  0  0  0
  191.8620  174.4850  141.3650 C   0  0  0  0  0  2  0  0  0  0  0  0
  191.2190  172.8970  143.1820 C   0  0  2  0  0  3  0  0  0  0  0  0
  194.2140  174.9770  144.3340 C   0  0  0  0  0  3  0  0  0  0  0  0
  189.8070  175.1650  147.5390 C   0  0  0  0  0  3  0  0  0  0  0  0
  192.9340  175.0240  142.2700 C   0  0  0  0  0  0  0  0  0  0  0  0
  193.8570  175.9250  141.7310 C   0  0  0  0  0  3  0  0  0  0  0  0
  190.0850  172.1350  143.8100 C   0  0  0  0  0  3  0  0  0  0  0  0
  190.0490  173.6270  145.6830 C   0  0  0  0  0  0  0  0  0  0  0  0
  189.3140  174.1090  146.7710 C   0  0  0  0  0  3  0  0  0  0  0  0
  189.9280  174.9210  142.7410 O   0  0  0  0  0  0  0  0  0  0  0  0
  188.2330  175.1830  141.1950 O   0  0  0  0  0  0  0  0  0  0  0  0
  189.0330  175.7100  142.0150 C   0  0  0  0  0  0  0  0  0  0  0  0
  187.4030  177.9110  144.4630 C   0  0  0  0  0  0  0  0  0  0  0  0
  189.6730  177.6040  143.5010 C   0  0  0  0  0  2  0  0  0  0  0  0
  187.2250  177.9920  140.8400 O   0  0  0  0  0  0  0  0  0  0  0  0
  186.6930  178.2120  145.4570 O   0  0  0  0  0  0  0  0  0  0  0  0
  188.7440  177.2810  144.6730 C   0  0  0  0  0  2  0  0  0  0  0  0
  187.6920  177.8000  141.9920 C   0  0  0  0  0  0  0  0  0  0  0  0
  189.0600  177.2000  142.1560 C   0  0  2  0  0  3  0  0  0  0  0  0
  186.9030  178.1250  143.1400 N   0  0  0  0  0  2  0  0  0  0  0  0
  1 14  1  0  0  0  0
  1  9  1  0  0  0  0
  2  5  1  6  0  0  0
  2  3  1  0  0  0  0
  3 19  2  0  0  0  0
  3  7  1  0  0  0  0
  4 15  1  0  0  0  0
  4 11  1  0  0  0  0
  5 14  2  0  0  0  0
  6  1  2  0  0  0  0
  7  4  2  0  0  0  0
  8 21  1  1  0  0  0
  8 13  1  0  0  0  0
 10 19  1  0  0  0  0
 12  8  1  0  0  0  0
 12 16  1  0  0  0  0
 13 18  1  1  0  0  0
 13  2  1  0  0  0  0
 16  5  1  0  0  0  0
 17 16  2  0  0  0  0
 17  6  1  0  0  0  0
 18 10  2  0  0  0  0
 19 20  1  0  0  0  0
 20 15  2  0  0  0  0
 22 23  2  0  0  0  0
 23 21  1  0  0  0  0
 24 28  1  0  0  0  0
 24 27  2  0  0  0  0
 25 28  1  0  0  0  0
 26 29  2  0  0  0  0
 29 30  1  0  0  0  0
 29 31  1  0  0  0  0
 30 23  1  1  0  0  0
 30 25  1  0  0  0  0
 31 24  1  0  0  0  0
M  END
>  <MODEL>
5

>  <REMARK>
 VINA RESULT:      -7.8      2.842      4.932
  Name = 
  3 active torsions:
  status: ('A' for Active; 'I' for Inactive)
    1  A    between atoms: C_5  and  O_16
    2  A    between atoms: C_5  and  C_30
    3  A    between atoms: C_10  and  O_16
                            x       y       z     vdW  Elec       q    Type
                         _______ _______ _______ _____ _____    ______ ____

>  <TORSDO>
F 3

$$$$
=
 OpenBabel11112417053D

 31 35  0  0  1  0  0  0  0  0999 V2000
  185.3320  178.0520  145.3830 C   0  0  0  0  0  0  0  0  0  0  0  0
  189.0360  178.0240  144.4950 C   0  0  2  0  0  3  0  0  0  0  0  0
  189.6210  176.8150  145.2090 C   0  0  0  0  0  0  0  0  0  0  0  0
  189.4920  175.0560  146.8830 C   0  0  0  0  0  0  0  0  0  0  0  0
  187.5270  177.9870  144.3420 C   0  0  0  0  0  0  0  0  0  0  0  0
  184.7290  177.8590  144.1400 C   0  0  0  0  0  3  0  0  0  0  0  0
  188.8950  176.1020  146.1760 C   0  0  0  0  0  3  0  0  0  0  0  0
  189.1640  177.4450  142.0130 C   0  0  1  0  0  3  0  0  0  0  0  0
  184.5670  178.1690  146.4950 F   0  0  0  0  0  0  0  0  0  0  0  0
  191.7630  177.2430  144.0630 N   0  0  0  0  0  0  0  0  0  0  0  0
  188.5660  174.1660  148.0710 Cl  0  0  0  0  0  0  0  0  0  0  0  0
  187.6990  177.8160  141.8030 C   0  0  0  0  0  2  0  0  0  0  0  0
  189.7480  178.2910  143.1490 C   0  0  2  0  0  3  0  0  0  0  0  0
  186.7220  178.1200  145.4820 C   0  0  0  0  0  3  0  0  0  0  0  0
  190.8270  174.7250  146.6470 C   0  0  0  0  0  3  0  0  0  0  0  0
  186.9100  177.8060  143.0810 C   0  0  0  0  0  0  0  0  0  0  0  0
  185.5160  177.7480  142.9920 C   0  0  0  0  0  3  0  0  0  0  0  0
  191.2370  178.1000  143.2400 C   0  0  0  0  0  3  0  0  0  0  0  0
  190.9750  176.4880  144.9920 C   0  0  0  0  0  0  0  0  0  0  0  0
  191.5690  175.4440  145.7080 C   0  0  0  0  0  3  0  0  0  0  0  0
  189.2730  176.0540  142.2980 O   0  0  0  0  0  0  0  0  0  0  0  0
  188.0140  175.1720  140.5750 O   0  0  0  0  0  0  0  0  0  0  0  0
  189.0140  175.0740  141.3370 C   0  0  0  0  0  0  0  0  0  0  0  0
  189.7540  172.4720  143.8230 C   0  0  0  0  0  0  0  0  0  0  0  0
  189.0580  172.5850  141.4410 C   0  0  0  0  0  2  0  0  0  0  0  0
  192.0490  174.5850  141.9700 O   0  0  0  0  0  0  0  0  0  0  0  0
  189.6920  171.8780  144.9300 O   0  0  0  0  0  0  0  0  0  0  0  0
  188.5870  172.4220  142.8860 C   0  0  0  0  0  2  0  0  0  0  0  0
  191.0180  173.9150  142.2350 C   0  0  0  0  0  0  0  0  0  0  0  0
  189.8860  173.8610  141.2480 C   0  0  2  0  0  3  0  0  0  0  0  0
  190.9160  173.2360  143.4900 N   0  0  0  0  0  2  0  0  0  0  0  0
  1 14  1  0  0  0  0
  1  9  1  0  0  0  0
  2  5  1  6  0  0  0
  2  3  1  0  0  0  0
  3  7  1  0  0  0  0
  4 11  1  0  0  0  0
  5 14  2  0  0  0  0
  6  1  2  0  0  0  0
  7  4  2  0  0  0  0
  8 21  1  1  0  0  0
  8 13  1  0  0  0  0
 10 19  1  0  0  0  0
 12  8  1  0  0  0  0
 12 16  1  0  0  0  0
 13 18  1  1  0  0  0
 13  2  1  0  0  0  0
 15  4  1  0  0  0  0
 16  5  1  0  0  0  0
 17 16  2  0  0  0  0
 17  6  1  0  0  0  0
 18 10  2  0  0  0  0
 19  3  2  0  0  0  0
 19 20  1  0  0  0  0
 20 15  2  0  0  0  0
 22 23  2  0  0  0  0
 23 21  1  0  0  0  0
 24 27  2  0  0  0  0
 25 28  1  0  0  0  0
 26 29  2  0  0  0  0
 28 24  1  0  0  0  0
 29 31  1  0  0  0  0
 30 23  1  1  0  0  0
 30 25  1  0  0  0  0
 30 29  1  0  0  0  0
 31 24  1  0  0  0  0
M  END
>  <MODEL>
6

>  <REMARK>
 VINA RESULT:      -7.8      3.373      6.127
  Name = 
  3 active torsions:
  status: ('A' for Active; 'I' for Inactive)
    1  A    between atoms: C_5  and  O_16
    2  A    between atoms: C_5  and  C_30
    3  A    between atoms: C_10  and  O_16
                            x       y       z     vdW  Elec       q    Type
                         _______ _______ _______ _____ _____    ______ ____

>  <TORSDO>
F 3

$$$$
=
 OpenBabel11112417053D

 31 35  0  0  1  0  0  0  0  0999 V2000
  185.4220  178.3300  146.8050 C   0  0  0  0  0  0  0  0  0  0  0  0
  187.7370  175.6730  145.3590 C   0  0  2  0  0  3  0  0  0  0  0  0
  187.8040  175.9540  143.8660 C   0  0  0  0  0  0  0  0  0  0  0  0
  186.9540  177.0290  141.8570 C   0  0  0  0  0  0  0  0  0  0  0  0
  187.2420  176.8410  146.1920 C   0  0  0  0  0  0  0  0  0  0  0  0
  186.2780  179.0380  147.6510 C   0  0  0  0  0  3  0  0  0  0  0  0
  186.9340  176.8630  143.2430 C   0  0  0  0  0  3  0  0  0  0  0  0
  190.0730  176.2180  146.2320 C   0  0  1  0  0  3  0  0  0  0  0  0
  184.1270  178.7070  146.6820 F   0  0  0  0  0  0  0  0  0  0  0  0
  189.5190  174.1930  143.6650 N   0  0  0  0  0  0  0  0  0  0  0  0
  185.8760  178.1800  141.0990 Cl  0  0  0  0  0  0  0  0  0  0  0  0
  189.5030  177.0910  147.3460 C   0  0  0  0  0  2  0  0  0  0  0  0
  189.0740  175.1070  145.8930 C   0  0  2  0  0  3  0  0  0  0  0  0
  185.9020  177.2350  146.0840 C   0  0  0  0  0  3  0  0  0  0  0  0
  187.8290  176.2720  141.0750 C   0  0  0  0  0  3  0  0  0  0  0  0
  188.1030  177.5540  147.0620 C   0  0  0  0  0  0  0  0  0  0  0  0
  187.6100  178.6430  147.7860 C   0  0  0  0  0  3  0  0  0  0  0  0
  189.6910  174.1110  144.9510 C   0  0  0  0  0  3  0  0  0  0  0  0
  188.6690  175.1790  143.0670 C   0  0  0  0  0  0  0  0  0  0  0  0
  188.6800  175.3450  141.6780 C   0  0  0  0  0  3  0  0  0  0  0  0
  190.3600  177.0190  145.0910 O   0  0  0  0  0  0  0  0  0  0  0  0
  191.9480  177.9370  143.6890 O   0  0  0  0  0  0  0  0  0  0  0  0
  191.6090  177.0030  144.4650 C   0  0  0  0  0  0  0  0  0  0  0  0
  195.2580  176.7630  144.1180 C   0  0  0  0  0  0  0  0  0  0  0  0
  193.5310  176.1270  145.7860 C   0  0  0  0  0  2  0  0  0  0  0  0
  192.6730  174.7830  142.5180 O   0  0  0  0  0  0  0  0  0  0  0  0
  196.4280  177.1640  143.8880 O   0  0  0  0  0  0  0  0  0  0  0  0
  194.5670  177.1760  145.3800 C   0  0  0  0  0  2  0  0  0  0  0  0
  193.2510  175.4820  143.3890 C   0  0  0  0  0  0  0  0  0  0  0  0
  192.5320  175.8410  144.6590 C   0  0  2  0  0  3  0  0  0  0  0  0
  194.5780  175.9600  143.1500 N   0  0  0  0  0  2  0  0  0  0  0  0
  1  6  1  0  0  0  0
  2  3  1  6  0  0  0
  2 13  1  0  0  0  0
  2  5  1  0  0  0  0
  4  7  2  0  0  0  0
  5 16  2  0  0  0  0
  6 17  2  0  0  0  0
  7  3  1  0  0  0  0
  8 21  1  6  0  0  0
  8 12  1  0  0  0  0
  9  1  1  0  0  0  0
 10 18  2  0  0  0  0
 11  4  1  0  0  0  0
 13 18  1  6  0  0  0
 13  8  1  0  0  0  0
 14  5  1  0  0  0  0
 14  1  2  0  0  0  0
 15 20  2  0  0  0  0
 15  4  1  0  0  0  0
 16 12  1  0  0  0  0
 16 17  1  0  0  0  0
 19 10  1  0  0  0  0
 19  3  2  0  0  0  0
 20 19  1  0  0  0  0
 22 23  2  0  0  0  0
 23 21  1  0  0  0  0
 24 28  1  0  0  0  0
 26 29  2  0  0  0  0
 27 24  2  0  0  0  0
 28 25  1  0  0  0  0
 29 30  1  0  0  0  0
 30 23  1  6  0  0  0
 30 25  1  0  0  0  0
 31 29  1  0  0  0  0
 31 24  1  0  0  0  0
M  END
>  <MODEL>
7

>  <REMARK>
 VINA RESULT:      -7.7      3.743      6.369
  Name = 
  3 active torsions:
  status: ('A' for Active; 'I' for Inactive)
    1  A    between atoms: C_5  and  O_16
    2  A    between atoms: C_5  and  C_30
    3  A    between atoms: C_10  and  O_16
                            x       y       z     vdW  Elec       q    Type
                         _______ _______ _______ _____ _____    ______ ____

>  <TORSDO>
F 3

$$$$
=
 OpenBabel11112417053D

 31 35  0  0  1  0  0  0  0  0999 V2000
  188.8560  176.4550  146.8170 C   0  0  0  0  0  0  0  0  0  0  0  0
  189.6560  173.4600  144.6040 C   0  0  2  0  0  3  0  0  0  0  0  0
  189.3300  173.8990  143.1850 C   0  0  0  0  0  0  0  0  0  0  0  0
  188.2630  175.4160  141.6120 C   0  0  0  0  0  0  0  0  0  0  0  0
  189.8350  174.6050  145.5840 C   0  0  0  0  0  0  0  0  0  0  0  0
  190.1090  176.7800  147.3390 C   0  0  0  0  0  3  0  0  0  0  0  0
  188.6330  175.0870  142.9180 C   0  0  0  0  0  3  0  0  0  0  0  0
  192.1950  173.2080  144.6440 C   0  0  1  0  0  3  0  0  0  0  0  0
  187.7720  177.1950  147.1510 F   0  0  0  0  0  0  0  0  0  0  0  0
  190.2610  171.7660  142.3690 N   0  0  0  0  0  0  0  0  0  0  0  0
  187.4110  176.9110  141.2950 Cl  0  0  0  0  0  0  0  0  0  0  0  0
  192.3060  174.0580  145.9070 C   0  0  0  0  0  2  0  0  0  0  0  0
  190.8490  172.4770  144.6370 C   0  0  2  0  0  3  0  0  0  0  0  0
  188.7200  175.3710  145.9490 C   0  0  0  0  0  3  0  0  0  0  0  0
  188.5670  174.5490  140.5610 C   0  0  0  0  0  3  0  0  0  0  0  0
  191.1020  174.9290  146.1270 C   0  0  0  0  0  0  0  0  0  0  0  0
  191.2260  176.0110  147.0030 C   0  0  0  0  0  3  0  0  0  0  0  0
  190.7970  171.4750  143.5170 C   0  0  0  0  0  3  0  0  0  0  0  0
  189.6140  173.0190  142.1200 C   0  0  0  0  0  0  0  0  0  0  0  0
  189.2360  173.3500  140.8150 C   0  0  0  0  0  3  0  0  0  0  0  0
  192.3390  174.0340  143.4940 O   0  0  0  0  0  0  0  0  0  0  0  0
  194.4200  173.4370  142.6900 O   0  0  0  0  0  0  0  0  0  0  0  0
  193.5890  174.3480  142.9530 C   0  0  0  0  0  0  0  0  0  0  0  0
  194.3890  176.9900  145.3770 C   0  0  0  0  0  0  0  0  0  0  0  0
  195.3800  176.0440  143.3040 C   0  0  0  0  0  2  0  0  0  0  0  0
  191.9190  176.9950  142.7190 O   0  0  0  0  0  0  0  0  0  0  0  0
  194.5680  177.5060  146.5100 O   0  0  0  0  0  0  0  0  0  0  0  0
  195.3960  176.0250  144.8330 C   0  0  0  0  0  2  0  0  0  0  0  0
  192.9760  176.7220  143.3440 C   0  0  0  0  0  0  0  0  0  0  0  0
  193.9780  175.7780  142.7430 C   0  0  2  0  0  3  0  0  0  0  0  0
  193.2010  177.2870  144.6380 N   0  0  0  0  0  2  0  0  0  0  0  0
  1  9  1  0  0  0  0
  1  6  1  0  0  0  0
  2  3  1  6  0  0  0
  2 13  1  0  0  0  0
  2  5  1  0  0  0  0
  4  7  2  0  0  0  0
  5 14  1  0  0  0  0
  5 16  2  0  0  0  0
  7  3  1  0  0  0  0
  8 21  1  6  0  0  0
  8 12  1  0  0  0  0
 10 18  2  0  0  0  0
 11  4  1  0  0  0  0
 12 16  1  0  0  0  0
 13 18  1  6  0  0  0
 13  8  1  0  0  0  0
 14  1  2  0  0  0  0
 15 20  2  0  0  0  0
 15  4  1  0  0  0  0
 16 17  1  0  0  0  0
 17  6  2  0  0  0  0
 19 10  1  0  0  0  0
 19  3  2  0  0  0  0
 20 19  1  0  0  0  0
 22 23  2  0  0  0  0
 23 21  1  0  0  0  0
 24 27  2  0  0  0  0
 25 28  1  0  0  0  0
 26 29  2  0  0  0  0
 28 24  1  0  0  0  0
 29 31  1  0  0  0  0
 30 23  1  1  0  0  0
 30 25  1  0  0  0  0
 30 29  1  0  0  0  0
 31 24  1  0  0  0  0
M  END
>  <MODEL>
8

>  <REMARK>
 VINA RESULT:      -7.4      3.905      6.084
  Name = 
  3 active torsions:
  status: ('A' for Active; 'I' for Inactive)
    1  A    between atoms: C_5  and  O_16
    2  A    between atoms: C_5  and  C_30
    3  A    between atoms: C_10  and  O_16
                            x       y       z     vdW  Elec       q    Type
                         _______ _______ _______ _____ _____    ______ ____

>  <TORSDO>
F 3

$$$$
=
 OpenBabel11112417053D

 31 35  0  0  1  0  0  0  0  0999 V2000
  190.7200  176.7900  147.3290 C   0  0  0  0  0  0  0  0  0  0  0  0
  189.7260  173.9610  144.9800 C   0  0  2  0  0  3  0  0  0  0  0  0
  189.1710  174.6360  143.7350 C   0  0  0  0  0  0  0  0  0  0  0  0
  188.2910  176.5840  142.5760 C   0  0  0  0  0  0  0  0  0  0  0  0
  190.5770  174.8660  145.8520 C   0  0  0  0  0  0  0  0  0  0  0  0
  192.1010  176.6190  147.4290 C   0  0  0  0  0  3  0  0  0  0  0  0
  188.8890  176.0100  143.7000 C   0  0  0  0  0  3  0  0  0  0  0  0
  191.9070  172.8750  144.2180 C   0  0  1  0  0  3  0  0  0  0  0  0
  190.1140  177.8080  147.9860 F   0  0  0  0  0  0  0  0  0  0  0  0
  189.0100  172.4170  142.6690 N   0  0  0  0  0  0  0  0  0  0  0  0
  187.9640  178.3020  142.5420 Cl  0  0  0  0  0  0  0  0  0  0  0  0
  192.6760  173.4950  145.3810 C   0  0  0  0  0  2  0  0  0  0  0  0
  190.4520  172.6390  144.6360 C   0  0  2  0  0  3  0  0  0  0  0  0
  189.9620  175.9150  146.5490 C   0  0  0  0  0  3  0  0  0  0  0  0
  187.9470  175.7860  141.4840 C   0  0  0  0  0  3  0  0  0  0  0  0
  191.9770  174.6880  145.9680 C   0  0  0  0  0  0  0  0  0  0  0  0
  192.7250  175.5650  146.7590 C   0  0  0  0  0  3  0  0  0  0  0  0
  189.7230  171.8410  143.5910 C   0  0  0  0  0  3  0  0  0  0  0  0
  188.8010  173.8340  142.6350 C   0  0  0  0  0  0  0  0  0  0  0  0
  188.1960  174.4130  141.5160 C   0  0  0  0  0  3  0  0  0  0  0  0
  191.9840  173.7260  143.0800 O   0  0  0  0  0  0  0  0  0  0  0  0
  192.8730  172.4010  141.4110 O   0  0  0  0  0  0  0  0  0  0  0  0
  192.8850  173.4950  142.0370 C   0  0  0  0  0  0  0  0  0  0  0  0
  195.6890  174.8130  144.0110 C   0  0  0  0  0  0  0  0  0  0  0  0
  195.3220  173.9080  141.7260 C   0  0  0  0  0  2  0  0  0  0  0  0
  192.9840  176.6120  142.3940 O   0  0  0  0  0  0  0  0  0  0  0  0
  196.4480  174.9320  145.0060 O   0  0  0  0  0  0  0  0  0  0  0  0
  195.7760  173.5900  143.1520 C   0  0  0  0  0  2  0  0  0  0  0  0
  193.8400  175.7150  142.6070 C   0  0  0  0  0  0  0  0  0  0  0  0
  193.9190  174.5230  141.6960 C   0  0  2  0  0  3  0  0  0  0  0  0
  194.7110  175.8200  143.7370 N   0  0  0  0  0  2  0  0  0  0  0  0
  1  6  1  0  0  0  0
  1  9  1  0  0  0  0
  2  3  1  6  0  0  0
  2  5  1  0  0  0  0
  4  7  2  0  0  0  0
  5 16  2  0  0  0  0
  5 14  1  0  0  0  0
  7  3  1  0  0  0  0
  8 21  1  6  0  0  0
  8 13  1  0  0  0  0
  8 12  1  0  0  0  0
 10 18  2  0  0  0  0
 11  4  1  0  0  0  0
 12 16  1  0  0  0  0
 13 18  1  6  0  0  0
 13  2  1  0  0  0  0
 14  1  2  0  0  0  0
 15 20  2  0  0  0  0
 15  4  1  0  0  0  0
 16 17  1  0  0  0  0
 17  6  2  0  0  0  0
 19 10  1  0  0  0  0
 19  3  2  0  0  0  0
 20 19  1  0  0  0  0
 22 23  2  0  0  0  0
 23 21  1  0  0  0  0
 24 27  2  0  0  0  0
 25 28  1  0  0  0  0
 26 29  2  0  0  0  0
 28 24  1  0  0  0  0
 29 31  1  0  0  0  0
 30 25  1  0  0  0  0
 30 23  1  1  0  0  0
 30 29  1  0  0  0  0
 31 24  1  0  0  0  0
M  END
>  <MODEL>
9

>  <REMARK>
 VINA RESULT:      -7.3      4.159      6.603
  Name = 
  3 active torsions:
  status: ('A' for Active; 'I' for Inactive)
    1  A    between atoms: C_5  and  O_16
    2  A    between atoms: C_5  and  C_30
    3  A    between atoms: C_10  and  O_16
                            x       y       z     vdW  Elec       q    Type
                         _______ _______ _______ _____ _____    ______ ____

>  <TORSDO>
F 3

$$$$
