=
 OpenBabel11112417383D

 28 32  0  0  1  0  0  0  0  0999 V2000
  190.4950  175.8610  145.0600 C   0  0  0  0  0  0  0  0  0  0  0  0
  185.5130  176.3000  145.7310 F   0  0  0  0  0  0  0  0  0  0  0  0
  189.1020  174.9350  140.5310 O   0  0  0  0  0  0  0  0  0  0  0  0
  191.3070  178.1560  143.6720 C   0  0  0  0  0  3  0  0  0  0  0  0
  187.3420  176.3390  141.3540 C   0  0  0  0  0  0  0  0  0  0  0  0
  190.0940  174.5720  145.7140 C   0  0  0  0  0  2  0  0  0  0  0  0
  186.4890  177.9780  147.0710 C   0  0  0  0  0  1  0  0  0  0  0  0
  186.0140  177.5920  145.6840 C   0  0  1  0  0  0  0  0  0  0  0  0
  184.5650  178.2910  143.8100 C   0  0  1  0  0  3  0  0  0  0  0  0
  187.1990  177.7040  144.6960 C   0  0  2  0  0  3  0  0  0  0  0  0
  191.0920  173.3750  142.6380 O   0  0  0  0  0  0  0  0  0  0  0  0
  187.4130  175.5270  143.5970 C   0  0  1  0  0  3  0  0  0  0  0  0
  185.6470  178.7000  143.0100 O   0  0  0  0  0  0  0  0  0  0  0  0
  184.8880  178.5300  145.2770 C   0  0  0  0  0  2  0  0  0  0  0  0
  190.2180  173.3810  143.4890 C   0  0  0  0  0  0  0  0  0  0  0  0
  189.5220  176.7260  144.5140 C   0  0  0  0  0  0  0  0  0  0  0  0
  188.3670  175.3380  141.4700 C   0  0  0  0  0  0  0  0  0  0  0  0
  183.3330  179.0850  143.4320 C   0  0  0  0  0  1  0  0  0  0  0  0
  188.7850  173.4440  143.0760 C   0  0  0  0  0  2  0  0  0  0  0  0
  189.9470  177.8630  143.8040 C   0  0  0  0  0  3  0  0  0  0  0  0
  191.8560  176.1690  144.9320 C   0  0  0  0  0  3  0  0  0  0  0  0
  192.2600  177.3140  144.2440 C   0  0  0  0  0  3  0  0  0  0  0  0
  190.6010  173.3520  144.9410 C   0  0  0  0  0  2  0  0  0  0  0  0
  186.6150  176.4550  142.6480 C   0  0  1  0  0  3  0  0  0  0  0  0
  188.4060  174.8200  142.7860 N   0  0  0  0  0  0  0  0  0  0  0  0
  186.7590  177.8520  143.2320 C   0  0  2  0  0  3  0  0  0  0  0  0
  187.0690  176.9800  140.3050 O   0  0  0  0  0  0  0  0  0  0  0  0
  188.0410  176.4280  144.6870 C   0  0  1  0  0  3  0  0  0  0  0  0
  1  6  1  0  0  0  0
  3 17  2  0  0  0  0
  4 20  2  0  0  0  0
  4 22  1  0  0  0  0
  5 17  1  0  0  0  0
  5 24  1  0  0  0  0
  8  2  1  0  0  0  0
  8  7  1  1  0  0  0
  9 18  1  6  0  0  0
  9 14  1  0  0  0  0
 10  8  1  0  0  0  0
 11 15  2  0  0  0  0
 12 28  1  0  0  0  0
 13 26  1  0  0  0  0
 13  9  1  0  0  0  0
 14  8  1  0  0  0  0
 15 23  1  0  0  0  0
 16 28  1  0  0  0  0
 16  1  2  0  0  0  0
 17 25  1  0  0  0  0
 19 15  1  0  0  0  0
 20 16  1  0  0  0  0
 21  1  1  0  0  0  0
 22 21  2  0  0  0  0
 23  6  1  0  0  0  0
 24 26  1  0  0  0  0
 24 12  1  0  0  0  0
 25 19  1  0  0  0  0
 25 12  1  0  0  0  0
 26 10  1  0  0  0  0
 27  5  2  0  0  0  0
 28 10  1  0  0  0  0
M  END
>  <MODEL>
1

>  <REMARK>
 VINA RESULT:      -8.8      0.000      0.000
  Name = 
  0 active torsions:
  status: ('A' for Active; 'I' for Inactive)
                            x       y       z     vdW  Elec       q    Type
                         _______ _______ _______ _____ _____    ______ ____

>  <TORSDO>
F 0

$$$$
=
 OpenBabel11112417383D

 28 32  0  0  1  0  0  0  0  0999 V2000
  189.5210  176.8070  145.3060 C   0  0  0  0  0  0  0  0  0  0  0  0
  194.4240  176.2010  144.2850 F   0  0  0  0  0  0  0  0  0  0  0  0
  189.2100  172.6520  142.8680 O   0  0  0  0  0  0  0  0  0  0  0  0
  188.8980  174.9490  147.3090 C   0  0  0  0  0  3  0  0  0  0  0  0
  191.4190  172.5630  143.7950 C   0  0  0  0  0  0  0  0  0  0  0  0
  189.7810  177.7480  144.1680 C   0  0  0  0  0  2  0  0  0  0  0  0
  194.3320  177.0870  146.4680 C   0  0  0  0  0  1  0  0  0  0  0  0
  194.2560  175.8380  145.6130 C   0  0  1  0  0  0  0  0  0  0  0  0
  195.1910  173.5720  145.3120 C   0  0  1  0  0  3  0  0  0  0  0  0
  192.8910  175.1510  145.8430 C   0  0  2  0  0  3  0  0  0  0  0  0
  187.6410  175.5340  142.6140 O   0  0  0  0  0  0  0  0  0  0  0  0
  191.8400  174.9080  143.6460 C   0  0  1  0  0  3  0  0  0  0  0  0
  194.0490  172.9360  145.8290 O   0  0  0  0  0  0  0  0  0  0  0  0
  195.3950  174.9100  146.0050 C   0  0  0  0  0  2  0  0  0  0  0  0
  188.7070  176.1260  142.5560 C   0  0  0  0  0  0  0  0  0  0  0  0
  190.4580  175.8090  145.6470 C   0  0  0  0  0  0  0  0  0  0  0  0
  190.2700  173.2230  143.2390 C   0  0  0  0  0  0  0  0  0  0  0  0
  196.4030  172.6960  145.5470 C   0  0  0  0  0  1  0  0  0  0  0  0
  189.9190  175.4150  142.0500 C   0  0  0  0  0  2  0  0  0  0  0  0
  190.1230  174.8730  146.6400 C   0  0  0  0  0  3  0  0  0  0  0  0
  188.3000  176.8830  145.9900 C   0  0  0  0  0  3  0  0  0  0  0  0
  187.9920  175.9600  146.9910 C   0  0  0  0  0  3  0  0  0  0  0  0
  188.7870  177.5510  143.0200 C   0  0  0  0  0  2  0  0  0  0  0  0
  192.5100  173.5560  143.9970 C   0  0  1  0  0  3  0  0  0  0  0  0
  190.5090  174.6110  143.1110 N   0  0  0  0  0  0  0  0  0  0  0  0
  192.8880  173.6620  145.4660 C   0  0  2  0  0  3  0  0  0  0  0  0
  191.5060  171.3280  144.0270 O   0  0  0  0  0  0  0  0  0  0  0  0
  191.8070  175.7470  144.9450 C   0  0  1  0  0  3  0  0  0  0  0  0
  1 16  2  0  0  0  0
  1 21  1  0  0  0  0
  2  8  1  0  0  0  0
  3 17  2  0  0  0  0
  5 24  1  0  0  0  0
  5 27  2  0  0  0  0
  6  1  1  0  0  0  0
  8 10  1  0  0  0  0
  8 14  1  0  0  0  0
  8  7  1  1  0  0  0
  9 18  1  1  0  0  0
  9 13  1  0  0  0  0
  9 14  1  0  0  0  0
 12 24  1  0  0  0  0
 12 28  1  0  0  0  0
 15 11  2  0  0  0  0
 15 23  1  0  0  0  0
 16 20  1  0  0  0  0
 17  5  1  0  0  0  0
 19 15  1  0  0  0  0
 19 25  1  0  0  0  0
 20  4  2  0  0  0  0
 21 22  2  0  0  0  0
 22  4  1  0  0  0  0
 23  6  1  0  0  0  0
 24 26  1  0  0  0  0
 25 17  1  0  0  0  0
 25 12  1  0  0  0  0
 26 13  1  0  0  0  0
 26 10  1  0  0  0  0
 28 16  1  0  0  0  0
 28 10  1  0  0  0  0
M  END
>  <MODEL>
2

>  <REMARK>
 VINA RESULT:      -8.6      2.950      6.754
  Name = 
  0 active torsions:
  status: ('A' for Active; 'I' for Inactive)
                            x       y       z     vdW  Elec       q    Type
                         _______ _______ _______ _____ _____    ______ ____

>  <TORSDO>
F 0

$$$$
=
 OpenBabel11112417383D

 28 32  0  0  1  0  0  0  0  0999 V2000
  190.6860  174.1180  142.9740 C   0  0  0  0  0  0  0  0  0  0  0  0
  187.8070  178.1740  143.8200 F   0  0  0  0  0  0  0  0  0  0  0  0
  193.0950  175.8980  146.7600 O   0  0  0  0  0  0  0  0  0  0  0  0
  190.0900  172.2910  145.0130 C   0  0  0  0  0  3  0  0  0  0  0  0
  190.8610  176.6850  147.1310 C   0  0  0  0  0  0  0  0  0  0  0  0
  191.1110  175.0990  141.9220 C   0  0  0  0  0  2  0  0  0  0  0  0
  186.3190  176.4520  143.2060 C   0  0  0  0  0  1  0  0  0  0  0  0
  187.1100  177.0900  144.3300 C   0  0  1  0  0  0  0  0  0  0  0  0
  186.9290  178.0320  146.6060 C   0  0  1  0  0  3  0  0  0  0  0  0
  188.0660  176.0360  144.9350 C   0  0  2  0  0  3  0  0  0  0  0  0
  194.0240  174.9200  143.7580 O   0  0  0  0  0  0  0  0  0  0  0  0
  190.3220  176.9790  144.8240 C   0  0  1  0  0  3  0  0  0  0  0  0
  187.5250  176.9110  147.2120 O   0  0  0  0  0  0  0  0  0  0  0  0
  186.1370  177.5960  145.3830 C   0  0  0  0  0  2  0  0  0  0  0  0
  193.1910  175.6490  143.2470 C   0  0  0  0  0  0  0  0  0  0  0  0
  189.9060  174.5320  144.0750 C   0  0  0  0  0  0  0  0  0  0  0  0
  191.9870  176.3050  146.3220 C   0  0  0  0  0  0  0  0  0  0  0  0
  185.9980  178.7010  147.5940 C   0  0  0  0  0  1  0  0  0  0  0  0
  192.7230  176.8640  143.9800 C   0  0  0  0  0  2  0  0  0  0  0  0
  189.6320  173.6080  145.0980 C   0  0  0  0  0  3  0  0  0  0  0  0
  191.1310  172.7920  142.8910 C   0  0  0  0  0  3  0  0  0  0  0  0
  190.8300  171.8800  143.9050 C   0  0  0  0  0  3  0  0  0  0  0  0
  192.6290  175.2980  141.9000 C   0  0  0  0  0  2  0  0  0  0  0  0
  189.7820  177.2210  146.2560 C   0  0  1  0  0  3  0  0  0  0  0  0
  191.7010  176.5010  144.9510 N   0  0  0  0  0  0  0  0  0  0  0  0
  188.5230  176.3760  146.3620 C   0  0  2  0  0  3  0  0  0  0  0  0
  190.8160  176.6220  148.3880 O   0  0  0  0  0  0  0  0  0  0  0  0
  189.3760  175.9560  144.1520 C   0  0  1  0  0  3  0  0  0  0  0  0
  1 16  1  0  0  0  0
  2  8  1  0  0  0  0
  4 20  1  0  0  0  0
  5 27  2  0  0  0  0
  6  1  1  0  0  0  0
  8  7  1  6  0  0  0
  8 10  1  0  0  0  0
  8 14  1  0  0  0  0
  9 13  1  0  0  0  0
  9 18  1  1  0  0  0
 10 26  1  0  0  0  0
 12 25  1  0  0  0  0
 12 24  1  0  0  0  0
 14  9  1  0  0  0  0
 15 11  2  0  0  0  0
 15 19  1  0  0  0  0
 16 28  1  0  0  0  0
 16 20  2  0  0  0  0
 17  3  2  0  0  0  0
 17  5  1  0  0  0  0
 19 25  1  0  0  0  0
 21  1  2  0  0  0  0
 21 22  1  0  0  0  0
 22  4  2  0  0  0  0
 23  6  1  0  0  0  0
 23 15  1  0  0  0  0
 24 26  1  0  0  0  0
 24  5  1  0  0  0  0
 25 17  1  0  0  0  0
 26 13  1  0  0  0  0
 28 12  1  0  0  0  0
 28 10  1  0  0  0  0
M  END
>  <MODEL>
3

>  <REMARK>
 VINA RESULT:      -8.2      2.719      4.616
  Name = 
  0 active torsions:
  status: ('A' for Active; 'I' for Inactive)
                            x       y       z     vdW  Elec       q    Type
                         _______ _______ _______ _____ _____    ______ ____

>  <TORSDO>
F 0

$$$$
=
 OpenBabel11112417383D

 28 32  0  0  1  0  0  0  0  0999 V2000
  191.3560  173.9590  142.8070 C   0  0  0  0  0  0  0  0  0  0  0  0
  188.7790  178.1530  141.6990 F   0  0  0  0  0  0  0  0  0  0  0  0
  192.1230  176.3530  146.9290 O   0  0  0  0  0  0  0  0  0  0  0  0
  189.7970  172.5430  144.6550 C   0  0  0  0  0  3  0  0  0  0  0  0
  190.0220  177.2340  146.1840 C   0  0  0  0  0  0  0  0  0  0  0  0
  192.2700  174.7260  141.8970 C   0  0  0  0  0  2  0  0  0  0  0  0
  187.5280  176.3740  140.7860 C   0  0  0  0  0  1  0  0  0  0  0  0
  187.8340  177.1910  142.0250 C   0  0  1  0  0  0  0  0  0  0  0  0
  186.8110  178.5330  143.8280 C   0  0  1  0  0  3  0  0  0  0  0  0
  188.3490  176.2480  143.1370 C   0  0  2  0  0  3  0  0  0  0  0  0
  194.1230  174.8310  144.8040 O   0  0  0  0  0  0  0  0  0  0  0  0
  190.5230  177.1150  143.8530 C   0  0  1  0  0  3  0  0  0  0  0  0
  186.9920  177.5310  144.7970 O   0  0  0  0  0  0  0  0  0  0  0  0
  186.5630  177.8970  142.4690 C   0  0  0  0  0  2  0  0  0  0  0  0
  193.6510  175.4700  143.8790 C   0  0  0  0  0  0  0  0  0  0  0  0
  190.2310  174.5800  143.3900 C   0  0  0  0  0  0  0  0  0  0  0  0
  191.3420  176.6930  146.0020 C   0  0  0  0  0  0  0  0  0  0  0  0
  185.6200  179.3870  144.2070 C   0  0  0  0  0  1  0  0  0  0  0  0
  193.0360  176.8050  144.1420 C   0  0  0  0  0  2  0  0  0  0  0  0
  189.4710  173.8620  144.3290 C   0  0  0  0  0  3  0  0  0  0  0  0
  191.6700  172.6330  143.1300 C   0  0  0  0  0  3  0  0  0  0  0  0
  190.8910  171.9250  144.0480 C   0  0  0  0  0  3  0  0  0  0  0  0
  193.6710  174.8910  142.4940 C   0  0  0  0  0  2  0  0  0  0  0  0
  189.4610  177.6220  144.8600 C   0  0  1  0  0  3  0  0  0  0  0  0
  191.6720  176.6430  144.6280 N   0  0  0  0  0  0  0  0  0  0  0  0
  188.1990  176.8330  144.5490 C   0  0  2  0  0  3  0  0  0  0  0  0
  189.4520  177.4010  147.2940 O   0  0  0  0  0  0  0  0  0  0  0  0
  189.8520  176.0030  143.0110 C   0  0  1  0  0  3  0  0  0  0  0  0
  1 21  2  0  0  0  0
  1 16  1  0  0  0  0
  2  8  1  0  0  0  0
  5 27  2  0  0  0  0
  6 23  1  0  0  0  0
  6  1  1  0  0  0  0
  8  7  1  6  0  0  0
  8 14  1  0  0  0  0
  8 10  1  0  0  0  0
  9 18  1  1  0  0  0
  9 13  1  0  0  0  0
 10 26  1  0  0  0  0
 12 25  1  0  0  0  0
 12 24  1  0  0  0  0
 14  9  1  0  0  0  0
 15 19  1  0  0  0  0
 15 11  2  0  0  0  0
 16 20  2  0  0  0  0
 17  5  1  0  0  0  0
 17  3  2  0  0  0  0
 19 25  1  0  0  0  0
 20  4  1  0  0  0  0
 21 22  1  0  0  0  0
 22  4  2  0  0  0  0
 23 15  1  0  0  0  0
 24  5  1  0  0  0  0
 25 17  1  0  0  0  0
 26 13  1  0  0  0  0
 26 24  1  0  0  0  0
 28 10  1  0  0  0  0
 28 16  1  0  0  0  0
 28 12  1  0  0  0  0
M  END
>  <MODEL>
4

>  <REMARK>
 VINA RESULT:      -8.1      2.587      4.484
  Name = 
  0 active torsions:
  status: ('A' for Active; 'I' for Inactive)
                            x       y       z     vdW  Elec       q    Type
                         _______ _______ _______ _____ _____    ______ ____

>  <TORSDO>
F 0

$$$$
=
 OpenBabel11112417383D

 28 32  0  0  1  0  0  0  0  0999 V2000
  187.4670  176.7010  143.3560 C   0  0  0  0  0  0  0  0  0  0  0  0
  189.3170  172.1430  144.4770 F   0  0  0  0  0  0  0  0  0  0  0  0
  189.9480  177.9160  147.3160 O   0  0  0  0  0  0  0  0  0  0  0  0
  189.6080  178.1860  142.3250 C   0  0  0  0  0  3  0  0  0  0  0  0
  191.1630  176.0240  146.4840 C   0  0  0  0  0  0  0  0  0  0  0  0
  186.3160  175.9800  143.9920 C   0  0  0  0  0  2  0  0  0  0  0  0
  189.3770  172.2950  142.1250 C   0  0  0  0  0  1  0  0  0  0  0  0
  190.0820  172.6240  143.4260 C   0  0  1  0  0  0  0  0  0  0  0  0
  192.2240  172.4170  144.6380 C   0  0  1  0  0  3  0  0  0  0  0  0
  190.2750  174.1550  143.5220 C   0  0  2  0  0  3  0  0  0  0  0  0
  186.8420  178.4340  146.3570 O   0  0  0  0  0  0  0  0  0  0  0  0
  189.2570  174.8670  145.6310 C   0  0  1  0  0  3  0  0  0  0  0  0
  192.5630  173.7680  144.4490 O   0  0  0  0  0  0  0  0  0  0  0  0
  191.4260  171.9130  143.4450 C   0  0  0  0  0  2  0  0  0  0  0  0
  186.6920  177.2420  146.1490 C   0  0  0  0  0  0  0  0  0  0  0  0
  188.7800  176.1920  143.4540 C   0  0  0  0  0  0  0  0  0  0  0  0
  189.9800  176.8030  146.7270 C   0  0  0  0  0  0  0  0  0  0  0  0
  193.4890  171.5970  144.7760 C   0  0  0  0  0  1  0  0  0  0  0  0
  187.5280  176.2520  146.8910 C   0  0  0  0  0  2  0  0  0  0  0  0
  189.8440  176.9590  142.9490 C   0  0  0  0  0  3  0  0  0  0  0  0
  187.2380  177.9280  142.7190 C   0  0  0  0  0  3  0  0  0  0  0  0
  188.3040  178.6660  142.2010 C   0  0  0  0  0  3  0  0  0  0  0  0
  185.6870  176.7910  145.1290 C   0  0  0  0  0  2  0  0  0  0  0  0
  190.7810  174.7220  145.8710 C   0  0  1  0  0  3  0  0  0  0  0  0
  188.8330  176.1220  146.2570 N   0  0  0  0  0  0  0  0  0  0  0  0
  191.3950  174.5680  144.4880 C   0  0  2  0  0  3  0  0  0  0  0  0
  192.3350  176.3690  146.7910 O   0  0  0  0  0  0  0  0  0  0  0  0
  189.0360  174.8400  144.1000 C   0  0  1  0  0  3  0  0  0  0  0  0
  1 16  1  0  0  0  0
  1  6  1  0  0  0  0
  4 20  1  0  0  0  0
  5 17  1  0  0  0  0
  5 27  2  0  0  0  0
  6 23  1  0  0  0  0
  8  7  1  6  0  0  0
  8 14  1  0  0  0  0
  8 10  1  0  0  0  0
  8  2  1  0  0  0  0
  9 18  1  6  0  0  0
 10 28  1  0  0  0  0
 10 26  1  0  0  0  0
 12 24  1  0  0  0  0
 12 25  1  0  0  0  0
 13 26  1  0  0  0  0
 13  9  1  0  0  0  0
 14  9  1  0  0  0  0
 15 11  2  0  0  0  0
 15 19  1  0  0  0  0
 16 28  1  0  0  0  0
 17  3  2  0  0  0  0
 20 16  2  0  0  0  0
 21  1  2  0  0  0  0
 22  4  2  0  0  0  0
 22 21  1  0  0  0  0
 23 15  1  0  0  0  0
 24  5  1  0  0  0  0
 25 17  1  0  0  0  0
 25 19  1  0  0  0  0
 26 24  1  0  0  0  0
 28 12  1  0  0  0  0
M  END
>  <MODEL>
5

>  <REMARK>
 VINA RESULT:      -7.4      2.679      6.324
  Name = 
  0 active torsions:
  status: ('A' for Active; 'I' for Inactive)
                            x       y       z     vdW  Elec       q    Type
                         _______ _______ _______ _____ _____    ______ ____

>  <TORSDO>
F 0

$$$$
=
 OpenBabel11112417383D

 28 32  0  0  1  0  0  0  0  0999 V2000
  194.0410  173.9560  144.8460 C   0  0  0  0  0  0  0  0  0  0  0  0
  189.7780  174.9520  147.3540 F   0  0  0  0  0  0  0  0  0  0  0  0
  190.9020  172.7540  141.3810 O   0  0  0  0  0  0  0  0  0  0  0  0
  194.3520  176.0180  142.9750 C   0  0  0  0  0  3  0  0  0  0  0  0
  189.6980  174.3970  142.6440 C   0  0  0  0  0  0  0  0  0  0  0  0
  193.8670  172.7810  145.7620 C   0  0  0  0  0  2  0  0  0  0  0  0
  191.2970  176.6420  147.9830 C   0  0  0  0  0  1  0  0  0  0  0  0
  190.2870  176.1770  146.9530 C   0  0  1  0  0  0  0  0  0  0  0  0
  188.2490  176.8380  145.7250 C   0  0  1  0  0  3  0  0  0  0  0  0
  190.9810  176.0770  145.5750 C   0  0  2  0  0  3  0  0  0  0  0  0
  193.4820  171.2070  142.7170 O   0  0  0  0  0  0  0  0  0  0  0  0
  190.6190  173.7960  144.7630 C   0  0  1  0  0  3  0  0  0  0  0  0
  188.9400  177.0600  144.5210 O   0  0  0  0  0  0  0  0  0  0  0  0
  189.1450  177.1800  146.9050 C   0  0  0  0  0  2  0  0  0  0  0  0
  193.0250  171.3800  143.8350 C   0  0  0  0  0  0  0  0  0  0  0  0
  192.9800  174.8590  144.6210 C   0  0  0  0  0  0  0  0  0  0  0  0
  190.6280  173.3140  142.4740 C   0  0  0  0  0  0  0  0  0  0  0  0
  187.0140  177.7120  145.7630 C   0  0  0  0  0  1  0  0  0  0  0  0
  191.5510  171.5470  144.0120 C   0  0  0  0  0  2  0  0  0  0  0  0
  193.1460  175.8760  143.6650 C   0  0  0  0  0  3  0  0  0  0  0  0
  195.2510  174.1130  144.1580 C   0  0  0  0  0  3  0  0  0  0  0  0
  195.4080  175.1430  143.2290 C   0  0  0  0  0  3  0  0  0  0  0  0
  193.9550  171.4490  145.0120 C   0  0  0  0  0  2  0  0  0  0  0  0
  189.5590  174.7060  144.0940 C   0  0  1  0  0  3  0  0  0  0  0  0
  191.1630  172.9200  143.7230 N   0  0  0  0  0  0  0  0  0  0  0  0
  190.0000  176.1300  144.3940 C   0  0  2  0  0  3  0  0  0  0  0  0
  189.0630  174.9610  141.7140 O   0  0  0  0  0  0  0  0  0  0  0  0
  191.6780  174.7280  145.3970 C   0  0  1  0  0  3  0  0  0  0  0  0
  1  6  1  0  0  0  0
  3 17  2  0  0  0  0
  4 22  2  0  0  0  0
  4 20  1  0  0  0  0
  5 24  1  0  0  0  0
  8  2  1  0  0  0  0
  8  7  1  1  0  0  0
  9 18  1  6  0  0  0
  9 14  1  0  0  0  0
 10  8  1  0  0  0  0
 11 15  2  0  0  0  0
 12 28  1  0  0  0  0
 13  9  1  0  0  0  0
 14  8  1  0  0  0  0
 15 19  1  0  0  0  0
 15 23  1  0  0  0  0
 16  1  1  0  0  0  0
 16 28  1  0  0  0  0
 17  5  1  0  0  0  0
 17 25  1  0  0  0  0
 20 16  2  0  0  0  0
 21  1  2  0  0  0  0
 22 21  1  0  0  0  0
 23  6  1  0  0  0  0
 24 26  1  0  0  0  0
 24 12  1  0  0  0  0
 25 19  1  0  0  0  0
 25 12  1  0  0  0  0
 26 13  1  0  0  0  0
 26 10  1  0  0  0  0
 27  5  2  0  0  0  0
 28 10  1  0  0  0  0
M  END
>  <MODEL>
6

>  <REMARK>
 VINA RESULT:      -7.3      2.631      3.954
  Name = 
  0 active torsions:
  status: ('A' for Active; 'I' for Inactive)
                            x       y       z     vdW  Elec       q    Type
                         _______ _______ _______ _____ _____    ______ ____

>  <TORSDO>
F 0

$$$$
=
 OpenBabel11112417383D

 28 32  0  0  1  0  0  0  0  0999 V2000
  189.1490  175.6010  145.3720 C   0  0  0  0  0  0  0  0  0  0  0  0
  191.0890  171.6860  142.8500 F   0  0  0  0  0  0  0  0  0  0  0  0
  193.7080  177.1620  145.0720 O   0  0  0  0  0  0  0  0  0  0  0  0
  188.9710  177.7100  143.5360 C   0  0  0  0  0  3  0  0  0  0  0  0
  193.4930  175.7650  143.1350 C   0  0  0  0  0  0  0  0  0  0  0  0
  189.3160  174.5350  146.4140 C   0  0  0  0  0  2  0  0  0  0  0  0
  188.9410  172.0310  141.9390 C   0  0  0  0  0  1  0  0  0  0  0  0
  190.3990  172.4450  141.9170 C   0  0  1  0  0  0  0  0  0  0  0  0
  192.3560  172.7630  140.4440 C   0  0  1  0  0  3  0  0  0  0  0  0
  190.4990  173.9550  142.2320 C   0  0  2  0  0  3  0  0  0  0  0  0
  191.5960  176.8470  147.5770 O   0  0  0  0  0  0  0  0  0  0  0  0
  192.0150  174.1830  144.1400 C   0  0  1  0  0  3  0  0  0  0  0  0
  192.2580  174.1660  140.4700 O   0  0  0  0  0  0  0  0  0  0  0  0
  190.9680  172.1470  140.5390 C   0  0  0  0  0  2  0  0  0  0  0  0
  191.3950  175.6800  147.2800 C   0  0  0  0  0  0  0  0  0  0  0  0
  189.7710  175.4810  144.1110 C   0  0  0  0  0  0  0  0  0  0  0  0
  193.2240  176.1540  144.4930 C   0  0  0  0  0  0  0  0  0  0  0  0
  193.0090  172.3300  139.1490 C   0  0  0  0  0  1  0  0  0  0  0  0
  192.4450  174.9160  146.5430 C   0  0  0  0  0  2  0  0  0  0  0  0
  189.6870  176.5560  143.2090 C   0  0  0  0  0  3  0  0  0  0  0  0
  188.4220  176.7570  145.6870 C   0  0  0  0  0  3  0  0  0  0  0  0
  188.3300  177.8050  144.7710 C   0  0  0  0  0  3  0  0  0  0  0  0
  190.0850  175.0420  147.6380 C   0  0  0  0  0  2  0  0  0  0  0  0
  192.8340  174.4600  142.8550 C   0  0  1  0  0  3  0  0  0  0  0  0
  192.3740  175.2120  145.1180 N   0  0  0  0  0  0  0  0  0  0  0  0
  191.8070  174.5940  141.7420 C   0  0  2  0  0  3  0  0  0  0  0  0
  194.2160  176.4050  142.3270 O   0  0  0  0  0  0  0  0  0  0  0  0
  190.5210  174.2120  143.7390 C   0  0  1  0  0  3  0  0  0  0  0  0
  1 21  1  0  0  0  0
  1  6  1  0  0  0  0
  4 22  1  0  0  0  0
  5 17  1  0  0  0  0
  6 23  1  0  0  0  0
  8  7  1  1  0  0  0
  8 10  1  0  0  0  0
  8  2  1  0  0  0  0
  9 18  1  6  0  0  0
  9 13  1  0  0  0  0
  9 14  1  0  0  0  0
 10 28  1  0  0  0  0
 12 25  1  0  0  0  0
 13 26  1  0  0  0  0
 14  8  1  0  0  0  0
 15 11  2  0  0  0  0
 15 23  1  0  0  0  0
 16  1  2  0  0  0  0
 17  3  2  0  0  0  0
 17 25  1  0  0  0  0
 19 15  1  0  0  0  0
 20  4  2  0  0  0  0
 20 16  1  0  0  0  0
 22 21  2  0  0  0  0
 24  5  1  0  0  0  0
 24 12  1  0  0  0  0
 25 19  1  0  0  0  0
 26 10  1  0  0  0  0
 26 24  1  0  0  0  0
 27  5  2  0  0  0  0
 28 16  1  0  0  0  0
 28 12  1  0  0  0  0
M  END
>  <MODEL>
7

>  <REMARK>
 VINA RESULT:      -7.1      3.389      6.274
  Name = 
  0 active torsions:
  status: ('A' for Active; 'I' for Inactive)
                            x       y       z     vdW  Elec       q    Type
                         _______ _______ _______ _____ _____    ______ ____

>  <TORSDO>
F 0

$$$$
=
 OpenBabel11112417383D

 28 32  0  0  1  0  0  0  0  0999 V2000
  189.2710  176.7510  144.2120 C   0  0  0  0  0  0  0  0  0  0  0  0
  188.7820  171.8050  143.3460 F   0  0  0  0  0  0  0  0  0  0  0  0
  192.9170  175.2020  146.9710 O   0  0  0  0  0  0  0  0  0  0  0  0
  191.5340  177.5800  142.7840 C   0  0  0  0  0  3  0  0  0  0  0  0
  192.7640  173.5040  145.2870 C   0  0  0  0  0  0  0  0  0  0  0  0
  188.1130  176.3370  145.0710 C   0  0  0  0  0  2  0  0  0  0  0  0
  188.3260  172.8610  141.2880 C   0  0  0  0  0  1  0  0  0  0  0  0
  189.3970  172.3370  142.2230 C   0  0  1  0  0  0  0  0  0  0  0  0
  191.3650  170.8510  142.3610 C   0  0  1  0  0  3  0  0  0  0  0  0
  190.3520  173.4940  142.5960 C   0  0  2  0  0  3  0  0  0  0  0  0
  190.3710  177.2130  147.5250 O   0  0  0  0  0  0  0  0  0  0  0  0
  190.3920  173.6210  145.0400 C   0  0  1  0  0  3  0  0  0  0  0  0
  192.2800  171.9190  142.3810 O   0  0  0  0  0  0  0  0  0  0  0  0
  190.1560  171.2230  141.5180 C   0  0  0  0  0  2  0  0  0  0  0  0
  189.5940  176.3650  147.1170 C   0  0  0  0  0  0  0  0  0  0  0  0
  190.1250  175.7850  143.6380 C   0  0  0  0  0  0  0  0  0  0  0  0
  192.2370  174.5060  146.1730 C   0  0  0  0  0  0  0  0  0  0  0  0
  192.0340  169.6290  141.7680 C   0  0  0  0  0  1  0  0  0  0  0  0
  189.9720  174.9230  147.1900 C   0  0  0  0  0  2  0  0  0  0  0  0
  191.2660  176.2180  142.9410 C   0  0  0  0  0  3  0  0  0  0  0  0
  189.5410  178.1150  144.0400 C   0  0  0  0  0  3  0  0  0  0  0  0
  190.6660  178.5280  143.3250 C   0  0  0  0  0  3  0  0  0  0  0  0
  188.2830  176.7900  146.5240 C   0  0  0  0  0  2  0  0  0  0  0  0
  191.6390  172.8180  144.5920 C   0  0  1  0  0  3  0  0  0  0  0  0
  190.8290  174.5700  146.0660 N   0  0  0  0  0  0  0  0  0  0  0  0
  191.7270  173.0150  143.0860 C   0  0  2  0  0  3  0  0  0  0  0  0
  193.9830  173.2160  145.1590 O   0  0  0  0  0  0  0  0  0  0  0  0
  189.8160  174.3030  143.7770 C   0  0  1  0  0  3  0  0  0  0  0  0
  1  6  1  0  0  0  0
  4 20  2  0  0  0  0
  4 22  1  0  0  0  0
  5 17  1  0  0  0  0
  6 23  1  0  0  0  0
  8  7  1  6  0  0  0
  8 10  1  0  0  0  0
  8  2  1  0  0  0  0
  9 18  1  6  0  0  0
  9 13  1  0  0  0  0
 10 26  1  0  0  0  0
 10 28  1  0  0  0  0
 12 25  1  0  0  0  0
 13 26  1  0  0  0  0
 14  8  1  0  0  0  0
 14  9  1  0  0  0  0
 15 19  1  0  0  0  0
 15 11  2  0  0  0  0
 16 28  1  0  0  0  0
 16  1  2  0  0  0  0
 17  3  2  0  0  0  0
 20 16  1  0  0  0  0
 21  1  1  0  0  0  0
 22 21  2  0  0  0  0
 23 15  1  0  0  0  0
 24 12  1  0  0  0  0
 24  5  1  0  0  0  0
 25 17  1  0  0  0  0
 25 19  1  0  0  0  0
 26 24  1  0  0  0  0
 27  5  2  0  0  0  0
 28 12  1  0  0  0  0
M  END
>  <MODEL>
8

>  <REMARK>
 VINA RESULT:      -7.0      3.350      6.375
  Name = 
  0 active torsions:
  status: ('A' for Active; 'I' for Inactive)
                            x       y       z     vdW  Elec       q    Type
                         _______ _______ _______ _____ _____    ______ ____

>  <TORSDO>
F 0

$$$$
=
 OpenBabel11112417383D

 28 32  0  0  1  0  0  0  0  0999 V2000
  189.7920  175.6730  144.8650 C   0  0  0  0  0  0  0  0  0  0  0  0
  192.7900  172.0170  143.1060 F   0  0  0  0  0  0  0  0  0  0  0  0
  193.9770  177.2950  146.6430 O   0  0  0  0  0  0  0  0  0  0  0  0
  190.3060  177.9360  143.2940 C   0  0  0  0  0  3  0  0  0  0  0  0
  194.6610  176.0750  144.6960 C   0  0  0  0  0  0  0  0  0  0  0  0
  189.5530  174.5200  145.7940 C   0  0  0  0  0  2  0  0  0  0  0  0
  191.2110  172.4230  141.4020 C   0  0  0  0  0  1  0  0  0  0  0  0
  192.5220  172.8500  142.0300 C   0  0  1  0  0  0  0  0  0  0  0  0
  194.9000  173.3160  141.5530 C   0  0  1  0  0  3  0  0  0  0  0  0
  192.4110  174.3270  142.4740 C   0  0  2  0  0  3  0  0  0  0  0  0
  191.0240  176.7390  147.9870 O   0  0  0  0  0  0  0  0  0  0  0  0
  192.9720  174.3960  144.8560 C   0  0  1  0  0  3  0  0  0  0  0  0
  194.7370  174.7090  141.6440 O   0  0  0  0  0  0  0  0  0  0  0  0
  193.6310  172.6820  141.0040 C   0  0  0  0  0  2  0  0  0  0  0  0
  191.0200  175.6020  147.5440 C   0  0  0  0  0  0  0  0  0  0  0  0
  190.8910  175.6720  143.9800 C   0  0  0  0  0  0  0  0  0  0  0  0
  193.8280  176.3380  145.8380 C   0  0  0  0  0  0  0  0  0  0  0  0
  196.0570  173.0050  140.6270 C   0  0  0  0  0  1  0  0  0  0  0  0
  192.3170  174.9160  147.2630 C   0  0  0  0  0  2  0  0  0  0  0  0
  191.1460  176.8230  143.2130 C   0  0  0  0  0  3  0  0  0  0  0  0
  188.9480  176.7900  144.9310 C   0  0  0  0  0  3  0  0  0  0  0  0
  189.2020  177.9160  144.1460 C   0  0  0  0  0  3  0  0  0  0  0  0
  189.7120  174.9230  147.2630 C   0  0  0  0  0  2  0  0  0  0  0  0
  194.2420  174.7940  144.0630 C   0  0  1  0  0  3  0  0  0  0  0  0
  192.8380  175.3370  145.9700 N   0  0  0  0  0  0  0  0  0  0  0  0
  193.7730  175.0190  142.6340 C   0  0  2  0  0  3  0  0  0  0  0  0
  195.6270  176.7910  144.3220 O   0  0  0  0  0  0  0  0  0  0  0  0
  191.7860  174.4480  143.8630 C   0  0  1  0  0  3  0  0  0  0  0  0
  1 21  1  0  0  0  0
  1  6  1  0  0  0  0
  4 22  1  0  0  0  0
  5 17  1  0  0  0  0
  6 23  1  0  0  0  0
  8  7  1  6  0  0  0
  8 10  1  0  0  0  0
  8  2  1  0  0  0  0
  9 18  1  6  0  0  0
  9 13  1  0  0  0  0
 10 26  1  0  0  0  0
 10 28  1  0  0  0  0
 12 25  1  0  0  0  0
 13 26  1  0  0  0  0
 14  9  1  0  0  0  0
 14  8  1  0  0  0  0
 15 11  2  0  0  0  0
 16  1  2  0  0  0  0
 17 25  1  0  0  0  0
 17  3  2  0  0  0  0
 19 15  1  0  0  0  0
 20  4  2  0  0  0  0
 20 16  1  0  0  0  0
 22 21  2  0  0  0  0
 23 15  1  0  0  0  0
 24  5  1  0  0  0  0
 24 12  1  0  0  0  0
 25 19  1  0  0  0  0
 26 24  1  0  0  0  0
 27  5  2  0  0  0  0
 28 16  1  0  0  0  0
 28 12  1  0  0  0  0
M  END
>  <MODEL>
9

>  <REMARK>
 VINA RESULT:      -6.9      4.047      7.224
  Name = 
  0 active torsions:
  status: ('A' for Active; 'I' for Inactive)
                            x       y       z     vdW  Elec       q    Type
                         _______ _______ _______ _____ _____    ______ ____

>  <TORSDO>
F 0

$$$$
