=
 OpenBabel11112417263D

 37 43  0  0  1  0  0  0  0  0999 V2000
  193.1430  172.0140  142.9660 C   0  0  1  0  0  0  0  0  0  0  0  0
  190.4440  174.1390  141.2150 C   0  0  1  0  0  3  0  0  0  0  0  0
  189.7300  177.2020  142.2880 O   0  0  0  0  0  0  0  0  0  0  0  0
  192.3130  172.3570  140.8500 C   0  0  2  0  0  3  0  0  0  0  0  0
  190.3480  174.9030  142.5340 C   0  0  2  0  0  3  0  0  0  0  0  0
  191.9430  173.8290  141.1130 C   0  0  2  0  0  3  0  0  0  0  0  0
  189.2210  175.9370  142.6140 C   0  0  2  0  0  3  0  0  0  0  0  0
  191.4020  171.8090  139.7640 C   0  0  0  0  0  2  0  0  0  0  0  0
  192.5790  174.4250  142.3690 C   0  0  2  0  0  3  0  0  0  0  0  0
  194.4270  172.0860  142.4410 F   0  0  0  0  0  0  0  0  0  0  0  0
  188.0750  173.2500  140.9930 C   0  0  0  0  0  2  0  0  0  0  0  0
  189.9210  171.8510  140.1590 C   0  0  0  0  0  2  0  0  0  0  0  0
  192.7020  173.3720  143.4950 C   0  0  0  0  0  2  0  0  0  0  0  0
  189.8440  177.3580  144.8380 C   0  0  0  0  0  2  0  0  0  0  0  0
  189.9940  177.9820  143.4500 C   0  0  1  0  0  3  0  0  0  0  0  0
  189.5420  172.8890  141.2290 C   0  0  1  0  0  3  0  0  0  0  0  0
  191.6630  175.5170  142.7380 N   0  0  2  0  0  0  0  0  0  0  0  0
  192.2160  171.5560  142.0070 O   0  0  0  0  0  0  0  0  0  0  0  0
  187.9640  175.6080  141.8000 C   0  0  1  0  0  3  0  0  0  0  0  0
  193.1600  171.0400  144.1250 C   0  0  0  0  0  1  0  0  0  0  0  0
  191.2320  177.4950  144.2360 C   0  0  2  0  0  3  0  0  0  0  0  0
  191.7940  176.0590  144.1070 C   0  0  2  0  0  3  0  0  0  0  0  0
  187.4980  174.1780  142.0530 C   0  0  0  0  0  2  0  0  0  0  0  0
  186.3140  177.3350  141.0660 C   0  0  0  0  0  3  0  0  0  0  0  0
  186.8610  176.5750  142.1060 C   0  0  0  0  0  0  0  0  0  0  0  0
  186.3770  176.7380  143.4130 C   0  0  0  0  0  3  0  0  0  0  0  0
  184.8460  177.8250  145.0590 C   0  0  0  0  0  1  0  0  0  0  0  0
  184.8100  178.4100  142.6310 C   0  0  0  0  0  3  0  0  0  0  0  0
  185.3540  177.6530  143.6730 C   0  0  0  0  0  0  0  0  0  0  0  0
  185.2900  178.2500  141.3270 C   0  0  0  0  0  3  0  0  0  0  0  0
  193.2550  176.1270  144.5600 C   0  0  0  0  0  2  0  0  0  0  0  0
  193.3480  175.9740  146.0070 N   0  0  0  0  0  0  0  0  0  0  0  0
  194.7960  177.8040  146.2420 O   0  0  0  0  0  0  0  0  0  0  0  0
  194.1120  176.8970  146.7900 C   0  0  0  0  0  3  0  0  0  0  0  0
  192.5510  175.0130  146.6470 N   0  0  0  0  0  2  0  0  0  0  0  0
  191.7270  175.6990  147.6320 C   0  0  0  0  0  2  0  0  0  0  0  0
  190.4220  175.2120  147.5760 O   0  0  0  0  0  1  0  0  0  0  0  0
  1 13  1  0  0  0  0
  1 20  1  1  0  0  0
  2 16  1  0  0  0  0
  2  5  1  0  0  0  0
  3  7  1  0  0  0  0
  3 15  1  0  0  0  0
  4  6  1  0  0  0  0
  4 18  1  0  0  0  0
  5  7  1  0  0  0  0
  5 17  1  0  0  0  0
  6  2  1  0  0  0  0
  6  9  1  0  0  0  0
  8 12  1  0  0  0  0
  8  4  1  0  0  0  0
  9 17  1  0  0  0  0
  9 13  1  0  0  0  0
 10  1  1  0  0  0  0
 11 16  1  0  0  0  0
 11 23  1  0  0  0  0
 12 16  1  0  0  0  0
 15 21  1  0  0  0  0
 15 14  1  0  0  0  0
 17 22  1  0  0  0  0
 18  1  1  0  0  0  0
 19 23  1  0  0  0  0
 19 25  1  0  0  0  0
 19  7  1  0  0  0  0
 21 14  1  0  0  0  0
 22 21  1  0  0  0  0
 22 31  1  0  0  0  0
 24 30  2  0  0  0  0
 24 25  1  0  0  0  0
 25 26  2  0  0  0  0
 26 29  1  0  0  0  0
 28 29  2  0  0  0  0
 29 27  1  0  0  0  0
 30 28  1  0  0  0  0
 31 32  1  0  0  0  0
 32 35  1  0  0  0  0
 32 34  1  0  0  0  0
 33 34  2  0  0  0  0
 35 36  1  0  0  0  0
 37 36  1  0  0  0  0
M  END
>  <MODEL>
1

>  <REMARK>
 VINA RESULT:      -7.8      0.000      0.000
  Name = 
  5 active torsions:
  status: ('A' for Active; 'I' for Inactive)
    1  A    between atoms: C_1  and  N_4
    2  A    between atoms: C_1  and  C_27
    3  A    between atoms: N_4  and  N_12
    4  A    between atoms: C_8  and  N_12
    5  A    between atoms: C_23  and  C_30
                            x       y       z     vdW  Elec       q    Type
                         _______ _______ _______ _____ _____    ______ ____

>  <TORSDO>
F 5

$$$$
=
 OpenBabel11112417263D

 37 43  0  0  1  0  0  0  0  0999 V2000
  193.9950  174.6500  142.5500 C   0  0  1  0  0  0  0  0  0  0  0  0
  190.9720  174.8630  144.9330 C   0  0  1  0  0  3  0  0  0  0  0  0
  187.8730  175.0130  143.7390 O   0  0  0  0  0  0  0  0  0  0  0  0
  193.3630  173.8720  144.6190 C   0  0  2  0  0  3  0  0  0  0  0  0
  190.2220  175.4720  143.7480 C   0  0  2  0  0  3  0  0  0  0  0  0
  191.8660  173.8130  144.2630 C   0  0  2  0  0  3  0  0  0  0  0  0
  188.8180  175.9980  144.0590 C   0  0  2  0  0  3  0  0  0  0  0  0
  193.5030  174.0670  146.1190 C   0  0  0  0  0  2  0  0  0  0  0  0
  191.5700  173.9050  142.7650 C   0  0  2  0  0  3  0  0  0  0  0  0
  194.4570  173.3760  142.2460 F   0  0  0  0  0  0  0  0  0  0  0  0
  190.8200  176.7510  146.6250 C   0  0  0  0  0  2  0  0  0  0  0  0
  192.8580  175.3690  146.6090 C   0  0  0  0  0  2  0  0  0  0  0  0
  192.5710  174.8400  142.0470 C   0  0  0  0  0  2  0  0  0  0  0  0
  187.7540  176.4080  141.5990 C   0  0  0  0  0  2  0  0  0  0  0  0
  187.2580  175.2600  142.4780 C   0  0  1  0  0  3  0  0  0  0  0  0
  191.7450  175.9430  145.7150 C   0  0  1  0  0  3  0  0  0  0  0  0
  190.1960  174.4330  142.7150 N   0  0  2  0  0  0  0  0  0  0  0  0
  194.0450  174.9030  143.9370 O   0  0  0  0  0  0  0  0  0  0  0  0
  188.6140  176.5350  145.4810 C   0  0  1  0  0  3  0  0  0  0  0  0
  194.8820  175.6560  141.8450 C   0  0  0  0  0  1  0  0  0  0  0  0
  188.2000  174.9900  141.2830 C   0  0  2  0  0  3  0  0  0  0  0  0
  189.7410  174.9790  141.4190 C   0  0  2  0  0  3  0  0  0  0  0  0
  189.7290  177.4990  145.8750 C   0  0  0  0  0  2  0  0  0  0  0  0
  186.3740  176.7300  146.5720 C   0  0  0  0  0  3  0  0  0  0  0  0
  187.2790  177.2020  145.6140 C   0  0  0  0  0  0  0  0  0  0  0  0
  186.9190  178.2800  144.7910 C   0  0  0  0  0  3  0  0  0  0  0  0
  185.2840  180.0180  144.0530 C   0  0  0  0  0  1  0  0  0  0  0  0
  184.7630  178.4040  145.8870 C   0  0  0  0  0  3  0  0  0  0  0  0
  185.6630  178.8790  144.9280 C   0  0  0  0  0  0  0  0  0  0  0  0
  185.1190  177.3300  146.7090 C   0  0  0  0  0  3  0  0  0  0  0  0
  190.2700  174.1640  140.2360 C   0  0  0  0  0  2  0  0  0  0  0  0
  189.3370  173.0960  139.8950 N   0  0  0  0  0  0  0  0  0  0  0  0
  188.6570  174.1410  137.9090 O   0  0  0  0  0  0  0  0  0  0  0  0
  188.5940  173.1390  138.6720 C   0  0  0  0  0  3  0  0  0  0  0  0
  189.2940  171.9440  140.6940 N   0  0  0  0  0  2  0  0  0  0  0  0
  190.5320  171.2060  140.4840 C   0  0  0  0  0  2  0  0  0  0  0  0
  190.8810  170.5320  141.6530 O   0  0  0  0  0  1  0  0  0  0  0  0
  1 20  1  6  0  0  0
  1 18  1  0  0  0  0
  2 16  1  0  0  0  0
  3  7  1  0  0  0  0
  4  8  1  0  0  0  0
  5  7  1  0  0  0  0
  5  2  1  0  0  0  0
  6  4  1  0  0  0  0
  6  2  1  0  0  0  0
  7 19  1  0  0  0  0
  8 12  1  0  0  0  0
  9  6  1  0  0  0  0
 10  1  1  0  0  0  0
 13  1  1  0  0  0  0
 13  9  1  0  0  0  0
 14 15  1  0  0  0  0
 15  3  1  0  0  0  0
 16 12  1  0  0  0  0
 16 11  1  0  0  0  0
 17  9  1  0  0  0  0
 17  5  1  0  0  0  0
 18  4  1  0  0  0  0
 19 25  1  0  0  0  0
 19 23  1  0  0  0  0
 21 22  1  0  0  0  0
 21 14  1  0  0  0  0
 21 15  1  0  0  0  0
 22 17  1  0  0  0  0
 23 11  1  0  0  0  0
 24 30  1  0  0  0  0
 25 24  2  0  0  0  0
 26 29  2  0  0  0  0
 26 25  1  0  0  0  0
 27 29  1  0  0  0  0
 28 30  2  0  0  0  0
 29 28  1  0  0  0  0
 31 22  1  0  0  0  0
 32 31  1  0  0  0  0
 32 35  1  0  0  0  0
 33 34  2  0  0  0  0
 34 32  1  0  0  0  0
 36 35  1  0  0  0  0
 36 37  1  0  0  0  0
M  END
>  <MODEL>
2

>  <REMARK>
 VINA RESULT:      -7.7      2.255      5.308
  Name = 
  5 active torsions:
  status: ('A' for Active; 'I' for Inactive)
    1  A    between atoms: C_1  and  N_4
    2  A    between atoms: C_1  and  C_27
    3  A    between atoms: N_4  and  N_12
    4  A    between atoms: C_8  and  N_12
    5  A    between atoms: C_23  and  C_30
                            x       y       z     vdW  Elec       q    Type
                         _______ _______ _______ _____ _____    ______ ____

>  <TORSDO>
F 5

$$$$
=
 OpenBabel11112417263D

 37 43  0  0  1  0  0  0  0  0999 V2000
  194.5510  173.6640  142.0810 C   0  0  1  0  0  0  0  0  0  0  0  0
  191.7170  175.2310  144.1730 C   0  0  1  0  0  3  0  0  0  0  0  0
  188.5370  174.8480  143.2860 O   0  0  0  0  0  0  0  0  0  0  0  0
  194.0780  174.1310  144.2820 C   0  0  2  0  0  3  0  0  0  0  0  0
  190.8790  175.1470  142.8980 C   0  0  2  0  0  3  0  0  0  0  0  0
  192.5580  173.9510  144.1100 C   0  0  2  0  0  3  0  0  0  0  0  0
  189.5020  175.8140  142.9700 C   0  0  2  0  0  3  0  0  0  0  0  0
  194.3310  175.0880  145.4360 C   0  0  0  0  0  2  0  0  0  0  0  0
  192.1490  173.2450  142.8170 C   0  0  2  0  0  3  0  0  0  0  0  0
  194.9890  172.4060  142.4750 F   0  0  0  0  0  0  0  0  0  0  0  0
  191.6930  177.7350  144.6050 C   0  0  0  0  0  2  0  0  0  0  0  0
  193.7240  176.4760  145.1960 C   0  0  0  0  0  2  0  0  0  0  0  0
  193.0930  173.6140  141.6480 C   0  0  0  0  0  2  0  0  0  0  0  0
  188.2550  174.8950  140.7450 C   0  0  0  0  0  2  0  0  0  0  0  0
  187.8280  174.4110  142.1300 C   0  0  1  0  0  3  0  0  0  0  0  0
  192.5470  176.5300  144.2080 C   0  0  1  0  0  3  0  0  0  0  0  0
  190.7750  173.7200  142.5820 N   0  0  2  0  0  0  0  0  0  0  0  0
  194.7060  174.6130  143.1140 O   0  0  0  0  0  0  0  0  0  0  0  0
  189.4070  177.0320  143.8960 C   0  0  1  0  0  3  0  0  0  0  0  0
  195.3810  174.1040  140.8940 C   0  0  0  0  0  1  0  0  0  0  0  0
  188.6760  173.5100  141.2050 C   0  0  2  0  0  3  0  0  0  0  0  0
  190.2240  173.5110  141.2260 C   0  0  2  0  0  3  0  0  0  0  0  0
  190.5470  178.0130  143.6430 C   0  0  0  0  0  2  0  0  0  0  0  0
  187.6640  178.1030  142.4610 C   0  0  0  0  0  3  0  0  0  0  0  0
  188.0850  177.7200  143.7390 C   0  0  0  0  0  0  0  0  0  0  0  0
  187.2720  177.9960  144.8490 C   0  0  0  0  0  3  0  0  0  0  0  0
  185.1900  178.9400  145.8550 C   0  0  0  0  0  1  0  0  0  0  0  0
  185.6310  179.0270  143.3980 C   0  0  0  0  0  3  0  0  0  0  0  0
  186.0480  178.6480  144.6770 C   0  0  0  0  0  0  0  0  0  0  0  0
  186.4390  178.7540  142.2890 C   0  0  0  0  0  3  0  0  0  0  0  0
  190.6610  172.1710  140.6290 C   0  0  0  0  0  2  0  0  0  0  0  0
  190.7300  172.2590  139.1750 N   0  0  0  0  0  0  0  0  0  0  0  0
  190.0760  170.0270  138.8750 O   0  0  0  0  0  0  0  0  0  0  0  0
  190.3690  171.1390  138.3590 C   0  0  0  0  0  3  0  0  0  0  0  0
  190.9930  173.5000  138.5750 N   0  0  0  0  0  2  0  0  0  0  0  0
  190.2960  173.5360  137.2970 C   0  0  0  0  0  2  0  0  0  0  0  0
  189.1010  174.2400  137.4340 O   0  0  0  0  0  1  0  0  0  0  0  0
  1 20  1  6  0  0  0
  1 10  1  0  0  0  0
  1 18  1  0  0  0  0
  2 16  1  0  0  0  0
  4  8  1  0  0  0  0
  5  7  1  0  0  0  0
  5  2  1  0  0  0  0
  6  2  1  0  0  0  0
  6  4  1  0  0  0  0
  7  3  1  0  0  0  0
  7 19  1  0  0  0  0
  9  6  1  0  0  0  0
 12  8  1  0  0  0  0
 13  1  1  0  0  0  0
 13  9  1  0  0  0  0
 14 21  1  0  0  0  0
 14 15  1  0  0  0  0
 15  3  1  0  0  0  0
 16 11  1  0  0  0  0
 16 12  1  0  0  0  0
 17  9  1  0  0  0  0
 17  5  1  0  0  0  0
 18  4  1  0  0  0  0
 21 22  1  0  0  0  0
 21 15  1  0  0  0  0
 22 17  1  0  0  0  0
 23 19  1  0  0  0  0
 23 11  1  0  0  0  0
 24 25  1  0  0  0  0
 25 19  1  0  0  0  0
 25 26  2  0  0  0  0
 28 29  2  0  0  0  0
 29 26  1  0  0  0  0
 29 27  1  0  0  0  0
 30 24  2  0  0  0  0
 30 28  1  0  0  0  0
 31 22  1  0  0  0  0
 32 31  1  0  0  0  0
 34 33  2  0  0  0  0
 34 32  1  0  0  0  0
 35 32  1  0  0  0  0
 36 37  1  0  0  0  0
 36 35  1  0  0  0  0
M  END
>  <MODEL>
3

>  <REMARK>
 VINA RESULT:      -7.6      2.269      5.441
  Name = 
  5 active torsions:
  status: ('A' for Active; 'I' for Inactive)
    1  A    between atoms: C_1  and  N_4
    2  A    between atoms: C_1  and  C_27
    3  A    between atoms: N_4  and  N_12
    4  A    between atoms: C_8  and  N_12
    5  A    between atoms: C_23  and  C_30
                            x       y       z     vdW  Elec       q    Type
                         _______ _______ _______ _____ _____    ______ ____

>  <TORSDO>
F 5

$$$$
=
 OpenBabel11112417263D

 37 43  0  0  1  0  0  0  0  0999 V2000
  193.4090  174.0120  145.2920 C   0  0  1  0  0  0  0  0  0  0  0  0
  189.7980  175.3570  145.1650 C   0  0  1  0  0  3  0  0  0  0  0  0
  187.7180  174.4180  142.7490 O   0  0  0  0  0  0  0  0  0  0  0  0
  191.7410  174.6350  146.7470 C   0  0  2  0  0  3  0  0  0  0  0  0
  189.8420  175.0160  143.6760 C   0  0  2  0  0  3  0  0  0  0  0  0
  190.6030  174.2160  145.7970 C   0  0  2  0  0  3  0  0  0  0  0  0
  188.6300  175.4770  142.8600 C   0  0  2  0  0  3  0  0  0  0  0  0
  191.2330  175.7350  147.6640 C   0  0  0  0  0  2  0  0  0  0  0  0
  191.0460  173.3240  144.6360 C   0  0  2  0  0  3  0  0  0  0  0  0
  193.6220  172.8810  146.0700 F   0  0  0  0  0  0  0  0  0  0  0  0
  189.3790  177.8610  145.0760 C   0  0  0  0  0  2  0  0  0  0  0  0
  190.7860  176.9850  146.8960 C   0  0  0  0  0  2  0  0  0  0  0  0
  192.4620  173.7020  144.1410 C   0  0  0  0  0  2  0  0  0  0  0  0
  188.9290  174.1530  140.5120 C   0  0  0  0  0  2  0  0  0  0  0  0
  187.8200  173.7620  141.4890 C   0  0  1  0  0  3  0  0  0  0  0  0
  190.3800  176.7600  145.4300 C   0  0  1  0  0  3  0  0  0  0  0  0
  190.0240  173.5640  143.6040 N   0  0  2  0  0  0  0  0  0  0  0  0
  192.8900  175.0770  146.0580 O   0  0  0  0  0  0  0  0  0  0  0  0
  187.9500  176.7590  143.3550 C   0  0  1  0  0  3  0  0  0  0  0  0
  194.7380  174.4410  144.7070 C   0  0  0  0  0  1  0  0  0  0  0  0
  189.0980  172.9020  141.3570 C   0  0  2  0  0  3  0  0  0  0  0  0
  190.3550  173.1340  142.2290 C   0  0  2  0  0  3  0  0  0  0  0  0
  188.9690  177.8640  143.6110 C   0  0  0  0  0  2  0  0  0  0  0  0
  187.2610  177.3680  141.0310 C   0  0  0  0  0  3  0  0  0  0  0  0
  186.9130  177.2240  142.3790 C   0  0  0  0  0  0  0  0  0  0  0  0
  185.6070  177.5270  142.7940 C   0  0  0  0  0  3  0  0  0  0  0  0
  183.2790  178.2910  142.3090 C   0  0  0  0  0  1  0  0  0  0  0  0
  185.0130  178.1100  140.5200 C   0  0  0  0  0  3  0  0  0  0  0  0
  184.6600  177.9690  141.8650 C   0  0  0  0  0  0  0  0  0  0  0  0
  186.3130  177.8100  140.1030 C   0  0  0  0  0  3  0  0  0  0  0  0
  191.1360  171.8170  142.2120 C   0  0  0  0  0  2  0  0  0  0  0  0
  191.8600  171.6690  140.9550 N   0  0  0  0  0  0  0  0  0  0  0  0
  190.8030  169.6440  140.4290 O   0  0  0  0  0  0  0  0  0  0  0  0
  191.5950  170.5620  140.0870 C   0  0  0  0  0  3  0  0  0  0  0  0
  192.7010  172.7060  140.5230 N   0  0  0  0  0  2  0  0  0  0  0  0
  192.6480  172.7490  139.0690 C   0  0  0  0  0  2  0  0  0  0  0  0
  191.8090  173.7840  138.6590 O   0  0  0  0  0  1  0  0  0  0  0  0
  1 20  1  6  0  0  0
  1 18  1  0  0  0  0
  1 10  1  0  0  0  0
  2 16  1  0  0  0  0
  2  6  1  0  0  0  0
  3  7  1  0  0  0  0
  4  8  1  0  0  0  0
  5  2  1  0  0  0  0
  6  4  1  0  0  0  0
  7 19  1  0  0  0  0
  7  5  1  0  0  0  0
  9  6  1  0  0  0  0
 11 16  1  0  0  0  0
 12  8  1  0  0  0  0
 13  9  1  0  0  0  0
 13  1  1  0  0  0  0
 14 21  1  0  0  0  0
 14 15  1  0  0  0  0
 15  3  1  0  0  0  0
 16 12  1  0  0  0  0
 17  5  1  0  0  0  0
 17  9  1  0  0  0  0
 18  4  1  0  0  0  0
 19 23  1  0  0  0  0
 21 15  1  0  0  0  0
 21 22  1  0  0  0  0
 22 17  1  0  0  0  0
 23 11  1  0  0  0  0
 24 25  1  0  0  0  0
 25 26  2  0  0  0  0
 25 19  1  0  0  0  0
 28 29  2  0  0  0  0
 29 27  1  0  0  0  0
 29 26  1  0  0  0  0
 30 28  1  0  0  0  0
 30 24  2  0  0  0  0
 31 22  1  0  0  0  0
 32 31  1  0  0  0  0
 34 33  2  0  0  0  0
 34 32  1  0  0  0  0
 35 32  1  0  0  0  0
 36 35  1  0  0  0  0
 37 36  1  0  0  0  0
M  END
>  <MODEL>
4

>  <REMARK>
 VINA RESULT:      -7.3      2.165      5.316
  Name = 
  5 active torsions:
  status: ('A' for Active; 'I' for Inactive)
    1  A    between atoms: C_1  and  N_4
    2  A    between atoms: C_1  and  C_27
    3  A    between atoms: N_4  and  N_12
    4  A    between atoms: C_8  and  N_12
    5  A    between atoms: C_23  and  C_30
                            x       y       z     vdW  Elec       q    Type
                         _______ _______ _______ _____ _____    ______ ____

>  <TORSDO>
F 5

$$$$
=
 OpenBabel11112417263D

 37 43  0  0  1  0  0  0  0  0999 V2000
  192.3630  171.6270  142.6660 C   0  0  1  0  0  0  0  0  0  0  0  0
  190.0200  174.5220  141.6660 C   0  0  1  0  0  3  0  0  0  0  0  0
  189.9210  177.3230  143.4530 O   0  0  0  0  0  0  0  0  0  0  0  0
  191.5170  172.5900  140.7570 C   0  0  2  0  0  3  0  0  0  0  0  0
  190.1210  174.9600  143.1270 C   0  0  2  0  0  3  0  0  0  0  0  0
  191.4320  173.9990  141.3720 C   0  0  2  0  0  3  0  0  0  0  0  0
  189.2050  176.1200  143.5290 C   0  0  2  0  0  3  0  0  0  0  0  0
  190.4750  172.4710  139.6570 C   0  0  0  0  0  2  0  0  0  0  0  0
  192.2200  174.1700  142.6710 C   0  0  2  0  0  3  0  0  0  0  0  0
  193.6140  171.6050  142.0630 F   0  0  0  0  0  0  0  0  0  0  0  0
  187.5220  174.1160  141.4530 C   0  0  0  0  0  2  0  0  0  0  0  0
  189.0450  172.6650  140.1750 C   0  0  0  0  0  2  0  0  0  0  0  0
  192.1980  172.8760  143.5190 C   0  0  0  0  0  2  0  0  0  0  0  0
  190.1720  176.8550  145.9540 C   0  0  0  0  0  2  0  0  0  0  0  0
  190.3720  177.7530  144.7330 C   0  0  1  0  0  3  0  0  0  0  0  0
  188.9080  173.4710  141.4780 C   0  0  1  0  0  3  0  0  0  0  0  0
  191.5330  175.2810  143.3500 N   0  0  2  0  0  0  0  0  0  0  0  0
  191.3270  171.5670  141.7100 O   0  0  0  0  0  0  0  0  0  0  0  0
  187.8750  176.2040  142.7720 C   0  0  1  0  0  3  0  0  0  0  0  0
  192.2530  170.4190  143.5720 C   0  0  0  0  0  1  0  0  0  0  0  0
  191.5350  176.8960  145.2830 C   0  0  2  0  0  3  0  0  0  0  0  0
  191.8200  175.4580  144.7900 C   0  0  2  0  0  3  0  0  0  0  0  0
  187.1700  174.8520  142.7370 C   0  0  0  0  0  2  0  0  0  0  0  0
  186.7320  178.4240  142.6710 C   0  0  0  0  0  3  0  0  0  0  0  0
  186.9800  177.2420  143.3780 C   0  0  0  0  0  0  0  0  0  0  0  0
  186.3980  177.0540  144.6400 C   0  0  0  0  0  3  0  0  0  0  0  0
  184.9620  177.8400  146.5260 C   0  0  0  0  0  1  0  0  0  0  0  0
  185.3290  179.2200  144.4770 C   0  0  0  0  0  3  0  0  0  0  0  0
  185.5740  178.0420  145.1870 C   0  0  0  0  0  0  0  0  0  0  0  0
  185.9080  179.4110  143.2180 C   0  0  0  0  0  3  0  0  0  0  0  0
  193.2880  175.1740  145.1220 C   0  0  0  0  0  2  0  0  0  0  0  0
  194.1220  176.3140  144.7610 N   0  0  0  0  0  0  0  0  0  0  0  0
  194.1920  177.1300  146.9580 O   0  0  0  0  0  0  0  0  0  0  0  0
  194.5770  177.2310  145.7620 C   0  0  0  0  0  3  0  0  0  0  0  0
  194.6130  176.4160  143.4510 N   0  0  0  0  0  2  0  0  0  0  0  0
  196.0670  176.3820  143.5140 C   0  0  0  0  0  2  0  0  0  0  0  0
  196.6010  176.7900  142.2920 O   0  0  0  0  0  1  0  0  0  0  0  0
  1 13  1  0  0  0  0
  1 20  1  1  0  0  0
  2  5  1  0  0  0  0
  3  7  1  0  0  0  0
  3 15  1  0  0  0  0
  4  6  1  0  0  0  0
  4 18  1  0  0  0  0
  5 17  1  0  0  0  0
  5  7  1  0  0  0  0
  6  2  1  0  0  0  0
  6  9  1  0  0  0  0
  8 12  1  0  0  0  0
  8  4  1  0  0  0  0
  9 17  1  0  0  0  0
  9 13  1  0  0  0  0
 10  1  1  0  0  0  0
 11 16  1  0  0  0  0
 11 23  1  0  0  0  0
 12 16  1  0  0  0  0
 15 21  1  0  0  0  0
 15 14  1  0  0  0  0
 16  2  1  0  0  0  0
 17 22  1  0  0  0  0
 18  1  1  0  0  0  0
 19 25  1  0  0  0  0
 19  7  1  0  0  0  0
 21 14  1  0  0  0  0
 22 31  1  0  0  0  0
 22 21  1  0  0  0  0
 23 19  1  0  0  0  0
 24 30  2  0  0  0  0
 24 25  1  0  0  0  0
 25 26  2  0  0  0  0
 26 29  1  0  0  0  0
 28 29  2  0  0  0  0
 29 27  1  0  0  0  0
 30 28  1  0  0  0  0
 32 31  1  0  0  0  0
 32 34  1  0  0  0  0
 34 33  2  0  0  0  0
 35 36  1  0  0  0  0
 35 32  1  0  0  0  0
 37 36  1  0  0  0  0
M  END
>  <MODEL>
5

>  <REMARK>
 VINA RESULT:      -7.1      1.444      2.157
  Name = 
  5 active torsions:
  status: ('A' for Active; 'I' for Inactive)
    1  A    between atoms: C_1  and  N_4
    2  A    between atoms: C_1  and  C_27
    3  A    between atoms: N_4  and  N_12
    4  A    between atoms: C_8  and  N_12
    5  A    between atoms: C_23  and  C_30
                            x       y       z     vdW  Elec       q    Type
                         _______ _______ _______ _____ _____    ______ ____

>  <TORSDO>
F 5

$$$$
=
 OpenBabel11112417263D

 37 43  0  0  1  0  0  0  0  0999 V2000
  195.2530  174.5530  142.6090 C   0  0  1  0  0  0  0  0  0  0  0  0
  192.0990  175.1610  144.7410 C   0  0  1  0  0  3  0  0  0  0  0  0
  189.0850  174.3710  143.5830 O   0  0  0  0  0  0  0  0  0  0  0  0
  194.6230  174.5120  144.8200 C   0  0  2  0  0  3  0  0  0  0  0  0
  191.3380  175.1620  143.4160 C   0  0  2  0  0  3  0  0  0  0  0  0
  193.1730  174.0910  144.5140 C   0  0  2  0  0  3  0  0  0  0  0  0
  189.8570  175.5400  143.5080 C   0  0  2  0  0  3  0  0  0  0  0  0
  194.6460  175.2690  146.1370 C   0  0  0  0  0  2  0  0  0  0  0  0
  192.9530  173.5730  143.0920 C   0  0  2  0  0  3  0  0  0  0  0  0
  195.9120  173.3470  142.8060 F   0  0  0  0  0  0  0  0  0  0  0  0
  191.5780  177.4940  145.6000 C   0  0  0  0  0  2  0  0  0  0  0  0
  193.7920  176.5420  146.1020 C   0  0  0  0  0  2  0  0  0  0  0  0
  193.8480  174.3180  142.0740 C   0  0  0  0  0  2  0  0  0  0  0  0
  188.8880  174.8340  141.0760 C   0  0  0  0  0  2  0  0  0  0  0  0
  188.5150  174.0330  142.3230 C   0  0  1  0  0  3  0  0  0  0  0  0
  192.6610  176.5610  145.0590 C   0  0  1  0  0  3  0  0  0  0  0  0
  191.5220  173.8230  142.8490 N   0  0  2  0  0  0  0  0  0  0  0  0
  195.1860  175.3070  143.7990 O   0  0  0  0  0  0  0  0  0  0  0  0
  189.4960  176.5270  144.6230 C   0  0  1  0  0  3  0  0  0  0  0  0
  196.0230  175.3490  141.5770 C   0  0  0  0  0  1  0  0  0  0  0  0
  189.5530  173.4890  141.3160 C   0  0  2  0  0  3  0  0  0  0  0  0
  191.0690  173.7700  141.4430 C   0  0  2  0  0  3  0  0  0  0  0  0
  190.4340  177.7300  144.6250 C   0  0  0  0  0  2  0  0  0  0  0  0
  187.6590  177.6080  143.3180 C   0  0  0  0  0  3  0  0  0  0  0  0
  188.0730  176.9790  144.4980 C   0  0  0  0  0  0  0  0  0  0  0  0
  187.1560  176.7910  145.5430 C   0  0  0  0  0  3  0  0  0  0  0  0
  184.8670  177.0320  146.5140 C   0  0  0  0  0  1  0  0  0  0  0  0
  185.4270  177.8570  144.2240 C   0  0  0  0  0  3  0  0  0  0  0  0
  185.8350  177.2300  145.4050 C   0  0  0  0  0  0  0  0  0  0  0  0
  186.3380  178.0450  143.1810 C   0  0  0  0  0  3  0  0  0  0  0  0
  191.7770  172.6660  140.6530 C   0  0  0  0  0  2  0  0  0  0  0  0
  190.9720  171.4510  140.6390 N   0  0  0  0  0  0  0  0  0  0  0  0
  190.4300  171.6740  138.3690 O   0  0  0  0  0  0  0  0  0  0  0  0
  190.3630  170.9920  139.4270 C   0  0  0  0  0  3  0  0  0  0  0  0
  190.9310  170.6430  141.7860 N   0  0  0  0  0  2  0  0  0  0  0  0
  190.9780  169.2530  141.3560 C   0  0  0  0  0  2  0  0  0  0  0  0
  191.4960  168.4610  142.3800 O   0  0  0  0  0  1  0  0  0  0  0  0
  1 20  1  6  0  0  0
  1 10  1  0  0  0  0
  1 18  1  0  0  0  0
  2 16  1  0  0  0  0
  4  8  1  0  0  0  0
  5  7  1  0  0  0  0
  5  2  1  0  0  0  0
  6  2  1  0  0  0  0
  6  4  1  0  0  0  0
  7  3  1  0  0  0  0
  7 19  1  0  0  0  0
  9  6  1  0  0  0  0
 12  8  1  0  0  0  0
 13  1  1  0  0  0  0
 13  9  1  0  0  0  0
 14 21  1  0  0  0  0
 14 15  1  0  0  0  0
 15  3  1  0  0  0  0
 16 11  1  0  0  0  0
 16 12  1  0  0  0  0
 17  9  1  0  0  0  0
 17  5  1  0  0  0  0
 18  4  1  0  0  0  0
 19 23  1  0  0  0  0
 21 22  1  0  0  0  0
 21 15  1  0  0  0  0
 22 17  1  0  0  0  0
 23 11  1  0  0  0  0
 24 25  1  0  0  0  0
 25 19  1  0  0  0  0
 25 26  2  0  0  0  0
 28 29  2  0  0  0  0
 29 26  1  0  0  0  0
 29 27  1  0  0  0  0
 30 24  2  0  0  0  0
 30 28  1  0  0  0  0
 31 22  1  0  0  0  0
 32 31  1  0  0  0  0
 32 35  1  0  0  0  0
 33 34  2  0  0  0  0
 34 32  1  0  0  0  0
 36 35  1  0  0  0  0
 36 37  1  0  0  0  0
M  END
>  <MODEL>
6

>  <REMARK>
 VINA RESULT:      -6.8      2.180      5.291
  Name = 
  5 active torsions:
  status: ('A' for Active; 'I' for Inactive)
    1  A    between atoms: C_1  and  N_4
    2  A    between atoms: C_1  and  C_27
    3  A    between atoms: N_4  and  N_12
    4  A    between atoms: C_8  and  N_12
    5  A    between atoms: C_23  and  C_30
                            x       y       z     vdW  Elec       q    Type
                         _______ _______ _______ _____ _____    ______ ____

>  <TORSDO>
F 5

$$$$
=
 OpenBabel11112417263D

 37 43  0  0  1  0  0  0  0  0999 V2000
  195.5850  173.6050  142.1360 C   0  0  1  0  0  0  0  0  0  0  0  0
  192.9160  174.2010  144.8540 C   0  0  1  0  0  3  0  0  0  0  0  0
  189.6860  173.7910  144.1840 O   0  0  0  0  0  0  0  0  0  0  0  0
  195.3400  173.3510  144.4080 C   0  0  2  0  0  3  0  0  0  0  0  0
  191.9440  174.4170  143.6950 C   0  0  2  0  0  3  0  0  0  0  0  0
  193.8260  173.0840  144.3280 C   0  0  2  0  0  3  0  0  0  0  0  0
  190.5440  174.8960  144.0920 C   0  0  2  0  0  3  0  0  0  0  0  0
  195.6620  173.9440  145.7700 C   0  0  0  0  0  2  0  0  0  0  0  0
  193.3160  172.7570  142.9230 C   0  0  2  0  0  3  0  0  0  0  0  0
  196.1460  172.3360  142.0860 F   0  0  0  0  0  0  0  0  0  0  0  0
  192.7790  176.4490  146.0280 C   0  0  0  0  0  2  0  0  0  0  0  0
  194.9430  175.2750  146.0210 C   0  0  0  0  0  2  0  0  0  0  0  0
  194.0920  173.5450  141.8420 C   0  0  0  0  0  2  0  0  0  0  0  0
  189.1090  174.5600  141.8150 C   0  0  0  0  0  2  0  0  0  0  0  0
  188.8780  173.6490  143.0200 C   0  0  1  0  0  3  0  0  0  0  0  0
  193.6580  175.5050  145.2070 C   0  0  1  0  0  3  0  0  0  0  0  0
  191.8960  173.1440  142.9700 N   0  0  2  0  0  0  0  0  0  0  0  0
  195.7960  174.2160  143.3900 O   0  0  0  0  0  0  0  0  0  0  0  0
  190.4770  175.7700  145.3490 C   0  0  1  0  0  3  0  0  0  0  0  0
  196.2410  174.4560  141.0690 C   0  0  0  0  0  1  0  0  0  0  0  0
  189.6700  173.1490  141.7910 C   0  0  2  0  0  3  0  0  0  0  0  0
  191.2060  173.2940  141.6710 C   0  0  2  0  0  3  0  0  0  0  0  0
  191.5140  176.8870  145.3050 C   0  0  0  0  0  2  0  0  0  0  0  0
  188.3880  176.0390  146.6930 C   0  0  0  0  0  3  0  0  0  0  0  0
  189.1040  176.3420  145.5300 C   0  0  0  0  0  0  0  0  0  0  0  0
  188.5240  177.1640  144.5520 C   0  0  0  0  0  3  0  0  0  0  0  0
  186.6260  178.5460  143.7010 C   0  0  0  0  0  1  0  0  0  0  0  0
  186.5260  177.3740  145.9040 C   0  0  0  0  0  3  0  0  0  0  0  0
  187.2380  177.6780  144.7400 C   0  0  0  0  0  0  0  0  0  0  0  0
  187.1010  176.5540  146.8810 C   0  0  0  0  0  3  0  0  0  0  0  0
  191.6580  172.2400  140.6570 C   0  0  0  0  0  2  0  0  0  0  0  0
  190.9950  172.4480  139.3750 N   0  0  0  0  0  0  0  0  0  0  0  0
  192.5120  174.1060  138.7070 O   0  0  0  0  0  0  0  0  0  0  0  0
  191.5220  173.3790  138.4240 C   0  0  0  0  0  3  0  0  0  0  0  0
  189.9300  171.6100  139.0110 N   0  0  0  0  0  2  0  0  0  0  0  0
  190.0600  171.3120  137.5920 C   0  0  0  0  0  2  0  0  0  0  0  0
  189.8910  169.9450  137.3810 O   0  0  0  0  0  1  0  0  0  0  0  0
  1 20  1  6  0  0  0
  1 18  1  0  0  0  0
  2 16  1  0  0  0  0
  4  8  1  0  0  0  0
  5  7  1  0  0  0  0
  5  2  1  0  0  0  0
  6  4  1  0  0  0  0
  6  2  1  0  0  0  0
  7  3  1  0  0  0  0
  7 19  1  0  0  0  0
  8 12  1  0  0  0  0
  9 17  1  0  0  0  0
  9  6  1  0  0  0  0
 10  1  1  0  0  0  0
 13  1  1  0  0  0  0
 13  9  1  0  0  0  0
 14 15  1  0  0  0  0
 15  3  1  0  0  0  0
 16 12  1  0  0  0  0
 16 11  1  0  0  0  0
 17  5  1  0  0  0  0
 18  4  1  0  0  0  0
 19 25  1  0  0  0  0
 21 14  1  0  0  0  0
 21 15  1  0  0  0  0
 22 21  1  0  0  0  0
 22 17  1  0  0  0  0
 23 19  1  0  0  0  0
 23 11  1  0  0  0  0
 24 30  1  0  0  0  0
 25 24  2  0  0  0  0
 26 29  2  0  0  0  0
 26 25  1  0  0  0  0
 27 29  1  0  0  0  0
 28 30  2  0  0  0  0
 29 28  1  0  0  0  0
 31 22  1  0  0  0  0
 32 31  1  0  0  0  0
 34 33  2  0  0  0  0
 34 32  1  0  0  0  0
 35 32  1  0  0  0  0
 36 35  1  0  0  0  0
 37 36  1  0  0  0  0
M  END
>  <MODEL>
7

>  <REMARK>
 VINA RESULT:      -6.8      2.666      5.772
  Name = 
  5 active torsions:
  status: ('A' for Active; 'I' for Inactive)
    1  A    between atoms: C_1  and  N_4
    2  A    between atoms: C_1  and  C_27
    3  A    between atoms: N_4  and  N_12
    4  A    between atoms: C_8  and  N_12
    5  A    between atoms: C_23  and  C_30
                            x       y       z     vdW  Elec       q    Type
                         _______ _______ _______ _____ _____    ______ ____

>  <TORSDO>
F 5

$$$$
=
 OpenBabel11112417263D

 37 43  0  0  1  0  0  0  0  0999 V2000
  191.7050  176.1260  147.5260 C   0  0  1  0  0  0  0  0  0  0  0  0
  192.1010  175.5560  143.7330 C   0  0  1  0  0  3  0  0  0  0  0  0
  189.6220  176.2710  141.6380 O   0  0  0  0  0  0  0  0  0  0  0  0
  193.3470  176.2360  145.9210 C   0  0  2  0  0  3  0  0  0  0  0  0
  190.5740  175.5010  143.6950 C   0  0  2  0  0  3  0  0  0  0  0  0
  192.3740  176.6300  144.7930 C   0  0  2  0  0  3  0  0  0  0  0  0
  189.9650  175.1100  142.3450 C   0  0  2  0  0  3  0  0  0  0  0  0
  194.5430  175.5250  145.3100 C   0  0  0  0  0  2  0  0  0  0  0  0
  191.0010  177.0970  145.2790 C   0  0  2  0  0  3  0  0  0  0  0  0
  192.1490  177.3460  148.0190 F   0  0  0  0  0  0  0  0  0  0  0  0
  192.6910  173.2480  142.8520 C   0  0  0  0  0  2  0  0  0  0  0  0
  194.1510  174.2410  144.5670 C   0  0  0  0  0  2  0  0  0  0  0  0
  190.5580  176.3270  146.5450 C   0  0  0  0  0  2  0  0  0  0  0  0
  187.3410  175.7210  142.6540 C   0  0  0  0  0  2  0  0  0  0  0  0
  188.2310  176.5600  141.7370 C   0  0  1  0  0  3  0  0  0  0  0  0
  192.6970  174.1740  144.0690 C   0  0  1  0  0  3  0  0  0  0  0  0
  190.1160  176.8220  144.1340 N   0  0  2  0  0  0  0  0  0  0  0  0
  192.7460  175.4130  146.8960 O   0  0  0  0  0  0  0  0  0  0  0  0
  190.8090  174.1570  141.4910 C   0  0  1  0  0  3  0  0  0  0  0  0
  191.1920  175.3040  148.6890 C   0  0  0  0  0  1  0  0  0  0  0  0
  187.8200  177.0810  143.1330 C   0  0  2  0  0  3  0  0  0  0  0  0
  188.6630  176.8220  144.4040 C   0  0  2  0  0  3  0  0  0  0  0  0
  191.2990  172.9660  142.3080 C   0  0  0  0  0  2  0  0  0  0  0  0
  188.7710  173.1200  140.4820 C   0  0  0  0  0  3  0  0  0  0  0  0
  190.0380  173.6850  140.2960 C   0  0  0  0  0  0  0  0  0  0  0  0
  190.5670  173.7910  139.0010 C   0  0  0  0  0  3  0  0  0  0  0  0
  190.3960  173.4460  136.5330 C   0  0  0  0  0  1  0  0  0  0  0  0
  188.5660  172.7720  138.0940 C   0  0  0  0  0  3  0  0  0  0  0  0
  189.8310  173.3350  137.9030 C   0  0  0  0  0  0  0  0  0  0  0  0
  188.0360  172.6650  139.3830 C   0  0  0  0  0  3  0  0  0  0  0  0
  188.2660  177.9060  145.4100 C   0  0  0  0  0  2  0  0  0  0  0  0
  186.8360  177.8450  145.6880 N   0  0  0  0  0  0  0  0  0  0  0  0
  187.0650  176.0510  147.1800 O   0  0  0  0  0  0  0  0  0  0  0  0
  186.3160  176.9060  146.6360 C   0  0  0  0  0  3  0  0  0  0  0  0
  185.9900  178.8230  145.1430 N   0  0  0  0  0  2  0  0  0  0  0  0
  184.6670  178.2360  144.9900 C   0  0  0  0  0  2  0  0  0  0  0  0
  184.4420  177.9250  143.6500 O   0  0  0  0  0  1  0  0  0  0  0  0
  1 10  1  0  0  0  0
  1 20  1  1  0  0  0
  2 16  1  0  0  0  0
  2  6  1  0  0  0  0
  3 15  1  0  0  0  0
  3  7  1  0  0  0  0
  4 18  1  0  0  0  0
  5  2  1  0  0  0  0
  5 17  1  0  0  0  0
  6  9  1  0  0  0  0
  6  4  1  0  0  0  0
  7  5  1  0  0  0  0
  8  4  1  0  0  0  0
  9 13  1  0  0  0  0
 11 16  1  0  0  0  0
 12  8  1  0  0  0  0
 13  1  1  0  0  0  0
 14 21  1  0  0  0  0
 15 14  1  0  0  0  0
 15 21  1  0  0  0  0
 16 12  1  0  0  0  0
 17 22  1  0  0  0  0
 17  9  1  0  0  0  0
 18  1  1  0  0  0  0
 19 23  1  0  0  0  0
 19  7  1  0  0  0  0
 21 22  1  0  0  0  0
 22 31  1  0  0  0  0
 23 11  1  0  0  0  0
 25 24  1  0  0  0  0
 25 19  1  0  0  0  0
 26 25  2  0  0  0  0
 27 29  1  0  0  0  0
 28 30  1  0  0  0  0
 29 28  2  0  0  0  0
 29 26  1  0  0  0  0
 30 24  2  0  0  0  0
 31 32  1  0  0  0  0
 32 34  1  0  0  0  0
 34 33  2  0  0  0  0
 35 32  1  0  0  0  0
 36 35  1  0  0  0  0
 37 36  1  0  0  0  0
M  END
>  <MODEL>
8

>  <REMARK>
 VINA RESULT:      -6.7      2.758      5.930
  Name = 
  5 active torsions:
  status: ('A' for Active; 'I' for Inactive)
    1  A    between atoms: C_1  and  N_4
    2  A    between atoms: C_1  and  C_27
    3  A    between atoms: N_4  and  N_12
    4  A    between atoms: C_8  and  N_12
    5  A    between atoms: C_23  and  C_30
                            x       y       z     vdW  Elec       q    Type
                         _______ _______ _______ _____ _____    ______ ____

>  <TORSDO>
F 5

$$$$
=
 OpenBabel11112417263D

 37 43  0  0  1  0  0  0  0  0999 V2000
  190.1360  177.1360  145.8110 C   0  0  1  0  0  0  0  0  0  0  0  0
  192.0130  174.5670  143.6330 C   0  0  1  0  0  3  0  0  0  0  0  0
  190.7740  173.5900  140.7080 O   0  0  0  0  0  0  0  0  0  0  0  0
  192.3010  176.5460  145.3070 C   0  0  2  0  0  3  0  0  0  0  0  0
  190.6540  174.2800  142.9970 C   0  0  2  0  0  3  0  0  0  0  0  0
  191.9590  176.0790  143.8790 C   0  0  2  0  0  3  0  0  0  0  0  0
  190.6220  173.1050  142.0150 C   0  0  2  0  0  3  0  0  0  0  0  0
  193.5320  175.7950  145.7860 C   0  0  0  0  0  2  0  0  0  0  0  0
  190.5880  176.5360  143.3780 C   0  0  2  0  0  3  0  0  0  0  0  0
  190.4950  178.4680  145.6460 F   0  0  0  0  0  0  0  0  0  0  0  0
  192.5950  172.2840  144.5820 C   0  0  0  0  0  2  0  0  0  0  0  0
  193.3170  174.2770  145.8330 C   0  0  0  0  0  2  0  0  0  0  0  0
  189.5500  176.5730  144.5240 C   0  0  0  0  0  2  0  0  0  0  0  0
  188.2250  173.3960  140.7810 C   0  0  0  0  0  2  0  0  0  0  0  0
  189.5250  173.6790  140.0290 C   0  0  1  0  0  3  0  0  0  0  0  0
  192.2150  173.7280  144.9110 C   0  0  1  0  0  3  0  0  0  0  0  0
  190.2400  175.5320  142.3580 N   0  0  2  0  0  0  0  0  0  0  0  0
  191.2370  176.3500  146.2130 O   0  0  0  0  0  0  0  0  0  0  0  0
  191.6080  171.9690  142.3130 C   0  0  1  0  0  3  0  0  0  0  0  0
  189.0730  177.0620  146.8860 C   0  0  0  0  0  1  0  0  0  0  0  0
  188.6400  174.8380  140.5400 C   0  0  2  0  0  3  0  0  0  0  0  0
  188.8230  175.4760  141.9380 C   0  0  2  0  0  3  0  0  0  0  0  0
  191.5380  171.5440  143.7760 C   0  0  0  0  0  2  0  0  0  0  0  0
  190.8200  169.6230  141.9650 C   0  0  0  0  0  3  0  0  0  0  0  0
  191.3560  170.7940  141.4180 C   0  0  0  0  0  0  0  0  0  0  0  0
  191.6580  170.8450  140.0490 C   0  0  0  0  0  3  0  0  0  0  0  0
  191.7450  169.7890  137.7870 C   0  0  0  0  0  1  0  0  0  0  0  0
  190.8860  168.5650  139.7880 C   0  0  0  0  0  3  0  0  0  0  0  0
  191.4220  169.7320  139.2360 C   0  0  0  0  0  0  0  0  0  0  0  0
  190.5840  168.5100  141.1520 C   0  0  0  0  0  3  0  0  0  0  0  0
  188.1930  176.8690  141.8590 C   0  0  0  0  0  2  0  0  0  0  0  0
  186.7480  176.7860  142.0380 N   0  0  0  0  0  0  0  0  0  0  0  0
  186.2990  177.9120  140.0320 O   0  0  0  0  0  0  0  0  0  0  0  0
  185.8580  177.2970  141.0400 C   0  0  0  0  0  3  0  0  0  0  0  0
  186.2330  176.0540  143.1190 N   0  0  0  0  0  2  0  0  0  0  0  0
  185.5560  176.9870  144.0080 C   0  0  0  0  0  2  0  0  0  0  0  0
  185.9780  176.7760  145.3200 O   0  0  0  0  0  1  0  0  0  0  0  0
  1 18  1  0  0  0  0
  1 20  1  1  0  0  0
  2  6  1  0  0  0  0
  2 16  1  0  0  0  0
  3  7  1  0  0  0  0
  4  8  1  0  0  0  0
  4 18  1  0  0  0  0
  5  2  1  0  0  0  0
  6  4  1  0  0  0  0
  7 19  1  0  0  0  0
  7  5  1  0  0  0  0
  8 12  1  0  0  0  0
  9  6  1  0  0  0  0
  9 13  1  0  0  0  0
 10  1  1  0  0  0  0
 11 16  1  0  0  0  0
 13  1  1  0  0  0  0
 15 21  1  0  0  0  0
 15  3  1  0  0  0  0
 15 14  1  0  0  0  0
 16 12  1  0  0  0  0
 17  5  1  0  0  0  0
 17  9  1  0  0  0  0
 19 23  1  0  0  0  0
 21 14  1  0  0  0  0
 21 22  1  0  0  0  0
 22 17  1  0  0  0  0
 23 11  1  0  0  0  0
 25 24  1  0  0  0  0
 25 19  1  0  0  0  0
 26 25  2  0  0  0  0
 27 29  1  0  0  0  0
 28 30  1  0  0  0  0
 29 28  2  0  0  0  0
 29 26  1  0  0  0  0
 30 24  2  0  0  0  0
 31 22  1  0  0  0  0
 31 32  1  0  0  0  0
 32 35  1  0  0  0  0
 33 34  2  0  0  0  0
 34 32  1  0  0  0  0
 35 36  1  0  0  0  0
 36 37  1  0  0  0  0
M  END
>  <MODEL>
9

>  <REMARK>
 VINA RESULT:      -6.5      2.687      7.070
  Name = 
  5 active torsions:
  status: ('A' for Active; 'I' for Inactive)
    1  A    between atoms: C_1  and  N_4
    2  A    between atoms: C_1  and  C_27
    3  A    between atoms: N_4  and  N_12
    4  A    between atoms: C_8  and  N_12
    5  A    between atoms: C_23  and  C_30
                            x       y       z     vdW  Elec       q    Type
                         _______ _______ _______ _____ _____    ______ ____

>  <TORSDO>
F 5

$$$$
