=
 OpenBabel11112417443D

 34 42  0  0  1  0  0  0  0  0999 V2000
  189.1120  175.1480  142.7910 C   0  0  0  0  0  0  0  0  0  0  0  0
  191.0090  173.4440  142.7420 C   0  0  0  0  0  2  0  0  0  0  0  0
  184.7210  178.6030  146.2850 C   0  0  1  0  0  0  0  0  0  0  0  0
  187.2020  176.6120  143.0800 C   0  0  0  0  0  0  0  0  0  0  0  0
  186.9640  177.8260  145.3050 C   0  0  0  0  0  0  0  0  0  0  0  0
  186.0230  178.2390  147.6950 C   0  0  1  0  0  3  0  0  0  0  0  0
  184.6470  178.4650  147.7040 O   0  0  0  0  0  0  0  0  0  0  0  0
  184.4530  179.2140  143.9980 C   0  0  0  0  0  2  0  0  0  0  0  0
  190.8430  174.9780  144.6080 C   0  0  1  0  0  3  0  0  0  0  0  0
  192.7060  175.0270  146.9500 C   0  0  0  0  0  3  0  0  0  0  0  0
  188.3400  177.3430  145.6630 C   0  0  0  0  0  2  0  0  0  0  0  0
  185.3120  178.1130  143.4160 C   0  0  0  0  0  3  0  0  0  0  0  0
  189.7370  175.1250  145.6430 C   0  0  2  0  0  3  0  0  0  0  0  0
  192.1280  173.1320  143.7210 C   0  0  0  0  0  2  0  0  0  0  0  0
  186.4400  177.5680  143.9250 C   0  0  0  0  0  0  0  0  0  0  0  0
  183.9210  178.9520  145.3360 N   0  0  0  0  0  2  0  0  0  0  0  0
  192.8910  174.3080  145.8320 C   0  0  0  0  0  0  0  0  0  0  0  0
  188.2790  175.8920  143.6350 C   0  0  0  0  0  0  0  0  0  0  0  0
  186.1350  178.1870  146.2720 C   0  0  0  0  0  0  0  0  0  0  0  0
  188.5040  175.9180  145.1330 C   0  0  2  0  0  3  0  0  0  0  0  0
  187.6850  175.7080  140.9290 C   0  0  0  0  0  3  0  0  0  0  0  0
  191.4400  175.5340  147.5300 C   0  0  0  0  0  3  0  0  0  0  0  0
  186.9290  176.4870  141.7490 N   0  0  0  0  0  0  0  0  0  0  0  0
  190.2080  175.5870  147.0010 C   0  0  0  0  0  3  0  0  0  0  0  0
  191.7310  173.8290  145.0190 C   0  0  1  0  0  3  0  0  0  0  0  0
  188.8000  175.0350  141.4320 C   0  0  0  0  0  3  0  0  0  0  0  0
  190.3010  174.5650  143.3280 N   0  0  0  0  0  0  0  0  0  0  0  0
  194.1880  173.9480  145.4310 O   0  0  0  0  0  0  0  0  0  0  0  0
  195.2460  174.8830  145.2390 C   0  0  0  0  0  2  0  0  0  0  0  0
  197.0160  176.4580  142.9900 O   0  0  0  0  0  0  0  0  0  0  0  0
  195.2590  174.9000  142.7650 C   0  0  0  0  0  2  0  0  0  0  0  0
  195.0000  175.7210  143.9940 C   0  0  2  0  0  3  0  0  0  0  0  0
  196.3570  175.6510  142.0520 C   0  0  0  0  0  2  0  0  0  0  0  0
  196.0280  176.8260  143.9160 C   0  0  0  0  0  2  0  0  0  0  0  0
  1 27  1  0  0  0  0
  1 18  1  0  0  0  0
  2 27  1  0  0  0  0
  2 14  1  0  0  0  0
  3 16  1  6  0  0  0
  3  6  1  0  0  0  0
  3  7  1  0  0  0  0
  4 18  2  0  0  0  0
  4 15  1  0  0  0  0
  5 11  1  0  0  0  0
  5 19  2  0  0  0  0
  6 19  1  6  0  0  0
  6  7  1  0  0  0  0
  8 16  1  0  0  0  0
  9 27  1  6  0  0  0
  9 25  1  0  0  0  0
  9 13  1  0  0  0  0
 10 22  1  0  0  0  0
 12 15  2  0  0  0  0
 12  8  1  0  0  0  0
 13 24  1  1  0  0  0
 15  5  1  0  0  0  0
 17 10  2  0  0  0  0
 18 20  1  0  0  0  0
 19  3  1  0  0  0  0
 20 13  1  0  0  0  0
 20 11  1  6  0  0  0
 21 26  1  0  0  0  0
 21 23  2  0  0  0  0
 23  4  1  0  0  0  0
 24 22  2  0  0  0  0
 25 14  1  6  0  0  0
 25 17  1  0  0  0  0
 26  1  2  0  0  0  0
 28 17  1  0  0  0  0
 29 28  1  0  0  0  0
 30 34  1  0  0  0  0
 31 32  1  0  0  0  0
 32 29  1  1  0  0  0
 33 31  1  0  0  0  0
 33 30  1  0  0  0  0
 34 32  1  0  0  0  0
M  END
>  <MODEL>
1

>  <REMARK>
 VINA RESULT:      -9.4      0.000      0.000
  Name = 
  3 active torsions:
  status: ('A' for Active; 'I' for Inactive)
    1  A    between atoms: C_17  and  O_28
    2  A    between atoms: O_28  and  C_29
    3  A    between atoms: C_29  and  C_32
                            x       y       z     vdW  Elec       q    Type
                         _______ _______ _______ _____ _____    ______ ____

>  <TORSDO>
F 3

$$$$
=
 OpenBabel11112417443D

 34 42  0  0  1  0  0  0  0  0999 V2000
  189.0970  175.2020  142.8360 C   0  0  0  0  0  0  0  0  0  0  0  0
  191.0150  173.5230  142.8330 C   0  0  0  0  0  2  0  0  0  0  0  0
  184.5690  178.5880  146.2220 C   0  0  1  0  0  0  0  0  0  0  0  0
  187.1620  176.6420  143.0790 C   0  0  0  0  0  0  0  0  0  0  0  0
  186.8480  177.8430  145.3010 C   0  0  0  0  0  0  0  0  0  0  0  0
  185.8360  178.2340  147.6660 C   0  0  1  0  0  3  0  0  0  0  0  0
  184.4570  178.4430  147.6370 O   0  0  0  0  0  0  0  0  0  0  0  0
  184.3560  179.2050  143.9310 C   0  0  0  0  0  2  0  0  0  0  0  0
  190.7800  175.0460  144.7000 C   0  0  1  0  0  3  0  0  0  0  0  0
  192.5760  175.1080  147.0930 C   0  0  0  0  0  3  0  0  0  0  0  0
  188.2190  177.3750  145.6950 C   0  0  0  0  0  2  0  0  0  0  0  0
  185.2450  178.1180  143.3680 C   0  0  0  0  0  3  0  0  0  0  0  0
  189.6430  175.1750  145.7040 C   0  0  2  0  0  3  0  0  0  0  0  0
  192.1110  173.2200  143.8410 C   0  0  0  0  0  2  0  0  0  0  0  0
  186.3650  177.5850  143.9060 C   0  0  0  0  0  0  0  0  0  0  0  0
  183.7910  178.9310  145.2530 N   0  0  0  0  0  2  0  0  0  0  0  0
  192.8010  174.3970  145.9770 C   0  0  0  0  0  0  0  0  0  0  0  0
  188.2320  175.9330  143.6600 C   0  0  0  0  0  0  0  0  0  0  0  0
  185.9870  178.1900  146.2460 C   0  0  0  0  0  0  0  0  0  0  0  0
  188.4150  175.9550  145.1640 C   0  0  2  0  0  3  0  0  0  0  0  0
  187.7150  175.7530  140.9390 C   0  0  0  0  0  3  0  0  0  0  0  0
  191.2880  175.5960  147.6400 C   0  0  0  0  0  3  0  0  0  0  0  0
  186.9270  176.5200  141.7400 N   0  0  0  0  0  0  0  0  0  0  0  0
  190.0710  175.6370  147.0760 C   0  0  0  0  0  3  0  0  0  0  0  0
  191.6700  173.9070  145.1310 C   0  0  1  0  0  3  0  0  0  0  0  0
  188.8240  175.0920  141.4690 C   0  0  0  0  0  3  0  0  0  0  0  0
  190.2780  174.6320  143.4040 N   0  0  0  0  0  0  0  0  0  0  0  0
  194.1130  174.0540  145.6110 O   0  0  0  0  0  0  0  0  0  0  0  0
  195.2010  174.9730  145.6120 C   0  0  0  0  0  2  0  0  0  0  0  0
  196.8310  172.1900  146.1280 O   0  0  0  0  0  0  0  0  0  0  0  0
  196.1250  173.2230  144.1280 C   0  0  0  0  0  2  0  0  0  0  0  0
  196.4700  174.3000  145.1130 C   0  0  2  0  0  3  0  0  0  0  0  0
  196.6880  171.9690  144.7510 C   0  0  0  0  0  2  0  0  0  0  0  0
  197.1300  173.5550  146.2510 C   0  0  0  0  0  2  0  0  0  0  0  0
  1 27  1  0  0  0  0
  1 18  1  0  0  0  0
  2 27  1  0  0  0  0
  2 14  1  0  0  0  0
  3 16  1  6  0  0  0
  3 19  1  0  0  0  0
  3  7  1  0  0  0  0
  3  6  1  0  0  0  0
  4 18  2  0  0  0  0
  4 15  1  0  0  0  0
  5 11  1  0  0  0  0
  5 19  2  0  0  0  0
  6 19  1  6  0  0  0
  7  6  1  0  0  0  0
  8 16  1  0  0  0  0
  9 27  1  6  0  0  0
  9 25  1  0  0  0  0
  9 13  1  0  0  0  0
 10 22  1  0  0  0  0
 12 15  2  0  0  0  0
 12  8  1  0  0  0  0
 13 24  1  1  0  0  0
 15  5  1  0  0  0  0
 17 10  2  0  0  0  0
 18 20  1  0  0  0  0
 20 11  1  6  0  0  0
 20 13  1  0  0  0  0
 21 26  1  0  0  0  0
 21 23  2  0  0  0  0
 23  4  1  0  0  0  0
 24 22  2  0  0  0  0
 25 14  1  6  0  0  0
 25 17  1  0  0  0  0
 26  1  2  0  0  0  0
 28 29  1  0  0  0  0
 28 17  1  0  0  0  0
 30 34  1  0  0  0  0
 31 33  1  0  0  0  0
 31 32  1  0  0  0  0
 32 29  1  1  0  0  0
 32 34  1  0  0  0  0
 33 30  1  0  0  0  0
M  END
>  <MODEL>
2

>  <REMARK>
 VINA RESULT:      -9.4      1.184      1.514
  Name = 
  3 active torsions:
  status: ('A' for Active; 'I' for Inactive)
    1  A    between atoms: C_17  and  O_28
    2  A    between atoms: O_28  and  C_29
    3  A    between atoms: C_29  and  C_32
                            x       y       z     vdW  Elec       q    Type
                         _______ _______ _______ _____ _____    ______ ____

>  <TORSDO>
F 3

$$$$
=
 OpenBabel11112417443D

 34 42  0  0  1  0  0  0  0  0999 V2000
  188.4320  177.2950  146.2320 C   0  0  0  0  0  0  0  0  0  0  0  0
  190.6660  176.9520  147.4150 C   0  0  0  0  0  2  0  0  0  0  0  0
  185.0920  178.1170  140.6120 C   0  0  1  0  0  0  0  0  0  0  0  0
  186.4680  177.7820  144.8990 C   0  0  0  0  0  0  0  0  0  0  0  0
  186.4510  176.9930  142.4790 C   0  0  0  0  0  0  0  0  0  0  0  0
  186.6870  177.2410  139.9010 C   0  0  1  0  0  3  0  0  0  0  0  0
  185.7710  178.1420  139.3560 O   0  0  0  0  0  0  0  0  0  0  0  0
  183.5080  178.1230  142.3900 C   0  0  0  0  0  2  0  0  0  0  0  0
  190.3040  175.9320  145.2490 C   0  0  1  0  0  3  0  0  0  0  0  0
  192.3230  174.2850  143.7770 C   0  0  0  0  0  3  0  0  0  0  0  0
  187.7080  176.2260  142.7690 C   0  0  0  0  0  2  0  0  0  0  0  0
  184.5080  178.2260  143.5210 C   0  0  0  0  0  3  0  0  0  0  0  0
  190.0430  176.5920  143.9010 C   0  0  2  0  0  3  0  0  0  0  0  0
  191.9340  176.2180  147.0110 C   0  0  0  0  0  2  0  0  0  0  0  0
  185.7390  177.6750  143.6090 C   0  0  0  0  0  0  0  0  0  0  0  0
  183.9880  178.5820  141.0870 N   0  0  0  0  0  2  0  0  0  0  0  0
  192.4450  174.7010  145.0470 C   0  0  0  0  0  0  0  0  0  0  0  0
  187.8150  177.3790  144.9780 C   0  0  0  0  0  0  0  0  0  0  0  0
  186.1610  177.3100  141.2270 C   0  0  0  0  0  0  0  0  0  0  0  0
  188.5780  177.0630  143.7080 C   0  0  2  0  0  3  0  0  0  0  0  0
  186.4320  178.1790  147.2490 C   0  0  0  0  0  3  0  0  0  0  0  0
  191.5200  174.8730  142.6790 C   0  0  0  0  0  3  0  0  0  0  0  0
  185.8220  178.1830  146.0320 N   0  0  0  0  0  0  0  0  0  0  0  0
  190.5710  175.8210  142.7150 C   0  0  0  0  0  3  0  0  0  0  0  0
  191.7890  175.9610  145.5140 C   0  0  1  0  0  3  0  0  0  0  0  0
  187.7450  177.7200  147.3730 C   0  0  0  0  0  3  0  0  0  0  0  0
  189.7370  176.7200  146.3260 N   0  0  0  0  0  0  0  0  0  0  0  0
  193.2390  173.9800  145.9530 O   0  0  0  0  0  0  0  0  0  0  0  0
  194.4720  173.3570  145.6030 C   0  0  0  0  0  2  0  0  0  0  0  0
  197.6960  173.4060  145.0820 O   0  0  0  0  0  0  0  0  0  0  0  0
  196.0140  174.9620  144.5240 C   0  0  0  0  0  2  0  0  0  0  0  0
  195.6350  174.3110  145.8220 C   0  0  2  0  0  3  0  0  0  0  0  0
  197.4550  174.5590  144.3230 C   0  0  0  0  0  2  0  0  0  0  0  0
  196.8690  173.5270  146.2090 C   0  0  0  0  0  2  0  0  0  0  0  0
  1 27  1  0  0  0  0
  1 26  1  0  0  0  0
  3  7  1  1  0  0  0
  3 16  1  0  0  0  0
  3 19  1  0  0  0  0
  4 18  1  0  0  0  0
  4 23  2  0  0  0  0
  5 11  1  0  0  0  0
  5 15  1  0  0  0  0
  6  7  1  1  0  0  0
  6  3  1  0  0  0  0
  6 19  1  0  0  0  0
  8 12  1  0  0  0  0
  9 25  1  0  0  0  0
  9 27  1  1  0  0  0
 10 17  2  0  0  0  0
 12 15  2  0  0  0  0
 13 24  1  6  0  0  0
 13  9  1  0  0  0  0
 14  2  1  0  0  0  0
 15  4  1  0  0  0  0
 16  8  1  0  0  0  0
 17 25  1  0  0  0  0
 17 28  1  0  0  0  0
 18  1  2  0  0  0  0
 19  5  2  0  0  0  0
 20 11  1  1  0  0  0
 20 13  1  0  0  0  0
 20 18  1  0  0  0  0
 21 26  2  0  0  0  0
 22 24  2  0  0  0  0
 22 10  1  0  0  0  0
 23 21  1  0  0  0  0
 25 14  1  1  0  0  0
 27  2  1  0  0  0  0
 29 28  1  0  0  0  0
 30 34  1  0  0  0  0
 31 32  1  0  0  0  0
 32 29  1  6  0  0  0
 32 34  1  0  0  0  0
 33 31  1  0  0  0  0
 33 30  1  0  0  0  0
M  END
>  <MODEL>
3

>  <REMARK>
 VINA RESULT:      -8.6      2.315      4.077
  Name = 
  3 active torsions:
  status: ('A' for Active; 'I' for Inactive)
    1  A    between atoms: C_17  and  O_28
    2  A    between atoms: O_28  and  C_29
    3  A    between atoms: C_29  and  C_32
                            x       y       z     vdW  Elec       q    Type
                         _______ _______ _______ _____ _____    ______ ____

>  <TORSDO>
F 3

$$$$
=
 OpenBabel11112417443D

 34 42  0  0  1  0  0  0  0  0999 V2000
  189.9190  172.9670  142.8430 C   0  0  0  0  0  0  0  0  0  0  0  0
  187.8900  174.2290  141.9540 C   0  0  0  0  0  2  0  0  0  0  0  0
  195.9580  173.1330  145.4750 C   0  0  1  0  0  0  0  0  0  0  0  0
  192.0160  172.0040  143.5860 C   0  0  0  0  0  0  0  0  0  0  0  0
  193.4080  173.3330  145.2520 C   0  0  0  0  0  0  0  0  0  0  0  0
  195.3360  174.9040  146.0140 C   0  0  1  0  0  3  0  0  0  0  0  0
  196.6000  174.3780  145.7510 O   0  0  0  0  0  0  0  0  0  0  0  0
  195.3430  170.8430  145.2460 C   0  0  0  0  0  2  0  0  0  0  0  0
  189.1280  175.1440  143.8230 C   0  0  1  0  0  3  0  0  0  0  0  0
  188.4860  177.7240  145.1990 C   0  0  0  0  0  3  0  0  0  0  0  0
  192.2490  174.2770  145.3960 C   0  0  0  0  0  2  0  0  0  0  0  0
  194.1210  171.0710  144.3820 C   0  0  0  0  0  3  0  0  0  0  0  0
  190.5740  175.6140  143.8870 C   0  0  2  0  0  3  0  0  0  0  0  0
  187.2560  175.5530  142.3490 C   0  0  0  0  0  2  0  0  0  0  0  0
  193.2340  172.0900  144.4320 C   0  0  0  0  0  0  0  0  0  0  0  0
  196.3300  171.9230  145.2310 N   0  0  0  0  0  2  0  0  0  0  0  0
  187.7070  177.1210  144.2870 C   0  0  0  0  0  0  0  0  0  0  0  0
  191.1590  173.1170  143.4760 C   0  0  0  0  0  0  0  0  0  0  0  0
  194.6220  173.7450  145.5810 C   0  0  0  0  0  0  0  0  0  0  0  0
  191.6020  174.4590  144.0230 C   0  0  2  0  0  3  0  0  0  0  0  0
  190.4980  170.6900  142.3020 C   0  0  0  0  0  3  0  0  0  0  0  0
  189.9510  177.6060  145.3930 C   0  0  0  0  0  3  0  0  0  0  0  0
  191.6670  170.8290  142.9850 N   0  0  0  0  0  0  0  0  0  0  0  0
  190.8250  176.7370  144.8640 C   0  0  0  0  0  3  0  0  0  0  0  0
  188.2940  176.2500  143.2230 C   0  0  1  0  0  3  0  0  0  0  0  0
  189.5950  171.7520  142.2320 C   0  0  0  0  0  3  0  0  0  0  0  0
  188.9830  174.0450  142.8880 N   0  0  0  0  0  0  0  0  0  0  0  0
  186.3200  177.3420  144.2870 O   0  0  0  0  0  0  0  0  0  0  0  0
  185.7150  178.5820  144.6420 C   0  0  0  0  0  2  0  0  0  0  0  0
  185.9110  176.8440  147.4000 O   0  0  0  0  0  0  0  0  0  0  0  0
  185.6750  179.1640  147.0460 C   0  0  0  0  0  2  0  0  0  0  0  0
  184.9470  178.4480  145.9470 C   0  0  2  0  0  3  0  0  0  0  0  0
  185.9590  178.0810  148.0580 C   0  0  0  0  0  2  0  0  0  0  0  0
  184.9490  177.0030  146.3900 C   0  0  0  0  0  2  0  0  0  0  0  0
  1 27  1  0  0  0  0
  1 18  1  0  0  0  0
  2 14  1  0  0  0  0
  2 27  1  0  0  0  0
  3 16  1  1  0  0  0
  3 19  1  0  0  0  0
  3  7  1  0  0  0  0
  3  6  1  0  0  0  0
  4 15  1  0  0  0  0
  5 11  1  0  0  0  0
  5 19  2  0  0  0  0
  6 19  1  6  0  0  0
  7  6  1  0  0  0  0
  9 27  1  6  0  0  0
  9 13  1  0  0  0  0
 10 22  1  0  0  0  0
 12 15  2  0  0  0  0
 12  8  1  0  0  0  0
 13 20  1  0  0  0  0
 13 24  1  1  0  0  0
 15  5  1  0  0  0  0
 16  8  1  0  0  0  0
 17 28  1  0  0  0  0
 17 10  2  0  0  0  0
 18  4  2  0  0  0  0
 18 20  1  0  0  0  0
 20 11  1  1  0  0  0
 21 23  2  0  0  0  0
 23  4  1  0  0  0  0
 24 22  2  0  0  0  0
 25 14  1  1  0  0  0
 25  9  1  0  0  0  0
 25 17  1  0  0  0  0
 26 21  1  0  0  0  0
 26  1  2  0  0  0  0
 28 29  1  0  0  0  0
 30 33  1  0  0  0  0
 31 33  1  0  0  0  0
 32 29  1  6  0  0  0
 32 34  1  0  0  0  0
 32 31  1  0  0  0  0
 34 30  1  0  0  0  0
M  END
>  <MODEL>
4

>  <REMARK>
 VINA RESULT:      -8.4      2.280      8.363
  Name = 
  3 active torsions:
  status: ('A' for Active; 'I' for Inactive)
    1  A    between atoms: C_17  and  O_28
    2  A    between atoms: O_28  and  C_29
    3  A    between atoms: C_29  and  C_32
                            x       y       z     vdW  Elec       q    Type
                         _______ _______ _______ _____ _____    ______ ____

>  <TORSDO>
F 3

$$$$
=
 OpenBabel11112417443D

 34 42  0  0  1  0  0  0  0  0999 V2000
  187.7780  176.1250  141.6980 C   0  0  0  0  0  0  0  0  0  0  0  0
  185.9660  177.2890  140.3320 C   0  0  0  0  0  2  0  0  0  0  0  0
  191.7100  176.0930  146.9860 C   0  0  1  0  0  0  0  0  0  0  0  0
  189.5930  175.3010  143.0770 C   0  0  0  0  0  0  0  0  0  0  0  0
  189.5920  175.9350  145.5420 C   0  0  0  0  0  0  0  0  0  0  0  0
  190.3110  177.2850  147.6460 C   0  0  1  0  0  3  0  0  0  0  0  0
  191.6710  177.1620  147.9310 O   0  0  0  0  0  0  0  0  0  0  0  0
  192.1430  174.0950  145.7620 C   0  0  0  0  0  2  0  0  0  0  0  0
  185.9090  177.4410  142.7480 C   0  0  1  0  0  3  0  0  0  0  0  0
  183.8560  178.9530  144.3170 C   0  0  0  0  0  3  0  0  0  0  0  0
  188.2120  176.4960  145.3500 C   0  0  0  0  0  2  0  0  0  0  0  0
  191.3830  174.4820  144.5130 C   0  0  0  0  0  3  0  0  0  0  0  0
  186.9180  178.0680  143.7010 C   0  0  2  0  0  3  0  0  0  0  0  0
  184.7820  178.1550  140.7310 C   0  0  0  0  0  2  0  0  0  0  0  0
  190.2400  175.1970  144.4100 C   0  0  0  0  0  0  0  0  0  0  0  0
  192.5710  175.2120  146.6050 N   0  0  0  0  0  2  0  0  0  0  0  0
  183.7960  178.7120  142.9980 C   0  0  0  0  0  0  0  0  0  0  0  0
  188.5050  176.1780  142.8930 C   0  0  0  0  0  0  0  0  0  0  0  0
  190.3220  176.3510  146.5660 C   0  0  0  0  0  0  0  0  0  0  0  0
  188.1540  177.1730  143.9810 C   0  0  2  0  0  3  0  0  0  0  0  0
  189.3300  174.4850  140.8540 C   0  0  0  0  0  3  0  0  0  0  0  0
  185.0470  179.0100  145.1980 C   0  0  0  0  0  3  0  0  0  0  0  0
  189.9820  174.4930  142.0490 N   0  0  0  0  0  0  0  0  0  0  0  0
  186.3150  178.6430  144.9600 C   0  0  0  0  0  3  0  0  0  0  0  0
  185.0390  178.5390  142.1860 C   0  0  1  0  0  3  0  0  0  0  0  0
  188.2060  175.2900  140.6620 C   0  0  0  0  0  3  0  0  0  0  0  0
  186.5740  176.8860  141.5850 N   0  0  0  0  0  0  0  0  0  0  0  0
  182.5540  178.6680  142.3440 O   0  0  0  0  0  0  0  0  0  0  0  0
  181.3220  179.0420  142.9570 C   0  0  0  0  0  2  0  0  0  0  0  0
  180.1550  177.8770  140.1380 O   0  0  0  0  0  0  0  0  0  0  0  0
  179.0460  178.6480  142.0720 C   0  0  0  0  0  2  0  0  0  0  0  0
  180.3030  179.4490  141.9040 C   0  0  2  0  0  3  0  0  0  0  0  0
  178.8970  177.9290  140.7530 C   0  0  0  0  0  2  0  0  0  0  0  0
  180.8060  179.0550  140.5340 C   0  0  0  0  0  2  0  0  0  0  0  0
  1 18  1  0  0  0  0
  2 14  1  0  0  0  0
  2 27  1  0  0  0  0
  3 19  1  6  0  0  0
  3  6  1  0  0  0  0
  3  7  1  0  0  0  0
  4 15  1  0  0  0  0
  5 19  2  0  0  0  0
  6 19  1  6  0  0  0
  6  7  1  0  0  0  0
  8 16  1  0  0  0  0
  9 27  1  6  0  0  0
  9 13  1  0  0  0  0
 10 22  1  0  0  0  0
 11  5  1  0  0  0  0
 12  8  1  0  0  0  0
 13 20  1  0  0  0  0
 13 24  1  1  0  0  0
 15 12  2  0  0  0  0
 15  5  1  0  0  0  0
 16  3  1  0  0  0  0
 17 10  2  0  0  0  0
 18  4  2  0  0  0  0
 18 20  1  0  0  0  0
 20 11  1  1  0  0  0
 21 23  2  0  0  0  0
 23  4  1  0  0  0  0
 24 22  2  0  0  0  0
 25 14  1  6  0  0  0
 25  9  1  0  0  0  0
 25 17  1  0  0  0  0
 26 21  1  0  0  0  0
 26  1  2  0  0  0  0
 27  1  1  0  0  0  0
 28 29  1  0  0  0  0
 28 17  1  0  0  0  0
 30 34  1  0  0  0  0
 30 33  1  0  0  0  0
 32 31  1  0  0  0  0
 32 29  1  1  0  0  0
 33 31  1  0  0  0  0
 34 32  1  0  0  0  0
M  END
>  <MODEL>
5

>  <REMARK>
 VINA RESULT:      -8.4      3.071      9.035
  Name = 
  3 active torsions:
  status: ('A' for Active; 'I' for Inactive)
    1  A    between atoms: C_17  and  O_28
    2  A    between atoms: O_28  and  C_29
    3  A    between atoms: C_29  and  C_32
                            x       y       z     vdW  Elec       q    Type
                         _______ _______ _______ _____ _____    ______ ____

>  <TORSDO>
F 3

$$$$
=
 OpenBabel11112417443D

 34 42  0  0  1  0  0  0  0  0999 V2000
  189.7540  175.0270  144.8840 C   0  0  0  0  0  0  0  0  0  0  0  0
  191.8000  174.0300  143.7320 C   0  0  0  0  0  2  0  0  0  0  0  0
  184.2960  178.6990  144.5030 C   0  0  1  0  0  0  0  0  0  0  0  0
  187.8390  176.2090  145.7820 C   0  0  0  0  0  0  0  0  0  0  0  0
  185.9160  176.7300  144.1980 C   0  0  0  0  0  0  0  0  0  0  0  0
  184.4760  178.2140  142.6190 C   0  0  1  0  0  3  0  0  0  0  0  0
  183.9120  179.3100  143.2710 O   0  0  0  0  0  0  0  0  0  0  0  0
  184.4630  177.9000  146.7400 C   0  0  0  0  0  2  0  0  0  0  0  0
  189.7300  174.2410  142.4940 C   0  0  1  0  0  3  0  0  0  0  0  0
  189.3610  173.4440  139.6320 C   0  0  0  0  0  3  0  0  0  0  0  0
  186.5840  175.8580  143.1740 C   0  0  0  0  0  2  0  0  0  0  0  0
  185.8800  177.3770  146.6390 C   0  0  0  0  0  3  0  0  0  0  0  0
  188.9540  175.4950  142.1150 C   0  0  2  0  0  3  0  0  0  0  0  0
  192.0340  173.5310  142.3160 C   0  0  0  0  0  2  0  0  0  0  0  0
  186.4880  176.7940  145.5820 C   0  0  0  0  0  0  0  0  0  0  0  0
  184.1010  178.9210  145.7570 N   0  0  0  0  0  2  0  0  0  0  0  0
  190.4420  173.1670  140.3770 C   0  0  0  0  0  0  0  0  0  0  0  0
  188.5760  175.7530  144.6710 C   0  0  0  0  0  0  0  0  0  0  0  0
  185.0420  177.6410  143.7990 C   0  0  0  0  0  0  0  0  0  0  0  0
  188.0950  176.0730  143.2710 C   0  0  2  0  0  3  0  0  0  0  0  0
  189.5210  175.3870  147.2560 C   0  0  0  0  0  3  0  0  0  0  0  0
  188.3760  174.5400  139.7950 C   0  0  0  0  0  3  0  0  0  0  0  0
  188.3390  176.0260  147.0380 N   0  0  0  0  0  0  0  0  0  0  0  0
  188.1920  175.3910  140.8160 C   0  0  0  0  0  3  0  0  0  0  0  0
  190.8550  174.0600  141.5040 C   0  0  1  0  0  3  0  0  0  0  0  0
  190.2430  174.8620  146.1830 C   0  0  0  0  0  3  0  0  0  0  0  0
  190.4030  174.4160  143.7660 N   0  0  0  0  0  0  0  0  0  0  0  0
  191.2410  172.0530  140.0750 O   0  0  0  0  0  0  0  0  0  0  0  0
  190.7690  170.7090  140.1020 C   0  0  0  0  0  2  0  0  0  0  0  0
  189.7180  171.0410  137.0270 O   0  0  0  0  0  0  0  0  0  0  0  0
  191.9000  170.8770  137.9080 C   0  0  0  0  0  2  0  0  0  0  0  0
  190.9900  170.0370  138.7550 C   0  0  2  0  0  3  0  0  0  0  0  0
  191.0690  171.1920  136.6880 C   0  0  0  0  0  2  0  0  0  0  0  0
  189.6920  170.0130  137.9820 C   0  0  0  0  0  2  0  0  0  0  0  0
  1 26  1  0  0  0  0
  2 27  1  0  0  0  0
  3  7  1  6  0  0  0
  3 16  1  0  0  0  0
  4 23  2  0  0  0  0
  5 15  1  0  0  0  0
  6  7  1  6  0  0  0
  6 19  1  0  0  0  0
  6  3  1  0  0  0  0
  9 27  1  1  0  0  0
 10 22  1  0  0  0  0
 10 17  2  0  0  0  0
 11  5  1  0  0  0  0
 12  8  1  0  0  0  0
 13 24  1  6  0  0  0
 13  9  1  0  0  0  0
 13 20  1  0  0  0  0
 14  2  1  0  0  0  0
 15  4  1  0  0  0  0
 15 12  2  0  0  0  0
 16  8  1  0  0  0  0
 17 25  1  0  0  0  0
 18  1  2  0  0  0  0
 18  4  1  0  0  0  0
 19  5  2  0  0  0  0
 19  3  1  0  0  0  0
 20 11  1  1  0  0  0
 20 18  1  0  0  0  0
 22 24  2  0  0  0  0
 23 21  1  0  0  0  0
 25 14  1  1  0  0  0
 25  9  1  0  0  0  0
 26 21  2  0  0  0  0
 27  1  1  0  0  0  0
 28 29  1  0  0  0  0
 28 17  1  0  0  0  0
 30 34  1  0  0  0  0
 31 32  1  0  0  0  0
 32 29  1  1  0  0  0
 33 30  1  0  0  0  0
 33 31  1  0  0  0  0
 34 32  1  0  0  0  0
M  END
>  <MODEL>
6

>  <REMARK>
 VINA RESULT:      -8.4      3.271      5.469
  Name = 
  3 active torsions:
  status: ('A' for Active; 'I' for Inactive)
    1  A    between atoms: C_17  and  O_28
    2  A    between atoms: O_28  and  C_29
    3  A    between atoms: C_29  and  C_32
                            x       y       z     vdW  Elec       q    Type
                         _______ _______ _______ _____ _____    ______ ____

>  <TORSDO>
F 3

$$$$
=
 OpenBabel11112417443D

 34 42  0  0  1  0  0  0  0  0999 V2000
  189.6730  174.8250  141.9510 C   0  0  0  0  0  0  0  0  0  0  0  0
  187.3400  175.6820  142.5200 C   0  0  0  0  0  2  0  0  0  0  0  0
  196.2080  175.4430  142.5320 C   0  0  1  0  0  0  0  0  0  0  0  0
  191.9810  174.3040  141.4260 C   0  0  0  0  0  0  0  0  0  0  0  0
  193.7600  174.9470  143.1290 C   0  0  0  0  0  0  0  0  0  0  0  0
  195.6600  176.4080  144.1400 C   0  0  1  0  0  3  0  0  0  0  0  0
  196.7750  176.4990  143.3060 O   0  0  0  0  0  0  0  0  0  0  0  0
  195.7900  173.5280  141.1770 C   0  0  0  0  0  2  0  0  0  0  0  0
  189.0970  175.8410  144.1790 C   0  0  1  0  0  3  0  0  0  0  0  0
  188.7690  177.0250  146.9080 C   0  0  0  0  0  3  0  0  0  0  0  0
  192.6540  175.2850  144.0870 C   0  0  0  0  0  2  0  0  0  0  0  0
  194.3150  173.7830  140.9570 C   0  0  0  0  0  3  0  0  0  0  0  0
  190.4020  176.6240  144.1320 C   0  0  2  0  0  3  0  0  0  0  0  0
  186.7720  176.3560  143.7590 C   0  0  0  0  0  2  0  0  0  0  0  0
  193.4140  174.3110  141.8160 C   0  0  0  0  0  0  0  0  0  0  0  0
  196.5800  174.7040  141.5430 N   0  0  0  0  0  2  0  0  0  0  0  0
  187.7670  176.7690  146.0530 C   0  0  0  0  0  0  0  0  0  0  0  0
  191.0380  174.9990  142.2090 C   0  0  0  0  0  0  0  0  0  0  0  0
  194.9590  175.4780  143.3120 C   0  0  0  0  0  0  0  0  0  0  0  0
  191.5160  175.9350  143.3000 C   0  0  2  0  0  3  0  0  0  0  0  0
  190.2320  173.4410  140.0570 C   0  0  0  0  0  3  0  0  0  0  0  0
  190.2010  177.2740  146.6150 C   0  0  0  0  0  3  0  0  0  0  0  0
  191.5520  173.5590  140.3660 N   0  0  0  0  0  0  0  0  0  0  0  0
  190.8910  177.1070  145.4760 C   0  0  0  0  0  3  0  0  0  0  0  0
  187.9890  176.7860  144.5740 C   0  0  1  0  0  3  0  0  0  0  0  0
  189.2660  174.0600  140.8530 C   0  0  0  0  0  3  0  0  0  0  0  0
  188.7200  175.3880  142.8540 N   0  0  0  0  0  0  0  0  0  0  0  0
  186.4710  176.5280  146.5360 O   0  0  0  0  0  0  0  0  0  0  0  0
  185.9610  177.0810  147.7460 C   0  0  0  0  0  2  0  0  0  0  0  0
  185.7390  179.5550  145.6250 O   0  0  0  0  0  0  0  0  0  0  0  0
  184.1730  177.9040  146.2470 C   0  0  0  0  0  2  0  0  0  0  0  0
  185.0100  178.2300  147.4490 C   0  0  2  0  0  3  0  0  0  0  0  0
  184.4980  179.0070  145.2690 C   0  0  0  0  0  2  0  0  0  0  0  0
  185.8020  179.4450  147.0220 C   0  0  0  0  0  2  0  0  0  0  0  0
  1 18  1  0  0  0  0
  1 27  1  0  0  0  0
  2 27  1  0  0  0  0
  2 14  1  0  0  0  0
  3 16  1  1  0  0  0
  3  7  1  0  0  0  0
  3 19  1  0  0  0  0
  3  6  1  0  0  0  0
  4 15  1  0  0  0  0
  4 18  2  0  0  0  0
  5 19  2  0  0  0  0
  5 11  1  0  0  0  0
  6  7  1  6  0  0  0
  8 16  1  0  0  0  0
  9 27  1  6  0  0  0
  9 25  1  0  0  0  0
 12  8  1  0  0  0  0
 12 15  2  0  0  0  0
 13  9  1  0  0  0  0
 13 24  1  1  0  0  0
 15  5  1  0  0  0  0
 17 28  1  0  0  0  0
 17 10  2  0  0  0  0
 18 20  1  0  0  0  0
 19  6  1  0  0  0  0
 20 11  1  1  0  0  0
 20 13  1  0  0  0  0
 21 23  2  0  0  0  0
 21 26  1  0  0  0  0
 22 10  1  0  0  0  0
 23  4  1  0  0  0  0
 24 22  2  0  0  0  0
 25 14  1  6  0  0  0
 25 17  1  0  0  0  0
 26  1  2  0  0  0  0
 28 29  1  0  0  0  0
 30 34  1  0  0  0  0
 31 32  1  0  0  0  0
 32 29  1  6  0  0  0
 33 30  1  0  0  0  0
 33 31  1  0  0  0  0
 34 32  1  0  0  0  0
M  END
>  <MODEL>
7

>  <REMARK>
 VINA RESULT:      -8.3      2.049      8.143
  Name = 
  3 active torsions:
  status: ('A' for Active; 'I' for Inactive)
    1  A    between atoms: C_17  and  O_28
    2  A    between atoms: O_28  and  C_29
    3  A    between atoms: C_29  and  C_32
                            x       y       z     vdW  Elec       q    Type
                         _______ _______ _______ _____ _____    ______ ____

>  <TORSDO>
F 3

$$$$
=
 OpenBabel11112417443D

 34 42  0  0  1  0  0  0  0  0999 V2000
  189.6530  174.3570  142.2370 C   0  0  0  0  0  0  0  0  0  0  0  0
  191.4330  172.5370  142.3850 C   0  0  0  0  0  2  0  0  0  0  0  0
  185.4800  178.4320  145.3040 C   0  0  1  0  0  0  0  0  0  0  0  0
  187.8430  175.9650  142.3510 C   0  0  0  0  0  0  0  0  0  0  0  0
  187.6730  177.4130  144.4370 C   0  0  0  0  0  0  0  0  0  0  0  0
  186.7470  178.1300  146.7600 C   0  0  1  0  0  3  0  0  0  0  0  0
  185.3890  178.4460  146.7290 O   0  0  0  0  0  0  0  0  0  0  0  0
  185.2660  178.8210  142.9640 C   0  0  0  0  0  2  0  0  0  0  0  0
  191.3590  174.2620  144.0830 C   0  0  1  0  0  3  0  0  0  0  0  0
  193.2070  174.4290  146.4320 C   0  0  0  0  0  3  0  0  0  0  0  0
  189.0120  176.8810  144.8600 C   0  0  0  0  0  2  0  0  0  0  0  0
  186.0540  177.6120  142.5080 C   0  0  0  0  0  3  0  0  0  0  0  0
  190.2580  174.5870  145.0840 C   0  0  2  0  0  3  0  0  0  0  0  0
  192.5240  172.2550  143.4060 C   0  0  0  0  0  2  0  0  0  0  0  0
  187.1410  177.0500  143.0840 C   0  0  0  0  0  0  0  0  0  0  0  0
  184.7110  178.7330  144.3150 N   0  0  0  0  0  2  0  0  0  0  0  0
  193.3510  173.5890  145.3950 C   0  0  0  0  0  0  0  0  0  0  0  0
  188.8660  175.2370  142.9900 C   0  0  0  0  0  0  0  0  0  0  0  0
  186.8630  177.9250  145.3510 C   0  0  0  0  0  0  0  0  0  0  0  0
  189.0840  175.4020  144.4800 C   0  0  2  0  0  3  0  0  0  0  0  0
  188.2780  174.8150  140.3100 C   0  0  0  0  0  3  0  0  0  0  0  0
  191.9730  175.0740  146.9410 C   0  0  0  0  0  3  0  0  0  0  0  0
  187.5700  175.7220  141.0360 N   0  0  0  0  0  0  0  0  0  0  0  0
  190.7510  175.1530  146.3930 C   0  0  0  0  0  3  0  0  0  0  0  0
  192.1660  173.1060  144.6210 C   0  0  1  0  0  3  0  0  0  0  0  0
  189.3430  174.1270  140.8930 C   0  0  0  0  0  3  0  0  0  0  0  0
  190.7970  173.7560  142.8450 N   0  0  0  0  0  0  0  0  0  0  0  0
  194.6230  173.1060  145.0490 O   0  0  0  0  0  0  0  0  0  0  0  0
  195.2230  171.9590  145.6450 C   0  0  0  0  0  2  0  0  0  0  0  0
  197.6610  173.3160  143.9470 O   0  0  0  0  0  0  0  0  0  0  0  0
  197.0200  173.5640  146.2040 C   0  0  0  0  0  2  0  0  0  0  0  0
  196.7240  172.1540  145.7870 C   0  0  2  0  0  3  0  0  0  0  0  0
  197.8870  174.0970  145.0890 C   0  0  0  0  0  2  0  0  0  0  0  0
  197.3820  172.0290  144.4310 C   0  0  0  0  0  2  0  0  0  0  0  0
  1 27  1  0  0  0  0
  1 18  1  0  0  0  0
  2 27  1  0  0  0  0
  2 14  1  0  0  0  0
  3 16  1  6  0  0  0
  3 19  1  0  0  0  0
  3  7  1  0  0  0  0
  3  6  1  0  0  0  0
  4 18  2  0  0  0  0
  4 15  1  0  0  0  0
  5 11  1  0  0  0  0
  5 19  2  0  0  0  0
  6 19  1  6  0  0  0
  7  6  1  0  0  0  0
  8 16  1  0  0  0  0
  9 27  1  6  0  0  0
  9 25  1  0  0  0  0
  9 13  1  0  0  0  0
 10 22  1  0  0  0  0
 12  8  1  0  0  0  0
 12 15  2  0  0  0  0
 13 24  1  1  0  0  0
 15  5  1  0  0  0  0
 17 10  2  0  0  0  0
 18 20  1  0  0  0  0
 20 11  1  6  0  0  0
 20 13  1  0  0  0  0
 21 26  1  0  0  0  0
 21 23  2  0  0  0  0
 23  4  1  0  0  0  0
 24 22  2  0  0  0  0
 25 14  1  6  0  0  0
 25 17  1  0  0  0  0
 26  1  2  0  0  0  0
 28 17  1  0  0  0  0
 28 29  1  0  0  0  0
 30 34  1  0  0  0  0
 30 33  1  0  0  0  0
 32 29  1  6  0  0  0
 32 31  1  0  0  0  0
 33 31  1  0  0  0  0
 34 32  1  0  0  0  0
M  END
>  <MODEL>
8

>  <REMARK>
 VINA RESULT:      -8.3      1.651      1.954
  Name = 
  3 active torsions:
  status: ('A' for Active; 'I' for Inactive)
    1  A    between atoms: C_17  and  O_28
    2  A    between atoms: O_28  and  C_29
    3  A    between atoms: C_29  and  C_32
                            x       y       z     vdW  Elec       q    Type
                         _______ _______ _______ _____ _____    ______ ____

>  <TORSDO>
F 3

$$$$
=
 OpenBabel11112417443D

 34 42  0  0  1  0  0  0  0  0999 V2000
  190.3610  175.9540  144.8990 C   0  0  0  0  0  0  0  0  0  0  0  0
  192.4130  175.0470  143.6860 C   0  0  0  0  0  2  0  0  0  0  0  0
  184.3670  178.6740  144.5900 C   0  0  1  0  0  0  0  0  0  0  0  0
  188.3810  177.0090  145.8160 C   0  0  0  0  0  0  0  0  0  0  0  0
  186.2470  176.9310  144.4320 C   0  0  0  0  0  0  0  0  0  0  0  0
  184.4300  177.8580  142.8170 C   0  0  1  0  0  3  0  0  0  0  0  0
  183.7650  178.9710  143.3300 O   0  0  0  0  0  0  0  0  0  0  0  0
  184.8910  178.3630  146.8930 C   0  0  0  0  0  2  0  0  0  0  0  0
  190.2200  174.7170  142.7130 C   0  0  1  0  0  3  0  0  0  0  0  0
  189.6950  173.3280  140.1140 C   0  0  0  0  0  3  0  0  0  0  0  0
  186.9400  175.9780  143.5010 C   0  0  0  0  0  2  0  0  0  0  0  0
  186.3560  178.0350  146.7010 C   0  0  0  0  0  3  0  0  0  0  0  0
  189.2150  175.7500  142.2220 C   0  0  2  0  0  3  0  0  0  0  0  0
  192.5780  174.3160  142.3630 C   0  0  0  0  0  2  0  0  0  0  0  0
  186.9400  177.3470  145.6940 C   0  0  0  0  0  0  0  0  0  0  0  0
  184.2690  179.1100  145.7990 N   0  0  0  0  0  2  0  0  0  0  0  0
  190.8770  173.3580  140.7480 C   0  0  0  0  0  0  0  0  0  0  0  0
  189.0650  176.4510  144.7180 C   0  0  0  0  0  0  0  0  0  0  0  0
  185.2000  177.6140  143.9950 C   0  0  0  0  0  0  0  0  0  0  0  0
  188.3970  176.4180  143.3580 C   0  0  2  0  0  3  0  0  0  0  0  0
  190.3170  176.7380  147.1790 C   0  0  0  0  0  3  0  0  0  0  0  0
  188.5660  174.2850  140.2070 C   0  0  0  0  0  3  0  0  0  0  0  0
  189.0310  177.1490  147.0080 N   0  0  0  0  0  0  0  0  0  0  0  0
  188.3510  175.2850  141.0750 C   0  0  0  0  0  3  0  0  0  0  0  0
  191.2520  174.5040  141.6330 C   0  0  1  0  0  3  0  0  0  0  0  0
  191.0010  176.1180  146.1320 C   0  0  0  0  0  3  0  0  0  0  0  0
  190.9830  175.2320  143.8340 N   0  0  0  0  0  0  0  0  0  0  0  0
  191.8120  172.3300  140.5470 O   0  0  0  0  0  0  0  0  0  0  0  0
  191.4620  170.9540  140.4270 C   0  0  0  0  0  2  0  0  0  0  0  0
  191.9860  168.2250  142.1450 O   0  0  0  0  0  0  0  0  0  0  0  0
  192.2230  170.4970  142.7370 C   0  0  0  0  0  2  0  0  0  0  0  0
  191.0720  170.3810  141.7810 C   0  0  2  0  0  3  0  0  0  0  0  0
  192.5060  169.0690  143.1360 C   0  0  0  0  0  2  0  0  0  0  0  0
  190.8510  168.8910  141.6560 C   0  0  0  0  0  2  0  0  0  0  0  0
  1 26  1  0  0  0  0
  2 27  1  0  0  0  0
  3  7  1  6  0  0  0
  3 16  1  0  0  0  0
  4 23  2  0  0  0  0
  5 15  1  0  0  0  0
  6  7  1  6  0  0  0
  6 19  1  0  0  0  0
  6  3  1  0  0  0  0
  9 27  1  1  0  0  0
 10 22  1  0  0  0  0
 10 17  2  0  0  0  0
 11  5  1  0  0  0  0
 12  8  1  0  0  0  0
 13 24  1  6  0  0  0
 13  9  1  0  0  0  0
 13 20  1  0  0  0  0
 14  2  1  0  0  0  0
 15  4  1  0  0  0  0
 15 12  2  0  0  0  0
 16  8  1  0  0  0  0
 17 25  1  0  0  0  0
 18  1  2  0  0  0  0
 18  4  1  0  0  0  0
 19  5  2  0  0  0  0
 19  3  1  0  0  0  0
 20 11  1  1  0  0  0
 20 18  1  0  0  0  0
 22 24  2  0  0  0  0
 23 21  1  0  0  0  0
 25 14  1  1  0  0  0
 25  9  1  0  0  0  0
 26 21  2  0  0  0  0
 27  1  1  0  0  0  0
 28 17  1  0  0  0  0
 29 28  1  0  0  0  0
 30 33  1  0  0  0  0
 31 33  1  0  0  0  0
 32 29  1  6  0  0  0
 32 31  1  0  0  0  0
 34 32  1  0  0  0  0
 34 30  1  0  0  0  0
M  END
>  <MODEL>
9

>  <REMARK>
 VINA RESULT:      -8.2      2.582      5.033
  Name = 
  3 active torsions:
  status: ('A' for Active; 'I' for Inactive)
    1  A    between atoms: C_17  and  O_28
    2  A    between atoms: O_28  and  C_29
    3  A    between atoms: C_29  and  C_32
                            x       y       z     vdW  Elec       q    Type
                         _______ _______ _______ _____ _____    ______ ____

>  <TORSDO>
F 3

$$$$
