=
 OpenBabel11112417373D

 28 31  0  0  1  0  0  0  0  0999 V2000
  187.8850  177.6760  144.4250 C   0  0  0  0  0  0  0  0  0  0  0  0
  190.3950  177.7580  147.2480 O   0  0  0  0  0  0  0  0  0  0  0  0
  185.6930  177.0470  146.0580 C   0  0  0  0  0  3  0  0  0  0  0  0
  189.0400  178.0560  143.5520 C   0  0  0  0  0  2  0  0  0  0  0  0
  190.3470  175.3520  147.7650 O   0  0  0  0  0  0  0  0  0  0  0  0
  190.8590  176.3960  146.8130 S   0  0  0  0  0  0  0  0  0  0  0  0
  193.1120  176.5510  145.3040 C   0  0  1  0  0  3  0  0  0  0  0  0
  190.3280  176.0800  145.1950 N   0  0  1  0  0  0  0  0  0  0  0  0
  186.7500  176.8720  141.5250 C   0  0  0  0  0  1  0  0  0  0  0  0
  189.0560  174.4750  144.0040 C   0  0  2  0  0  3  0  0  0  0  0  0
  192.5490  175.5210  144.3010 C   0  0  0  0  0  2  0  0  0  0  0  0
  192.6460  176.3440  146.7530 C   0  0  0  0  0  2  0  0  0  0  0  0
  188.1990  177.0010  141.4040 N   0  0  0  0  0  0  0  0  0  0  0  0
  187.8840  176.4750  145.1760 C   0  0  0  0  0  0  0  0  0  0  0  0
  194.5620  176.5450  145.2470 N   0  0  0  0  0  1  0  0  0  0  0  0
  188.9620  175.8050  141.8070 C   0  0  0  0  0  2  0  0  0  0  0  0
  186.7770  176.1710  145.9770 C   0  0  0  0  0  3  0  0  0  0  0  0
  186.7980  178.5540  144.5270 C   0  0  0  0  0  3  0  0  0  0  0  0
  185.7060  178.2410  145.3360 C   0  0  0  0  0  3  0  0  0  0  0  0
  188.6490  178.2270  142.0780 C   0  0  0  0  0  2  0  0  0  0  0  0
  190.4680  174.2860  143.6630 N   0  0  0  0  0  0  0  0  0  0  0  0
  188.2210  174.8620  142.7700 C   0  0  1  0  0  3  0  0  0  0  0  0
  191.1720  175.0010  144.7210 C   0  0  2  0  0  3  0  0  0  0  0  0
  189.0150  175.4720  145.1660 C   0  0  2  0  0  3  0  0  0  0  0  0
  188.5870  173.7200  140.9080 C   0  0  0  0  0  1  0  0  0  0  0  0
  187.8330  173.7100  142.0840 O   0  0  0  0  0  0  0  0  0  0  0  0
  190.7650  172.8730  143.8350 C   0  0  0  0  0  2  0  0  0  0  0  0
  189.7790  172.2570  144.8080 C   0  0  0  0  0  1  0  0  0  0  0  0
  1 18  2  0  0  0  0
  1 14  1  0  0  0  0
  4  1  1  0  0  0  0
  6  2  2  0  0  0  0
  6  5  2  0  0  0  0
  7 15  1  1  0  0  0
  7 12  1  0  0  0  0
  8  6  1  1  0  0  0
 10 21  1  6  0  0  0
 10 24  1  0  0  0  0
 11  7  1  0  0  0  0
 12  6  1  0  0  0  0
 13  9  1  0  0  0  0
 13 16  1  0  0  0  0
 13 20  1  0  0  0  0
 14 17  2  0  0  0  0
 16 22  1  0  0  0  0
 17  3  1  0  0  0  0
 18 19  1  0  0  0  0
 19  3  2  0  0  0  0
 20  4  1  0  0  0  0
 21 27  1  0  0  0  0
 21 23  1  0  0  0  0
 22 26  1  6  0  0  0
 22 10  1  0  0  0  0
 23 11  1  6  0  0  0
 23  8  1  0  0  0  0
 24 14  1  6  0  0  0
 24  8  1  0  0  0  0
 25 26  1  0  0  0  0
 27 28  1  0  0  0  0
M  END
>  <MODEL>
1

>  <REMARK>
 VINA RESULT:      -7.5      0.000      0.000
  Name = 
  2 active torsions:
  status: ('A' for Active; 'I' for Inactive)
    1  A    between atoms: C_5  and  N_24
    2  A    between atoms: O_17  and  C_25
                            x       y       z     vdW  Elec       q    Type
                         _______ _______ _______ _____ _____    ______ ____

>  <TORSDO>
F 2

$$$$
=
 OpenBabel11112417373D

 28 31  0  0  1  0  0  0  0  0999 V2000
  189.3070  176.5880  144.4920 C   0  0  0  0  0  0  0  0  0  0  0  0
  192.9580  176.8260  145.4320 O   0  0  0  0  0  0  0  0  0  0  0  0
  188.4800  175.5440  146.9600 C   0  0  0  0  0  3  0  0  0  0  0  0
  189.7310  177.1870  143.1870 C   0  0  0  0  0  2  0  0  0  0  0  0
  193.3970  174.4070  145.5550 O   0  0  0  0  0  0  0  0  0  0  0  0
  193.1980  175.5770  144.6320 S   0  0  0  0  0  0  0  0  0  0  0  0
  194.1820  176.1530  142.1670 C   0  0  1  0  0  3  0  0  0  0  0  0
  191.8710  175.3030  143.5540 N   0  0  1  0  0  0  0  0  0  0  0  0
  186.7960  175.8360  142.6270 C   0  0  0  0  0  1  0  0  0  0  0  0
  190.2760  173.6210  143.0590 C   0  0  2  0  0  3  0  0  0  0  0  0
  193.2310  175.1260  141.5130 C   0  0  0  0  0  2  0  0  0  0  0  0
  194.6350  175.7820  143.5870 C   0  0  0  0  0  2  0  0  0  0  0  0
  187.9070  176.1770  141.7430 N   0  0  0  0  0  0  0  0  0  0  0  0
  189.8230  175.3490  144.9440 C   0  0  0  0  0  0  0  0  0  0  0  0
  195.3400  176.3560  141.3160 N   0  0  0  0  0  1  0  0  0  0  0  0
  188.8540  175.0750  141.4880 C   0  0  0  0  0  2  0  0  0  0  0  0
  189.3910  174.8370  146.1740 C   0  0  0  0  0  3  0  0  0  0  0  0
  188.4040  177.2950  145.2970 C   0  0  0  0  0  3  0  0  0  0  0  0
  187.9890  176.7750  146.5240 C   0  0  0  0  0  3  0  0  0  0  0  0
  188.5620  177.4040  142.2160 C   0  0  0  0  0  2  0  0  0  0  0  0
  191.2580  173.6580  141.9720 N   0  0  0  0  0  0  0  0  0  0  0  0
  188.8630  173.9720  142.5610 C   0  0  1  0  0  3  0  0  0  0  0  0
  192.3790  174.3890  142.5490 C   0  0  2  0  0  3  0  0  0  0  0  0
  190.8240  174.5190  144.1730 C   0  0  2  0  0  3  0  0  0  0  0  0
  188.2020  173.0230  140.6710 C   0  0  0  0  0  1  0  0  0  0  0  0
  188.2450  172.8280  142.0530 O   0  0  0  0  0  0  0  0  0  0  0  0
  191.7080  172.2920  141.7550 C   0  0  0  0  0  2  0  0  0  0  0  0
  191.6960  171.9780  140.2720 C   0  0  0  0  0  1  0  0  0  0  0  0
  1 14  2  0  0  0  0
  1 18  1  0  0  0  0
  4  1  1  0  0  0  0
  6  2  2  0  0  0  0
  6  5  2  0  0  0  0
  7 15  1  6  0  0  0
  7 12  1  0  0  0  0
  8 24  1  0  0  0  0
  8  6  1  1  0  0  0
 10 21  1  6  0  0  0
 10 24  1  0  0  0  0
 11  7  1  0  0  0  0
 12  6  1  0  0  0  0
 13 20  1  0  0  0  0
 13  9  1  0  0  0  0
 14 17  1  0  0  0  0
 16 13  1  0  0  0  0
 16 22  1  0  0  0  0
 17  3  2  0  0  0  0
 18 19  2  0  0  0  0
 19  3  1  0  0  0  0
 20  4  1  0  0  0  0
 21 23  1  0  0  0  0
 22 26  1  6  0  0  0
 22 10  1  0  0  0  0
 23 11  1  6  0  0  0
 23  8  1  0  0  0  0
 24 14  1  6  0  0  0
 25 26  1  0  0  0  0
 27 21  1  0  0  0  0
 28 27  1  0  0  0  0
M  END
>  <MODEL>
2

>  <REMARK>
 VINA RESULT:      -7.1      2.112      2.612
  Name = 
  2 active torsions:
  status: ('A' for Active; 'I' for Inactive)
    1  A    between atoms: C_5  and  N_24
    2  A    between atoms: O_17  and  C_25
                            x       y       z     vdW  Elec       q    Type
                         _______ _______ _______ _____ _____    ______ ____

>  <TORSDO>
F 2

$$$$
=
 OpenBabel11112417373D

 28 31  0  0  1  0  0  0  0  0999 V2000
  191.0400  176.8450  144.9800 C   0  0  0  0  0  0  0  0  0  0  0  0
  194.7440  177.4360  145.4360 O   0  0  0  0  0  0  0  0  0  0  0  0
  190.5750  176.1030  147.6440 C   0  0  0  0  0  3  0  0  0  0  0  0
  191.2700  177.2830  143.5670 C   0  0  0  0  0  2  0  0  0  0  0  0
  195.3800  175.0890  145.8180 O   0  0  0  0  0  0  0  0  0  0  0  0
  194.9900  176.1060  144.7820 S   0  0  0  0  0  0  0  0  0  0  0  0
  195.6470  176.3960  142.1630 C   0  0  1  0  0  3  0  0  0  0  0  0
  193.5770  175.6040  143.9160 N   0  0  1  0  0  0  0  0  0  0  0  0
  188.4040  175.6890  143.5440 C   0  0  0  0  0  1  0  0  0  0  0  0
  192.0730  173.7750  143.8390 C   0  0  2  0  0  3  0  0  0  0  0  0
  194.7130  175.2320  141.7670 C   0  0  0  0  0  2  0  0  0  0  0  0
  196.2820  176.2530  143.5540 C   0  0  0  0  0  2  0  0  0  0  0  0
  189.3810  175.9720  142.4970 N   0  0  0  0  0  0  0  0  0  0  0  0
  191.6980  175.7150  145.5250 C   0  0  0  0  0  0  0  0  0  0  0  0
  196.6850  176.5510  141.1600 N   0  0  0  0  0  1  0  0  0  0  0  0
  190.3770  174.9060  142.2750 C   0  0  0  0  0  2  0  0  0  0  0  0
  191.4460  175.3520  146.8530 C   0  0  0  0  0  3  0  0  0  0  0  0
  190.1800  177.5990  145.7890 C   0  0  0  0  0  3  0  0  0  0  0  0
  189.9450  177.2290  147.1140 C   0  0  0  0  0  3  0  0  0  0  0  0
  189.9880  177.2910  142.7240 C   0  0  0  0  0  2  0  0  0  0  0  0
  192.9220  173.7210  142.6460 N   0  0  0  0  0  0  0  0  0  0  0  0
  190.5900  173.9650  143.4730 C   0  0  1  0  0  3  0  0  0  0  0  0
  194.0400  174.5930  142.9850 C   0  0  2  0  0  3  0  0  0  0  0  0
  192.6690  174.8490  144.7530 C   0  0  2  0  0  3  0  0  0  0  0  0
  189.7610  172.1570  144.4470 C   0  0  0  0  0  1  0  0  0  0  0  0
  190.0100  172.7250  143.1960 O   0  0  0  0  0  0  0  0  0  0  0  0
  193.4500  172.3690  142.5560 C   0  0  0  0  0  2  0  0  0  0  0  0
  192.8730  171.6740  141.3390 C   0  0  0  0  0  1  0  0  0  0  0  0
  1 14  2  0  0  0  0
  1 18  1  0  0  0  0
  4  1  1  0  0  0  0
  6  2  2  0  0  0  0
  6  5  2  0  0  0  0
  7 15  1  6  0  0  0
  7 12  1  0  0  0  0
  8 24  1  0  0  0  0
  8  6  1  1  0  0  0
 10 21  1  6  0  0  0
 10 24  1  0  0  0  0
 11  7  1  0  0  0  0
 12  6  1  0  0  0  0
 13 20  1  0  0  0  0
 13  9  1  0  0  0  0
 14 17  1  0  0  0  0
 16 13  1  0  0  0  0
 16 22  1  0  0  0  0
 17  3  2  0  0  0  0
 18 19  2  0  0  0  0
 19  3  1  0  0  0  0
 20  4  1  0  0  0  0
 21 23  1  0  0  0  0
 22 26  1  6  0  0  0
 22 10  1  0  0  0  0
 23 11  1  6  0  0  0
 23  8  1  0  0  0  0
 24 14  1  6  0  0  0
 26 25  1  0  0  0  0
 27 21  1  0  0  0  0
 28 27  1  0  0  0  0
M  END
>  <MODEL>
3

>  <REMARK>
 VINA RESULT:      -7.0      2.828      3.767
  Name = 
  2 active torsions:
  status: ('A' for Active; 'I' for Inactive)
    1  A    between atoms: C_5  and  N_24
    2  A    between atoms: O_17  and  C_25
                            x       y       z     vdW  Elec       q    Type
                         _______ _______ _______ _____ _____    ______ ____

>  <TORSDO>
F 2

$$$$
=
 OpenBabel11112417373D

 28 31  0  0  1  0  0  0  0  0999 V2000
  189.9600  175.8000  144.8880 C   0  0  0  0  0  0  0  0  0  0  0  0
  190.1820  173.3580  142.0150 O   0  0  0  0  0  0  0  0  0  0  0  0
  189.8480  178.0860  143.2670 C   0  0  0  0  0  3  0  0  0  0  0  0
  189.9740  174.5850  145.7610 C   0  0  0  0  0  2  0  0  0  0  0  0
  192.4310  174.0000  141.2450 O   0  0  0  0  0  0  0  0  0  0  0  0
  191.6550  173.2430  142.2870 S   0  0  0  0  0  0  0  0  0  0  0  0
  192.2260  171.0160  143.7330 C   0  0  1  0  0  3  0  0  0  0  0  0
  192.0090  173.8290  143.8770 N   0  0  1  0  0  0  0  0  0  0  0  0
  190.7790  177.0880  147.7200 C   0  0  0  0  0  1  0  0  0  0  0  0
  193.3770  175.4540  144.9300 C   0  0  2  0  0  3  0  0  0  0  0  0
  193.1910  171.8120  144.6380 C   0  0  0  0  0  2  0  0  0  0  0  0
  192.1500  171.5230  142.2860 C   0  0  0  0  0  2  0  0  0  0  0  0
  191.0220  175.6520  147.8100 N   0  0  0  0  0  0  0  0  0  0  0  0
  191.0330  176.1010  144.0150 C   0  0  0  0  0  0  0  0  0  0  0  0
  192.5920  169.6120  143.7450 N   0  0  0  0  0  1  0  0  0  0  0  0
  192.3160  175.2090  147.2570 C   0  0  0  0  0  2  0  0  0  0  0  0
  190.9660  177.2510  143.2200 C   0  0  0  0  0  3  0  0  0  0  0  0
  188.8370  176.6370  144.9150 C   0  0  0  0  0  3  0  0  0  0  0  0
  188.7810  177.7760  144.1110 C   0  0  0  0  0  3  0  0  0  0  0  0
  189.8770  174.9160  147.2570 C   0  0  0  0  0  2  0  0  0  0  0  0
  193.9420  174.1310  145.2040 N   0  0  0  0  0  0  0  0  0  0  0  0
  192.9360  176.1630  146.2230 C   0  0  1  0  0  3  0  0  0  0  0  0
  193.3090  173.2760  144.2080 C   0  0  2  0  0  3  0  0  0  0  0  0
  192.2780  175.2520  143.8820 C   0  0  2  0  0  3  0  0  0  0  0  0
  194.5660  177.5900  145.7610 C   0  0  0  0  0  1  0  0  0  0  0  0
  194.0270  176.8210  146.7940 O   0  0  0  0  0  0  0  0  0  0  0  0
  195.3570  174.1920  144.8730 C   0  0  0  0  0  2  0  0  0  0  0  0
  196.1850  174.0690  146.1380 C   0  0  0  0  0  1  0  0  0  0  0  0
  1 18  1  0  0  0  0
  1  4  1  0  0  0  0
  2  6  2  0  0  0  0
  3 19  1  0  0  0  0
  4 20  1  0  0  0  0
  5  6  2  0  0  0  0
  7 15  1  6  0  0  0
  7 11  1  0  0  0  0
  8  6  1  6  0  0  0
  8 24  1  0  0  0  0
  8 23  1  0  0  0  0
  9 13  1  0  0  0  0
 10 21  1  1  0  0  0
 10 22  1  0  0  0  0
 12  6  1  0  0  0  0
 12  7  1  0  0  0  0
 14  1  2  0  0  0  0
 16 13  1  0  0  0  0
 17  3  2  0  0  0  0
 17 14  1  0  0  0  0
 19 18  2  0  0  0  0
 20 13  1  0  0  0  0
 22 26  1  1  0  0  0
 22 16  1  0  0  0  0
 23 11  1  1  0  0  0
 23 21  1  0  0  0  0
 24 14  1  1  0  0  0
 24 10  1  0  0  0  0
 25 26  1  0  0  0  0
 27 21  1  0  0  0  0
 27 28  1  0  0  0  0
M  END
>  <MODEL>
4

>  <REMARK>
 VINA RESULT:      -7.0      2.802      5.614
  Name = 
  2 active torsions:
  status: ('A' for Active; 'I' for Inactive)
    1  A    between atoms: C_5  and  N_24
    2  A    between atoms: O_17  and  C_25
                            x       y       z     vdW  Elec       q    Type
                         _______ _______ _______ _____ _____    ______ ____

>  <TORSDO>
F 2

$$$$
=
 OpenBabel11112417373D

 28 31  0  0  1  0  0  0  0  0999 V2000
  188.5030  175.8650  145.2250 C   0  0  0  0  0  0  0  0  0  0  0  0
  187.3280  173.7810  142.3010 O   0  0  0  0  0  0  0  0  0  0  0  0
  187.2800  178.2330  144.3530 C   0  0  0  0  0  3  0  0  0  0  0  0
  189.1220  174.5960  145.7220 C   0  0  0  0  0  2  0  0  0  0  0  0
  188.6890  174.8880  140.5740 O   0  0  0  0  0  0  0  0  0  0  0  0
  188.7060  173.9090  141.7160 S   0  0  0  0  0  0  0  0  0  0  0  0
  190.2030  171.6970  142.2080 C   0  0  1  0  0  3  0  0  0  0  0  0
  189.8260  174.3990  142.9420 N   0  0  1  0  0  0  0  0  0  0  0  0
  190.6280  177.0100  147.3520 C   0  0  0  0  0  1  0  0  0  0  0  0
  191.3780  176.1400  143.3660 C   0  0  2  0  0  3  0  0  0  0  0  0
  191.4240  172.5670  142.5780 C   0  0  0  0  0  2  0  0  0  0  0  0
  189.2840  172.3150  141.1440 C   0  0  0  0  0  2  0  0  0  0  0  0
  191.0210  175.6390  147.0400 N   0  0  0  0  0  0  0  0  0  0  0  0
  188.8720  176.4340  143.9820 C   0  0  0  0  0  0  0  0  0  0  0  0
  190.6520  170.3880  141.7720 N   0  0  0  0  0  1  0  0  0  0  0  0
  191.8250  175.4910  145.8110 C   0  0  0  0  0  2  0  0  0  0  0  0
  188.2590  177.6220  143.5660 C   0  0  0  0  0  3  0  0  0  0  0  0
  187.5090  176.4780  145.9980 C   0  0  0  0  0  3  0  0  0  0  0  0
  186.9020  177.6580  145.5670 C   0  0  0  0  0  3  0  0  0  0  0  0
  189.8420  174.7630  147.0670 C   0  0  0  0  0  2  0  0  0  0  0  0
  192.1280  174.9210  143.0540 N   0  0  0  0  0  0  0  0  0  0  0  0
  191.6640  176.6340  144.7950 C   0  0  1  0  0  3  0  0  0  0  0  0
  191.1360  174.0620  142.4200 C   0  0  2  0  0  3  0  0  0  0  0  0
  189.9080  175.8400  143.0540 C   0  0  2  0  0  3  0  0  0  0  0  0
  193.7660  176.6710  145.4940 C   0  0  0  0  0  1  0  0  0  0  0  0
  192.8170  177.4220  144.7980 O   0  0  0  0  0  0  0  0  0  0  0  0
  193.1040  175.2670  142.0330 C   0  0  0  0  0  2  0  0  0  0  0  0
  194.4680  174.7340  142.4260 C   0  0  0  0  0  1  0  0  0  0  0  0
  1  4  1  0  0  0  0
  1 18  1  0  0  0  0
  3 19  1  0  0  0  0
  4 20  1  0  0  0  0
  5  6  2  0  0  0  0
  6  2  2  0  0  0  0
  7 15  1  6  0  0  0
  7 11  1  0  0  0  0
  8  6  1  6  0  0  0
  8 24  1  0  0  0  0
 10 21  1  1  0  0  0
 10 22  1  0  0  0  0
 12  6  1  0  0  0  0
 12  7  1  0  0  0  0
 13 20  1  0  0  0  0
 13  9  1  0  0  0  0
 14  1  2  0  0  0  0
 16 13  1  0  0  0  0
 17 14  1  0  0  0  0
 17  3  2  0  0  0  0
 19 18  2  0  0  0  0
 22 26  1  6  0  0  0
 22 16  1  0  0  0  0
 23 11  1  1  0  0  0
 23  8  1  0  0  0  0
 23 21  1  0  0  0  0
 24 10  1  0  0  0  0
 24 14  1  1  0  0  0
 26 25  1  0  0  0  0
 27 28  1  0  0  0  0
 27 21  1  0  0  0  0
M  END
>  <MODEL>
5

>  <REMARK>
 VINA RESULT:      -6.8      2.262      5.085
  Name = 
  2 active torsions:
  status: ('A' for Active; 'I' for Inactive)
    1  A    between atoms: C_5  and  N_24
    2  A    between atoms: O_17  and  C_25
                            x       y       z     vdW  Elec       q    Type
                         _______ _______ _______ _____ _____    ______ ____

>  <TORSDO>
F 2

$$$$
=
 OpenBabel11112417373D

 28 31  0  0  1  0  0  0  0  0999 V2000
  191.0940  173.8100  144.5310 C   0  0  0  0  0  0  0  0  0  0  0  0
  190.2140  176.8900  146.5340 O   0  0  0  0  0  0  0  0  0  0  0  0
  193.6420  174.7160  143.7850 C   0  0  0  0  0  3  0  0  0  0  0  0
  189.7550  173.2980  144.9600 C   0  0  0  0  0  2  0  0  0  0  0  0
  190.0700  178.4530  144.6380 O   0  0  0  0  0  0  0  0  0  0  0  0
  189.3710  177.3450  145.3760 S   0  0  0  0  0  0  0  0  0  0  0  0
  186.7440  176.7880  145.7820 C   0  0  1  0  0  3  0  0  0  0  0  0
  189.0380  176.0090  144.3270 N   0  0  1  0  0  0  0  0  0  0  0  0
  190.6140  171.4680  142.3790 C   0  0  0  0  0  1  0  0  0  0  0  0
  189.3180  175.3950  142.0550 C   0  0  2  0  0  3  0  0  0  0  0  0
  186.5940  176.2840  144.3300 C   0  0  0  0  0  2  0  0  0  0  0  0
  187.7770  177.9110  145.9590 C   0  0  0  0  0  2  0  0  0  0  0  0
  189.3190  171.7840  142.9730 N   0  0  0  0  0  0  0  0  0  0  0  0
  191.2280  174.9970  143.7700 C   0  0  0  0  0  0  0  0  0  0  0  0
  185.4530  177.2220  146.2830 N   0  0  0  0  0  1  0  0  0  0  0  0
  188.6280  172.9400  142.3690 C   0  0  0  0  0  2  0  0  0  0  0  0
  192.5060  175.4300  143.3970 C   0  0  0  0  0  3  0  0  0  0  0  0
  192.2420  173.1110  144.9270 C   0  0  0  0  0  3  0  0  0  0  0  0
  193.5100  173.5590  144.5540 C   0  0  0  0  0  3  0  0  0  0  0  0
  189.4510  171.8900  144.4320 C   0  0  0  0  0  2  0  0  0  0  0  0
  187.8990  175.6750  142.2830 N   0  0  0  0  0  0  0  0  0  0  0  0
  189.5490  173.9320  141.6390 C   0  0  1  0  0  3  0  0  0  0  0  0
  187.8950  176.4220  143.5350 C   0  0  2  0  0  3  0  0  0  0  0  0
  190.0610  175.8460  143.3170 C   0  0  2  0  0  3  0  0  0  0  0  0
  188.1940  173.0620  140.1170 C   0  0  0  0  0  1  0  0  0  0  0  0
  189.3700  173.8010  140.2600 O   0  0  0  0  0  0  0  0  0  0  0  0
  187.4700  176.5930  141.2400 C   0  0  0  0  0  2  0  0  0  0  0  0
  187.9610  177.9920  141.5560 C   0  0  0  0  0  1  0  0  0  0  0  0
  1 18  1  0  0  0  0
  1  4  1  0  0  0  0
  3 19  1  0  0  0  0
  5  6  2  0  0  0  0
  6 12  1  0  0  0  0
  6  2  2  0  0  0  0
  7 12  1  0  0  0  0
  7 15  1  6  0  0  0
  8  6  1  1  0  0  0
  9 13  1  0  0  0  0
 10 21  1  1  0  0  0
 10 24  1  0  0  0  0
 11  7  1  0  0  0  0
 13 20  1  0  0  0  0
 14  1  2  0  0  0  0
 16 13  1  0  0  0  0
 17 14  1  0  0  0  0
 17  3  2  0  0  0  0
 19 18  2  0  0  0  0
 20  4  1  0  0  0  0
 21 23  1  0  0  0  0
 22 26  1  6  0  0  0
 22 10  1  0  0  0  0
 22 16  1  0  0  0  0
 23  8  1  0  0  0  0
 23 11  1  1  0  0  0
 24 14  1  1  0  0  0
 24  8  1  0  0  0  0
 25 26  1  0  0  0  0
 27 28  1  0  0  0  0
 27 21  1  0  0  0  0
M  END
>  <MODEL>
6

>  <REMARK>
 VINA RESULT:      -6.6      1.966      5.321
  Name = 
  2 active torsions:
  status: ('A' for Active; 'I' for Inactive)
    1  A    between atoms: C_5  and  N_24
    2  A    between atoms: O_17  and  C_25
                            x       y       z     vdW  Elec       q    Type
                         _______ _______ _______ _____ _____    ______ ____

>  <TORSDO>
F 2

$$$$
=
 OpenBabel11112417373D

 28 31  0  0  1  0  0  0  0  0999 V2000
  192.3310  174.1790  143.4900 C   0  0  0  0  0  0  0  0  0  0  0  0
  189.5960  174.0290  140.8890 O   0  0  0  0  0  0  0  0  0  0  0  0
  192.3540  171.4190  143.9890 C   0  0  0  0  0  3  0  0  0  0  0  0
  192.3580  175.6470  143.1990 C   0  0  0  0  0  2  0  0  0  0  0  0
  187.7660  173.3960  142.4100 O   0  0  0  0  0  0  0  0  0  0  0  0
  188.6380  174.5260  141.9350 S   0  0  0  0  0  0  0  0  0  0  0  0
  188.2040  177.1960  141.6940 C   0  0  1  0  0  3  0  0  0  0  0  0
  189.5140  175.2340  143.2490 N   0  0  1  0  0  0  0  0  0  0  0  0
  193.8480  175.2940  146.0990 C   0  0  0  0  0  1  0  0  0  0  0  0
  189.7420  174.9880  145.5950 C   0  0  2  0  0  3  0  0  0  0  0  0
  188.3230  177.3850  143.2220 C   0  0  0  0  0  2  0  0  0  0  0  0
  187.6230  175.8400  141.2670 C   0  0  0  0  0  2  0  0  0  0  0  0
  193.1750  176.4270  145.4690 N   0  0  0  0  0  0  0  0  0  0  0  0
  191.1660  173.5390  143.9780 C   0  0  0  0  0  0  0  0  0  0  0  0
  187.4100  178.2720  141.1310 N   0  0  0  0  0  1  0  0  0  0  0  0
  191.7510  176.5740  145.8230 C   0  0  0  0  0  2  0  0  0  0  0  0
  191.1970  172.1630  144.2320 C   0  0  0  0  0  3  0  0  0  0  0  0
  193.4810  173.4190  143.2360 C   0  0  0  0  0  3  0  0  0  0  0  0
  193.4950  172.0470  143.4870 C   0  0  0  0  0  3  0  0  0  0  0  0
  193.4110  176.4040  144.0190 C   0  0  0  0  0  2  0  0  0  0  0  0
  188.9850  176.2150  145.3330 N   0  0  0  0  0  0  0  0  0  0  0  0
  191.0710  175.2840  146.3110 C   0  0  1  0  0  3  0  0  0  0  0  0
  188.5490  176.0580  143.9510 C   0  0  2  0  0  3  0  0  0  0  0  0
  189.8630  174.2540  144.2560 C   0  0  2  0  0  3  0  0  0  0  0  0
  191.1420  176.6930  148.0190 C   0  0  0  0  0  1  0  0  0  0  0  0
  190.8560  175.3670  147.6890 O   0  0  0  0  0  0  0  0  0  0  0  0
  187.7910  176.1670  146.1620 C   0  0  0  0  0  2  0  0  0  0  0  0
  187.6410  177.4720  146.9200 C   0  0  0  0  0  1  0  0  0  0  0  0
  1 14  1  0  0  0  0
  2  6  2  0  0  0  0
  3 17  1  0  0  0  0
  4  1  1  0  0  0  0
  4 20  1  0  0  0  0
  6  5  2  0  0  0  0
  7 15  1  1  0  0  0
  7 11  1  0  0  0  0
  8  6  1  6  0  0  0
  8 23  1  0  0  0  0
  8 24  1  0  0  0  0
 10 21  1  6  0  0  0
 10 22  1  0  0  0  0
 12  7  1  0  0  0  0
 12  6  1  0  0  0  0
 13 16  1  0  0  0  0
 13  9  1  0  0  0  0
 14 17  2  0  0  0  0
 16 22  1  0  0  0  0
 18 19  1  0  0  0  0
 18  1  2  0  0  0  0
 19  3  2  0  0  0  0
 20 13  1  0  0  0  0
 21 27  1  0  0  0  0
 22 26  1  1  0  0  0
 23 11  1  6  0  0  0
 23 21  1  0  0  0  0
 24 14  1  6  0  0  0
 24 10  1  0  0  0  0
 26 25  1  0  0  0  0
 27 28  1  0  0  0  0
M  END
>  <MODEL>
7

>  <REMARK>
 VINA RESULT:      -6.6      1.844      6.175
  Name = 
  2 active torsions:
  status: ('A' for Active; 'I' for Inactive)
    1  A    between atoms: C_5  and  N_24
    2  A    between atoms: O_17  and  C_25
                            x       y       z     vdW  Elec       q    Type
                         _______ _______ _______ _____ _____    ______ ____

>  <TORSDO>
F 2

$$$$
=
 OpenBabel11112417373D

 28 31  0  0  1  0  0  0  0  0999 V2000
  194.4580  175.9740  143.6580 C   0  0  0  0  0  0  0  0  0  0  0  0
  191.5290  178.3470  143.4090 O   0  0  0  0  0  0  0  0  0  0  0  0
  194.9520  175.8940  140.8990 C   0  0  0  0  0  3  0  0  0  0  0  0
  194.2310  176.0450  145.1360 C   0  0  0  0  0  2  0  0  0  0  0  0
  189.9800  176.7990  142.2840 O   0  0  0  0  0  0  0  0  0  0  0  0
  190.6170  177.1670  143.5950 S   0  0  0  0  0  0  0  0  0  0  0  0
  189.7590  176.9730  146.1650 C   0  0  1  0  0  3  0  0  0  0  0  0
  191.5030  175.8340  144.2550 N   0  0  1  0  0  0  0  0  0  0  0  0
  196.0420  173.3550  144.6480 C   0  0  0  0  0  1  0  0  0  0  0  0
  192.0010  173.5760  143.7380 C   0  0  2  0  0  3  0  0  0  0  0  0
  190.0020  175.4490  146.1640 C   0  0  0  0  0  2  0  0  0  0  0  0
  189.3520  177.5510  144.8010 C   0  0  0  0  0  2  0  0  0  0  0  0
  195.1450  173.7550  145.7290 N   0  0  0  0  0  0  0  0  0  0  0  0
  193.4590  175.4970  142.7750 C   0  0  0  0  0  0  0  0  0  0  0  0
  188.7580  177.3070  147.1600 N   0  0  0  0  0  1  0  0  0  0  0  0
  193.7570  173.2730  145.5890 C   0  0  0  0  0  2  0  0  0  0  0  0
  193.7250  175.4540  141.4010 C   0  0  0  0  0  3  0  0  0  0  0  0
  195.6780  176.4270  143.1400 C   0  0  0  0  0  3  0  0  0  0  0  0
  195.9260  176.3850  141.7680 C   0  0  0  0  0  3  0  0  0  0  0  0
  195.2330  175.2060  145.9400 C   0  0  0  0  0  2  0  0  0  0  0  0
  191.0430  173.5930  144.8470 N   0  0  0  0  0  0  0  0  0  0  0  0
  193.3350  172.9300  144.1510 C   0  0  1  0  0  3  0  0  0  0  0  0
  190.4990  174.9450  144.8070 C   0  0  2  0  0  3  0  0  0  0  0  0
  192.0970  175.0140  143.2210 C   0  0  2  0  0  3  0  0  0  0  0  0
  192.9950  171.3320  142.6550 C   0  0  0  0  0  1  0  0  0  0  0  0
  193.2500  171.5430  144.0110 O   0  0  0  0  0  0  0  0  0  0  0  0
  189.9600  172.6890  144.4920 C   0  0  0  0  0  2  0  0  0  0  0  0
  189.3170  173.1440  143.1960 C   0  0  0  0  0  1  0  0  0  0  0  0
  1  4  1  0  0  0  0
  2  6  2  0  0  0  0
  3 17  2  0  0  0  0
  3 19  1  0  0  0  0
  4 20  1  0  0  0  0
  5  6  2  0  0  0  0
  6 12  1  0  0  0  0
  7 15  1  1  0  0  0
  8  6  1  6  0  0  0
  8 23  1  0  0  0  0
  9 13  1  0  0  0  0
 10 22  1  0  0  0  0
 10 21  1  1  0  0  0
 11  7  1  0  0  0  0
 12  7  1  0  0  0  0
 13 20  1  0  0  0  0
 14  1  2  0  0  0  0
 16 13  1  0  0  0  0
 17 14  1  0  0  0  0
 18  1  1  0  0  0  0
 19 18  2  0  0  0  0
 22 26  1  1  0  0  0
 22 16  1  0  0  0  0
 23 21  1  0  0  0  0
 23 11  1  1  0  0  0
 24 14  1  1  0  0  0
 24 10  1  0  0  0  0
 24  8  1  0  0  0  0
 25 26  1  0  0  0  0
 27 21  1  0  0  0  0
 28 27  1  0  0  0  0
M  END
>  <MODEL>
8

>  <REMARK>
 VINA RESULT:      -6.2      2.850      6.184
  Name = 
  2 active torsions:
  status: ('A' for Active; 'I' for Inactive)
    1  A    between atoms: C_5  and  N_24
    2  A    between atoms: O_17  and  C_25
                            x       y       z     vdW  Elec       q    Type
                         _______ _______ _______ _____ _____    ______ ____

>  <TORSDO>
F 2

$$$$
=
 OpenBabel11112417373D

 28 31  0  0  1  0  0  0  0  0999 V2000
  191.2850  174.3080  144.6510 C   0  0  0  0  0  0  0  0  0  0  0  0
  189.7350  177.7520  144.7630 O   0  0  0  0  0  0  0  0  0  0  0  0
  193.8780  175.2180  144.0950 C   0  0  0  0  0  3  0  0  0  0  0  0
  189.9130  173.8150  144.9920 C   0  0  0  0  0  2  0  0  0  0  0  0
  189.9880  178.2760  142.3710 O   0  0  0  0  0  0  0  0  0  0  0  0
  189.1920  177.5020  143.3850 S   0  0  0  0  0  0  0  0  0  0  0  0
  186.5870  176.7370  143.4690 C   0  0  1  0  0  3  0  0  0  0  0  0
  189.2200  175.8060  143.0380 N   0  0  1  0  0  0  0  0  0  0  0  0
  191.5150  171.2160  143.7950 C   0  0  0  0  0  1  0  0  0  0  0  0
  190.1100  174.3170  141.4240 C   0  0  2  0  0  3  0  0  0  0  0  0
  186.8450  175.6300  142.4240 C   0  0  0  0  0  2  0  0  0  0  0  0
  187.4710  177.9830  143.3040 C   0  0  0  0  0  2  0  0  0  0  0  0
  190.0930  171.5330  143.9000 N   0  0  0  0  0  0  0  0  0  0  0  0
  191.5370  175.0450  143.4680 C   0  0  0  0  0  0  0  0  0  0  0  0
  185.1870  177.1180  143.4410 N   0  0  0  0  0  1  0  0  0  0  0  0
  189.5120  172.1690  142.7020 C   0  0  0  0  0  2  0  0  0  0  0  0
  192.8390  175.4830  143.2000 C   0  0  0  0  0  3  0  0  0  0  0  0
  192.3330  174.0620  145.5480 C   0  0  0  0  0  3  0  0  0  0  0  0
  193.6240  174.5120  145.2710 C   0  0  0  0  0  3  0  0  0  0  0  0
  189.8400  172.2890  145.1340 C   0  0  0  0  0  2  0  0  0  0  0  0
  188.6650  174.4200  141.2060 N   0  0  0  0  0  0  0  0  0  0  0  0
  190.5280  172.8830  141.7940 C   0  0  1  0  0  3  0  0  0  0  0  0
  188.2960  175.6270  141.9350 C   0  0  2  0  0  3  0  0  0  0  0  0
  190.4760  175.3950  142.4480 C   0  0  2  0  0  3  0  0  0  0  0  0
  191.9610  172.5340  140.1410 C   0  0  0  0  0  1  0  0  0  0  0  0
  190.7170  172.1320  140.6310 O   0  0  0  0  0  0  0  0  0  0  0  0
  188.4640  174.6990  139.7930 C   0  0  0  0  0  2  0  0  0  0  0  0
  188.1910  173.4060  139.0490 C   0  0  0  0  0  1  0  0  0  0  0  0
  1  4  1  0  0  0  0
  1 18  1  0  0  0  0
  3 19  1  0  0  0  0
  4 20  1  0  0  0  0
  5  6  2  0  0  0  0
  6  2  2  0  0  0  0
  7 15  1  6  0  0  0
  8  6  1  6  0  0  0
  9 13  1  0  0  0  0
 10 21  1  1  0  0  0
 10 22  1  0  0  0  0
 10 24  1  0  0  0  0
 11  7  1  0  0  0  0
 12  6  1  0  0  0  0
 12  7  1  0  0  0  0
 13 20  1  0  0  0  0
 14  1  2  0  0  0  0
 16 13  1  0  0  0  0
 17 14  1  0  0  0  0
 17  3  2  0  0  0  0
 19 18  2  0  0  0  0
 21 23  1  0  0  0  0
 22 26  1  6  0  0  0
 22 16  1  0  0  0  0
 23 11  1  1  0  0  0
 23  8  1  0  0  0  0
 24  8  1  0  0  0  0
 24 14  1  1  0  0  0
 25 26  1  0  0  0  0
 27 21  1  0  0  0  0
 28 27  1  0  0  0  0
M  END
>  <MODEL>
9

>  <REMARK>
 VINA RESULT:      -6.2      2.403      5.645
  Name = 
  2 active torsions:
  status: ('A' for Active; 'I' for Inactive)
    1  A    between atoms: C_5  and  N_24
    2  A    between atoms: O_17  and  C_25
                            x       y       z     vdW  Elec       q    Type
                         _______ _______ _______ _____ _____    ______ ____

>  <TORSDO>
F 2

$$$$
