=
 OpenBabel11112417493D

 34 40  0  0  1  0  0  0  0  0999 V2000
  189.0690  174.9350  142.7720 C   0  0  0  0  0  0  0  0  0  0  0  0
  191.4230  174.0930  142.9530 C   0  0  0  0  0  2  0  0  0  0  0  0
  185.3960  180.1090  144.4800 C   0  0  1  0  0  3  0  0  0  0  0  0
  187.3550  176.6550  142.6850 C   0  0  0  0  0  0  0  0  0  0  0  0
  186.6080  177.8130  144.8640 C   0  0  2  0  0  3  0  0  0  0  0  0
  185.5640  179.0720  146.7700 C   0  0  0  0  0  1  0  0  0  0  0  0
  186.1450  180.5170  143.3900 F   0  0  0  0  0  0  0  0  0  0  0  0
  183.9660  178.0410  143.8610 C   0  0  0  0  0  2  0  0  0  0  0  0
  190.1580  174.2500  145.0230 C   0  0  2  0  0  3  0  0  0  0  0  0
  191.9880  175.0520  147.5400 C   0  0  0  0  0  2  0  0  0  0  0  0
  188.0140  177.4710  145.3300 C   0  0  0  0  0  2  0  0  0  0  0  0
  185.0080  177.4850  142.8900 C   0  0  0  0  0  2  0  0  0  0  0  0
  189.7140  175.6470  145.5060 C   0  0  1  0  0  3  0  0  0  0  0  0
  192.2820  173.4920  144.0360 C   0  0  0  0  0  2  0  0  0  0  0  0
  186.4680  177.6970  143.3280 C   0  0  2  0  0  3  0  0  0  0  0  0
  184.0360  179.5590  144.0270 C   0  0  0  0  0  2  0  0  0  0  0  0
  192.4530  174.9300  146.0980 C   0  0  2  0  0  3  0  0  0  0  0  0
  188.2820  175.8940  143.4350 C   0  0  0  0  0  0  0  0  0  0  0  0
  186.2260  179.2020  145.4100 C   0  0  2  0  0  3  0  0  0  0  0  0
  188.3470  176.0360  144.9340 C   0  0  2  0  0  3  0  0  0  0  0  0
  188.0430  175.5710  140.6810 C   0  0  0  0  0  3  0  0  0  0  0  0
  190.9040  176.1060  147.6650 C   0  0  0  0  0  2  0  0  0  0  0  0
  187.2830  176.4850  141.3350 N   0  0  0  0  0  0  0  0  0  0  0  0
  189.6090  175.6350  147.0280 C   0  0  0  0  0  2  0  0  0  0  0  0
  191.6220  173.8650  145.3580 C   0  0  1  0  0  3  0  0  0  0  0  0
  188.9380  174.7750  141.3890 C   0  0  0  0  0  3  0  0  0  0  0  0
  190.0200  174.0320  143.5110 C   0  0  1  0  0  3  0  0  0  0  0  0
  193.8060  174.5760  146.0990 O   0  0  0  0  0  0  0  0  0  0  0  0
  194.4930  175.7910  146.0500 C   0  0  0  0  0  2  0  0  0  0  0  0
  195.7950  174.3210  143.0000 C   0  0  0  0  0  2  0  0  0  0  0  0
  194.5540  176.2640  143.6590 N   0  0  0  0  0  2  0  0  0  0  0  0
  195.3530  175.8460  144.8010 C   0  0  2  0  0  3  0  0  0  0  0  0
  195.1510  175.6010  142.5100 C   0  0  0  0  0  2  0  0  0  0  0  0
  195.9040  174.4720  144.4970 C   0  0  0  0  0  2  0  0  0  0  0  0
  1 18  1  0  0  0  0
  1 27  1  0  0  0  0
  2 27  1  0  0  0  0
  2 14  1  0  0  0  0
  3  7  1  6  0  0  0
  3 19  1  0  0  0  0
  4 15  1  0  0  0  0
  4 18  2  0  0  0  0
  5 11  1  6  0  0  0
  5 19  1  0  0  0  0
  8 16  1  0  0  0  0
  9 25  1  0  0  0  0
  9 13  1  0  0  0  0
 10 22  1  0  0  0  0
 12 15  1  0  0  0  0
 12  8  1  0  0  0  0
 13 24  1  0  0  0  0
 14 25  1  0  0  0  0
 15  5  1  0  0  0  0
 16  3  1  0  0  0  0
 17 28  1  0  0  0  0
 17 10  1  0  0  0  0
 18 20  1  0  0  0  0
 19  6  1  0  0  0  0
 20 11  1  0  0  0  0
 20 13  1  0  0  0  0
 21 23  2  0  0  0  0
 21 26  1  0  0  0  0
 23  4  1  0  0  0  0
 24 22  1  0  0  0  0
 25 17  1  0  0  0  0
 26  1  2  0  0  0  0
 27  9  1  0  0  0  0
 29 28  1  0  0  0  0
 30 34  1  0  0  0  0
 31 32  1  0  0  0  0
 32 29  1  0  0  0  0
 33 30  1  0  0  0  0
 33 31  1  0  0  0  0
 34 32  1  0  0  0  0
M  END
>  <MODEL>
1

>  <REMARK>
 VINA RESULT:      -8.6      0.000      0.000
  Name = 
  3 active torsions:
  status: ('A' for Active; 'I' for Inactive)
    1  A    between atoms: C_17  and  O_28
    2  A    between atoms: O_28  and  C_29
    3  A    between atoms: C_29  and  C_32
                            x       y       z     vdW  Elec       q    Type
                         _______ _______ _______ _____ _____    ______ ____

>  <TORSDO>
F 3

$$$$
=
 OpenBabel11112417493D

 34 40  0  0  1  0  0  0  0  0999 V2000
  189.5450  174.7160  143.3460 C   0  0  0  0  0  0  0  0  0  0  0  0
  191.8990  174.3110  142.5890 C   0  0  0  0  0  2  0  0  0  0  0  0
  185.8970  179.3110  146.3050 C   0  0  1  0  0  3  0  0  0  0  0  0
  187.6340  176.1010  143.9240 C   0  0  0  0  0  0  0  0  0  0  0  0
  187.5800  177.3000  146.2060 C   0  0  2  0  0  3  0  0  0  0  0  0
  187.1340  178.5240  148.3530 C   0  0  0  0  0  1  0  0  0  0  0  0
  186.0720  179.7450  145.0030 F   0  0  0  0  0  0  0  0  0  0  0  0
  184.7660  176.9820  146.3300 C   0  0  0  0  0  2  0  0  0  0  0  0
  191.5290  174.4290  144.9890 C   0  0  2  0  0  3  0  0  0  0  0  0
  193.9990  175.7510  146.5630 C   0  0  0  0  0  2  0  0  0  0  0  0
  189.0940  177.2470  146.0810 C   0  0  0  0  0  2  0  0  0  0  0  0
  185.4370  176.5300  145.0320 C   0  0  0  0  0  2  0  0  0  0  0  0
  191.0470  175.7660  145.5910 C   0  0  1  0  0  3  0  0  0  0  0  0
  193.2090  173.9640  143.2510 C   0  0  0  0  0  2  0  0  0  0  0  0
  186.8810  177.0280  144.8530 C   0  0  2  0  0  3  0  0  0  0  0  0
  184.6000  178.4970  146.4350 C   0  0  0  0  0  2  0  0  0  0  0  0
  193.8840  175.5850  145.0570 C   0  0  2  0  0  3  0  0  0  0  0  0
  188.9060  175.5800  144.2550 C   0  0  0  0  0  0  0  0  0  0  0  0
  187.1790  178.6460  146.8410 C   0  0  2  0  0  3  0  0  0  0  0  0
  189.5180  175.8620  145.6030 C   0  0  2  0  0  3  0  0  0  0  0  0
  187.6880  174.9810  141.8250 C   0  0  0  0  0  3  0  0  0  0  0  0
  192.8670  176.6100  147.0950 C   0  0  0  0  0  2  0  0  0  0  0  0
  187.0790  175.8040  142.7150 N   0  0  0  0  0  0  0  0  0  0  0  0
  191.5430  175.8690  147.0300 C   0  0  0  0  0  2  0  0  0  0  0  0
  193.0530  174.3320  144.7210 C   0  0  1  0  0  3  0  0  0  0  0  0
  188.9220  174.4150  142.1310 C   0  0  0  0  0  3  0  0  0  0  0  0
  190.8620  174.0590  143.6590 C   0  0  1  0  0  3  0  0  0  0  0  0
  195.1730  175.4700  144.5260 O   0  0  0  0  0  0  0  0  0  0  0  0
  195.5400  176.7770  144.1970 C   0  0  0  0  0  2  0  0  0  0  0  0
  197.7400  175.0150  141.9130 C   0  0  0  0  0  2  0  0  0  0  0  0
  195.9930  176.6530  141.8050 N   0  0  0  0  0  2  0  0  0  0  0  0
  196.6080  176.7560  143.1190 C   0  0  2  0  0  3  0  0  0  0  0  0
  196.9470  175.9160  140.9910 C   0  0  0  0  0  2  0  0  0  0  0  0
  197.4990  175.5490  143.3030 C   0  0  0  0  0  2  0  0  0  0  0  0
  1 27  1  0  0  0  0
  1 18  1  0  0  0  0
  2 14  1  0  0  0  0
  2 27  1  0  0  0  0
  3  7  1  6  0  0  0
  3 16  1  0  0  0  0
  3 19  1  0  0  0  0
  4 18  2  0  0  0  0
  4 15  1  0  0  0  0
  5 11  1  6  0  0  0
  5 19  1  0  0  0  0
  8 16  1  0  0  0  0
  9 13  1  0  0  0  0
 10 22  1  0  0  0  0
 12  8  1  0  0  0  0
 13 20  1  0  0  0  0
 13 24  1  0  0  0  0
 14 25  1  0  0  0  0
 15 12  1  0  0  0  0
 15  5  1  0  0  0  0
 17 10  1  0  0  0  0
 18 20  1  0  0  0  0
 19  6  1  0  0  0  0
 20 11  1  0  0  0  0
 21 26  1  0  0  0  0
 21 23  2  0  0  0  0
 23  4  1  0  0  0  0
 24 22  1  0  0  0  0
 25  9  1  0  0  0  0
 25 17  1  0  0  0  0
 26  1  2  0  0  0  0
 27  9  1  0  0  0  0
 28 17  1  0  0  0  0
 29 28  1  0  0  0  0
 30 34  1  0  0  0  0
 31 32  1  0  0  0  0
 32 34  1  0  0  0  0
 32 29  1  0  0  0  0
 33 31  1  0  0  0  0
 33 30  1  0  0  0  0
M  END
>  <MODEL>
2

>  <REMARK>
 VINA RESULT:      -8.5      1.524      1.872
  Name = 
  3 active torsions:
  status: ('A' for Active; 'I' for Inactive)
    1  A    between atoms: C_17  and  O_28
    2  A    between atoms: O_28  and  C_29
    3  A    between atoms: C_29  and  C_32
                            x       y       z     vdW  Elec       q    Type
                         _______ _______ _______ _____ _____    ______ ____

>  <TORSDO>
F 3

$$$$
=
 OpenBabel11112417493D

 34 40  0  0  1  0  0  0  0  0999 V2000
  189.3190  174.7860  143.3740 C   0  0  0  0  0  0  0  0  0  0  0  0
  191.6550  174.3430  142.5840 C   0  0  0  0  0  2  0  0  0  0  0  0
  185.7810  179.4540  146.3530 C   0  0  1  0  0  3  0  0  0  0  0  0
  187.4360  176.2020  143.9700 C   0  0  0  0  0  0  0  0  0  0  0  0
  187.4350  177.4190  146.2430 C   0  0  2  0  0  3  0  0  0  0  0  0
  187.0390  178.6660  148.3880 C   0  0  0  0  0  1  0  0  0  0  0  0
  185.9410  179.8750  145.0440 F   0  0  0  0  0  0  0  0  0  0  0  0
  184.6190  177.1410  146.4150 C   0  0  0  0  0  2  0  0  0  0  0  0
  191.3240  174.4840  144.9880 C   0  0  2  0  0  3  0  0  0  0  0  0
  193.8370  175.7850  146.5130 C   0  0  0  0  0  2  0  0  0  0  0  0
  188.9450  177.3440  146.0950 C   0  0  0  0  0  2  0  0  0  0  0  0
  185.2630  176.6700  145.1100 C   0  0  0  0  0  2  0  0  0  0  0  0
  190.8700  175.8330  145.5860 C   0  0  1  0  0  3  0  0  0  0  0  0
  192.9700  173.9820  143.2270 C   0  0  0  0  0  2  0  0  0  0  0  0
  186.7110  177.1460  144.9040 C   0  0  2  0  0  3  0  0  0  0  0  0
  184.4760  178.6590  146.5100 C   0  0  0  0  0  2  0  0  0  0  0  0
  193.6960  175.6080  145.0090 C   0  0  2  0  0  3  0  0  0  0  0  0
  188.7060  175.6650  144.2860 C   0  0  0  0  0  0  0  0  0  0  0  0
  187.0620  178.7750  146.8740 C   0  0  2  0  0  3  0  0  0  0  0  0
  189.3430  175.9500  145.6220 C   0  0  2  0  0  3  0  0  0  0  0  0
  187.4410  175.0640  141.8800 C   0  0  0  0  0  3  0  0  0  0  0  0
  192.7250  176.6640  147.0550 C   0  0  0  0  0  2  0  0  0  0  0  0
  186.8590  175.9030  142.7740 N   0  0  0  0  0  0  0  0  0  0  0  0
  191.3910  175.9400  147.0170 C   0  0  0  0  0  2  0  0  0  0  0  0
  192.8420  174.3640  144.6970 C   0  0  1  0  0  3  0  0  0  0  0  0
  188.6720  174.4840  142.1710 C   0  0  0  0  0  3  0  0  0  0  0  0
  190.6320  174.1130  143.6720 C   0  0  1  0  0  3  0  0  0  0  0  0
  194.9740  175.4720  144.4600 O   0  0  0  0  0  0  0  0  0  0  0  0
  195.8030  175.1910  145.5490 C   0  0  0  0  0  2  0  0  0  0  0  0
  196.9570  171.7610  145.2990 C   0  0  0  0  0  2  0  0  0  0  0  0
  196.5330  173.6140  143.8390 N   0  0  0  0  0  2  0  0  0  0  0  0
  196.8380  174.1550  145.1550 C   0  0  2  0  0  3  0  0  0  0  0  0
  197.0170  172.2430  143.8650 C   0  0  0  0  0  2  0  0  0  0  0  0
  196.8160  173.0070  146.1380 C   0  0  0  0  0  2  0  0  0  0  0  0
  1 27  1  0  0  0  0
  1 18  1  0  0  0  0
  2 14  1  0  0  0  0
  2 27  1  0  0  0  0
  3  7  1  6  0  0  0
  3 16  1  0  0  0  0
  3 19  1  0  0  0  0
  4 18  2  0  0  0  0
  4 15  1  0  0  0  0
  5 11  1  6  0  0  0
  5 19  1  0  0  0  0
  8 16  1  0  0  0  0
  9 13  1  0  0  0  0
 10 22  1  0  0  0  0
 12  8  1  0  0  0  0
 13 20  1  0  0  0  0
 13 24  1  0  0  0  0
 14 25  1  0  0  0  0
 15 12  1  0  0  0  0
 15  5  1  0  0  0  0
 17 10  1  0  0  0  0
 18 20  1  0  0  0  0
 19  6  1  0  0  0  0
 20 11  1  0  0  0  0
 21 26  1  0  0  0  0
 21 23  2  0  0  0  0
 23  4  1  0  0  0  0
 24 22  1  0  0  0  0
 25  9  1  0  0  0  0
 25 17  1  0  0  0  0
 26  1  2  0  0  0  0
 27  9  1  0  0  0  0
 28 17  1  0  0  0  0
 28 29  1  0  0  0  0
 30 34  1  0  0  0  0
 31 33  1  0  0  0  0
 31 32  1  0  0  0  0
 32 29  1  0  0  0  0
 32 34  1  0  0  0  0
 33 30  1  0  0  0  0
M  END
>  <MODEL>
3

>  <REMARK>
 VINA RESULT:      -8.5      1.574      1.988
  Name = 
  3 active torsions:
  status: ('A' for Active; 'I' for Inactive)
    1  A    between atoms: C_17  and  O_28
    2  A    between atoms: O_28  and  C_29
    3  A    between atoms: C_29  and  C_32
                            x       y       z     vdW  Elec       q    Type
                         _______ _______ _______ _____ _____    ______ ____

>  <TORSDO>
F 3

$$$$
=
 OpenBabel11112417493D

 34 40  0  0  1  0  0  0  0  0999 V2000
  192.1940  175.8710  145.7810 C   0  0  0  0  0  0  0  0  0  0  0  0
  189.8790  176.5850  146.4200 C   0  0  0  0  0  2  0  0  0  0  0  0
  196.3550  176.1410  140.7020 C   0  0  1  0  0  3  0  0  0  0  0  0
  194.2700  176.0250  144.5270 C   0  0  0  0  0  0  0  0  0  0  0  0
  194.3470  175.1810  142.0920 C   0  0  2  0  0  3  0  0  0  0  0  0
  194.8240  174.3760  139.7610 C   0  0  0  0  0  1  0  0  0  0  0  0
  196.3750  177.4000  141.2780 F   0  0  0  0  0  0  0  0  0  0  0  0
  197.0340  174.3490  142.4440 C   0  0  0  0  0  2  0  0  0  0  0  0
  190.0580  174.8720  144.7050 C   0  0  2  0  0  3  0  0  0  0  0  0
  187.7460  175.0930  142.4830 C   0  0  0  0  0  2  0  0  0  0  0  0
  192.8650  175.5200  142.1050 C   0  0  0  0  0  2  0  0  0  0  0  0
  196.4050  175.1040  143.6160 C   0  0  0  0  0  2  0  0  0  0  0  0
  190.7230  175.2460  143.3630 C   0  0  1  0  0  3  0  0  0  0  0  0
  188.4760  176.1240  146.1160 C   0  0  0  0  0  2  0  0  0  0  0  0
  195.0970  175.8380  143.2740 C   0  0  2  0  0  3  0  0  0  0  0  0
  197.4640  175.2580  141.2930 C   0  0  0  0  0  2  0  0  0  0  0  0
  187.9570  176.0410  143.6520 C   0  0  2  0  0  3  0  0  0  0  0  0
  192.9000  175.6770  144.5790 C   0  0  0  0  0  0  0  0  0  0  0  0
  194.9320  175.5520  140.7150 C   0  0  2  0  0  3  0  0  0  0  0  0
  192.2370  175.0140  143.3990 C   0  0  2  0  0  3  0  0  0  0  0  0
  194.1910  176.7900  146.7790 C   0  0  0  0  0  3  0  0  0  0  0  0
  188.9670  175.0750  141.5820 C   0  0  0  0  0  2  0  0  0  0  0  0
  194.8620  176.5890  145.6170 N   0  0  0  0  0  0  0  0  0  0  0  0
  190.1330  174.3750  142.2580 C   0  0  0  0  0  2  0  0  0  0  0  0
  188.5700  175.2860  144.8470 C   0  0  1  0  0  3  0  0  0  0  0  0
  192.8530  176.4240  146.8830 C   0  0  0  0  0  3  0  0  0  0  0  0
  190.7570  175.4530  145.9400 C   0  0  1  0  0  3  0  0  0  0  0  0
  186.7190  176.5880  144.0060 O   0  0  0  0  0  0  0  0  0  0  0  0
  186.7100  177.8570  143.4220 C   0  0  0  0  0  2  0  0  0  0  0  0
  184.0600  178.6660  145.7630 C   0  0  0  0  0  2  0  0  0  0  0  0
  186.4550  178.7180  145.6880 N   0  0  0  0  0  2  0  0  0  0  0  0
  185.9720  178.8310  144.3210 C   0  0  2  0  0  3  0  0  0  0  0  0
  185.3120  179.0410  146.5270 C   0  0  0  0  0  2  0  0  0  0  0  0
  184.4960  178.5060  144.3280 C   0  0  0  0  0  2  0  0  0  0  0  0
  1 27  1  0  0  0  0
  1 26  1  0  0  0  0
  3 19  1  0  0  0  0
  3  7  1  1  0  0  0
  3 16  1  0  0  0  0
  4 18  1  0  0  0  0
  4 23  2  0  0  0  0
  5 11  1  6  0  0  0
  5 15  1  0  0  0  0
  6 19  1  0  0  0  0
  8 12  1  0  0  0  0
  9 25  1  0  0  0  0
  9 27  1  0  0  0  0
 10 17  1  0  0  0  0
 11 20  1  0  0  0  0
 13 20  1  0  0  0  0
 13  9  1  0  0  0  0
 14  2  1  0  0  0  0
 15 12  1  0  0  0  0
 15  4  1  0  0  0  0
 16  8  1  0  0  0  0
 17 28  1  0  0  0  0
 17 25  1  0  0  0  0
 18  1  2  0  0  0  0
 19  5  1  0  0  0  0
 20 18  1  0  0  0  0
 21 26  2  0  0  0  0
 22 24  1  0  0  0  0
 22 10  1  0  0  0  0
 23 21  1  0  0  0  0
 24 13  1  0  0  0  0
 25 14  1  0  0  0  0
 27  2  1  0  0  0  0
 29 28  1  0  0  0  0
 29 32  1  0  0  0  0
 30 33  1  0  0  0  0
 31 33  1  0  0  0  0
 32 34  1  0  0  0  0
 32 31  1  0  0  0  0
 34 30  1  0  0  0  0
M  END
>  <MODEL>
4

>  <REMARK>
 VINA RESULT:      -8.1      2.809      8.605
  Name = 
  3 active torsions:
  status: ('A' for Active; 'I' for Inactive)
    1  A    between atoms: C_17  and  O_28
    2  A    between atoms: O_28  and  C_29
    3  A    between atoms: C_29  and  C_32
                            x       y       z     vdW  Elec       q    Type
                         _______ _______ _______ _____ _____    ______ ____

>  <TORSDO>
F 3

$$$$
=
 OpenBabel11112417493D

 34 40  0  0  1  0  0  0  0  0999 V2000
  192.1750  176.1840  145.9710 C   0  0  0  0  0  0  0  0  0  0  0  0
  189.9270  177.0460  146.6670 C   0  0  0  0  0  2  0  0  0  0  0  0
  196.1440  176.0410  140.7350 C   0  0  1  0  0  3  0  0  0  0  0  0
  194.2060  176.1790  144.6360 C   0  0  0  0  0  0  0  0  0  0  0  0
  194.1430  175.2430  142.2350 C   0  0  2  0  0  3  0  0  0  0  0  0
  194.4860  174.3280  139.9210 C   0  0  0  0  0  1  0  0  0  0  0  0
  196.2530  177.3170  141.2610 F   0  0  0  0  0  0  0  0  0  0  0  0
  196.7940  174.2790  142.5190 C   0  0  0  0  0  2  0  0  0  0  0  0
  189.9480  175.2640  145.0130 C   0  0  2  0  0  3  0  0  0  0  0  0
  187.5670  175.5290  142.8710 C   0  0  0  0  0  2  0  0  0  0  0  0
  192.6830  175.6620  142.2880 C   0  0  0  0  0  2  0  0  0  0  0  0
  196.2520  175.1100  143.6830 C   0  0  0  0  0  2  0  0  0  0  0  0
  190.5800  175.5510  143.6350 C   0  0  1  0  0  3  0  0  0  0  0  0
  188.4910  176.6510  146.4320 C   0  0  0  0  0  2  0  0  0  0  0  0
  194.9720  175.9010  143.3620 C   0  0  2  0  0  3  0  0  0  0  0  0
  197.2270  175.1210  141.3190 C   0  0  0  0  0  2  0  0  0  0  0  0
  187.8740  176.5060  143.9950 C   0  0  2  0  0  3  0  0  0  0  0  0
  192.8220  175.9080  144.7520 C   0  0  0  0  0  0  0  0  0  0  0  0
  194.6930  175.5300  140.8240 C   0  0  2  0  0  3  0  0  0  0  0  0
  192.0800  175.2390  143.6230 C   0  0  2  0  0  3  0  0  0  0  0  0
  194.2550  177.0290  146.8580 C   0  0  0  0  0  3  0  0  0  0  0  0
  188.7490  175.4110  141.9270 C   0  0  0  0  0  2  0  0  0  0  0  0
  194.8680  176.7490  145.6810 N   0  0  0  0  0  0  0  0  0  0  0  0
  189.9020  174.6740  142.5860 C   0  0  0  0  0  2  0  0  0  0  0  0
  188.4910  175.7630  145.1940 C   0  0  1  0  0  3  0  0  0  0  0  0
  192.9040  176.7400  147.0260 C   0  0  0  0  0  3  0  0  0  0  0  0
  190.7250  175.8510  146.1980 C   0  0  1  0  0  3  0  0  0  0  0  0
  186.6810  177.1320  144.3720 O   0  0  0  0  0  0  0  0  0  0  0  0
  186.8760  178.4820  144.0700 C   0  0  0  0  0  2  0  0  0  0  0  0
  184.6370  178.2180  141.2280 C   0  0  0  0  0  2  0  0  0  0  0  0
  184.4840  178.3380  143.6170 N   0  0  0  0  0  2  0  0  0  0  0  0
  185.7230  178.9910  143.2240 C   0  0  2  0  0  3  0  0  0  0  0  0
  183.6850  178.2700  142.4040 C   0  0  0  0  0  2  0  0  0  0  0  0
  185.9720  178.6660  141.7690 C   0  0  0  0  0  2  0  0  0  0  0  0
  1 27  1  0  0  0  0
  1 26  1  0  0  0  0
  3 19  1  0  0  0  0
  3  7  1  1  0  0  0
  3 16  1  0  0  0  0
  4 18  1  0  0  0  0
  4 23  2  0  0  0  0
  5 11  1  6  0  0  0
  5 15  1  0  0  0  0
  6 19  1  0  0  0  0
  8 12  1  0  0  0  0
  9 25  1  0  0  0  0
  9 27  1  0  0  0  0
 10 17  1  0  0  0  0
 11 20  1  0  0  0  0
 13  9  1  0  0  0  0
 14  2  1  0  0  0  0
 15 12  1  0  0  0  0
 15  4  1  0  0  0  0
 16  8  1  0  0  0  0
 17 28  1  0  0  0  0
 17 25  1  0  0  0  0
 18  1  2  0  0  0  0
 19  5  1  0  0  0  0
 20 13  1  0  0  0  0
 20 18  1  0  0  0  0
 21 26  2  0  0  0  0
 22 24  1  0  0  0  0
 22 10  1  0  0  0  0
 23 21  1  0  0  0  0
 24 13  1  0  0  0  0
 25 14  1  0  0  0  0
 27  2  1  0  0  0  0
 29 28  1  0  0  0  0
 30 34  1  0  0  0  0
 30 33  1  0  0  0  0
 32 31  1  0  0  0  0
 32 29  1  0  0  0  0
 33 31  1  0  0  0  0
 34 32  1  0  0  0  0
M  END
>  <MODEL>
5

>  <REMARK>
 VINA RESULT:      -8.1      2.809      8.555
  Name = 
  3 active torsions:
  status: ('A' for Active; 'I' for Inactive)
    1  A    between atoms: C_17  and  O_28
    2  A    between atoms: O_28  and  C_29
    3  A    between atoms: C_29  and  C_32
                            x       y       z     vdW  Elec       q    Type
                         _______ _______ _______ _____ _____    ______ ____

>  <TORSDO>
F 3

$$$$
=
 OpenBabel11112417493D

 34 40  0  0  1  0  0  0  0  0999 V2000
  192.1740  175.8540  145.7180 C   0  0  0  0  0  0  0  0  0  0  0  0
  190.4410  177.5570  145.1050 C   0  0  0  0  0  2  0  0  0  0  0  0
  195.9580  171.2560  142.9400 C   0  0  1  0  0  3  0  0  0  0  0  0
  194.0830  174.4130  145.2860 C   0  0  0  0  0  0  0  0  0  0  0  0
  193.7460  172.2230  143.9680 C   0  0  2  0  0  3  0  0  0  0  0  0
  193.7850  169.9890  142.8210 C   0  0  0  0  0  1  0  0  0  0  0  0
  196.5520  172.4700  142.6400 F   0  0  0  0  0  0  0  0  0  0  0  0
  195.7660  170.9620  145.5050 C   0  0  0  0  0  2  0  0  0  0  0  0
  189.8080  175.2220  144.8700 C   0  0  2  0  0  3  0  0  0  0  0  0
  187.8280  174.7160  142.3900 C   0  0  0  0  0  2  0  0  0  0  0  0
  192.5800  172.9740  143.3460 C   0  0  0  0  0  2  0  0  0  0  0  0
  195.5590  172.4550  145.7630 C   0  0  0  0  0  2  0  0  0  0  0  0
  190.5580  174.3610  143.8320 C   0  0  1  0  0  3  0  0  0  0  0  0
  188.9790  177.5360  144.7380 C   0  0  0  0  0  2  0  0  0  0  0  0
  194.7230  173.1780  144.6920 C   0  0  2  0  0  3  0  0  0  0  0  0
  196.5520  170.6670  144.2280 C   0  0  0  0  0  2  0  0  0  0  0  0
  188.4570  176.0450  142.7760 C   0  0  2  0  0  3  0  0  0  0  0  0
  192.7040  174.6900  145.1310 C   0  0  0  0  0  0  0  0  0  0  0  0
  194.4230  171.3650  142.8810 C   0  0  2  0  0  3  0  0  0  0  0  0
  191.8020  173.7020  144.4370 C   0  0  2  0  0  3  0  0  0  0  0  0
  194.3810  176.4300  146.5130 C   0  0  0  0  0  3  0  0  0  0  0  0
  188.8990  173.6880  142.0770 C   0  0  0  0  0  2  0  0  0  0  0  0
  194.8760  175.3000  145.9500 N   0  0  0  0  0  0  0  0  0  0  0  0
  189.6270  173.2580  143.3380 C   0  0  0  0  0  2  0  0  0  0  0  0
  188.6710  176.1100  144.3000 C   0  0  1  0  0  3  0  0  0  0  0  0
  193.0230  176.7190  146.4170 C   0  0  0  0  0  3  0  0  0  0  0  0
  190.7060  176.1780  145.6640 C   0  0  1  0  0  3  0  0  0  0  0  0
  187.6050  177.0730  142.3610 O   0  0  0  0  0  0  0  0  0  0  0  0
  186.3160  176.5690  142.5540 C   0  0  0  0  0  2  0  0  0  0  0  0
  185.3510  178.8800  145.1770 C   0  0  0  0  0  2  0  0  0  0  0  0
  186.0000  178.9650  142.8720 N   0  0  0  0  0  2  0  0  0  0  0  0
  185.4170  177.6550  143.1140 C   0  0  2  0  0  3  0  0  0  0  0  0
  185.5660  179.7910  143.9870 C   0  0  0  0  0  2  0  0  0  0  0  0
  185.2770  177.4850  144.6090 C   0  0  0  0  0  2  0  0  0  0  0  0
  1 26  1  0  0  0  0
  2 27  1  0  0  0  0
  3  7  1  1  0  0  0
  3 16  1  0  0  0  0
  4 23  2  0  0  0  0
  5 11  1  6  0  0  0
  5 15  1  0  0  0  0
  6 19  1  0  0  0  0
  8 12  1  0  0  0  0
  9 27  1  0  0  0  0
 10 17  1  0  0  0  0
 11 20  1  0  0  0  0
 13 20  1  0  0  0  0
 13  9  1  0  0  0  0
 14  2  1  0  0  0  0
 15  4  1  0  0  0  0
 15 12  1  0  0  0  0
 16  8  1  0  0  0  0
 17 25  1  0  0  0  0
 18  4  1  0  0  0  0
 18  1  2  0  0  0  0
 19  3  1  0  0  0  0
 19  5  1  0  0  0  0
 20 18  1  0  0  0  0
 22 10  1  0  0  0  0
 22 24  1  0  0  0  0
 23 21  1  0  0  0  0
 24 13  1  0  0  0  0
 25 14  1  0  0  0  0
 25  9  1  0  0  0  0
 26 21  2  0  0  0  0
 27  1  1  0  0  0  0
 28 29  1  0  0  0  0
 28 17  1  0  0  0  0
 29 32  1  0  0  0  0
 31 32  1  0  0  0  0
 31 33  1  0  0  0  0
 32 34  1  0  0  0  0
 33 30  1  0  0  0  0
 34 30  1  0  0  0  0
M  END
>  <MODEL>
6

>  <REMARK>
 VINA RESULT:      -8.1      3.223      8.874
  Name = 
  3 active torsions:
  status: ('A' for Active; 'I' for Inactive)
    1  A    between atoms: C_17  and  O_28
    2  A    between atoms: O_28  and  C_29
    3  A    between atoms: C_29  and  C_32
                            x       y       z     vdW  Elec       q    Type
                         _______ _______ _______ _____ _____    ______ ____

>  <TORSDO>
F 3

$$$$
=
 OpenBabel11112417493D

 34 40  0  0  1  0  0  0  0  0999 V2000
  190.0730  174.8040  142.0500 C   0  0  0  0  0  0  0  0  0  0  0  0
  187.6820  175.2540  142.6510 C   0  0  0  0  0  2  0  0  0  0  0  0
  195.6060  172.4600  144.7090 C   0  0  1  0  0  3  0  0  0  0  0  0
  192.2100  173.6670  142.2590 C   0  0  0  0  0  0  0  0  0  0  0  0
  193.7920  174.2870  144.1990 C   0  0  2  0  0  3  0  0  0  0  0  0
  195.6160  174.6920  145.8770 C   0  0  0  0  0  1  0  0  0  0  0  0
  194.8180  171.3560  144.4350 F   0  0  0  0  0  0  0  0  0  0  0  0
  196.0430  173.8100  142.5430 C   0  0  0  0  0  2  0  0  0  0  0  0
  189.3610  176.6270  143.7500 C   0  0  2  0  0  3  0  0  0  0  0  0
  188.5530  177.4020  146.7630 C   0  0  0  0  0  2  0  0  0  0  0  0
  192.5020  174.6640  144.9080 C   0  0  0  0  0  2  0  0  0  0  0  0
  194.6800  173.4730  141.9370 C   0  0  0  0  0  2  0  0  0  0  0  0
  190.3610  175.9380  144.7020 C   0  0  1  0  0  3  0  0  0  0  0  0
  186.9400  176.2940  143.4510 C   0  0  0  0  0  2  0  0  0  0  0  0
  193.5280  173.4060  142.9550 C   0  0  2  0  0  3  0  0  0  0  0  0
  196.5470  172.7600  143.5320 C   0  0  0  0  0  2  0  0  0  0  0  0
  187.7570  176.5090  145.8240 C   0  0  2  0  0  3  0  0  0  0  0  0
  191.2750  174.6060  142.7550 C   0  0  0  0  0  0  0  0  0  0  0  0
  194.7490  173.6360  145.2160 C   0  0  2  0  0  3  0  0  0  0  0  0
  191.6080  175.4520  143.9560 C   0  0  2  0  0  3  0  0  0  0  0  0
  190.7480  173.1120  140.4660 C   0  0  0  0  0  3  0  0  0  0  0  0
  189.9340  176.8240  147.0080 C   0  0  0  0  0  2  0  0  0  0  0  0
  191.9070  172.9390  141.1490 N   0  0  0  0  0  0  0  0  0  0  0  0
  190.8010  176.9380  145.7670 C   0  0  0  0  0  2  0  0  0  0  0  0
  187.9720  176.9460  144.3630 C   0  0  1  0  0  3  0  0  0  0  0  0
  189.8200  174.0540  140.8980 C   0  0  0  0  0  3  0  0  0  0  0  0
  189.0630  175.8390  142.4690 C   0  0  1  0  0  3  0  0  0  0  0  0
  186.4040  176.6040  146.1670 O   0  0  0  0  0  0  0  0  0  0  0  0
  186.3030  177.7940  146.8920 C   0  0  0  0  0  2  0  0  0  0  0  0
  185.1210  179.8020  144.1120 C   0  0  0  0  0  2  0  0  0  0  0  0
  184.3720  177.9320  145.4110 N   0  0  0  0  0  2  0  0  0  0  0  0
  185.2800  178.7060  146.2420 C   0  0  2  0  0  3  0  0  0  0  0  0
  183.9860  178.8250  144.3290 C   0  0  0  0  0  2  0  0  0  0  0  0
  185.9780  179.7070  145.3500 C   0  0  0  0  0  2  0  0  0  0  0  0
  1 27  1  0  0  0  0
  1 18  1  0  0  0  0
  2 14  1  0  0  0  0
  3  7  1  6  0  0  0
  3 19  1  0  0  0  0
  4 18  2  0  0  0  0
  4 15  1  0  0  0  0
  5 11  1  1  0  0  0
  5 19  1  0  0  0  0
  8 16  1  0  0  0  0
  9 25  1  0  0  0  0
  9 13  1  0  0  0  0
 10 22  1  0  0  0  0
 12  8  1  0  0  0  0
 12 15  1  0  0  0  0
 13 24  1  0  0  0  0
 14 25  1  0  0  0  0
 15  5  1  0  0  0  0
 16  3  1  0  0  0  0
 17 28  1  0  0  0  0
 17 10  1  0  0  0  0
 18 20  1  0  0  0  0
 19  6  1  0  0  0  0
 20 13  1  0  0  0  0
 20 11  1  0  0  0  0
 21 26  1  0  0  0  0
 21 23  2  0  0  0  0
 23  4  1  0  0  0  0
 24 22  1  0  0  0  0
 25 17  1  0  0  0  0
 26  1  2  0  0  0  0
 27  2  1  0  0  0  0
 27  9  1  0  0  0  0
 28 29  1  0  0  0  0
 30 33  1  0  0  0  0
 30 34  1  0  0  0  0
 31 32  1  0  0  0  0
 32 29  1  0  0  0  0
 33 31  1  0  0  0  0
 34 32  1  0  0  0  0
M  END
>  <MODEL>
7

>  <REMARK>
 VINA RESULT:      -8.0      3.112      8.036
  Name = 
  3 active torsions:
  status: ('A' for Active; 'I' for Inactive)
    1  A    between atoms: C_17  and  O_28
    2  A    between atoms: O_28  and  C_29
    3  A    between atoms: C_29  and  C_32
                            x       y       z     vdW  Elec       q    Type
                         _______ _______ _______ _____ _____    ______ ____

>  <TORSDO>
F 3

$$$$
=
 OpenBabel11112417493D

 34 40  0  0  1  0  0  0  0  0999 V2000
  191.5990  175.8000  146.4470 C   0  0  0  0  0  0  0  0  0  0  0  0
  193.8350  174.6700  146.5130 C   0  0  0  0  0  2  0  0  0  0  0  0
  186.4280  176.5650  142.4640 C   0  0  1  0  0  3  0  0  0  0  0  0
  189.3020  176.0760  145.7040 C   0  0  0  0  0  0  0  0  0  0  0  0
  188.8340  177.0830  143.3770 C   0  0  2  0  0  3  0  0  0  0  0  0
  187.9980  178.1110  141.2430 C   0  0  0  0  0  1  0  0  0  0  0  0
  186.3160  175.2910  142.9930 F   0  0  0  0  0  0  0  0  0  0  0  0
  186.4840  178.3240  144.3630 C   0  0  0  0  0  2  0  0  0  0  0  0
  193.5830  176.5010  144.9330 C   0  0  2  0  0  3  0  0  0  0  0  0
  195.2640  176.0490  142.2310 C   0  0  0  0  0  2  0  0  0  0  0  0
  190.1970  176.5030  143.0370 C   0  0  0  0  0  2  0  0  0  0  0  0
  187.2140  177.3980  145.3370 C   0  0  0  0  0  2  0  0  0  0  0  0
  192.5790  176.3330  143.7720 C   0  0  1  0  0  3  0  0  0  0  0  0
  195.1930  174.9120  145.9050 C   0  0  0  0  0  2  0  0  0  0  0  0
  188.2620  176.4810  144.6820 C   0  0  2  0  0  3  0  0  0  0  0  0
  185.6530  177.5770  143.3200 C   0  0  0  0  0  2  0  0  0  0  0  0
  195.1550  175.0720  143.3910 C   0  0  2  0  0  3  0  0  0  0  0  0
  190.6880  176.1880  145.4460 C   0  0  0  0  0  0  0  0  0  0  0  0
  187.9000  176.9070  142.1630 C   0  0  2  0  0  3  0  0  0  0  0  0
  191.1770  176.8100  144.1630 C   0  0  2  0  0  3  0  0  0  0  0  0
  189.7440  175.1590  147.8540 C   0  0  0  0  0  3  0  0  0  0  0  0
  193.8960  176.3300  141.6380 C   0  0  0  0  0  2  0  0  0  0  0  0
  188.8780  175.5470  146.8850 N   0  0  0  0  0  0  0  0  0  0  0  0
  193.0530  177.1660  142.5840 C   0  0  0  0  0  2  0  0  0  0  0  0
  194.9680  175.8370  144.7150 C   0  0  1  0  0  3  0  0  0  0  0  0
  191.1150  175.2910  147.6560 C   0  0  0  0  0  3  0  0  0  0  0  0
  193.0860  175.9620  146.2790 C   0  0  1  0  0  3  0  0  0  0  0  0
  196.3240  174.3060  143.4330 O   0  0  0  0  0  0  0  0  0  0  0  0
  196.0140  173.1440  142.7220 C   0  0  0  0  0  2  0  0  0  0  0  0
  196.8160  171.6130  145.9110 C   0  0  0  0  0  2  0  0  0  0  0  0
  194.9980  171.6410  144.3500 N   0  0  0  0  0  2  0  0  0  0  0  0
  196.2150  171.9290  143.6080 C   0  0  2  0  0  3  0  0  0  0  0  0
  195.4420  171.0570  145.6060 C   0  0  0  0  0  2  0  0  0  0  0  0
  197.3100  172.2030  144.6140 C   0  0  0  0  0  2  0  0  0  0  0  0
  1 26  1  0  0  0  0
  3  7  1  1  0  0  0
  3 16  1  0  0  0  0
  4 23  2  0  0  0  0
  5 11  1  6  0  0  0
  5 15  1  0  0  0  0
  6 19  1  0  0  0  0
  8 12  1  0  0  0  0
  9 27  1  0  0  0  0
 10 17  1  0  0  0  0
 11 20  1  0  0  0  0
 13 20  1  0  0  0  0
 13  9  1  0  0  0  0
 14  2  1  0  0  0  0
 15 12  1  0  0  0  0
 15  4  1  0  0  0  0
 16  8  1  0  0  0  0
 17 28  1  0  0  0  0
 17 25  1  0  0  0  0
 18  4  1  0  0  0  0
 18  1  2  0  0  0  0
 19  3  1  0  0  0  0
 19  5  1  0  0  0  0
 20 18  1  0  0  0  0
 22 10  1  0  0  0  0
 22 24  1  0  0  0  0
 23 21  1  0  0  0  0
 24 13  1  0  0  0  0
 25  9  1  0  0  0  0
 25 14  1  0  0  0  0
 26 21  2  0  0  0  0
 27  1  1  0  0  0  0
 27  2  1  0  0  0  0
 29 28  1  0  0  0  0
 29 32  1  0  0  0  0
 31 33  1  0  0  0  0
 32 31  1  0  0  0  0
 32 34  1  0  0  0  0
 33 30  1  0  0  0  0
 34 30  1  0  0  0  0
M  END
>  <MODEL>
8

>  <REMARK>
 VINA RESULT:      -7.8      2.337      4.525
  Name = 
  3 active torsions:
  status: ('A' for Active; 'I' for Inactive)
    1  A    between atoms: C_17  and  O_28
    2  A    between atoms: O_28  and  C_29
    3  A    between atoms: C_29  and  C_32
                            x       y       z     vdW  Elec       q    Type
                         _______ _______ _______ _____ _____    ______ ____

>  <TORSDO>
F 3

$$$$
=
 OpenBabel11112417493D

 34 40  0  0  1  0  0  0  0  0999 V2000
  189.6970  174.7840  144.8310 C   0  0  0  0  0  0  0  0  0  0  0  0
  190.5280  172.9590  143.3290 C   0  0  0  0  0  2  0  0  0  0  0  0
  184.1720  178.0390  146.2660 C   0  0  1  0  0  3  0  0  0  0  0  0
  188.0070  175.9760  146.1070 C   0  0  0  0  0  0  0  0  0  0  0  0
  186.3350  177.5070  144.8790 C   0  0  2  0  0  3  0  0  0  0  0  0
  184.6240  179.1470  144.0500 C   0  0  0  0  0  1  0  0  0  0  0  0
  184.0600  176.8070  146.8880 F   0  0  0  0  0  0  0  0  0  0  0  0
  186.2920  179.2730  147.0960 C   0  0  0  0  0  2  0  0  0  0  0  0
  189.8400  175.0280  142.2540 C   0  0  2  0  0  3  0  0  0  0  0  0
  188.4960  174.5460  139.3750 C   0  0  0  0  0  2  0  0  0  0  0  0
  186.5890  176.5660  143.7120 C   0  0  0  0  0  2  0  0  0  0  0  0
  187.0940  177.9840  147.2790 C   0  0  0  0  0  2  0  0  0  0  0  0
  188.3570  175.4440  142.3480 C   0  0  1  0  0  3  0  0  0  0  0  0
  190.8690  172.8260  141.8670 C   0  0  0  0  0  2  0  0  0  0  0  0
  186.8180  176.9040  146.2190 C   0  0  2  0  0  3  0  0  0  0  0  0
  184.7810  179.0750  147.2220 C   0  0  0  0  0  2  0  0  0  0  0  0
  188.9780  173.4650  140.3310 C   0  0  2  0  0  3  0  0  0  0  0  0
  188.5860  175.6470  144.8590 C   0  0  0  0  0  0  0  0  0  0  0  0
  184.8450  177.9010  144.8870 C   0  0  2  0  0  3  0  0  0  0  0  0
  188.0850  176.2930  143.5930 C   0  0  2  0  0  3  0  0  0  0  0  0
  189.5630  174.5700  147.2330 C   0  0  0  0  0  3  0  0  0  0  0  0
  187.4160  175.3910  140.0240 C   0  0  0  0  0  2  0  0  0  0  0  0
  188.4990  175.4120  147.2450 N   0  0  0  0  0  0  0  0  0  0  0  0
  187.9950  176.2710  141.1170 C   0  0  0  0  0  2  0  0  0  0  0  0
  190.1690  173.9800  141.1600 C   0  0  1  0  0  3  0  0  0  0  0  0
  190.1860  174.2540  146.0290 C   0  0  0  0  0  3  0  0  0  0  0  0
  190.4160  174.4490  143.5520 C   0  0  1  0  0  3  0  0  0  0  0  0
  189.3540  172.3480  139.5790 O   0  0  0  0  0  0  0  0  0  0  0  0
  189.6350  172.8520  138.3070 C   0  0  0  0  0  2  0  0  0  0  0  0
  193.2520  172.8080  138.5800 C   0  0  0  0  0  2  0  0  0  0  0  0
  191.4350  171.2470  138.6620 N   0  0  0  0  0  2  0  0  0  0  0  0
  191.0040  172.3780  137.8550 C   0  0  2  0  0  3  0  0  0  0  0  0
  192.8850  171.3460  138.7190 C   0  0  0  0  0  2  0  0  0  0  0  0
  192.0170  173.4850  138.0400 C   0  0  0  0  0  2  0  0  0  0  0  0
  1 18  2  0  0  0  0
  1 26  1  0  0  0  0
  2 27  1  0  0  0  0
  3  7  1  1  0  0  0
  3 16  1  0  0  0  0
  4 15  1  0  0  0  0
  4 23  2  0  0  0  0
  5 11  1  6  0  0  0
  5 19  1  0  0  0  0
  5 15  1  0  0  0  0
  6 19  1  0  0  0  0
  8 16  1  0  0  0  0
  8 12  1  0  0  0  0
  9 13  1  0  0  0  0
  9 27  1  0  0  0  0
 10 22  1  0  0  0  0
 10 17  1  0  0  0  0
 13 20  1  0  0  0  0
 14  2  1  0  0  0  0
 15 12  1  0  0  0  0
 17 25  1  0  0  0  0
 18  4  1  0  0  0  0
 19  3  1  0  0  0  0
 20 11  1  0  0  0  0
 20 18  1  0  0  0  0
 21 23  1  0  0  0  0
 22 24  1  0  0  0  0
 24 13  1  0  0  0  0
 25 14  1  0  0  0  0
 25  9  1  0  0  0  0
 26 21  2  0  0  0  0
 27  1  1  0  0  0  0
 28 17  1  0  0  0  0
 29 28  1  0  0  0  0
 30 33  1  0  0  0  0
 31 33  1  0  0  0  0
 32 34  1  0  0  0  0
 32 29  1  0  0  0  0
 32 31  1  0  0  0  0
 34 30  1  0  0  0  0
M  END
>  <MODEL>
9

>  <REMARK>
 VINA RESULT:      -7.7      3.281      5.299
  Name = 
  3 active torsions:
  status: ('A' for Active; 'I' for Inactive)
    1  A    between atoms: C_17  and  O_28
    2  A    between atoms: O_28  and  C_29
    3  A    between atoms: C_29  and  C_32
                            x       y       z     vdW  Elec       q    Type
                         _______ _______ _______ _____ _____    ______ ____

>  <TORSDO>
F 3

$$$$
