=
 OpenBabel11112416403D

 32 37  0  0  1  0  0  0  0  0999 V2000
  188.0540  177.3210  143.8620 C   0  0  0  0  0  0  0  0  0  0  0  0
  186.1490  178.4690  148.1570 C   0  0  0  0  0  3  0  0  0  0  0  0
  184.7930  178.4510  147.5750 C   0  0  0  0  0  3  0  0  0  0  0  0
  186.6400  177.4790  141.8590 C   0  0  0  0  0  0  0  0  0  0  0  0
  185.3710  177.7490  141.3570 C   0  0  0  0  0  0  0  0  0  0  0  0
  190.4800  176.9980  143.6650 C   0  0  0  0  0  0  0  0  0  0  0  0
  189.4880  177.1640  145.8930 C   0  0  0  0  0  3  0  0  0  0  0  0
  183.1820  178.2630  141.4340 N   0  0  0  0  0  0  0  0  0  0  0  0
  187.1930  177.9740  147.4840 C   0  0  0  0  0  3  0  0  0  0  0  0
  188.1910  177.3520  145.3000 N   0  0  0  0  0  0  0  0  0  0  0  0
  187.0060  177.2760  146.1560 C   0  0  2  0  0  3  0  0  0  0  0  0
  185.6780  177.7490  144.1050 C   0  0  0  0  0  0  0  0  0  0  0  0
  183.4290  178.1550  140.0520 N   0  0  0  0  0  0  0  0  0  0  0  0
  190.5850  176.9860  145.1470 C   0  0  0  0  0  0  0  0  0  0  0  0
  184.8700  177.8170  139.9510 C   0  0  0  0  0  3  0  0  0  0  0  0
  184.6050  178.1270  146.2920 C   0  0  0  0  0  3  0  0  0  0  0  0
  185.7610  177.7510  145.4480 C   0  0  0  0  0  0  0  0  0  0  0  0
  184.4690  178.0240  143.5230 N   0  0  0  0  0  2  0  0  0  0  0  0
  189.2930  177.1470  143.0730 C   0  0  0  0  0  3  0  0  0  0  0  0
  187.5730  177.2330  141.0480 O   0  0  0  0  0  0  0  0  0  0  0  0
  181.8790  178.5780  141.9890 C   0  0  0  0  0  1  0  0  0  0  0  0
  186.8310  177.4930  143.2800 C   0  0  0  0  0  0  0  0  0  0  0  0
  184.3460  178.0190  142.1770 C   0  0  0  0  0  0  0  0  0  0  0  0
  191.7600  176.2790  147.1040 O   0  0  0  0  0  0  0  0  0  0  0  0
  191.9190  176.8530  145.8250 C   0  0  1  0  0  3  0  0  0  0  0  0
  192.2320  175.4290  146.0920 C   0  0  1  0  0  3  0  0  0  0  0  0
  193.7300  175.2520  146.2550 C   0  0  0  0  0  2  0  0  0  0  0  0
  194.2080  174.1320  145.4000 C   0  0  0  0  0  0  0  0  0  0  0  0
  194.9120  174.3690  144.3850 O   0  0  0  0  0  0  0  0  0  0  0  0
  193.9060  172.8200  145.7430 O   0  0  0  0  0  1  0  0  0  0  0  0
  191.8610  175.3760  142.4110 C   0  0  0  0  0  1  0  0  0  0  0  0
  191.6890  176.8320  142.8050 C   0  0  0  0  0  2  0  0  0  0  0  0
  1 10  1  0  0  0  0
  3  2  1  0  0  0  0
  4 22  1  0  0  0  0
  5  4  1  0  0  0  0
  5 23  2  0  0  0  0
  6 14  1  0  0  0  0
  8 21  1  0  0  0  0
  8 23  1  0  0  0  0
  9  2  2  0  0  0  0
 10  7  1  0  0  0  0
 10 11  1  0  0  0  0
 11  9  1  1  0  0  0
 12 17  2  0  0  0  0
 13  8  1  0  0  0  0
 14  7  2  0  0  0  0
 15 13  2  0  0  0  0
 15  5  1  0  0  0  0
 16  3  2  0  0  0  0
 17 11  1  0  0  0  0
 17 16  1  0  0  0  0
 18 12  1  0  0  0  0
 19  6  2  0  0  0  0
 19  1  1  0  0  0  0
 20  4  2  0  0  0  0
 22  1  2  0  0  0  0
 22 12  1  0  0  0  0
 23 18  1  0  0  0  0
 25 14  1  6  0  0  0
 25 26  1  0  0  0  0
 25 24  1  0  0  0  0
 26 27  1  1  0  0  0
 26 24  1  0  0  0  0
 28 30  1  0  0  0  0
 28 27  1  0  0  0  0
 29 28  2  0  0  0  0
 31 32  1  0  0  0  0
 32  6  1  0  0  0  0
M  END
>  <MODEL>
1

>  <REMARK>
 VINA RESULT:      -8.4      0.000      0.000
  Name = 
  4 active torsions:
  status: ('A' for Active; 'I' for Inactive)
    1  A    between atoms: C_7  and  C_19
    2  A    between atoms: C_10  and  C_17
    3  A    between atoms: C_20  and  C_29
    4  A    between atoms: C_29  and  C_30
                            x       y       z     vdW  Elec       q    Type
                         _______ _______ _______ _____ _____    ______ ____

>  <TORSDO>
F 4

$$$$
=
 OpenBabel11112416403D

 32 37  0  0  1  0  0  0  0  0999 V2000
  187.1230  177.7040  143.0770 C   0  0  0  0  0  0  0  0  0  0  0  0
  184.2780  178.4040  146.9250 C   0  0  0  0  0  3  0  0  0  0  0  0
  185.4430  178.2890  147.8230 C   0  0  0  0  0  3  0  0  0  0  0  0
  189.4140  176.8890  143.4300 C   0  0  0  0  0  0  0  0  0  0  0  0
  190.3840  176.5330  144.3600 C   0  0  0  0  0  0  0  0  0  0  0  0
  186.1450  177.7660  140.8250 C   0  0  0  0  0  0  0  0  0  0  0  0
  184.7980  178.5260  142.7180 C   0  0  0  0  0  3  0  0  0  0  0  0
  191.2820  176.2330  146.4010 N   0  0  0  0  0  0  0  0  0  0  0  0
  184.4380  178.5360  145.6040 C   0  0  0  0  0  3  0  0  0  0  0  0
  185.8820  178.2130  143.6120 N   0  0  0  0  0  0  0  0  0  0  0  0
  185.8150  178.6870  144.9950 C   0  0  2  0  0  3  0  0  0  0  0  0
  188.0070  177.5580  145.3310 C   0  0  0  0  0  0  0  0  0  0  0  0
  192.3050  175.7910  145.5420 N   0  0  0  0  0  0  0  0  0  0  0  0
  184.8970  178.3340  141.3970 C   0  0  0  0  0  0  0  0  0  0  0  0
  191.7550  175.9690  144.1760 C   0  0  0  0  0  3  0  0  0  0  0  0
  186.6710  178.1120  147.3290 C   0  0  0  0  0  3  0  0  0  0  0  0
  186.8780  178.0610  145.8640 C   0  0  0  0  0  0  0  0  0  0  0  0
  189.0100  177.1630  146.1760 N   0  0  0  0  0  2  0  0  0  0  0  0
  187.1830  177.4820  141.6150 C   0  0  0  0  0  3  0  0  0  0  0  0
  189.6680  176.7460  142.2030 O   0  0  0  0  0  0  0  0  0  0  0  0
  191.4010  176.2390  147.8480 C   0  0  0  0  0  1  0  0  0  0  0  0
  188.1640  177.4050  143.9070 C   0  0  0  0  0  0  0  0  0  0  0  0
  190.1610  176.6640  145.6750 C   0  0  0  0  0  0  0  0  0  0  0  0
  183.1980  177.4310  139.9800 O   0  0  0  0  0  0  0  0  0  0  0  0
  183.7110  178.6270  140.5240 C   0  0  1  0  0  3  0  0  0  0  0  0
  182.4900  177.9800  141.0600 C   0  0  1  0  0  3  0  0  0  0  0  0
  181.2570  178.6870  140.5330 C   0  0  0  0  0  2  0  0  0  0  0  0
  180.3890  179.1130  141.6650 C   0  0  0  0  0  0  0  0  0  0  0  0
  180.9050  179.4760  142.7530 O   0  0  0  0  0  1  0  0  0  0  0  0
  179.0100  179.1440  141.5080 O   0  0  0  0  0  0  0  0  0  0  0  0
  187.0040  176.2040  139.1120 C   0  0  0  0  0  1  0  0  0  0  0  0
  186.2760  177.5130  139.3590 C   0  0  0  0  0  2  0  0  0  0  0  0
  1 10  1  0  0  0  0
  1 22  2  0  0  0  0
  2  3  1  0  0  0  0
  4 22  1  0  0  0  0
  4  5  1  0  0  0  0
  5 23  2  0  0  0  0
  6 14  1  0  0  0  0
  6 19  2  0  0  0  0
  7 10  1  0  0  0  0
  8 21  1  0  0  0  0
  9  2  2  0  0  0  0
 10 11  1  0  0  0  0
 11  9  1  1  0  0  0
 11 17  1  0  0  0  0
 12 17  2  0  0  0  0
 12 18  1  0  0  0  0
 13  8  1  0  0  0  0
 14  7  2  0  0  0  0
 15  5  1  0  0  0  0
 15 13  2  0  0  0  0
 16  3  2  0  0  0  0
 17 16  1  0  0  0  0
 19  1  1  0  0  0  0
 20  4  2  0  0  0  0
 22 12  1  0  0  0  0
 23 18  1  0  0  0  0
 23  8  1  0  0  0  0
 24 25  1  0  0  0  0
 24 26  1  0  0  0  0
 25 26  1  0  0  0  0
 25 14  1  1  0  0  0
 26 27  1  6  0  0  0
 27 28  1  0  0  0  0
 28 29  1  0  0  0  0
 30 28  2  0  0  0  0
 31 32  1  0  0  0  0
 32  6  1  0  0  0  0
M  END
>  <MODEL>
2

>  <REMARK>
 VINA RESULT:      -8.3      2.664      8.030
  Name = 
  4 active torsions:
  status: ('A' for Active; 'I' for Inactive)
    1  A    between atoms: C_7  and  C_19
    2  A    between atoms: C_10  and  C_17
    3  A    between atoms: C_20  and  C_29
    4  A    between atoms: C_29  and  C_30
                            x       y       z     vdW  Elec       q    Type
                         _______ _______ _______ _____ _____    ______ ____

>  <TORSDO>
F 4

$$$$
=
 OpenBabel11112416403D

 32 37  0  0  1  0  0  0  0  0999 V2000
  189.3520  176.1060  144.8630 C   0  0  0  0  0  0  0  0  0  0  0  0
  189.5330  173.9170  140.5540 C   0  0  0  0  0  3  0  0  0  0  0  0
  188.3630  174.6910  140.0970 C   0  0  0  0  0  3  0  0  0  0  0  0
  187.3500  177.4060  145.4490 C   0  0  0  0  0  0  0  0  0  0  0  0
  186.1130  177.8780  145.0250 C   0  0  0  0  0  0  0  0  0  0  0  0
  191.0440  175.5720  146.5610 C   0  0  0  0  0  0  0  0  0  0  0  0
  191.3800  174.7860  144.2710 C   0  0  0  0  0  3  0  0  0  0  0  0
  184.4110  178.2250  143.5950 N   0  0  0  0  0  0  0  0  0  0  0  0
  190.1770  174.2440  141.6800 C   0  0  0  0  0  3  0  0  0  0  0  0
  190.1260  175.3780  143.8850 N   0  0  0  0  0  0  0  0  0  0  0  0
  189.8030  175.4830  142.4620 C   0  0  2  0  0  3  0  0  0  0  0  0
  187.6560  176.5160  143.1780 C   0  0  0  0  0  0  0  0  0  0  0  0
  183.9620  178.8510  144.7730 N   0  0  0  0  0  0  0  0  0  0  0  0
  191.8430  174.8700  145.5240 C   0  0  0  0  0  0  0  0  0  0  0  0
  185.0570  178.6450  145.7520 C   0  0  0  0  0  3  0  0  0  0  0  0
  187.7980  175.6060  140.8900 C   0  0  0  0  0  3  0  0  0  0  0  0
  188.3640  175.8740  142.2310 C   0  0  0  0  0  0  0  0  0  0  0  0
  186.4160  177.0000  142.8530 N   0  0  0  0  0  2  0  0  0  0  0  0
  189.8850  176.1540  146.2430 C   0  0  0  0  0  3  0  0  0  0  0  0
  187.7120  177.6340  146.6350 O   0  0  0  0  0  0  0  0  0  0  0  0
  183.6400  178.1920  142.3660 C   0  0  0  0  0  1  0  0  0  0  0  0
  188.1620  176.6790  144.5170 C   0  0  0  0  0  0  0  0  0  0  0  0
  185.6820  177.6600  143.7740 C   0  0  0  0  0  0  0  0  0  0  0  0
  193.7930  173.7550  144.7060 O   0  0  0  0  0  0  0  0  0  0  0  0
  193.1320  174.1830  145.8770 C   0  0  1  0  0  3  0  0  0  0  0  0
  194.2900  174.9180  145.3150 C   0  0  1  0  0  3  0  0  0  0  0  0
  195.5460  174.5700  146.0900 C   0  0  0  0  0  2  0  0  0  0  0  0
  196.7000  174.4370  145.1590 C   0  0  0  0  0  0  0  0  0  0  0  0
  197.5650  173.5450  145.3500 O   0  0  0  0  0  1  0  0  0  0  0  0
  196.8030  175.2780  144.0590 O   0  0  0  0  0  0  0  0  0  0  0  0
  191.4530  177.0910  148.4690 C   0  0  0  0  0  1  0  0  0  0  0  0
  191.5180  175.6570  147.9740 C   0  0  0  0  0  2  0  0  0  0  0  0
  1 19  1  0  0  0  0
  2  9  2  0  0  0  0
  3  2  1  0  0  0  0
  3 16  2  0  0  0  0
  4 20  2  0  0  0  0
  5  4  1  0  0  0  0
  5 15  1  0  0  0  0
  6 32  1  0  0  0  0
  7 14  2  0  0  0  0
  8 23  1  0  0  0  0
  8 13  1  0  0  0  0
 10  7  1  0  0  0  0
 10  1  1  0  0  0  0
 11  9  1  6  0  0  0
 11 10  1  0  0  0  0
 12 22  1  0  0  0  0
 13 15  2  0  0  0  0
 14  6  1  0  0  0  0
 16 17  1  0  0  0  0
 17 11  1  0  0  0  0
 17 12  2  0  0  0  0
 18 12  1  0  0  0  0
 18 23  1  0  0  0  0
 19  6  2  0  0  0  0
 21  8  1  0  0  0  0
 22  1  2  0  0  0  0
 22  4  1  0  0  0  0
 23  5  2  0  0  0  0
 24 26  1  0  0  0  0
 24 25  1  0  0  0  0
 25 14  1  6  0  0  0
 26 25  1  0  0  0  0
 26 27  1  1  0  0  0
 28 29  1  0  0  0  0
 28 27  1  0  0  0  0
 30 28  2  0  0  0  0
 32 31  1  0  0  0  0
M  END
>  <MODEL>
3

>  <REMARK>
 VINA RESULT:      -7.9      2.124      4.521
  Name = 
  4 active torsions:
  status: ('A' for Active; 'I' for Inactive)
    1  A    between atoms: C_7  and  C_19
    2  A    between atoms: C_10  and  C_17
    3  A    between atoms: C_20  and  C_29
    4  A    between atoms: C_29  and  C_30
                            x       y       z     vdW  Elec       q    Type
                         _______ _______ _______ _____ _____    ______ ____

>  <TORSDO>
F 4

$$$$
=
 OpenBabel11112416403D

 32 37  0  0  1  0  0  0  0  0999 V2000
  188.7320  176.5590  144.6890 C   0  0  0  0  0  0  0  0  0  0  0  0
  188.5650  174.4840  140.3230 C   0  0  0  0  0  3  0  0  0  0  0  0
  189.8760  173.8480  140.5610 C   0  0  0  0  0  3  0  0  0  0  0  0
  190.8580  176.5560  145.9220 C   0  0  0  0  0  0  0  0  0  0  0  0
  192.1840  176.1390  145.9380 C   0  0  0  0  0  0  0  0  0  0  0  0
  186.8440  177.9350  145.4440 C   0  0  0  0  0  0  0  0  0  0  0  0
  186.5780  176.5660  143.4370 C   0  0  0  0  0  3  0  0  0  0  0  0
  194.0320  175.0880  145.2010 N   0  0  0  0  0  0  0  0  0  0  0  0
  187.8900  175.0620  141.3220 C   0  0  0  0  0  3  0  0  0  0  0  0
  187.9360  176.1100  143.5700 N   0  0  0  0  0  0  0  0  0  0  0  0
  188.3880  174.9860  142.7480 C   0  0  2  0  0  3  0  0  0  0  0  0
  190.6050  175.2690  143.8430 C   0  0  0  0  0  0  0  0  0  0  0  0
  194.4750  175.7030  146.3870 N   0  0  0  0  0  0  0  0  0  0  0  0
  186.0320  177.4200  144.3110 C   0  0  0  0  0  0  0  0  0  0  0  0
  193.2840  176.4150  146.9110 C   0  0  0  0  0  3  0  0  0  0  0  0
  190.5100  174.0070  141.7260 C   0  0  0  0  0  3  0  0  0  0  0  0
  189.8840  174.8030  142.8060 C   0  0  0  0  0  0  0  0  0  0  0  0
  191.9270  174.9230  143.9290 N   0  0  0  0  0  2  0  0  0  0  0  0
  188.1020  177.5220  145.6180 C   0  0  0  0  0  3  0  0  0  0  0  0
  190.4400  177.2870  146.8600 O   0  0  0  0  0  0  0  0  0  0  0  0
  194.8860  174.2710  144.3590 C   0  0  0  0  0  1  0  0  0  0  0  0
  190.0220  176.1360  144.8350 C   0  0  0  0  0  0  0  0  0  0  0  0
  192.6770  175.3640  144.9620 C   0  0  0  0  0  0  0  0  0  0  0  0
  184.6140  179.3010  143.9120 O   0  0  0  0  0  0  0  0  0  0  0  0
  184.6270  177.9020  144.0860 C   0  0  1  0  0  3  0  0  0  0  0  0
  184.4940  178.5260  142.7480 C   0  0  1  0  0  3  0  0  0  0  0  0
  183.0410  178.5090  142.3140 C   0  0  0  0  0  2  0  0  0  0  0  0
  182.9490  178.2650  140.8480 C   0  0  0  0  0  0  0  0  0  0  0  0
  183.9860  178.2930  140.1380 O   0  0  0  0  0  0  0  0  0  0  0  0
  181.7210  177.9710  140.2710 O   0  0  0  0  0  1  0  0  0  0  0  0
  185.8070  178.1950  147.6730 C   0  0  0  0  0  1  0  0  0  0  0  0
  186.2740  178.9120  146.4190 C   0  0  0  0  0  2  0  0  0  0  0  0
  1 22  2  0  0  0  0
  1 19  1  0  0  0  0
  2  3  1  0  0  0  0
  2  9  2  0  0  0  0
  3 16  2  0  0  0  0
  4  5  1  0  0  0  0
  4 20  2  0  0  0  0
  5 15  1  0  0  0  0
  6 19  2  0  0  0  0
  6 32  1  0  0  0  0
  7 10  1  0  0  0  0
  7 14  2  0  0  0  0
  8 13  1  0  0  0  0
 10  1  1  0  0  0  0
 11  9  1  6  0  0  0
 11 17  1  0  0  0  0
 11 10  1  0  0  0  0
 12 18  1  0  0  0  0
 12 22  1  0  0  0  0
 13 15  2  0  0  0  0
 14  6  1  0  0  0  0
 16 17  1  0  0  0  0
 17 12  2  0  0  0  0
 18 23  1  0  0  0  0
 21  8  1  0  0  0  0
 22  4  1  0  0  0  0
 23  8  1  0  0  0  0
 23  5  2  0  0  0  0
 24 25  1  0  0  0  0
 25 14  1  6  0  0  0
 26 27  1  1  0  0  0
 26 24  1  0  0  0  0
 26 25  1  0  0  0  0
 28 27  1  0  0  0  0
 29 28  2  0  0  0  0
 30 28  1  0  0  0  0
 32 31  1  0  0  0  0
M  END
>  <MODEL>
4

>  <REMARK>
 VINA RESULT:      -7.7      2.821      8.615
  Name = 
  4 active torsions:
  status: ('A' for Active; 'I' for Inactive)
    1  A    between atoms: C_7  and  C_19
    2  A    between atoms: C_10  and  C_17
    3  A    between atoms: C_20  and  C_29
    4  A    between atoms: C_29  and  C_30
                            x       y       z     vdW  Elec       q    Type
                         _______ _______ _______ _____ _____    ______ ____

>  <TORSDO>
F 4

$$$$
=
 OpenBabel11112416403D

 32 37  0  0  1  0  0  0  0  0999 V2000
  188.7830  175.2260  143.2340 C   0  0  0  0  0  0  0  0  0  0  0  0
  192.1510  175.1610  146.7040 C   0  0  0  0  0  3  0  0  0  0  0  0
  191.2240  175.8350  147.6340 C   0  0  0  0  0  3  0  0  0  0  0  0
  186.7890  176.6280  143.5440 C   0  0  0  0  0  0  0  0  0  0  0  0
  186.1000  177.4860  144.3930 C   0  0  0  0  0  0  0  0  0  0  0  0
  189.2740  174.2060  141.0550 C   0  0  0  0  0  0  0  0  0  0  0  0
  190.8060  173.8060  142.9180 C   0  0  0  0  0  3  0  0  0  0  0  0
  185.6870  178.6370  146.2820 N   0  0  0  0  0  0  0  0  0  0  0  0
  191.7150  174.6490  145.5480 C   0  0  0  0  0  3  0  0  0  0  0  0
  189.9920  174.6390  143.7630 N   0  0  0  0  0  0  0  0  0  0  0  0
  190.2420  174.6400  145.2050 C   0  0  2  0  0  3  0  0  0  0  0  0
  188.3970  176.3010  145.3740 C   0  0  0  0  0  0  0  0  0  0  0  0
  184.6120  179.0050  145.4520 N   0  0  0  0  0  0  0  0  0  0  0  0
  190.4870  173.5760  141.6380 C   0  0  0  0  0  0  0  0  0  0  0  0
  184.8430  178.2680  144.1850 C   0  0  0  0  0  3  0  0  0  0  0  0
  189.9750  176.1260  147.2610 C   0  0  0  0  0  3  0  0  0  0  0  0
  189.4980  175.7460  145.9120 C   0  0  0  0  0  0  0  0  0  0  0  0
  187.6660  177.1740  146.1350 N   0  0  0  0  0  2  0  0  0  0  0  0
  188.4790  174.9690  141.8090 C   0  0  0  0  0  3  0  0  0  0  0  0
  186.3300  176.4210  142.3880 O   0  0  0  0  0  0  0  0  0  0  0  0
  185.8530  179.1290  147.6380 C   0  0  0  0  0  1  0  0  0  0  0  0
  187.9950  176.0160  144.0200 C   0  0  0  0  0  0  0  0  0  0  0  0
  186.5480  177.7420  145.6310 C   0  0  0  0  0  0  0  0  0  0  0  0
  192.1870  171.8960  141.6080 O   0  0  0  0  0  0  0  0  0  0  0  0
  191.4080  172.7430  140.7920 C   0  0  1  0  0  3  0  0  0  0  0  0
  191.1020  171.3010  140.9470 C   0  0  1  0  0  3  0  0  0  0  0  0
  191.6180  170.5330  139.7450 C   0  0  0  0  0  2  0  0  0  0  0  0
  190.6350  169.4900  139.3440 C   0  0  0  0  0  0  0  0  0  0  0  0
  190.5270  168.4330  140.0170 O   0  0  0  0  0  1  0  0  0  0  0  0
  189.8110  169.6990  138.2460 O   0  0  0  0  0  0  0  0  0  0  0  0
  188.1910  172.6650  139.4530 C   0  0  0  0  0  1  0  0  0  0  0  0
  188.9080  173.9930  139.6230 C   0  0  0  0  0  2  0  0  0  0  0  0
  1 10  1  0  0  0  0
  1 22  2  0  0  0  0
  2  3  1  0  0  0  0
  4 22  1  0  0  0  0
  4  5  1  0  0  0  0
  5 23  2  0  0  0  0
  6 14  1  0  0  0  0
  6 19  2  0  0  0  0
  7 10  1  0  0  0  0
  8 21  1  0  0  0  0
  9  2  2  0  0  0  0
 10 11  1  0  0  0  0
 11  9  1  6  0  0  0
 11 17  1  0  0  0  0
 12 17  2  0  0  0  0
 12 18  1  0  0  0  0
 13  8  1  0  0  0  0
 14  7  2  0  0  0  0
 15  5  1  0  0  0  0
 15 13  2  0  0  0  0
 16  3  2  0  0  0  0
 17 16  1  0  0  0  0
 19  1  1  0  0  0  0
 20  4  2  0  0  0  0
 22 12  1  0  0  0  0
 23 18  1  0  0  0  0
 23  8  1  0  0  0  0
 25 26  1  0  0  0  0
 25 24  1  0  0  0  0
 25 14  1  1  0  0  0
 26 27  1  6  0  0  0
 26 24  1  0  0  0  0
 28 27  1  0  0  0  0
 28 29  1  0  0  0  0
 30 28  2  0  0  0  0
 31 32  1  0  0  0  0
 32  6  1  0  0  0  0
M  END
>  <MODEL>
5

>  <REMARK>
 VINA RESULT:      -7.5      3.502      5.515
  Name = 
  4 active torsions:
  status: ('A' for Active; 'I' for Inactive)
    1  A    between atoms: C_7  and  C_19
    2  A    between atoms: C_10  and  C_17
    3  A    between atoms: C_20  and  C_29
    4  A    between atoms: C_29  and  C_30
                            x       y       z     vdW  Elec       q    Type
                         _______ _______ _______ _____ _____    ______ ____

>  <TORSDO>
F 4

$$$$
=
 OpenBabel11112416403D

 32 37  0  0  1  0  0  0  0  0999 V2000
  187.8970  176.7830  143.3830 C   0  0  0  0  0  0  0  0  0  0  0  0
  188.8470  174.1690  139.4260 C   0  0  0  0  0  3  0  0  0  0  0  0
  189.8410  173.3750  140.1730 C   0  0  0  0  0  3  0  0  0  0  0  0
  189.4200  176.6190  145.3050 C   0  0  0  0  0  0  0  0  0  0  0  0
  190.5480  176.0050  145.8370 C   0  0  0  0  0  0  0  0  0  0  0  0
  186.1750  178.5310  143.2910 C   0  0  0  0  0  0  0  0  0  0  0  0
  186.3560  176.9530  141.4330 C   0  0  0  0  0  3  0  0  0  0  0  0
  192.2910  174.5830  145.9080 N   0  0  0  0  0  0  0  0  0  0  0  0
  187.9950  174.9800  140.0630 C   0  0  0  0  0  3  0  0  0  0  0  0
  187.4660  176.3120  142.0870 N   0  0  0  0  0  0  0  0  0  0  0  0
  187.9430  175.0280  141.5730 C   0  0  2  0  0  3  0  0  0  0  0  0
  189.6530  175.1090  143.3790 C   0  0  0  0  0  0  0  0  0  0  0  0
  192.4080  175.2820  147.1240 N   0  0  0  0  0  0  0  0  0  0  0  0
  185.7210  177.9960  141.9810 C   0  0  0  0  0  0  0  0  0  0  0  0
  191.2750  176.2390  147.1220 C   0  0  0  0  0  3  0  0  0  0  0  0
  190.0510  173.5940  141.4750 C   0  0  0  0  0  3  0  0  0  0  0  0
  189.2600  174.6210  142.1880 C   0  0  0  0  0  0  0  0  0  0  0  0
  190.7680  174.5750  143.9690 N   0  0  0  0  0  2  0  0  0  0  0  0
  187.1870  177.9540  143.9430 C   0  0  0  0  0  3  0  0  0  0  0  0
  188.8560  177.5310  145.9680 O   0  0  0  0  0  0  0  0  0  0  0  0
  193.2050  173.5330  145.4990 C   0  0  0  0  0  1  0  0  0  0  0  0
  188.9460  176.1870  144.0220 C   0  0  0  0  0  0  0  0  0  0  0  0
  191.1860  175.0330  145.1700 C   0  0  0  0  0  0  0  0  0  0  0  0
  184.0120  177.7380  140.3310 O   0  0  0  0  0  0  0  0  0  0  0  0
  184.6060  178.6560  141.2220 C   0  0  1  0  0  3  0  0  0  0  0  0
  183.3090  178.0010  141.5170 C   0  0  1  0  0  3  0  0  0  0  0  0
  182.1690  178.9540  141.2140 C   0  0  0  0  0  2  0  0  0  0  0  0
  180.9250  178.1880  140.9290 C   0  0  0  0  0  0  0  0  0  0  0  0
  180.6390  177.8660  139.7480 O   0  0  0  0  0  0  0  0  0  0  0  0
  180.0970  177.7980  141.9730 O   0  0  0  0  0  1  0  0  0  0  0  0
  184.9510  179.3450  145.2780 C   0  0  0  0  0  1  0  0  0  0  0  0
  185.5070  179.7120  143.9140 C   0  0  0  0  0  2  0  0  0  0  0  0
  1 19  1  0  0  0  0
  1 22  2  0  0  0  0
  2  9  2  0  0  0  0
  2  3  1  0  0  0  0
  3 16  2  0  0  0  0
  4  5  1  0  0  0  0
  4 20  2  0  0  0  0
  5 15  1  0  0  0  0
  6 32  1  0  0  0  0
  6 19  2  0  0  0  0
  7 14  2  0  0  0  0
  7 10  1  0  0  0  0
  8 13  1  0  0  0  0
 10  1  1  0  0  0  0
 11  9  1  6  0  0  0
 11 10  1  0  0  0  0
 11 17  1  0  0  0  0
 12 18  1  0  0  0  0
 12 22  1  0  0  0  0
 14  6  1  0  0  0  0
 15 13  2  0  0  0  0
 16 17  1  0  0  0  0
 17 12  2  0  0  0  0
 18 23  1  0  0  0  0
 21  8  1  0  0  0  0
 22  4  1  0  0  0  0
 23  5  2  0  0  0  0
 23  8  1  0  0  0  0
 24 25  1  0  0  0  0
 24 26  1  0  0  0  0
 25 26  1  0  0  0  0
 25 14  1  1  0  0  0
 26 27  1  6  0  0  0
 28 27  1  0  0  0  0
 28 30  1  0  0  0  0
 29 28  2  0  0  0  0
 32 31  1  0  0  0  0
M  END
>  <MODEL>
6

>  <REMARK>
 VINA RESULT:      -7.2      3.098      8.899
  Name = 
  4 active torsions:
  status: ('A' for Active; 'I' for Inactive)
    1  A    between atoms: C_7  and  C_19
    2  A    between atoms: C_10  and  C_17
    3  A    between atoms: C_20  and  C_29
    4  A    between atoms: C_29  and  C_30
                            x       y       z     vdW  Elec       q    Type
                         _______ _______ _______ _____ _____    ______ ____

>  <TORSDO>
F 4

$$$$
=
 OpenBabel11112416403D

 32 37  0  0  1  0  0  0  0  0999 V2000
  191.5180  175.7690  144.4350 C   0  0  0  0  0  0  0  0  0  0  0  0
  189.0310  173.9270  140.7180 C   0  0  0  0  0  3  0  0  0  0  0  0
  190.2910  173.5660  140.0380 C   0  0  0  0  0  3  0  0  0  0  0  0
  193.9330  176.1450  144.1750 C   0  0  0  0  0  0  0  0  0  0  0  0
  195.0410  176.0120  143.3460 C   0  0  0  0  0  0  0  0  0  0  0  0
  190.3050  176.6830  146.3640 C   0  0  0  0  0  0  0  0  0  0  0  0
  189.0700  175.3920  144.6970 C   0  0  0  0  0  3  0  0  0  0  0  0
  196.1890  175.4050  141.5090 N   0  0  0  0  0  0  0  0  0  0  0  0
  189.0260  174.3020  142.0020 C   0  0  0  0  0  3  0  0  0  0  0  0
  190.2780  175.2210  143.9360 N   0  0  0  0  0  0  0  0  0  0  0  0
  190.2880  174.2590  142.8330 C   0  0  2  0  0  3  0  0  0  0  0  0
  192.6520  174.9390  142.4570 C   0  0  0  0  0  0  0  0  0  0  0  0
  197.1700  176.0380  142.2950 N   0  0  0  0  0  0  0  0  0  0  0  0
  189.0530  176.0690  145.8520 C   0  0  0  0  0  0  0  0  0  0  0  0
  196.4550  176.4610  143.5240 C   0  0  0  0  0  3  0  0  0  0  0  0
  191.4710  173.7940  140.6210 C   0  0  0  0  0  3  0  0  0  0  0  0
  191.5240  174.3870  141.9760 C   0  0  0  0  0  0  0  0  0  0  0  0
  193.7900  174.8720  141.6980 N   0  0  0  0  0  2  0  0  0  0  0  0
  191.4540  176.5320  145.7010 C   0  0  0  0  0  3  0  0  0  0  0  0
  194.0720  176.7250  145.2860 O   0  0  0  0  0  0  0  0  0  0  0  0
  196.4620  174.8270  140.2060 C   0  0  0  0  0  1  0  0  0  0  0  0
  192.6770  175.6150  143.7300 C   0  0  0  0  0  0  0  0  0  0  0  0
  194.9440  175.4060  142.1550 C   0  0  0  0  0  0  0  0  0  0  0  0
  187.5210  177.6310  146.8120 O   0  0  0  0  0  0  0  0  0  0  0  0
  187.7480  176.2600  146.5710 C   0  0  1  0  0  3  0  0  0  0  0  0
  186.8070  177.0560  145.7490 C   0  0  1  0  0  3  0  0  0  0  0  0
  185.3820  176.7930  146.1970 C   0  0  0  0  0  2  0  0  0  0  0  0
  184.5560  178.0190  146.0190 C   0  0  0  0  0  0  0  0  0  0  0  0
  184.1590  178.6630  147.0230 O   0  0  0  0  0  1  0  0  0  0  0  0
  184.2520  178.4700  144.7420 O   0  0  0  0  0  0  0  0  0  0  0  0
  191.5660  177.1640  148.4360 C   0  0  0  0  0  1  0  0  0  0  0  0
  190.3140  177.4700  147.6330 C   0  0  0  0  0  2  0  0  0  0  0  0
  1 19  1  0  0  0  0
  2  9  2  0  0  0  0
  3 16  2  0  0  0  0
  3  2  1  0  0  0  0
  4 20  2  0  0  0  0
  5 15  1  0  0  0  0
  5  4  1  0  0  0  0
  6 32  1  0  0  0  0
  7 14  2  0  0  0  0
  8 23  1  0  0  0  0
  8 13  1  0  0  0  0
 10  1  1  0  0  0  0
 10  7  1  0  0  0  0
 11  9  1  6  0  0  0
 11 10  1  0  0  0  0
 12 22  1  0  0  0  0
 13 15  2  0  0  0  0
 14  6  1  0  0  0  0
 16 17  1  0  0  0  0
 17 12  2  0  0  0  0
 17 11  1  0  0  0  0
 18 23  1  0  0  0  0
 18 12  1  0  0  0  0
 19  6  2  0  0  0  0
 21  8  1  0  0  0  0
 22  4  1  0  0  0  0
 22  1  2  0  0  0  0
 23  5  2  0  0  0  0
 25 14  1  6  0  0  0
 25 24  1  0  0  0  0
 26 27  1  1  0  0  0
 26 25  1  0  0  0  0
 26 24  1  0  0  0  0
 28 27  1  0  0  0  0
 28 29  1  0  0  0  0
 30 28  2  0  0  0  0
 32 31  1  0  0  0  0
M  END
>  <MODEL>
7

>  <REMARK>
 VINA RESULT:      -7.1      3.848      8.582
  Name = 
  4 active torsions:
  status: ('A' for Active; 'I' for Inactive)
    1  A    between atoms: C_7  and  C_19
    2  A    between atoms: C_10  and  C_17
    3  A    between atoms: C_20  and  C_29
    4  A    between atoms: C_29  and  C_30
                            x       y       z     vdW  Elec       q    Type
                         _______ _______ _______ _____ _____    ______ ____

>  <TORSDO>
F 4

$$$$
=
 OpenBabel11112416403D

 32 37  0  0  1  0  0  0  0  0999 V2000
  189.5020  174.1740  142.7170 C   0  0  0  0  0  0  0  0  0  0  0  0
  188.3820  173.9920  138.0150 C   0  0  0  0  0  3  0  0  0  0  0  0
  188.9070  172.6160  137.9300 C   0  0  0  0  0  3  0  0  0  0  0  0
  190.9640  172.4360  143.6550 C   0  0  0  0  0  0  0  0  0  0  0  0
  191.6660  171.2600  143.4110 C   0  0  0  0  0  0  0  0  0  0  0  0
  188.9550  176.1880  144.0110 C   0  0  0  0  0  0  0  0  0  0  0  0
  188.0230  175.9390  141.7650 C   0  0  0  0  0  3  0  0  0  0  0  0
  192.3970  169.4960  142.2220 N   0  0  0  0  0  0  0  0  0  0  0  0
  188.1790  174.5790  139.2000 C   0  0  0  0  0  3  0  0  0  0  0  0
  188.7130  174.6840  141.6200 N   0  0  0  0  0  0  0  0  0  0  0  0
  188.3700  173.8170  140.4920 C   0  0  2  0  0  3  0  0  0  0  0  0
  190.1020  172.2550  141.3590 C   0  0  0  0  0  0  0  0  0  0  0  0
  193.0310  169.3180  143.4670 N   0  0  0  0  0  0  0  0  0  0  0  0
  188.1110  176.6660  142.8850 C   0  0  0  0  0  0  0  0  0  0  0  0
  192.5780  170.4660  144.2890 C   0  0  0  0  0  3  0  0  0  0  0  0
  189.3790  171.9970  139.0160 C   0  0  0  0  0  3  0  0  0  0  0  0
  189.3500  172.6810  140.3280 C   0  0  0  0  0  0  0  0  0  0  0  0
  190.8430  171.1130  141.2020 N   0  0  0  0  0  2  0  0  0  0  0  0
  189.5960  175.0190  143.9280 C   0  0  0  0  0  3  0  0  0  0  0  0
  191.0590  172.9750  144.7900 O   0  0  0  0  0  0  0  0  0  0  0  0
  192.5590  168.5820  141.1060 C   0  0  0  0  0  1  0  0  0  0  0  0
  190.1610  172.9840  142.6000 C   0  0  0  0  0  0  0  0  0  0  0  0
  191.6000  170.6500  142.2190 C   0  0  0  0  0  0  0  0  0  0  0  0
  186.2130  177.9530  142.2130 O   0  0  0  0  0  0  0  0  0  0  0  0
  187.4130  177.9940  142.9540 C   0  0  1  0  0  3  0  0  0  0  0  0
  186.0900  177.8590  143.6080 C   0  0  1  0  0  3  0  0  0  0  0  0
  185.6460  179.2020  144.1550 C   0  0  0  0  0  2  0  0  0  0  0  0
  185.0850  179.0360  145.5240 C   0  0  0  0  0  0  0  0  0  0  0  0
  185.8340  179.1330  146.5290 O   0  0  0  0  0  1  0  0  0  0  0  0
  183.7260  178.8080  145.6930 O   0  0  0  0  0  0  0  0  0  0  0  0
  188.2190  176.4190  146.3600 C   0  0  0  0  0  1  0  0  0  0  0  0
  189.0990  176.9900  145.2620 C   0  0  0  0  0  2  0  0  0  0  0  0
  1 19  1  0  0  0  0
  2  9  2  0  0  0  0
  3  2  1  0  0  0  0
  3 16  2  0  0  0  0
  4 20  2  0  0  0  0
  5  4  1  0  0  0  0
  5 15  1  0  0  0  0
  6 32  1  0  0  0  0
  7 14  2  0  0  0  0
  8 13  1  0  0  0  0
 10  7  1  0  0  0  0
 10  1  1  0  0  0  0
 11  9  1  6  0  0  0
 11 10  1  0  0  0  0
 12 22  1  0  0  0  0
 13 15  2  0  0  0  0
 14  6  1  0  0  0  0
 16 17  1  0  0  0  0
 17 11  1  0  0  0  0
 17 12  2  0  0  0  0
 18 12  1  0  0  0  0
 18 23  1  0  0  0  0
 19  6  2  0  0  0  0
 21  8  1  0  0  0  0
 22  1  2  0  0  0  0
 22  4  1  0  0  0  0
 23  8  1  0  0  0  0
 23  5  2  0  0  0  0
 24 25  1  0  0  0  0
 24 26  1  0  0  0  0
 25 14  1  6  0  0  0
 25 26  1  0  0  0  0
 26 27  1  1  0  0  0
 27 28  1  0  0  0  0
 28 30  2  0  0  0  0
 28 29  1  0  0  0  0
 32 31  1  0  0  0  0
M  END
>  <MODEL>
8

>  <REMARK>
 VINA RESULT:      -6.9      4.571      8.718
  Name = 
  4 active torsions:
  status: ('A' for Active; 'I' for Inactive)
    1  A    between atoms: C_7  and  C_19
    2  A    between atoms: C_10  and  C_17
    3  A    between atoms: C_20  and  C_29
    4  A    between atoms: C_29  and  C_30
                            x       y       z     vdW  Elec       q    Type
                         _______ _______ _______ _____ _____    ______ ____

>  <TORSDO>
F 4

$$$$
=
 OpenBabel11112416403D

 32 37  0  0  1  0  0  0  0  0999 V2000
  189.8610  174.9850  143.3060 C   0  0  0  0  0  0  0  0  0  0  0  0
  191.2010  176.7310  147.6130 C   0  0  0  0  0  3  0  0  0  0  0  0
  189.9810  177.5590  147.6710 C   0  0  0  0  0  3  0  0  0  0  0  0
  188.0270  176.0890  142.0990 C   0  0  0  0  0  0  0  0  0  0  0  0
  187.0630  177.0910  142.1250 C   0  0  0  0  0  0  0  0  0  0  0  0
  191.2650  173.3050  142.1950 C   0  0  0  0  0  0  0  0  0  0  0  0
  191.7220  173.8680  144.5290 C   0  0  0  0  0  3  0  0  0  0  0  0
  185.8710  178.7930  142.9880 N   0  0  0  0  0  0  0  0  0  0  0  0
  191.3320  175.7630  146.6990 C   0  0  0  0  0  3  0  0  0  0  0  0
  190.6500  174.8270  144.5060 N   0  0  0  0  0  0  0  0  0  0  0  0
  190.1940  175.4070  145.7700 C   0  0  2  0  0  3  0  0  0  0  0  0
  188.5700  176.7170  144.4130 C   0  0  0  0  0  0  0  0  0  0  0  0
  185.3310  178.6580  141.6950 N   0  0  0  0  0  0  0  0  0  0  0  0
  192.0300  173.1290  143.4560 C   0  0  0  0  0  0  0  0  0  0  0  0
  186.0920  177.5410  141.0820 C   0  0  0  0  0  3  0  0  0  0  0  0
  189.0680  177.5010  146.6970 C   0  0  0  0  0  3  0  0  0  0  0  0
  189.2620  176.5750  145.5580 C   0  0  0  0  0  0  0  0  0  0  0  0
  187.6120  177.6930  144.3420 N   0  0  0  0  0  2  0  0  0  0  0  0
  190.2480  174.1690  142.1350 C   0  0  0  0  0  3  0  0  0  0  0  0
  188.1540  175.3970  141.0530 O   0  0  0  0  0  0  0  0  0  0  0  0
  185.4070  179.7770  143.9480 C   0  0  0  0  0  1  0  0  0  0  0  0
  188.8370  175.8870  143.2650 C   0  0  0  0  0  0  0  0  0  0  0  0
  186.8910  177.8560  143.2120 C   0  0  0  0  0  0  0  0  0  0  0  0
  193.5570  171.9550  144.8700 O   0  0  0  0  0  0  0  0  0  0  0  0
  193.1960  172.1850  143.5260 C   0  0  1  0  0  3  0  0  0  0  0  0
  192.8230  170.9400  144.2380 C   0  0  1  0  0  3  0  0  0  0  0  0
  193.7670  169.8190  143.8460 C   0  0  0  0  0  2  0  0  0  0  0  0
  193.7880  168.7750  144.9060 C   0  0  0  0  0  0  0  0  0  0  0  0
  192.7320  168.1660  145.2130 O   0  0  0  0  0  0  0  0  0  0  0  0
  194.9830  168.4490  145.5340 O   0  0  0  0  0  1  0  0  0  0  0  0
  190.4830  171.5470  140.6420 C   0  0  0  0  0  1  0  0  0  0  0  0
  191.6020  172.5180  140.9720 C   0  0  0  0  0  2  0  0  0  0  0  0
  1 10  1  0  0  0  0
  2  3  1  0  0  0  0
  4  5  1  0  0  0  0
  4 22  1  0  0  0  0
  5 23  2  0  0  0  0
  6 14  1  0  0  0  0
  8 23  1  0  0  0  0
  8 21  1  0  0  0  0
  9  2  2  0  0  0  0
 10  7  1  0  0  0  0
 10 11  1  0  0  0  0
 11  9  1  6  0  0  0
 12 17  2  0  0  0  0
 13  8  1  0  0  0  0
 14  7  2  0  0  0  0
 15 13  2  0  0  0  0
 15  5  1  0  0  0  0
 16  3  2  0  0  0  0
 17 11  1  0  0  0  0
 17 16  1  0  0  0  0
 18 12  1  0  0  0  0
 19  6  2  0  0  0  0
 19  1  1  0  0  0  0
 20  4  2  0  0  0  0
 22  1  2  0  0  0  0
 22 12  1  0  0  0  0
 23 18  1  0  0  0  0
 25 14  1  1  0  0  0
 25 26  1  0  0  0  0
 25 24  1  0  0  0  0
 26 27  1  6  0  0  0
 26 24  1  0  0  0  0
 27 28  1  0  0  0  0
 28 29  2  0  0  0  0
 28 30  1  0  0  0  0
 31 32  1  0  0  0  0
 32  6  1  0  0  0  0
M  END
>  <MODEL>
9

>  <REMARK>
 VINA RESULT:      -6.9      2.636      4.133
  Name = 
  4 active torsions:
  status: ('A' for Active; 'I' for Inactive)
    1  A    between atoms: C_7  and  C_19
    2  A    between atoms: C_10  and  C_17
    3  A    between atoms: C_20  and  C_29
    4  A    between atoms: C_29  and  C_30
                            x       y       z     vdW  Elec       q    Type
                         _______ _______ _______ _____ _____    ______ ____

>  <TORSDO>
F 4

$$$$
