=
 OpenBabel11112416213D

 30 35  0  0  1  0  0  0  0  0999 V2000
  186.2110  177.3630  143.5490 C   0  0  0  0  0  0  0  0  0  0  0  0
  184.5370  178.4160  145.0440 C   0  0  0  0  0  0  0  0  0  0  0  0
  188.4500  176.0640  146.7430 N   0  0  0  0  0  0  0  0  0  0  0  0
  187.3890  176.5880  143.3800 C   0  0  0  0  0  0  0  0  0  0  0  0
  185.5120  177.7950  142.4160 O   0  0  0  0  0  0  0  0  0  0  0  0
  187.4150  176.3880  139.7460 O   0  0  0  0  0  0  0  0  0  0  0  0
  190.0450  175.3650  142.2510 C   0  0  1  0  0  3  0  0  0  0  0  0
  187.0920  176.7380  140.9150 C   0  0  0  0  0  0  0  0  0  0  0  0
  190.3460  175.2180  143.7240 C   0  0  2  0  0  3  0  0  0  0  0  0
  189.4490  175.4920  146.0380 C   0  0  0  0  0  0  0  0  0  0  0  0
  186.0970  177.8480  141.1160 C   0  0  1  0  0  3  0  0  0  0  0  0
  187.7350  176.1430  142.0540 N   0  0  0  0  0  0  0  0  0  0  0  0
  184.0930  178.7020  146.3390 C   0  0  0  0  0  3  0  0  0  0  0  0
  190.8400  173.7930  143.8600 C   0  0  0  0  0  2  0  0  0  0  0  0
  191.0180  174.4050  141.5970 C   0  0  0  0  0  2  0  0  0  0  0  0
  183.8010  178.8730  144.0000 F   0  0  0  0  0  0  0  0  0  0  0  0
  187.6160  176.5070  145.7890 C   0  0  0  0  0  0  0  0  0  0  0  0
  184.8120  178.2580  147.4500 C   0  0  0  0  0  3  0  0  0  0  0  0
  185.7230  177.6730  144.8470 C   0  0  0  0  0  0  0  0  0  0  0  0
  188.0980  176.2040  144.5400 C   0  0  0  0  0  0  0  0  0  0  0  0
  190.6640  174.9450  146.7110 C   0  0  0  0  0  1  0  0  0  0  0  0
  189.2770  175.5430  144.6860 N   0  0  0  0  0  0  0  0  0  0  0  0
  191.4320  173.4090  142.5840 N   0  0  0  0  0  2  0  0  0  0  0  0
  188.0530  173.7180  142.3950 C   0  0  0  0  0  1  0  0  0  0  0  0
  185.9850  177.5230  147.2750 C   0  0  0  0  0  3  0  0  0  0  0  0
  186.4420  177.2270  145.9860 C   0  0  0  0  0  0  0  0  0  0  0  0
  188.6240  175.0160  141.8270 C   0  0  2  0  0  3  0  0  0  0  0  0
  185.0050  177.8710  140.0470 C   0  0  0  0  0  2  0  0  0  0  0  0
  182.5860  177.9230  140.4170 C   0  0  0  0  0  2  0  0  0  0  0  0
  183.7590  178.5360  140.5390 C   0  0  0  0  0  3  0  0  0  0  0  0
  1 19  1  0  0  0  0
  2 13  1  0  0  0  0
  4  1  2  0  0  0  0
  4 20  1  0  0  0  0
  5  1  1  0  0  0  0
  6  8  2  0  0  0  0
  7 15  1  6  0  0  0
  7  9  1  0  0  0  0
  8 11  1  0  0  0  0
  8 12  1  0  0  0  0
  9 14  1  6  0  0  0
  9 22  1  0  0  0  0
 10 21  1  0  0  0  0
 10  3  2  0  0  0  0
 11 28  1  6  0  0  0
 11  5  1  0  0  0  0
 12  4  1  0  0  0  0
 13 18  2  0  0  0  0
 15 23  1  0  0  0  0
 16  2  1  0  0  0  0
 17 26  1  0  0  0  0
 17  3  1  0  0  0  0
 19  2  2  0  0  0  0
 19 26  1  0  0  0  0
 20 22  1  0  0  0  0
 20 17  2  0  0  0  0
 22 10  1  0  0  0  0
 23 14  1  0  0  0  0
 25 18  1  0  0  0  0
 26 25  2  0  0  0  0
 27 12  1  0  0  0  0
 27  7  1  0  0  0  0
 27 24  1  1  0  0  0
 28 30  1  0  0  0  0
 29 30  2  0  0  0  0
M  END
>  <MODEL>
1

>  <REMARK>
 VINA RESULT:      -9.0      0.000      0.000
  Name = 
  2 active torsions:
  status: ('A' for Active; 'I' for Inactive)
    1  A    between atoms: C_11  and  C_28
    2  A    between atoms: C_28  and  C_30
                            x       y       z     vdW  Elec       q    Type
                         _______ _______ _______ _____ _____    ______ ____

>  <TORSDO>
F 2

$$$$
=
 OpenBabel11112416213D

 30 35  0  0  1  0  0  0  0  0999 V2000
  189.6720  175.4510  144.0960 C   0  0  0  0  0  0  0  0  0  0  0  0
  191.6280  174.8680  145.5040 C   0  0  0  0  0  0  0  0  0  0  0  0
  187.9350  177.5850  147.1500 N   0  0  0  0  0  0  0  0  0  0  0  0
  188.4430  176.1410  143.9310 C   0  0  0  0  0  0  0  0  0  0  0  0
  190.1930  174.7210  143.0220 O   0  0  0  0  0  0  0  0  0  0  0  0
  187.7950  175.3100  140.4460 O   0  0  0  0  0  0  0  0  0  0  0  0
  185.5720  176.9840  142.9950 C   0  0  1  0  0  3  0  0  0  0  0  0
  188.3280  175.3040  141.5900 C   0  0  0  0  0  0  0  0  0  0  0  0
  185.5150  177.5380  144.3990 C   0  0  2  0  0  3  0  0  0  0  0  0
  186.8020  177.9310  146.5030 C   0  0  0  0  0  0  0  0  0  0  0  0
  189.4010  174.3010  141.9110 C   0  0  1  0  0  3  0  0  0  0  0  0
  187.8550  176.1930  142.6160 N   0  0  0  0  0  0  0  0  0  0  0  0
  192.2980  174.9610  146.7270 C   0  0  0  0  0  3  0  0  0  0  0  0
  184.9750  178.9420  144.2210 C   0  0  0  0  0  2  0  0  0  0  0  0
  184.4520  177.7180  142.2840 C   0  0  0  0  0  2  0  0  0  0  0  0
  192.2020  174.1400  144.5130 F   0  0  0  0  0  0  0  0  0  0  0  0
  188.6190  176.8960  146.2230 C   0  0  0  0  0  0  0  0  0  0  0  0
  191.7530  175.6960  147.7810 C   0  0  0  0  0  3  0  0  0  0  0  0
  190.3880  175.5200  145.3220 C   0  0  0  0  0  0  0  0  0  0  0  0
  187.9180  176.8330  145.0450 C   0  0  0  0  0  0  0  0  0  0  0  0
  185.6900  178.6400  147.2020 C   0  0  0  0  0  1  0  0  0  0  0  0
  186.7470  177.5020  145.2090 N   0  0  0  0  0  0  0  0  0  0  0  0
  184.1570  178.9480  143.0150 N   0  0  0  0  0  2  0  0  0  0  0  0
  187.4680  178.6140  142.3240 C   0  0  0  0  0  1  0  0  0  0  0  0
  190.5300  176.3460  147.6200 C   0  0  0  0  0  3  0  0  0  0  0  0
  189.8470  176.2650  146.4020 C   0  0  0  0  0  0  0  0  0  0  0  0
  186.8800  177.2070  142.2470 C   0  0  2  0  0  3  0  0  0  0  0  0
  190.2980  173.9830  140.7150 C   0  0  0  0  0  2  0  0  0  0  0  0
  192.7400  174.1230  140.6260 C   0  0  0  0  0  2  0  0  0  0  0  0
  191.6620  173.5440  141.1430 C   0  0  0  0  0  3  0  0  0  0  0  0
  1 19  1  0  0  0  0
  2 13  1  0  0  0  0
  4  1  2  0  0  0  0
  4 20  1  0  0  0  0
  5  1  1  0  0  0  0
  6  8  2  0  0  0  0
  7 15  1  6  0  0  0
  7  9  1  0  0  0  0
  8 11  1  0  0  0  0
  8 12  1  0  0  0  0
  9 14  1  6  0  0  0
  9 22  1  0  0  0  0
 10  3  2  0  0  0  0
 10 21  1  0  0  0  0
 11 28  1  6  0  0  0
 11  5  1  0  0  0  0
 12  4  1  0  0  0  0
 13 18  2  0  0  0  0
 15 23  1  0  0  0  0
 16  2  1  0  0  0  0
 17 26  1  0  0  0  0
 17  3  1  0  0  0  0
 19  2  2  0  0  0  0
 19 26  1  0  0  0  0
 20 22  1  0  0  0  0
 20 17  2  0  0  0  0
 22 10  1  0  0  0  0
 23 14  1  0  0  0  0
 25 18  1  0  0  0  0
 26 25  2  0  0  0  0
 27 24  1  1  0  0  0
 27 12  1  0  0  0  0
 27  7  1  0  0  0  0
 28 30  1  0  0  0  0
 29 30  2  0  0  0  0
M  END
>  <MODEL>
2

>  <REMARK>
 VINA RESULT:      -8.0      2.496      5.870
  Name = 
  2 active torsions:
  status: ('A' for Active; 'I' for Inactive)
    1  A    between atoms: C_11  and  C_28
    2  A    between atoms: C_28  and  C_30
                            x       y       z     vdW  Elec       q    Type
                         _______ _______ _______ _____ _____    ______ ____

>  <TORSDO>
F 2

$$$$
=
 OpenBabel11112416213D

 30 35  0  0  1  0  0  0  0  0999 V2000
  189.7410  175.9350  144.1810 C   0  0  0  0  0  0  0  0  0  0  0  0
  190.7130  174.5580  142.3620 C   0  0  0  0  0  0  0  0  0  0  0  0
  186.2290  176.4440  142.1060 N   0  0  0  0  0  0  0  0  0  0  0  0
  188.6430  176.6540  144.7210 C   0  0  0  0  0  0  0  0  0  0  0  0
  190.9180  175.8230  144.9300 O   0  0  0  0  0  0  0  0  0  0  0  0
  190.0880  177.5560  147.9380 O   0  0  0  0  0  0  0  0  0  0  0  0
  186.8830  178.7040  146.3100 C   0  0  1  0  0  3  0  0  0  0  0  0
  189.9950  177.1210  146.7570 C   0  0  0  0  0  0  0  0  0  0  0  0
  185.9700  178.5080  145.1230 C   0  0  2  0  0  3  0  0  0  0  0  0
  185.6080  177.2410  143.0020 C   0  0  0  0  0  0  0  0  0  0  0  0
  191.2320  176.6950  146.0160 C   0  0  1  0  0  3  0  0  0  0  0  0
  188.7250  177.1100  146.0850 N   0  0  0  0  0  0  0  0  0  0  0  0
  190.5770  173.9570  141.1070 C   0  0  0  0  0  3  0  0  0  0  0  0
  184.6070  178.2740  145.7400 C   0  0  0  0  0  2  0  0  0  0  0  0
  185.9670  179.2960  147.3630 C   0  0  0  0  0  2  0  0  0  0  0  0
  191.8870  174.4020  143.0240 F   0  0  0  0  0  0  0  0  0  0  0  0
  187.4020  176.1740  142.6990 C   0  0  0  0  0  0  0  0  0  0  0  0
  189.3920  174.0860  140.3820 C   0  0  0  0  0  3  0  0  0  0  0  0
  189.6460  175.3060  142.9100 C   0  0  0  0  0  0  0  0  0  0  0  0
  187.4850  176.7880  143.9230 C   0  0  0  0  0  0  0  0  0  0  0  0
  184.2860  177.8670  142.7040 C   0  0  0  0  0  1  0  0  0  0  0  0
  186.3310  177.4740  144.1340 N   0  0  0  0  0  0  0  0  0  0  0  0
  184.5850  178.9550  147.0290 N   0  0  0  0  0  2  0  0  0  0  0  0
  186.6230  176.2360  147.0430 C   0  0  0  0  0  1  0  0  0  0  0  0
  188.3290  174.8200  140.9060 C   0  0  0  0  0  3  0  0  0  0  0  0
  188.4460  175.4260  142.1620 C   0  0  0  0  0  0  0  0  0  0  0  0
  187.5390  177.4440  146.8580 C   0  0  2  0  0  3  0  0  0  0  0  0
  192.2800  176.0510  146.9230 C   0  0  0  0  0  2  0  0  0  0  0  0
  194.1300  174.8090  145.9100 C   0  0  0  0  0  2  0  0  0  0  0  0
  192.8620  174.8170  146.3100 C   0  0  0  0  0  3  0  0  0  0  0  0
  1  4  1  0  0  0  0
  1  5  1  0  0  0  0
  2 19  1  0  0  0  0
  2 16  1  0  0  0  0
  3 17  1  0  0  0  0
  3 10  2  0  0  0  0
  4 12  1  0  0  0  0
  5 11  1  0  0  0  0
  7 27  1  0  0  0  0
  7 15  1  1  0  0  0
  8  6  2  0  0  0  0
  9 14  1  1  0  0  0
  9  7  1  0  0  0  0
 10 22  1  0  0  0  0
 11  8  1  0  0  0  0
 11 28  1  1  0  0  0
 12  8  1  0  0  0  0
 12 27  1  0  0  0  0
 13  2  2  0  0  0  0
 14 23  1  0  0  0  0
 17 20  1  0  0  0  0
 18 25  2  0  0  0  0
 18 13  1  0  0  0  0
 19  1  2  0  0  0  0
 20 22  1  0  0  0  0
 20  4  2  0  0  0  0
 21 10  1  0  0  0  0
 22  9  1  0  0  0  0
 23 15  1  0  0  0  0
 25 26  1  0  0  0  0
 26 17  2  0  0  0  0
 26 19  1  0  0  0  0
 27 24  1  6  0  0  0
 29 30  2  0  0  0  0
 30 28  1  0  0  0  0
M  END
>  <MODEL>
3

>  <REMARK>
 VINA RESULT:      -7.9      2.981      7.294
  Name = 
  2 active torsions:
  status: ('A' for Active; 'I' for Inactive)
    1  A    between atoms: C_11  and  C_28
    2  A    between atoms: C_28  and  C_30
                            x       y       z     vdW  Elec       q    Type
                         _______ _______ _______ _____ _____    ______ ____

>  <TORSDO>
F 2

$$$$
=
 OpenBabel11112416213D

 30 35  0  0  1  0  0  0  0  0999 V2000
  189.2840  176.2320  144.0950 C   0  0  0  0  0  0  0  0  0  0  0  0
  189.6950  177.0770  146.3900 C   0  0  0  0  0  0  0  0  0  0  0  0
  191.8810  173.0920  144.6380 N   0  0  0  0  0  0  0  0  0  0  0  0
  189.5030  175.2520  143.0920 C   0  0  0  0  0  0  0  0  0  0  0  0
  188.4070  177.2910  143.8340 O   0  0  0  0  0  0  0  0  0  0  0  0
  187.2540  176.5460  140.5400 O   0  0  0  0  0  0  0  0  0  0  0  0
  189.8240  173.7910  140.3380 C   0  0  1  0  0  3  0  0  0  0  0  0
  187.9330  176.4780  141.6010 C   0  0  0  0  0  0  0  0  0  0  0  0
  190.8080  172.9690  141.1360 C   0  0  2  0  0  3  0  0  0  0  0  0
  191.7770  172.5600  143.4010 C   0  0  0  0  0  0  0  0  0  0  0  0
  188.0200  177.6700  142.5130 C   0  0  1  0  0  3  0  0  0  0  0  0
  188.6950  175.2970  141.9000 N   0  0  0  0  0  0  0  0  0  0  0  0
  190.3410  176.9410  147.6230 C   0  0  0  0  0  3  0  0  0  0  0  0
  190.4500  171.5360  140.8020 C   0  0  0  0  0  2  0  0  0  0  0  0
  189.5320  172.9160  139.1340 C   0  0  0  0  0  2  0  0  0  0  0  0
  188.8600  178.1320  146.2180 F   0  0  0  0  0  0  0  0  0  0  0  0
  191.0320  174.1310  144.5970 C   0  0  0  0  0  0  0  0  0  0  0  0
  191.2120  175.8750  147.8540 C   0  0  0  0  0  3  0  0  0  0  0  0
  189.9180  176.1320  145.3630 C   0  0  0  0  0  0  0  0  0  0  0  0
  190.4280  174.2200  143.3680 C   0  0  0  0  0  0  0  0  0  0  0  0
  192.6370  171.4190  142.9680 C   0  0  0  0  0  1  0  0  0  0  0  0
  190.8940  173.2090  142.5890 N   0  0  0  0  0  0  0  0  0  0  0  0
  189.8550  171.5310  139.4710 N   0  0  0  0  0  2  0  0  0  0  0  0
  187.8310  172.9860  141.7800 C   0  0  0  0  0  1  0  0  0  0  0  0
  191.4440  174.9330  146.8530 C   0  0  0  0  0  3  0  0  0  0  0  0
  190.8040  175.0520  145.6150 C   0  0  0  0  0  0  0  0  0  0  0  0
  188.5190  174.1340  141.0440 C   0  0  2  0  0  3  0  0  0  0  0  0
  186.7270  178.4840  142.5570 C   0  0  0  0  0  2  0  0  0  0  0  0
  185.5660  179.7910  144.2700 C   0  0  0  0  0  2  0  0  0  0  0  0
  186.2480  178.6930  143.9580 C   0  0  0  0  0  3  0  0  0  0  0  0
  1 19  1  0  0  0  0
  2 13  1  0  0  0  0
  4 20  1  0  0  0  0
  4  1  2  0  0  0  0
  5  1  1  0  0  0  0
  6  8  2  0  0  0  0
  7 15  1  6  0  0  0
  7 27  1  0  0  0  0
  7  9  1  0  0  0  0
  8 12  1  0  0  0  0
  8 11  1  0  0  0  0
  9 14  1  1  0  0  0
  9 22  1  0  0  0  0
 10  3  2  0  0  0  0
 11 28  1  1  0  0  0
 11  5  1  0  0  0  0
 12  4  1  0  0  0  0
 13 18  2  0  0  0  0
 15 23  1  0  0  0  0
 16  2  1  0  0  0  0
 17  3  1  0  0  0  0
 17 26  1  0  0  0  0
 19 26  1  0  0  0  0
 19  2  2  0  0  0  0
 20 17  2  0  0  0  0
 21 10  1  0  0  0  0
 22 20  1  0  0  0  0
 22 10  1  0  0  0  0
 23 14  1  0  0  0  0
 25 18  1  0  0  0  0
 26 25  2  0  0  0  0
 27 24  1  1  0  0  0
 27 12  1  0  0  0  0
 28 30  1  0  0  0  0
 30 29  2  0  0  0  0
M  END
>  <MODEL>
4

>  <REMARK>
 VINA RESULT:      -7.7      2.502      4.100
  Name = 
  2 active torsions:
  status: ('A' for Active; 'I' for Inactive)
    1  A    between atoms: C_11  and  C_28
    2  A    between atoms: C_28  and  C_30
                            x       y       z     vdW  Elec       q    Type
                         _______ _______ _______ _____ _____    ______ ____

>  <TORSDO>
F 2

$$$$
=
 OpenBabel11112416213D

 30 35  0  0  1  0  0  0  0  0999 V2000
  187.1200  176.8570  143.6790 C   0  0  0  0  0  0  0  0  0  0  0  0
  185.4200  178.2670  142.5510 C   0  0  0  0  0  0  0  0  0  0  0  0
  188.2430  175.1260  140.1230 N   0  0  0  0  0  0  0  0  0  0  0  0
  188.1700  175.9050  143.6010 C   0  0  0  0  0  0  0  0  0  0  0  0
  186.7710  177.3870  144.9260 O   0  0  0  0  0  0  0  0  0  0  0  0
  189.0970  175.8020  147.1200 O   0  0  0  0  0  0  0  0  0  0  0  0
  190.1900  173.6000  144.2570 C   0  0  1  0  0  3  0  0  0  0  0  0
  188.4530  176.0680  146.0680 C   0  0  0  0  0  0  0  0  0  0  0  0
  190.1050  173.3960  142.7640 C   0  0  2  0  0  3  0  0  0  0  0  0
  189.1660  174.2770  140.6230 C   0  0  0  0  0  0  0  0  0  0  0  0
  187.1220  176.7620  146.1610 C   0  0  1  0  0  3  0  0  0  0  0  0
  188.9420  175.6350  144.7880 N   0  0  0  0  0  0  0  0  0  0  0  0
  184.7840  178.6700  141.3740 C   0  0  0  0  0  3  0  0  0  0  0  0
  191.5490  173.2780  142.3230 C   0  0  0  0  0  2  0  0  0  0  0  0
  191.4660  172.8740  144.6380 C   0  0  0  0  0  2  0  0  0  0  0  0
  185.0220  178.8290  143.7200 F   0  0  0  0  0  0  0  0  0  0  0  0
  187.8170  175.7890  141.2100 C   0  0  0  0  0  0  0  0  0  0  0  0
  185.1530  178.1240  140.1430 C   0  0  0  0  0  3  0  0  0  0  0  0
  186.4480  177.2980  142.5070 C   0  0  0  0  0  0  0  0  0  0  0  0
  188.4700  175.3540  142.3360 C   0  0  0  0  0  0  0  0  0  0  0  0
  189.8400  173.2610  139.7620 C   0  0  0  0  0  1  0  0  0  0  0  0
  189.3490  174.3830  141.9710 N   0  0  0  0  0  0  0  0  0  0  0  0
  192.3110  172.7560  143.4510 N   0  0  0  0  0  2  0  0  0  0  0  0
  191.2530  175.9430  143.9760 C   0  0  0  0  0  1  0  0  0  0  0  0
  186.1640  177.1670  140.0800 C   0  0  0  0  0  3  0  0  0  0  0  0
  186.8130  176.7530  141.2480 C   0  0  0  0  0  0  0  0  0  0  0  0
  190.2700  175.0460  144.7260 C   0  0  2  0  0  3  0  0  0  0  0  0
  187.0550  177.7760  147.3020 C   0  0  0  0  0  2  0  0  0  0  0  0
  184.6630  178.2910  147.2630 C   0  0  0  0  0  2  0  0  0  0  0  0
  185.9120  178.7260  147.1360 C   0  0  0  0  0  3  0  0  0  0  0  0
  1  5  1  0  0  0  0
  2 16  1  0  0  0  0
  3 10  2  0  0  0  0
  3 17  1  0  0  0  0
  4  1  1  0  0  0  0
  4 12  1  0  0  0  0
  5 11  1  0  0  0  0
  7 15  1  6  0  0  0
  7 27  1  0  0  0  0
  8 11  1  0  0  0  0
  8  6  2  0  0  0  0
  9 14  1  6  0  0  0
  9  7  1  0  0  0  0
 10 22  1  0  0  0  0
 11 28  1  1  0  0  0
 12  8  1  0  0  0  0
 13  2  2  0  0  0  0
 14 23  1  0  0  0  0
 17 26  2  0  0  0  0
 17 20  1  0  0  0  0
 18 13  1  0  0  0  0
 19  2  1  0  0  0  0
 19  1  2  0  0  0  0
 20  4  2  0  0  0  0
 21 10  1  0  0  0  0
 22 20  1  0  0  0  0
 22  9  1  0  0  0  0
 23 15  1  0  0  0  0
 25 18  2  0  0  0  0
 25 26  1  0  0  0  0
 26 19  1  0  0  0  0
 27 24  1  6  0  0  0
 27 12  1  0  0  0  0
 30 29  2  0  0  0  0
 30 28  1  0  0  0  0
M  END
>  <MODEL>
5

>  <REMARK>
 VINA RESULT:      -7.7      1.761      4.756
  Name = 
  2 active torsions:
  status: ('A' for Active; 'I' for Inactive)
    1  A    between atoms: C_11  and  C_28
    2  A    between atoms: C_28  and  C_30
                            x       y       z     vdW  Elec       q    Type
                         _______ _______ _______ _____ _____    ______ ____

>  <TORSDO>
F 2

$$$$
=
 OpenBabel11112416213D

 30 35  0  0  1  0  0  0  0  0999 V2000
  189.1280  176.2620  145.5590 C   0  0  0  0  0  0  0  0  0  0  0  0
  187.2560  177.7080  146.3020 C   0  0  0  0  0  0  0  0  0  0  0  0
  187.4420  175.7550  141.8440 N   0  0  0  0  0  0  0  0  0  0  0  0
  189.7640  175.5080  144.5370 C   0  0  0  0  0  0  0  0  0  0  0  0
  189.7460  176.3720  146.8100 O   0  0  0  0  0  0  0  0  0  0  0  0
  192.7710  174.5370  146.3440 O   0  0  0  0  0  0  0  0  0  0  0  0
  191.4740  173.3830  142.9940 C   0  0  1  0  0  3  0  0  0  0  0  0
  191.6220  175.0060  146.1140 C   0  0  0  0  0  0  0  0  0  0  0  0
  190.4030  173.5990  141.9520 C   0  0  2  0  0  3  0  0  0  0  0  0
  188.3750  174.9210  141.3380 C   0  0  0  0  0  0  0  0  0  0  0  0
  190.7610  175.4740  147.2550 C   0  0  1  0  0  3  0  0  0  0  0  0
  191.0960  175.0140  144.7770 N   0  0  0  0  0  0  0  0  0  0  0  0
  186.0440  178.3440  146.0200 C   0  0  0  0  0  3  0  0  0  0  0  0
  191.1740  173.7910  140.6630 C   0  0  0  0  0  2  0  0  0  0  0  0
  192.6030  172.7450  142.2090 C   0  0  0  0  0  2  0  0  0  0  0  0
  187.7880  177.8650  147.5400 F   0  0  0  0  0  0  0  0  0  0  0  0
  187.9080  176.0270  143.0720 C   0  0  0  0  0  0  0  0  0  0  0  0
  185.4510  178.2160  144.7620 C   0  0  0  0  0  3  0  0  0  0  0  0
  187.8960  176.9270  145.3130 C   0  0  0  0  0  0  0  0  0  0  0  0
  189.0960  175.3780  143.2990 C   0  0  0  0  0  0  0  0  0  0  0  0
  188.2070  174.2810  140.0000 C   0  0  0  0  0  1  0  0  0  0  0  0
  189.4130  174.6670  142.1860 N   0  0  0  0  0  0  0  0  0  0  0  0
  192.4350  173.0720  140.7940 N   0  0  0  0  0  2  0  0  0  0  0  0
  192.3080  175.8240  142.7830 C   0  0  0  0  0  1  0  0  0  0  0  0
  186.0670  177.4490  143.7750 C   0  0  0  0  0  3  0  0  0  0  0  0
  187.2820  176.8080  144.0400 C   0  0  0  0  0  0  0  0  0  0  0  0
  191.9850  174.6380  143.6900 C   0  0  2  0  0  3  0  0  0  0  0  0
  191.5660  176.1090  148.3880 C   0  0  0  0  0  2  0  0  0  0  0  0
  191.5660  178.1670  149.7130 C   0  0  0  0  0  2  0  0  0  0  0  0
  191.1910  177.5410  148.6020 C   0  0  0  0  0  3  0  0  0  0  0  0
  1  5  1  0  0  0  0
  2 16  1  0  0  0  0
  3 17  1  0  0  0  0
  4 12  1  0  0  0  0
  4  1  2  0  0  0  0
  5 11  1  0  0  0  0
  7 15  1  6  0  0  0
  7 27  1  0  0  0  0
  8  6  2  0  0  0  0
  8 11  1  0  0  0  0
  9 14  1  6  0  0  0
  9 22  1  0  0  0  0
  9  7  1  0  0  0  0
 10  3  2  0  0  0  0
 10 22  1  0  0  0  0
 11 28  1  1  0  0  0
 12  8  1  0  0  0  0
 13  2  1  0  0  0  0
 14 23  1  0  0  0  0
 17 20  2  0  0  0  0
 17 26  1  0  0  0  0
 18 13  2  0  0  0  0
 19  1  1  0  0  0  0
 19  2  2  0  0  0  0
 20  4  1  0  0  0  0
 21 10  1  0  0  0  0
 22 20  1  0  0  0  0
 23 15  1  0  0  0  0
 25 26  2  0  0  0  0
 25 18  1  0  0  0  0
 26 19  1  0  0  0  0
 27 24  1  6  0  0  0
 27 12  1  0  0  0  0
 28 30  1  0  0  0  0
 30 29  2  0  0  0  0
M  END
>  <MODEL>
6

>  <REMARK>
 VINA RESULT:      -7.7      2.810      5.591
  Name = 
  2 active torsions:
  status: ('A' for Active; 'I' for Inactive)
    1  A    between atoms: C_11  and  C_28
    2  A    between atoms: C_28  and  C_30
                            x       y       z     vdW  Elec       q    Type
                         _______ _______ _______ _____ _____    ______ ____

>  <TORSDO>
F 2

$$$$
=
 OpenBabel11112416213D

 30 35  0  0  1  0  0  0  0  0999 V2000
  187.6030  177.1090  144.2180 C   0  0  0  0  0  0  0  0  0  0  0  0
  185.4460  178.1010  144.9340 C   0  0  0  0  0  0  0  0  0  0  0  0
  189.2250  177.5920  147.9650 N   0  0  0  0  0  0  0  0  0  0  0  0
  188.9160  176.6720  144.5340 C   0  0  0  0  0  0  0  0  0  0  0  0
  187.1230  176.9380  142.9150 O   0  0  0  0  0  0  0  0  0  0  0  0
  189.8480  175.3030  141.2930 O   0  0  0  0  0  0  0  0  0  0  0  0
  191.9530  175.9140  144.3650 C   0  0  1  0  0  3  0  0  0  0  0  0
  189.1930  175.9170  142.1800 C   0  0  0  0  0  0  0  0  0  0  0  0
  191.9170  176.3470  145.8110 C   0  0  2  0  0  3  0  0  0  0  0  0
  190.4570  177.1140  147.6870 C   0  0  0  0  0  0  0  0  0  0  0  0
  187.9790  176.7160  141.7950 C   0  0  1  0  0  3  0  0  0  0  0  0
  189.6490  175.9270  143.5420 N   0  0  0  0  0  0  0  0  0  0  0  0
  184.6590  178.6650  145.9420 C   0  0  0  0  0  3  0  0  0  0  0  0
  192.6350  175.2360  146.5490 C   0  0  0  0  0  2  0  0  0  0  0  0
  193.2240  175.0930  144.2770 C   0  0  0  0  0  2  0  0  0  0  0  0
  184.9050  177.9710  143.6960 F   0  0  0  0  0  0  0  0  0  0  0  0
  188.5740  177.4530  146.8000 C   0  0  0  0  0  0  0  0  0  0  0  0
  185.1650  178.8240  147.2330 C   0  0  0  0  0  3  0  0  0  0  0  0
  186.7670  177.6850  145.2140 C   0  0  0  0  0  0  0  0  0  0  0  0
  189.3900  176.8980  145.8460 C   0  0  0  0  0  0  0  0  0  0  0  0
  191.5600  177.1690  148.6920 C   0  0  0  0  0  1  0  0  0  0  0  0
  190.6060  176.6680  146.4070 N   0  0  0  0  0  0  0  0  0  0  0  0
  193.5790  174.6300  145.6170 N   0  0  0  0  0  2  0  0  0  0  0  0
  190.3510  173.9320  144.8170 C   0  0  0  0  0  1  0  0  0  0  0  0
  186.4660  178.4190  147.5280 C   0  0  0  0  0  3  0  0  0  0  0  0
  187.2670  177.8510  146.5310 C   0  0  0  0  0  0  0  0  0  0  0  0
  190.7730  175.0740  143.8950 C   0  0  2  0  0  3  0  0  0  0  0  0
  187.1910  176.0900  140.6450 C   0  0  0  0  0  2  0  0  0  0  0  0
  185.6420  177.9200  140.1540 C   0  0  0  0  0  2  0  0  0  0  0  0
  186.6210  177.1270  139.7310 C   0  0  0  0  0  3  0  0  0  0  0  0
  1  4  2  0  0  0  0
  1 19  1  0  0  0  0
  2 19  2  0  0  0  0
  2 13  1  0  0  0  0
  4 20  1  0  0  0  0
  5  1  1  0  0  0  0
  6  8  2  0  0  0  0
  7 15  1  1  0  0  0
  7  9  1  0  0  0  0
  8 12  1  0  0  0  0
  9 22  1  0  0  0  0
  9 14  1  1  0  0  0
 10  3  2  0  0  0  0
 10 21  1  0  0  0  0
 11 28  1  6  0  0  0
 11  8  1  0  0  0  0
 11  5  1  0  0  0  0
 12 27  1  0  0  0  0
 12  4  1  0  0  0  0
 13 18  2  0  0  0  0
 15 23  1  0  0  0  0
 16  2  1  0  0  0  0
 17  3  1  0  0  0  0
 18 25  1  0  0  0  0
 19 26  1  0  0  0  0
 20 22  1  0  0  0  0
 20 17  2  0  0  0  0
 22 10  1  0  0  0  0
 23 14  1  0  0  0  0
 26 17  1  0  0  0  0
 26 25  2  0  0  0  0
 27  7  1  0  0  0  0
 27 24  1  1  0  0  0
 30 29  2  0  0  0  0
 30 28  1  0  0  0  0
M  END
>  <MODEL>
7

>  <REMARK>
 VINA RESULT:      -7.5      1.774      2.473
  Name = 
  2 active torsions:
  status: ('A' for Active; 'I' for Inactive)
    1  A    between atoms: C_11  and  C_28
    2  A    between atoms: C_28  and  C_30
                            x       y       z     vdW  Elec       q    Type
                         _______ _______ _______ _____ _____    ______ ____

>  <TORSDO>
F 2

$$$$
=
 OpenBabel11112416213D

 30 35  0  0  1  0  0  0  0  0999 V2000
  190.0590  175.8930  144.2360 C   0  0  0  0  0  0  0  0  0  0  0  0
  191.4330  176.4980  146.2090 C   0  0  0  0  0  0  0  0  0  0  0  0
  192.9830  173.3890  142.7950 N   0  0  0  0  0  0  0  0  0  0  0  0
  189.8840  175.1310  143.0510 C   0  0  0  0  0  0  0  0  0  0  0  0
  189.0330  176.7470  144.6550 O   0  0  0  0  0  0  0  0  0  0  0  0
  186.5140  176.2010  142.1870 O   0  0  0  0  0  0  0  0  0  0  0  0
  188.9940  174.1600  140.2070 C   0  0  1  0  0  3  0  0  0  0  0  0
  187.6310  176.1500  142.7710 C   0  0  0  0  0  0  0  0  0  0  0  0
  190.3450  173.4880  140.2530 C   0  0  2  0  0  3  0  0  0  0  0  0
  192.3540  173.0160  141.6600 C   0  0  0  0  0  0  0  0  0  0  0  0
  187.9950  177.1990  143.7860 C   0  0  1  0  0  3  0  0  0  0  0  0
  188.5940  175.1460  142.4090 N   0  0  0  0  0  0  0  0  0  0  0  0
  192.6160  176.3520  146.9400 C   0  0  0  0  0  3  0  0  0  0  0  0
  190.0680  172.0680  139.8050 C   0  0  0  0  0  2  0  0  0  0  0  0
  188.2670  173.4090  139.1090 C   0  0  0  0  0  2  0  0  0  0  0  0
  190.4870  177.3470  146.6850 F   0  0  0  0  0  0  0  0  0  0  0  0
  192.0940  174.2010  143.3850 C   0  0  0  0  0  0  0  0  0  0  0  0
  193.6230  175.4930  146.4970 C   0  0  0  0  0  3  0  0  0  0  0  0
  191.2450  175.7740  145.0100 C   0  0  0  0  0  0  0  0  0  0  0  0
  190.9540  174.3110  142.6290 C   0  0  0  0  0  0  0  0  0  0  0  0
  193.0320  172.1710  140.6330 C   0  0  0  0  0  1  0  0  0  0  0  0
  191.1060  173.5460  141.5160 N   0  0  0  0  0  0  0  0  0  0  0  0
  188.8990  172.1030  138.9350 N   0  0  0  0  0  2  0  0  0  0  0  0
  188.1080  172.7360  142.1780 C   0  0  0  0  0  1  0  0  0  0  0  0
  193.4550  174.7710  145.3160 C   0  0  0  0  0  3  0  0  0  0  0  0
  192.2770  174.9030  144.5740 C   0  0  0  0  0  0  0  0  0  0  0  0
  188.1770  174.0980  141.4910 C   0  0  2  0  0  3  0  0  0  0  0  0
  186.7960  177.6810  144.6020 C   0  0  0  0  0  2  0  0  0  0  0  0
  185.4050  176.8490  146.4350 C   0  0  0  0  0  2  0  0  0  0  0  0
  186.5860  176.8490  145.8260 C   0  0  0  0  0  3  0  0  0  0  0  0
  1  5  1  0  0  0  0
  1 19  1  0  0  0  0
  2 16  1  0  0  0  0
  2 13  1  0  0  0  0
  3 17  1  0  0  0  0
  4  1  2  0  0  0  0
  6  8  2  0  0  0  0
  7 15  1  6  0  0  0
  7  9  1  0  0  0  0
  7 27  1  0  0  0  0
  8 11  1  0  0  0  0
  9 14  1  1  0  0  0
  9 22  1  0  0  0  0
 10  3  2  0  0  0  0
 11 28  1  1  0  0  0
 11  5  1  0  0  0  0
 12  8  1  0  0  0  0
 12  4  1  0  0  0  0
 17 26  1  0  0  0  0
 18 13  2  0  0  0  0
 19  2  2  0  0  0  0
 20  4  1  0  0  0  0
 20 17  2  0  0  0  0
 21 10  1  0  0  0  0
 22 10  1  0  0  0  0
 22 20  1  0  0  0  0
 23 15  1  0  0  0  0
 23 14  1  0  0  0  0
 25 18  1  0  0  0  0
 26 19  1  0  0  0  0
 26 25  2  0  0  0  0
 27 24  1  1  0  0  0
 27 12  1  0  0  0  0
 28 30  1  0  0  0  0
 30 29  2  0  0  0  0
M  END
>  <MODEL>
8

>  <REMARK>
 VINA RESULT:      -7.5      2.691      5.361
  Name = 
  2 active torsions:
  status: ('A' for Active; 'I' for Inactive)
    1  A    between atoms: C_11  and  C_28
    2  A    between atoms: C_28  and  C_30
                            x       y       z     vdW  Elec       q    Type
                         _______ _______ _______ _____ _____    ______ ____

>  <TORSDO>
F 2

$$$$
=
 OpenBabel11112416213D

 30 35  0  0  1  0  0  0  0  0999 V2000
  191.7750  175.1940  143.8370 C   0  0  0  0  0  0  0  0  0  0  0  0
  192.7480  174.0180  141.8830 C   0  0  0  0  0  0  0  0  0  0  0  0
  188.0380  175.2380  142.1230 N   0  0  0  0  0  0  0  0  0  0  0  0
  190.6440  175.7330  144.5050 C   0  0  0  0  0  0  0  0  0  0  0  0
  193.0230  175.2360  144.4680 O   0  0  0  0  0  0  0  0  0  0  0  0
  192.2560  176.7560  147.6050 O   0  0  0  0  0  0  0  0  0  0  0  0
  188.7760  177.4660  146.3310 C   0  0  1  0  0  3  0  0  0  0  0  0
  192.1100  176.3400  146.4220 C   0  0  0  0  0  0  0  0  0  0  0  0
  187.7880  177.1680  145.2290 C   0  0  2  0  0  3  0  0  0  0  0  0
  187.4020  175.9150  143.1030 C   0  0  0  0  0  0  0  0  0  0  0  0
  193.3160  176.1170  145.5520 C   0  0  1  0  0  3  0  0  0  0  0  0
  190.7940  176.1620  145.8730 N   0  0  0  0  0  0  0  0  0  0  0  0
  192.5760  173.4340  140.6250 C   0  0  0  0  0  3  0  0  0  0  0  0
  186.5390  176.7240  145.9610 C   0  0  0  0  0  2  0  0  0  0  0  0
  187.8930  177.8930  147.4870 C   0  0  0  0  0  2  0  0  0  0  0  0
  193.9920  174.0170  142.4260 F   0  0  0  0  0  0  0  0  0  0  0  0
  189.2910  175.1280  142.5920 C   0  0  0  0  0  0  0  0  0  0  0  0
  191.3190  173.4080  140.0200 C   0  0  0  0  0  3  0  0  0  0  0  0
  191.6450  174.5890  142.5580 C   0  0  0  0  0  0  0  0  0  0  0  0
  189.4050  175.7170  143.8260 C   0  0  0  0  0  0  0  0  0  0  0  0
  185.9810  176.3500  142.9550 C   0  0  0  0  0  1  0  0  0  0  0  0
  188.1920  176.2230  144.1710 N   0  0  0  0  0  0  0  0  0  0  0  0
  186.5480  177.3630  147.2710 N   0  0  0  0  0  2  0  0  0  0  0  0
  188.9430  174.9690  146.9900 C   0  0  0  0  0  1  0  0  0  0  0  0
  190.2190  173.9660  140.6700 C   0  0  0  0  0  3  0  0  0  0  0  0
  190.3720  174.5530  141.9310 C   0  0  0  0  0  0  0  0  0  0  0  0
  189.6550  176.3010  146.7660 C   0  0  2  0  0  3  0  0  0  0  0  0
  194.5280  175.6100  146.3310 C   0  0  0  0  0  2  0  0  0  0  0  0
  196.3990  174.1090  145.8410 C   0  0  0  0  0  2  0  0  0  0  0  0
  195.1010  174.3690  145.7230 C   0  0  0  0  0  3  0  0  0  0  0  0
  1  5  1  0  0  0  0
  1  4  1  0  0  0  0
  2 16  1  0  0  0  0
  2 19  1  0  0  0  0
  3 17  1  0  0  0  0
  3 10  2  0  0  0  0
  4 12  1  0  0  0  0
  5 11  1  0  0  0  0
  7 27  1  0  0  0  0
  7 15  1  1  0  0  0
  8  6  2  0  0  0  0
  9 14  1  1  0  0  0
  9  7  1  0  0  0  0
 10 22  1  0  0  0  0
 11 28  1  1  0  0  0
 11  8  1  0  0  0  0
 12  8  1  0  0  0  0
 12 27  1  0  0  0  0
 13  2  2  0  0  0  0
 14 23  1  0  0  0  0
 17 20  1  0  0  0  0
 18 13  1  0  0  0  0
 18 25  2  0  0  0  0
 19  1  2  0  0  0  0
 20 22  1  0  0  0  0
 20  4  2  0  0  0  0
 21 10  1  0  0  0  0
 22  9  1  0  0  0  0
 23 15  1  0  0  0  0
 25 26  1  0  0  0  0
 26 19  1  0  0  0  0
 26 17  2  0  0  0  0
 27 24  1  6  0  0  0
 30 29  2  0  0  0  0
 30 28  1  0  0  0  0
M  END
>  <MODEL>
9

>  <REMARK>
 VINA RESULT:      -7.5      3.593      7.893
  Name = 
  2 active torsions:
  status: ('A' for Active; 'I' for Inactive)
    1  A    between atoms: C_11  and  C_28
    2  A    between atoms: C_28  and  C_30
                            x       y       z     vdW  Elec       q    Type
                         _______ _______ _______ _____ _____    ______ ____

>  <TORSDO>
F 2

$$$$
