=
 OpenBabel11112417413D

 28 32  0  0  1  0  0  0  0  0999 V2000
  186.1120  178.3340  144.3300 C   0  0  0  0  0  0  0  0  0  0  0  0
  189.4370  177.7270  147.1820 O   0  0  0  0  0  0  0  0  0  0  0  0
  187.9490  174.4320  140.1330 O   0  0  0  0  0  0  0  0  0  0  0  0
  185.1080  176.8850  146.5090 C   0  0  0  0  0  3  0  0  0  0  0  0
  189.6260  175.0670  141.6720 N   0  0  0  0  0  0  0  0  0  0  0  0
  186.5930  179.1460  143.1690 C   0  0  0  0  0  2  0  0  0  0  0  0
  188.5530  175.4230  147.3260 O   0  0  0  0  0  0  0  0  0  0  0  0
  189.5190  176.3330  146.6260 S   0  0  0  0  0  0  0  0  0  0  0  0
  191.8140  175.1210  145.7240 C   0  0  0  0  0  0  0  0  0  0  0  0
  189.2140  176.3590  144.9260 N   0  0  0  0  0  0  0  0  0  0  0  0
  184.9960  177.7190  140.2070 O   0  0  0  0  0  0  0  0  0  0  0  0
  188.3520  176.5700  142.8810 C   0  0  0  0  0  0  0  0  0  0  0  0
  191.2870  175.1580  144.3890 N   0  0  0  0  0  2  0  0  0  0  0  0
  191.1160  175.7140  146.8240 N   0  0  0  0  0  2  0  0  0  0  0  0
  185.9260  178.0040  141.0050 C   0  0  0  0  0  0  0  0  0  0  0  0
  186.8390  177.2290  144.8320 C   0  0  0  0  0  0  0  0  0  0  0  0
  188.3230  175.1590  141.0910 C   0  0  0  0  0  0  0  0  0  0  0  0
  193.2630  174.4180  145.9870 S   0  0  0  0  0  0  0  0  0  0  0  0
  187.2600  177.3590  140.8270 C   0  0  0  0  0  2  0  0  0  0  0  0
  186.3140  176.5120  145.9150 C   0  0  0  0  0  3  0  0  0  0  0  0
  184.9050  178.7050  144.9360 C   0  0  0  0  0  3  0  0  0  0  0  0
  184.4040  177.9850  146.0210 C   0  0  0  0  0  3  0  0  0  0  0  0
  185.6920  178.9590  142.0410 N   0  0  0  0  0  2  0  0  0  0  0  0
  189.5620  175.9600  142.7680 C   0  0  0  0  0  0  0  0  0  0  0  0
  187.4360  176.1760  141.7660 C   0  0  2  0  0  3  0  0  0  0  0  0
  190.0750  175.8300  144.0350 C   0  0  0  0  0  0  0  0  0  0  0  0
  190.4990  173.9080  141.5730 C   0  0  0  0  0  1  0  0  0  0  0  0
  188.1240  176.7940  144.2350 C   0  0  0  0  0  0  0  0  0  0  0  0
  1 16  2  0  0  0  0
  1 21  1  0  0  0  0
  3 17  2  0  0  0  0
  5 24  1  0  0  0  0
  6  1  1  0  0  0  0
  8 14  1  0  0  0  0
  8  2  2  0  0  0  0
  8  7  2  0  0  0  0
  9 18  2  0  0  0  0
  9 14  1  0  0  0  0
 10  8  1  0  0  0  0
 11 15  2  0  0  0  0
 12 28  2  0  0  0  0
 13  9  1  0  0  0  0
 15 23  1  0  0  0  0
 16 20  1  0  0  0  0
 17  5  1  0  0  0  0
 17 25  1  0  0  0  0
 19 15  1  0  0  0  0
 20  4  2  0  0  0  0
 21 22  2  0  0  0  0
 22  4  1  0  0  0  0
 23  6  1  0  0  0  0
 24 12  1  0  0  0  0
 24 26  2  0  0  0  0
 25 19  1  6  0  0  0
 25 12  1  0  0  0  0
 26 13  1  0  0  0  0
 26 10  1  0  0  0  0
 27  5  1  0  0  0  0
 28 16  1  0  0  0  0
 28 10  1  0  0  0  0
M  END
>  <MODEL>
1

>  <REMARK>
 VINA RESULT:      -9.2      0.000      0.000
  Name = 
  0 active torsions:
  status: ('A' for Active; 'I' for Inactive)
                            x       y       z     vdW  Elec       q    Type
                         _______ _______ _______ _____ _____    ______ ____

>  <TORSDO>
F 0

$$$$
=
 OpenBabel11112417413D

 28 32  0  0  1  0  0  0  0  0999 V2000
  185.9490  177.1260  143.7390 C   0  0  0  0  0  0  0  0  0  0  0  0
  187.8250  173.5210  141.9950 O   0  0  0  0  0  0  0  0  0  0  0  0
  190.0600  178.1690  148.0080 O   0  0  0  0  0  0  0  0  0  0  0  0
  187.0410  177.8510  141.2620 C   0  0  0  0  0  3  0  0  0  0  0  0
  190.1320  175.9880  147.1000 N   0  0  0  0  0  0  0  0  0  0  0  0
  185.3110  176.7740  145.0450 C   0  0  0  0  0  2  0  0  0  0  0  0
  189.6680  175.0680  141.4260 O   0  0  0  0  0  0  0  0  0  0  0  0
  189.1300  174.1100  142.4500 S   0  0  0  0  0  0  0  0  0  0  0  0
  191.0390  172.7860  143.9180 C   0  0  0  0  0  0  0  0  0  0  0  0
  188.9230  174.8950  143.9740 N   0  0  0  0  0  0  0  0  0  0  0  0
  185.9440  179.6000  147.2750 O   0  0  0  0  0  0  0  0  0  0  0  0
  188.3290  176.2130  145.6710 C   0  0  0  0  0  0  0  0  0  0  0  0
  190.7580  173.6500  145.0280 N   0  0  0  0  0  2  0  0  0  0  0  0
  190.2860  172.8540  142.7020 N   0  0  0  0  0  2  0  0  0  0  0  0
  186.0440  178.4320  146.8190 C   0  0  0  0  0  0  0  0  0  0  0  0
  187.2620  176.7170  143.4050 C   0  0  0  0  0  0  0  0  0  0  0  0
  189.5570  177.2870  147.2630 C   0  0  0  0  0  0  0  0  0  0  0  0
  192.2220  171.6710  144.0570 S   0  0  0  0  0  0  0  0  0  0  0  0
  187.1140  177.5350  147.3470 C   0  0  0  0  0  2  0  0  0  0  0  0
  187.7920  177.0980  142.1650 C   0  0  0  0  0  3  0  0  0  0  0  0
  185.2000  177.8750  142.8230 C   0  0  0  0  0  3  0  0  0  0  0  0
  185.7420  178.2370  141.5890 C   0  0  0  0  0  3  0  0  0  0  0  0
  185.1150  177.9830  145.8310 N   0  0  0  0  0  2  0  0  0  0  0  0
  189.3240  175.3930  146.1020 C   0  0  0  0  0  0  0  0  0  0  0  0
  188.3210  177.5060  146.4250 C   0  0  2  0  0  3  0  0  0  0  0  0
  189.6840  174.5950  145.0450 C   0  0  0  0  0  0  0  0  0  0  0  0
  191.5200  175.6540  147.3770 C   0  0  0  0  0  1  0  0  0  0  0  0
  188.0990  175.9190  144.3310 C   0  0  0  0  0  0  0  0  0  0  0  0
  1  6  1  0  0  0  0
  2  8  2  0  0  0  0
  4 22  2  0  0  0  0
  4 20  1  0  0  0  0
  5 17  1  0  0  0  0
  5 27  1  0  0  0  0
  6 23  1  0  0  0  0
  7  8  2  0  0  0  0
  8 14  1  0  0  0  0
  8 10  1  0  0  0  0
  9 18  2  0  0  0  0
  9 13  1  0  0  0  0
 10 28  1  0  0  0  0
 10 26  1  0  0  0  0
 12 24  1  0  0  0  0
 12 25  1  0  0  0  0
 13 26  1  0  0  0  0
 14  9  1  0  0  0  0
 15 11  2  0  0  0  0
 15 19  1  0  0  0  0
 16  1  1  0  0  0  0
 16 28  1  0  0  0  0
 17  3  2  0  0  0  0
 20 16  2  0  0  0  0
 21  1  2  0  0  0  0
 22 21  1  0  0  0  0
 23 15  1  0  0  0  0
 24  5  1  0  0  0  0
 25 17  1  0  0  0  0
 25 19  1  1  0  0  0
 26 24  2  0  0  0  0
 28 12  2  0  0  0  0
M  END
>  <MODEL>
2

>  <REMARK>
 VINA RESULT:      -8.3      2.341      4.769
  Name = 
  0 active torsions:
  status: ('A' for Active; 'I' for Inactive)
                            x       y       z     vdW  Elec       q    Type
                         _______ _______ _______ _____ _____    ______ ____

>  <TORSDO>
F 0

$$$$
=
 OpenBabel11112417413D

 28 32  0  0  1  0  0  0  0  0999 V2000
  188.5750  175.7470  145.8120 C   0  0  0  0  0  0  0  0  0  0  0  0
  187.5660  173.6970  142.0250 O   0  0  0  0  0  0  0  0  0  0  0  0
  194.3760  176.8070  144.6150 O   0  0  0  0  0  0  0  0  0  0  0  0
  187.0190  177.5060  144.2830 C   0  0  0  0  0  3  0  0  0  0  0  0
  193.3840  175.1600  143.2410 N   0  0  0  0  0  0  0  0  0  0  0  0
  189.3690  174.8250  146.6820 C   0  0  0  0  0  2  0  0  0  0  0  0
  188.1210  175.8760  140.9970 O   0  0  0  0  0  0  0  0  0  0  0  0
  188.6510  174.5330  141.4080 S   0  0  0  0  0  0  0  0  0  0  0  0
  190.7010  173.5670  139.8540 C   0  0  0  0  0  0  0  0  0  0  0  0
  189.9640  174.7060  142.5170 N   0  0  0  0  0  0  0  0  0  0  0  0
  191.9190  176.8930  148.2880 O   0  0  0  0  0  0  0  0  0  0  0  0
  191.2990  175.1700  144.2400 C   0  0  0  0  0  0  0  0  0  0  0  0
  191.6270  173.9090  140.8960 N   0  0  0  0  0  2  0  0  0  0  0  0
  189.2890  173.7340  140.0190 N   0  0  0  0  0  2  0  0  0  0  0  0
  191.4440  176.0230  147.5140 C   0  0  0  0  0  0  0  0  0  0  0  0
  188.8690  175.9310  144.4410 C   0  0  0  0  0  0  0  0  0  0  0  0
  193.3900  176.0720  144.3430 C   0  0  0  0  0  0  0  0  0  0  0  0
  191.2700  172.9370  138.4610 S   0  0  0  0  0  0  0  0  0  0  0  0
  192.3190  175.4320  146.4590 C   0  0  0  0  0  2  0  0  0  0  0  0
  188.0840  176.8230  143.6970 C   0  0  0  0  0  3  0  0  0  0  0  0
  187.4980  176.4320  146.3910 C   0  0  0  0  0  3  0  0  0  0  0  0
  186.7230  177.3080  145.6310 C   0  0  0  0  0  3  0  0  0  0  0  0
  190.0900  175.6010  147.6810 N   0  0  0  0  0  2  0  0  0  0  0  0
  192.0630  174.6510  143.2430 C   0  0  0  0  0  0  0  0  0  0  0  0
  192.0920  176.0940  145.1110 C   0  0  2  0  0  3  0  0  0  0  0  0
  191.2290  174.3790  142.1870 C   0  0  0  0  0  0  0  0  0  0  0  0
  194.2550  175.2540  142.0800 C   0  0  0  0  0  1  0  0  0  0  0  0
  189.9900  175.2290  143.7740 C   0  0  0  0  0  0  0  0  0  0  0  0
  1 21  1  0  0  0  0
  1  6  1  0  0  0  0
  4 22  1  0  0  0  0
  5 24  1  0  0  0  0
  5 17  1  0  0  0  0
  6 23  1  0  0  0  0
  7  8  2  0  0  0  0
  8  2  2  0  0  0  0
  8 10  1  0  0  0  0
  9 14  1  0  0  0  0
  9 13  1  0  0  0  0
 10 28  1  0  0  0  0
 12 25  1  0  0  0  0
 13 26  1  0  0  0  0
 14  8  1  0  0  0  0
 15 23  1  0  0  0  0
 15 11  2  0  0  0  0
 16  1  2  0  0  0  0
 17  3  2  0  0  0  0
 17 25  1  0  0  0  0
 18  9  2  0  0  0  0
 19 15  1  0  0  0  0
 20  4  2  0  0  0  0
 20 16  1  0  0  0  0
 22 21  2  0  0  0  0
 24 12  1  0  0  0  0
 25 19  1  1  0  0  0
 26 10  1  0  0  0  0
 26 24  2  0  0  0  0
 27  5  1  0  0  0  0
 28 12  2  0  0  0  0
 28 16  1  0  0  0  0
M  END
>  <MODEL>
3

>  <REMARK>
 VINA RESULT:      -8.0      2.862      5.700
  Name = 
  0 active torsions:
  status: ('A' for Active; 'I' for Inactive)
                            x       y       z     vdW  Elec       q    Type
                         _______ _______ _______ _____ _____    ______ ____

>  <TORSDO>
F 0

$$$$
=
 OpenBabel11112417413D

 28 32  0  0  1  0  0  0  0  0999 V2000
  190.5700  174.0560  143.3970 C   0  0  0  0  0  0  0  0  0  0  0  0
  188.6670  175.2880  147.1950 O   0  0  0  0  0  0  0  0  0  0  0  0
  187.0750  177.2570  139.6890 O   0  0  0  0  0  0  0  0  0  0  0  0
  192.3260  175.8130  144.6960 C   0  0  0  0  0  3  0  0  0  0  0  0
  186.1840  176.9680  141.8580 N   0  0  0  0  0  0  0  0  0  0  0  0
  189.6860  173.0790  142.6900 C   0  0  0  0  0  2  0  0  0  0  0  0
  189.4650  177.5420  146.5660 O   0  0  0  0  0  0  0  0  0  0  0  0
  188.3260  176.5670  146.4850 S   0  0  0  0  0  0  0  0  0  0  0  0
  185.8260  177.7050  146.3900 C   0  0  0  0  0  0  0  0  0  0  0  0
  187.9170  176.2370  144.8400 N   0  0  0  0  0  0  0  0  0  0  0  0
  189.9030  173.9060  139.1360 O   0  0  0  0  0  0  0  0  0  0  0  0
  187.8840  175.6410  142.6920 C   0  0  0  0  0  0  0  0  0  0  0  0
  185.7690  177.4170  144.9850 N   0  0  0  0  0  2  0  0  0  0  0  0
  186.9270  177.2800  147.2000 N   0  0  0  0  0  2  0  0  0  0  0  0
  189.3850  173.8030  140.2780 C   0  0  0  0  0  0  0  0  0  0  0  0
  190.0760  175.2620  143.9490 C   0  0  0  0  0  0  0  0  0  0  0  0
  187.1430  176.7210  140.8270 C   0  0  0  0  0  0  0  0  0  0  0  0
  184.5870  178.5050  147.0880 S   0  0  0  0  0  0  0  0  0  0  0  0
  188.0740  174.4650  140.5440 C   0  0  0  0  0  2  0  0  0  0  0  0
  190.9720  176.1300  144.5850 C   0  0  0  0  0  3  0  0  0  0  0  0
  191.9300  173.7420  143.5190 C   0  0  0  0  0  3  0  0  0  0  0  0
  192.8050  174.6160  144.1660 C   0  0  0  0  0  3  0  0  0  0  0  0
  190.0460  173.0300  141.2800 N   0  0  0  0  0  2  0  0  0  0  0  0
  186.7140  176.2750  142.9720 C   0  0  0  0  0  0  0  0  0  0  0  0
  188.2580  175.7980  141.2520 C   0  0  2  0  0  3  0  0  0  0  0  0
  186.7530  176.6420  144.2950 C   0  0  0  0  0  0  0  0  0  0  0  0
  185.3110  178.1300  141.9200 C   0  0  0  0  0  1  0  0  0  0  0  0
  188.6470  175.6430  143.8550 C   0  0  0  0  0  0  0  0  0  0  0  0
  1 21  2  0  0  0  0
  1 16  1  0  0  0  0
  3 17  2  0  0  0  0
  5 27  1  0  0  0  0
  5 24  1  0  0  0  0
  6  1  1  0  0  0  0
  8  7  2  0  0  0  0
  8  2  2  0  0  0  0
  8 14  1  0  0  0  0
  9 18  2  0  0  0  0
  9 14  1  0  0  0  0
 10  8  1  0  0  0  0
 11 15  2  0  0  0  0
 12 24  1  0  0  0  0
 12 28  2  0  0  0  0
 13  9  1  0  0  0  0
 15 19  1  0  0  0  0
 15 23  1  0  0  0  0
 16 20  2  0  0  0  0
 17 25  1  0  0  0  0
 17  5  1  0  0  0  0
 20  4  1  0  0  0  0
 21 22  1  0  0  0  0
 22  4  2  0  0  0  0
 23  6  1  0  0  0  0
 24 26  2  0  0  0  0
 25 19  1  6  0  0  0
 25 12  1  0  0  0  0
 26 10  1  0  0  0  0
 26 13  1  0  0  0  0
 28 16  1  0  0  0  0
 28 10  1  0  0  0  0
M  END
>  <MODEL>
4

>  <REMARK>
 VINA RESULT:      -8.0      1.973      5.281
  Name = 
  0 active torsions:
  status: ('A' for Active; 'I' for Inactive)
                            x       y       z     vdW  Elec       q    Type
                         _______ _______ _______ _____ _____    ______ ____

>  <TORSDO>
F 0

$$$$
=
 OpenBabel11112417413D

 28 32  0  0  1  0  0  0  0  0999 V2000
  187.3080  177.0240  144.8190 C   0  0  0  0  0  0  0  0  0  0  0  0
  187.0670  173.6140  142.0130 O   0  0  0  0  0  0  0  0  0  0  0  0
  193.1100  176.4190  146.3000 O   0  0  0  0  0  0  0  0  0  0  0  0
  187.1610  178.0690  142.2230 C   0  0  0  0  0  3  0  0  0  0  0  0
  192.1570  174.5040  145.2950 N   0  0  0  0  0  0  0  0  0  0  0  0
  187.3420  176.5120  146.2240 C   0  0  0  0  0  2  0  0  0  0  0  0
  188.7050  174.9150  140.6940 O   0  0  0  0  0  0  0  0  0  0  0  0
  188.5260  173.8640  141.7510 S   0  0  0  0  0  0  0  0  0  0  0  0
  190.4990  171.9540  141.8380 C   0  0  0  0  0  0  0  0  0  0  0  0
  189.3160  174.3260  143.2160 N   0  0  0  0  0  0  0  0  0  0  0  0
  189.7030  178.6460  148.0220 O   0  0  0  0  0  0  0  0  0  0  0  0
  190.0090  175.3310  145.0820 C   0  0  0  0  0  0  0  0  0  0  0  0
  191.0420  172.5940  143.0020 N   0  0  0  0  0  2  0  0  0  0  0  0
  189.2870  172.4070  141.2270 N   0  0  0  0  0  2  0  0  0  0  0  0
  189.2590  177.6030  147.4760 C   0  0  0  0  0  0  0  0  0  0  0  0
  188.1230  176.4810  143.7970 C   0  0  0  0  0  0  0  0  0  0  0  0
  192.0950  175.8160  145.8610 C   0  0  0  0  0  0  0  0  0  0  0  0
  191.2630  170.6520  141.2170 S   0  0  0  0  0  0  0  0  0  0  0  0
  190.1780  176.4470  147.2630 C   0  0  0  0  0  2  0  0  0  0  0  0
  188.0410  177.0250  142.5090 C   0  0  0  0  0  3  0  0  0  0  0  0
  186.4220  178.0670  144.5210 C   0  0  0  0  0  3  0  0  0  0  0  0
  186.3480  178.5890  143.2290 C   0  0  0  0  0  3  0  0  0  0  0  0
  187.8820  177.5400  147.1020 N   0  0  0  0  0  2  0  0  0  0  0  0
  190.8380  174.2820  144.8340 C   0  0  0  0  0  0  0  0  0  0  0  0
  190.7100  176.4130  145.8400 C   0  0  2  0  0  3  0  0  0  0  0  0
  190.4040  173.6800  143.6790 C   0  0  0  0  0  0  0  0  0  0  0  0
  193.3590  173.8900  144.7530 C   0  0  0  0  0  1  0  0  0  0  0  0
  189.0740  175.3730  144.0520 C   0  0  0  0  0  0  0  0  0  0  0  0
  1  6  1  0  0  0  0
  4 20  2  0  0  0  0
  4 22  1  0  0  0  0
  5 17  1  0  0  0  0
  6 23  1  0  0  0  0
  7  8  2  0  0  0  0
  8  2  2  0  0  0  0
  8 10  1  0  0  0  0
  9 13  1  0  0  0  0
 10 26  1  0  0  0  0
 10 28  1  0  0  0  0
 12 25  1  0  0  0  0
 13 26  1  0  0  0  0
 14  8  1  0  0  0  0
 14  9  1  0  0  0  0
 15 11  2  0  0  0  0
 16 28  1  0  0  0  0
 16  1  2  0  0  0  0
 17  3  2  0  0  0  0
 18  9  2  0  0  0  0
 19 15  1  0  0  0  0
 20 16  1  0  0  0  0
 21  1  1  0  0  0  0
 22 21  2  0  0  0  0
 23 15  1  0  0  0  0
 24 12  1  0  0  0  0
 24  5  1  0  0  0  0
 25 17  1  0  0  0  0
 25 19  1  1  0  0  0
 26 24  2  0  0  0  0
 27  5  1  0  0  0  0
 28 12  2  0  0  0  0
M  END
>  <MODEL>
5

>  <REMARK>
 VINA RESULT:      -7.5      2.642      5.169
  Name = 
  0 active torsions:
  status: ('A' for Active; 'I' for Inactive)
                            x       y       z     vdW  Elec       q    Type
                         _______ _______ _______ _____ _____    ______ ____

>  <TORSDO>
F 0

$$$$
=
 OpenBabel11112417413D

 28 32  0  0  1  0  0  0  0  0999 V2000
  190.4920  177.1890  145.4720 C   0  0  0  0  0  0  0  0  0  0  0  0
  194.8800  177.7380  145.3880 O   0  0  0  0  0  0  0  0  0  0  0  0
  190.1310  173.0470  141.1220 O   0  0  0  0  0  0  0  0  0  0  0  0
  191.5440  175.9730  147.7680 C   0  0  0  0  0  3  0  0  0  0  0  0
  192.1640  174.2510  141.1530 N   0  0  0  0  0  0  0  0  0  0  0  0
  189.8820  177.8640  144.2850 C   0  0  0  0  0  2  0  0  0  0  0  0
  194.9320  175.3670  146.0860 O   0  0  0  0  0  0  0  0  0  0  0  0
  194.9420  176.3120  144.9200 S   0  0  0  0  0  0  0  0  0  0  0  0
  196.3310  175.4280  142.7200 C   0  0  0  0  0  0  0  0  0  0  0  0
  193.6230  175.9830  143.8540 N   0  0  0  0  0  0  0  0  0  0  0  0
  187.1970  175.6650  143.1390 O   0  0  0  0  0  0  0  0  0  0  0  0
  191.6330  175.6660  142.9010 C   0  0  0  0  0  0  0  0  0  0  0  0
  195.0840  175.1310  142.0750 N   0  0  0  0  0  2  0  0  0  0  0  0
  196.3820  176.0560  144.0050 N   0  0  0  0  0  2  0  0  0  0  0  0
  188.3060  176.2580  143.1150 C   0  0  0  0  0  0  0  0  0  0  0  0
  191.6260  176.3490  145.3640 C   0  0  0  0  0  0  0  0  0  0  0  0
  190.8270  173.9880  141.5870 C   0  0  0  0  0  0  0  0  0  0  0  0
  197.7270  175.0730  141.9530 S   0  0  0  0  0  0  0  0  0  0  0  0
  189.3210  175.8610  142.0950 C   0  0  0  0  0  2  0  0  0  0  0  0
  192.1290  175.7440  146.5220 C   0  0  0  0  0  3  0  0  0  0  0  0
  189.9150  177.4200  146.7280 C   0  0  0  0  0  3  0  0  0  0  0  0
  190.4380  176.8150  147.8710 C   0  0  0  0  0  3  0  0  0  0  0  0
  188.5560  177.3150  144.0430 N   0  0  0  0  0  2  0  0  0  0  0  0
  192.5910  175.2910  142.0130 C   0  0  0  0  0  0  0  0  0  0  0  0
  190.3580  174.9160  142.6790 C   0  0  2  0  0  3  0  0  0  0  0  0
  193.8080  175.4840  142.6160 C   0  0  0  0  0  0  0  0  0  0  0  0
  193.0310  173.2830  140.4990 C   0  0  0  0  0  1  0  0  0  0  0  0
  192.2810  176.0730  144.0630 C   0  0  0  0  0  0  0  0  0  0  0  0
  1 21  1  0  0  0  0
  3 17  2  0  0  0  0
  4 22  1  0  0  0  0
  5 17  1  0  0  0  0
  5 24  1  0  0  0  0
  6  1  1  0  0  0  0
  8  2  2  0  0  0  0
  8  7  2  0  0  0  0
  9 14  1  0  0  0  0
 10 28  1  0  0  0  0
 10  8  1  0  0  0  0
 12 28  2  0  0  0  0
 13 26  1  0  0  0  0
 13  9  1  0  0  0  0
 14  8  1  0  0  0  0
 15 11  2  0  0  0  0
 15 23  1  0  0  0  0
 16  1  2  0  0  0  0
 16 20  1  0  0  0  0
 17 25  1  0  0  0  0
 18  9  2  0  0  0  0
 19 15  1  0  0  0  0
 20  4  2  0  0  0  0
 21 22  2  0  0  0  0
 23  6  1  0  0  0  0
 24 26  2  0  0  0  0
 24 12  1  0  0  0  0
 25 19  1  6  0  0  0
 25 12  1  0  0  0  0
 26 10  1  0  0  0  0
 27  5  1  0  0  0  0
 28 16  1  0  0  0  0
M  END
>  <MODEL>
6

>  <REMARK>
 VINA RESULT:      -7.4      3.265      4.669
  Name = 
  0 active torsions:
  status: ('A' for Active; 'I' for Inactive)
                            x       y       z     vdW  Elec       q    Type
                         _______ _______ _______ _____ _____    ______ ____

>  <TORSDO>
F 0

$$$$
=
 OpenBabel11112417413D

 28 32  0  0  1  0  0  0  0  0999 V2000
  191.6480  174.9010  142.1870 C   0  0  0  0  0  0  0  0  0  0  0  0
  187.7280  176.4580  140.8550 O   0  0  0  0  0  0  0  0  0  0  0  0
  191.1730  176.4250  147.9890 O   0  0  0  0  0  0  0  0  0  0  0  0
  189.9780  172.7010  141.7090 C   0  0  0  0  0  3  0  0  0  0  0  0
  189.6580  177.5440  146.5620 N   0  0  0  0  0  0  0  0  0  0  0  0
  192.5880  176.0430  142.4100 C   0  0  0  0  0  2  0  0  0  0  0  0
  186.8160  174.7510  142.3940 O   0  0  0  0  0  0  0  0  0  0  0  0
  187.2610  176.1780  142.2560 S   0  0  0  0  0  0  0  0  0  0  0  0
  185.9450  177.9690  143.8720 C   0  0  0  0  0  0  0  0  0  0  0  0
  188.5220  176.5390  143.3800 N   0  0  0  0  0  0  0  0  0  0  0  0
  194.5270  175.1900  145.3890 O   0  0  0  0  0  0  0  0  0  0  0  0
  190.4010  176.6230  144.5760 C   0  0  0  0  0  0  0  0  0  0  0  0
  187.0960  178.0140  144.7280 N   0  0  0  0  0  2  0  0  0  0  0  0
  185.9430  177.2170  142.6540 N   0  0  0  0  0  2  0  0  0  0  0  0
  193.6840  175.8040  144.6840 C   0  0  0  0  0  0  0  0  0  0  0  0
  190.3250  174.9030  142.6890 C   0  0  0  0  0  0  0  0  0  0  0  0
  190.7700  176.6840  146.8240 C   0  0  0  0  0  0  0  0  0  0  0  0
  184.6170  178.8250  144.2800 S   0  0  0  0  0  0  0  0  0  0  0  0
  192.7310  176.7430  145.3450 C   0  0  0  0  0  2  0  0  0  0  0  0
  189.5100  173.7890  142.4460 C   0  0  0  0  0  3  0  0  0  0  0  0
  192.1070  173.8080  141.4410 C   0  0  0  0  0  3  0  0  0  0  0  0
  191.2770  172.7120  141.2030 C   0  0  0  0  0  3  0  0  0  0  0  0
  193.6810  175.6110  143.2690 N   0  0  0  0  0  2  0  0  0  0  0  0
  189.4920  177.4480  145.1600 C   0  0  0  0  0  0  0  0  0  0  0  0
  191.3780  176.0920  145.5770 C   0  0  2  0  0  3  0  0  0  0  0  0
  188.3390  177.3790  144.4170 C   0  0  0  0  0  0  0  0  0  0  0  0
  188.6120  177.8640  147.5200 C   0  0  0  0  0  1  0  0  0  0  0  0
  189.7830  176.0340  143.4780 C   0  0  0  0  0  0  0  0  0  0  0  0
  1  6  1  0  0  0  0
  1 16  1  0  0  0  0
  2  8  2  0  0  0  0
  4 20  1  0  0  0  0
  5 17  1  0  0  0  0
  5 27  1  0  0  0  0
  6 23  1  0  0  0  0
  8  7  2  0  0  0  0
  8 14  1  0  0  0  0
  8 10  1  0  0  0  0
  9 18  2  0  0  0  0
  9 13  1  0  0  0  0
 10 28  1  0  0  0  0
 10 26  1  0  0  0  0
 12 24  1  0  0  0  0
 12 25  1  0  0  0  0
 14  9  1  0  0  0  0
 15 19  1  0  0  0  0
 15 11  2  0  0  0  0
 16 28  1  0  0  0  0
 17  3  2  0  0  0  0
 20 16  2  0  0  0  0
 21  1  2  0  0  0  0
 22 21  1  0  0  0  0
 22  4  2  0  0  0  0
 23 15  1  0  0  0  0
 24  5  1  0  0  0  0
 25 19  1  6  0  0  0
 25 17  1  0  0  0  0
 26 13  1  0  0  0  0
 26 24  2  0  0  0  0
 28 12  2  0  0  0  0
M  END
>  <MODEL>
7

>  <REMARK>
 VINA RESULT:      -7.3      2.677      6.805
  Name = 
  0 active torsions:
  status: ('A' for Active; 'I' for Inactive)
                            x       y       z     vdW  Elec       q    Type
                         _______ _______ _______ _____ _____    ______ ____

>  <TORSDO>
F 0

$$$$
=
 OpenBabel11112417413D

 28 32  0  0  1  0  0  0  0  0999 V2000
  190.2980  177.0660  145.5620 C   0  0  0  0  0  0  0  0  0  0  0  0
  194.5070  176.4160  144.3670 O   0  0  0  0  0  0  0  0  0  0  0  0
  187.7940  173.0500  141.8450 O   0  0  0  0  0  0  0  0  0  0  0  0
  191.5660  175.6780  147.6410 C   0  0  0  0  0  3  0  0  0  0  0  0
  190.0010  173.6650  141.2680 N   0  0  0  0  0  0  0  0  0  0  0  0
  189.5930  177.8460  144.4980 C   0  0  0  0  0  2  0  0  0  0  0  0
  194.1390  174.1390  145.2570 O   0  0  0  0  0  0  0  0  0  0  0  0
  194.0840  175.0120  144.0370 S   0  0  0  0  0  0  0  0  0  0  0  0
  194.5890  173.7260  141.6620 C   0  0  0  0  0  0  0  0  0  0  0  0
  192.4960  175.0190  143.3580 N   0  0  0  0  0  0  0  0  0  0  0  0
  186.2380  176.4160  144.2510 O   0  0  0  0  0  0  0  0  0  0  0  0
  190.3140  175.2210  142.9500 C   0  0  0  0  0  0  0  0  0  0  0  0
  193.1840  173.7550  141.3690 N   0  0  0  0  0  2  0  0  0  0  0  0
  195.1270  174.3540  142.8300 N   0  0  0  0  0  2  0  0  0  0  0  0
  187.4160  176.6880  143.9030 C   0  0  0  0  0  0  0  0  0  0  0  0
  191.1160  175.9500  145.2640 C   0  0  0  0  0  0  0  0  0  0  0  0
  188.8000  173.7830  142.0360 C   0  0  0  0  0  0  0  0  0  0  0  0
  195.6030  172.9880  140.6180 S   0  0  0  0  0  0  0  0  0  0  0  0
  187.9990  176.0050  142.7110 C   0  0  0  0  0  2  0  0  0  0  0  0
  191.7320  175.2650  146.3190 C   0  0  0  0  0  3  0  0  0  0  0  0
  190.1430  177.4790  146.8910 C   0  0  0  0  0  3  0  0  0  0  0  0
  190.7740  176.7890  147.9270 C   0  0  0  0  0  3  0  0  0  0  0  0
  188.1550  177.6660  144.6370 N   0  0  0  0  0  2  0  0  0  0  0  0
  190.8830  174.5770  141.8960 C   0  0  0  0  0  0  0  0  0  0  0  0
  188.8790  174.8330  143.1150 C   0  0  2  0  0  3  0  0  0  0  0  0
  192.2240  174.4530  142.1660 C   0  0  0  0  0  0  0  0  0  0  0  0
  190.3960  172.4820  140.5200 C   0  0  0  0  0  1  0  0  0  0  0  0
  191.3210  175.4710  143.8760 C   0  0  0  0  0  0  0  0  0  0  0  0
  1 21  1  0  0  0  0
  3 17  2  0  0  0  0
  4 22  1  0  0  0  0
  5 24  1  0  0  0  0
  5 17  1  0  0  0  0
  6 23  1  0  0  0  0
  6  1  1  0  0  0  0
  8  2  2  0  0  0  0
  8  7  2  0  0  0  0
  9 14  1  0  0  0  0
 10 28  1  0  0  0  0
 10  8  1  0  0  0  0
 12 25  1  0  0  0  0
 12 28  2  0  0  0  0
 13  9  1  0  0  0  0
 13 26  1  0  0  0  0
 14  8  1  0  0  0  0
 15 11  2  0  0  0  0
 15 23  1  0  0  0  0
 16  1  2  0  0  0  0
 16 20  1  0  0  0  0
 17 25  1  0  0  0  0
 18  9  2  0  0  0  0
 19 15  1  0  0  0  0
 20  4  2  0  0  0  0
 21 22  2  0  0  0  0
 24 26  2  0  0  0  0
 24 12  1  0  0  0  0
 25 19  1  6  0  0  0
 26 10  1  0  0  0  0
 27  5  1  0  0  0  0
 28 16  1  0  0  0  0
M  END
>  <MODEL>
8

>  <REMARK>
 VINA RESULT:      -7.2      2.921      4.386
  Name = 
  0 active torsions:
  status: ('A' for Active; 'I' for Inactive)
                            x       y       z     vdW  Elec       q    Type
                         _______ _______ _______ _____ _____    ______ ____

>  <TORSDO>
F 0

$$$$
=
 OpenBabel11112417413D

 28 32  0  0  1  0  0  0  0  0999 V2000
  190.5540  176.0050  145.0590 C   0  0  0  0  0  0  0  0  0  0  0  0
  188.1540  173.4300  142.3820 O   0  0  0  0  0  0  0  0  0  0  0  0
  195.2580  176.7910  141.3890 O   0  0  0  0  0  0  0  0  0  0  0  0
  188.4150  177.5400  144.0980 C   0  0  0  0  0  3  0  0  0  0  0  0
  193.8650  174.9720  140.8090 N   0  0  0  0  0  0  0  0  0  0  0  0
  191.6840  175.2110  145.6330 C   0  0  0  0  0  2  0  0  0  0  0  0
  188.1170  175.4230  140.9200 O   0  0  0  0  0  0  0  0  0  0  0  0
  188.8370  174.1480  141.2540 S   0  0  0  0  0  0  0  0  0  0  0  0
  190.0920  172.9320  139.1330 C   0  0  0  0  0  0  0  0  0  0  0  0
  190.4840  174.4650  141.6680 N   0  0  0  0  0  0  0  0  0  0  0  0
  194.5660  177.4590  145.7030 O   0  0  0  0  0  0  0  0  0  0  0  0
  192.3930  175.1620  142.5820 C   0  0  0  0  0  0  0  0  0  0  0  0
  191.3510  173.4130  139.6260 N   0  0  0  0  0  2  0  0  0  0  0  0
  188.8730  173.1420  139.8530 N   0  0  0  0  0  2  0  0  0  0  0  0
  193.8540  176.4900  145.3320 C   0  0  0  0  0  0  0  0  0  0  0  0
  190.2360  175.9790  143.6800 C   0  0  0  0  0  0  0  0  0  0  0  0
  194.2870  176.0380  141.6640 C   0  0  0  0  0  0  0  0  0  0  0  0
  190.0540  172.0940  137.7330 S   0  0  0  0  0  0  0  0  0  0  0  0
  194.2350  175.7360  144.1020 C   0  0  0  0  0  2  0  0  0  0  0  0
  189.1690  176.7610  143.2200 C   0  0  0  0  0  3  0  0  0  0  0  0
  189.7870  176.7840  145.9350 C   0  0  0  0  0  3  0  0  0  0  0  0
  188.7220  177.5490  145.4580 C   0  0  0  0  0  3  0  0  0  0  0  0
  192.7180  176.1170  146.1130 N   0  0  0  0  0  2  0  0  0  0  0  0
  192.6930  174.4890  141.4390 C   0  0  0  0  0  0  0  0  0  0  0  0
  193.4310  176.1930  142.8970 C   0  0  2  0  0  3  0  0  0  0  0  0
  191.5080  174.0740  140.8850 C   0  0  0  0  0  0  0  0  0  0  0  0
  194.1620  174.8810  139.3880 C   0  0  0  0  0  1  0  0  0  0  0  0
  191.0080  175.1700  142.7080 C   0  0  0  0  0  0  0  0  0  0  0  0
  1  6  1  0  0  0  0
  1 21  1  0  0  0  0
  3 17  2  0  0  0  0
  4 22  1  0  0  0  0
  5 24  1  0  0  0  0
  5 17  1  0  0  0  0
  6 23  1  0  0  0  0
  7  8  2  0  0  0  0
  8 10  1  0  0  0  0
  8  2  2  0  0  0  0
  9 13  1  0  0  0  0
  9 14  1  0  0  0  0
 10 28  1  0  0  0  0
 12 28  2  0  0  0  0
 12 25  1  0  0  0  0
 13 26  1  0  0  0  0
 14  8  1  0  0  0  0
 15 11  2  0  0  0  0
 15 23  1  0  0  0  0
 16  1  2  0  0  0  0
 17 25  1  0  0  0  0
 18  9  2  0  0  0  0
 19 15  1  0  0  0  0
 20 16  1  0  0  0  0
 20  4  2  0  0  0  0
 22 21  2  0  0  0  0
 24 12  1  0  0  0  0
 25 19  1  1  0  0  0
 26 24  2  0  0  0  0
 26 10  1  0  0  0  0
 27  5  1  0  0  0  0
 28 16  1  0  0  0  0
M  END
>  <MODEL>
9

>  <REMARK>
 VINA RESULT:      -7.1      3.550      6.261
  Name = 
  0 active torsions:
  status: ('A' for Active; 'I' for Inactive)
                            x       y       z     vdW  Elec       q    Type
                         _______ _______ _______ _____ _____    ______ ____

>  <TORSDO>
F 0

$$$$
