=
 OpenBabel11112416483D

 31 35  0  0  1  0  0  0  0  0999 V2000
  188.2410  174.4210  140.3340 C   0  0  0  0  0  0  0  0  0  0  0  0
  188.6400  176.6320  143.3870 C   0  0  2  0  0  3  0  0  0  0  0  0
  187.9610  176.8300  144.7290 C   0  0  0  0  0  0  0  0  0  0  0  0
  185.9150  176.8390  146.0470 C   0  0  0  0  0  0  0  0  0  0  0  0
  188.1710  175.3500  142.6750 C   0  0  1  0  0  3  0  0  0  0  0  0
  188.4430  173.0520  140.8780 C   0  0  0  0  0  2  0  0  0  0  0  0
  186.5810  176.5980  144.8430 C   0  0  0  0  0  3  0  0  0  0  0  0
  190.8300  175.4150  143.8180 C   0  0  0  0  0  0  0  0  0  0  0  0
  188.0930  174.5990  139.0980 O   0  0  0  0  0  0  0  0  0  0  0  0
  190.1360  177.6240  145.7890 C   0  0  0  0  0  2  0  0  0  0  0  0
  184.5870  176.5980  146.1460 F   0  0  0  0  0  0  0  0  0  0  0  0
  189.9470  174.2680  144.2190 C   0  0  0  0  0  2  0  0  0  0  0  0
  190.1820  176.7230  143.4430 C   0  0  2  0  0  3  0  0  0  0  0  0
  192.1260  175.3130  143.7470 N   0  0  0  0  0  0  0  0  0  0  0  0
  188.2280  175.5340  141.2260 N   0  0  0  0  0  2  0  0  0  0  0  0
  186.6190  177.3320  147.1470 C   0  0  0  0  0  3  0  0  0  0  0  0
  188.8660  174.0360  143.1640 C   0  0  2  0  0  3  0  0  0  0  0  0
  189.4170  173.1460  142.0430 C   0  0  0  0  0  2  0  0  0  0  0  0
  190.6250  177.8600  144.3630 C   0  0  0  0  0  2  0  0  0  0  0  0
  188.6590  177.3650  145.8370 C   0  0  0  0  0  0  0  0  0  0  0  0
  187.9860  177.5920  147.0410 C   0  0  0  0  0  3  0  0  0  0  0  0
  193.0580  173.2200  143.2110 O   0  0  0  0  0  0  0  0  0  0  0  0
  192.9350  174.1600  144.0390 C   0  0  0  0  0  0  0  0  0  0  0  0
  194.6200  176.7660  145.7130 C   0  0  0  0  0  0  0  0  0  0  0  0
  193.0230  174.9300  146.4340 C   0  0  0  0  0  2  0  0  0  0  0  0
  195.7750  173.5210  144.3170 O   0  0  0  0  0  1  0  0  0  0  0  0
  194.9730  177.9680  145.8210 O   0  0  0  0  0  0  0  0  0  0  0  0
  193.3760  176.3400  146.2810 N   0  0  0  0  0  2  0  0  0  0  0  0
  195.1650  174.3660  145.2460 C   0  0  2  0  0  3  0  0  0  0  0  0
  193.6640  174.0660  145.3480 C   0  0  2  0  0  3  0  0  0  0  0  0
  195.4490  175.8250  144.8920 C   0  0  0  0  0  2  0  0  0  0  0  0
  1  6  1  0  0  0  0
  1 15  1  0  0  0  0
  2 13  1  0  0  0  0
  2  3  1  1  0  0  0
  3  7  2  0  0  0  0
  3 20  1  0  0  0  0
  4 11  1  0  0  0  0
  4 16  2  0  0  0  0
  5 15  1  6  0  0  0
  5 17  1  0  0  0  0
  5  2  1  0  0  0  0
  6 18  1  0  0  0  0
  7  4  1  0  0  0  0
  8 12  1  0  0  0  0
  9  1  2  0  0  0  0
 10 20  1  0  0  0  0
 13  8  1  0  0  0  0
 13 19  1  1  0  0  0
 14  8  2  0  0  0  0
 14 23  1  0  0  0  0
 17 18  1  6  0  0  0
 17 12  1  0  0  0  0
 19 10  1  0  0  0  0
 20 21  2  0  0  0  0
 21 16  1  0  0  0  0
 22 23  2  0  0  0  0
 24 27  2  0  0  0  0
 24 28  1  0  0  0  0
 28 25  1  0  0  0  0
 29 26  1  6  0  0  0
 29 30  1  0  0  0  0
 30 23  1  6  0  0  0
 30 25  1  0  0  0  0
 31 29  1  0  0  0  0
 31 24  1  0  0  0  0
M  END
>  <MODEL>
1

>  <REMARK>
 VINA RESULT:      -8.7      0.000      0.000
  Name = 
  2 active torsions:
  status: ('A' for Active; 'I' for Inactive)
    1  A    between atoms: C_5  and  N_16
    2  A    between atoms: C_5  and  C_30
                            x       y       z     vdW  Elec       q    Type
                         _______ _______ _______ _____ _____    ______ ____

>  <TORSDO>
F 2

$$$$
=
 OpenBabel11112416483D

 31 35  0  0  1  0  0  0  0  0999 V2000
  193.5580  176.7590  145.3610 C   0  0  0  0  0  0  0  0  0  0  0  0
  190.8650  176.0140  142.7990 C   0  0  2  0  0  3  0  0  0  0  0  0
  190.2830  174.8010  142.0990 C   0  0  0  0  0  0  0  0  0  0  0  0
  190.6210  172.5980  141.1240 C   0  0  0  0  0  0  0  0  0  0  0  0
  191.7810  175.6310  143.9750 C   0  0  1  0  0  3  0  0  0  0  0  0
  193.0930  176.0210  146.5660 C   0  0  0  0  0  2  0  0  0  0  0  0
  191.1100  173.6990  141.8280 C   0  0  0  0  0  3  0  0  0  0  0  0
  189.1790  176.7620  144.5500 C   0  0  0  0  0  0  0  0  0  0  0  0
  194.5790  177.4910  145.4180 O   0  0  0  0  0  0  0  0  0  0  0  0
  188.0170  175.9410  141.8620 C   0  0  0  0  0  2  0  0  0  0  0  0
  191.4270  171.5360  140.8820 F   0  0  0  0  0  0  0  0  0  0  0  0
  189.5170  175.4610  145.2220 C   0  0  0  0  0  2  0  0  0  0  0  0
  189.8120  177.0660  143.2160 C   0  0  2  0  0  3  0  0  0  0  0  0
  188.3930  177.6480  145.0890 N   0  0  0  0  0  0  0  0  0  0  0  0
  192.8290  176.6370  144.1410 N   0  0  0  0  0  2  0  0  0  0  0  0
  189.3030  172.5920  140.6660 C   0  0  0  0  0  3  0  0  0  0  0  0
  191.0340  175.2850  145.3050 C   0  0  2  0  0  3  0  0  0  0  0  0
  191.5720  176.0030  146.5490 C   0  0  0  0  0  2  0  0  0  0  0  0
  188.7630  177.2470  142.1190 C   0  0  0  0  0  2  0  0  0  0  0  0
  188.9600  174.8030  141.5990 C   0  0  0  0  0  0  0  0  0  0  0  0
  188.4750  173.6900  140.9040 C   0  0  0  0  0  3  0  0  0  0  0  0
  188.3380  177.6310  147.4420 O   0  0  0  0  0  0  0  0  0  0  0  0
  187.7110  177.5650  146.3530 C   0  0  0  0  0  0  0  0  0  0  0  0
  185.4170  178.5580  143.8660 C   0  0  0  0  0  0  0  0  0  0  0  0
  185.7020  176.4790  145.2930 C   0  0  0  0  0  2  0  0  0  0  0  0
  185.8580  179.5620  147.4160 O   0  0  0  0  0  1  0  0  0  0  0  0
  185.1460  179.0400  142.7370 O   0  0  0  0  0  0  0  0  0  0  0  0
  185.6500  177.1500  143.9960 N   0  0  0  0  0  2  0  0  0  0  0  0
  185.4540  178.7390  146.3640 C   0  0  2  0  0  3  0  0  0  0  0  0
  186.2180  177.4090  146.3910 C   0  0  2  0  0  3  0  0  0  0  0  0
  185.6060  179.4770  145.0340 C   0  0  0  0  0  2  0  0  0  0  0  0
  1  9  2  0  0  0  0
  1  6  1  0  0  0  0
  2  3  1  1  0  0  0
  2 13  1  0  0  0  0
  2  5  1  0  0  0  0
  4  7  2  0  0  0  0
  5 15  1  1  0  0  0
  5 17  1  0  0  0  0
  7  3  1  0  0  0  0
  8 14  2  0  0  0  0
  8 12  1  0  0  0  0
 10 19  1  0  0  0  0
 11  4  1  0  0  0  0
 13 19  1  6  0  0  0
 13  8  1  0  0  0  0
 14 23  1  0  0  0  0
 15  1  1  0  0  0  0
 16 21  2  0  0  0  0
 16  4  1  0  0  0  0
 17 12  1  6  0  0  0
 17 18  1  0  0  0  0
 18  6  1  0  0  0  0
 20 10  1  0  0  0  0
 20  3  2  0  0  0  0
 21 20  1  0  0  0  0
 23 22  2  0  0  0  0
 24 28  1  0  0  0  0
 24 31  1  0  0  0  0
 25 30  1  0  0  0  0
 27 24  2  0  0  0  0
 28 25  1  0  0  0  0
 29 30  1  0  0  0  0
 29 26  1  1  0  0  0
 30 23  1  6  0  0  0
 31 29  1  0  0  0  0
M  END
>  <MODEL>
2

>  <REMARK>
 VINA RESULT:      -8.6      3.439      7.182
  Name = 
  2 active torsions:
  status: ('A' for Active; 'I' for Inactive)
    1  A    between atoms: C_5  and  N_16
    2  A    between atoms: C_5  and  C_30
                            x       y       z     vdW  Elec       q    Type
                         _______ _______ _______ _____ _____    ______ ____

>  <TORSDO>
F 2

$$$$
=
 OpenBabel11112416483D

 31 35  0  0  1  0  0  0  0  0999 V2000
  188.8470  173.9070  142.0670 C   0  0  0  0  0  0  0  0  0  0  0  0
  191.0400  174.7320  145.0470 C   0  0  2  0  0  3  0  0  0  0  0  0
  192.2870  175.5460  145.3360 C   0  0  0  0  0  0  0  0  0  0  0  0
  194.4550  176.3670  144.5970 C   0  0  0  0  0  0  0  0  0  0  0  0
  190.4580  175.0220  143.6520 C   0  0  1  0  0  3  0  0  0  0  0  0
  188.3350  175.2380  141.6450 C   0  0  0  0  0  2  0  0  0  0  0  0
  193.2660  175.6830  144.3380 C   0  0  0  0  0  3  0  0  0  0  0  0
  189.0580  176.0240  145.9790 C   0  0  0  0  0  0  0  0  0  0  0  0
  188.4400  172.8600  141.5020 O   0  0  0  0  0  0  0  0  0  0  0  0
  191.5410  175.9650  147.7350 C   0  0  0  0  0  2  0  0  0  0  0  0
  195.3840  176.5030  143.6210 F   0  0  0  0  0  0  0  0  0  0  0  0
  189.3870  177.0210  144.9040 C   0  0  0  0  0  2  0  0  0  0  0  0
  189.9580  174.8270  146.1480 C   0  0  2  0  0  3  0  0  0  0  0  0
  188.0110  176.1360  146.7440 N   0  0  0  0  0  0  0  0  0  0  0  0
  189.7980  173.8280  143.1270 N   0  0  0  0  0  2  0  0  0  0  0  0
  194.6880  176.9080  145.8620 C   0  0  0  0  0  3  0  0  0  0  0  0
  189.5760  176.3110  143.5630 C   0  0  2  0  0  3  0  0  0  0  0  0
  188.2150  176.1120  142.8840 C   0  0  0  0  0  2  0  0  0  0  0  0
  190.5930  174.7860  147.5380 C   0  0  0  0  0  2  0  0  0  0  0  0
  192.5470  176.0640  146.6260 C   0  0  0  0  0  0  0  0  0  0  0  0
  193.7360  176.7580  146.8720 C   0  0  0  0  0  3  0  0  0  0  0  0
  187.2620  178.3150  147.2240 O   0  0  0  0  0  0  0  0  0  0  0  0
  187.0220  177.1800  146.7340 C   0  0  0  0  0  0  0  0  0  0  0  0
  185.2800  179.3110  144.5310 C   0  0  0  0  0  0  0  0  0  0  0  0
  185.7430  176.8170  144.5960 C   0  0  0  0  0  2  0  0  0  0  0  0
  184.4780  178.0070  147.9170 O   0  0  0  0  0  1  0  0  0  0  0  0
  185.1920  180.3560  143.8360 O   0  0  0  0  0  0  0  0  0  0  0  0
  185.8490  178.1280  143.9590 N   0  0  0  0  0  2  0  0  0  0  0  0
  184.6080  177.9560  146.5280 C   0  0  2  0  0  3  0  0  0  0  0  0
  185.6740  176.9320  146.1190 C   0  0  2  0  0  3  0  0  0  0  0  0
  184.8940  179.3530  145.9780 C   0  0  0  0  0  2  0  0  0  0  0  0
  1 15  1  0  0  0  0
  2  3  1  1  0  0  0
  2 13  1  0  0  0  0
  3 20  1  0  0  0  0
  4 16  2  0  0  0  0
  5 15  1  1  0  0  0
  5  2  1  0  0  0  0
  6  1  1  0  0  0  0
  6 18  1  0  0  0  0
  7  4  1  0  0  0  0
  7  3  2  0  0  0  0
  8 13  1  0  0  0  0
  8 14  2  0  0  0  0
  9  1  2  0  0  0  0
 11  4  1  0  0  0  0
 12  8  1  0  0  0  0
 13 19  1  1  0  0  0
 16 21  1  0  0  0  0
 17 18  1  1  0  0  0
 17  5  1  0  0  0  0
 17 12  1  0  0  0  0
 19 10  1  0  0  0  0
 20 21  2  0  0  0  0
 20 10  1  0  0  0  0
 23 14  1  0  0  0  0
 23 22  2  0  0  0  0
 24 31  1  0  0  0  0
 25 30  1  0  0  0  0
 27 24  2  0  0  0  0
 28 24  1  0  0  0  0
 28 25  1  0  0  0  0
 29 26  1  1  0  0  0
 30 29  1  0  0  0  0
 30 23  1  6  0  0  0
 31 29  1  0  0  0  0
M  END
>  <MODEL>
3

>  <REMARK>
 VINA RESULT:      -8.5      3.893      6.872
  Name = 
  2 active torsions:
  status: ('A' for Active; 'I' for Inactive)
    1  A    between atoms: C_5  and  N_16
    2  A    between atoms: C_5  and  C_30
                            x       y       z     vdW  Elec       q    Type
                         _______ _______ _______ _____ _____    ______ ____

>  <TORSDO>
F 2

$$$$
=
 OpenBabel11112416483D

 31 35  0  0  1  0  0  0  0  0999 V2000
  190.7390  171.4260  142.2400 C   0  0  0  0  0  0  0  0  0  0  0  0
  191.3540  173.7420  145.1770 C   0  0  2  0  0  3  0  0  0  0  0  0
  192.4130  174.7300  145.6290 C   0  0  0  0  0  0  0  0  0  0  0  0
  194.7600  175.3610  145.7400 C   0  0  0  0  0  0  0  0  0  0  0  0
  191.5440  173.3060  143.7140 C   0  0  1  0  0  3  0  0  0  0  0  0
  190.6690  172.3580  141.0830 C   0  0  0  0  0  2  0  0  0  0  0  0
  193.7550  174.5080  145.2810 C   0  0  0  0  0  3  0  0  0  0  0  0
  189.3590  175.0910  144.3610 C   0  0  0  0  0  0  0  0  0  0  0  0
  190.5120  170.1990  142.0830 O   0  0  0  0  0  0  0  0  0  0  0  0
  190.6860  176.1030  146.9020 C   0  0  0  0  0  2  0  0  0  0  0  0
  196.0480  175.1420  145.3850 F   0  0  0  0  0  0  0  0  0  0  0  0
  190.2850  175.5230  143.2600 C   0  0  0  0  0  2  0  0  0  0  0  0
  189.9040  174.2050  145.4510 C   0  0  2  0  0  3  0  0  0  0  0  0
  188.1000  175.4200  144.3900 N   0  0  0  0  0  0  0  0  0  0  0  0
  191.0570  171.9390  143.5330 N   0  0  0  0  0  2  0  0  0  0  0  0
  194.4380  176.4360  146.5690 C   0  0  0  0  0  3  0  0  0  0  0  0
  190.9880  174.3100  142.6510 C   0  0  2  0  0  3  0  0  0  0  0  0
  190.0960  173.6790  141.5750 C   0  0  0  0  0  2  0  0  0  0  0  0
  189.7960  174.8650  146.8260 C   0  0  0  0  0  2  0  0  0  0  0  0
  192.0990  175.8000  146.5000 C   0  0  0  0  0  0  0  0  0  0  0  0
  193.1120  176.6550  146.9460 C   0  0  0  0  0  3  0  0  0  0  0  0
  186.8530  175.7300  142.4170 O   0  0  0  0  0  0  0  0  0  0  0  0
  187.3810  176.2320  143.4440 C   0  0  0  0  0  0  0  0  0  0  0  0
  184.5370  178.2100  142.7880 C   0  0  0  0  0  0  0  0  0  0  0  0
  186.1680  178.0290  144.7230 C   0  0  0  0  0  2  0  0  0  0  0  0
  188.0110  178.2970  141.4720 O   0  0  0  0  0  1  0  0  0  0  0  0
  183.3440  178.3470  142.4160 O   0  0  0  0  0  0  0  0  0  0  0  0
  184.8210  177.9350  144.1650 N   0  0  0  0  0  2  0  0  0  0  0  0
  186.9920  178.5190  142.4000 C   0  0  2  0  0  3  0  0  0  0  0  0
  187.2370  177.7080  143.6790 C   0  0  2  0  0  3  0  0  0  0  0  0
  185.6340  178.2210  141.7670 C   0  0  0  0  0  2  0  0  0  0  0  0
  1 15  1  0  0  0  0
  2 13  1  0  0  0  0
  2  3  1  6  0  0  0
  3 20  1  0  0  0  0
  4 16  2  0  0  0  0
  5 15  1  1  0  0  0
  5  2  1  0  0  0  0
  6 18  1  0  0  0  0
  6  1  1  0  0  0  0
  7  3  2  0  0  0  0
  7  4  1  0  0  0  0
  8 14  2  0  0  0  0
  8 13  1  0  0  0  0
  9  1  2  0  0  0  0
 11  4  1  0  0  0  0
 12  8  1  0  0  0  0
 13 19  1  1  0  0  0
 16 21  1  0  0  0  0
 17 18  1  6  0  0  0
 17 12  1  0  0  0  0
 17  5  1  0  0  0  0
 19 10  1  0  0  0  0
 20 10  1  0  0  0  0
 20 21  2  0  0  0  0
 22 23  2  0  0  0  0
 23 14  1  0  0  0  0
 24 28  1  0  0  0  0
 27 24  2  0  0  0  0
 28 25  1  0  0  0  0
 29 26  1  6  0  0  0
 29 30  1  0  0  0  0
 30 23  1  6  0  0  0
 30 25  1  0  0  0  0
 31 29  1  0  0  0  0
 31 24  1  0  0  0  0
M  END
>  <MODEL>
4

>  <REMARK>
 VINA RESULT:      -8.3      3.586      6.745
  Name = 
  2 active torsions:
  status: ('A' for Active; 'I' for Inactive)
    1  A    between atoms: C_5  and  N_16
    2  A    between atoms: C_5  and  C_30
                            x       y       z     vdW  Elec       q    Type
                         _______ _______ _______ _____ _____    ______ ____

>  <TORSDO>
F 2

$$$$
=
 OpenBabel11112416483D

 31 35  0  0  1  0  0  0  0  0999 V2000
  193.8470  176.7600  145.6280 C   0  0  0  0  0  0  0  0  0  0  0  0
  191.4480  174.9760  143.2980 C   0  0  2  0  0  3  0  0  0  0  0  0
  191.0510  173.5490  142.9690 C   0  0  0  0  0  0  0  0  0  0  0  0
  191.6930  171.2160  142.7090 C   0  0  0  0  0  0  0  0  0  0  0  0
  192.3090  175.0670  144.5710 C   0  0  1  0  0  3  0  0  0  0  0  0
  193.3740  176.3540  146.9780 C   0  0  0  0  0  2  0  0  0  0  0  0
  192.0090  172.5270  143.0720 C   0  0  0  0  0  3  0  0  0  0  0  0
  189.5660  175.9870  144.6770 C   0  0  0  0  0  0  0  0  0  0  0  0
  194.7780  177.5980  145.5050 O   0  0  0  0  0  0  0  0  0  0  0  0
  188.7020  174.2820  142.3120 C   0  0  0  0  0  2  0  0  0  0  0  0
  192.6220  170.2390  142.8270 F   0  0  0  0  0  0  0  0  0  0  0  0
  189.9880  174.9900  145.7190 C   0  0  0  0  0  2  0  0  0  0  0  0
  190.2610  175.9650  143.3400 C   0  0  2  0  0  3  0  0  0  0  0  0
  188.6520  176.8880  144.8960 N   0  0  0  0  0  0  0  0  0  0  0  0
  193.2290  176.1990  144.4710 N   0  0  0  0  0  2  0  0  0  0  0  0
  190.4210  170.9150  142.2210 C   0  0  0  0  0  3  0  0  0  0  0  0
  191.5050  175.0350  145.9120 C   0  0  2  0  0  3  0  0  0  0  0  0
  191.8690  176.1440  146.9060 C   0  0  0  0  0  2  0  0  0  0  0  0
  189.2840  175.6880  142.1970 C   0  0  0  0  0  2  0  0  0  0  0  0
  189.7770  173.2420  142.4380 C   0  0  0  0  0  0  0  0  0  0  0  0
  189.4660  171.9250  142.0870 C   0  0  0  0  0  3  0  0  0  0  0  0
  188.4270  177.5340  147.1480 O   0  0  0  0  0  0  0  0  0  0  0  0
  187.8900  177.0930  146.0980 C   0  0  0  0  0  0  0  0  0  0  0  0
  185.3000  179.1350  144.8510 C   0  0  0  0  0  0  0  0  0  0  0  0
  185.8370  176.6590  144.7080 C   0  0  0  0  0  2  0  0  0  0  0  0
  186.0630  177.8490  148.2530 O   0  0  0  0  0  1  0  0  0  0  0  0
  184.8870  180.1660  144.2620 O   0  0  0  0  0  0  0  0  0  0  0  0
  185.6140  177.9640  144.0890 N   0  0  0  0  0  2  0  0  0  0  0  0
  185.5910  177.7850  146.9410 C   0  0  2  0  0  3  0  0  0  0  0  0
  186.4180  176.7920  146.1150 C   0  0  2  0  0  3  0  0  0  0  0  0
  185.5650  179.1830  146.3250 C   0  0  0  0  0  2  0  0  0  0  0  0
  1  6  1  0  0  0  0
  2  3  1  1  0  0  0
  2 13  1  0  0  0  0
  2  5  1  0  0  0  0
  3  7  1  0  0  0  0
  4 11  1  0  0  0  0
  4  7  2  0  0  0  0
  5 15  1  6  0  0  0
  5 17  1  0  0  0  0
  8 14  2  0  0  0  0
  8 12  1  0  0  0  0
  9  1  2  0  0  0  0
 10 20  1  0  0  0  0
 13 19  1  6  0  0  0
 13  8  1  0  0  0  0
 14 23  1  0  0  0  0
 15  1  1  0  0  0  0
 16  4  1  0  0  0  0
 17 12  1  6  0  0  0
 17 18  1  0  0  0  0
 18  6  1  0  0  0  0
 19 10  1  0  0  0  0
 20  3  2  0  0  0  0
 21 16  2  0  0  0  0
 21 20  1  0  0  0  0
 23 22  2  0  0  0  0
 24 31  1  0  0  0  0
 25 30  1  0  0  0  0
 27 24  2  0  0  0  0
 28 25  1  0  0  0  0
 28 24  1  0  0  0  0
 29 26  1  1  0  0  0
 30 23  1  6  0  0  0
 30 29  1  0  0  0  0
 31 29  1  0  0  0  0
M  END
>  <MODEL>
5

>  <REMARK>
 VINA RESULT:      -8.2      3.648      7.346
  Name = 
  2 active torsions:
  status: ('A' for Active; 'I' for Inactive)
    1  A    between atoms: C_5  and  N_16
    2  A    between atoms: C_5  and  C_30
                            x       y       z     vdW  Elec       q    Type
                         _______ _______ _______ _____ _____    ______ ____

>  <TORSDO>
F 2

$$$$
=
 OpenBabel11112416483D

 31 35  0  0  1  0  0  0  0  0999 V2000
  188.1910  174.4380  139.9440 C   0  0  0  0  0  0  0  0  0  0  0  0
  188.7590  176.7430  142.9000 C   0  0  2  0  0  3  0  0  0  0  0  0
  188.2330  176.9110  144.3130 C   0  0  0  0  0  0  0  0  0  0  0  0
  186.3710  176.7700  145.8730 C   0  0  0  0  0  0  0  0  0  0  0  0
  188.3240  175.4090  142.2660 C   0  0  1  0  0  3  0  0  0  0  0  0
  188.5800  173.1040  140.4760 C   0  0  0  0  0  2  0  0  0  0  0  0
  186.9040  176.5610  144.5990 C   0  0  0  0  0  3  0  0  0  0  0  0
  191.0860  175.7330  143.0710 C   0  0  0  0  0  0  0  0  0  0  0  0
  187.8780  174.5740  138.7340 O   0  0  0  0  0  0  0  0  0  0  0  0
  190.4420  177.9160  145.0870 C   0  0  0  0  0  2  0  0  0  0  0  0
  185.0920  176.4150  146.1380 F   0  0  0  0  0  0  0  0  0  0  0  0
  190.3650  174.5220  143.5910 C   0  0  0  0  0  2  0  0  0  0  0  0
  190.2820  176.9700  142.7630 C   0  0  2  0  0  3  0  0  0  0  0  0
  192.3670  175.7430  142.8420 N   0  0  0  0  0  0  0  0  0  0  0  0
  188.1870  175.5650  140.8190 N   0  0  0  0  0  2  0  0  0  0  0  0
  187.1570  177.3470  146.8710 C   0  0  0  0  0  3  0  0  0  0  0  0
  189.1880  174.1730  142.6800 C   0  0  2  0  0  3  0  0  0  0  0  0
  189.6760  173.3090  141.5100 C   0  0  0  0  0  2  0  0  0  0  0  0
  190.7300  178.1620  143.6090 C   0  0  0  0  0  2  0  0  0  0  0  0
  189.0110  177.5290  145.3200 C   0  0  0  0  0  0  0  0  0  0  0  0
  188.4720  177.7240  146.5950 C   0  0  0  0  0  3  0  0  0  0  0  0
  193.2160  173.5920  142.4040 O   0  0  0  0  0  0  0  0  0  0  0  0
  193.3050  174.6720  143.0450 C   0  0  0  0  0  0  0  0  0  0  0  0
  194.6060  172.1980  145.1940 C   0  0  0  0  0  0  0  0  0  0  0  0
  195.6340  173.9590  143.6830 C   0  0  0  0  0  2  0  0  0  0  0  0
  192.9680  175.4710  145.8380 O   0  0  0  0  0  1  0  0  0  0  0  0
  194.6490  171.0200  145.6310 O   0  0  0  0  0  0  0  0  0  0  0  0
  195.4220  172.5670  144.0760 N   0  0  0  0  0  2  0  0  0  0  0  0
  194.0130  174.6140  145.4880 C   0  0  2  0  0  3  0  0  0  0  0  0
  194.4290  174.8340  144.0280 C   0  0  2  0  0  3  0  0  0  0  0  0
  193.6200  173.1660  145.7750 C   0  0  0  0  0  2  0  0  0  0  0  0
  1  6  1  0  0  0  0
  1 15  1  0  0  0  0
  2  3  1  1  0  0  0
  3  7  2  0  0  0  0
  3 20  1  0  0  0  0
  4 11  1  0  0  0  0
  4 16  2  0  0  0  0
  5 15  1  6  0  0  0
  5 17  1  0  0  0  0
  5  2  1  0  0  0  0
  6 18  1  0  0  0  0
  7  4  1  0  0  0  0
  8 12  1  0  0  0  0
  9  1  2  0  0  0  0
 10 20  1  0  0  0  0
 13  2  1  0  0  0  0
 13  8  1  0  0  0  0
 13 19  1  1  0  0  0
 14 23  1  0  0  0  0
 14  8  2  0  0  0  0
 17 18  1  6  0  0  0
 17 12  1  0  0  0  0
 19 10  1  0  0  0  0
 20 21  2  0  0  0  0
 21 16  1  0  0  0  0
 22 23  2  0  0  0  0
 24 27  2  0  0  0  0
 24 31  1  0  0  0  0
 25 30  1  0  0  0  0
 25 28  1  0  0  0  0
 28 24  1  0  0  0  0
 29 31  1  0  0  0  0
 29 26  1  6  0  0  0
 30 23  1  6  0  0  0
 30 29  1  0  0  0  0
M  END
>  <MODEL>
6

>  <REMARK>
 VINA RESULT:      -7.8      1.384      2.187
  Name = 
  2 active torsions:
  status: ('A' for Active; 'I' for Inactive)
    1  A    between atoms: C_5  and  N_16
    2  A    between atoms: C_5  and  C_30
                            x       y       z     vdW  Elec       q    Type
                         _______ _______ _______ _____ _____    ______ ____

>  <TORSDO>
F 2

$$$$
=
 OpenBabel11112416483D

 31 35  0  0  1  0  0  0  0  0999 V2000
  190.4620  172.0050  142.0820 C   0  0  0  0  0  0  0  0  0  0  0  0
  192.8360  174.1030  144.1630 C   0  0  2  0  0  3  0  0  0  0  0  0
  194.0560  174.9760  143.9400 C   0  0  0  0  0  0  0  0  0  0  0  0
  196.1110  175.4090  142.7120 C   0  0  0  0  0  0  0  0  0  0  0  0
  192.1310  173.7320  142.8460 C   0  0  1  0  0  3  0  0  0  0  0  0
  189.8460  173.0010  141.1630 C   0  0  0  0  0  2  0  0  0  0  0  0
  194.9440  174.6660  142.8980 C   0  0  0  0  0  3  0  0  0  0  0  0
  190.8680  175.6490  144.6090 C   0  0  0  0  0  0  0  0  0  0  0  0
  190.0680  170.8110  142.0810 O   0  0  0  0  0  0  0  0  0  0  0  0
  193.4810  176.4130  145.9630 C   0  0  0  0  0  2  0  0  0  0  0  0
  196.9510  175.1060  141.6930 F   0  0  0  0  0  0  0  0  0  0  0  0
  191.0550  176.0650  143.1770 C   0  0  0  0  0  2  0  0  0  0  0  0
  191.8410  174.6650  145.2040 C   0  0  2  0  0  3  0  0  0  0  0  0
  189.8800  176.0770  145.3400 N   0  0  0  0  0  0  0  0  0  0  0  0
  191.4970  172.4200  142.9710 N   0  0  0  0  0  2  0  0  0  0  0  0
  196.4140  176.4610  143.5770 C   0  0  0  0  0  3  0  0  0  0  0  0
  191.1760  174.8330  142.2790 C   0  0  2  0  0  3  0  0  0  0  0  0
  189.7780  174.3350  141.8920 C   0  0  0  0  0  2  0  0  0  0  0  0
  192.5860  175.2570  146.4010 C   0  0  0  0  0  2  0  0  0  0  0  0
  194.3890  176.0190  144.8360 C   0  0  0  0  0  0  0  0  0  0  0  0
  195.5550  176.7650  144.6340 C   0  0  0  0  0  3  0  0  0  0  0  0
  189.0580  178.2290  144.8560 O   0  0  0  0  0  0  0  0  0  0  0  0
  188.8380  176.9940  144.9620 C   0  0  0  0  0  0  0  0  0  0  0  0
  185.9430  178.9270  144.4000 C   0  0  0  0  0  0  0  0  0  0  0  0
  186.9660  176.8910  143.2830 C   0  0  0  0  0  2  0  0  0  0  0  0
  186.8180  176.4170  146.9960 O   0  0  0  0  0  1  0  0  0  0  0  0
  185.3570  180.0310  144.2610 O   0  0  0  0  0  0  0  0  0  0  0  0
  186.5120  178.2800  143.2560 N   0  0  0  0  0  2  0  0  0  0  0  0
  186.4180  176.8610  145.7350 C   0  0  2  0  0  3  0  0  0  0  0  0
  187.4560  176.4830  144.6720 C   0  0  2  0  0  3  0  0  0  0  0  0
  186.1380  178.3630  145.7750 C   0  0  0  0  0  2  0  0  0  0  0  0
  1 15  1  0  0  0  0
  2  3  1  6  0  0  0
  2 13  1  0  0  0  0
  3 20  1  0  0  0  0
  4  7  1  0  0  0  0
  4 16  2  0  0  0  0
  5 15  1  1  0  0  0
  5  2  1  0  0  0  0
  6 18  1  0  0  0  0
  6  1  1  0  0  0  0
  7  3  2  0  0  0  0
  8 13  1  0  0  0  0
  8 14  2  0  0  0  0
  9  1  2  0  0  0  0
 10 19  1  0  0  0  0
 11  4  1  0  0  0  0
 12  8  1  0  0  0  0
 13 19  1  1  0  0  0
 16 21  1  0  0  0  0
 17 18  1  1  0  0  0
 17  5  1  0  0  0  0
 17 12  1  0  0  0  0
 20 10  1  0  0  0  0
 21 20  2  0  0  0  0
 22 23  2  0  0  0  0
 23 14  1  0  0  0  0
 24 31  1  0  0  0  0
 25 30  1  0  0  0  0
 27 24  2  0  0  0  0
 28 25  1  0  0  0  0
 28 24  1  0  0  0  0
 29 31  1  0  0  0  0
 29 26  1  1  0  0  0
 30 23  1  1  0  0  0
 30 29  1  0  0  0  0
M  END
>  <MODEL>
7

>  <REMARK>
 VINA RESULT:      -7.6      3.738      6.880
  Name = 
  2 active torsions:
  status: ('A' for Active; 'I' for Inactive)
    1  A    between atoms: C_5  and  N_16
    2  A    between atoms: C_5  and  C_30
                            x       y       z     vdW  Elec       q    Type
                         _______ _______ _______ _____ _____    ______ ____

>  <TORSDO>
F 2

$$$$
=
 OpenBabel11112416483D

 31 35  0  0  1  0  0  0  0  0999 V2000
  186.2120  177.0990  143.2270 C   0  0  0  0  0  0  0  0  0  0  0  0
  188.3210  174.1820  142.0370 C   0  0  2  0  0  3  0  0  0  0  0  0
  189.0610  173.7680  140.7800 C   0  0  0  0  0  0  0  0  0  0  0  0
  189.1860  173.7420  138.3500 C   0  0  0  0  0  0  0  0  0  0  0  0
  187.8680  175.6530  141.9950 C   0  0  1  0  0  3  0  0  0  0  0  0
  187.1490  178.2510  143.1420 C   0  0  0  0  0  2  0  0  0  0  0  0
  188.5660  174.1660  139.5270 C   0  0  0  0  0  3  0  0  0  0  0  0
  190.0630  174.9220  143.7340 C   0  0  0  0  0  0  0  0  0  0  0  0
  185.0610  177.2490  143.7110 O   0  0  0  0  0  0  0  0  0  0  0  0
  190.7520  172.4290  142.1350 C   0  0  0  0  0  2  0  0  0  0  0  0
  188.7060  174.1450  137.1500 F   0  0  0  0  0  0  0  0  0  0  0  0
  190.3040  176.0560  142.7780 C   0  0  0  0  0  2  0  0  0  0  0  0
  189.0730  173.8540  143.3480 C   0  0  2  0  0  3  0  0  0  0  0  0
  190.6480  174.8460  144.8950 N   0  0  0  0  0  0  0  0  0  0  0  0
  186.6340  175.8180  142.7630 N   0  0  0  0  0  2  0  0  0  0  0  0
  190.2970  172.9000  138.4100 C   0  0  0  0  0  3  0  0  0  0  0  0
  188.9760  176.6920  142.3660 C   0  0  2  0  0  3  0  0  0  0  0  0
  188.5550  177.7360  143.4080 C   0  0  0  0  0  2  0  0  0  0  0  0
  189.7280  172.4750  143.2660 C   0  0  0  0  0  2  0  0  0  0  0  0
  190.1640  172.8840  140.8310 C   0  0  0  0  0  0  0  0  0  0  0  0
  190.7840  172.4740  139.6470 C   0  0  0  0  0  3  0  0  0  0  0  0
  191.4140  177.0070  145.4270 O   0  0  0  0  0  0  0  0  0  0  0  0
  191.6010  175.7620  145.4610 C   0  0  0  0  0  0  0  0  0  0  0  0
  194.9040  176.0160  144.2500 C   0  0  0  0  0  0  0  0  0  0  0  0
  193.8090  176.3600  146.5140 C   0  0  0  0  0  2  0  0  0  0  0  0
  192.7290  173.1010  145.0130 O   0  0  0  0  0  1  0  0  0  0  0  0
  195.7480  176.4160  143.4090 O   0  0  0  0  0  0  0  0  0  0  0  0
  194.5640  176.8510  145.3640 N   0  0  0  0  0  2  0  0  0  0  0  0
  193.5790  174.1690  145.3040 C   0  0  2  0  0  3  0  0  0  0  0  0
  192.8450  175.2400  146.1210 C   0  0  2  0  0  3  0  0  0  0  0  0
  194.1810  174.7250  144.0140 C   0  0  0  0  0  2  0  0  0  0  0  0
  1  9  2  0  0  0  0
  2  3  1  6  0  0  0
  2 13  1  0  0  0  0
  3 20  1  0  0  0  0
  4 16  2  0  0  0  0
  4  7  1  0  0  0  0
  5  2  1  0  0  0  0
  5 17  1  0  0  0  0
  5 15  1  1  0  0  0
  6  1  1  0  0  0  0
  6 18  1  0  0  0  0
  7  3  2  0  0  0  0
  8 14  2  0  0  0  0
 10 19  1  0  0  0  0
 11  4  1  0  0  0  0
 12  8  1  0  0  0  0
 13 19  1  6  0  0  0
 13  8  1  0  0  0  0
 14 23  1  0  0  0  0
 15  1  1  0  0  0  0
 16 21  1  0  0  0  0
 17 12  1  1  0  0  0
 17 18  1  0  0  0  0
 20 10  1  0  0  0  0
 21 20  2  0  0  0  0
 22 23  2  0  0  0  0
 24 28  1  0  0  0  0
 27 24  2  0  0  0  0
 28 25  1  0  0  0  0
 29 26  1  6  0  0  0
 29 30  1  0  0  0  0
 30 23  1  6  0  0  0
 30 25  1  0  0  0  0
 31 24  1  0  0  0  0
 31 29  1  0  0  0  0
M  END
>  <MODEL>
8

>  <REMARK>
 VINA RESULT:      -7.5      2.835      5.030
  Name = 
  2 active torsions:
  status: ('A' for Active; 'I' for Inactive)
    1  A    between atoms: C_5  and  N_16
    2  A    between atoms: C_5  and  C_30
                            x       y       z     vdW  Elec       q    Type
                         _______ _______ _______ _____ _____    ______ ____

>  <TORSDO>
F 2

$$$$
=
 OpenBabel11112416483D

 31 35  0  0  1  0  0  0  0  0999 V2000
  191.1070  175.7120  147.3170 C   0  0  0  0  0  0  0  0  0  0  0  0
  188.7850  175.6660  144.3210 C   0  0  2  0  0  3  0  0  0  0  0  0
  187.9270  176.6490  143.5470 C   0  0  0  0  0  0  0  0  0  0  0  0
  186.4930  178.6140  143.5510 C   0  0  0  0  0  0  0  0  0  0  0  0
  189.7410  176.3660  145.3030 C   0  0  1  0  0  3  0  0  0  0  0  0
  192.1840  176.6490  146.8970 C   0  0  0  0  0  2  0  0  0  0  0  0
  187.3430  177.7320  144.2220 C   0  0  0  0  0  3  0  0  0  0  0  0
  190.8370  175.1710  142.9050 C   0  0  0  0  0  0  0  0  0  0  0  0
  191.1900  175.0970  148.4110 O   0  0  0  0  0  0  0  0  0  0  0  0
  188.1970  175.2990  141.4040 C   0  0  0  0  0  2  0  0  0  0  0  0
  185.9470  179.6620  144.2110 F   0  0  0  0  0  0  0  0  0  0  0  0
  191.1870  176.6080  143.1670 C   0  0  0  0  0  2  0  0  0  0  0  0
  189.5280  174.6430  143.4320 C   0  0  2  0  0  3  0  0  0  0  0  0
  191.6350  174.3570  142.2750 N   0  0  0  0  0  0  0  0  0  0  0  0
  189.9820  175.5100  146.4630 N   0  0  0  0  0  2  0  0  0  0  0  0
  186.2020  178.4120  142.2010 C   0  0  0  0  0  3  0  0  0  0  0  0
  191.0530  176.9240  144.6570 C   0  0  2  0  0  3  0  0  0  0  0  0
  192.3440  176.5360  145.3880 C   0  0  0  0  0  2  0  0  0  0  0  0
  188.6230  174.1440  142.3060 C   0  0  0  0  0  2  0  0  0  0  0  0
  187.5980  176.4290  142.1890 C   0  0  0  0  0  0  0  0  0  0  0  0
  186.7550  177.3240  141.5230 C   0  0  0  0  0  3  0  0  0  0  0  0
  193.0660  174.9170  140.4920 O   0  0  0  0  0  0  0  0  0  0  0  0
  192.9270  174.6510  141.7150 C   0  0  0  0  0  0  0  0  0  0  0  0
  196.2450  175.3300  140.7330 C   0  0  0  0  0  0  0  0  0  0  0  0
  194.7880  176.0400  142.6860 C   0  0  0  0  0  2  0  0  0  0  0  0
  194.6310  172.3260  142.2110 O   0  0  0  0  0  1  0  0  0  0  0  0
  197.1010  175.6600  139.8730 O   0  0  0  0  0  0  0  0  0  0  0  0
  195.5840  176.3440  141.4990 N   0  0  0  0  0  2  0  0  0  0  0  0
  195.1920  173.6050  142.2130 C   0  0  2  0  0  3  0  0  0  0  0  0
  194.1440  174.6570  142.5960 C   0  0  2  0  0  3  0  0  0  0  0  0
  195.8460  173.8910  140.8620 C   0  0  0  0  0  2  0  0  0  0  0  0
  1  9  2  0  0  0  0
  2  3  1  6  0  0  0
  2  5  1  0  0  0  0
  3  7  1  0  0  0  0
  4 11  1  0  0  0  0
  4  7  2  0  0  0  0
  5 15  1  1  0  0  0
  6  1  1  0  0  0  0
  8 12  1  0  0  0  0
  8 13  1  0  0  0  0
 10 20  1  0  0  0  0
 10 19  1  0  0  0  0
 13 19  1  6  0  0  0
 13  2  1  0  0  0  0
 14  8  2  0  0  0  0
 15  1  1  0  0  0  0
 16  4  1  0  0  0  0
 17 12  1  6  0  0  0
 17  5  1  0  0  0  0
 17 18  1  0  0  0  0
 18  6  1  0  0  0  0
 20  3  2  0  0  0  0
 21 20  1  0  0  0  0
 21 16  2  0  0  0  0
 22 23  2  0  0  0  0
 23 14  1  0  0  0  0
 24 31  1  0  0  0  0
 24 28  1  0  0  0  0
 27 24  2  0  0  0  0
 28 25  1  0  0  0  0
 29 26  1  6  0  0  0
 29 30  1  0  0  0  0
 30 23  1  6  0  0  0
 30 25  1  0  0  0  0
 31 29  1  0  0  0  0
M  END
>  <MODEL>
9

>  <REMARK>
 VINA RESULT:      -7.4      2.718      4.610
  Name = 
  2 active torsions:
  status: ('A' for Active; 'I' for Inactive)
    1  A    between atoms: C_5  and  N_16
    2  A    between atoms: C_5  and  C_30
                            x       y       z     vdW  Elec       q    Type
                         _______ _______ _______ _____ _____    ______ ____

>  <TORSDO>
F 2

$$$$
