=
 OpenBabel11112416163D

 30 35  0  0  1  0  0  0  0  0999 V2000
  187.3850  177.1430  143.6840 C   0  0  1  0  0  3  0  0  0  0  0  0
  185.1910  177.9280  144.7880 C   0  0  1  0  0  3  0  0  0  0  0  0
  189.1830  177.0120  147.4310 O   0  0  0  0  0  0  0  0  0  0  0  0
  188.5140  176.2020  144.1240 C   0  0  1  0  0  3  0  0  0  0  0  0
  186.4450  176.4300  142.9060 O   0  0  0  0  0  0  0  0  0  0  0  0
  188.8540  174.9160  140.6220 O   0  0  0  0  0  1  0  0  0  0  0  0
  191.6340  175.2650  143.6520 C   0  0  1  0  0  3  0  0  0  0  0  0
  188.2310  175.1510  141.8500 C   0  0  2  0  0  3  0  0  0  0  0  0
  191.6880  175.6900  145.1190 C   0  0  2  0  0  3  0  0  0  0  0  0
  190.1640  176.1080  147.1070 C   0  0  0  0  0  0  0  0  0  0  0  0
  187.0430  176.1070  141.6650 C   0  0  2  0  0  3  0  0  0  0  0  0
  189.2400  175.7020  142.8660 C   0  0  2  0  0  3  0  0  0  0  0  0
  184.5820  178.6540  145.9800 C   0  0  0  0  0  2  0  0  0  0  0  0
  192.3650  174.5230  145.7630 C   0  0  0  0  0  2  0  0  0  0  0  0
  192.6880  174.3640  143.4030 O   0  0  0  0  0  0  0  0  0  0  0  0
  184.7750  178.5650  143.6180 O   0  0  0  0  0  1  0  0  0  0  0  0
  188.6750  177.6140  146.2490 C   0  0  1  0  0  3  0  0  0  0  0  0
  185.1370  178.0920  147.2740 C   0  0  0  0  0  2  0  0  0  0  0  0
  186.7350  177.9150  144.8650 C   0  0  1  0  0  3  0  0  0  0  0  0
  189.4550  176.9330  145.0810 C   0  0  1  0  0  3  0  0  0  0  0  0
  190.8160  175.4700  147.9750 O   0  0  0  0  0  0  0  0  0  0  0  0
  190.3770  175.9880  145.7080 N   0  0  0  0  0  0  0  0  0  0  0  0
  193.2390  174.0010  144.6500 C   0  0  0  0  0  2  0  0  0  0  0  0
  189.8210  173.4680  143.9940 C   0  0  0  0  0  1  0  0  0  0  0  0
  186.6490  178.2340  147.2430 C   0  0  0  0  0  2  0  0  0  0  0  0
  187.2190  177.4160  146.1700 N   0  0  2  0  0  0  0  0  0  0  0  0
  190.3150  174.6490  143.1620 C   0  0  2  0  0  3  0  0  0  0  0  0
  187.4090  177.2620  140.9590 O   0  0  0  0  0  0  0  0  0  0  0  0
  185.6640  178.6640  140.6070 F   0  0  0  0  0  0  0  0  0  0  0  0
  186.3160  177.5410  140.1390 C   0  0  0  0  0  2  0  0  0  0  0  0
  1  5  1  1  0  0  0
  1  4  1  0  0  0  0
  1 19  1  0  0  0  0
  2 16  1  6  0  0  0
  2 19  1  0  0  0  0
  2 13  1  0  0  0  0
  4 20  1  0  0  0  0
  6  8  1  0  0  0  0
  7  9  1  0  0  0  0
  8 12  1  0  0  0  0
  9 22  1  0  0  0  0
  9 14  1  0  0  0  0
 10  3  1  0  0  0  0
 10 21  2  0  0  0  0
 11  8  1  0  0  0  0
 11  5  1  0  0  0  0
 12 27  1  0  0  0  0
 12  4  1  0  0  0  0
 13 18  1  0  0  0  0
 15  7  1  0  0  0  0
 15 23  1  0  0  0  0
 17  3  1  0  0  0  0
 19 26  1  0  0  0  0
 20 22  1  0  0  0  0
 20 17  1  0  0  0  0
 22 10  1  0  0  0  0
 23 14  1  0  0  0  0
 25 18  1  0  0  0  0
 26 17  1  0  0  0  0
 26 25  1  0  0  0  0
 27  7  1  0  0  0  0
 27 24  1  0  0  0  0
 28 11  1  0  0  0  0
 30 29  1  0  0  0  0
 30 28  1  0  0  0  0
M  END
>  <MODEL>
1

>  <REMARK>
 VINA RESULT:      -8.3      0.000      0.000
  Name = 
  2 active torsions:
  status: ('A' for Active; 'I' for Inactive)
    1  A    between atoms: C_11  and  O_28
    2  A    between atoms: O_28  and  C_30
                            x       y       z     vdW  Elec       q    Type
                         _______ _______ _______ _____ _____    ______ ____

>  <TORSDO>
F 2

$$$$
=
 OpenBabel11112416163D

 30 35  0  0  1  0  0  0  0  0999 V2000
  186.4460  177.0950  143.9910 C   0  0  1  0  0  3  0  0  0  0  0  0
  185.3670  178.0080  141.8340 C   0  0  1  0  0  3  0  0  0  0  0  0
  189.4290  175.3170  141.7040 O   0  0  0  0  0  0  0  0  0  0  0  0
  187.8950  176.8350  144.4210 C   0  0  1  0  0  3  0  0  0  0  0  0
  186.0370  178.3720  144.4370 O   0  0  0  0  0  0  0  0  0  0  0  0
  187.1010  177.9630  147.9040 O   0  0  0  0  0  1  0  0  0  0  0  0
  189.8860  175.2540  146.5120 C   0  0  1  0  0  3  0  0  0  0  0  0
  187.2670  178.0800  146.5210 C   0  0  2  0  0  3  0  0  0  0  0  0
  190.3960  174.7140  145.1770 C   0  0  2  0  0  3  0  0  0  0  0  0
  190.3750  175.2530  142.6960 C   0  0  0  0  0  0  0  0  0  0  0  0
  185.9110  178.3350  145.8460 C   0  0  2  0  0  3  0  0  0  0  0  0
  187.9460  176.8250  145.9560 C   0  0  2  0  0  3  0  0  0  0  0  0
  185.1880  177.7910  140.3370 C   0  0  0  0  0  2  0  0  0  0  0  0
  191.8740  174.9040  145.3030 C   0  0  0  0  0  2  0  0  0  0  0  0
  190.9070  175.1240  147.4740 O   0  0  0  0  0  0  0  0  0  0  0  0
  184.1060  178.0600  142.4300 O   0  0  0  0  0  1  0  0  0  0  0  0
  188.1370  175.4600  142.2790 C   0  0  1  0  0  3  0  0  0  0  0  0
  186.5350  177.5700  139.6770 C   0  0  0  0  0  2  0  0  0  0  0  0
  186.2090  176.8790  142.4710 C   0  0  1  0  0  3  0  0  0  0  0  0
  188.3860  175.5190  143.8190 C   0  0  1  0  0  3  0  0  0  0  0  0
  191.5990  175.0750  142.4590 O   0  0  0  0  0  0  0  0  0  0  0  0
  189.8310  175.3840  144.0010 N   0  0  0  0  0  0  0  0  0  0  0  0
  192.0920  174.7800  146.7900 C   0  0  0  0  0  2  0  0  0  0  0  0
  190.3520  177.7260  145.9610 C   0  0  0  0  0  1  0  0  0  0  0  0
  187.2000  176.3770  140.3410 C   0  0  0  0  0  2  0  0  0  0  0  0
  187.4830  176.6660  141.7490 N   0  0  2  0  0  0  0  0  0  0  0  0
  189.3670  176.7000  146.5180 C   0  0  2  0  0  3  0  0  0  0  0  0
  184.9450  177.4010  146.2470 O   0  0  0  0  0  0  0  0  0  0  0  0
  183.3720  178.9250  145.6630 F   0  0  0  0  0  0  0  0  0  0  0  0
  183.8740  178.1690  146.7040 C   0  0  0  0  0  2  0  0  0  0  0  0
  1  4  1  0  0  0  0
  1  5  1  6  0  0  0
  2 16  1  1  0  0  0
  2 19  1  0  0  0  0
  3 17  1  0  0  0  0
  3 10  1  0  0  0  0
  4 12  1  0  0  0  0
  5 11  1  0  0  0  0
  7 27  1  0  0  0  0
  7 15  1  0  0  0  0
  8  6  1  0  0  0  0
  9 14  1  0  0  0  0
  9  7  1  0  0  0  0
 10 22  1  0  0  0  0
 11 28  1  0  0  0  0
 11  8  1  0  0  0  0
 12 27  1  0  0  0  0
 12  8  1  0  0  0  0
 13  2  1  0  0  0  0
 14 23  1  0  0  0  0
 17 20  1  0  0  0  0
 18 13  1  0  0  0  0
 18 25  1  0  0  0  0
 19  1  1  0  0  0  0
 20 22  1  0  0  0  0
 20  4  1  0  0  0  0
 21 10  2  0  0  0  0
 22  9  1  0  0  0  0
 23 15  1  0  0  0  0
 24 27  1  0  0  0  0
 25 26  1  0  0  0  0
 26 17  1  0  0  0  0
 26 19  1  0  0  0  0
 28 30  1  0  0  0  0
 29 30  1  0  0  0  0
M  END
>  <MODEL>
2

>  <REMARK>
 VINA RESULT:      -7.9      1.872      4.597
  Name = 
  2 active torsions:
  status: ('A' for Active; 'I' for Inactive)
    1  A    between atoms: C_11  and  O_28
    2  A    between atoms: O_28  and  C_30
                            x       y       z     vdW  Elec       q    Type
                         _______ _______ _______ _____ _____    ______ ____

>  <TORSDO>
F 2

$$$$
=
 OpenBabel11112416163D

 30 35  0  0  1  0  0  0  0  0999 V2000
  189.2360  175.3450  144.0390 C   0  0  1  0  0  3  0  0  0  0  0  0
  191.4950  175.0590  145.2500 C   0  0  1  0  0  3  0  0  0  0  0  0
  187.7730  177.4180  147.3330 O   0  0  0  0  0  0  0  0  0  0  0  0
  188.1760  176.4540  144.0240 C   0  0  1  0  0  3  0  0  0  0  0  0
  190.1250  175.5200  142.9540 O   0  0  0  0  0  0  0  0  0  0  0  0
  187.5700  175.8750  140.3730 O   0  0  0  0  0  1  0  0  0  0  0  0
  185.0530  177.2440  143.3440 C   0  0  1  0  0  3  0  0  0  0  0  0
  188.2900  176.2320  141.5160 C   0  0  2  0  0  3  0  0  0  0  0  0
  185.1150  177.5980  144.8290 C   0  0  2  0  0  3  0  0  0  0  0  0
  186.7930  178.1090  146.6650 C   0  0  0  0  0  0  0  0  0  0  0  0
  189.4310  175.2310  141.7550 C   0  0  2  0  0  3  0  0  0  0  0  0
  187.3580  176.3190  142.7310 C   0  0  2  0  0  3  0  0  0  0  0  0
  192.1840  174.9720  146.6050 C   0  0  0  0  0  2  0  0  0  0  0  0
  184.5280  178.9730  144.8520 C   0  0  0  0  0  2  0  0  0  0  0  0
  184.0070  177.9750  142.7470 O   0  0  0  0  0  0  0  0  0  0  0  0
  191.7910  173.9040  144.5250 O   0  0  0  0  0  1  0  0  0  0  0  0
  188.1610  176.2810  146.5750 C   0  0  1  0  0  3  0  0  0  0  0  0
  191.7590  176.1330  147.4830 C   0  0  0  0  0  2  0  0  0  0  0  0
  189.9640  175.2110  145.4040 C   0  0  1  0  0  3  0  0  0  0  0  0
  187.3010  176.3510  145.2730 C   0  0  1  0  0  3  0  0  0  0  0  0
  186.2360  179.1330  147.1420 O   0  0  0  0  0  0  0  0  0  0  0  0
  186.4630  177.5420  145.4060 N   0  0  0  0  0  0  0  0  0  0  0  0
  183.5760  178.9390  143.6820 C   0  0  0  0  0  2  0  0  0  0  0  0
  186.9380  178.8520  142.6400 C   0  0  0  0  0  1  0  0  0  0  0  0
  190.2460  176.0960  147.6190 C   0  0  0  0  0  2  0  0  0  0  0  0
  189.6080  176.3170  146.3190 N   0  0  2  0  0  0  0  0  0  0  0  0
  186.3420  177.4510  142.5330 C   0  0  2  0  0  3  0  0  0  0  0  0
  188.9730  173.9060  141.7370 O   0  0  0  0  0  0  0  0  0  0  0  0
  189.9470  173.8010  139.6920 F   0  0  0  0  0  0  0  0  0  0  0  0
  189.8940  173.2210  140.9450 C   0  0  0  0  0  2  0  0  0  0  0  0
  1  5  1  6  0  0  0
  1 19  1  0  0  0  0
  2 16  1  6  0  0  0
  2 19  1  0  0  0  0
  2 13  1  0  0  0  0
  4  1  1  0  0  0  0
  4 20  1  0  0  0  0
  6  8  1  0  0  0  0
  7  9  1  0  0  0  0
  8 11  1  0  0  0  0
  8 12  1  0  0  0  0
  9 14  1  0  0  0  0
  9 22  1  0  0  0  0
 10 21  2  0  0  0  0
 10  3  1  0  0  0  0
 11  5  1  0  0  0  0
 12  4  1  0  0  0  0
 13 18  1  0  0  0  0
 15  7  1  0  0  0  0
 15 23  1  0  0  0  0
 17  3  1  0  0  0  0
 18 25  1  0  0  0  0
 19 26  1  0  0  0  0
 20 22  1  0  0  0  0
 20 17  1  0  0  0  0
 22 10  1  0  0  0  0
 23 14  1  0  0  0  0
 26 17  1  0  0  0  0
 26 25  1  0  0  0  0
 27 24  1  0  0  0  0
 27 12  1  0  0  0  0
 27  7  1  0  0  0  0
 28 11  1  0  0  0  0
 29 30  1  0  0  0  0
 30 28  1  0  0  0  0
M  END
>  <MODEL>
3

>  <REMARK>
 VINA RESULT:      -7.9      1.981      5.573
  Name = 
  2 active torsions:
  status: ('A' for Active; 'I' for Inactive)
    1  A    between atoms: C_11  and  O_28
    2  A    between atoms: O_28  and  C_30
                            x       y       z     vdW  Elec       q    Type
                         _______ _______ _______ _____ _____    ______ ____

>  <TORSDO>
F 2

$$$$
=
 OpenBabel11112416163D

 30 35  0  0  1  0  0  0  0  0999 V2000
  187.9230  176.5490  143.6910 C   0  0  1  0  0  3  0  0  0  0  0  0
  185.6330  177.1870  144.6900 C   0  0  1  0  0  3  0  0  0  0  0  0
  189.6090  176.8000  147.4840 O   0  0  0  0  0  0  0  0  0  0  0  0
  189.1190  175.7440  144.2160 C   0  0  1  0  0  3  0  0  0  0  0  0
  187.0770  175.7080  142.9330 O   0  0  0  0  0  0  0  0  0  0  0  0
  189.6840  174.2970  140.8060 O   0  0  0  0  0  1  0  0  0  0  0  0
  192.3250  175.0770  143.8800 C   0  0  1  0  0  3  0  0  0  0  0  0
  189.0040  174.5430  142.0020 C   0  0  2  0  0  3  0  0  0  0  0  0
  192.2940  175.5890  145.3200 C   0  0  2  0  0  3  0  0  0  0  0  0
  190.6780  175.9750  147.2390 C   0  0  0  0  0  0  0  0  0  0  0  0
  187.7400  175.3720  141.7300 C   0  0  2  0  0  3  0  0  0  0  0  0
  189.9270  175.2430  143.0090 C   0  0  2  0  0  3  0  0  0  0  0  0
  184.9240  177.9210  145.8210 C   0  0  0  0  0  2  0  0  0  0  0  0
  193.0560  174.5290  146.0490 C   0  0  0  0  0  2  0  0  0  0  0  0
  193.4650  174.2650  143.7130 O   0  0  0  0  0  0  0  0  0  0  0  0
  185.1960  177.7150  143.4740 O   0  0  0  0  0  1  0  0  0  0  0  0
  189.0840  177.2840  146.2550 C   0  0  1  0  0  3  0  0  0  0  0  0
  185.4880  177.4880  147.1600 C   0  0  0  0  0  2  0  0  0  0  0  0
  187.1690  177.3230  144.8070 C   0  0  1  0  0  3  0  0  0  0  0  0
  189.9590  176.6140  145.1500 C   0  0  1  0  0  3  0  0  0  0  0  0
  191.3580  175.4520  148.1600 O   0  0  0  0  0  0  0  0  0  0  0  0
  190.9450  175.7950  145.8560 N   0  0  0  0  0  0  0  0  0  0  0  0
  194.0080  174.0270  144.9920 C   0  0  0  0  0  2  0  0  0  0  0  0
  190.6750  173.1410  144.2820 C   0  0  0  0  0  1  0  0  0  0  0  0
  186.9800  177.7680  147.1590 C   0  0  0  0  0  2  0  0  0  0  0  0
  187.6560  176.9470  146.1520 N   0  0  2  0  0  0  0  0  0  0  0  0
  191.0840  174.3140  143.3940 C   0  0  2  0  0  3  0  0  0  0  0  0
  188.0210  176.5140  140.9660 O   0  0  0  0  0  0  0  0  0  0  0  0
  187.4130  175.6090  138.9780 F   0  0  0  0  0  0  0  0  0  0  0  0
  187.0560  176.5150  139.9580 C   0  0  0  0  0  2  0  0  0  0  0  0
  1  5  1  1  0  0  0
  1  4  1  0  0  0  0
  1 19  1  0  0  0  0
  2 16  1  6  0  0  0
  2 19  1  0  0  0  0
  2 13  1  0  0  0  0
  4 20  1  0  0  0  0
  6  8  1  0  0  0  0
  7  9  1  0  0  0  0
  8 12  1  0  0  0  0
  9 22  1  0  0  0  0
  9 14  1  0  0  0  0
 10  3  1  0  0  0  0
 10 21  2  0  0  0  0
 11  8  1  0  0  0  0
 11  5  1  0  0  0  0
 12 27  1  0  0  0  0
 12  4  1  0  0  0  0
 13 18  1  0  0  0  0
 15  7  1  0  0  0  0
 15 23  1  0  0  0  0
 17  3  1  0  0  0  0
 19 26  1  0  0  0  0
 20 22  1  0  0  0  0
 20 17  1  0  0  0  0
 22 10  1  0  0  0  0
 23 14  1  0  0  0  0
 25 18  1  0  0  0  0
 26 17  1  0  0  0  0
 26 25  1  0  0  0  0
 27  7  1  0  0  0  0
 27 24  1  0  0  0  0
 28 11  1  0  0  0  0
 29 30  1  0  0  0  0
 30 28  1  0  0  0  0
M  END
>  <MODEL>
4

>  <REMARK>
 VINA RESULT:      -7.7      1.054      1.068
  Name = 
  2 active torsions:
  status: ('A' for Active; 'I' for Inactive)
    1  A    between atoms: C_11  and  O_28
    2  A    between atoms: O_28  and  C_30
                            x       y       z     vdW  Elec       q    Type
                         _______ _______ _______ _____ _____    ______ ____

>  <TORSDO>
F 2

$$$$
=
 OpenBabel11112416163D

 30 35  0  0  1  0  0  0  0  0999 V2000
  189.3880  175.3260  143.3500 C   0  0  1  0  0  3  0  0  0  0  0  0
  189.9900  173.4210  141.7200 C   0  0  1  0  0  3  0  0  0  0  0  0
  186.5560  176.7060  140.6370 O   0  0  0  0  0  0  0  0  0  0  0  0
  188.0840  176.0600  143.6840 C   0  0  1  0  0  3  0  0  0  0  0  0
  189.5890  174.2670  144.2650 O   0  0  0  0  0  0  0  0  0  0  0  0
  189.0640  176.2310  147.2960 O   0  0  0  0  0  1  0  0  0  0  0  0
  186.7200  178.7450  145.0120 C   0  0  1  0  0  3  0  0  0  0  0  0
  188.7090  175.6260  146.0880 C   0  0  2  0  0  3  0  0  0  0  0  0
  186.1650  178.8230  143.5910 C   0  0  2  0  0  3  0  0  0  0  0  0
  185.7720  177.3690  141.5470 C   0  0  0  0  0  0  0  0  0  0  0  0
  189.8930  174.8210  145.5310 C   0  0  2  0  0  3  0  0  0  0  0  0
  188.2260  176.6800  145.0820 C   0  0  2  0  0  3  0  0  0  0  0  0
  190.0220  172.9880  140.2600 C   0  0  0  0  0  2  0  0  0  0  0  0
  184.7060  179.0440  143.8320 C   0  0  0  0  0  2  0  0  0  0  0  0
  185.8710  179.4730  145.8700 O   0  0  0  0  0  0  0  0  0  0  0  0
  191.2800  173.3160  142.2430 O   0  0  0  0  0  1  0  0  0  0  0  0
  187.8550  176.5040  141.1770 C   0  0  1  0  0  3  0  0  0  0  0  0
  188.6740  173.2380  139.6110 C   0  0  0  0  0  2  0  0  0  0  0  0
  189.4730  174.8700  141.8680 C   0  0  1  0  0  3  0  0  0  0  0  0
  187.7920  177.1110  142.6140 C   0  0  1  0  0  3  0  0  0  0  0  0
  184.5880  177.7180  141.2980 O   0  0  0  0  0  0  0  0  0  0  0  0
  186.4360  177.6350  142.7730 N   0  0  0  0  0  0  0  0  0  0  0  0
  184.7020  179.7850  145.1450 C   0  0  0  0  0  2  0  0  0  0  0  0
  185.7090  176.4340  145.5340 C   0  0  0  0  0  1  0  0  0  0  0  0
  188.3460  174.7140  139.7530 C   0  0  0  0  0  2  0  0  0  0  0  0
  188.1880  175.0720  141.1640 N   0  0  2  0  0  0  0  0  0  0  0  0
  186.9380  177.3390  145.5910 C   0  0  2  0  0  3  0  0  0  0  0  0
  191.0670  175.5880  145.4840 O   0  0  0  0  0  0  0  0  0  0  0  0
  191.9730  174.9010  147.4450 F   0  0  0  0  0  0  0  0  0  0  0  0
  192.0430  174.7830  146.0710 C   0  0  0  0  0  2  0  0  0  0  0  0
  1  4  1  0  0  0  0
  1  5  1  1  0  0  0
  2 19  1  0  0  0  0
  2 16  1  6  0  0  0
  3 17  1  0  0  0  0
  3 10  1  0  0  0  0
  4 12  1  0  0  0  0
  5 11  1  0  0  0  0
  7 27  1  0  0  0  0
  7 15  1  0  0  0  0
  8  6  1  0  0  0  0
  9 14  1  0  0  0  0
  9  7  1  0  0  0  0
 10 22  1  0  0  0  0
 11  8  1  0  0  0  0
 12 27  1  0  0  0  0
 12  8  1  0  0  0  0
 13  2  1  0  0  0  0
 14 23  1  0  0  0  0
 17 20  1  0  0  0  0
 18 25  1  0  0  0  0
 18 13  1  0  0  0  0
 19  1  1  0  0  0  0
 20 22  1  0  0  0  0
 20  4  1  0  0  0  0
 21 10  2  0  0  0  0
 22  9  1  0  0  0  0
 23 15  1  0  0  0  0
 24 27  1  0  0  0  0
 25 26  1  0  0  0  0
 26 17  1  0  0  0  0
 26 19  1  0  0  0  0
 28 11  1  0  0  0  0
 28 30  1  0  0  0  0
 30 29  1  0  0  0  0
M  END
>  <MODEL>
5

>  <REMARK>
 VINA RESULT:      -7.4      2.773      6.914
  Name = 
  2 active torsions:
  status: ('A' for Active; 'I' for Inactive)
    1  A    between atoms: C_11  and  O_28
    2  A    between atoms: O_28  and  C_30
                            x       y       z     vdW  Elec       q    Type
                         _______ _______ _______ _____ _____    ______ ____

>  <TORSDO>
F 2

$$$$
=
 OpenBabel11112416163D

 30 35  0  0  1  0  0  0  0  0999 V2000
  190.5740  175.1530  144.0300 C   0  0  1  0  0  3  0  0  0  0  0  0
  193.1440  175.1950  143.8150 C   0  0  1  0  0  3  0  0  0  0  0  0
  190.8790  177.1740  147.6510 O   0  0  0  0  0  0  0  0  0  0  0  0
  189.5460  176.1230  144.6250 C   0  0  1  0  0  3  0  0  0  0  0  0
  190.7050  175.3860  142.6420 O   0  0  0  0  0  0  0  0  0  0  0  0
  187.1390  175.3170  141.8690 O   0  0  0  0  0  1  0  0  0  0  0  0
  186.4820  176.4990  145.7690 C   0  0  1  0  0  3  0  0  0  0  0  0
  188.3120  175.8080  142.4490 C   0  0  2  0  0  3  0  0  0  0  0  0
  187.2920  176.9220  146.9930 C   0  0  2  0  0  3  0  0  0  0  0  0
  189.6170  177.7120  147.6410 C   0  0  0  0  0  0  0  0  0  0  0  0
  189.5160  174.9640  142.0030 C   0  0  2  0  0  3  0  0  0  0  0  0
  188.1830  175.8340  143.9780 C   0  0  2  0  0  3  0  0  0  0  0  0
  194.4610  175.2510  144.5770 C   0  0  0  0  0  2  0  0  0  0  0  0
  186.6440  178.2150  147.3710 C   0  0  0  0  0  2  0  0  0  0  0  0
  185.1970  177.0710  145.8560 O   0  0  0  0  0  0  0  0  0  0  0  0
  193.1430  174.0530  143.0120 O   0  0  0  0  0  1  0  0  0  0  0  0
  190.9350  176.0600  146.7710 C   0  0  1  0  0  3  0  0  0  0  0  0
  194.4370  176.3880  145.5790 C   0  0  0  0  0  2  0  0  0  0  0  0
  191.9350  175.1660  144.7790 C   0  0  1  0  0  3  0  0  0  0  0  0
  189.5070  175.9690  146.1450 C   0  0  1  0  0  3  0  0  0  0  0  0
  189.2840  178.6800  148.3740 O   0  0  0  0  0  0  0  0  0  0  0  0
  188.7320  177.0540  146.7460 N   0  0  0  0  0  0  0  0  0  0  0  0
  185.2240  178.0160  146.9030 C   0  0  0  0  0  2  0  0  0  0  0  0
  187.4680  178.2910  144.2030 C   0  0  0  0  0  1  0  0  0  0  0  0
  193.2570  176.1740  146.5120 C   0  0  0  0  0  2  0  0  0  0  0  0
  191.9960  176.2600  145.7720 N   0  0  2  0  0  0  0  0  0  0  0  0
  187.0890  176.8240  144.3950 C   0  0  2  0  0  3  0  0  0  0  0  0
  189.2910  173.5940  142.1970 O   0  0  0  0  0  0  0  0  0  0  0  0
  188.7170  173.2660  140.0280 F   0  0  0  0  0  0  0  0  0  0  0  0
  189.6670  172.9960  140.9940 C   0  0  0  0  0  2  0  0  0  0  0  0
  1  5  1  6  0  0  0
  1  4  1  0  0  0  0
  1 19  1  0  0  0  0
  2 16  1  1  0  0  0
  2 13  1  0  0  0  0
  2 19  1  0  0  0  0
  4 20  1  0  0  0  0
  6  8  1  0  0  0  0
  7 15  1  0  0  0  0
  7  9  1  0  0  0  0
  8 12  1  0  0  0  0
  9 14  1  0  0  0  0
 10  3  1  0  0  0  0
 10 21  2  0  0  0  0
 11 28  1  0  0  0  0
 11  8  1  0  0  0  0
 11  5  1  0  0  0  0
 12 27  1  0  0  0  0
 12  4  1  0  0  0  0
 13 18  1  0  0  0  0
 15 23  1  0  0  0  0
 17  3  1  0  0  0  0
 18 25  1  0  0  0  0
 19 26  1  0  0  0  0
 20 22  1  0  0  0  0
 20 17  1  0  0  0  0
 22  9  1  0  0  0  0
 22 10  1  0  0  0  0
 23 14  1  0  0  0  0
 24 27  1  0  0  0  0
 26 25  1  0  0  0  0
 26 17  1  0  0  0  0
 27  7  1  0  0  0  0
 29 30  1  0  0  0  0
 30 28  1  0  0  0  0
M  END
>  <MODEL>
6

>  <REMARK>
 VINA RESULT:      -7.3      1.939      5.637
  Name = 
  2 active torsions:
  status: ('A' for Active; 'I' for Inactive)
    1  A    between atoms: C_11  and  O_28
    2  A    between atoms: O_28  and  C_30
                            x       y       z     vdW  Elec       q    Type
                         _______ _______ _______ _____ _____    ______ ____

>  <TORSDO>
F 2

$$$$
=
 OpenBabel11112416163D

 30 35  0  0  1  0  0  0  0  0999 V2000
  187.8590  176.3660  144.1880 C   0  0  1  0  0  3  0  0  0  0  0  0
  186.3570  178.0100  142.8880 C   0  0  1  0  0  3  0  0  0  0  0  0
  189.0510  174.6650  140.5860 O   0  0  0  0  0  0  0  0  0  0  0  0
  189.2130  175.7090  143.8910 C   0  0  1  0  0  3  0  0  0  0  0  0
  188.0550  177.5390  144.9510 O   0  0  0  0  0  0  0  0  0  0  0  0
  190.1990  176.0330  147.4900 O   0  0  0  0  0  1  0  0  0  0  0  0
  191.2870  173.2620  144.6320 C   0  0  1  0  0  3  0  0  0  0  0  0
  189.8450  176.4670  146.2100 C   0  0  2  0  0  3  0  0  0  0  0  0
  191.0560  172.9940  143.1450 C   0  0  2  0  0  3  0  0  0  0  0  0
  190.2410  174.1510  141.0370 C   0  0  0  0  0  0  0  0  0  0  0  0
  188.4770  177.1650  146.2480 C   0  0  2  0  0  3  0  0  0  0  0  0
  189.8460  175.2900  145.2260 C   0  0  2  0  0  3  0  0  0  0  0  0
  185.5580  178.2310  141.6110 C   0  0  0  0  0  2  0  0  0  0  0  0
  192.4520  172.8340  142.6320 C   0  0  0  0  0  2  0  0  0  0  0  0
  192.5110  172.6780  145.0130 O   0  0  0  0  0  0  0  0  0  0  0  0
  185.5010  178.1660  143.9800 O   0  0  0  0  0  1  0  0  0  0  0  0
  188.1880  174.9180  141.6860 C   0  0  1  0  0  3  0  0  0  0  0  0
  186.4140  177.9160  140.3990 C   0  0  0  0  0  2  0  0  0  0  0  0
  187.0020  176.6060  142.9150 C   0  0  1  0  0  3  0  0  0  0  0  0
  189.0170  174.5220  142.9480 C   0  0  1  0  0  3  0  0  0  0  0  0
  191.1650  173.7910  140.2610 O   0  0  0  0  0  0  0  0  0  0  0  0
  190.3090  174.0490  142.4520 N   0  0  0  0  0  0  0  0  0  0  0  0
  193.1790  172.2860  143.8340 C   0  0  0  0  0  2  0  0  0  0  0  0
  192.2170  175.6410  144.3010 C   0  0  0  0  0  1  0  0  0  0  0  0
  186.8950  176.4800  140.5190 C   0  0  0  0  0  2  0  0  0  0  0  0
  187.7710  176.3290  141.6830 N   0  0  2  0  0  0  0  0  0  0  0  0
  191.2670  174.7320  145.0770 C   0  0  2  0  0  3  0  0  0  0  0  0
  187.5110  176.3790  146.8930 O   0  0  0  0  0  0  0  0  0  0  0  0
  185.2840  176.8020  146.8390 F   0  0  0  0  0  0  0  0  0  0  0  0
  186.5100  177.2770  147.2630 C   0  0  0  0  0  2  0  0  0  0  0  0
  1  5  1  6  0  0  0
  2 19  1  0  0  0  0
  2 16  1  1  0  0  0
  3 10  1  0  0  0  0
  3 17  1  0  0  0  0
  4  1  1  0  0  0  0
  4 12  1  0  0  0  0
  5 11  1  0  0  0  0
  7 15  1  0  0  0  0
  7 27  1  0  0  0  0
  8 11  1  0  0  0  0
  8  6  1  0  0  0  0
  9  7  1  0  0  0  0
 10 22  1  0  0  0  0
 11 28  1  0  0  0  0
 12  8  1  0  0  0  0
 13  2  1  0  0  0  0
 14  9  1  0  0  0  0
 14 23  1  0  0  0  0
 17 20  1  0  0  0  0
 18 25  1  0  0  0  0
 18 13  1  0  0  0  0
 19  1  1  0  0  0  0
 20  4  1  0  0  0  0
 21 10  2  0  0  0  0
 22 20  1  0  0  0  0
 22  9  1  0  0  0  0
 23 15  1  0  0  0  0
 24 27  1  0  0  0  0
 25 26  1  0  0  0  0
 26 17  1  0  0  0  0
 26 19  1  0  0  0  0
 27 12  1  0  0  0  0
 28 30  1  0  0  0  0
 29 30  1  0  0  0  0
M  END
>  <MODEL>
7

>  <REMARK>
 VINA RESULT:      -7.2      2.171      4.676
  Name = 
  2 active torsions:
  status: ('A' for Active; 'I' for Inactive)
    1  A    between atoms: C_11  and  O_28
    2  A    between atoms: O_28  and  C_30
                            x       y       z     vdW  Elec       q    Type
                         _______ _______ _______ _____ _____    ______ ____

>  <TORSDO>
F 2

$$$$
=
 OpenBabel11112416163D

 30 35  0  0  1  0  0  0  0  0999 V2000
  191.7800  175.6140  144.0890 C   0  0  1  0  0  3  0  0  0  0  0  0
  192.8070  173.9750  142.3840 C   0  0  1  0  0  3  0  0  0  0  0  0
  188.1670  175.4270  142.0400 O   0  0  0  0  0  0  0  0  0  0  0  0
  190.3780  175.7750  144.6900 C   0  0  1  0  0  3  0  0  0  0  0  0
  192.5820  174.8300  144.9490 O   0  0  0  0  0  0  0  0  0  0  0  0
  191.8670  176.6930  148.0030 O   0  0  0  0  0  1  0  0  0  0  0  0
  188.2880  177.7770  146.2580 C   0  0  1  0  0  3  0  0  0  0  0  0
  191.5770  175.8780  146.9060 C   0  0  2  0  0  3  0  0  0  0  0  0
  187.4900  177.4770  144.9900 C   0  0  2  0  0  3  0  0  0  0  0  0
  187.3670  175.7950  143.0920 C   0  0  0  0  0  0  0  0  0  0  0  0
  192.8600  175.5830  146.1140 C   0  0  2  0  0  3  0  0  0  0  0  0
  190.5100  176.5340  146.0190 C   0  0  2  0  0  3  0  0  0  0  0  0
  192.7380  173.4510  140.9560 C   0  0  0  0  0  2  0  0  0  0  0  0
  186.1520  177.1000  145.5380 C   0  0  0  0  0  2  0  0  0  0  0  0
  187.3930  178.1710  147.2730 O   0  0  0  0  0  0  0  0  0  0  0  0
  194.0930  174.4640  142.6170 O   0  0  0  0  0  1  0  0  0  0  0  0
  189.5060  175.8340  142.2880 C   0  0  1  0  0  3  0  0  0  0  0  0
  191.3140  173.0570  140.6120 C   0  0  0  0  0  2  0  0  0  0  0  0
  191.7630  175.0890  142.6270 C   0  0  1  0  0  3  0  0  0  0  0  0
  189.4690  176.5000  143.6990 C   0  0  1  0  0  3  0  0  0  0  0  0
  186.1230  175.5980  143.1020 O   0  0  0  0  0  0  0  0  0  0  0  0
  188.0770  176.4320  144.1430 N   0  0  0  0  0  0  0  0  0  0  0  0
  186.0860  177.9000  146.8150 C   0  0  0  0  0  2  0  0  0  0  0  0
  188.4740  175.3190  147.0070 C   0  0  0  0  0  1  0  0  0  0  0  0
  190.4250  174.2730  140.8080 C   0  0  0  0  0  2  0  0  0  0  0  0
  190.4050  174.6720  142.2170 N   0  0  2  0  0  0  0  0  0  0  0  0
  189.1890  176.6510  146.7880 C   0  0  2  0  0  3  0  0  0  0  0  0
  193.5640  176.7560  145.8070 O   0  0  0  0  0  0  0  0  0  0  0  0
  195.1800  175.3910  146.6230 F   0  0  0  0  0  0  0  0  0  0  0  0
  194.8920  176.3500  145.6710 C   0  0  0  0  0  2  0  0  0  0  0  0
  1  4  1  0  0  0  0
  1  5  1  1  0  0  0
  2 16  1  6  0  0  0
  2 19  1  0  0  0  0
  3 17  1  0  0  0  0
  3 10  1  0  0  0  0
  4 12  1  0  0  0  0
  5 11  1  0  0  0  0
  7 27  1  0  0  0  0
  7 15  1  0  0  0  0
  8  6  1  0  0  0  0
  9 14  1  0  0  0  0
  9  7  1  0  0  0  0
 10 21  2  0  0  0  0
 10 22  1  0  0  0  0
 11  8  1  0  0  0  0
 12 27  1  0  0  0  0
 12  8  1  0  0  0  0
 13  2  1  0  0  0  0
 14 23  1  0  0  0  0
 17 20  1  0  0  0  0
 18 25  1  0  0  0  0
 18 13  1  0  0  0  0
 19  1  1  0  0  0  0
 20 22  1  0  0  0  0
 20  4  1  0  0  0  0
 22  9  1  0  0  0  0
 23 15  1  0  0  0  0
 25 26  1  0  0  0  0
 26 17  1  0  0  0  0
 26 19  1  0  0  0  0
 27 24  1  0  0  0  0
 28 11  1  0  0  0  0
 30 28  1  0  0  0  0
 30 29  1  0  0  0  0
M  END
>  <MODEL>
8

>  <REMARK>
 VINA RESULT:      -7.1      2.869      7.030
  Name = 
  2 active torsions:
  status: ('A' for Active; 'I' for Inactive)
    1  A    between atoms: C_11  and  O_28
    2  A    between atoms: O_28  and  C_30
                            x       y       z     vdW  Elec       q    Type
                         _______ _______ _______ _____ _____    ______ ____

>  <TORSDO>
F 2

$$$$
=
 OpenBabel11112416163D

 30 35  0  0  1  0  0  0  0  0999 V2000
  190.5180  175.9260  145.2920 C   0  0  1  0  0  3  0  0  0  0  0  0
  192.1570  173.9530  145.5570 C   0  0  1  0  0  3  0  0  0  0  0  0
  189.9320  174.8590  141.3160 O   0  0  0  0  0  0  0  0  0  0  0  0
  189.2430  176.1390  144.4670 C   0  0  1  0  0  3  0  0  0  0  0  0
  190.1790  175.4920  146.5930 O   0  0  0  0  0  0  0  0  0  0  0  0
  187.7130  178.0960  147.2710 O   0  0  0  0  0  1  0  0  0  0  0  0
  187.1450  178.3310  143.1900 C   0  0  1  0  0  3  0  0  0  0  0  0
  188.2460  176.9770  146.6250 C   0  0  2  0  0  3  0  0  0  0  0  0
  187.6050  177.6130  141.9230 C   0  0  2  0  0  3  0  0  0  0  0  0
  188.7010  175.4490  141.1720 C   0  0  0  0  0  0  0  0  0  0  0  0
  189.5740  176.5710  147.2810 C   0  0  2  0  0  3  0  0  0  0  0  0
  188.4250  177.2590  145.1270 C   0  0  2  0  0  3  0  0  0  0  0  0
  193.1350  173.0350  144.8350 C   0  0  0  0  0  2  0  0  0  0  0  0
  186.3090  177.3020  141.2460 C   0  0  0  0  0  2  0  0  0  0  0  0
  185.8920  178.9280  142.9430 O   0  0  0  0  0  0  0  0  0  0  0  0
  192.8330  174.5920  146.5980 O   0  0  0  0  0  1  0  0  0  0  0  0
  190.6110  175.4290  142.4270 C   0  0  1  0  0  3  0  0  0  0  0  0
  192.4820  172.4430  143.6010 C   0  0  0  0  0  2  0  0  0  0  0  0
  191.5530  175.0010  144.5940 C   0  0  1  0  0  3  0  0  0  0  0  0
  189.6110  176.4700  143.0210 C   0  0  1  0  0  3  0  0  0  0  0  0
  187.9150  175.1630  140.2300 O   0  0  0  0  0  0  0  0  0  0  0  0
  188.4220  176.4190  142.1700 N   0  0  0  0  0  0  0  0  0  0  0  0
  185.4210  178.4300  141.7100 C   0  0  0  0  0  2  0  0  0  0  0  0
  186.2140  176.2190  144.3330 C   0  0  0  0  0  1  0  0  0  0  0  0
  192.0250  173.5870  142.7120 C   0  0  0  0  0  2  0  0  0  0  0  0
  190.9870  174.3740  143.3800 N   0  0  2  0  0  0  0  0  0  0  0  0
  187.0580  177.4840  144.4690 C   0  0  2  0  0  3  0  0  0  0  0  0
  190.4510  177.6580  147.3980 O   0  0  0  0  0  0  0  0  0  0  0  0
  191.2230  178.3640  149.4090 F   0  0  0  0  0  0  0  0  0  0  0  0
  191.2700  177.3420  148.4810 C   0  0  0  0  0  2  0  0  0  0  0  0
  1  5  1  1  0  0  0
  2 16  1  1  0  0  0
  3 17  1  0  0  0  0
  4 12  1  0  0  0  0
  4  1  1  0  0  0  0
  5 11  1  0  0  0  0
  7 27  1  0  0  0  0
  8  6  1  0  0  0  0
  8 11  1  0  0  0  0
  9 22  1  0  0  0  0
  9  7  1  0  0  0  0
 10  3  1  0  0  0  0
 10 22  1  0  0  0  0
 11 28  1  0  0  0  0
 12  8  1  0  0  0  0
 13  2  1  0  0  0  0
 14 23  1  0  0  0  0
 14  9  1  0  0  0  0
 15  7  1  0  0  0  0
 17 20  1  0  0  0  0
 17 26  1  0  0  0  0
 18 13  1  0  0  0  0
 19  1  1  0  0  0  0
 19  2  1  0  0  0  0
 20  4  1  0  0  0  0
 21 10  2  0  0  0  0
 22 20  1  0  0  0  0
 23 15  1  0  0  0  0
 24 27  1  0  0  0  0
 25 26  1  0  0  0  0
 25 18  1  0  0  0  0
 26 19  1  0  0  0  0
 27 12  1  0  0  0  0
 28 30  1  0  0  0  0
 30 29  1  0  0  0  0
M  END
>  <MODEL>
9

>  <REMARK>
 VINA RESULT:      -7.0      2.667      6.915
  Name = 
  2 active torsions:
  status: ('A' for Active; 'I' for Inactive)
    1  A    between atoms: C_11  and  O_28
    2  A    between atoms: O_28  and  C_30
                            x       y       z     vdW  Elec       q    Type
                         _______ _______ _______ _____ _____    ______ ____

>  <TORSDO>
F 2

$$$$
