=
 OpenBabel11112416363D

 32 37  0  0  1  0  0  0  0  0999 V2000
  189.7850  172.3410  138.4260 C   0  0  0  0  0  2  0  0  0  0  0  0
  188.9460  175.6130  142.6920 C   0  0  0  0  0  0  0  0  0  0  0  0
  192.1100  174.8870  146.4750 C   0  0  0  0  0  2  0  0  0  0  0  0
  191.5360  176.1220  147.1450 C   0  0  0  0  0  2  0  0  0  0  0  0
  187.1710  177.4250  143.0120 C   0  0  0  0  0  0  0  0  0  0  0  0
  186.4480  178.1260  143.8990 C   0  0  0  0  0  0  0  0  0  0  0  0
  189.1230  174.1660  140.7680 N   0  0  2  0  0  0  0  0  0  0  0  0
  190.9520  174.2470  142.4130 C   0  0  0  0  0  2  0  0  0  0  0  0
  185.8030  178.8930  145.8800 N   0  0  0  0  0  0  0  0  0  0  0  0
  190.9390  172.4710  140.7220 C   0  0  0  0  0  2  0  0  0  0  0  0
  191.9930  175.0500  144.9640 C   0  0  0  0  0  2  0  0  0  0  0  0
  190.2170  175.0560  143.1900 C   0  0  0  0  0  0  0  0  0  0  0  0
  190.6170  175.3530  144.5400 N   0  0  0  0  0  0  0  0  0  0  0  0
  188.6040  176.6740  144.9190 C   0  0  0  0  0  0  0  0  0  0  0  0
  184.9930  179.4260  144.9410 C   0  0  0  0  0  3  0  0  0  0  0  0
  188.6630  172.4310  139.2600 O   0  0  0  0  0  0  0  0  0  0  0  0
  190.5610  173.9230  140.9990 C   0  0  1  0  0  3  0  0  0  0  0  0
  185.3660  178.9680  143.6760 C   0  0  0  0  0  3  0  0  0  0  0  0
  188.5060  173.8010  139.4980 C   0  0  0  0  0  2  0  0  0  0  0  0
  191.0910  172.2000  139.2240 C   0  0  1  0  0  3  0  0  0  0  0  0
  190.0400  176.1910  146.8800 C   0  0  0  0  0  2  0  0  0  0  0  0
  189.7310  176.1090  145.4040 C   0  0  0  0  0  0  0  0  0  0  0  0
  187.7090  177.4570  145.8070 C   0  0  0  0  0  3  0  0  0  0  0  0
  188.4260  175.1380  141.5540 C   0  0  0  0  0  2  0  0  0  0  0  0
  186.9070  177.5990  141.5480 C   0  0  0  0  0  1  0  0  0  0  0  0
  185.7230  179.1530  147.3080 C   0  0  0  0  0  1  0  0  0  0  0  0
  188.2490  176.5770  143.5090 N   0  0  0  0  0  0  0  0  0  0  0  0
  186.6920  178.1110  145.2470 C   0  0  0  0  0  0  0  0  0  0  0  0
  191.6520  170.8750  139.0140 N   0  0  0  0  0  2  0  0  0  0  0  0
  192.6490  170.6230  138.0220 C   0  0  0  0  0  0  0  0  0  0  0  0
  193.0560  171.5500  137.2720 O   0  0  0  0  0  0  0  0  0  0  0  0
  193.2100  169.2560  137.8690 C   0  0  0  0  0  1  0  0  0  0  0  0
  1 20  1  0  0  0  0
  1 16  1  0  0  0  0
  2 12  2  0  0  0  0
  2 27  1  0  0  0  0
  3  4  1  0  0  0  0
  5 27  1  0  0  0  0
  5  6  2  0  0  0  0
  6 28  1  0  0  0  0
  7 19  1  6  0  0  0
  7 17  1  0  0  0  0
  7 24  1  0  0  0  0
  8 12  1  0  0  0  0
  9 26  1  0  0  0  0
 11  3  1  0  0  0  0
 12 13  1  0  0  0  0
 13 11  1  0  0  0  0
 13 22  1  0  0  0  0
 14 22  2  0  0  0  0
 14 23  1  0  0  0  0
 15  9  1  0  0  0  0
 16 19  1  0  0  0  0
 17 10  1  1  0  0  0
 17  8  1  0  0  0  0
 18  6  1  0  0  0  0
 18 15  2  0  0  0  0
 20 29  1  1  0  0  0
 20 10  1  0  0  0  0
 21  4  1  0  0  0  0
 22 21  1  0  0  0  0
 24  2  1  0  0  0  0
 25  5  1  0  0  0  0
 27 14  1  0  0  0  0
 28 23  2  0  0  0  0
 28  9  1  0  0  0  0
 30 29  1  0  0  0  0
 31 30  2  0  0  0  0
 32 30  1  0  0  0  0
M  END
>  <MODEL>
1

>  <REMARK>
 VINA RESULT:      -8.5      0.000      0.000
  Name = 
  1 active torsions:
  status: ('A' for Active; 'I' for Inactive)
    1  A    between atoms: C_20  and  N_29
                            x       y       z     vdW  Elec       q    Type
                         _______ _______ _______ _____ _____    ______ ____

>  <TORSDO>
F 1

$$$$
=
 OpenBabel11112416363D

 32 37  0  0  1  0  0  0  0  0999 V2000
  191.7820  173.5100  142.5780 C   0  0  0  0  0  2  0  0  0  0  0  0
  187.4290  176.6890  143.3200 C   0  0  0  0  0  0  0  0  0  0  0  0
  186.6950  178.0740  148.0520 C   0  0  0  0  0  2  0  0  0  0  0  0
  185.5990  179.0090  147.5710 C   0  0  0  0  0  2  0  0  0  0  0  0
  185.7360  177.5370  141.6010 C   0  0  0  0  0  0  0  0  0  0  0  0
  184.4830  177.9690  141.3970 C   0  0  0  0  0  0  0  0  0  0  0  0
  189.2600  175.1900  142.8450 N   0  0  2  0  0  0  0  0  0  0  0  0
  189.1520  176.3450  145.0160 C   0  0  0  0  0  2  0  0  0  0  0  0
  182.4390  178.6690  141.9100 N   0  0  0  0  0  0  0  0  0  0  0  0
  190.7490  174.5080  144.7130 C   0  0  0  0  0  2  0  0  0  0  0  0
  187.7320  177.9240  146.9450 C   0  0  0  0  0  2  0  0  0  0  0  0
  187.9540  176.8490  144.6880 C   0  0  0  0  0  0  0  0  0  0  0  0
  187.1310  177.5050  145.6690 N   0  0  0  0  0  0  0  0  0  0  0  0
  185.3350  177.8230  144.0520 C   0  0  0  0  0  0  0  0  0  0  0  0
  182.5410  178.6240  140.5650 C   0  0  0  0  0  3  0  0  0  0  0  0
  190.4300  173.2180  142.3560 O   0  0  0  0  0  0  0  0  0  0  0  0
  190.0350  175.6590  144.0110 C   0  0  1  0  0  3  0  0  0  0  0  0
  183.8150  178.1890  140.1990 C   0  0  0  0  0  3  0  0  0  0  0  0
  189.8980  174.3900  141.8060 C   0  0  0  0  0  2  0  0  0  0  0  0
  192.0260  174.1000  143.9760 C   0  0  1  0  0  3  0  0  0  0  0  0
  184.8460  178.3550  146.4230 C   0  0  0  0  0  2  0  0  0  0  0  0
  185.7820  177.9100  145.3240 C   0  0  0  0  0  0  0  0  0  0  0  0
  183.9570  178.2510  143.7040 C   0  0  0  0  0  3  0  0  0  0  0  0
  188.0490  175.8570  142.4750 C   0  0  0  0  0  2  0  0  0  0  0  0
  186.6440  177.3380  140.4260 C   0  0  0  0  0  1  0  0  0  0  0  0
  181.2620  179.0900  142.6520 C   0  0  0  0  0  1  0  0  0  0  0  0
  186.1950  177.3540  142.9740 N   0  0  0  0  0  0  0  0  0  0  0  0
  183.6200  178.2800  142.4160 C   0  0  0  0  0  0  0  0  0  0  0  0
  192.7820  173.1530  144.7820 N   0  0  0  0  0  2  0  0  0  0  0  0
  194.2090  173.1710  144.8290 C   0  0  0  0  0  0  0  0  0  0  0  0
  194.8640  174.0010  144.1450 O   0  0  0  0  0  0  0  0  0  0  0  0
  194.9310  172.2000  145.6920 C   0  0  0  0  0  1  0  0  0  0  0  0
  1 20  1  0  0  0  0
  2 12  2  0  0  0  0
  4  3  1  0  0  0  0
  5 27  1  0  0  0  0
  6  5  2  0  0  0  0
  6 28  1  0  0  0  0
  7 19  1  6  0  0  0
  7 17  1  0  0  0  0
  9 28  1  0  0  0  0
  9 26  1  0  0  0  0
 11  3  1  0  0  0  0
 12  8  1  0  0  0  0
 12 13  1  0  0  0  0
 13 11  1  0  0  0  0
 14 22  2  0  0  0  0
 15  9  1  0  0  0  0
 16  1  1  0  0  0  0
 17 10  1  1  0  0  0
 17  8  1  0  0  0  0
 18 15  2  0  0  0  0
 18  6  1  0  0  0  0
 19 16  1  0  0  0  0
 20 10  1  0  0  0  0
 20 29  1  1  0  0  0
 21  4  1  0  0  0  0
 22 13  1  0  0  0  0
 22 21  1  0  0  0  0
 23 14  1  0  0  0  0
 24  7  1  0  0  0  0
 24  2  1  0  0  0  0
 25  5  1  0  0  0  0
 27  2  1  0  0  0  0
 27 14  1  0  0  0  0
 28 23  2  0  0  0  0
 29 30  1  0  0  0  0
 30 32  1  0  0  0  0
 31 30  2  0  0  0  0
M  END
>  <MODEL>
2

>  <REMARK>
 VINA RESULT:      -8.4      2.831      4.769
  Name = 
  1 active torsions:
  status: ('A' for Active; 'I' for Inactive)
    1  A    between atoms: C_20  and  N_29
                            x       y       z     vdW  Elec       q    Type
                         _______ _______ _______ _____ _____    ______ ____

>  <TORSDO>
F 1

$$$$
=
 OpenBabel11112416363D

 32 37  0  0  1  0  0  0  0  0999 V2000
  194.7610  175.2700  146.1990 C   0  0  0  0  0  2  0  0  0  0  0  0
  190.0800  175.6530  143.4520 C   0  0  0  0  0  0  0  0  0  0  0  0
  189.7610  172.5980  139.5260 C   0  0  0  0  0  2  0  0  0  0  0  0
  188.3050  173.0020  139.3750 C   0  0  0  0  0  2  0  0  0  0  0  0
  188.0700  177.1710  143.8910 C   0  0  0  0  0  0  0  0  0  0  0  0
  187.0090  177.7920  143.3520 C   0  0  0  0  0  0  0  0  0  0  0  0
  192.1390  175.6760  144.7100 N   0  0  2  0  0  0  0  0  0  0  0  0
  191.6910  173.8460  143.1260 C   0  0  0  0  0  2  0  0  0  0  0  0
  185.4970  178.3220  141.8150 N   0  0  0  0  0  0  0  0  0  0  0  0
  193.9460  174.1010  144.0570 C   0  0  0  0  0  2  0  0  0  0  0  0
  190.1480  172.6990  140.9970 C   0  0  0  0  0  2  0  0  0  0  0  0
  190.5700  174.4650  142.7290 C   0  0  0  0  0  0  0  0  0  0  0  0
  189.8520  174.0240  141.5630 N   0  0  0  0  0  0  0  0  0  0  0  0
  188.2440  175.8430  141.7790 C   0  0  0  0  0  0  0  0  0  0  0  0
  185.2490  179.0580  142.9190 C   0  0  0  0  0  3  0  0  0  0  0  0
  194.2340  176.3670  145.5060 O   0  0  0  0  0  0  0  0  0  0  0  0
  192.4590  174.2820  144.3430 C   0  0  1  0  0  3  0  0  0  0  0  0
  186.1790  178.7530  143.9130 C   0  0  0  0  0  3  0  0  0  0  0  0
  192.8630  176.3410  145.7880 C   0  0  0  0  0  2  0  0  0  0  0  0
  194.7620  173.9910  145.3470 C   0  0  1  0  0  3  0  0  0  0  0  0
  188.1520  174.4760  139.7140 C   0  0  0  0  0  2  0  0  0  0  0  0
  188.7290  174.7990  141.0720 C   0  0  0  0  0  0  0  0  0  0  0  0
  187.0860  176.6240  141.2760 C   0  0  0  0  0  3  0  0  0  0  0  0
  190.8680  176.2350  144.3620 C   0  0  0  0  0  2  0  0  0  0  0  0
  188.4110  177.4150  145.3290 C   0  0  0  0  0  1  0  0  0  0  0  0
  184.7250  178.3620  140.5840 C   0  0  0  0  0  1  0  0  0  0  0  0
  188.8050  176.2130  143.0720 N   0  0  0  0  0  0  0  0  0  0  0  0
  186.5600  177.5470  142.0810 C   0  0  0  0  0  0  0  0  0  0  0  0
  196.1310  173.6110  145.0360 N   0  0  0  0  0  2  0  0  0  0  0  0
  196.5360  172.2440  144.9530 C   0  0  0  0  0  0  0  0  0  0  0  0
  195.7140  171.3160  145.1760 O   0  0  0  0  0  0  0  0  0  0  0  0
  197.9410  171.9100  144.6030 C   0  0  0  0  0  1  0  0  0  0  0  0
  2 24  1  0  0  0  0
  3 11  1  0  0  0  0
  4  3  1  0  0  0  0
  4 21  1  0  0  0  0
  5 25  1  0  0  0  0
  6  5  2  0  0  0  0
  6 18  1  0  0  0  0
  7 24  1  1  0  0  0
  7 19  1  0  0  0  0
  9 28  1  0  0  0  0
  9 15  1  0  0  0  0
 10 17  1  0  0  0  0
 10 20  1  0  0  0  0
 11 13  1  0  0  0  0
 12  8  1  0  0  0  0
 12  2  2  0  0  0  0
 13 12  1  0  0  0  0
 14 27  1  0  0  0  0
 15 18  2  0  0  0  0
 16 19  1  0  0  0  0
 16  1  1  0  0  0  0
 17  8  1  6  0  0  0
 17  7  1  0  0  0  0
 20 29  1  6  0  0  0
 20  1  1  0  0  0  0
 21 22  1  0  0  0  0
 22 13  1  0  0  0  0
 22 14  2  0  0  0  0
 23 14  1  0  0  0  0
 23 28  2  0  0  0  0
 26  9  1  0  0  0  0
 27  2  1  0  0  0  0
 27  5  1  0  0  0  0
 28  6  1  0  0  0  0
 30 29  1  0  0  0  0
 30 31  2  0  0  0  0
 32 30  1  0  0  0  0
M  END
>  <MODEL>
3

>  <REMARK>
 VINA RESULT:      -8.3      3.195      5.706
  Name = 
  1 active torsions:
  status: ('A' for Active; 'I' for Inactive)
    1  A    between atoms: C_20  and  N_29
                            x       y       z     vdW  Elec       q    Type
                         _______ _______ _______ _____ _____    ______ ____

>  <TORSDO>
F 1

$$$$
=
 OpenBabel11112416363D

 32 37  0  0  1  0  0  0  0  0999 V2000
  190.8090  172.2130  138.6130 C   0  0  0  0  0  2  0  0  0  0  0  0
  188.6950  175.4510  142.4400 C   0  0  0  0  0  0  0  0  0  0  0  0
  191.0950  175.2880  146.8060 C   0  0  0  0  0  2  0  0  0  0  0  0
  190.2380  176.4480  147.2810 C   0  0  0  0  0  2  0  0  0  0  0  0
  186.6660  177.0020  142.3040 C   0  0  0  0  0  0  0  0  0  0  0  0
  185.6920  177.6180  142.9900 C   0  0  0  0  0  0  0  0  0  0  0  0
  189.4490  173.9910  140.6740 N   0  0  2  0  0  0  0  0  0  0  0  0
  190.8790  174.3770  142.6390 C   0  0  0  0  0  2  0  0  0  0  0  0
  184.5620  178.3410  144.7600 N   0  0  0  0  0  0  0  0  0  0  0  0
  191.4450  172.5700  141.0800 C   0  0  0  0  0  2  0  0  0  0  0  0
  191.2650  175.3910  145.2950 C   0  0  0  0  0  2  0  0  0  0  0  0
  189.9010  175.0940  143.2100 C   0  0  0  0  0  0  0  0  0  0  0  0
  189.9770  175.4830  144.5930 N   0  0  0  0  0  0  0  0  0  0  0  0
  187.7700  176.5160  144.4940 C   0  0  0  0  0  0  0  0  0  0  0  0
  183.8960  178.7270  143.6520 C   0  0  0  0  0  3  0  0  0  0  0  0
  189.5390  172.1660  139.2040 O   0  0  0  0  0  0  0  0  0  0  0  0
  190.8300  173.9600  141.1950 C   0  0  1  0  0  3  0  0  0  0  0  0
  184.5750  178.2920  142.5130 C   0  0  0  0  0  3  0  0  0  0  0  0
  189.1560  173.5060  139.3290 C   0  0  0  0  0  2  0  0  0  0  0  0
  191.9330  172.2810  139.6590 C   0  0  1  0  0  3  0  0  0  0  0  0
  188.8310  176.2960  146.7230 C   0  0  0  0  0  2  0  0  0  0  0  0
  188.8410  176.1300  145.2220 C   0  0  0  0  0  0  0  0  0  0  0  0
  186.6170  177.1880  145.1440 C   0  0  0  0  0  3  0  0  0  0  0  0
  188.4840  174.8760  141.2510 C   0  0  0  0  0  2  0  0  0  0  0  0
  186.6830  177.0960  140.8090 C   0  0  0  0  0  1  0  0  0  0  0  0
  184.1610  178.6270  146.1280 C   0  0  0  0  0  1  0  0  0  0  0  0
  187.7240  176.3290  143.0500 N   0  0  0  0  0  0  0  0  0  0  0  0
  185.6570  177.6760  144.3590 C   0  0  0  0  0  0  0  0  0  0  0  0
  192.6970  171.0430  139.6380 N   0  0  0  0  0  2  0  0  0  0  0  0
  194.1160  171.0330  139.4780 C   0  0  0  0  0  0  0  0  0  0  0  0
  194.7520  172.1090  139.3210 O   0  0  0  0  0  0  0  0  0  0  0  0
  194.8510  169.7420  139.4940 C   0  0  0  0  0  1  0  0  0  0  0  0
  1 16  1  0  0  0  0
  1 20  1  0  0  0  0
  2 27  1  0  0  0  0
  2 12  2  0  0  0  0
  3  4  1  0  0  0  0
  5  6  2  0  0  0  0
  5 27  1  0  0  0  0
  6 28  1  0  0  0  0
  7 19  1  6  0  0  0
  7 17  1  0  0  0  0
  7 24  1  0  0  0  0
  8 12  1  0  0  0  0
  9 26  1  0  0  0  0
 11  3  1  0  0  0  0
 12 13  1  0  0  0  0
 13 22  1  0  0  0  0
 13 11  1  0  0  0  0
 14 23  1  0  0  0  0
 14 22  2  0  0  0  0
 15  9  1  0  0  0  0
 16 19  1  0  0  0  0
 17 10  1  1  0  0  0
 17  8  1  0  0  0  0
 18  6  1  0  0  0  0
 18 15  2  0  0  0  0
 20 29  1  1  0  0  0
 20 10  1  0  0  0  0
 21  4  1  0  0  0  0
 22 21  1  0  0  0  0
 24  2  1  0  0  0  0
 25  5  1  0  0  0  0
 27 14  1  0  0  0  0
 28  9  1  0  0  0  0
 28 23  2  0  0  0  0
 30 32  1  0  0  0  0
 30 29  1  0  0  0  0
 31 30  2  0  0  0  0
M  END
>  <MODEL>
4

>  <REMARK>
 VINA RESULT:      -8.2      1.201      1.271
  Name = 
  1 active torsions:
  status: ('A' for Active; 'I' for Inactive)
    1  A    between atoms: C_20  and  N_29
                            x       y       z     vdW  Elec       q    Type
                         _______ _______ _______ _____ _____    ______ ____

>  <TORSDO>
F 1

$$$$
=
 OpenBabel11112416363D

 32 37  0  0  1  0  0  0  0  0999 V2000
  185.3490  178.7690  144.3230 C   0  0  0  0  0  2  0  0  0  0  0  0
  189.5240  175.4570  143.2250 C   0  0  0  0  0  0  0  0  0  0  0  0
  188.8240  172.5410  139.2430 C   0  0  0  0  0  2  0  0  0  0  0  0
  190.2730  172.1000  139.3550 C   0  0  0  0  0  2  0  0  0  0  0  0
  191.7460  175.1930  144.4630 C   0  0  0  0  0  0  0  0  0  0  0  0
  192.7690  174.3720  144.7450 C   0  0  0  0  0  0  0  0  0  0  0  0
  187.7180  176.9070  143.9030 N   0  0  2  0  0  0  0  0  0  0  0  0
  187.6780  175.8580  141.6770 C   0  0  0  0  0  2  0  0  0  0  0  0
  194.0580  172.5700  144.6090 N   0  0  0  0  0  0  0  0  0  0  0  0
  185.6540  176.9570  142.5220 C   0  0  0  0  0  2  0  0  0  0  0  0
  188.7000  173.9610  139.7840 C   0  0  0  0  0  2  0  0  0  0  0  0
  188.7840  175.1650  141.9840 C   0  0  0  0  0  0  0  0  0  0  0  0
  189.2410  174.0890  141.1450 N   0  0  0  0  0  0  0  0  0  0  0  0
  191.0680  173.5800  142.6770 C   0  0  0  0  0  0  0  0  0  0  0  0
  194.5720  173.3810  145.5570 C   0  0  0  0  0  3  0  0  0  0  0  0
  185.8820  177.7340  145.1040 O   0  0  0  0  0  0  0  0  0  0  0  0
  187.1790  176.9900  142.5320 C   0  0  1  0  0  3  0  0  0  0  0  0
  193.7890  174.5300  145.6740 C   0  0  0  0  0  3  0  0  0  0  0  0
  187.2670  177.8370  144.9330 C   0  0  0  0  0  2  0  0  0  0  0  0
  185.0550  178.3180  142.8840 C   0  0  1  0  0  3  0  0  0  0  0  0
  190.6540  171.9890  140.8230 C   0  0  0  0  0  2  0  0  0  0  0  0
  190.3520  173.2630  141.5760 C   0  0  0  0  0  0  0  0  0  0  0  0
  192.2110  172.7360  143.1050 C   0  0  0  0  0  3  0  0  0  0  0  0
  188.9720  176.2590  144.1420 C   0  0  0  0  0  2  0  0  0  0  0  0
  191.6780  176.5350  145.1250 C   0  0  0  0  0  1  0  0  0  0  0  0
  194.6150  171.2890  144.2030 C   0  0  0  0  0  1  0  0  0  0  0  0
  190.7760  174.7760  143.4560 N   0  0  0  0  0  0  0  0  0  0  0  0
  192.9690  173.1750  144.1090 C   0  0  0  0  0  0  0  0  0  0  0  0
  183.6180  178.3020  142.6600 N   0  0  0  0  0  2  0  0  0  0  0  0
  183.0570  178.3210  141.3460 C   0  0  0  0  0  0  0  0  0  0  0  0
  183.8010  178.3800  140.3310 O   0  0  0  0  0  0  0  0  0  0  0  0
  181.5820  178.2740  141.1720 C   0  0  0  0  0  1  0  0  0  0  0  0
  1 16  1  0  0  0  0
  2 27  1  0  0  0  0
  2 24  1  0  0  0  0
  3  4  1  0  0  0  0
  3 11  1  0  0  0  0
  4 21  1  0  0  0  0
  5  6  2  0  0  0  0
  5 25  1  0  0  0  0
  6 18  1  0  0  0  0
  7 24  1  6  0  0  0
  7 19  1  0  0  0  0
  8 12  1  0  0  0  0
  9 15  1  0  0  0  0
 10 17  1  0  0  0  0
 10 20  1  0  0  0  0
 11 13  1  0  0  0  0
 12  2  2  0  0  0  0
 13 22  1  0  0  0  0
 13 12  1  0  0  0  0
 14 23  1  0  0  0  0
 14 27  1  0  0  0  0
 15 18  2  0  0  0  0
 17  8  1  6  0  0  0
 17  7  1  0  0  0  0
 19 16  1  0  0  0  0
 20 29  1  1  0  0  0
 20  1  1  0  0  0  0
 21 22  1  0  0  0  0
 22 14  2  0  0  0  0
 23 28  2  0  0  0  0
 26  9  1  0  0  0  0
 27  5  1  0  0  0  0
 28  9  1  0  0  0  0
 28  6  1  0  0  0  0
 30 29  1  0  0  0  0
 31 30  2  0  0  0  0
 32 30  1  0  0  0  0
M  END
>  <MODEL>
5

>  <REMARK>
 VINA RESULT:      -8.1      3.078      8.124
  Name = 
  1 active torsions:
  status: ('A' for Active; 'I' for Inactive)
    1  A    between atoms: C_20  and  N_29
                            x       y       z     vdW  Elec       q    Type
                         _______ _______ _______ _____ _____    ______ ____

>  <TORSDO>
F 1

$$$$
=
 OpenBabel11112416363D

 32 37  0  0  1  0  0  0  0  0999 V2000
  185.9720  178.1210  144.8280 C   0  0  0  0  0  2  0  0  0  0  0  0
  189.8080  174.5390  143.3930 C   0  0  0  0  0  0  0  0  0  0  0  0
  188.8770  172.1560  139.1140 C   0  0  0  0  0  2  0  0  0  0  0  0
  190.2720  171.5600  139.1840 C   0  0  0  0  0  2  0  0  0  0  0  0
  191.9720  173.9170  144.6050 C   0  0  0  0  0  0  0  0  0  0  0  0
  192.9020  172.9710  144.8000 C   0  0  0  0  0  0  0  0  0  0  0  0
  188.1470  176.0840  144.2180 N   0  0  2  0  0  0  0  0  0  0  0  0
  188.0350  175.2910  141.8900 C   0  0  0  0  0  2  0  0  0  0  0  0
  194.0050  171.0710  144.4730 N   0  0  0  0  0  0  0  0  0  0  0  0
  186.1200  176.4930  142.8420 C   0  0  0  0  0  2  0  0  0  0  0  0
  188.8890  173.5140  139.8060 C   0  0  0  0  0  2  0  0  0  0  0  0
  189.0600  174.4590  142.1240 C   0  0  0  0  0  0  0  0  0  0  0  0
  189.4200  173.4390  141.1760 N   0  0  0  0  0  0  0  0  0  0  0  0
  191.1620  172.5840  142.6510 C   0  0  0  0  0  0  0  0  0  0  0  0
  194.5830  171.7190  145.5060 C   0  0  0  0  0  3  0  0  0  0  0  0
  186.3860  176.9600  145.4930 O   0  0  0  0  0  0  0  0  0  0  0  0
  187.6400  176.3690  142.8610 C   0  0  1  0  0  3  0  0  0  0  0  0
  193.9190  172.9230  145.7450 C   0  0  0  0  0  3  0  0  0  0  0  0
  187.7760  176.9380  145.3410 C   0  0  0  0  0  2  0  0  0  0  0  0
  185.6560  177.8610  143.3460 C   0  0  1  0  0  3  0  0  0  0  0  0
  190.6180  171.2530  140.6330 C   0  0  0  0  0  2  0  0  0  0  0  0
  190.4350  172.4620  141.5180 C   0  0  0  0  0  0  0  0  0  0  0  0
  192.2080  171.5860  142.9880 C   0  0  0  0  0  3  0  0  0  0  0  0
  189.3250  175.2890  144.3900 C   0  0  0  0  0  2  0  0  0  0  0  0
  192.0300  175.1800  145.4080 C   0  0  0  0  0  1  0  0  0  0  0  0
  194.4360  169.7920  143.9320 C   0  0  0  0  0  1  0  0  0  0  0  0
  190.9810  173.7130  143.5540 N   0  0  0  0  0  0  0  0  0  0  0  0
  192.9900  171.8350  144.0380 C   0  0  0  0  0  0  0  0  0  0  0  0
  184.2280  178.0160  143.1160 N   0  0  0  0  0  2  0  0  0  0  0  0
  183.6950  178.2670  141.8150 C   0  0  0  0  0  0  0  0  0  0  0  0
  184.4590  178.3890  140.8210 O   0  0  0  0  0  0  0  0  0  0  0  0
  182.2260  178.3880  141.6300 C   0  0  0  0  0  1  0  0  0  0  0  0
  1 16  1  0  0  0  0
  2 27  1  0  0  0  0
  2 24  1  0  0  0  0
  3  4  1  0  0  0  0
  3 11  1  0  0  0  0
  4 21  1  0  0  0  0
  5  6  2  0  0  0  0
  5 25  1  0  0  0  0
  6 18  1  0  0  0  0
  7 24  1  6  0  0  0
  7 19  1  0  0  0  0
  8 12  1  0  0  0  0
  9 15  1  0  0  0  0
 10 17  1  0  0  0  0
 10 20  1  0  0  0  0
 11 13  1  0  0  0  0
 12  2  2  0  0  0  0
 13 22  1  0  0  0  0
 13 12  1  0  0  0  0
 14 23  1  0  0  0  0
 14 27  1  0  0  0  0
 15 18  2  0  0  0  0
 17  8  1  6  0  0  0
 17  7  1  0  0  0  0
 19 16  1  0  0  0  0
 20 29  1  1  0  0  0
 20  1  1  0  0  0  0
 21 22  1  0  0  0  0
 22 14  2  0  0  0  0
 23 28  2  0  0  0  0
 26  9  1  0  0  0  0
 27  5  1  0  0  0  0
 28  9  1  0  0  0  0
 28  6  1  0  0  0  0
 30 29  1  0  0  0  0
 31 30  2  0  0  0  0
 32 30  1  0  0  0  0
M  END
>  <MODEL>
6

>  <REMARK>
 VINA RESULT:      -7.9      3.008      8.337
  Name = 
  1 active torsions:
  status: ('A' for Active; 'I' for Inactive)
    1  A    between atoms: C_20  and  N_29
                            x       y       z     vdW  Elec       q    Type
                         _______ _______ _______ _____ _____    ______ ____

>  <TORSDO>
F 1

$$$$
=
 OpenBabel11112416363D

 32 37  0  0  1  0  0  0  0  0999 V2000
  189.9360  172.3530  136.9730 C   0  0  0  0  0  2  0  0  0  0  0  0
  188.5820  175.1660  141.4300 C   0  0  0  0  0  0  0  0  0  0  0  0
  191.4450  174.2050  145.3970 C   0  0  0  0  0  2  0  0  0  0  0  0
  190.7570  175.3470  146.1250 C   0  0  0  0  0  2  0  0  0  0  0  0
  186.7020  176.8670  141.7570 C   0  0  0  0  0  0  0  0  0  0  0  0
  185.8730  177.4510  142.6360 C   0  0  0  0  0  0  0  0  0  0  0  0
  188.9910  173.9180  139.4050 N   0  0  2  0  0  0  0  0  0  0  0  0
  190.6680  173.9130  141.2070 C   0  0  0  0  0  2  0  0  0  0  0  0
  185.0270  177.9980  144.6140 N   0  0  0  0  0  0  0  0  0  0  0  0
  190.8830  172.3080  139.3650 C   0  0  0  0  0  2  0  0  0  0  0  0
  191.4480  174.5080  143.9040 C   0  0  0  0  0  2  0  0  0  0  0  0
  189.8310  174.6140  141.9870 C   0  0  0  0  0  0  0  0  0  0  0  0
  190.1010  174.7960  143.3880 N   0  0  0  0  0  0  0  0  0  0  0  0
  188.0020  175.9940  143.7070 C   0  0  0  0  0  0  0  0  0  0  0  0
  184.2750  178.5860  143.6600 C   0  0  0  0  0  3  0  0  0  0  0  0
  188.7440  172.3190  137.7090 O   0  0  0  0  0  0  0  0  0  0  0  0
  190.4140  173.7110  139.7400 C   0  0  1  0  0  3  0  0  0  0  0  0
  184.7760  178.2670  142.3970 C   0  0  0  0  0  3  0  0  0  0  0  0
  188.5020  173.6520  138.0570 C   0  0  0  0  0  2  0  0  0  0  0  0
  191.1750  172.1890  137.8680 C   0  0  1  0  0  3  0  0  0  0  0  0
  189.2880  175.3820  145.7350 C   0  0  0  0  0  2  0  0  0  0  0  0
  189.1100  175.4300  144.2360 C   0  0  0  0  0  0  0  0  0  0  0  0
  186.9980  176.6520  144.5800 C   0  0  0  0  0  3  0  0  0  0  0  0
  188.1840  174.7820  140.2120 C   0  0  0  0  0  2  0  0  0  0  0  0
  186.5550  177.1700  140.2980 C   0  0  0  0  0  1  0  0  0  0  0  0
  184.8130  178.1170  146.0480 C   0  0  0  0  0  1  0  0  0  0  0  0
  187.7730  176.0180  142.2680 N   0  0  0  0  0  0  0  0  0  0  0  0
  186.0020  177.3160  143.9940 C   0  0  0  0  0  0  0  0  0  0  0  0
  191.8140  170.9120  137.5880 N   0  0  0  0  0  2  0  0  0  0  0  0
  191.2080  169.6690  137.9440 C   0  0  0  0  0  0  0  0  0  0  0  0
  190.1000  169.6430  138.5420 O   0  0  0  0  0  0  0  0  0  0  0  0
  191.8900  168.3920  137.6080 C   0  0  0  0  0  1  0  0  0  0  0  0
  1 16  1  0  0  0  0
  1 20  1  0  0  0  0
  2 12  2  0  0  0  0
  2 27  1  0  0  0  0
  3  4  1  0  0  0  0
  5 27  1  0  0  0  0
  5  6  2  0  0  0  0
  6 28  1  0  0  0  0
  7 19  1  6  0  0  0
  7 17  1  0  0  0  0
  7 24  1  0  0  0  0
  8 12  1  0  0  0  0
  9 26  1  0  0  0  0
 11  3  1  0  0  0  0
 12 13  1  0  0  0  0
 13 11  1  0  0  0  0
 13 22  1  0  0  0  0
 14 22  2  0  0  0  0
 14 23  1  0  0  0  0
 15  9  1  0  0  0  0
 16 19  1  0  0  0  0
 17 10  1  1  0  0  0
 17  8  1  0  0  0  0
 18  6  1  0  0  0  0
 18 15  2  0  0  0  0
 20 29  1  1  0  0  0
 20 10  1  0  0  0  0
 21  4  1  0  0  0  0
 22 21  1  0  0  0  0
 24  2  1  0  0  0  0
 25  5  1  0  0  0  0
 27 14  1  0  0  0  0
 28 23  2  0  0  0  0
 28  9  1  0  0  0  0
 29 30  1  0  0  0  0
 30 31  2  0  0  0  0
 32 30  1  0  0  0  0
M  END
>  <MODEL>
7

>  <REMARK>
 VINA RESULT:      -7.5      1.486      1.615
  Name = 
  1 active torsions:
  status: ('A' for Active; 'I' for Inactive)
    1  A    between atoms: C_20  and  N_29
                            x       y       z     vdW  Elec       q    Type
                         _______ _______ _______ _____ _____    ______ ____

>  <TORSDO>
F 1

$$$$
=
 OpenBabel11112416363D

 32 37  0  0  1  0  0  0  0  0999 V2000
  187.5050  178.2960  144.2590 C   0  0  0  0  0  2  0  0  0  0  0  0
  191.5570  174.6850  143.8700 C   0  0  0  0  0  0  0  0  0  0  0  0
  190.4420  170.6510  141.1620 C   0  0  0  0  0  2  0  0  0  0  0  0
  191.8980  170.2280  141.2580 C   0  0  0  0  0  2  0  0  0  0  0  0
  193.9030  174.7740  144.8830 C   0  0  0  0  0  0  0  0  0  0  0  0
  194.9560  174.0600  145.3080 C   0  0  0  0  0  0  0  0  0  0  0  0
  189.8270  176.3300  144.2230 N   0  0  2  0  0  0  0  0  0  0  0  0
  189.5480  174.6130  142.4820 C   0  0  0  0  0  2  0  0  0  0  0  0
  196.2350  172.2750  145.6330 N   0  0  0  0  0  0  0  0  0  0  0  0
  187.6230  175.9870  143.1300 C   0  0  0  0  0  2  0  0  0  0  0  0
  190.3690  172.1720  141.2170 C   0  0  0  0  0  2  0  0  0  0  0  0
  190.6860  174.0260  142.8790 C   0  0  0  0  0  0  0  0  0  0  0  0
  191.0560  172.7220  142.3960 N   0  0  0  0  0  0  0  0  0  0  0  0
  193.0430  172.6870  143.8070 C   0  0  0  0  0  0  0  0  0  0  0  0
  196.8440  173.3360  146.2030 C   0  0  0  0  0  3  0  0  0  0  0  0
  188.1280  177.5570  145.2750 O   0  0  0  0  0  0  0  0  0  0  0  0
  189.1390  175.9770  142.9660 C   0  0  1  0  0  3  0  0  0  0  0  0
  196.0710  174.4830  146.0200 C   0  0  0  0  0  3  0  0  0  0  0  0
  189.4850  177.5580  144.9330 C   0  0  0  0  0  2  0  0  0  0  0  0
  187.0580  177.4080  143.0870 C   0  0  1  0  0  3  0  0  0  0  0  0
  192.4390  170.5910  142.6320 C   0  0  0  0  0  2  0  0  0  0  0  0
  192.2130  172.0490  142.9530 C   0  0  0  0  0  0  0  0  0  0  0  0
  194.2330  171.9950  144.3630 C   0  0  0  0  0  3  0  0  0  0  0  0
  191.1030  175.7580  144.5270 C   0  0  0  0  0  2  0  0  0  0  0  0
  193.8990  176.2600  145.0720 C   0  0  0  0  0  1  0  0  0  0  0  0
  196.7530  170.9160  145.6130 C   0  0  0  0  0  1  0  0  0  0  0  0
  192.8310  174.0800  144.1770 N   0  0  0  0  0  0  0  0  0  0  0  0
  195.0930  172.7150  145.0820 C   0  0  0  0  0  0  0  0  0  0  0  0
  185.6050  177.3630  143.0350 N   0  0  0  0  0  2  0  0  0  0  0  0
  184.8640  178.0230  142.0070 C   0  0  0  0  0  0  0  0  0  0  0  0
  185.4550  178.6940  141.1200 O   0  0  0  0  0  0  0  0  0  0  0  0
  183.3820  177.9200  141.9830 C   0  0  0  0  0  1  0  0  0  0  0  0
  1 16  1  0  0  0  0
  2 27  1  0  0  0  0
  2 24  1  0  0  0  0
  3 11  1  0  0  0  0
  3  4  1  0  0  0  0
  4 21  1  0  0  0  0
  5 25  1  0  0  0  0
  5  6  2  0  0  0  0
  6 18  1  0  0  0  0
  7 24  1  6  0  0  0
  7 19  1  0  0  0  0
  8 12  1  0  0  0  0
  9 15  1  0  0  0  0
 11 13  1  0  0  0  0
 12  2  2  0  0  0  0
 13 12  1  0  0  0  0
 13 22  1  0  0  0  0
 14 27  1  0  0  0  0
 14 23  1  0  0  0  0
 17  8  1  1  0  0  0
 17 10  1  0  0  0  0
 17  7  1  0  0  0  0
 18 15  2  0  0  0  0
 19 16  1  0  0  0  0
 20 29  1  1  0  0  0
 20 10  1  0  0  0  0
 20  1  1  0  0  0  0
 21 22  1  0  0  0  0
 22 14  2  0  0  0  0
 23 28  2  0  0  0  0
 26  9  1  0  0  0  0
 27  5  1  0  0  0  0
 28  6  1  0  0  0  0
 28  9  1  0  0  0  0
 30 29  1  0  0  0  0
 31 30  2  0  0  0  0
 32 30  1  0  0  0  0
M  END
>  <MODEL>
8

>  <REMARK>
 VINA RESULT:      -7.3      3.384      8.321
  Name = 
  1 active torsions:
  status: ('A' for Active; 'I' for Inactive)
    1  A    between atoms: C_20  and  N_29
                            x       y       z     vdW  Elec       q    Type
                         _______ _______ _______ _____ _____    ______ ____

>  <TORSDO>
F 1

$$$$
=
 OpenBabel11112416363D

 32 37  0  0  1  0  0  0  0  0999 V2000
  187.8460  177.9590  146.3340 C   0  0  0  0  0  2  0  0  0  0  0  0
  191.8830  174.9000  144.3470 C   0  0  0  0  0  0  0  0  0  0  0  0
  190.7270  172.4720  140.1490 C   0  0  0  0  0  2  0  0  0  0  0  0
  192.1820  172.0540  140.0330 C   0  0  0  0  0  2  0  0  0  0  0  0
  194.2400  174.5380  145.2700 C   0  0  0  0  0  0  0  0  0  0  0  0
  195.2960  173.7120  145.3240 C   0  0  0  0  0  0  0  0  0  0  0  0
  190.1610  176.2160  145.4090 N   0  0  2  0  0  0  0  0  0  0  0  0
  189.8590  175.4440  143.0920 C   0  0  0  0  0  2  0  0  0  0  0  0
  196.5730  171.9690  144.8140 N   0  0  0  0  0  0  0  0  0  0  0  0
  187.9440  176.3860  144.3010 C   0  0  0  0  0  2  0  0  0  0  0  0
  190.6590  173.8130  140.8710 C   0  0  0  0  0  2  0  0  0  0  0  0
  190.9990  174.7430  143.1770 C   0  0  0  0  0  0  0  0  0  0  0  0
  191.3600  173.7870  142.1640 N   0  0  0  0  0  0  0  0  0  0  0  0
  193.3630  173.1380  143.3930 C   0  0  0  0  0  0  0  0  0  0  0  0
  197.1910  172.6710  145.7870 C   0  0  0  0  0  3  0  0  0  0  0  0
  188.4770  176.8500  146.9130 O   0  0  0  0  0  0  0  0  0  0  0  0
  189.4590  176.4520  144.1320 C   0  0  1  0  0  3  0  0  0  0  0  0
  196.4200  173.7800  146.1370 C   0  0  0  0  0  3  0  0  0  0  0  0
  189.8310  177.0030  146.5920 C   0  0  0  0  0  2  0  0  0  0  0  0
  187.3830  177.6790  144.8960 C   0  0  1  0  0  3  0  0  0  0  0  0
  192.7400  171.7740  141.4200 C   0  0  0  0  0  2  0  0  0  0  0  0
  192.5220  172.9400  142.3540 C   0  0  0  0  0  0  0  0  0  0  0  0
  194.5570  172.2740  143.5730 C   0  0  0  0  0  3  0  0  0  0  0  0
  191.4390  175.5710  145.4150 C   0  0  0  0  0  2  0  0  0  0  0  0
  194.2420  175.7880  146.0950 C   0  0  0  0  0  1  0  0  0  0  0  0
  197.0870  170.7600  144.1900 C   0  0  0  0  0  1  0  0  0  0  0  0
  193.1590  174.2240  144.3410 N   0  0  0  0  0  0  0  0  0  0  0  0
  195.4270  172.6050  144.5270 C   0  0  0  0  0  0  0  0  0  0  0  0
  185.9300  177.6580  144.8450 N   0  0  0  0  0  2  0  0  0  0  0  0
  185.1750  178.7580  144.3330 C   0  0  0  0  0  0  0  0  0  0  0  0
  185.7540  179.8020  143.9310 O   0  0  0  0  0  0  0  0  0  0  0  0
  183.6930  178.6730  144.2760 C   0  0  0  0  0  1  0  0  0  0  0  0
  1 16  1  0  0  0  0
  2 24  1  0  0  0  0
  3 11  1  0  0  0  0
  4  3  1  0  0  0  0
  4 21  1  0  0  0  0
  5  6  2  0  0  0  0
  5 25  1  0  0  0  0
  6 18  1  0  0  0  0
  7 24  1  6  0  0  0
  7 19  1  0  0  0  0
  8 12  1  0  0  0  0
  9 15  1  0  0  0  0
 10 20  1  0  0  0  0
 11 13  1  0  0  0  0
 12  2  2  0  0  0  0
 13 22  1  0  0  0  0
 13 12  1  0  0  0  0
 14 23  1  0  0  0  0
 14 27  1  0  0  0  0
 15 18  2  0  0  0  0
 17  8  1  6  0  0  0
 17 10  1  0  0  0  0
 17  7  1  0  0  0  0
 19 16  1  0  0  0  0
 20 29  1  1  0  0  0
 20  1  1  0  0  0  0
 21 22  1  0  0  0  0
 22 14  2  0  0  0  0
 23 28  2  0  0  0  0
 26  9  1  0  0  0  0
 27  2  1  0  0  0  0
 27  5  1  0  0  0  0
 28  9  1  0  0  0  0
 28  6  1  0  0  0  0
 30 29  1  0  0  0  0
 31 30  2  0  0  0  0
 32 30  1  0  0  0  0
M  END
>  <MODEL>
9

>  <REMARK>
 VINA RESULT:      -7.2      3.586      8.915
  Name = 
  1 active torsions:
  status: ('A' for Active; 'I' for Inactive)
    1  A    between atoms: C_20  and  N_29
                            x       y       z     vdW  Elec       q    Type
                         _______ _______ _______ _____ _____    ______ ____

>  <TORSDO>
F 1

$$$$
