=
 OpenBabel11112416253D

 30 35  0  0  1  0  0  0  0  0999 V2000
  187.8140  177.0690  145.2410 C   0  0  1  0  0  3  0  0  0  0  0  0
  185.4110  177.6650  145.8980 C   0  0  0  0  0  0  0  0  0  0  0  0
  186.7140  177.9500  141.5870 N   0  0  0  0  0  2  0  0  0  0  0  0
  188.9820  177.7130  144.4770 C   0  0  1  0  0  3  0  0  0  0  0  0
  188.1880  177.0810  146.7270 C   0  0  0  0  0  2  0  0  0  0  0  0
  191.7160  176.5290  146.5350 O   0  0  0  0  0  0  0  0  0  0  0  0
  190.4550  175.1950  143.1230 C   0  0  1  0  0  3  0  0  0  0  0  0
  190.5360  176.6080  146.1030 C   0  0  0  0  0  0  0  0  0  0  0  0
  188.9930  175.3460  142.6900 C   0  0  2  0  0  3  0  0  0  0  0  0
  187.4980  176.8340  141.2290 C   0  0  0  0  0  0  0  0  0  0  0  0
  189.4130  176.2180  147.0070 C   0  0  2  0  0  3  0  0  0  0  0  0
  190.2670  177.0280  144.7470 N   0  0  0  0  0  0  0  0  0  0  0  0
  184.2480  178.4150  145.7140 C   0  0  0  0  0  3  0  0  0  0  0  0
  188.7920  174.1880  141.7240 C   0  0  0  0  0  2  0  0  0  0  0  0
  191.1810  174.6490  141.9100 C   0  0  0  0  0  2  0  0  0  0  0  0
  185.4560  176.7740  146.9640 O   0  0  0  0  0  1  0  0  0  0  0  0
  187.3170  178.6360  142.7160 C   0  0  2  0  0  3  0  0  0  0  0  0
  184.1290  179.2780  144.6280 C   0  0  0  0  0  3  0  0  0  0  0  0
  186.5080  177.8120  145.0100 C   0  0  0  0  0  0  0  0  0  0  0  0
  188.6660  177.9240  142.9760 C   0  0  2  0  0  3  0  0  0  0  0  0
  187.1900  176.0860  140.2650 O   0  0  0  0  0  0  0  0  0  0  0  0
  188.7570  176.7160  142.0060 C   0  0  1  0  0  3  0  0  0  0  0  0
  190.1540  173.8420  141.1420 C   0  0  0  0  0  2  0  0  0  0  0  0
  192.5550  176.4090  143.9190 C   0  0  0  0  0  1  0  0  0  0  0  0
  185.1620  179.3660  143.7000 C   0  0  0  0  0  3  0  0  0  0  0  0
  186.3380  178.6220  143.8610 C   0  0  0  0  0  0  0  0  0  0  0  0
  191.0620  176.5090  143.6240 C   0  0  1  0  0  3  0  0  0  0  0  0
  189.0990  174.7380  146.8330 C   0  0  0  0  0  2  0  0  0  0  0  0
  189.8000  172.9590  145.4370 F   0  0  0  0  0  0  0  0  0  0  0  0
  190.2700  174.0190  146.1890 C   0  0  0  0  0  2  0  0  0  0  0  0
  1  5  1  1  0  0  0
  2 16  1  0  0  0  0
  4 12  1  6  0  0  0
  4  1  1  0  0  0  0
  5 11  1  0  0  0  0
  7 15  1  6  0  0  0
  7 27  1  0  0  0  0
  8  6  2  0  0  0  0
  8 11  1  0  0  0  0
  9 14  1  6  0  0  0
  9  7  1  0  0  0  0
 10  3  1  0  0  0  0
 10 22  1  0  0  0  0
 11 28  1  6  0  0  0
 12  8  1  0  0  0  0
 13  2  1  0  0  0  0
 17  3  1  6  0  0  0
 17 20  1  0  0  0  0
 17 26  1  0  0  0  0
 18 13  2  0  0  0  0
 19  1  1  0  0  0  0
 19  2  2  0  0  0  0
 20  4  1  0  0  0  0
 21 10  2  0  0  0  0
 22  9  1  0  0  0  0
 22 20  1  0  0  0  0
 23 14  1  0  0  0  0
 23 15  1  0  0  0  0
 25 26  2  0  0  0  0
 25 18  1  0  0  0  0
 26 19  1  0  0  0  0
 27 24  1  0  0  0  0
 27 12  1  0  0  0  0
 29 30  1  0  0  0  0
 30 28  1  0  0  0  0
M  END
>  <MODEL>
1

>  <REMARK>
 VINA RESULT:      -9.2      0.000      0.000
  Name = 
  2 active torsions:
  status: ('A' for Active; 'I' for Inactive)
    1  A    between atoms: C_11  and  C_28
    2  A    between atoms: C_28  and  C_30
                            x       y       z     vdW  Elec       q    Type
                         _______ _______ _______ _____ _____    ______ ____

>  <TORSDO>
F 2

$$$$
=
 OpenBabel11112416253D

 30 35  0  0  1  0  0  0  0  0999 V2000
  187.5560  176.9550  144.3340 C   0  0  1  0  0  3  0  0  0  0  0  0
  185.1380  177.6880  143.9120 C   0  0  0  0  0  0  0  0  0  0  0  0
  187.6210  176.0290  140.5290 N   0  0  0  0  0  2  0  0  0  0  0  0
  188.9510  177.2260  143.7460 C   0  0  1  0  0  3  0  0  0  0  0  0
  187.4970  177.6580  145.6940 C   0  0  0  0  0  2  0  0  0  0  0  0
  190.8630  177.2220  146.8210 O   0  0  0  0  0  0  0  0  0  0  0  0
  190.4830  174.4300  144.1620 C   0  0  1  0  0  3  0  0  0  0  0  0
  189.8660  177.0480  146.0720 C   0  0  0  0  0  0  0  0  0  0  0  0
  189.2250  174.3080  143.2960 C   0  0  2  0  0  3  0  0  0  0  0  0
  188.3580  174.9050  140.9560 C   0  0  0  0  0  0  0  0  0  0  0  0
  188.5010  177.0670  146.6780 C   0  0  2  0  0  3  0  0  0  0  0  0
  190.0320  176.7930  144.6600 N   0  0  0  0  0  0  0  0  0  0  0  0
  184.1550  178.2240  143.0790 C   0  0  0  0  0  3  0  0  0  0  0  0
  189.1870  172.8300  142.9370 C   0  0  0  0  0  2  0  0  0  0  0  0
  191.4620  173.4210  143.5950 C   0  0  0  0  0  2  0  0  0  0  0  0
  184.7920  177.3830  145.2240 O   0  0  0  0  0  1  0  0  0  0  0  0
  187.9490  177.1780  141.3540 C   0  0  2  0  0  3  0  0  0  0  0  0
  184.4340  178.4920  141.7410 C   0  0  0  0  0  3  0  0  0  0  0  0
  186.4490  177.4580  143.4210 C   0  0  0  0  0  0  0  0  0  0  0  0
  189.0920  176.7180  142.2910 C   0  0  2  0  0  3  0  0  0  0  0  0
  188.2590  173.7880  140.3840 O   0  0  0  0  0  0  0  0  0  0  0  0
  189.3290  175.2050  142.0370 C   0  0  1  0  0  3  0  0  0  0  0  0
  190.6160  172.3120  143.0030 C   0  0  0  0  0  2  0  0  0  0  0  0
  192.3870  175.9570  144.9120 C   0  0  0  0  0  1  0  0  0  0  0  0
  185.6890  178.1890  141.2230 C   0  0  0  0  0  3  0  0  0  0  0  0
  186.6920  177.6480  142.0390 C   0  0  0  0  0  0  0  0  0  0  0  0
  191.0540  175.8510  144.1780 C   0  0  1  0  0  3  0  0  0  0  0  0
  188.1010  175.6600  147.0990 C   0  0  0  0  0  2  0  0  0  0  0  0
  189.2270  173.5930  146.8410 F   0  0  0  0  0  0  0  0  0  0  0  0
  189.3310  174.8370  147.4340 C   0  0  0  0  0  2  0  0  0  0  0  0
  1  5  1  1  0  0  0
  2 16  1  0  0  0  0
  3 10  1  0  0  0  0
  4  1  1  0  0  0  0
  4 12  1  1  0  0  0
  5 11  1  0  0  0  0
  7 15  1  6  0  0  0
  7 27  1  0  0  0  0
  8 11  1  0  0  0  0
  8  6  2  0  0  0  0
  9 14  1  6  0  0  0
  9  7  1  0  0  0  0
 10 22  1  0  0  0  0
 11 28  1  6  0  0  0
 12  8  1  0  0  0  0
 13  2  2  0  0  0  0
 14 23  1  0  0  0  0
 17  3  1  6  0  0  0
 17 26  1  0  0  0  0
 17 20  1  0  0  0  0
 18 13  1  0  0  0  0
 19  2  1  0  0  0  0
 19  1  1  0  0  0  0
 20  4  1  0  0  0  0
 21 10  2  0  0  0  0
 22 20  1  0  0  0  0
 22  9  1  0  0  0  0
 23 15  1  0  0  0  0
 25 18  2  0  0  0  0
 25 26  1  0  0  0  0
 26 19  2  0  0  0  0
 27 12  1  0  0  0  0
 27 24  1  0  0  0  0
 28 30  1  0  0  0  0
 29 30  1  0  0  0  0
M  END
>  <MODEL>
2

>  <REMARK>
 VINA RESULT:      -8.9      1.477      1.812
  Name = 
  2 active torsions:
  status: ('A' for Active; 'I' for Inactive)
    1  A    between atoms: C_11  and  C_28
    2  A    between atoms: C_28  and  C_30
                            x       y       z     vdW  Elec       q    Type
                         _______ _______ _______ _____ _____    ______ ____

>  <TORSDO>
F 2

$$$$
=
 OpenBabel11112416253D

 30 35  0  0  1  0  0  0  0  0999 V2000
  189.2520  176.8550  145.3920 C   0  0  1  0  0  3  0  0  0  0  0  0
  186.9360  177.8080  145.9240 C   0  0  0  0  0  0  0  0  0  0  0  0
  187.8910  176.3850  141.7500 N   0  0  0  0  0  2  0  0  0  0  0  0
  190.3780  177.0910  144.3710 C   0  0  1  0  0  3  0  0  0  0  0  0
  189.7470  177.3940  146.7380 C   0  0  0  0  0  2  0  0  0  0  0  0
  193.2250  176.5810  146.5490 O   0  0  0  0  0  0  0  0  0  0  0  0
  191.6400  174.1610  143.9730 C   0  0  1  0  0  3  0  0  0  0  0  0
  192.0170  176.5710  146.1930 C   0  0  0  0  0  0  0  0  0  0  0  0
  190.1540  174.2350  143.6060 C   0  0  2  0  0  3  0  0  0  0  0  0
  188.6010  175.1680  141.7890 C   0  0  0  0  0  0  0  0  0  0  0  0
  190.9580  176.6180  147.2460 C   0  0  2  0  0  3  0  0  0  0  0  0
  191.6540  176.4740  144.7980 N   0  0  0  0  0  0  0  0  0  0  0  0
  185.7900  178.5100  145.5450 C   0  0  0  0  0  3  0  0  0  0  0  0
  189.8310  172.8160  143.1590 C   0  0  0  0  0  2  0  0  0  0  0  0
  192.2440  173.1570  143.0100 C   0  0  0  0  0  2  0  0  0  0  0  0
  187.0340  177.3750  147.2420 O   0  0  0  0  0  1  0  0  0  0  0  0
  188.6100  177.4010  142.4990 C   0  0  2  0  0  3  0  0  0  0  0  0
  185.6150  178.9140  144.2240 C   0  0  0  0  0  3  0  0  0  0  0  0
  187.9610  177.5430  144.9800 C   0  0  0  0  0  0  0  0  0  0  0  0
  189.9480  176.7500  142.9230 C   0  0  2  0  0  3  0  0  0  0  0  0
  188.1870  174.1370  141.1960 O   0  0  0  0  0  0  0  0  0  0  0  0
  189.9140  175.2650  142.4730 C   0  0  1  0  0  3  0  0  0  0  0  0
  191.1270  172.1910  142.6670 C   0  0  0  0  0  2  0  0  0  0  0  0
  193.8420  175.4440  144.1230 C   0  0  0  0  0  1  0  0  0  0  0  0
  186.5720  178.5830  143.2680 C   0  0  0  0  0  3  0  0  0  0  0  0
  187.7280  177.8770  143.6240 C   0  0  0  0  0  0  0  0  0  0  0  0
  192.3350  175.5240  143.9050 C   0  0  1  0  0  3  0  0  0  0  0  0
  190.5760  175.2040  147.6590 C   0  0  0  0  0  2  0  0  0  0  0  0
  189.1090  173.6670  146.6140 F   0  0  0  0  0  0  0  0  0  0  0  0
  189.1490  174.8960  147.2450 C   0  0  0  0  0  2  0  0  0  0  0  0
  1  5  1  1  0  0  0
  2 16  1  0  0  0  0
  3 10  1  0  0  0  0
  4 12  1  1  0  0  0
  4  1  1  0  0  0  0
  5 11  1  0  0  0  0
  7 15  1  6  0  0  0
  8  6  2  0  0  0  0
  8 11  1  0  0  0  0
  9 14  1  6  0  0  0
  9  7  1  0  0  0  0
 10 22  1  0  0  0  0
 11 28  1  6  0  0  0
 12  8  1  0  0  0  0
 13  2  1  0  0  0  0
 17  3  1  1  0  0  0
 17 20  1  0  0  0  0
 17 26  1  0  0  0  0
 18 13  2  0  0  0  0
 19  1  1  0  0  0  0
 19  2  2  0  0  0  0
 20  4  1  0  0  0  0
 21 10  2  0  0  0  0
 22 20  1  0  0  0  0
 22  9  1  0  0  0  0
 23 15  1  0  0  0  0
 23 14  1  0  0  0  0
 25 26  2  0  0  0  0
 25 18  1  0  0  0  0
 26 19  1  0  0  0  0
 27  7  1  0  0  0  0
 27 24  1  0  0  0  0
 27 12  1  0  0  0  0
 29 30  1  0  0  0  0
 30 28  1  0  0  0  0
M  END
>  <MODEL>
3

>  <REMARK>
 VINA RESULT:      -8.8      1.447      1.769
  Name = 
  2 active torsions:
  status: ('A' for Active; 'I' for Inactive)
    1  A    between atoms: C_11  and  C_28
    2  A    between atoms: C_28  and  C_30
                            x       y       z     vdW  Elec       q    Type
                         _______ _______ _______ _____ _____    ______ ____

>  <TORSDO>
F 2

$$$$
=
 OpenBabel11112416253D

 30 35  0  0  1  0  0  0  0  0999 V2000
  189.7980  176.3540  144.7140 C   0  0  1  0  0  3  0  0  0  0  0  0
  187.7890  177.4890  145.8250 C   0  0  0  0  0  0  0  0  0  0  0  0
  187.2470  175.1870  141.9810 N   0  0  0  0  0  2  0  0  0  0  0  0
  190.4760  176.3270  143.3340 C   0  0  1  0  0  3  0  0  0  0  0  0
  190.7200  177.1430  145.6500 C   0  0  0  0  0  2  0  0  0  0  0  0
  193.9300  176.1720  144.4090 O   0  0  0  0  0  0  0  0  0  0  0  0
  191.6240  173.3310  143.1350 C   0  0  1  0  0  3  0  0  0  0  0  0
  192.6760  176.1350  144.5170 C   0  0  0  0  0  0  0  0  0  0  0  0
  190.1040  173.3850  143.3150 C   0  0  2  0  0  3  0  0  0  0  0  0
  187.9710  173.9780  142.0190 C   0  0  0  0  0  0  0  0  0  0  0  0
  192.0600  176.4440  145.8430 C   0  0  2  0  0  3  0  0  0  0  0  0
  191.8430  175.7630  143.3970 N   0  0  0  0  0  0  0  0  0  0  0  0
  186.5570  178.1410  145.7410 C   0  0  0  0  0  3  0  0  0  0  0  0
  189.6980  171.9180  143.3210 C   0  0  0  0  0  2  0  0  0  0  0  0
  191.8840  172.1240  142.2540 C   0  0  0  0  0  2  0  0  0  0  0  0
  188.3670  177.3380  147.0800 O   0  0  0  0  0  1  0  0  0  0  0  0
  188.1460  176.3080  142.1950 C   0  0  2  0  0  3  0  0  0  0  0  0
  185.9070  178.2660  144.5160 C   0  0  0  0  0  3  0  0  0  0  0  0
  188.4190  176.9910  144.6560 C   0  0  0  0  0  0  0  0  0  0  0  0
  189.5710  175.7080  142.2400 C   0  0  2  0  0  3  0  0  0  0  0  0
  187.4130  172.8630  141.8430 O   0  0  0  0  0  0  0  0  0  0  0  0
  189.4360  174.1640  142.1540 C   0  0  1  0  0  3  0  0  0  0  0  0
  190.7570  171.1540  142.5410 C   0  0  0  0  0  2  0  0  0  0  0  0
  193.6840  174.5280  142.2180 C   0  0  0  0  0  1  0  0  0  0  0  0
  186.4720  177.7050  143.3740 C   0  0  0  0  0  3  0  0  0  0  0  0
  187.7060  177.0440  143.4330 C   0  0  0  0  0  0  0  0  0  0  0  0
  192.1970  174.6210  142.5410 C   0  0  1  0  0  3  0  0  0  0  0  0
  191.9060  175.1630  146.6520 C   0  0  0  0  0  2  0  0  0  0  0  0
  189.9560  174.8090  147.9470 F   0  0  0  0  0  0  0  0  0  0  0  0
  191.1840  175.4430  147.9570 C   0  0  0  0  0  2  0  0  0  0  0  0
  1  5  1  1  0  0  0
  2 16  1  0  0  0  0
  3 10  1  0  0  0  0
  4 12  1  1  0  0  0
  4  1  1  0  0  0  0
  5 11  1  0  0  0  0
  6  8  2  0  0  0  0
  7 15  1  6  0  0  0
  7  9  1  0  0  0  0
  8 11  1  0  0  0  0
  9 14  1  6  0  0  0
 10 22  1  0  0  0  0
 11 28  1  6  0  0  0
 12  8  1  0  0  0  0
 13  2  1  0  0  0  0
 15 23  1  0  0  0  0
 17  3  1  1  0  0  0
 17 20  1  0  0  0  0
 17 26  1  0  0  0  0
 18 13  2  0  0  0  0
 19  1  1  0  0  0  0
 19  2  2  0  0  0  0
 20  4  1  0  0  0  0
 21 10  2  0  0  0  0
 22 20  1  0  0  0  0
 22  9  1  0  0  0  0
 23 14  1  0  0  0  0
 24 27  1  0  0  0  0
 25 26  2  0  0  0  0
 25 18  1  0  0  0  0
 26 19  1  0  0  0  0
 27  7  1  0  0  0  0
 27 12  1  0  0  0  0
 28 30  1  0  0  0  0
 29 30  1  0  0  0  0
M  END
>  <MODEL>
4

>  <REMARK>
 VINA RESULT:      -8.5      1.985      2.641
  Name = 
  2 active torsions:
  status: ('A' for Active; 'I' for Inactive)
    1  A    between atoms: C_11  and  C_28
    2  A    between atoms: C_28  and  C_30
                            x       y       z     vdW  Elec       q    Type
                         _______ _______ _______ _____ _____    ______ ____

>  <TORSDO>
F 2

$$$$
=
 OpenBabel11112416253D

 30 35  0  0  1  0  0  0  0  0999 V2000
  190.1530  175.3170  142.7700 C   0  0  1  0  0  3  0  0  0  0  0  0
  192.1950  173.7770  142.6410 C   0  0  0  0  0  0  0  0  0  0  0  0
  191.9390  176.9310  145.8590 N   0  0  0  0  0  2  0  0  0  0  0  0
  189.8610  176.8260  142.8210 C   0  0  1  0  0  3  0  0  0  0  0  0
  189.7370  174.8270  141.3790 C   0  0  0  0  0  2  0  0  0  0  0  0
  186.8810  176.8910  140.7650 O   0  0  0  0  0  0  0  0  0  0  0  0
  187.2050  177.0030  144.6250 C   0  0  1  0  0  3  0  0  0  0  0  0
  187.8160  176.3870  141.4420 C   0  0  0  0  0  0  0  0  0  0  0  0
  188.3890  176.3580  145.3530 C   0  0  2  0  0  3  0  0  0  0  0  0
  190.6430  176.9740  146.4120 C   0  0  0  0  0  0  0  0  0  0  0  0
  188.2380  174.9830  141.1500 C   0  0  2  0  0  3  0  0  0  0  0  0
  188.4460  177.1290  142.5090 N   0  0  0  0  0  0  0  0  0  0  0  0
  193.5610  173.5460  142.8170 C   0  0  0  0  0  3  0  0  0  0  0  0
  187.8240  176.0410  146.7300 C   0  0  0  0  0  2  0  0  0  0  0  0
  186.4400  177.7620  145.6910 C   0  0  0  0  0  2  0  0  0  0  0  0
  191.4240  172.7610  142.0870 O   0  0  0  0  0  1  0  0  0  0  0  0
  191.8730  177.1550  144.4250 C   0  0  2  0  0  3  0  0  0  0  0  0
  194.3660  174.5080  143.4220 C   0  0  0  0  0  3  0  0  0  0  0  0
  191.6190  175.0140  143.0290 C   0  0  0  0  0  0  0  0  0  0  0  0
  190.3940  177.4900  144.1140 C   0  0  2  0  0  3  0  0  0  0  0  0
  190.4410  176.8230  147.6450 O   0  0  0  0  0  0  0  0  0  0  0  0
  189.5890  177.3350  145.4330 C   0  0  1  0  0  3  0  0  0  0  0  0
  186.6830  177.0130  146.9850 C   0  0  0  0  0  2  0  0  0  0  0  0
  186.4870  178.6680  142.8270 C   0  0  0  0  0  1  0  0  0  0  0  0
  193.7980  175.6900  143.8880 C   0  0  0  0  0  3  0  0  0  0  0  0
  192.4300  175.9430  143.7260 C   0  0  0  0  0  0  0  0  0  0  0  0
  187.6420  177.9040  143.4660 C   0  0  1  0  0  3  0  0  0  0  0  0
  187.4420  174.0140  142.0130 C   0  0  0  0  0  2  0  0  0  0  0  0
  188.5030  172.1480  143.0110 F   0  0  0  0  0  0  0  0  0  0  0  0
  187.9500  172.5970  141.8260 C   0  0  0  0  0  2  0  0  0  0  0  0
  1  5  1  6  0  0  0
  1  4  1  0  0  0  0
  1 19  1  0  0  0  0
  2 13  2  0  0  0  0
  2 19  1  0  0  0  0
  3 10  1  0  0  0  0
  4 12  1  1  0  0  0
  4 20  1  0  0  0  0
  6  8  2  0  0  0  0
  7  9  1  0  0  0  0
  7 15  1  1  0  0  0
  8 12  1  0  0  0  0
  9 22  1  0  0  0  0
  9 14  1  1  0  0  0
 10 21  2  0  0  0  0
 11  5  1  0  0  0  0
 11  8  1  0  0  0  0
 11 28  1  1  0  0  0
 12 27  1  0  0  0  0
 13 18  1  0  0  0  0
 14 23  1  0  0  0  0
 15 23  1  0  0  0  0
 16  2  1  0  0  0  0
 17 26  1  6  0  0  0
 17  3  1  0  0  0  0
 18 25  2  0  0  0  0
 19 26  2  0  0  0  0
 20 17  1  0  0  0  0
 20 22  1  0  0  0  0
 22 10  1  0  0  0  0
 24 27  1  0  0  0  0
 26 25  1  0  0  0  0
 27  7  1  0  0  0  0
 30 28  1  0  0  0  0
 30 29  1  0  0  0  0
M  END
>  <MODEL>
5

>  <REMARK>
 VINA RESULT:      -8.5      1.791      6.374
  Name = 
  2 active torsions:
  status: ('A' for Active; 'I' for Inactive)
    1  A    between atoms: C_11  and  C_28
    2  A    between atoms: C_28  and  C_30
                            x       y       z     vdW  Elec       q    Type
                         _______ _______ _______ _____ _____    ______ ____

>  <TORSDO>
F 2

$$$$
=
 OpenBabel11112416253D

 30 35  0  0  1  0  0  0  0  0999 V2000
  191.2960  174.3110  143.7990 C   0  0  1  0  0  3  0  0  0  0  0  0
  193.2060  172.6960  144.3490 C   0  0  0  0  0  0  0  0  0  0  0  0
  192.6140  176.4250  146.8200 N   0  0  0  0  0  2  0  0  0  0  0  0
  191.1140  175.8110  143.5150 C   0  0  1  0  0  3  0  0  0  0  0  0
  191.1010  173.5760  142.4680 C   0  0  0  0  0  2  0  0  0  0  0  0
  188.5670  175.5910  140.9510 O   0  0  0  0  0  0  0  0  0  0  0  0
  188.1980  176.4410  144.7130 C   0  0  1  0  0  3  0  0  0  0  0  0
  189.3230  175.1930  141.8750 C   0  0  0  0  0  0  0  0  0  0  0  0
  189.1800  175.9050  145.7600 C   0  0  2  0  0  3  0  0  0  0  0  0
  191.2470  176.6270  147.0980 C   0  0  0  0  0  0  0  0  0  0  0  0
  189.6840  173.7440  141.9330 C   0  0  2  0  0  3  0  0  0  0  0  0
  189.8050  176.1040  142.8870 N   0  0  0  0  0  0  0  0  0  0  0  0
  194.4970  172.4510  144.8210 C   0  0  0  0  0  3  0  0  0  0  0  0
  188.3540  175.8860  147.0380 C   0  0  0  0  0  2  0  0  0  0  0  0
  187.3140  177.4250  145.4550 C   0  0  0  0  0  2  0  0  0  0  0  0
  192.4730  171.6230  143.8540 O   0  0  0  0  0  1  0  0  0  0  0  0
  192.8240  176.3680  145.3840 C   0  0  2  0  0  3  0  0  0  0  0  0
  195.2500  173.4790  145.3810 C   0  0  0  0  0  3  0  0  0  0  0  0
  192.6650  174.0070  144.3850 C   0  0  0  0  0  0  0  0  0  0  0  0
  191.4550  176.6940  144.7410 C   0  0  2  0  0  3  0  0  0  0  0  0
  190.8150  176.7270  148.2760 O   0  0  0  0  0  0  0  0  0  0  0  0
  190.4160  176.8310  145.8860 C   0  0  1  0  0  3  0  0  0  0  0  0
  187.2630  176.9340  146.8880 C   0  0  0  0  0  2  0  0  0  0  0  0
  187.9430  177.7510  142.5360 C   0  0  0  0  0  1  0  0  0  0  0  0
  194.6990  174.7510  145.5040 C   0  0  0  0  0  3  0  0  0  0  0  0
  193.4050  175.0210  145.0400 C   0  0  0  0  0  0  0  0  0  0  0  0
  188.9030  177.0810  143.5140 C   0  0  1  0  0  3  0  0  0  0  0  0
  188.6750  172.9940  142.7910 C   0  0  0  0  0  2  0  0  0  0  0  0
  189.3160  171.9050  144.7940 F   0  0  0  0  0  0  0  0  0  0  0  0
  189.3160  171.7700  143.4180 C   0  0  0  0  0  2  0  0  0  0  0  0
  1  5  1  6  0  0  0
  1 19  1  0  0  0  0
  2 19  2  0  0  0  0
  2 13  1  0  0  0  0
  3 10  1  0  0  0  0
  4 12  1  1  0  0  0
  4  1  1  0  0  0  0
  4 20  1  0  0  0  0
  6  8  2  0  0  0  0
  7 15  1  1  0  0  0
  7  9  1  0  0  0  0
  8 11  1  0  0  0  0
  8 12  1  0  0  0  0
  9 22  1  0  0  0  0
  9 14  1  1  0  0  0
 10 21  2  0  0  0  0
 11  5  1  0  0  0  0
 11 28  1  1  0  0  0
 12 27  1  0  0  0  0
 13 18  2  0  0  0  0
 15 23  1  0  0  0  0
 16  2  1  0  0  0  0
 17 26  1  1  0  0  0
 17  3  1  0  0  0  0
 18 25  1  0  0  0  0
 19 26  1  0  0  0  0
 20 17  1  0  0  0  0
 20 22  1  0  0  0  0
 22 10  1  0  0  0  0
 23 14  1  0  0  0  0
 24 27  1  0  0  0  0
 26 25  2  0  0  0  0
 27  7  1  0  0  0  0
 28 30  1  0  0  0  0
 30 29  1  0  0  0  0
M  END
>  <MODEL>
6

>  <REMARK>
 VINA RESULT:      -8.0      2.279      6.683
  Name = 
  2 active torsions:
  status: ('A' for Active; 'I' for Inactive)
    1  A    between atoms: C_11  and  C_28
    2  A    between atoms: C_28  and  C_30
                            x       y       z     vdW  Elec       q    Type
                         _______ _______ _______ _____ _____    ______ ____

>  <TORSDO>
F 2

$$$$
=
 OpenBabel11112416253D

 30 35  0  0  1  0  0  0  0  0999 V2000
  189.3810  176.3890  145.1040 C   0  0  1  0  0  3  0  0  0  0  0  0
  187.1720  176.7920  146.3360 C   0  0  0  0  0  0  0  0  0  0  0  0
  187.1480  175.3430  142.0620 N   0  0  0  0  0  2  0  0  0  0  0  0
  190.0490  176.8150  143.7860 C   0  0  1  0  0  3  0  0  0  0  0  0
  190.1080  177.1280  146.2330 C   0  0  0  0  0  2  0  0  0  0  0  0
  193.4530  177.1660  144.9690 O   0  0  0  0  0  0  0  0  0  0  0  0
  191.8250  174.2540  142.9970 C   0  0  1  0  0  3  0  0  0  0  0  0
  192.2370  176.8390  145.0060 C   0  0  0  0  0  0  0  0  0  0  0  0
  190.3300  173.9410  143.1100 C   0  0  2  0  0  3  0  0  0  0  0  0
  188.1190  174.3390  141.8710 C   0  0  0  0  0  0  0  0  0  0  0  0
  191.5690  176.7050  146.3350 C   0  0  2  0  0  3  0  0  0  0  0  0
  191.5060  176.5560  143.7920 N   0  0  0  0  0  0  0  0  0  0  0  0
  185.8270  177.1680  146.3350 C   0  0  0  0  0  3  0  0  0  0  0  0
  190.2550  172.4590  142.7770 C   0  0  0  0  0  2  0  0  0  0  0  0
  192.3430  173.3580  141.8890 C   0  0  0  0  0  2  0  0  0  0  0  0
  187.7690  176.4920  147.5550 O   0  0  0  0  0  1  0  0  0  0  0  0
  187.7790  176.5530  142.5570 C   0  0  2  0  0  3  0  0  0  0  0  0
  185.1670  177.4210  145.1360 C   0  0  0  0  0  3  0  0  0  0  0  0
  187.8960  176.7140  145.1180 C   0  0  0  0  0  0  0  0  0  0  0  0
  189.3020  176.2770  142.5410 C   0  0  2  0  0  3  0  0  0  0  0  0
  187.8180  173.1990  141.4300 O   0  0  0  0  0  0  0  0  0  0  0  0
  189.5080  174.7980  142.1150 C   0  0  1  0  0  3  0  0  0  0  0  0
  191.4550  172.1300  141.9030 C   0  0  0  0  0  2  0  0  0  0  0  0
  193.5730  176.0370  142.4640 C   0  0  0  0  0  1  0  0  0  0  0  0
  185.8400  177.2620  143.9290 C   0  0  0  0  0  3  0  0  0  0  0  0
  187.1890  176.8840  143.9030 C   0  0  0  0  0  0  0  0  0  0  0  0
  192.1020  175.7360  142.7260 C   0  0  1  0  0  3  0  0  0  0  0  0
  191.6980  175.2740  146.8380 C   0  0  0  0  0  2  0  0  0  0  0  0
  192.9360  173.5210  145.8390 F   0  0  0  0  0  0  0  0  0  0  0  0
  193.0720  174.7190  146.5130 C   0  0  0  0  0  2  0  0  0  0  0  0
  1 19  1  0  0  0  0
  1  5  1  1  0  0  0
  2 16  1  0  0  0  0
  4 12  1  1  0  0  0
  4  1  1  0  0  0  0
  5 11  1  0  0  0  0
  6  8  2  0  0  0  0
  7 15  1  6  0  0  0
  7  9  1  0  0  0  0
  8 11  1  0  0  0  0
  9 14  1  6  0  0  0
 10  3  1  0  0  0  0
 10 22  1  0  0  0  0
 11 28  1  6  0  0  0
 12  8  1  0  0  0  0
 13  2  1  0  0  0  0
 15 23  1  0  0  0  0
 17  3  1  1  0  0  0
 17 26  1  0  0  0  0
 18 13  2  0  0  0  0
 19  2  2  0  0  0  0
 20 17  1  0  0  0  0
 20  4  1  0  0  0  0
 21 10  2  0  0  0  0
 22 20  1  0  0  0  0
 22  9  1  0  0  0  0
 23 14  1  0  0  0  0
 24 27  1  0  0  0  0
 25 18  1  0  0  0  0
 26 25  2  0  0  0  0
 26 19  1  0  0  0  0
 27  7  1  0  0  0  0
 27 12  1  0  0  0  0
 29 30  1  0  0  0  0
 30 28  1  0  0  0  0
M  END
>  <MODEL>
7

>  <REMARK>
 VINA RESULT:      -7.9      1.771      2.217
  Name = 
  2 active torsions:
  status: ('A' for Active; 'I' for Inactive)
    1  A    between atoms: C_11  and  C_28
    2  A    between atoms: C_28  and  C_30
                            x       y       z     vdW  Elec       q    Type
                         _______ _______ _______ _____ _____    ______ ____

>  <TORSDO>
F 2

$$$$
=
 OpenBabel11112416253D

 30 35  0  0  1  0  0  0  0  0999 V2000
  190.2580  175.8200  144.5390 C   0  0  1  0  0  3  0  0  0  0  0  0
  187.8460  176.4440  145.1300 C   0  0  0  0  0  0  0  0  0  0  0  0
  188.6810  173.6500  141.6850 N   0  0  0  0  0  2  0  0  0  0  0  0
  191.1710  175.8290  143.3010 C   0  0  1  0  0  3  0  0  0  0  0  0
  190.7400  176.9450  145.4600 C   0  0  0  0  0  2  0  0  0  0  0  0
  194.2690  176.8100  144.8970 O   0  0  0  0  0  0  0  0  0  0  0  0
  193.0890  173.2930  143.7800 C   0  0  1  0  0  3  0  0  0  0  0  0
  193.0740  176.4230  144.8190 C   0  0  0  0  0  0  0  0  0  0  0  0
  191.6030  172.9240  143.7160 C   0  0  2  0  0  3  0  0  0  0  0  0
  189.6790  172.7160  142.0320 C   0  0  0  0  0  0  0  0  0  0  0  0
  192.1560  176.6930  145.9670 C   0  0  2  0  0  3  0  0  0  0  0  0
  192.6000  175.6970  143.6640 N   0  0  0  0  0  0  0  0  0  0  0  0
  186.5250  176.6960  144.7530 C   0  0  0  0  0  3  0  0  0  0  0  0
  191.6070  171.4140  143.9040 C   0  0  0  0  0  2  0  0  0  0  0  0
  193.8230  172.1190  143.1610 C   0  0  0  0  0  2  0  0  0  0  0  0
  188.1920  176.6150  146.4650 O   0  0  0  0  0  1  0  0  0  0  0  0
  189.1920  175.0010  141.8420 C   0  0  2  0  0  3  0  0  0  0  0  0
  186.1130  176.4820  143.4400 C   0  0  0  0  0  3  0  0  0  0  0  0
  188.7980  176.0170  144.1680 C   0  0  0  0  0  0  0  0  0  0  0  0
  190.6900  174.8500  142.2020 C   0  0  2  0  0  3  0  0  0  0  0  0
  189.4810  171.4750  141.9620 O   0  0  0  0  0  0  0  0  0  0  0  0
  190.9880  173.3340  142.3540 C   0  0  1  0  0  3  0  0  0  0  0  0
  192.9600  170.9040  143.4320 C   0  0  0  0  0  2  0  0  0  0  0  0
  194.8930  174.9210  142.9980 C   0  0  0  0  0  1  0  0  0  0  0  0
  187.0140  175.9800  142.5060 C   0  0  0  0  0  3  0  0  0  0  0  0
  188.3440  175.7170  142.8600 C   0  0  0  0  0  0  0  0  0  0  0  0
  193.4020  174.6150  143.0720 C   0  0  1  0  0  3  0  0  0  0  0  0
  192.1940  175.5270  146.9450 C   0  0  0  0  0  2  0  0  0  0  0  0
  191.5020  176.9390  148.7140 F   0  0  0  0  0  0  0  0  0  0  0  0
  191.2080  175.7490  148.0760 C   0  0  0  0  0  2  0  0  0  0  0  0
  1  5  1  1  0  0  0
  2 16  1  0  0  0  0
  3 10  1  0  0  0  0
  4 12  1  1  0  0  0
  4  1  1  0  0  0  0
  5 11  1  0  0  0  0
  7 15  1  6  0  0  0
  8  6  2  0  0  0  0
  8 11  1  0  0  0  0
  9  7  1  0  0  0  0
  9 14  1  6  0  0  0
 10 22  1  0  0  0  0
 11 28  1  1  0  0  0
 12  8  1  0  0  0  0
 13  2  1  0  0  0  0
 15 23  1  0  0  0  0
 17  3  1  1  0  0  0
 17 20  1  0  0  0  0
 17 26  1  0  0  0  0
 18 13  2  0  0  0  0
 19  1  1  0  0  0  0
 19  2  2  0  0  0  0
 20 22  1  0  0  0  0
 20  4  1  0  0  0  0
 21 10  2  0  0  0  0
 22  9  1  0  0  0  0
 23 14  1  0  0  0  0
 24 27  1  0  0  0  0
 25 26  2  0  0  0  0
 25 18  1  0  0  0  0
 26 19  1  0  0  0  0
 27 12  1  0  0  0  0
 27  7  1  0  0  0  0
 28 30  1  0  0  0  0
 30 29  1  0  0  0  0
M  END
>  <MODEL>
8

>  <REMARK>
 VINA RESULT:      -7.7      2.689      3.681
  Name = 
  2 active torsions:
  status: ('A' for Active; 'I' for Inactive)
    1  A    between atoms: C_11  and  C_28
    2  A    between atoms: C_28  and  C_30
                            x       y       z     vdW  Elec       q    Type
                         _______ _______ _______ _____ _____    ______ ____

>  <TORSDO>
F 2

$$$$
=
 OpenBabel11112416253D

 30 35  0  0  1  0  0  0  0  0999 V2000
  189.3090  174.9040  143.7540 C   0  0  1  0  0  3  0  0  0  0  0  0
  187.6600  176.8640  143.7540 C   0  0  0  0  0  0  0  0  0  0  0  0
  190.5350  176.3280  147.1910 N   0  0  0  0  0  2  0  0  0  0  0  0
  189.7160  173.7530  144.6900 C   0  0  1  0  0  3  0  0  0  0  0  0
  188.5220  174.2830  142.5960 C   0  0  0  0  0  2  0  0  0  0  0  0
  190.2400  171.1710  142.2060 O   0  0  0  0  0  0  0  0  0  0  0  0
  192.8440  173.3600  144.0610 C   0  0  1  0  0  3  0  0  0  0  0  0
  190.0440  172.3320  142.6530 C   0  0  0  0  0  0  0  0  0  0  0  0
  192.5010  174.7640  144.5680 C   0  0  2  0  0  3  0  0  0  0  0  0
  191.8180  175.9870  146.7190 C   0  0  0  0  0  0  0  0  0  0  0  0
  189.3860  173.3400  141.7670 C   0  0  2  0  0  3  0  0  0  0  0  0
  190.4790  172.7030  143.9800 N   0  0  0  0  0  0  0  0  0  0  0  0
  186.8390  177.7660  144.4330 C   0  0  0  0  0  3  0  0  0  0  0  0
  193.8490  175.4690  144.5910 C   0  0  0  0  0  2  0  0  0  0  0  0
  194.2240  173.0570  144.6120 C   0  0  0  0  0  2  0  0  0  0  0  0
  187.6620  176.8960  142.3630 O   0  0  0  0  0  1  0  0  0  0  0  0
  189.5610  175.3570  146.7230 C   0  0  2  0  0  3  0  0  0  0  0  0
  186.8450  177.8150  145.8240 C   0  0  0  0  0  3  0  0  0  0  0  0
  188.4730  175.9500  144.4730 C   0  0  0  0  0  0  0  0  0  0  0  0
  190.3720  174.2550  145.9990 C   0  0  2  0  0  3  0  0  0  0  0  0
  192.8360  176.6700  147.0050 O   0  0  0  0  0  0  0  0  0  0  0  0
  191.8590  174.7020  145.9770 C   0  0  1  0  0  3  0  0  0  0  0  0
  194.9170  174.3980  144.7480 C   0  0  0  0  0  2  0  0  0  0  0  0
  192.2100  170.8880  144.1050 C   0  0  0  0  0  1  0  0  0  0  0  0
  187.7020  176.9860  146.5410 C   0  0  0  0  0  3  0  0  0  0  0  0
  188.5370  176.0740  145.8830 C   0  0  0  0  0  0  0  0  0  0  0  0
  191.8070  172.3110  144.4740 C   0  0  1  0  0  3  0  0  0  0  0  0
  190.4430  174.1040  140.9800 C   0  0  0  0  0  2  0  0  0  0  0  0
  189.5960  172.6490  139.3160 F   0  0  0  0  0  0  0  0  0  0  0  0
  190.6770  173.4500  139.6320 C   0  0  0  0  0  2  0  0  0  0  0  0
  1  5  1  6  0  0  0
  1 19  1  0  0  0  0
  1  4  1  0  0  0  0
  2 13  2  0  0  0  0
  2 19  1  0  0  0  0
  4 12  1  6  0  0  0
  4 20  1  0  0  0  0
  6  8  2  0  0  0  0
  7 27  1  0  0  0  0
  7  9  1  0  0  0  0
  7 15  1  1  0  0  0
  8 12  1  0  0  0  0
  9 14  1  1  0  0  0
  9 22  1  0  0  0  0
 10 21  2  0  0  0  0
 10  3  1  0  0  0  0
 11 28  1  1  0  0  0
 11  5  1  0  0  0  0
 11  8  1  0  0  0  0
 12 27  1  0  0  0  0
 13 18  1  0  0  0  0
 14 23  1  0  0  0  0
 15 23  1  0  0  0  0
 16  2  1  0  0  0  0
 17 26  1  6  0  0  0
 17  3  1  0  0  0  0
 18 25  2  0  0  0  0
 19 26  2  0  0  0  0
 20 17  1  0  0  0  0
 22 20  1  0  0  0  0
 22 10  1  0  0  0  0
 24 27  1  0  0  0  0
 26 25  1  0  0  0  0
 29 30  1  0  0  0  0
 30 28  1  0  0  0  0
M  END
>  <MODEL>
9

>  <REMARK>
 VINA RESULT:      -7.7      2.589      5.264
  Name = 
  2 active torsions:
  status: ('A' for Active; 'I' for Inactive)
    1  A    between atoms: C_11  and  C_28
    2  A    between atoms: C_28  and  C_30
                            x       y       z     vdW  Elec       q    Type
                         _______ _______ _______ _____ _____    ______ ____

>  <TORSDO>
F 2

$$$$
