=
 OpenBabel11112417083D

 37 43  0  0  1  0  0  0  0  0999 V2000
  190.1160  174.2080  142.5850 C   0  0  0  0  0  2  0  0  0  0  0  0
  194.2010  175.0460  145.4710 C   0  0  0  0  0  0  0  0  0  0  0  0
  190.5890  177.0470  145.9360 C   0  0  0  0  0  0  0  0  0  0  0  0
  190.0170  173.5970  141.2540 N   0  0  0  0  0  0  0  0  0  0  0  0
  188.3530  177.7130  142.9580 O   0  0  0  0  0  0  0  0  0  0  0  0
  192.5320  176.0910  146.9800 C   0  0  0  0  0  0  0  0  0  0  0  0
  190.0260  176.9830  144.6780 C   0  0  0  0  0  0  0  0  0  0  0  0
  187.6530  174.6040  140.9960 C   0  0  2  0  0  3  0  0  0  0  0  0
  191.7710  176.3830  145.8730 C   0  0  0  0  0  0  0  0  0  0  0  0
  188.6530  177.5550  144.3360 C   0  0  2  0  0  3  0  0  0  0  0  0
  192.0630  176.5220  148.2350 C   0  0  0  0  0  3  0  0  0  0  0  0
  189.0080  174.2100  140.3630 C   0  0  0  0  0  2  0  0  0  0  0  0
  192.0040  175.8770  144.6640 N   0  0  0  0  0  0  0  0  0  0  0  0
  194.9930  173.7570  145.5150 C   0  0  0  0  0  1  0  0  0  0  0  0
  188.6510  177.9640  147.2440 C   0  0  0  0  0  2  0  0  0  0  0  0
  190.8170  177.1950  148.3230 C   0  0  0  0  0  3  0  0  0  0  0  0
  193.0690  174.9040  144.4160 C   0  0  0  0  0  2  0  0  0  0  0  0
  187.5480  176.1010  141.3100 C   0  0  0  0  0  2  0  0  0  0  0  0
  188.5950  176.4900  142.3340 C   0  0  1  0  0  3  0  0  0  0  0  0
  190.0530  177.4500  147.1600 C   0  0  0  0  0  0  0  0  0  0  0  0
  190.9260  176.2050  143.9090 C   0  0  0  0  0  0  0  0  0  0  0  0
  193.6930  175.3320  146.7930 O   0  0  0  0  0  0  0  0  0  0  0  0
  187.4800  176.9720  145.1550 C   0  0  1  0  0  3  0  0  0  0  0  0
  195.1320  176.1660  145.0440 C   0  0  0  0  0  1  0  0  0  0  0  0
  189.8730  176.5040  141.7580 O   0  0  0  0  0  0  0  0  0  0  0  0
  187.3150  173.8250  142.0900 F   0  0  0  0  0  0  0  0  0  0  0  0
  190.6770  175.6420  142.5280 C   0  0  2  0  0  3  0  0  0  0  0  0
  187.6870  176.9120  146.6850 C   0  0  0  0  0  2  0  0  0  0  0  0
  185.6060  178.5010  145.7860 C   0  0  0  0  0  3  0  0  0  0  0  0
  186.1890  177.6590  144.8320 C   0  0  0  0  0  0  0  0  0  0  0  0
  185.5520  177.4620  143.5980 C   0  0  0  0  0  3  0  0  0  0  0  0
  183.7150  177.9110  142.1000 O   0  0  0  0  0  1  0  0  0  0  0  0
  183.7640  178.9470  144.2780 C   0  0  0  0  0  3  0  0  0  0  0  0
  184.3420  178.1070  143.3220 C   0  0  0  0  0  0  0  0  0  0  0  0
  184.3950  179.1440  145.5100 C   0  0  0  0  0  3  0  0  0  0  0  0
  189.7870  171.8140  142.8930 C   0  0  0  0  0  1  0  0  0  0  0  0
  189.6730  172.1950  141.4290 C   0  0  0  0  0  2  0  0  0  0  0  0
  2 14  1  0  0  0  0
  2 22  1  0  0  0  0
  3 20  1  0  0  0  0
  4 37  1  0  0  0  0
  4  1  1  0  0  0  0
  6 11  2  0  0  0  0
  7  3  1  0  0  0  0
  8 18  1  0  0  0  0
  8 26  1  1  0  0  0
  9  3  2  0  0  0  0
  9  6  1  0  0  0  0
 10  5  1  6  0  0  0
 10  7  1  0  0  0  0
 10 23  1  0  0  0  0
 11 16  1  0  0  0  0
 12  8  1  0  0  0  0
 12  4  1  0  0  0  0
 13  9  1  0  0  0  0
 17 13  1  0  0  0  0
 17  2  1  0  0  0  0
 19 18  1  6  0  0  0
 19  5  1  0  0  0  0
 20 15  1  0  0  0  0
 20 16  2  0  0  0  0
 21 13  1  0  0  0  0
 21  7  2  0  0  0  0
 22  6  1  0  0  0  0
 23 30  1  1  0  0  0
 23 28  1  0  0  0  0
 24  2  1  0  0  0  0
 25 19  1  0  0  0  0
 25 27  1  0  0  0  0
 27  1  1  1  0  0  0
 27 21  1  0  0  0  0
 28 15  1  0  0  0  0
 30 29  2  0  0  0  0
 31 30  1  0  0  0  0
 32 34  1  0  0  0  0
 33 35  2  0  0  0  0
 34 31  2  0  0  0  0
 34 33  1  0  0  0  0
 35 29  1  0  0  0  0
 37 36  1  0  0  0  0
M  END
>  <MODEL>
1

>  <REMARK>
 VINA RESULT:      -9.4      0.000      0.000
  Name = 
  2 active torsions:
  status: ('A' for Active; 'I' for Inactive)
    1  A    between atoms: N_4  and  C_37
    2  A    between atoms: C_23  and  C_30
                            x       y       z     vdW  Elec       q    Type
                         _______ _______ _______ _____ _____    ______ ____

>  <TORSDO>
F 2

$$$$
=
 OpenBabel11112417083D

 37 43  0  0  1  0  0  0  0  0999 V2000
  189.9930  174.5560  141.9640 C   0  0  0  0  0  2  0  0  0  0  0  0
  194.9390  175.0510  142.9710 C   0  0  0  0  0  0  0  0  0  0  0  0
  191.9210  176.5790  145.3850 C   0  0  0  0  0  0  0  0  0  0  0  0
  189.3190  174.2620  140.6940 N   0  0  0  0  0  0  0  0  0  0  0  0
  188.6410  177.7200  143.8870 O   0  0  0  0  0  0  0  0  0  0  0  0
  194.1020  175.5760  145.2470 C   0  0  0  0  0  0  0  0  0  0  0  0
  190.8720  176.7590  144.5070 C   0  0  0  0  0  0  0  0  0  0  0  0
  187.0960  175.0970  141.7090 C   0  0  2  0  0  3  0  0  0  0  0  0
  192.9470  176.0490  144.6700 C   0  0  0  0  0  0  0  0  0  0  0  0
  189.4990  177.2760  144.9250 C   0  0  2  0  0  3  0  0  0  0  0  0
  194.2260  175.6660  146.6450 C   0  0  0  0  0  3  0  0  0  0  0  0
  188.0400  174.9760  140.4890 C   0  0  0  0  0  2  0  0  0  0  0  0
  192.6280  175.8570  143.3930 N   0  0  0  0  0  0  0  0  0  0  0  0
  195.6440  173.8590  142.3620 C   0  0  0  0  0  1  0  0  0  0  0  0
  190.7530  177.0040  147.5680 C   0  0  0  0  0  2  0  0  0  0  0  0
  193.1540  176.1940  147.4110 C   0  0  0  0  0  3  0  0  0  0  0  0
  193.4600  175.0600  142.4910 C   0  0  0  0  0  2  0  0  0  0  0  0
  187.1700  176.4680  142.3920 C   0  0  0  0  0  2  0  0  0  0  0  0
  188.5640  176.6980  142.9410 C   0  0  1  0  0  3  0  0  0  0  0  0
  191.9710  176.6430  146.7780 C   0  0  0  0  0  0  0  0  0  0  0  0
  191.3380  176.2570  143.2670 C   0  0  0  0  0  0  0  0  0  0  0  0
  195.0530  174.9820  144.4100 O   0  0  0  0  0  0  0  0  0  0  0  0
  188.7770  176.4230  145.9930 C   0  0  1  0  0  3  0  0  0  0  0  0
  195.6220  176.3140  142.4790 C   0  0  0  0  0  1  0  0  0  0  0  0
  189.4710  176.9520  141.9030 O   0  0  0  0  0  0  0  0  0  0  0  0
  187.2420  174.0620  142.6170 F   0  0  0  0  0  0  0  0  0  0  0  0
  190.5080  176.0070  142.0280 C   0  0  2  0  0  3  0  0  0  0  0  0
  189.6180  176.0310  147.2280 C   0  0  0  0  0  2  0  0  0  0  0  0
  186.2780  176.4680  146.0350 C   0  0  0  0  0  3  0  0  0  0  0  0
  187.4880  177.0540  146.4220 C   0  0  0  0  0  0  0  0  0  0  0  0
  187.4770  178.2260  147.1920 C   0  0  0  0  0  3  0  0  0  0  0  0
  186.2530  179.9630  148.3360 O   0  0  0  0  0  1  0  0  0  0  0  0
  185.0560  178.2140  147.1840 C   0  0  0  0  0  3  0  0  0  0  0  0
  186.2610  178.8040  147.5730 C   0  0  0  0  0  0  0  0  0  0  0  0
  185.0630  177.0470  146.4150 C   0  0  0  0  0  3  0  0  0  0  0  0
  189.7640  172.1390  141.7950 C   0  0  0  0  0  1  0  0  0  0  0  0
  189.0520  172.8320  140.6500 C   0  0  0  0  0  2  0  0  0  0  0  0
  2 22  1  0  0  0  0
  3 20  1  0  0  0  0
  4  1  1  0  0  0  0
  6 11  2  0  0  0  0
  7 10  1  0  0  0  0
  7  3  1  0  0  0  0
  8 18  1  0  0  0  0
  8 26  1  1  0  0  0
  9  6  1  0  0  0  0
  9  3  2  0  0  0  0
 10  5  1  6  0  0  0
 10 23  1  0  0  0  0
 11 16  1  0  0  0  0
 12  4  1  0  0  0  0
 12  8  1  0  0  0  0
 13  9  1  0  0  0  0
 14  2  1  0  0  0  0
 17  2  1  0  0  0  0
 17 13  1  0  0  0  0
 19 18  1  6  0  0  0
 19  5  1  0  0  0  0
 20 16  2  0  0  0  0
 20 15  1  0  0  0  0
 21 13  1  0  0  0  0
 21  7  2  0  0  0  0
 22  6  1  0  0  0  0
 23 30  1  1  0  0  0
 23 28  1  0  0  0  0
 24  2  1  0  0  0  0
 25 27  1  0  0  0  0
 25 19  1  0  0  0  0
 27  1  1  1  0  0  0
 27 21  1  0  0  0  0
 28 15  1  0  0  0  0
 29 35  2  0  0  0  0
 29 30  1  0  0  0  0
 30 31  2  0  0  0  0
 31 34  1  0  0  0  0
 33 34  2  0  0  0  0
 34 32  1  0  0  0  0
 35 33  1  0  0  0  0
 37  4  1  0  0  0  0
 37 36  1  0  0  0  0
M  END
>  <MODEL>
2

>  <REMARK>
 VINA RESULT:      -9.1      1.708      2.378
  Name = 
  2 active torsions:
  status: ('A' for Active; 'I' for Inactive)
    1  A    between atoms: N_4  and  C_37
    2  A    between atoms: C_23  and  C_30
                            x       y       z     vdW  Elec       q    Type
                         _______ _______ _______ _____ _____    ______ ____

>  <TORSDO>
F 2

$$$$
=
 OpenBabel11112417083D

 37 43  0  0  1  0  0  0  0  0999 V2000
  190.8920  173.0500  142.2830 C   0  0  0  0  0  2  0  0  0  0  0  0
  195.6330  174.5820  143.2340 C   0  0  0  0  0  0  0  0  0  0  0  0
  192.2600  176.2840  144.9630 C   0  0  0  0  0  0  0  0  0  0  0  0
  190.3640  172.2860  141.1480 N   0  0  0  0  0  0  0  0  0  0  0  0
  188.9770  176.4000  143.0880 O   0  0  0  0  0  0  0  0  0  0  0  0
  194.5620  175.6350  145.2080 C   0  0  0  0  0  0  0  0  0  0  0  0
  191.2660  176.0270  144.0420 C   0  0  0  0  0  0  0  0  0  0  0  0
  187.9770  173.0360  141.7870 C   0  0  2  0  0  3  0  0  0  0  0  0
  193.4000  175.7280  144.4790 C   0  0  0  0  0  0  0  0  0  0  0  0
  189.8070  176.4290  144.2380 C   0  0  2  0  0  3  0  0  0  0  0  0
  194.5660  176.1620  146.5130 C   0  0  0  0  0  3  0  0  0  0  0  0
  189.0180  172.6980  140.6940 C   0  0  0  0  0  2  0  0  0  0  0  0
  193.2080  175.1110  143.3160 N   0  0  0  0  0  0  0  0  0  0  0  0
  196.5390  173.3840  143.0460 C   0  0  0  0  0  1  0  0  0  0  0  0
  190.8820  177.1650  146.8700 C   0  0  0  0  0  2  0  0  0  0  0  0
  193.3770  176.7250  147.0450 C   0  0  0  0  0  3  0  0  0  0  0  0
  194.2080  174.2170  142.7310 C   0  0  0  0  0  2  0  0  0  0  0  0
  187.8100  174.5440  142.0120 C   0  0  0  0  0  2  0  0  0  0  0  0
  189.1130  175.1410  142.5040 C   0  0  1  0  0  3  0  0  0  0  0  0
  192.1950  176.7740  146.2690 C   0  0  0  0  0  0  0  0  0  0  0  0
  191.8880  175.2510  143.0340 C   0  0  0  0  0  0  0  0  0  0  0  0
  195.6460  174.9690  144.6260 O   0  0  0  0  0  0  0  0  0  0  0  0
  189.1300  175.8380  145.4950 C   0  0  1  0  0  3  0  0  0  0  0  0
  196.1720  175.7260  142.3950 C   0  0  0  0  0  1  0  0  0  0  0  0
  190.0530  175.2050  141.4660 O   0  0  0  0  0  0  0  0  0  0  0  0
  188.1940  172.3600  142.9750 F   0  0  0  0  0  0  0  0  0  0  0  0
  191.1970  174.5140  141.9090 C   0  0  2  0  0  3  0  0  0  0  0  0
  189.9210  175.9720  146.8160 C   0  0  0  0  0  2  0  0  0  0  0  0
  187.1830  176.4160  146.9520 C   0  0  0  0  0  3  0  0  0  0  0  0
  187.7380  176.3630  145.6690 C   0  0  0  0  0  0  0  0  0  0  0  0
  186.9820  176.7900  144.5660 C   0  0  0  0  0  3  0  0  0  0  0  0
  184.9360  177.6900  143.6590 O   0  0  0  0  0  1  0  0  0  0  0  0
  185.1310  177.3190  146.0340 C   0  0  0  0  0  3  0  0  0  0  0  0
  185.6810  177.2680  144.7510 C   0  0  0  0  0  0  0  0  0  0  0  0
  185.8810  176.8930  147.1350 C   0  0  0  0  0  3  0  0  0  0  0  0
  191.3790  170.5880  142.5640 C   0  0  0  0  0  1  0  0  0  0  0  0
  190.2990  170.8870  141.5420 C   0  0  0  0  0  2  0  0  0  0  0  0
  2 22  1  0  0  0  0
  3 20  1  0  0  0  0
  4 37  1  0  0  0  0
  4  1  1  0  0  0  0
  6 11  2  0  0  0  0
  7 10  1  0  0  0  0
  7  3  1  0  0  0  0
  8 18  1  0  0  0  0
  8 26  1  1  0  0  0
  9  3  2  0  0  0  0
  9  6  1  0  0  0  0
 10  5  1  6  0  0  0
 10 23  1  0  0  0  0
 11 16  1  0  0  0  0
 12  4  1  0  0  0  0
 12  8  1  0  0  0  0
 13  9  1  0  0  0  0
 14  2  1  0  0  0  0
 17  2  1  0  0  0  0
 17 13  1  0  0  0  0
 19 18  1  6  0  0  0
 19  5  1  0  0  0  0
 20 15  1  0  0  0  0
 20 16  2  0  0  0  0
 21 13  1  0  0  0  0
 21  7  2  0  0  0  0
 22  6  1  0  0  0  0
 23 30  1  1  0  0  0
 23 28  1  0  0  0  0
 24  2  1  0  0  0  0
 25 27  1  0  0  0  0
 25 19  1  0  0  0  0
 27  1  1  1  0  0  0
 27 21  1  0  0  0  0
 28 15  1  0  0  0  0
 29 35  1  0  0  0  0
 30 29  2  0  0  0  0
 31 34  2  0  0  0  0
 31 30  1  0  0  0  0
 32 34  1  0  0  0  0
 33 35  2  0  0  0  0
 34 33  1  0  0  0  0
 37 36  1  0  0  0  0
M  END
>  <MODEL>
3

>  <REMARK>
 VINA RESULT:      -8.9      1.589      2.196
  Name = 
  2 active torsions:
  status: ('A' for Active; 'I' for Inactive)
    1  A    between atoms: N_4  and  C_37
    2  A    between atoms: C_23  and  C_30
                            x       y       z     vdW  Elec       q    Type
                         _______ _______ _______ _____ _____    ______ ____

>  <TORSDO>
F 2

$$$$
=
 OpenBabel11112417083D

 37 43  0  0  1  0  0  0  0  0999 V2000
  193.6470  174.8840  143.6470 C   0  0  0  0  0  2  0  0  0  0  0  0
  192.8430  172.0710  139.5040 C   0  0  0  0  0  0  0  0  0  0  0  0
  189.8130  173.8870  141.6910 C   0  0  0  0  0  0  0  0  0  0  0  0
  194.8070  174.9200  144.5450 N   0  0  0  0  0  0  0  0  0  0  0  0
  190.1630  174.3940  145.4240 O   0  0  0  0  0  0  0  0  0  0  0  0
  190.6420  173.2150  139.5370 C   0  0  0  0  0  0  0  0  0  0  0  0
  190.3560  173.9980  142.9550 C   0  0  0  0  0  0  0  0  0  0  0  0
  193.3620  176.1180  146.3200 C   0  0  2  0  0  3  0  0  0  0  0  0
  190.7630  173.3230  140.9020 C   0  0  0  0  0  0  0  0  0  0  0  0
  189.6320  174.6450  144.1320 C   0  0  2  0  0  3  0  0  0  0  0  0
  189.4640  173.6980  138.9390 C   0  0  0  0  0  3  0  0  0  0  0  0
  194.4790  175.1040  145.9760 C   0  0  0  0  0  2  0  0  0  0  0  0
  191.8920  173.0790  141.5640 N   0  0  0  0  0  0  0  0  0  0  0  0
  194.0750  172.1910  138.6320 C   0  0  0  0  0  1  0  0  0  0  0  0
  187.7260  175.2530  141.9820 C   0  0  0  0  0  2  0  0  0  0  0  0
  188.4710  174.3130  139.7450 C   0  0  0  0  0  3  0  0  0  0  0  0
  193.1380  172.7270  140.8820 C   0  0  0  0  0  2  0  0  0  0  0  0
  192.0140  175.4490  146.6170 C   0  0  0  0  0  2  0  0  0  0  0  0
  191.5200  174.7130  145.3880 C   0  0  1  0  0  3  0  0  0  0  0  0
  188.6500  174.4290  141.1430 C   0  0  0  0  0  0  0  0  0  0  0  0
  191.6820  173.5150  142.8310 C   0  0  0  0  0  0  0  0  0  0  0  0
  191.7250  172.6850  138.8260 O   0  0  0  0  0  0  0  0  0  0  0  0
  189.2200  176.1180  143.9160 C   0  0  1  0  0  3  0  0  0  0  0  0
  192.5480  170.5970  139.7140 C   0  0  0  0  0  1  0  0  0  0  0  0
  192.2690  173.5470  145.1730 O   0  0  0  0  0  0  0  0  0  0  0  0
  193.2380  177.1310  145.3850 F   0  0  0  0  0  0  0  0  0  0  0  0
  192.7810  173.6280  143.8630 C   0  0  2  0  0  3  0  0  0  0  0  0
  188.4990  176.4310  142.5860 C   0  0  0  0  0  2  0  0  0  0  0  0
  189.0790  177.3670  146.0770 C   0  0  0  0  0  3  0  0  0  0  0  0
  188.4260  176.6430  145.0730 C   0  0  0  0  0  0  0  0  0  0  0  0
  187.0460  176.4090  145.1700 C   0  0  0  0  0  3  0  0  0  0  0  0
  184.9620  176.6680  146.3570 O   0  0  0  0  0  1  0  0  0  0  0  0
  186.9830  177.6230  147.2640 C   0  0  0  0  0  3  0  0  0  0  0  0
  186.3270  176.9000  146.2640 C   0  0  0  0  0  0  0  0  0  0  0  0
  188.3580  177.8560  147.1710 C   0  0  0  0  0  3  0  0  0  0  0  0
  195.6660  176.1310  142.6180 C   0  0  0  0  0  1  0  0  0  0  0  0
  195.6590  176.0240  144.1310 C   0  0  0  0  0  2  0  0  0  0  0  0
  1  4  1  0  0  0  0
  2 24  1  0  0  0  0
  2 17  1  0  0  0  0
  3  7  1  0  0  0  0
  4 12  1  0  0  0  0
  6  9  1  0  0  0  0
  8 26  1  6  0  0  0
  8 18  1  0  0  0  0
  9 13  1  0  0  0  0
  9  3  2  0  0  0  0
 10  7  1  6  0  0  0
 10  5  1  0  0  0  0
 11  6  2  0  0  0  0
 11 16  1  0  0  0  0
 12  8  1  0  0  0  0
 13 21  1  0  0  0  0
 14  2  1  0  0  0  0
 15 28  1  0  0  0  0
 16 20  2  0  0  0  0
 17 13  1  0  0  0  0
 19  5  1  0  0  0  0
 19 18  1  1  0  0  0
 20  3  1  0  0  0  0
 20 15  1  0  0  0  0
 21  7  2  0  0  0  0
 21 27  1  0  0  0  0
 22  2  1  0  0  0  0
 22  6  1  0  0  0  0
 23 10  1  0  0  0  0
 23 30  1  1  0  0  0
 25 19  1  0  0  0  0
 27  1  1  1  0  0  0
 27 25  1  0  0  0  0
 28 23  1  0  0  0  0
 29 35  1  0  0  0  0
 30 31  1  0  0  0  0
 30 29  2  0  0  0  0
 31 34  2  0  0  0  0
 34 32  1  0  0  0  0
 34 33  1  0  0  0  0
 35 33  2  0  0  0  0
 36 37  1  0  0  0  0
 37  4  1  0  0  0  0
M  END
>  <MODEL>
4

>  <REMARK>
 VINA RESULT:      -8.9      2.608      5.926
  Name = 
  2 active torsions:
  status: ('A' for Active; 'I' for Inactive)
    1  A    between atoms: N_4  and  C_37
    2  A    between atoms: C_23  and  C_30
                            x       y       z     vdW  Elec       q    Type
                         _______ _______ _______ _____ _____    ______ ____

>  <TORSDO>
F 2

$$$$
=
 OpenBabel11112417083D

 37 43  0  0  1  0  0  0  0  0999 V2000
  191.4030  175.4870  143.7370 C   0  0  0  0  0  2  0  0  0  0  0  0
  191.9050  172.0280  140.0630 C   0  0  0  0  0  0  0  0  0  0  0  0
  188.5680  174.4620  140.5090 C   0  0  0  0  0  0  0  0  0  0  0  0
  192.0990  175.5950  145.0250 N   0  0  0  0  0  0  0  0  0  0  0  0
  187.4690  175.6240  143.9370 O   0  0  0  0  0  0  0  0  0  0  0  0
  190.0760  173.3340  139.0140 C   0  0  0  0  0  0  0  0  0  0  0  0
  188.5710  174.7620  141.8560 C   0  0  0  0  0  0  0  0  0  0  0  0
  190.2650  177.2170  145.8490 C   0  0  2  0  0  3  0  0  0  0  0  0
  189.6560  173.6850  140.2760 C   0  0  0  0  0  0  0  0  0  0  0  0
  187.5440  175.6730  142.5210 C   0  0  2  0  0  3  0  0  0  0  0  0
  189.3230  173.7920  137.9170 C   0  0  0  0  0  3  0  0  0  0  0  0
  191.2580  176.0680  146.1470 C   0  0  0  0  0  2  0  0  0  0  0  0
  190.3750  173.4760  141.3760 N   0  0  0  0  0  0  0  0  0  0  0  0
  193.3850  171.8820  139.7810 C   0  0  0  0  0  1  0  0  0  0  0  0
  186.7710  176.0250  139.7090 C   0  0  0  0  0  2  0  0  0  0  0  0
  188.1960  174.6260  138.1410 C   0  0  0  0  0  3  0  0  0  0  0  0
  191.7200  172.9020  141.3350 C   0  0  0  0  0  2  0  0  0  0  0  0
  188.8260  176.7280  145.6410 C   0  0  0  0  0  2  0  0  0  0  0  0
  188.7590  175.8190  144.4310 C   0  0  1  0  0  3  0  0  0  0  0  0
  187.8170  174.9860  139.4550 C   0  0  0  0  0  0  0  0  0  0  0  0
  189.7450  174.1570  142.3670 C   0  0  0  0  0  0  0  0  0  0  0  0
  191.2580  172.5940  138.9020 O   0  0  0  0  0  0  0  0  0  0  0  0
  187.4810  177.1100  141.9540 C   0  0  1  0  0  3  0  0  0  0  0  0
  191.3310  170.6480  140.3280 C   0  0  0  0  0  1  0  0  0  0  0  0
  189.3450  174.5760  144.7100 O   0  0  0  0  0  0  0  0  0  0  0  0
  190.6800  178.0450  144.8200 F   0  0  0  0  0  0  0  0  0  0  0  0
  190.3430  174.3690  143.7390 C   0  0  2  0  0  3  0  0  0  0  0  0
  187.4080  177.2270  140.4150 C   0  0  0  0  0  2  0  0  0  0  0  0
  186.6920  178.8070  143.6100 C   0  0  0  0  0  3  0  0  0  0  0  0
  186.3810  177.9040  142.5880 C   0  0  0  0  0  0  0  0  0  0  0  0
  185.0470  177.7460  142.1820 C   0  0  0  0  0  3  0  0  0  0  0  0
  182.7170  178.3340  142.3910 O   0  0  0  0  0  1  0  0  0  0  0  0
  184.3510  179.3930  143.8150 C   0  0  0  0  0  3  0  0  0  0  0  0
  184.0350  178.4910  142.7960 C   0  0  0  0  0  0  0  0  0  0  0  0
  185.6790  179.5510  144.2230 C   0  0  0  0  0  3  0  0  0  0  0  0
  194.0460  176.5560  146.1210 C   0  0  0  0  0  1  0  0  0  0  0  0
  193.2020  176.5290  144.8610 C   0  0  0  0  0  2  0  0  0  0  0  0
  1  4  1  0  0  0  0
  2 24  1  0  0  0  0
  2 17  1  0  0  0  0
  3  7  1  0  0  0  0
  4 12  1  0  0  0  0
  5 19  1  0  0  0  0
  6  9  2  0  0  0  0
  7 21  2  0  0  0  0
  8 26  1  6  0  0  0
  8 12  1  0  0  0  0
  9  3  1  0  0  0  0
  9 13  1  0  0  0  0
 10  7  1  1  0  0  0
 10  5  1  0  0  0  0
 11 16  2  0  0  0  0
 11  6  1  0  0  0  0
 13 21  1  0  0  0  0
 14  2  1  0  0  0  0
 15 28  1  0  0  0  0
 16 20  1  0  0  0  0
 17 13  1  0  0  0  0
 18  8  1  0  0  0  0
 19 25  1  0  0  0  0
 19 18  1  1  0  0  0
 20 15  1  0  0  0  0
 20  3  2  0  0  0  0
 21 27  1  0  0  0  0
 22  6  1  0  0  0  0
 22  2  1  0  0  0  0
 23 10  1  0  0  0  0
 23 30  1  1  0  0  0
 27  1  1  6  0  0  0
 27 25  1  0  0  0  0
 28 23  1  0  0  0  0
 29 35  1  0  0  0  0
 30 29  2  0  0  0  0
 31 30  1  0  0  0  0
 31 34  2  0  0  0  0
 32 34  1  0  0  0  0
 33 35  2  0  0  0  0
 34 33  1  0  0  0  0
 37  4  1  0  0  0  0
 37 36  1  0  0  0  0
M  END
>  <MODEL>
5

>  <REMARK>
 VINA RESULT:      -8.5      2.151      5.643
  Name = 
  2 active torsions:
  status: ('A' for Active; 'I' for Inactive)
    1  A    between atoms: N_4  and  C_37
    2  A    between atoms: C_23  and  C_30
                            x       y       z     vdW  Elec       q    Type
                         _______ _______ _______ _____ _____    ______ ____

>  <TORSDO>
F 2

$$$$
=
 OpenBabel11112417083D

 37 43  0  0  1  0  0  0  0  0999 V2000
  189.3370  173.8300  140.5460 C   0  0  0  0  0  2  0  0  0  0  0  0
  187.0030  177.2710  143.4500 C   0  0  0  0  0  0  0  0  0  0  0  0
  190.2250  174.9760  144.7190 C   0  0  0  0  0  0  0  0  0  0  0  0
  188.8600  173.1410  139.3410 N   0  0  0  0  0  0  0  0  0  0  0  0
  190.7550  171.4800  143.3740 O   0  0  0  0  0  0  0  0  0  0  0  0
  189.0820  177.0900  144.7910 C   0  0  0  0  0  0  0  0  0  0  0  0
  190.1430  173.8480  143.9280 C   0  0  0  0  0  0  0  0  0  0  0  0
  190.7360  171.3900  139.6320 C   0  0  2  0  0  3  0  0  0  0  0  0
  189.2130  175.7970  144.3400 C   0  0  0  0  0  0  0  0  0  0  0  0
  191.1440  172.6980  143.9900 C   0  0  2  0  0  3  0  0  0  0  0  0
  190.0400  177.5710  145.7020 C   0  0  0  0  0  3  0  0  0  0  0  0
  189.2820  171.7280  139.2260 C   0  0  0  0  0  2  0  0  0  0  0  0
  188.4910  175.2860  143.3460 N   0  0  0  0  0  0  0  0  0  0  0  0
  186.4380  178.3300  142.5280 C   0  0  0  0  0  1  0  0  0  0  0  0
  192.4600  174.5980  145.8020 C   0  0  0  0  0  2  0  0  0  0  0  0
  191.1200  176.7350  146.0890 C   0  0  0  0  0  3  0  0  0  0  0  0
  187.5230  176.0840  142.5920 C   0  0  0  0  0  2  0  0  0  0  0  0
  190.8420  170.7800  141.0360 C   0  0  0  0  0  2  0  0  0  0  0  0
  190.3600  171.7780  142.0700 C   0  0  1  0  0  3  0  0  0  0  0  0
  191.2310  175.4200  145.5790 C   0  0  0  0  0  0  0  0  0  0  0  0
  189.0620  174.0920  143.0470 C   0  0  0  0  0  0  0  0  0  0  0  0
  188.0390  177.8610  144.2660 O   0  0  0  0  0  0  0  0  0  0  0  0
  192.6100  173.0900  143.6980 C   0  0  1  0  0  3  0  0  0  0  0  0
  185.8850  176.7740  144.3490 C   0  0  0  0  0  1  0  0  0  0  0  0
  188.9650  171.9080  142.0230 O   0  0  0  0  0  0  0  0  0  0  0  0
  191.6100  172.4500  139.4650 F   0  0  0  0  0  0  0  0  0  0  0  0
  188.6900  173.2760  141.8300 C   0  0  2  0  0  3  0  0  0  0  0  0
  193.1430  174.3260  144.4570 C   0  0  0  0  0  2  0  0  0  0  0  0
  194.1760  171.3820  142.7640 C   0  0  0  0  0  3  0  0  0  0  0  0
  193.5370  171.9290  143.8820 C   0  0  0  0  0  0  0  0  0  0  0  0
  193.7640  171.3760  145.1510 C   0  0  0  0  0  3  0  0  0  0  0  0
  194.8500  169.7420  146.5540 O   0  0  0  0  0  1  0  0  0  0  0  0
  195.2630  169.7430  144.1770 C   0  0  0  0  0  3  0  0  0  0  0  0
  194.6270  170.2860  145.2970 C   0  0  0  0  0  0  0  0  0  0  0  0
  195.0380  170.2900  142.9110 C   0  0  0  0  0  3  0  0  0  0  0  0
  188.2170  174.4870  137.4200 C   0  0  0  0  0  1  0  0  0  0  0  0
  189.3680  173.8600  138.1830 C   0  0  0  0  0  2  0  0  0  0  0  0
  2 22  1  0  0  0  0
  2 24  1  0  0  0  0
  3 20  1  0  0  0  0
  4  1  1  0  0  0  0
  6 11  2  0  0  0  0
  7 10  1  0  0  0  0
  7  3  1  0  0  0  0
  8 26  1  1  0  0  0
  8 18  1  0  0  0  0
  9  3  2  0  0  0  0
  9  6  1  0  0  0  0
 10  5  1  6  0  0  0
 11 16  1  0  0  0  0
 12  4  1  0  0  0  0
 12  8  1  0  0  0  0
 13  9  1  0  0  0  0
 14  2  1  0  0  0  0
 17 13  1  0  0  0  0
 17  2  1  0  0  0  0
 19 18  1  6  0  0  0
 19  5  1  0  0  0  0
 20 15  1  0  0  0  0
 20 16  2  0  0  0  0
 21 13  1  0  0  0  0
 21  7  2  0  0  0  0
 22  6  1  0  0  0  0
 23 30  1  1  0  0  0
 23 10  1  0  0  0  0
 23 28  1  0  0  0  0
 25 19  1  0  0  0  0
 27  1  1  6  0  0  0
 27 25  1  0  0  0  0
 27 21  1  0  0  0  0
 28 15  1  0  0  0  0
 29 35  2  0  0  0  0
 29 30  1  0  0  0  0
 30 31  2  0  0  0  0
 31 34  1  0  0  0  0
 33 34  2  0  0  0  0
 34 32  1  0  0  0  0
 35 33  1  0  0  0  0
 36 37  1  0  0  0  0
 37  4  1  0  0  0  0
M  END
>  <MODEL>
6

>  <REMARK>
 VINA RESULT:      -8.4      2.682      7.260
  Name = 
  2 active torsions:
  status: ('A' for Active; 'I' for Inactive)
    1  A    between atoms: N_4  and  C_37
    2  A    between atoms: C_23  and  C_30
                            x       y       z     vdW  Elec       q    Type
                         _______ _______ _______ _____ _____    ______ ____

>  <TORSDO>
F 2

$$$$
=
 OpenBabel11112417083D

 37 43  0  0  1  0  0  0  0  0999 V2000
  191.4160  172.3070  141.9820 C   0  0  0  0  0  2  0  0  0  0  0  0
  196.3740  173.0430  142.7530 C   0  0  0  0  0  0  0  0  0  0  0  0
  193.3940  175.3670  144.4800 C   0  0  0  0  0  0  0  0  0  0  0  0
  190.7310  171.5980  140.8960 N   0  0  0  0  0  0  0  0  0  0  0  0
  190.1220  175.9650  142.6770 O   0  0  0  0  0  0  0  0  0  0  0  0
  195.5580  174.3440  144.7010 C   0  0  0  0  0  0  0  0  0  0  0  0
  192.3420  175.2450  143.5940 C   0  0  0  0  0  0  0  0  0  0  0  0
  188.5260  172.7710  141.5540 C   0  0  2  0  0  3  0  0  0  0  0  0
  194.4070  174.6040  143.9960 C   0  0  0  0  0  0  0  0  0  0  0  0
  190.9800  175.8980  143.8050 C   0  0  2  0  0  3  0  0  0  0  0  0
  195.6910  174.9160  145.9800 C   0  0  0  0  0  3  0  0  0  0  0  0
  189.4610  172.2150  140.4540 C   0  0  0  0  0  2  0  0  0  0  0  0
  194.0780  173.9820  142.8660 N   0  0  0  0  0  0  0  0  0  0  0  0
  197.0580  171.7010  142.6000 C   0  0  0  0  0  1  0  0  0  0  0  0
  192.2440  176.5470  146.3760 C   0  0  0  0  0  2  0  0  0  0  0  0
  194.6310  175.6950  146.5130 C   0  0  0  0  0  3  0  0  0  0  0  0
  194.8930  172.9070  142.3000 C   0  0  0  0  0  2  0  0  0  0  0  0
  188.6250  174.2930  141.7140 C   0  0  0  0  0  2  0  0  0  0  0  0
  190.0250  174.6780  142.1480 C   0  0  1  0  0  3  0  0  0  0  0  0
  193.4520  175.9140  145.7630 C   0  0  0  0  0  0  0  0  0  0  0  0
  192.7930  174.3340  142.6080 C   0  0  0  0  0  0  0  0  0  0  0  0
  196.4960  173.4790  144.1250 O   0  0  0  0  0  0  0  0  0  0  0  0
  190.2510  175.4840  145.1030 C   0  0  1  0  0  3  0  0  0  0  0  0
  197.0740  174.0430  141.8510 C   0  0  0  0  0  1  0  0  0  0  0  0
  190.9300  174.5380  141.0870 O   0  0  0  0  0  0  0  0  0  0  0  0
  188.6610  172.1170  142.7670 F   0  0  0  0  0  0  0  0  0  0  0  0
  191.9530  173.6800  141.5350 C   0  0  2  0  0  3  0  0  0  0  0  0
  191.0930  175.5350  146.3980 C   0  0  0  0  0  2  0  0  0  0  0  0
  188.5970  177.1850  144.3190 C   0  0  0  0  0  3  0  0  0  0  0  0
  188.9740  176.2460  145.2840 C   0  0  0  0  0  0  0  0  0  0  0  0
  188.1610  176.0420  146.4100 C   0  0  0  0  0  3  0  0  0  0  0  0
  186.1770  176.5670  147.6760 O   0  0  0  0  0  1  0  0  0  0  0  0
  186.6060  177.7080  145.5950 C   0  0  0  0  0  3  0  0  0  0  0  0
  186.9790  176.7720  146.5630 C   0  0  0  0  0  0  0  0  0  0  0  0
  187.4140  177.9160  144.4730 C   0  0  0  0  0  3  0  0  0  0  0  0
  191.5690  169.7500  142.2380 C   0  0  0  0  0  1  0  0  0  0  0  0
  190.4410  170.2480  141.3540 C   0  0  0  0  0  2  0  0  0  0  0  0
  2 22  1  0  0  0  0
  3 20  1  0  0  0  0
  4 37  1  0  0  0  0
  4  1  1  0  0  0  0
  6 11  2  0  0  0  0
  7 10  1  0  0  0  0
  7  3  1  0  0  0  0
  8 18  1  0  0  0  0
  8 26  1  1  0  0  0
  9  3  2  0  0  0  0
  9  6  1  0  0  0  0
 10  5  1  6  0  0  0
 10 23  1  0  0  0  0
 11 16  1  0  0  0  0
 12  4  1  0  0  0  0
 12  8  1  0  0  0  0
 13  9  1  0  0  0  0
 14  2  1  0  0  0  0
 15 28  1  0  0  0  0
 17  2  1  0  0  0  0
 17 13  1  0  0  0  0
 19 18  1  6  0  0  0
 19  5  1  0  0  0  0
 20 15  1  0  0  0  0
 20 16  2  0  0  0  0
 21 13  1  0  0  0  0
 21  7  2  0  0  0  0
 22  6  1  0  0  0  0
 23 30  1  1  0  0  0
 23 28  1  0  0  0  0
 24  2  1  0  0  0  0
 25 27  1  0  0  0  0
 25 19  1  0  0  0  0
 27  1  1  1  0  0  0
 27 21  1  0  0  0  0
 29 35  2  0  0  0  0
 29 30  1  0  0  0  0
 30 31  2  0  0  0  0
 31 34  1  0  0  0  0
 33 34  2  0  0  0  0
 34 32  1  0  0  0  0
 35 33  1  0  0  0  0
 37 36  1  0  0  0  0
M  END
>  <MODEL>
7

>  <REMARK>
 VINA RESULT:      -8.3      2.202      3.466
  Name = 
  2 active torsions:
  status: ('A' for Active; 'I' for Inactive)
    1  A    between atoms: N_4  and  C_37
    2  A    between atoms: C_23  and  C_30
                            x       y       z     vdW  Elec       q    Type
                         _______ _______ _______ _____ _____    ______ ____

>  <TORSDO>
F 2

$$$$
=
 OpenBabel11112417083D

 37 43  0  0  1  0  0  0  0  0999 V2000
  193.8210  174.8730  142.4070 C   0  0  0  0  0  2  0  0  0  0  0  0
  192.5050  172.2460  138.2730 C   0  0  0  0  0  0  0  0  0  0  0  0
  189.7730  173.9560  140.8950 C   0  0  0  0  0  0  0  0  0  0  0  0
  195.0830  174.8710  143.1570 N   0  0  0  0  0  0  0  0  0  0  0  0
  190.5800  174.2960  144.5750 O   0  0  0  0  0  0  0  0  0  0  0  0
  190.3290  173.3820  138.6280 C   0  0  0  0  0  0  0  0  0  0  0  0
  190.4680  174.0120  142.0860 C   0  0  0  0  0  0  0  0  0  0  0  0
  193.8710  175.9850  145.1470 C   0  0  2  0  0  3  0  0  0  0  0  0
  190.6170  173.4300  139.9710 C   0  0  0  0  0  0  0  0  0  0  0  0
  189.8960  174.6040  143.3710 C   0  0  2  0  0  3  0  0  0  0  0  0
  189.0870  173.8890  138.2010 C   0  0  0  0  0  3  0  0  0  0  0  0
  194.9340  174.9900  144.6240 C   0  0  0  0  0  2  0  0  0  0  0  0
  191.8170  173.1590  140.4780 N   0  0  0  0  0  0  0  0  0  0  0  0
  193.6210  172.4080  137.2630 C   0  0  0  0  0  1  0  0  0  0  0  0
  187.7410  175.3040  141.5010 C   0  0  0  0  0  2  0  0  0  0  0  0
  188.2030  174.4650  139.1500 C   0  0  0  0  0  3  0  0  0  0  0  0
  192.9690  172.8400  139.6330 C   0  0  0  0  0  2  0  0  0  0  0  0
  192.5680  175.3010  145.5770 C   0  0  0  0  0  2  0  0  0  0  0  0
  191.9240  174.6190  144.3870 C   0  0  1  0  0  3  0  0  0  0  0  0
  188.5530  174.5190  140.5190 C   0  0  0  0  0  0  0  0  0  0  0  0
  191.7660  173.5380  141.7790 C   0  0  0  0  0  0  0  0  0  0  0  0
  191.3140  172.8870  137.7660 O   0  0  0  0  0  0  0  0  0  0  0  0
  189.4650  176.0850  143.2730 C   0  0  1  0  0  3  0  0  0  0  0  0
  192.2330  170.7640  138.4530 C   0  0  0  0  0  1  0  0  0  0  0  0
  192.6370  173.4660  144.0300 O   0  0  0  0  0  0  0  0  0  0  0  0
  193.6360  177.0390  144.2810 F   0  0  0  0  0  0  0  0  0  0  0  0
  192.9840  173.6060  142.6730 C   0  0  2  0  0  3  0  0  0  0  0  0
  188.5870  176.4550  142.0570 C   0  0  0  0  0  2  0  0  0  0  0  0
  189.5990  177.2180  145.4970 C   0  0  0  0  0  3  0  0  0  0  0  0
  188.8210  176.5550  144.5410 C   0  0  0  0  0  0  0  0  0  0  0  0
  187.4580  176.3310  144.7880 C   0  0  0  0  0  3  0  0  0  0  0  0
  185.5320  176.5480  146.2240 O   0  0  0  0  0  1  0  0  0  0  0  0
  187.6610  177.4320  146.9340 C   0  0  0  0  0  3  0  0  0  0  0  0
  186.8810  176.7710  145.9830 C   0  0  0  0  0  0  0  0  0  0  0  0
  189.0200  177.6560  146.6920 C   0  0  0  0  0  3  0  0  0  0  0  0
  197.2420  175.9730  143.3610 C   0  0  0  0  0  1  0  0  0  0  0  0
  195.8810  175.9950  142.6910 C   0  0  0  0  0  2  0  0  0  0  0  0
  1  4  1  0  0  0  0
  2 24  1  0  0  0  0
  2 17  1  0  0  0  0
  3  7  1  0  0  0  0
  4 12  1  0  0  0  0
  6  9  1  0  0  0  0
  8 26  1  6  0  0  0
  8 18  1  0  0  0  0
  9 13  1  0  0  0  0
  9  3  2  0  0  0  0
 10  7  1  6  0  0  0
 10  5  1  0  0  0  0
 11  6  2  0  0  0  0
 11 16  1  0  0  0  0
 12  8  1  0  0  0  0
 13 21  1  0  0  0  0
 14  2  1  0  0  0  0
 15 28  1  0  0  0  0
 16 20  2  0  0  0  0
 17 13  1  0  0  0  0
 19  5  1  0  0  0  0
 19 18  1  1  0  0  0
 20  3  1  0  0  0  0
 20 15  1  0  0  0  0
 21  7  2  0  0  0  0
 21 27  1  0  0  0  0
 22  2  1  0  0  0  0
 22  6  1  0  0  0  0
 23 10  1  0  0  0  0
 23 30  1  1  0  0  0
 25 19  1  0  0  0  0
 27  1  1  1  0  0  0
 27 25  1  0  0  0  0
 28 23  1  0  0  0  0
 29 35  1  0  0  0  0
 30 31  1  0  0  0  0
 30 29  2  0  0  0  0
 31 34  2  0  0  0  0
 34 32  1  0  0  0  0
 34 33  1  0  0  0  0
 35 33  2  0  0  0  0
 37  4  1  0  0  0  0
 37 36  1  0  0  0  0
M  END
>  <MODEL>
8

>  <REMARK>
 VINA RESULT:      -8.3      2.794      6.316
  Name = 
  2 active torsions:
  status: ('A' for Active; 'I' for Inactive)
    1  A    between atoms: N_4  and  C_37
    2  A    between atoms: C_23  and  C_30
                            x       y       z     vdW  Elec       q    Type
                         _______ _______ _______ _____ _____    ______ ____

>  <TORSDO>
F 2

$$$$
=
 OpenBabel11112417083D

 37 43  0  0  1  0  0  0  0  0999 V2000
  191.4360  172.4160  142.1010 C   0  0  0  0  0  2  0  0  0  0  0  0
  190.3230  176.9260  144.1360 C   0  0  0  0  0  0  0  0  0  0  0  0
  193.5450  174.5860  145.3190 C   0  0  0  0  0  0  0  0  0  0  0  0
  190.5830  171.4930  141.3440 N   0  0  0  0  0  0  0  0  0  0  0  0
  193.3590  170.8120  145.1450 O   0  0  0  0  0  0  0  0  0  0  0  0
  192.6660  176.7910  144.9390 C   0  0  0  0  0  0  0  0  0  0  0  0
  193.1440  173.3060  144.9960 C   0  0  0  0  0  0  0  0  0  0  0  0
  192.2970  169.6070  141.7640 C   0  0  2  0  0  3  0  0  0  0  0  0
  192.5470  175.4210  144.9330 C   0  0  0  0  0  0  0  0  0  0  0  0
  194.0130  172.0690  145.2070 C   0  0  2  0  0  3  0  0  0  0  0  0
  193.8780  177.3460  145.3880 C   0  0  0  0  0  3  0  0  0  0  0  0
  190.8250  170.0590  141.6170 C   0  0  0  0  0  2  0  0  0  0  0  0
  191.5350  174.7710  144.3640 N   0  0  0  0  0  0  0  0  0  0  0  0
  189.6250  177.7420  143.0690 C   0  0  0  0  0  1  0  0  0  0  0  0
  195.9480  174.1620  145.9170 C   0  0  0  0  0  2  0  0  0  0  0  0
  194.9420  176.4880  145.7720 C   0  0  0  0  0  3  0  0  0  0  0  0
  190.4740  175.4640  143.6320 C   0  0  0  0  0  2  0  0  0  0  0  0
  192.7300  169.4390  143.2260 C   0  0  0  0  0  2  0  0  0  0  0  0
  192.6480  170.7690  143.9460 C   0  0  1  0  0  3  0  0  0  0  0  0
  194.7860  175.0830  145.7230 C   0  0  0  0  0  0  0  0  0  0  0  0
  191.8890  173.4610  144.3600 C   0  0  0  0  0  0  0  0  0  0  0  0
  191.5930  177.5410  144.4430 O   0  0  0  0  0  0  0  0  0  0  0  0
  195.3700  172.0900  144.4690 C   0  0  1  0  0  3  0  0  0  0  0  0
  189.4570  176.9280  145.3830 C   0  0  0  0  0  1  0  0  0  0  0  0
  191.3120  171.1240  144.1820 O   0  0  0  0  0  0  0  0  0  0  0  0
  193.1840  170.3960  141.0520 F   0  0  0  0  0  0  0  0  0  0  0  0
  191.1210  172.3960  143.6100 C   0  0  2  0  0  3  0  0  0  0  0  0
  196.2040  173.3820  144.6220 C   0  0  0  0  0  2  0  0  0  0  0  0
  196.8570  170.2000  143.7880 C   0  0  0  0  0  3  0  0  0  0  0  0
  196.2020  170.8930  144.8120 C   0  0  0  0  0  0  0  0  0  0  0  0
  196.3220  170.4500  146.1380 C   0  0  0  0  0  3  0  0  0  0  0  0
  197.2140  168.8880  147.7460 O   0  0  0  0  0  1  0  0  0  0  0  0
  197.7490  168.6350  145.4070 C   0  0  0  0  0  3  0  0  0  0  0  0
  197.0960  169.3230  146.4330 C   0  0  0  0  0  0  0  0  0  0  0  0
  197.6300  169.0730  144.0850 C   0  0  0  0  0  3  0  0  0  0  0  0
  191.2190  173.1740  139.7050 C   0  0  0  0  0  1  0  0  0  0  0  0
  190.8150  171.7290  139.9270 C   0  0  0  0  0  2  0  0  0  0  0  0
  2 22  1  0  0  0  0
  2 24  1  0  0  0  0
  3 20  1  0  0  0  0
  4 12  1  0  0  0  0
  4  1  1  0  0  0  0
  5 10  1  0  0  0  0
  6 11  2  0  0  0  0
  7  3  1  0  0  0  0
  8 26  1  1  0  0  0
  8 18  1  0  0  0  0
  9  6  1  0  0  0  0
  9  3  2  0  0  0  0
 10  7  1  6  0  0  0
 11 16  1  0  0  0  0
 12  8  1  0  0  0  0
 13  9  1  0  0  0  0
 14  2  1  0  0  0  0
 17  2  1  0  0  0  0
 17 13  1  0  0  0  0
 19 18  1  1  0  0  0
 19 25  1  0  0  0  0
 19  5  1  0  0  0  0
 20 16  2  0  0  0  0
 20 15  1  0  0  0  0
 21 13  1  0  0  0  0
 21  7  2  0  0  0  0
 22  6  1  0  0  0  0
 23 28  1  0  0  0  0
 23 30  1  1  0  0  0
 23 10  1  0  0  0  0
 27  1  1  6  0  0  0
 27 25  1  0  0  0  0
 27 21  1  0  0  0  0
 28 15  1  0  0  0  0
 29 35  2  0  0  0  0
 29 30  1  0  0  0  0
 30 31  2  0  0  0  0
 31 34  1  0  0  0  0
 33 34  2  0  0  0  0
 34 32  1  0  0  0  0
 35 33  1  0  0  0  0
 36 37  1  0  0  0  0
 37  4  1  0  0  0  0
M  END
>  <MODEL>
9

>  <REMARK>
 VINA RESULT:      -8.1      3.295      8.374
  Name = 
  2 active torsions:
  status: ('A' for Active; 'I' for Inactive)
    1  A    between atoms: N_4  and  C_37
    2  A    between atoms: C_23  and  C_30
                            x       y       z     vdW  Elec       q    Type
                         _______ _______ _______ _____ _____    ______ ____

>  <TORSDO>
F 2

$$$$
