=
 OpenBabel11112417003D

 31 35  0  0  1  0  0  0  0  0999 V2000
  184.8340  178.1640  146.7940 C   0  0  0  0  0  0  0  0  0  0  0  0
  187.4510  175.8500  145.4160 C   0  0  2  0  0  3  0  0  0  0  0  0
  187.4770  176.4600  144.0210 C   0  0  0  0  0  0  0  0  0  0  0  0
  186.5590  177.8980  142.2880 C   0  0  0  0  0  0  0  0  0  0  0  0
  186.8460  176.7250  146.5260 C   0  0  2  0  0  3  0  0  0  0  0  0
  185.6600  179.2660  147.4110 C   0  0  0  0  0  2  0  0  0  0  0  0
  186.5510  177.4280  143.6050 C   0  0  0  0  0  3  0  0  0  0  0  0
  189.7460  176.6470  146.1870 C   0  0  2  0  0  3  0  0  0  0  0  0
  183.4710  178.3640  146.6260 O   0  0  0  0  0  1  0  0  0  0  0  0
  189.3480  174.9100  143.5040 C   0  0  0  0  0  3  0  0  0  0  0  0
  185.6480  178.8670  141.8920 O   0  0  0  0  0  1  0  0  0  0  0  0
  189.0790  177.5110  147.2620 C   0  0  0  0  0  2  0  0  0  0  0  0
  188.8790  175.4220  145.8350 C   0  0  2  0  0  3  0  0  0  0  0  0
  185.3840  177.0310  146.3440 C   0  0  0  0  0  3  0  0  0  0  0  0
  187.4790  177.3860  141.3690 C   0  0  0  0  0  3  0  0  0  0  0  0
  187.7010  177.9630  146.8010 C   0  0  2  0  0  3  0  0  0  0  0  0
  187.0330  178.7890  147.8910 C   0  0  0  0  0  2  0  0  0  0  0  0
  189.5250  174.6480  144.7670 N   0  0  0  0  0  0  0  0  0  0  0  0
  188.3950  175.9470  143.0850 C   0  0  0  0  0  0  0  0  0  0  0  0
  188.3940  176.4070  141.7650 C   0  0  0  0  0  3  0  0  0  0  0  0
  192.2020  176.9050  144.7480 O   0  0  0  0  0  0  0  0  0  0  0  0
  192.2480  176.3760  145.8910 C   0  0  0  0  0  0  0  0  0  0  0  0
  191.0510  176.2050  146.6570 N   0  0  0  0  0  2  0  0  0  0  0  0
  195.6700  176.1180  144.5220 C   0  0  1  0  0  3  0  0  0  0  0  0
  194.5590  177.0730  146.5440 C   0  0  0  0  0  2  0  0  0  0  0  0
  193.2870  173.5780  145.4720 C   0  0  0  0  0  1  0  0  0  0  0  0
  196.2970  176.4510  143.1840 C   0  0  0  0  0  1  0  0  0  0  0  0
  195.1870  177.4060  145.1890 C   0  0  0  0  0  2  0  0  0  0  0  0
  194.2080  174.7780  145.5990 C   0  0  2  0  0  3  0  0  0  0  0  0
  193.5700  175.9100  146.4290 C   0  0  2  0  0  3  0  0  0  0  0  0
  194.5870  175.2420  144.3250 O   0  0  0  0  0  0  0  0  0  0  0  0
  1  6  1  0  0  0  0
  2  3  1  6  0  0  0
  2 13  1  0  0  0  0
  2  5  1  0  0  0  0
  4  7  2  0  0  0  0
  5 14  1  6  0  0  0
  5 16  1  0  0  0  0
  6 17  1  0  0  0  0
  7  3  1  0  0  0  0
  8 23  1  1  0  0  0
  8 12  1  0  0  0  0
  9  1  1  0  0  0  0
 10 18  2  0  0  0  0
 11  4  1  0  0  0  0
 13 18  1  6  0  0  0
 13  8  1  0  0  0  0
 14  1  2  0  0  0  0
 15 20  2  0  0  0  0
 15  4  1  0  0  0  0
 16 12  1  1  0  0  0
 16 17  1  0  0  0  0
 19 10  1  0  0  0  0
 19  3  2  0  0  0  0
 20 19  1  0  0  0  0
 21 22  2  0  0  0  0
 22 23  1  0  0  0  0
 24 27  1  6  0  0  0
 24 28  1  0  0  0  0
 28 25  1  0  0  0  0
 29 26  1  6  0  0  0
 29 30  1  0  0  0  0
 30 22  1  6  0  0  0
 30 25  1  0  0  0  0
 31 24  1  0  0  0  0
 31 29  1  0  0  0  0
M  END
>  <MODEL>
1

>  <REMARK>
 VINA RESULT:      -8.9      0.000      0.000
  Name = 
  2 active torsions:
  status: ('A' for Active; 'I' for Inactive)
    1  A    between atoms: C_5  and  C_30
    2  A    between atoms: C_10  and  N_16
                            x       y       z     vdW  Elec       q    Type
                         _______ _______ _______ _____ _____    ______ ____

>  <TORSDO>
F 2

$$$$
=
 OpenBabel11112417003D

 31 35  0  0  1  0  0  0  0  0999 V2000
  194.5630  176.2340  144.9570 C   0  0  0  0  0  0  0  0  0  0  0  0
  191.1690  176.7040  143.4200 C   0  0  2  0  0  3  0  0  0  0  0  0
  191.0500  175.2880  142.8740 C   0  0  0  0  0  0  0  0  0  0  0  0
  191.9900  173.1170  142.3080 C   0  0  0  0  0  0  0  0  0  0  0  0
  192.2070  176.9140  144.5350 C   0  0  2  0  0  3  0  0  0  0  0  0
  194.2310  175.8340  146.3730 C   0  0  0  0  0  2  0  0  0  0  0  0
  192.1180  174.3790  142.8980 C   0  0  0  0  0  3  0  0  0  0  0  0
  189.4020  176.5210  145.2490 C   0  0  2  0  0  3  0  0  0  0  0  0
  195.8650  176.0740  144.5030 O   0  0  0  0  0  1  0  0  0  0  0  0
  188.7450  175.8800  142.1620 C   0  0  0  0  0  3  0  0  0  0  0  0
  193.0480  172.2210  142.3520 O   0  0  0  0  0  1  0  0  0  0  0  0
  190.4880  176.7180  146.3110 C   0  0  0  0  0  2  0  0  0  0  0  0
  189.7880  177.1980  143.9190 C   0  0  2  0  0  3  0  0  0  0  0  0
  193.6300  176.6760  144.1070 C   0  0  0  0  0  3  0  0  0  0  0  0
  190.8000  172.7630  141.6670 C   0  0  0  0  0  3  0  0  0  0  0  0
  191.8210  176.1740  145.8160 C   0  0  2  0  0  3  0  0  0  0  0  0
  192.9000  176.4100  146.8630 C   0  0  0  0  0  2  0  0  0  0  0  0
  188.7500  176.9430  142.9130 N   0  0  0  0  0  0  0  0  0  0  0  0
  189.8570  174.9220  142.2190 C   0  0  0  0  0  0  0  0  0  0  0  0
  189.7350  173.6660  141.6180 C   0  0  0  0  0  3  0  0  0  0  0  0
  187.8590  175.4750  147.4160 O   0  0  0  0  0  0  0  0  0  0  0  0
  187.4240  176.5040  146.8320 C   0  0  0  0  0  0  0  0  0  0  0  0
  188.1430  177.0690  145.7320 N   0  0  0  0  0  2  0  0  0  0  0  0
  185.1570  179.1050  145.5090 C   0  0  1  0  0  3  0  0  0  0  0  0
  184.9830  176.7600  146.3490 C   0  0  0  0  0  2  0  0  0  0  0  0
  187.3080  179.0700  148.4090 C   0  0  0  0  0  1  0  0  0  0  0  0
  185.1630  179.9770  144.2710 C   0  0  0  0  0  1  0  0  0  0  0  0
  184.9970  177.6410  145.0980 C   0  0  0  0  0  2  0  0  0  0  0  0
  186.2030  178.6490  147.4560 C   0  0  2  0  0  3  0  0  0  0  0  0
  186.1340  177.1170  147.2940 C   0  0  2  0  0  3  0  0  0  0  0  0
  186.3660  179.2800  146.2090 O   0  0  0  0  0  0  0  0  0  0  0  0
  1  6  1  0  0  0  0
  2  3  1  1  0  0  0
  2 13  1  0  0  0  0
  2  5  1  0  0  0  0
  3  7  1  0  0  0  0
  4 11  1  0  0  0  0
  4  7  2  0  0  0  0
  5 14  1  6  0  0  0
  5 16  1  0  0  0  0
  6 17  1  0  0  0  0
  8 23  1  1  0  0  0
  8 12  1  0  0  0  0
  9  1  1  0  0  0  0
 10 19  1  0  0  0  0
 10 18  2  0  0  0  0
 13 18  1  6  0  0  0
 13  8  1  0  0  0  0
 14  1  2  0  0  0  0
 15  4  1  0  0  0  0
 16 12  1  1  0  0  0
 16 17  1  0  0  0  0
 19  3  2  0  0  0  0
 20 15  2  0  0  0  0
 20 19  1  0  0  0  0
 22 21  2  0  0  0  0
 23 22  1  0  0  0  0
 24 27  1  6  0  0  0
 24 31  1  0  0  0  0
 25 30  1  0  0  0  0
 28 24  1  0  0  0  0
 28 25  1  0  0  0  0
 29 26  1  1  0  0  0
 30 22  1  6  0  0  0
 30 29  1  0  0  0  0
 31 29  1  0  0  0  0
M  END
>  <MODEL>
2

>  <REMARK>
 VINA RESULT:      -8.5      2.218      7.261
  Name = 
  2 active torsions:
  status: ('A' for Active; 'I' for Inactive)
    1  A    between atoms: C_5  and  C_30
    2  A    between atoms: C_10  and  N_16
                            x       y       z     vdW  Elec       q    Type
                         _______ _______ _______ _____ _____    ______ ____

>  <TORSDO>
F 2

$$$$
=
 OpenBabel11112417003D

 31 35  0  0  1  0  0  0  0  0999 V2000
  192.4490  173.2690  141.9670 C   0  0  0  0  0  0  0  0  0  0  0  0
  191.2910  174.0860  145.4450 C   0  0  2  0  0  3  0  0  0  0  0  0
  192.3340  175.1640  145.7050 C   0  0  0  0  0  0  0  0  0  0  0  0
  194.3810  176.3520  145.1480 C   0  0  0  0  0  0  0  0  0  0  0  0
  191.0460  173.7240  143.9710 C   0  0  2  0  0  3  0  0  0  0  0  0
  191.5810  174.1600  141.1130 C   0  0  0  0  0  2  0  0  0  0  0  0
  193.3990  175.4100  144.8260 C   0  0  0  0  0  3  0  0  0  0  0  0
  189.2480  175.6040  145.3000 C   0  0  2  0  0  3  0  0  0  0  0  0
  193.5450  172.6470  141.3860 O   0  0  0  0  0  1  0  0  0  0  0  0
  191.1890  175.5850  147.8700 C   0  0  0  0  0  3  0  0  0  0  0  0
  195.4210  176.5980  144.2630 O   0  0  0  0  0  1  0  0  0  0  0  0
  189.0690  175.2150  143.8290 C   0  0  0  0  0  2  0  0  0  0  0  0
  189.9430  174.4830  146.0970 C   0  0  2  0  0  3  0  0  0  0  0  0
  192.2340  173.1150  143.2780 C   0  0  0  0  0  3  0  0  0  0  0  0
  194.3190  177.0400  146.3620 C   0  0  0  0  0  3  0  0  0  0  0  0
  190.4150  174.8840  143.1990 C   0  0  2  0  0  3  0  0  0  0  0  0
  190.2220  174.4620  141.7500 C   0  0  0  0  0  2  0  0  0  0  0  0
  190.1430  174.9120  147.4860 N   0  0  0  0  0  0  0  0  0  0  0  0
  192.2850  175.8590  146.9300 C   0  0  0  0  0  0  0  0  0  0  0  0
  193.2740  176.7910  147.2560 C   0  0  0  0  0  3  0  0  0  0  0  0
  188.6650  177.7950  147.0410 O   0  0  0  0  0  0  0  0  0  0  0  0
  187.7190  177.0160  146.7460 C   0  0  0  0  0  0  0  0  0  0  0  0
  187.9490  175.8930  145.8890 N   0  0  0  0  0  2  0  0  0  0  0  0
  184.7600  178.9430  145.6600 C   0  0  1  0  0  3  0  0  0  0  0  0
  185.2650  176.6300  146.4540 C   0  0  0  0  0  2  0  0  0  0  0  0
  187.0690  179.4580  148.3880 C   0  0  0  0  0  1  0  0  0  0  0  0
  184.4420  179.7910  144.4460 C   0  0  0  0  0  1  0  0  0  0  0  0
  184.9510  177.4890  145.2280 C   0  0  0  0  0  2  0  0  0  0  0  0
  186.0390  178.7680  147.5110 C   0  0  2  0  0  3  0  0  0  0  0  0
  186.3550  177.2710  147.3190 C   0  0  2  0  0  3  0  0  0  0  0  0
  185.9330  179.4230  146.2710 O   0  0  0  0  0  0  0  0  0  0  0  0
  1 14  2  0  0  0  0
  2  3  1  6  0  0  0
  2 13  1  0  0  0  0
  3 19  1  0  0  0  0
  4 15  2  0  0  0  0
  5 14  1  6  0  0  0
  5  2  1  0  0  0  0
  6 17  1  0  0  0  0
  6  1  1  0  0  0  0
  7  4  1  0  0  0  0
  7  3  2  0  0  0  0
  8 23  1  1  0  0  0
  8 13  1  0  0  0  0
  9  1  1  0  0  0  0
 11  4  1  0  0  0  0
 12  8  1  0  0  0  0
 13 18  1  1  0  0  0
 15 20  1  0  0  0  0
 16 17  1  6  0  0  0
 16 12  1  0  0  0  0
 16  5  1  0  0  0  0
 18 10  2  0  0  0  0
 19 20  2  0  0  0  0
 19 10  1  0  0  0  0
 22 21  2  0  0  0  0
 23 22  1  0  0  0  0
 24 27  1  6  0  0  0
 24 31  1  0  0  0  0
 25 30  1  0  0  0  0
 28 24  1  0  0  0  0
 28 25  1  0  0  0  0
 29 26  1  1  0  0  0
 30 22  1  6  0  0  0
 30 29  1  0  0  0  0
 31 29  1  0  0  0  0
M  END
>  <MODEL>
3

>  <REMARK>
 VINA RESULT:      -8.3      2.043      7.820
  Name = 
  2 active torsions:
  status: ('A' for Active; 'I' for Inactive)
    1  A    between atoms: C_5  and  C_30
    2  A    between atoms: C_10  and  N_16
                            x       y       z     vdW  Elec       q    Type
                         _______ _______ _______ _____ _____    ______ ____

>  <TORSDO>
F 2

$$$$
=
 OpenBabel11112417003D

 31 35  0  0  1  0  0  0  0  0999 V2000
  185.1090  177.8270  146.7300 C   0  0  0  0  0  0  0  0  0  0  0  0
  187.5120  175.7710  144.7040 C   0  0  2  0  0  3  0  0  0  0  0  0
  187.1640  176.4030  143.3640 C   0  0  0  0  0  0  0  0  0  0  0  0
  185.7560  177.7840  141.9410 C   0  0  0  0  0  0  0  0  0  0  0  0
  187.1120  176.5720  145.9550 C   0  0  2  0  0  3  0  0  0  0  0  0
  185.9640  178.9850  147.1790 C   0  0  0  0  0  2  0  0  0  0  0  0
  186.0920  177.2940  143.2070 C   0  0  0  0  0  3  0  0  0  0  0  0
  189.8520  176.7510  144.9550 C   0  0  2  0  0  3  0  0  0  0  0  0
  183.7320  177.9100  146.8870 O   0  0  0  0  0  1  0  0  0  0  0  0
  188.9820  175.0300  142.3750 C   0  0  0  0  0  3  0  0  0  0  0  0
  184.7030  178.6770  141.8000 O   0  0  0  0  0  1  0  0  0  0  0  0
  189.3850  177.5360  146.1850 C   0  0  0  0  0  2  0  0  0  0  0  0
  189.0280  175.4620  144.7670 C   0  0  2  0  0  3  0  0  0  0  0  0
  185.6290  176.7530  146.1250 C   0  0  0  0  0  3  0  0  0  0  0  0
  186.4750  177.3700  140.8170 C   0  0  0  0  0  3  0  0  0  0  0  0
  187.9050  177.8750  146.0700 C   0  0  2  0  0  3  0  0  0  0  0  0
  187.4450  178.6210  147.3130 C   0  0  0  0  0  2  0  0  0  0  0  0
  189.4680  174.7640  143.5530 N   0  0  0  0  0  0  0  0  0  0  0  0
  187.8780  175.9870  142.2230 C   0  0  0  0  0  0  0  0  0  0  0  0
  187.5330  176.4670  140.9570 C   0  0  0  0  0  3  0  0  0  0  0  0
  191.9380  177.5820  143.1880 O   0  0  0  0  0  0  0  0  0  0  0  0
  192.2610  176.8760  144.1810 C   0  0  0  0  0  0  0  0  0  0  0  0
  191.2610  176.4170  145.0960 N   0  0  0  0  0  2  0  0  0  0  0  0
  194.0610  173.7560  145.0020 C   0  0  1  0  0  3  0  0  0  0  0  0
  194.1870  175.5590  143.2790 C   0  0  0  0  0  2  0  0  0  0  0  0
  193.5640  176.7890  146.8970 C   0  0  0  0  0  1  0  0  0  0  0  0
  193.6290  172.3290  145.2680 C   0  0  0  0  0  1  0  0  0  0  0  0
  193.7440  174.1200  143.5510 C   0  0  0  0  0  2  0  0  0  0  0  0
  193.9940  175.8820  145.7580 C   0  0  2  0  0  3  0  0  0  0  0  0
  193.7030  176.5090  144.3800 C   0  0  2  0  0  3  0  0  0  0  0  0
  193.3790  174.6210  145.8770 O   0  0  0  0  0  0  0  0  0  0  0  0
  1  9  1  0  0  0  0
  1  6  1  0  0  0  0
  2  3  1  6  0  0  0
  2 13  1  0  0  0  0
  2  5  1  0  0  0  0
  4  7  2  0  0  0  0
  5 16  1  0  0  0  0
  5 14  1  6  0  0  0
  6 17  1  0  0  0  0
  7  3  1  0  0  0  0
  8 23  1  1  0  0  0
  8 12  1  0  0  0  0
 10 18  2  0  0  0  0
 11  4  1  0  0  0  0
 13 18  1  6  0  0  0
 13  8  1  0  0  0  0
 14  1  2  0  0  0  0
 15 20  2  0  0  0  0
 15  4  1  0  0  0  0
 16 12  1  1  0  0  0
 16 17  1  0  0  0  0
 19 10  1  0  0  0  0
 19  3  2  0  0  0  0
 20 19  1  0  0  0  0
 21 22  2  0  0  0  0
 22 23  1  0  0  0  0
 24 27  1  1  0  0  0
 24 31  1  0  0  0  0
 25 28  1  0  0  0  0
 25 30  1  0  0  0  0
 28 24  1  0  0  0  0
 29 31  1  0  0  0  0
 29 26  1  1  0  0  0
 30 22  1  6  0  0  0
 30 29  1  0  0  0  0
M  END
>  <MODEL>
4

>  <REMARK>
 VINA RESULT:      -8.0      1.194      1.909
  Name = 
  2 active torsions:
  status: ('A' for Active; 'I' for Inactive)
    1  A    between atoms: C_5  and  C_30
    2  A    between atoms: C_10  and  N_16
                            x       y       z     vdW  Elec       q    Type
                         _______ _______ _______ _____ _____    ______ ____

>  <TORSDO>
F 2

$$$$
=
 OpenBabel11112417003D

 31 35  0  0  1  0  0  0  0  0999 V2000
  190.0610  171.7440  141.9200 C   0  0  0  0  0  0  0  0  0  0  0  0
  189.6250  174.5850  144.3360 C   0  0  2  0  0  3  0  0  0  0  0  0
  190.9660  175.2430  144.0440 C   0  0  0  0  0  0  0  0  0  0  0  0
  193.1930  175.2400  143.0690 C   0  0  0  0  0  0  0  0  0  0  0  0
  189.1080  173.6010  143.2740 C   0  0  2  0  0  3  0  0  0  0  0  0
  189.4040  172.2720  140.6680 C   0  0  0  0  0  2  0  0  0  0  0  0
  191.9430  174.6380  143.2400 C   0  0  0  0  0  3  0  0  0  0  0  0
  188.1290  176.3530  143.2710 C   0  0  2  0  0  3  0  0  0  0  0  0
  190.8420  170.6000  141.8340 O   0  0  0  0  0  1  0  0  0  0  0  0
  190.2670  177.0760  145.5690 C   0  0  0  0  0  3  0  0  0  0  0  0
  194.1460  174.6390  142.2590 O   0  0  0  0  0  1  0  0  0  0  0  0
  187.6680  175.3290  142.2300 C   0  0  0  0  0  2  0  0  0  0  0  0
  188.5460  175.6680  144.5870 C   0  0  2  0  0  3  0  0  0  0  0  0
  189.9680  172.3800  143.0930 C   0  0  0  0  0  3  0  0  0  0  0  0
  193.4860  176.4410  143.7180 C   0  0  0  0  0  3  0  0  0  0  0  0
  188.7670  174.3100  141.9620 C   0  0  2  0  0  3  0  0  0  0  0  0
  188.2850  173.2760  140.9560 C   0  0  0  0  0  2  0  0  0  0  0  0
  189.0300  176.6740  145.5400 N   0  0  0  0  0  0  0  0  0  0  0  0
  191.2740  176.4510  144.7000 C   0  0  0  0  0  0  0  0  0  0  0  0
  192.5290  177.0450  144.5380 C   0  0  0  0  0  3  0  0  0  0  0  0
  187.4970  178.6240  141.6550 O   0  0  0  0  0  0  0  0  0  0  0  0
  186.7830  178.4150  142.6730 C   0  0  0  0  0  0  0  0  0  0  0  0
  187.0560  177.3020  143.5300 N   0  0  0  0  0  2  0  0  0  0  0  0
  184.3310  178.7240  145.4190 C   0  0  1  0  0  3  0  0  0  0  0  0
  185.9630  180.1920  144.2300 C   0  0  0  0  0  2  0  0  0  0  0  0
  183.9180  177.8300  141.9450 C   0  0  0  0  0  1  0  0  0  0  0  0
  184.0680  177.9430  146.6900 C   0  0  0  0  0  1  0  0  0  0  0  0
  185.7000  179.3970  145.5110 C   0  0  0  0  0  2  0  0  0  0  0  0
  184.2970  178.6530  143.1630 C   0  0  2  0  0  3  0  0  0  0  0  0
  185.6560  179.3570  142.9830 C   0  0  2  0  0  3  0  0  0  0  0  0
  184.2960  177.8480  144.3180 O   0  0  0  0  0  0  0  0  0  0  0  0
  1 14  2  0  0  0  0
  2  3  1  6  0  0  0
  2 13  1  0  0  0  0
  3 19  1  0  0  0  0
  4  7  1  0  0  0  0
  4 15  2  0  0  0  0
  5 14  1  6  0  0  0
  5  2  1  0  0  0  0
  6 17  1  0  0  0  0
  6  1  1  0  0  0  0
  7  3  2  0  0  0  0
  8 23  1  1  0  0  0
  8 13  1  0  0  0  0
  9  1  1  0  0  0  0
 11  4  1  0  0  0  0
 12  8  1  0  0  0  0
 13 18  1  1  0  0  0
 15 20  1  0  0  0  0
 16 17  1  6  0  0  0
 16 12  1  0  0  0  0
 16  5  1  0  0  0  0
 18 10  2  0  0  0  0
 19 10  1  0  0  0  0
 20 19  2  0  0  0  0
 21 22  2  0  0  0  0
 22 23  1  0  0  0  0
 24 28  1  0  0  0  0
 24 27  1  1  0  0  0
 25 28  1  0  0  0  0
 29 26  1  6  0  0  0
 29 31  1  0  0  0  0
 30 22  1  1  0  0  0
 30 29  1  0  0  0  0
 30 25  1  0  0  0  0
 31 24  1  0  0  0  0
M  END
>  <MODEL>
5

>  <REMARK>
 VINA RESULT:      -7.8      2.488      7.827
  Name = 
  2 active torsions:
  status: ('A' for Active; 'I' for Inactive)
    1  A    between atoms: C_5  and  C_30
    2  A    between atoms: C_10  and  N_16
                            x       y       z     vdW  Elec       q    Type
                         _______ _______ _______ _____ _____    ______ ____

>  <TORSDO>
F 2

$$$$
=
 OpenBabel11112417003D

 31 35  0  0  1  0  0  0  0  0999 V2000
  185.6000  179.3050  143.5370 C   0  0  0  0  0  0  0  0  0  0  0  0
  188.7740  177.3000  143.4290 C   0  0  2  0  0  3  0  0  0  0  0  0
  188.5620  176.6030  144.7650 C   0  0  0  0  0  0  0  0  0  0  0  0
  187.4200  176.3470  146.8970 C   0  0  0  0  0  0  0  0  0  0  0  0
  187.5240  177.9190  142.7820 C   0  0  2  0  0  3  0  0  0  0  0  0
  184.6270  178.4210  142.7960 C   0  0  0  0  0  2  0  0  0  0  0  0
  187.5260  176.9560  145.6430 C   0  0  0  0  0  3  0  0  0  0  0  0
  188.4220  175.2770  141.9190 C   0  0  2  0  0  3  0  0  0  0  0  0
  185.1090  180.3820  144.2610 O   0  0  0  0  0  1  0  0  0  0  0  0
  190.6160  175.2940  144.2770 C   0  0  0  0  0  3  0  0  0  0  0  0
  186.3830  176.6930  147.7510 O   0  0  0  0  0  1  0  0  0  0  0  0
  187.1750  175.9420  141.3280 C   0  0  0  0  0  2  0  0  0  0  0  0
  189.4330  176.3270  142.4210 C   0  0  2  0  0  3  0  0  0  0  0  0
  186.9110  179.0430  143.5730 C   0  0  0  0  0  3  0  0  0  0  0  0
  188.3630  175.3950  147.2940 C   0  0  0  0  0  3  0  0  0  0  0  0
  186.5170  176.8500  142.3570 C   0  0  2  0  0  3  0  0  0  0  0  0
  185.3020  177.5340  141.7480 C   0  0  0  0  0  2  0  0  0  0  0  0
  190.5880  175.6530  143.0260 N   0  0  0  0  0  0  0  0  0  0  0  0
  189.5100  175.6470  145.1780 C   0  0  0  0  0  0  0  0  0  0  0  0
  189.4110  175.0480  146.4370 C   0  0  0  0  0  3  0  0  0  0  0  0
  187.8100  172.5250  141.4450 O   0  0  0  0  0  0  0  0  0  0  0  0
  188.6880  173.0620  140.7160 C   0  0  0  0  0  0  0  0  0  0  0  0
  189.0490  174.4330  140.9120 N   0  0  0  0  0  2  0  0  0  0  0  0
  191.9280  173.2440  138.9510 C   0  0  1  0  0  3  0  0  0  0  0  0
  190.6050  171.5390  140.2080 C   0  0  0  0  0  2  0  0  0  0  0  0
  188.5480  173.7500  137.7860 C   0  0  0  0  0  1  0  0  0  0  0  0
  193.1130  174.1840  139.0180 C   0  0  0  0  0  1  0  0  0  0  0  0
  191.7980  172.4950  140.2770 C   0  0  0  0  0  2  0  0  0  0  0  0
  189.7470  173.0520  138.4020 C   0  0  2  0  0  3  0  0  0  0  0  0
  189.3610  172.2410  139.6550 C   0  0  2  0  0  3  0  0  0  0  0  0
  190.7580  173.9850  138.6980 O   0  0  0  0  0  0  0  0  0  0  0  0
  1 14  2  0  0  0  0
  1  9  1  0  0  0  0
  2  3  1  1  0  0  0
  3 19  2  0  0  0  0
  3  7  1  0  0  0  0
  4 15  1  0  0  0  0
  4 11  1  0  0  0  0
  5  2  1  0  0  0  0
  5 14  1  1  0  0  0
  6  1  1  0  0  0  0
  7  4  2  0  0  0  0
  8 23  1  6  0  0  0
  8 13  1  0  0  0  0
 10 19  1  0  0  0  0
 12  8  1  0  0  0  0
 13 18  1  1  0  0  0
 13  2  1  0  0  0  0
 16 12  1  6  0  0  0
 16  5  1  0  0  0  0
 17 16  1  0  0  0  0
 17  6  1  0  0  0  0
 18 10  2  0  0  0  0
 19 20  1  0  0  0  0
 20 15  2  0  0  0  0
 22 23  1  0  0  0  0
 22 21  2  0  0  0  0
 24 27  1  1  0  0  0
 24 28  1  0  0  0  0
 25 28  1  0  0  0  0
 29 26  1  1  0  0  0
 29 31  1  0  0  0  0
 29 30  1  0  0  0  0
 30 25  1  0  0  0  0
 30 22  1  1  0  0  0
 31 24  1  0  0  0  0
M  END
>  <MODEL>
6

>  <REMARK>
 VINA RESULT:      -7.8      3.387      5.760
  Name = 
  2 active torsions:
  status: ('A' for Active; 'I' for Inactive)
    1  A    between atoms: C_5  and  C_30
    2  A    between atoms: C_10  and  N_16
                            x       y       z     vdW  Elec       q    Type
                         _______ _______ _______ _____ _____    ______ ____

>  <TORSDO>
F 2

$$$$
=
 OpenBabel11112417003D

 31 35  0  0  1  0  0  0  0  0999 V2000
  187.5560  177.1270  141.0320 C   0  0  0  0  0  0  0  0  0  0  0  0
  189.3750  177.4970  144.2960 C   0  0  2  0  0  3  0  0  0  0  0  0
  188.1270  177.4960  145.1690 C   0  0  0  0  0  0  0  0  0  0  0  0
  185.7180  177.6300  145.4730 C   0  0  0  0  0  0  0  0  0  0  0  0
  189.2100  176.9240  142.8790 C   0  0  2  0  0  3  0  0  0  0  0  0
  187.5480  175.6320  140.8270 C   0  0  0  0  0  2  0  0  0  0  0  0
  186.8320  177.5470  144.6320 C   0  0  0  0  0  3  0  0  0  0  0  0
  190.2900  175.2230  144.9940 C   0  0  2  0  0  3  0  0  0  0  0  0
  186.7400  177.9160  140.2340 O   0  0  0  0  0  1  0  0  0  0  0  0
  189.6440  177.5400  147.1360 C   0  0  0  0  0  3  0  0  0  0  0  0
  184.4410  177.6630  144.9300 O   0  0  0  0  0  1  0  0  0  0  0  0
  190.0850  174.7080  143.5660 C   0  0  0  0  0  2  0  0  0  0  0  0
  190.5240  176.7470  145.0130 C   0  0  2  0  0  3  0  0  0  0  0  0
  188.2720  177.7070  142.0010 C   0  0  0  0  0  3  0  0  0  0  0  0
  185.8900  177.6870  146.8580 C   0  0  0  0  0  3  0  0  0  0  0  0
  188.9150  175.4230  142.9060 C   0  0  2  0  0  3  0  0  0  0  0  0
  188.7450  174.9320  141.4760 C   0  0  0  0  0  2  0  0  0  0  0  0
  190.6640  177.2100  146.3990 N   0  0  0  0  0  0  0  0  0  0  0  0
  188.2890  177.5610  146.5670 C   0  0  0  0  0  0  0  0  0  0  0  0
  187.1760  177.6570  147.4050 C   0  0  0  0  0  3  0  0  0  0  0  0
  192.9910  175.3660  144.0700 O   0  0  0  0  0  0  0  0  0  0  0  0
  192.7610  174.6680  145.0940 C   0  0  0  0  0  0  0  0  0  0  0  0
  191.4280  174.5450  145.5990 N   0  0  0  0  0  2  0  0  0  0  0  0
  196.2390  173.8540  144.1490 C   0  0  1  0  0  3  0  0  0  0  0  0
  195.0500  174.9150  146.0710 C   0  0  0  0  0  2  0  0  0  0  0  0
  193.3470  171.7470  144.6380 C   0  0  0  0  0  1  0  0  0  0  0  0
  197.0860  174.1190  142.9220 C   0  0  0  0  0  1  0  0  0  0  0  0
  195.9000  175.1810  144.8280 C   0  0  0  0  0  2  0  0  0  0  0  0
  194.4370  172.7570  144.9520 C   0  0  2  0  0  3  0  0  0  0  0  0
  193.8980  173.9530  145.7630 C   0  0  2  0  0  3  0  0  0  0  0  0
  195.0570  173.1930  143.7650 O   0  0  0  0  0  0  0  0  0  0  0  0
  1 14  2  0  0  0  0
  2 13  1  0  0  0  0
  2  3  1  1  0  0  0
  3 19  1  0  0  0  0
  4 15  2  0  0  0  0
  5 14  1  1  0  0  0
  5 16  1  0  0  0  0
  5  2  1  0  0  0  0
  6  1  1  0  0  0  0
  6 17  1  0  0  0  0
  7  3  2  0  0  0  0
  7  4  1  0  0  0  0
  8 13  1  0  0  0  0
  8 23  1  6  0  0  0
  9  1  1  0  0  0  0
 11  4  1  0  0  0  0
 12  8  1  0  0  0  0
 13 18  1  1  0  0  0
 15 20  1  0  0  0  0
 16 17  1  6  0  0  0
 16 12  1  0  0  0  0
 18 10  2  0  0  0  0
 19 10  1  0  0  0  0
 19 20  2  0  0  0  0
 21 22  2  0  0  0  0
 22 23  1  0  0  0  0
 24 27  1  6  0  0  0
 24 28  1  0  0  0  0
 28 25  1  0  0  0  0
 29 26  1  6  0  0  0
 29 30  1  0  0  0  0
 30 22  1  6  0  0  0
 30 25  1  0  0  0  0
 31 24  1  0  0  0  0
 31 29  1  0  0  0  0
M  END
>  <MODEL>
7

>  <REMARK>
 VINA RESULT:      -7.7      1.522      4.067
  Name = 
  2 active torsions:
  status: ('A' for Active; 'I' for Inactive)
    1  A    between atoms: C_5  and  C_30
    2  A    between atoms: C_10  and  N_16
                            x       y       z     vdW  Elec       q    Type
                         _______ _______ _______ _____ _____    ______ ____

>  <TORSDO>
F 2

$$$$
=
 OpenBabel11112417003D

 31 35  0  0  1  0  0  0  0  0999 V2000
  194.6460  173.3490  141.1620 C   0  0  0  0  0  0  0  0  0  0  0  0
  192.7000  173.8720  144.3300 C   0  0  2  0  0  3  0  0  0  0  0  0
  193.4450  175.1260  144.7640 C   0  0  0  0  0  0  0  0  0  0  0  0
  195.2950  176.6940  144.5880 C   0  0  0  0  0  0  0  0  0  0  0  0
  192.8200  173.4920  142.8450 C   0  0  2  0  0  3  0  0  0  0  0  0
  193.8060  174.0690  140.1360 C   0  0  0  0  0  2  0  0  0  0  0  0
  194.5940  175.5860  144.1030 C   0  0  0  0  0  3  0  0  0  0  0  0
  190.4720  174.9700  143.7590 C   0  0  2  0  0  3  0  0  0  0  0  0
  195.9330  172.9580  140.8180 O   0  0  0  0  0  1  0  0  0  0  0  0
  191.8430  175.2840  146.6560 C   0  0  0  0  0  3  0  0  0  0  0  0
  196.4210  177.1500  143.9170 O   0  0  0  0  0  1  0  0  0  0  0  0
  190.6600  174.5770  142.2910 C   0  0  0  0  0  2  0  0  0  0  0  0
  191.2000  173.9910  144.7000 C   0  0  2  0  0  3  0  0  0  0  0  0
  194.2150  173.1350  142.4090 C   0  0  0  0  0  3  0  0  0  0  0  0
  194.8680  177.3380  145.7520 C   0  0  0  0  0  3  0  0  0  0  0  0
  192.1410  174.5220  141.9410 C   0  0  2  0  0  3  0  0  0  0  0  0
  192.3170  174.0940  140.4910 C   0  0  0  0  0  2  0  0  0  0  0  0
  191.0410  174.4290  146.0920 N   0  0  0  0  0  0  0  0  0  0  0  0
  193.0270  175.7790  145.9400 C   0  0  0  0  0  0  0  0  0  0  0  0
  193.7370  176.8780  146.4310 C   0  0  0  0  0  3  0  0  0  0  0  0
  188.7770  177.2670  143.6180 O   0  0  0  0  0  0  0  0  0  0  0  0
  188.2540  176.1770  143.9760 C   0  0  0  0  0  0  0  0  0  0  0  0
  189.0520  174.9940  144.0790 N   0  0  0  0  0  2  0  0  0  0  0  0
  185.5990  178.7250  144.3080 C   0  0  1  0  0  3  0  0  0  0  0  0
  185.9410  176.5620  143.1070 C   0  0  0  0  0  2  0  0  0  0  0  0
  187.2050  176.6230  146.7650 C   0  0  0  0  0  1  0  0  0  0  0  0
  185.5580  180.2310  144.1540 C   0  0  0  0  0  1  0  0  0  0  0  0
  185.9070  178.0840  142.9540 C   0  0  0  0  0  2  0  0  0  0  0  0
  186.4160  177.0100  145.5270 C   0  0  2  0  0  3  0  0  0  0  0  0
  186.7910  176.1420  144.3090 C   0  0  2  0  0  3  0  0  0  0  0  0
  186.5920  178.3780  145.2430 O   0  0  0  0  0  0  0  0  0  0  0  0
  1 14  2  0  0  0  0
  2 13  1  0  0  0  0
  2  3  1  6  0  0  0
  3 19  1  0  0  0  0
  4 15  2  0  0  0  0
  5 14  1  6  0  0  0
  5  2  1  0  0  0  0
  6 17  1  0  0  0  0
  6  1  1  0  0  0  0
  7  4  1  0  0  0  0
  7  3  2  0  0  0  0
  8 23  1  1  0  0  0
  8 13  1  0  0  0  0
  9  1  1  0  0  0  0
 11  4  1  0  0  0  0
 12  8  1  0  0  0  0
 13 18  1  1  0  0  0
 15 20  1  0  0  0  0
 16 17  1  6  0  0  0
 16 12  1  0  0  0  0
 16  5  1  0  0  0  0
 18 10  2  0  0  0  0
 19 20  2  0  0  0  0
 19 10  1  0  0  0  0
 21 22  2  0  0  0  0
 22 23  1  0  0  0  0
 24 27  1  6  0  0  0
 24 31  1  0  0  0  0
 25 30  1  0  0  0  0
 28 25  1  0  0  0  0
 28 24  1  0  0  0  0
 29 26  1  1  0  0  0
 30 22  1  6  0  0  0
 30 29  1  0  0  0  0
 31 29  1  0  0  0  0
M  END
>  <MODEL>
8

>  <REMARK>
 VINA RESULT:      -7.5      2.380      8.265
  Name = 
  2 active torsions:
  status: ('A' for Active; 'I' for Inactive)
    1  A    between atoms: C_5  and  C_30
    2  A    between atoms: C_10  and  N_16
                            x       y       z     vdW  Elec       q    Type
                         _______ _______ _______ _____ _____    ______ ____

>  <TORSDO>
F 2

$$$$
=
 OpenBabel11112417003D

 31 35  0  0  1  0  0  0  0  0999 V2000
  186.7170  177.8700  147.4690 C   0  0  0  0  0  0  0  0  0  0  0  0
  188.4060  175.4360  145.1610 C   0  0  2  0  0  3  0  0  0  0  0  0
  188.1050  176.2040  143.8810 C   0  0  0  0  0  0  0  0  0  0  0  0
  186.9430  177.9440  142.6420 C   0  0  0  0  0  0  0  0  0  0  0  0
  188.3060  176.2380  146.4690 C   0  0  2  0  0  3  0  0  0  0  0  0
  187.8500  178.7780  147.8770 C   0  0  0  0  0  2  0  0  0  0  0  0
  187.2590  177.3220  143.8540 C   0  0  0  0  0  3  0  0  0  0  0  0
  190.9220  175.8450  145.2290 C   0  0  2  0  0  3  0  0  0  0  0  0
  185.4140  178.2550  147.7550 O   0  0  0  0  0  1  0  0  0  0  0  0
  189.4710  174.5090  142.6820 C   0  0  0  0  0  3  0  0  0  0  0  0
  186.1170  179.0590  142.6300 O   0  0  0  0  0  1  0  0  0  0  0  0
  190.7510  176.6470  146.5220 C   0  0  0  0  0  2  0  0  0  0  0  0
  189.8100  174.7880  145.0730 C   0  0  2  0  0  3  0  0  0  0  0  0
  186.9230  176.7410  146.7820 C   0  0  0  0  0  3  0  0  0  0  0  0
  187.4530  177.4390  141.4430 C   0  0  0  0  0  3  0  0  0  0  0  0
  189.3850  177.3180  146.5560 C   0  0  2  0  0  3  0  0  0  0  0  0
  189.2120  178.0800  147.8620 C   0  0  0  0  0  2  0  0  0  0  0  0
  189.9760  174.0760  143.8000 N   0  0  0  0  0  0  0  0  0  0  0  0
  188.6090  175.6990  142.6660 C   0  0  0  0  0  0  0  0  0  0  0  0
  188.2820  176.3140  141.4540 C   0  0  0  0  0  3  0  0  0  0  0  0
  193.0510  176.3930  143.4030 O   0  0  0  0  0  0  0  0  0  0  0  0
  193.2540  175.5220  144.2910 C   0  0  0  0  0  0  0  0  0  0  0  0
  192.2230  175.1920  145.2270 N   0  0  0  0  0  2  0  0  0  0  0  0
  196.2220  175.4130  142.0950 C   0  0  1  0  0  3  0  0  0  0  0  0
  195.7270  175.8260  144.5070 C   0  0  0  0  0  2  0  0  0  0  0  0
  193.7680  172.8930  142.9100 C   0  0  0  0  0  1  0  0  0  0  0  0
  196.5830  176.0670  140.7780 C   0  0  0  0  0  1  0  0  0  0  0  0
  196.0840  176.4870  143.1740 C   0  0  0  0  0  2  0  0  0  0  0  0
  194.8560  173.9330  143.1130 C   0  0  2  0  0  3  0  0  0  0  0  0
  194.5810  174.8230  144.3420 C   0  0  2  0  0  3  0  0  0  0  0  0
  195.0090  174.7130  141.9520 O   0  0  0  0  0  0  0  0  0  0  0  0
  1  9  1  0  0  0  0
  1  6  1  0  0  0  0
  2  3  1  6  0  0  0
  2  5  1  0  0  0  0
  4  7  2  0  0  0  0
  5 16  1  0  0  0  0
  5 14  1  6  0  0  0
  7  3  1  0  0  0  0
  8 23  1  1  0  0  0
  8 12  1  0  0  0  0
 10 18  2  0  0  0  0
 11  4  1  0  0  0  0
 13 18  1  6  0  0  0
 13  2  1  0  0  0  0
 13  8  1  0  0  0  0
 14  1  2  0  0  0  0
 15 20  2  0  0  0  0
 15  4  1  0  0  0  0
 16 12  1  1  0  0  0
 16 17  1  0  0  0  0
 17  6  1  0  0  0  0
 19 10  1  0  0  0  0
 19  3  2  0  0  0  0
 20 19  1  0  0  0  0
 21 22  2  0  0  0  0
 22 23  1  0  0  0  0
 24 27  1  6  0  0  0
 24 28  1  0  0  0  0
 28 25  1  0  0  0  0
 29 26  1  6  0  0  0
 29 30  1  0  0  0  0
 30 22  1  6  0  0  0
 30 25  1  0  0  0  0
 31 24  1  0  0  0  0
 31 29  1  0  0  0  0
M  END
>  <MODEL>
9

>  <REMARK>
 VINA RESULT:      -7.5      1.413      1.859
  Name = 
  2 active torsions:
  status: ('A' for Active; 'I' for Inactive)
    1  A    between atoms: C_5  and  C_30
    2  A    between atoms: C_10  and  N_16
                            x       y       z     vdW  Elec       q    Type
                         _______ _______ _______ _____ _____    ______ ____

>  <TORSDO>
F 2

$$$$
