=
 OpenBabel11112416423D

 32 37  0  0  1  0  0  0  0  0999 V2000
  190.1600  174.5670  143.6550 C   0  0  1  0  0  3  0  0  0  0  0  0
  191.2390  176.5770  147.9880 C   0  0  0  0  0  3  0  0  0  0  0  0
  190.2410  177.5310  147.7820 C   0  0  0  0  0  3  0  0  0  0  0  0
  188.0360  175.1370  142.3960 C   0  0  2  0  0  3  0  0  0  0  0  0
  186.9330  176.2070  142.3330 C   0  0  2  0  0  3  0  0  0  0  0  0
  191.7380  173.3480  142.6120 C   0  0  2  0  0  3  0  0  0  0  0  0
  191.9250  173.5780  145.0970 O   0  0  0  0  0  0  0  0  0  0  0  0
  185.7040  177.9650  143.3820 C   0  0  2  0  0  3  0  0  0  0  0  0
  191.3870  175.5140  147.0950 C   0  0  0  0  0  3  0  0  0  0  0  0
  190.6570  174.2240  145.0560 C   0  0  1  0  0  3  0  0  0  0  0  0
  190.5430  175.4020  145.9820 C   0  0  0  0  0  0  0  0  0  0  0  0
  188.6090  176.2950  144.5640 C   0  0  2  0  0  3  0  0  0  0  0  0
  186.7170  178.6330  142.4720 C   0  0  0  0  0  2  0  0  0  0  0  0
  192.6240  173.6320  143.8590 C   0  0  2  0  0  3  0  0  0  0  0  0
  187.4590  177.5130  141.7570 C   0  0  0  0  0  2  0  0  0  0  0  0
  189.3800  177.4170  146.6870 C   0  0  0  0  0  3  0  0  0  0  0  0
  189.5000  176.3420  145.7930 C   0  0  0  0  0  0  0  0  0  0  0  0
  187.1410  176.5210  144.9030 C   0  0  0  0  0  2  0  0  0  0  0  0
  190.3480  173.4340  142.8600 O   0  0  0  0  0  0  0  0  0  0  0  0
  187.5120  173.9080  141.9970 O   0  0  0  0  0  1  0  0  0  0  0  0
  185.5220  178.7080  144.5520 O   0  0  0  0  0  1  0  0  0  0  0  0
  188.7020  174.9860  143.7690 C   0  0  2  0  0  3  0  0  0  0  0  0
  186.2310  176.5610  143.6520 C   0  0  2  0  0  3  0  0  0  0  0  0
  194.2510  175.1910  144.9090 C   0  0  0  0  0  2  0  0  0  0  0  0
  193.3550  174.9580  143.7100 C   0  0  1  0  0  3  0  0  0  0  0  0
  194.8440  174.6980  143.6060 C   0  0  1  0  0  3  0  0  0  0  0  0
  195.4960  175.8550  142.8750 C   0  0  0  0  0  2  0  0  0  0  0  0
  196.9060  176.0090  143.3260 C   0  0  0  0  0  0  0  0  0  0  0  0
  197.4720  177.1300  143.2520 O   0  0  0  0  0  0  0  0  0  0  0  0
  197.5850  174.9240  143.8660 O   0  0  0  0  0  1  0  0  0  0  0  0
  191.2980  171.0060  142.6930 O   0  0  0  0  0  1  0  0  0  0  0  0
  192.0740  171.9760  142.0600 C   0  0  0  0  0  2  0  0  0  0  0  0
  1 19  1  6  0  0  0
  1 22  1  0  0  0  0
  1 10  1  0  0  0  0
  3  2  1  0  0  0  0
  4 20  1  1  0  0  0
  4 22  1  0  0  0  0
  5 15  1  1  0  0  0
  5  4  1  0  0  0  0
  5 23  1  0  0  0  0
  6 32  1  1  0  0  0
  6 19  1  0  0  0  0
  6 14  1  0  0  0  0
  8 23  1  0  0  0  0
  8 21  1  1  0  0  0
  9  2  2  0  0  0  0
 10  7  1  6  0  0  0
 10 11  1  0  0  0  0
 11  9  1  0  0  0  0
 12 18  1  1  0  0  0
 12 17  1  0  0  0  0
 13  8  1  0  0  0  0
 14  7  1  1  0  0  0
 15 13  1  0  0  0  0
 16  3  2  0  0  0  0
 17 11  2  0  0  0  0
 17 16  1  0  0  0  0
 22 12  1  0  0  0  0
 23 18  1  0  0  0  0
 25 14  1  0  0  0  0
 25 24  1  0  0  0  0
 26 25  1  0  0  0  0
 26 24  1  0  0  0  0
 27 28  1  0  0  0  0
 27 26  1  0  0  0  0
 28 30  1  0  0  0  0
 29 28  2  0  0  0  0
 32 31  1  0  0  0  0
M  END
>  <MODEL>
1

>  <REMARK>
 VINA RESULT:      -7.6      0.000      0.000
  Name = 
  4 active torsions:
  status: ('A' for Active; 'I' for Inactive)
    1  A    between atoms: C_7  and  C_19
    2  A    between atoms: C_10  and  C_17
    3  A    between atoms: C_20  and  C_29
    4  A    between atoms: C_29  and  C_30
                            x       y       z     vdW  Elec       q    Type
                         _______ _______ _______ _____ _____    ______ ____

>  <TORSDO>
F 4

$$$$
=
 OpenBabel11112416423D

 32 37  0  0  1  0  0  0  0  0999 V2000
  189.1230  176.6640  144.3180 C   0  0  1  0  0  3  0  0  0  0  0  0
  186.7720  177.4790  140.1010 C   0  0  0  0  0  3  0  0  0  0  0  0
  185.6050  177.7530  140.8170 C   0  0  0  0  0  3  0  0  0  0  0  0
  188.1510  177.3440  146.5580 C   0  0  2  0  0  3  0  0  0  0  0  0
  186.8150  177.7290  147.2140 C   0  0  2  0  0  3  0  0  0  0  0  0
  190.9660  175.3730  144.2890 C   0  0  2  0  0  3  0  0  0  0  0  0
  190.3320  176.5100  142.1530 O   0  0  0  0  0  0  0  0  0  0  0  0
  184.5850  178.5610  147.0170 C   0  0  2  0  0  3  0  0  0  0  0  0
  187.9770  177.2790  140.7770 C   0  0  0  0  0  3  0  0  0  0  0  0
  189.3310  177.1910  142.9010 C   0  0  1  0  0  3  0  0  0  0  0  0
  188.0230  177.3410  142.1760 C   0  0  0  0  0  0  0  0  0  0  0  0
  186.8440  177.6700  144.4240 C   0  0  2  0  0  3  0  0  0  0  0  0
  184.4720  177.0540  147.1470 C   0  0  0  0  0  2  0  0  0  0  0  0
  190.7480  175.2890  142.7520 C   0  0  2  0  0  3  0  0  0  0  0  0
  185.8890  176.5290  147.3340 C   0  0  0  0  0  2  0  0  0  0  0  0
  185.6430  177.8370  142.2120 C   0  0  0  0  0  3  0  0  0  0  0  0
  186.8510  177.6620  142.9040 C   0  0  0  0  0  0  0  0  0  0  0  0
  186.0930  178.8670  144.9930 C   0  0  0  0  0  2  0  0  0  0  0  0
  190.3880  176.5140  144.8930 O   0  0  0  0  0  0  0  0  0  0  0  0
  189.1970  177.9780  147.2270 O   0  0  0  0  0  1  0  0  0  0  0  0
  183.6110  179.0590  146.1470 O   0  0  0  0  0  1  0  0  0  0  0  0
  188.2400  177.6570  145.0590 C   0  0  2  0  0  3  0  0  0  0  0  0
  186.0030  178.8440  146.5380 C   0  0  2  0  0  3  0  0  0  0  0  0
  189.6920  174.0110  140.9000 C   0  0  0  0  0  2  0  0  0  0  0  0
  189.7860  174.1620  142.4040 C   0  0  1  0  0  3  0  0  0  0  0  0
  190.5480  173.0550  141.7040 C   0  0  1  0  0  3  0  0  0  0  0  0
  189.8050  171.7480  141.8980 C   0  0  0  0  0  2  0  0  0  0  0  0
  190.5780  170.6310  141.2900 C   0  0  0  0  0  0  0  0  0  0  0  0
  190.9050  169.6370  141.9890 O   0  0  0  0  0  1  0  0  0  0  0  0
  190.9060  170.6660  139.9400 O   0  0  0  0  0  0  0  0  0  0  0  0
  192.9980  176.6100  144.4470 O   0  0  0  0  0  1  0  0  0  0  0  0
  192.4520  175.3350  144.5890 C   0  0  0  0  0  2  0  0  0  0  0  0
  1 19  1  1  0  0  0
  1 22  1  0  0  0  0
  2  9  2  0  0  0  0
  2  3  1  0  0  0  0
  3 16  2  0  0  0  0
  4  5  1  0  0  0  0
  4 20  1  1  0  0  0
  5 15  1  6  0  0  0
  6 32  1  6  0  0  0
  6 19  1  0  0  0  0
  8 21  1  6  0  0  0
  8 13  1  0  0  0  0
  9 11  1  0  0  0  0
 10  7  1  6  0  0  0
 10  1  1  0  0  0  0
 11 10  1  0  0  0  0
 11 17  2  0  0  0  0
 12 18  1  6  0  0  0
 12 22  1  0  0  0  0
 13 15  1  0  0  0  0
 14  7  1  1  0  0  0
 14  6  1  0  0  0  0
 16 17  1  0  0  0  0
 17 12  1  0  0  0  0
 18 23  1  0  0  0  0
 22  4  1  0  0  0  0
 23  8  1  0  0  0  0
 23  5  1  0  0  0  0
 24 26  1  0  0  0  0
 24 25  1  0  0  0  0
 25 14  1  0  0  0  0
 26 27  1  0  0  0  0
 26 25  1  0  0  0  0
 28 27  1  0  0  0  0
 28 29  1  0  0  0  0
 30 28  2  0  0  0  0
 31 32  1  0  0  0  0
M  END
>  <MODEL>
2

>  <REMARK>
 VINA RESULT:      -7.4      2.497      5.599
  Name = 
  4 active torsions:
  status: ('A' for Active; 'I' for Inactive)
    1  A    between atoms: C_7  and  C_19
    2  A    between atoms: C_10  and  C_17
    3  A    between atoms: C_20  and  C_29
    4  A    between atoms: C_29  and  C_30
                            x       y       z     vdW  Elec       q    Type
                         _______ _______ _______ _____ _____    ______ ____

>  <TORSDO>
F 4

$$$$
=
 OpenBabel11112416423D

 32 37  0  0  1  0  0  0  0  0999 V2000
  189.6270  175.1220  142.6940 C   0  0  1  0  0  3  0  0  0  0  0  0
  189.3720  174.6450  147.5600 C   0  0  0  0  0  3  0  0  0  0  0  0
  188.3590  175.6050  147.5900 C   0  0  0  0  0  3  0  0  0  0  0  0
  187.8330  176.3160  141.3600 C   0  0  2  0  0  3  0  0  0  0  0  0
  186.6720  177.3080  141.5370 C   0  0  2  0  0  3  0  0  0  0  0  0
  191.5380  174.5420  141.6550 C   0  0  2  0  0  3  0  0  0  0  0  0
  191.0760  173.4850  143.8760 O   0  0  0  0  0  0  0  0  0  0  0  0
  185.0370  178.3380  142.9400 C   0  0  2  0  0  3  0  0  0  0  0  0
  189.8510  174.1710  146.3380 C   0  0  0  0  0  3  0  0  0  0  0  0
  189.7950  174.1050  143.8180 C   0  0  1  0  0  3  0  0  0  0  0  0
  189.3280  174.6610  145.1340 C   0  0  0  0  0  0  0  0  0  0  0  0
  187.7210  176.2080  143.8790 C   0  0  2  0  0  3  0  0  0  0  0  0
  186.1660  179.3400  142.7870 C   0  0  0  0  0  2  0  0  0  0  0  0
  192.0490  174.1320  143.0650 C   0  0  2  0  0  3  0  0  0  0  0  0
  187.1790  178.7080  141.8440 C   0  0  0  0  0  2  0  0  0  0  0  0
  187.8150  176.0850  146.3960 C   0  0  0  0  0  3  0  0  0  0  0  0
  188.2680  175.6020  145.1600 C   0  0  0  0  0  0  0  0  0  0  0  0
  186.1990  176.2800  143.8760 C   0  0  0  0  0  2  0  0  0  0  0  0
  190.1290  174.5360  141.5280 O   0  0  0  0  0  0  0  0  0  0  0  0
  187.5620  175.4720  140.2840 O   0  0  0  0  0  1  0  0  0  0  0  0
  184.4900  178.3980  144.2250 O   0  0  0  0  0  1  0  0  0  0  0  0
  188.1490  175.4740  142.6020 C   0  0  2  0  0  3  0  0  0  0  0  0
  185.6290  176.9730  142.6150 C   0  0  2  0  0  3  0  0  0  0  0  0
  193.1000  174.9180  145.1770 C   0  0  0  0  0  2  0  0  0  0  0  0
  192.6460  175.3290  143.7910 C   0  0  1  0  0  3  0  0  0  0  0  0
  194.1140  175.0670  144.0610 C   0  0  1  0  0  3  0  0  0  0  0  0
  194.8330  176.3940  144.2020 C   0  0  0  0  0  2  0  0  0  0  0  0
  196.2720  176.2290  143.8580 C   0  0  0  0  0  0  0  0  0  0  0  0
  196.8940  177.1640  143.2900 O   0  0  0  0  0  0  0  0  0  0  0  0
  196.9380  175.0600  144.1980 O   0  0  0  0  0  1  0  0  0  0  0  0
  191.4220  172.4350  140.5450 O   0  0  0  0  0  1  0  0  0  0  0  0
  192.1470  173.6240  140.6130 C   0  0  0  0  0  2  0  0  0  0  0  0
  1 19  1  6  0  0  0
  1 10  1  0  0  0  0
  2  3  1  0  0  0  0
  4 20  1  6  0  0  0
  4  5  1  0  0  0  0
  4 22  1  0  0  0  0
  5 15  1  1  0  0  0
  5 23  1  0  0  0  0
  6 32  1  6  0  0  0
  6 14  1  0  0  0  0
  8 21  1  1  0  0  0
  9  2  2  0  0  0  0
 10  7  1  1  0  0  0
 10 11  1  0  0  0  0
 11 17  2  0  0  0  0
 11  9  1  0  0  0  0
 12 18  1  1  0  0  0
 12 17  1  0  0  0  0
 13  8  1  0  0  0  0
 14 25  1  0  0  0  0
 14  7  1  1  0  0  0
 15 13  1  0  0  0  0
 16  3  2  0  0  0  0
 17 16  1  0  0  0  0
 19  6  1  0  0  0  0
 22  1  1  0  0  0  0
 22 12  1  0  0  0  0
 23  8  1  0  0  0  0
 23 18  1  0  0  0  0
 25 26  1  0  0  0  0
 25 24  1  0  0  0  0
 26 27  1  0  0  0  0
 26 24  1  0  0  0  0
 28 30  1  0  0  0  0
 28 27  1  0  0  0  0
 29 28  2  0  0  0  0
 31 32  1  0  0  0  0
M  END
>  <MODEL>
3

>  <REMARK>
 VINA RESULT:      -7.2      1.467      1.593
  Name = 
  4 active torsions:
  status: ('A' for Active; 'I' for Inactive)
    1  A    between atoms: C_7  and  C_19
    2  A    between atoms: C_10  and  C_17
    3  A    between atoms: C_20  and  C_29
    4  A    between atoms: C_29  and  C_30
                            x       y       z     vdW  Elec       q    Type
                         _______ _______ _______ _____ _____    ______ ____

>  <TORSDO>
F 4

$$$$
=
 OpenBabel11112416423D

 32 37  0  0  1  0  0  0  0  0999 V2000
  191.1090  175.7170  145.5870 C   0  0  1  0  0  3  0  0  0  0  0  0
  190.0880  171.6870  143.0010 C   0  0  0  0  0  3  0  0  0  0  0  0
  191.4410  171.5650  142.6780 C   0  0  0  0  0  3  0  0  0  0  0  0
  193.4800  176.3460  146.2250 C   0  0  2  0  0  3  0  0  0  0  0  0
  194.9400  176.0520  145.8410 C   0  0  2  0  0  3  0  0  0  0  0  0
  189.4640  177.2110  145.9460 C   0  0  2  0  0  3  0  0  0  0  0  0
  188.7840  174.8490  145.4760 O   0  0  0  0  0  0  0  0  0  0  0  0
  196.5580  174.6070  144.8430 C   0  0  2  0  0  3  0  0  0  0  0  0
  189.6720  172.6560  143.9160 C   0  0  0  0  0  3  0  0  0  0  0  0
  190.1670  174.5180  145.5410 C   0  0  1  0  0  3  0  0  0  0  0  0
  190.6040  173.5180  144.5070 C   0  0  0  0  0  0  0  0  0  0  0  0
  193.0170  174.3280  144.7830 C   0  0  2  0  0  3  0  0  0  0  0  0
  196.2770  175.7020  143.8320 C   0  0  0  0  0  2  0  0  0  0  0  0
  188.5470  176.2180  145.1750 C   0  0  2  0  0  3  0  0  0  0  0  0
  195.2920  176.6560  144.4910 C   0  0  0  0  0  2  0  0  0  0  0  0
  192.3820  172.4060  143.2770 C   0  0  0  0  0  3  0  0  0  0  0  0
  191.9830  173.3690  144.2160 C   0  0  0  0  0  0  0  0  0  0  0  0
  194.2630  173.6070  145.2820 C   0  0  0  0  0  2  0  0  0  0  0  0
  190.5990  176.6080  146.5360 O   0  0  0  0  0  0  0  0  0  0  0  0
  193.4140  176.6770  147.5780 O   0  0  0  0  0  1  0  0  0  0  0  0
  196.7750  173.3830  144.2040 O   0  0  0  0  0  1  0  0  0  0  0  0
  192.5000  175.2040  145.9310 C   0  0  2  0  0  3  0  0  0  0  0  0
  195.3600  174.5750  145.7840 C   0  0  2  0  0  3  0  0  0  0  0  0
  187.5550  175.6660  142.9630 C   0  0  0  0  0  2  0  0  0  0  0  0
  188.6290  176.4630  143.6750 C   0  0  1  0  0  3  0  0  0  0  0  0
  187.3590  177.1470  143.2110 C   0  0  1  0  0  3  0  0  0  0  0  0
  187.6520  177.9180  141.9400 C   0  0  0  0  0  2  0  0  0  0  0  0
  186.4550  177.9070  141.0540 C   0  0  0  0  0  0  0  0  0  0  0  0
  185.3350  178.2640  141.5040 O   0  0  0  0  0  1  0  0  0  0  0  0
  186.5800  177.5380  139.7210 O   0  0  0  0  0  0  0  0  0  0  0  0
  187.3050  177.5790  146.8880 O   0  0  0  0  0  1  0  0  0  0  0  0
  188.6510  177.9210  147.0110 C   0  0  0  0  0  2  0  0  0  0  0  0
  1 22  1  0  0  0  0
  1 19  1  1  0  0  0
  2  9  1  0  0  0  0
  3  2  2  0  0  0  0
  3 16  1  0  0  0  0
  4 20  1  1  0  0  0
  5 15  1  6  0  0  0
  5  4  1  0  0  0  0
  6 19  1  0  0  0  0
  6 32  1  1  0  0  0
  7 10  1  0  0  0  0
  8 21  1  6  0  0  0
  8 23  1  0  0  0  0
  9 11  2  0  0  0  0
 10 11  1  6  0  0  0
 10  1  1  0  0  0  0
 12 18  1  1  0  0  0
 12 22  1  0  0  0  0
 13 15  1  0  0  0  0
 13  8  1  0  0  0  0
 14  7  1  6  0  0  0
 14  6  1  0  0  0  0
 16 17  2  0  0  0  0
 17 11  1  0  0  0  0
 17 12  1  0  0  0  0
 18 23  1  0  0  0  0
 22  4  1  0  0  0  0
 23  5  1  0  0  0  0
 24 26  1  0  0  0  0
 24 25  1  0  0  0  0
 25 14  1  0  0  0  0
 26 25  1  0  0  0  0
 27 26  1  0  0  0  0
 28 29  1  0  0  0  0
 28 27  1  0  0  0  0
 30 28  2  0  0  0  0
 31 32  1  0  0  0  0
M  END
>  <MODEL>
4

>  <REMARK>
 VINA RESULT:      -7.1      2.072      7.734
  Name = 
  4 active torsions:
  status: ('A' for Active; 'I' for Inactive)
    1  A    between atoms: C_7  and  C_19
    2  A    between atoms: C_10  and  C_17
    3  A    between atoms: C_20  and  C_29
    4  A    between atoms: C_29  and  C_30
                            x       y       z     vdW  Elec       q    Type
                         _______ _______ _______ _____ _____    ______ ____

>  <TORSDO>
F 4

$$$$
=
 OpenBabel11112416423D

 32 37  0  0  1  0  0  0  0  0999 V2000
  189.7650  175.2770  142.2770 C   0  0  1  0  0  3  0  0  0  0  0  0
  192.5390  176.4140  146.1480 C   0  0  0  0  0  3  0  0  0  0  0  0
  193.0600  175.1190  146.1410 C   0  0  0  0  0  3  0  0  0  0  0  0
  190.1600  173.1860  140.9010 C   0  0  2  0  0  3  0  0  0  0  0  0
  190.8630  171.8200  140.9760 C   0  0  2  0  0  3  0  0  0  0  0  0
  187.8980  176.4780  141.9020 C   0  0  2  0  0  3  0  0  0  0  0  0
  189.7140  177.5710  143.2310 O   0  0  0  0  0  0  0  0  0  0  0  0
  192.5420  170.4150  141.9300 C   0  0  2  0  0  3  0  0  0  0  0  0
  191.7000  176.8370  145.1150 C   0  0  0  0  0  3  0  0  0  0  0  0
  190.5170  176.4350  142.9260 C   0  0  1  0  0  3  0  0  0  0  0  0
  191.3660  175.9630  144.0720 C   0  0  0  0  0  0  0  0  0  0  0  0
  191.5360  173.6620  142.9630 C   0  0  2  0  0  3  0  0  0  0  0  0
  191.2330  170.0310  142.5920 C   0  0  0  0  0  2  0  0  0  0  0  0
  188.3180  177.3120  143.1460 C   0  0  2  0  0  3  0  0  0  0  0  0
  190.1530  170.8830  141.9410 C   0  0  0  0  0  2  0  0  0  0  0  0
  192.7500  174.2460  145.0950 C   0  0  0  0  0  3  0  0  0  0  0  0
  191.9270  174.6620  144.0380 C   0  0  0  0  0  0  0  0  0  0  0  0
  192.7370  172.9030  142.4120 C   0  0  0  0  0  2  0  0  0  0  0  0
  188.9710  175.8170  141.2610 O   0  0  0  0  0  0  0  0  0  0  0  0
  190.1180  173.6130  139.5750 O   0  0  0  0  0  1  0  0  0  0  0  0
  193.6010  170.3350  142.8390 O   0  0  0  0  0  1  0  0  0  0  0  0
  190.7950  174.2790  141.7700 C   0  0  2  0  0  3  0  0  0  0  0  0
  192.3460  171.8210  141.3780 C   0  0  2  0  0  3  0  0  0  0  0  0
  188.2490  177.4800  145.6250 C   0  0  0  0  0  2  0  0  0  0  0  0
  187.8100  176.6650  144.4260 C   0  0  1  0  0  3  0  0  0  0  0  0
  186.8320  177.6030  145.1040 C   0  0  1  0  0  3  0  0  0  0  0  0
  185.8980  176.7910  145.9790 C   0  0  0  0  0  2  0  0  0  0  0  0
  185.1840  177.6890  146.9270 C   0  0  0  0  0  0  0  0  0  0  0  0
  184.0670  178.1770  146.6130 O   0  0  0  0  0  0  0  0  0  0  0  0
  185.7310  177.9580  148.1750 O   0  0  0  0  0  1  0  0  0  0  0  0
  186.3730  178.2830  141.5900 O   0  0  0  0  0  1  0  0  0  0  0  0
  187.1870  177.3780  140.9100 C   0  0  0  0  0  2  0  0  0  0  0  0
  1 19  1  6  0  0  0
  1 10  1  0  0  0  0
  3  2  1  0  0  0  0
  4 20  1  6  0  0  0
  4  5  1  0  0  0  0
  4 22  1  0  0  0  0
  5 23  1  0  0  0  0
  5 15  1  1  0  0  0
  6 32  1  6  0  0  0
  6 14  1  0  0  0  0
  8 13  1  0  0  0  0
  8 21  1  1  0  0  0
  9  2  2  0  0  0  0
 10  7  1  1  0  0  0
 10 11  1  0  0  0  0
 11  9  1  0  0  0  0
 12 18  1  6  0  0  0
 12 17  1  0  0  0  0
 14  7  1  1  0  0  0
 14 25  1  0  0  0  0
 15 13  1  0  0  0  0
 16  3  2  0  0  0  0
 17 11  2  0  0  0  0
 17 16  1  0  0  0  0
 19  6  1  0  0  0  0
 22  1  1  0  0  0  0
 22 12  1  0  0  0  0
 23  8  1  0  0  0  0
 23 18  1  0  0  0  0
 25 26  1  0  0  0  0
 25 24  1  0  0  0  0
 26 24  1  0  0  0  0
 26 27  1  0  0  0  0
 27 28  1  0  0  0  0
 28 30  1  0  0  0  0
 29 28  2  0  0  0  0
 32 31  1  0  0  0  0
M  END
>  <MODEL>
5

>  <REMARK>
 VINA RESULT:      -7.0      2.800      7.211
  Name = 
  4 active torsions:
  status: ('A' for Active; 'I' for Inactive)
    1  A    between atoms: C_7  and  C_19
    2  A    between atoms: C_10  and  C_17
    3  A    between atoms: C_20  and  C_29
    4  A    between atoms: C_29  and  C_30
                            x       y       z     vdW  Elec       q    Type
                         _______ _______ _______ _____ _____    ______ ____

>  <TORSDO>
F 4

$$$$
=
 OpenBabel11112416423D

 32 37  0  0  1  0  0  0  0  0999 V2000
  191.0580  174.7980  142.8970 C   0  0  1  0  0  3  0  0  0  0  0  0
  194.2320  176.8910  145.9830 C   0  0  0  0  0  3  0  0  0  0  0  0
  194.8910  175.6680  146.1170 C   0  0  0  0  0  3  0  0  0  0  0  0
  191.4820  172.5230  141.8640 C   0  0  2  0  0  3  0  0  0  0  0  0
  192.3400  171.2620  142.0590 C   0  0  2  0  0  3  0  0  0  0  0  0
  189.0300  175.7390  142.6370 C   0  0  2  0  0  3  0  0  0  0  0  0
  190.8870  177.2190  143.4280 O   0  0  0  0  0  0  0  0  0  0  0  0
  194.2940  170.2150  142.9480 C   0  0  2  0  0  3  0  0  0  0  0  0
  193.2040  177.0330  145.0490 C   0  0  0  0  0  3  0  0  0  0  0  0
  191.7600  176.1190  143.1960 C   0  0  1  0  0  3  0  0  0  0  0  0
  192.8210  175.9500  144.2480 C   0  0  0  0  0  0  0  0  0  0  0  0
  193.0870  173.5020  143.5480 C   0  0  2  0  0  3  0  0  0  0  0  0
  193.1520  169.8550  143.8780 C   0  0  0  0  0  2  0  0  0  0  0  0
  189.5330  176.8300  143.6260 C   0  0  2  0  0  3  0  0  0  0  0  0
  191.8960  170.4700  143.2790 C   0  0  0  0  0  2  0  0  0  0  0  0
  194.5310  174.5860  145.3090 C   0  0  0  0  0  3  0  0  0  0  0  0
  193.5170  174.7200  144.3490 C   0  0  0  0  0  0  0  0  0  0  0  0
  194.2710  172.7570  142.9450 C   0  0  0  0  0  2  0  0  0  0  0  0
  190.0650  175.0620  141.9510 O   0  0  0  0  0  0  0  0  0  0  0  0
  191.1920  172.6820  140.5100 O   0  0  0  0  0  1  0  0  0  0  0  0
  195.4790  170.4020  143.6650 O   0  0  0  0  0  1  0  0  0  0  0  0
  192.1090  173.8120  142.4070 C   0  0  2  0  0  3  0  0  0  0  0  0
  193.8570  171.4670  142.1980 C   0  0  2  0  0  3  0  0  0  0  0  0
  189.6920  177.5200  146.0090 C   0  0  0  0  0  2  0  0  0  0  0  0
  189.3010  176.4000  145.0670 C   0  0  1  0  0  3  0  0  0  0  0  0
  188.2320  177.2810  145.6840 C   0  0  1  0  0  3  0  0  0  0  0  0
  187.5750  176.5300  146.8240 C   0  0  0  0  0  2  0  0  0  0  0  0
  186.2000  177.0540  147.0480 C   0  0  0  0  0  0  0  0  0  0  0  0
  185.9590  177.7880  148.0420 O   0  0  0  0  0  1  0  0  0  0  0  0
  185.1890  176.7650  146.1410 O   0  0  0  0  0  0  0  0  0  0  0  0
  186.8140  176.5040  142.2060 O   0  0  0  0  0  1  0  0  0  0  0  0
  188.0800  176.3680  141.6370 C   0  0  0  0  0  2  0  0  0  0  0  0
  1 19  1  6  0  0  0
  1 10  1  0  0  0  0
  2  3  1  0  0  0  0
  4 20  1  6  0  0  0
  4  5  1  0  0  0  0
  4 22  1  0  0  0  0
  5 23  1  0  0  0  0
  5 15  1  1  0  0  0
  6 32  1  6  0  0  0
  6 14  1  0  0  0  0
  8 21  1  1  0  0  0
  8 13  1  0  0  0  0
  9  2  2  0  0  0  0
 10  7  1  1  0  0  0
 10 11  1  0  0  0  0
 11 17  2  0  0  0  0
 11  9  1  0  0  0  0
 12 18  1  6  0  0  0
 12 17  1  0  0  0  0
 14  7  1  1  0  0  0
 14 25  1  0  0  0  0
 15 13  1  0  0  0  0
 16  3  2  0  0  0  0
 17 16  1  0  0  0  0
 19  6  1  0  0  0  0
 22  1  1  0  0  0  0
 22 12  1  0  0  0  0
 23 18  1  0  0  0  0
 23  8  1  0  0  0  0
 25 26  1  0  0  0  0
 25 24  1  0  0  0  0
 26 24  1  0  0  0  0
 26 27  1  0  0  0  0
 27 28  1  0  0  0  0
 28 29  1  0  0  0  0
 30 28  2  0  0  0  0
 32 31  1  0  0  0  0
M  END
>  <MODEL>
6

>  <REMARK>
 VINA RESULT:      -6.8      2.492      7.243
  Name = 
  4 active torsions:
  status: ('A' for Active; 'I' for Inactive)
    1  A    between atoms: C_7  and  C_19
    2  A    between atoms: C_10  and  C_17
    3  A    between atoms: C_20  and  C_29
    4  A    between atoms: C_29  and  C_30
                            x       y       z     vdW  Elec       q    Type
                         _______ _______ _______ _____ _____    ______ ____

>  <TORSDO>
F 4

$$$$
=
 OpenBabel11112416423D

 32 37  0  0  1  0  0  0  0  0999 V2000
  191.8090  175.4710  145.0210 C   0  0  1  0  0  3  0  0  0  0  0  0
  189.9570  171.8790  142.2560 C   0  0  0  0  0  3  0  0  0  0  0  0
  191.1890  171.7560  141.6100 C   0  0  0  0  0  3  0  0  0  0  0  0
  194.3000  175.9220  145.1570 C   0  0  2  0  0  3  0  0  0  0  0  0
  195.6100  175.6330  144.4050 C   0  0  2  0  0  3  0  0  0  0  0  0
  190.3930  176.9570  145.9450 C   0  0  2  0  0  3  0  0  0  0  0  0
  189.4680  174.7080  145.3520 O   0  0  0  0  0  0  0  0  0  0  0  0
  196.8560  174.2860  142.8770 C   0  0  2  0  0  3  0  0  0  0  0  0
  189.8270  172.7250  143.3600 C   0  0  0  0  0  3  0  0  0  0  0  0
  190.8040  174.3240  145.0450 C   0  0  1  0  0  3  0  0  0  0  0  0
  190.9250  173.4640  143.8190 C   0  0  0  0  0  0  0  0  0  0  0  0
  193.3850  174.1420  143.6190 C   0  0  2  0  0  3  0  0  0  0  0  0
  196.4240  175.5210  142.1090 C   0  0  0  0  0  2  0  0  0  0  0  0
  189.2600  176.1140  145.2920 C   0  0  2  0  0  3  0  0  0  0  0  0
  195.6830  176.4070  143.0980 C   0  0  0  0  0  2  0  0  0  0  0  0
  192.2960  172.4720  142.0730 C   0  0  0  0  0  3  0  0  0  0  0  0
  192.1880  173.3080  143.1950 C   0  0  0  0  0  0  0  0  0  0  0  0
  194.6610  173.3150  143.7150 C   0  0  0  0  0  2  0  0  0  0  0  0
  191.5900  176.2380  146.1690 O   0  0  0  0  0  0  0  0  0  0  0  0
  194.5670  176.0630  146.5180 O   0  0  0  0  0  1  0  0  0  0  0  0
  196.8390  173.1570  142.0540 O   0  0  0  0  0  1  0  0  0  0  0  0
  193.2040  174.8670  144.9580 C   0  0  2  0  0  3  0  0  0  0  0  0
  195.9070  174.1650  144.0620 C   0  0  2  0  0  3  0  0  0  0  0  0
  187.8840  175.7520  143.2530 C   0  0  0  0  0  2  0  0  0  0  0  0
  189.0120  176.5620  143.8590 C   0  0  1  0  0  3  0  0  0  0  0  0
  187.6220  177.1570  143.7560 C   0  0  1  0  0  3  0  0  0  0  0  0
  187.5830  178.1170  142.5840 C   0  0  0  0  0  2  0  0  0  0  0  0
  186.2080  178.6640  142.4230 C   0  0  0  0  0  0  0  0  0  0  0  0
  185.5400  178.3950  141.3910 O   0  0  0  0  0  0  0  0  0  0  0  0
  185.6460  179.4390  143.4290 O   0  0  0  0  0  1  0  0  0  0  0  0
  190.8440  177.3370  148.2550 O   0  0  0  0  0  1  0  0  0  0  0  0
  189.8950  177.5390  147.2540 C   0  0  0  0  0  2  0  0  0  0  0  0
  1 10  1  0  0  0  0
  1 19  1  1  0  0  0
  2  9  1  0  0  0  0
  3 16  1  0  0  0  0
  3  2  2  0  0  0  0
  4 20  1  1  0  0  0
  5 15  1  6  0  0  0
  5  4  1  0  0  0  0
  6 19  1  0  0  0  0
  6 32  1  1  0  0  0
  8 21  1  6  0  0  0
  8 23  1  0  0  0  0
  9 11  2  0  0  0  0
 10 11  1  6  0  0  0
 10  7  1  0  0  0  0
 12 18  1  1  0  0  0
 12 22  1  0  0  0  0
 13  8  1  0  0  0  0
 13 15  1  0  0  0  0
 14  7  1  6  0  0  0
 14  6  1  0  0  0  0
 16 17  2  0  0  0  0
 17 12  1  0  0  0  0
 17 11  1  0  0  0  0
 18 23  1  0  0  0  0
 22  1  1  0  0  0  0
 22  4  1  0  0  0  0
 23  5  1  0  0  0  0
 24 26  1  0  0  0  0
 24 25  1  0  0  0  0
 25 14  1  0  0  0  0
 26 25  1  0  0  0  0
 27 26  1  0  0  0  0
 28 27  1  0  0  0  0
 28 30  1  0  0  0  0
 29 28  2  0  0  0  0
 32 31  1  0  0  0  0
M  END
>  <MODEL>
7

>  <REMARK>
 VINA RESULT:      -6.7      1.891      7.853
  Name = 
  4 active torsions:
  status: ('A' for Active; 'I' for Inactive)
    1  A    between atoms: C_7  and  C_19
    2  A    between atoms: C_10  and  C_17
    3  A    between atoms: C_20  and  C_29
    4  A    between atoms: C_29  and  C_30
                            x       y       z     vdW  Elec       q    Type
                         _______ _______ _______ _____ _____    ______ ____

>  <TORSDO>
F 4

$$$$
=
 OpenBabel11112416423D

 32 37  0  0  1  0  0  0  0  0999 V2000
  191.7780  175.8540  143.3900 C   0  0  1  0  0  3  0  0  0  0  0  0
  190.1990  172.3040  140.4110 C   0  0  0  0  0  3  0  0  0  0  0  0
  188.8820  172.6260  140.7430 C   0  0  0  0  0  3  0  0  0  0  0  0
  190.2250  177.6340  144.3100 C   0  0  2  0  0  3  0  0  0  0  0  0
  188.7300  177.9170  144.5340 C   0  0  2  0  0  3  0  0  0  0  0  0
  193.8680  175.7170  144.2140 C   0  0  2  0  0  3  0  0  0  0  0  0
  193.3960  174.4990  142.0790 O   0  0  0  0  0  0  0  0  0  0  0  0
  186.4460  177.5010  143.9730 C   0  0  2  0  0  3  0  0  0  0  0  0
  191.2500  173.1030  140.8630 C   0  0  0  0  0  3  0  0  0  0  0  0
  192.1170  175.1250  142.0940 C   0  0  1  0  0  3  0  0  0  0  0  0
  190.9930  174.2260  141.6610 C   0  0  0  0  0  0  0  0  0  0  0  0
  189.3390  175.7510  142.8810 C   0  0  2  0  0  3  0  0  0  0  0  0
  186.7230  176.7320  145.2500 C   0  0  0  0  0  2  0  0  0  0  0  0
  193.9970  174.4190  143.3660 C   0  0  2  0  0  3  0  0  0  0  0  0
  188.1590  177.0450  145.6410 C   0  0  0  0  0  2  0  0  0  0  0  0
  188.6120  173.7550  141.5210 C   0  0  0  0  0  3  0  0  0  0  0  0
  189.6550  174.5820  141.9630 C   0  0  0  0  0  0  0  0  0  0  0  0
  188.1920  176.6060  142.3560 C   0  0  0  0  0  2  0  0  0  0  0  0
  192.8920  176.6230  143.7370 O   0  0  0  0  0  0  0  0  0  0  0  0
  190.9010  178.8380  144.1160 O   0  0  0  0  0  1  0  0  0  0  0  0
  185.5710  176.7930  143.1450 O   0  0  0  0  0  1  0  0  0  0  0  0
  190.5270  176.6850  143.1430 C   0  0  2  0  0  3  0  0  0  0  0  0
  187.8010  177.7500  143.3210 C   0  0  2  0  0  3  0  0  0  0  0  0
  193.7560  171.9450  143.3660 C   0  0  0  0  0  2  0  0  0  0  0  0
  193.4680  173.2180  144.1350 C   0  0  1  0  0  3  0  0  0  0  0  0
  194.6300  172.3340  144.5400 C   0  0  1  0  0  3  0  0  0  0  0  0
  194.2320  171.5250  145.7590 C   0  0  0  0  0  2  0  0  0  0  0  0
  195.1280  170.3450  145.8980 C   0  0  0  0  0  0  0  0  0  0  0  0
  194.6570  169.1820  145.8060 O   0  0  0  0  0  0  0  0  0  0  0  0
  196.4920  170.5260  146.0910 O   0  0  0  0  0  1  0  0  0  0  0  0
  196.2010  175.5810  143.7460 O   0  0  0  0  0  1  0  0  0  0  0  0
  195.2160  176.4080  144.2830 C   0  0  0  0  0  2  0  0  0  0  0  0
  1 19  1  6  0  0  0
  2  3  2  0  0  0  0
  2  9  1  0  0  0  0
  3 16  1  0  0  0  0
  4 20  1  6  0  0  0
  4  5  1  0  0  0  0
  5 15  1  1  0  0  0
  6 32  1  6  0  0  0
  7 10  1  0  0  0  0
  8 21  1  6  0  0  0
  8 13  1  0  0  0  0
  9 11  2  0  0  0  0
 10 11  1  1  0  0  0
 10  1  1  0  0  0  0
 11 17  1  0  0  0  0
 12 18  1  6  0  0  0
 12 22  1  0  0  0  0
 13 15  1  0  0  0  0
 14  7  1  6  0  0  0
 14 25  1  0  0  0  0
 14  6  1  0  0  0  0
 16 17  2  0  0  0  0
 17 12  1  0  0  0  0
 18 23  1  0  0  0  0
 19  6  1  0  0  0  0
 22  1  1  0  0  0  0
 22  4  1  0  0  0  0
 23  8  1  0  0  0  0
 23  5  1  0  0  0  0
 24 25  1  0  0  0  0
 24 26  1  0  0  0  0
 25 26  1  0  0  0  0
 26 27  1  0  0  0  0
 27 28  1  0  0  0  0
 28 30  1  0  0  0  0
 29 28  2  0  0  0  0
 31 32  1  0  0  0  0
M  END
>  <MODEL>
8

>  <REMARK>
 VINA RESULT:      -6.7      2.583      4.794
  Name = 
  4 active torsions:
  status: ('A' for Active; 'I' for Inactive)
    1  A    between atoms: C_7  and  C_19
    2  A    between atoms: C_10  and  C_17
    3  A    between atoms: C_20  and  C_29
    4  A    between atoms: C_29  and  C_30
                            x       y       z     vdW  Elec       q    Type
                         _______ _______ _______ _____ _____    ______ ____

>  <TORSDO>
F 4

$$$$
=
 OpenBabel11112416423D

 32 37  0  0  1  0  0  0  0  0999 V2000
  190.4340  174.5730  143.1920 C   0  0  1  0  0  3  0  0  0  0  0  0
  192.4870  175.8040  147.4630 C   0  0  0  0  0  3  0  0  0  0  0  0
  191.5110  176.7870  147.6370 C   0  0  0  0  0  3  0  0  0  0  0  0
  188.1200  175.3670  142.5290 C   0  0  2  0  0  3  0  0  0  0  0  0
  187.0780  176.4410  142.8810 C   0  0  2  0  0  3  0  0  0  0  0  0
  191.7030  173.5370  141.6480 C   0  0  2  0  0  3  0  0  0  0  0  0
  192.4170  173.3370  144.0380 O   0  0  0  0  0  0  0  0  0  0  0  0
  186.1760  178.0030  144.4460 C   0  0  2  0  0  3  0  0  0  0  0  0
  192.3970  174.9080  146.3960 C   0  0  0  0  0  3  0  0  0  0  0  0
  191.1980  173.9910  144.3770 C   0  0  1  0  0  3  0  0  0  0  0  0
  191.3340  174.9950  145.4880 C   0  0  0  0  0  0  0  0  0  0  0  0
  189.1860  176.1330  144.6840 C   0  0  2  0  0  3  0  0  0  0  0  0
  187.0040  178.8080  143.4620 C   0  0  0  0  0  2  0  0  0  0  0  0
  192.8420  173.5970  142.7050 C   0  0  2  0  0  3  0  0  0  0  0  0
  187.5280  177.8210  142.4300 C   0  0  0  0  0  2  0  0  0  0  0  0
  190.4350  176.8690  146.7480 C   0  0  0  0  0  3  0  0  0  0  0  0
  190.3170  175.9620  145.6850 C   0  0  0  0  0  0  0  0  0  0  0  0
  187.8340  176.3090  145.3630 C   0  0  0  0  0  2  0  0  0  0  0  0
  190.4010  173.5910  142.1980 O   0  0  0  0  0  0  0  0  0  0  0  0
  187.4710  174.2280  142.0540 O   0  0  0  0  0  1  0  0  0  0  0  0
  186.2760  178.5360  145.7340 O   0  0  0  0  0  1  0  0  0  0  0  0
  189.0520  174.9780  143.6830 C   0  0  2  0  0  3  0  0  0  0  0  0
  186.6840  176.5700  144.3610 C   0  0  2  0  0  3  0  0  0  0  0  0
  194.7710  174.9080  143.5640 C   0  0  0  0  0  2  0  0  0  0  0  0
  193.5830  174.9230  142.6240 C   0  0  1  0  0  3  0  0  0  0  0  0
  194.9770  174.6830  142.0810 C   0  0  1  0  0  3  0  0  0  0  0  0
  195.4820  175.9590  141.4380 C   0  0  0  0  0  2  0  0  0  0  0  0
  196.7300  175.6830  140.6750 C   0  0  0  0  0  0  0  0  0  0  0  0
  196.7050  175.6490  139.4180 O   0  0  0  0  0  0  0  0  0  0  0  0
  197.9310  175.5010  141.3490 O   0  0  0  0  0  1  0  0  0  0  0  0
  190.5970  171.7710  140.4890 O   0  0  0  0  0  1  0  0  0  0  0  0
  191.8540  172.2770  140.8170 C   0  0  0  0  0  2  0  0  0  0  0  0
  1 19  1  6  0  0  0
  1 22  1  0  0  0  0
  1 10  1  0  0  0  0
  2  3  1  0  0  0  0
  4 20  1  1  0  0  0
  4  5  1  0  0  0  0
  4 22  1  0  0  0  0
  5 15  1  1  0  0  0
  5 23  1  0  0  0  0
  6 32  1  1  0  0  0
  6 19  1  0  0  0  0
  6 14  1  0  0  0  0
  8 21  1  1  0  0  0
  9  2  2  0  0  0  0
 10  7  1  6  0  0  0
 10 11  1  0  0  0  0
 11 17  2  0  0  0  0
 11  9  1  0  0  0  0
 12 18  1  1  0  0  0
 12 17  1  0  0  0  0
 13  8  1  0  0  0  0
 14  7  1  1  0  0  0
 15 13  1  0  0  0  0
 16  3  2  0  0  0  0
 17 16  1  0  0  0  0
 22 12  1  0  0  0  0
 23  8  1  0  0  0  0
 23 18  1  0  0  0  0
 25 14  1  0  0  0  0
 25 24  1  0  0  0  0
 26 25  1  0  0  0  0
 26 24  1  0  0  0  0
 27 26  1  0  0  0  0
 28 30  1  0  0  0  0
 28 27  1  0  0  0  0
 29 28  2  0  0  0  0
 31 32  1  0  0  0  0
M  END
>  <MODEL>
9

>  <REMARK>
 VINA RESULT:      -6.5      1.399      1.474
  Name = 
  4 active torsions:
  status: ('A' for Active; 'I' for Inactive)
    1  A    between atoms: C_7  and  C_19
    2  A    between atoms: C_10  and  C_17
    3  A    between atoms: C_20  and  C_29
    4  A    between atoms: C_29  and  C_30
                            x       y       z     vdW  Elec       q    Type
                         _______ _______ _______ _____ _____    ______ ____

>  <TORSDO>
F 4

$$$$
