=
 OpenBabel11112417453D

 34 40  0  0  1  0  0  0  0  0999 V2000
  189.5490  177.1460  142.9320 C   0  0  0  0  0  0  0  0  0  0  0  0
  192.0420  176.9020  142.5460 C   0  0  0  0  0  2  0  0  0  0  0  0
  185.5660  179.0390  146.8210 C   0  0  0  0  0  0  0  0  0  0  0  0
  187.2920  177.6430  143.6100 C   0  0  0  0  0  0  0  0  0  0  0  0
  186.3850  176.8340  145.8430 C   0  0  2  0  0  3  0  0  0  0  0  0
  184.4340  176.9740  147.2550 O   0  0  0  0  0  1  0  0  0  0  0  0
  186.1690  179.7760  147.5840 O   0  0  0  0  0  0  0  0  0  0  0  0
  183.9680  178.6060  144.9280 C   0  0  0  0  0  2  0  0  0  0  0  0
  190.9760  175.5310  144.2390 C   0  0  2  0  0  3  0  0  0  0  0  0
  192.7530  175.0180  146.8950 C   0  0  0  0  0  2  0  0  0  0  0  0
  187.8640  176.7020  146.2170 C   0  0  0  0  0  2  0  0  0  0  0  0
  184.8480  177.7560  144.0080 C   0  0  0  0  0  2  0  0  0  0  0  0
  190.1400  175.9350  145.4680 C   0  0  1  0  0  3  0  0  0  0  0  0
  193.1280  176.0830  143.2190 C   0  0  0  0  0  2  0  0  0  0  0  0
  186.1950  177.5110  144.5380 N   0  0  0  0  0  0  0  0  0  0  0  0
  184.7490  179.6520  145.7140 C   0  0  0  0  0  2  0  0  0  0  0  0
  193.0290  175.9910  145.7550 C   0  0  2  0  0  3  0  0  0  0  0  0
  188.5090  176.9960  143.8580 C   0  0  0  0  0  0  0  0  0  0  0  0
  185.6820  177.5480  147.0060 C   0  0  2  0  0  3  0  0  0  0  0  0
  188.6650  176.1070  145.0660 C   0  0  2  0  0  3  0  0  0  0  0  0
  188.1870  178.5590  141.6140 C   0  0  0  0  0  3  0  0  0  0  0  0
  191.3840  175.2550  147.5160 C   0  0  0  0  0  2  0  0  0  0  0  0
  187.1600  178.4100  142.4920 N   0  0  0  0  0  0  0  0  0  0  0  0
  190.2630  174.8820  146.5600 C   0  0  0  0  0  2  0  0  0  0  0  0
  192.4970  175.4000  144.4360 C   0  0  1  0  0  3  0  0  0  0  0  0
  189.3720  177.9330  141.8370 N   0  0  0  0  0  0  0  0  0  0  0  0
  190.8020  176.4980  143.1720 N   0  0  0  0  0  0  0  0  0  0  0  0
  194.4100  176.1990  145.6780 O   0  0  0  0  0  0  0  0  0  0  0  0
  194.9740  175.0600  146.2550 C   0  0  0  0  0  2  0  0  0  0  0  0
  196.8470  172.4080  146.1360 O   0  0  0  0  0  0  0  0  0  0  0  0
  195.4410  173.3770  144.5060 C   0  0  0  0  0  2  0  0  0  0  0  0
  196.0330  174.4830  145.3310 C   0  0  2  0  0  3  0  0  0  0  0  0
  196.2480  172.1610  144.8940 C   0  0  0  0  0  2  0  0  0  0  0  0
  197.0940  173.7900  146.1550 C   0  0  0  0  0  2  0  0  0  0  0  0
  1 27  1  0  0  0  0
  1 18  1  0  0  0  0
  2 27  1  0  0  0  0
  2 14  1  0  0  0  0
  3 19  1  0  0  0  0
  3  7  2  0  0  0  0
  4 18  2  0  0  0  0
  4 15  1  0  0  0  0
  5 11  1  1  0  0  0
  5 19  1  0  0  0  0
  8 16  1  0  0  0  0
  9 27  1  6  0  0  0
  9 25  1  0  0  0  0
  9 13  1  0  0  0  0
 10 22  1  0  0  0  0
 12 15  1  0  0  0  0
 12  8  1  0  0  0  0
 13 24  1  1  0  0  0
 15  5  1  0  0  0  0
 16  3  1  0  0  0  0
 17 28  1  6  0  0  0
 17 10  1  0  0  0  0
 18 20  1  0  0  0  0
 19  6  1  6  0  0  0
 20 13  1  0  0  0  0
 20 11  1  1  0  0  0
 21 26  1  0  0  0  0
 21 23  2  0  0  0  0
 23  4  1  0  0  0  0
 24 22  1  0  0  0  0
 25 14  1  6  0  0  0
 25 17  1  0  0  0  0
 26  1  2  0  0  0  0
 28 29  1  0  0  0  0
 30 34  1  0  0  0  0
 31 33  1  0  0  0  0
 31 32  1  0  0  0  0
 32 34  1  0  0  0  0
 32 29  1  1  0  0  0
 33 30  1  0  0  0  0
M  END
>  <MODEL>
1

>  <REMARK>
 VINA RESULT:      -8.3      0.000      0.000
  Name = 
  3 active torsions:
  status: ('A' for Active; 'I' for Inactive)
    1  A    between atoms: C_17  and  O_28
    2  A    between atoms: O_28  and  C_29
    3  A    between atoms: C_29  and  C_32
                            x       y       z     vdW  Elec       q    Type
                         _______ _______ _______ _____ _____    ______ ____

>  <TORSDO>
F 3

$$$$
=
 OpenBabel11112417453D

 34 40  0  0  1  0  0  0  0  0999 V2000
  192.9420  176.1960  143.3040 C   0  0  0  0  0  0  0  0  0  0  0  0
  190.9280  177.7130  143.0480 C   0  0  0  0  0  2  0  0  0  0  0  0
  194.5160  170.6010  144.1940 C   0  0  0  0  0  0  0  0  0  0  0  0
  194.5790  174.4380  143.4800 C   0  0  0  0  0  0  0  0  0  0  0  0
  194.5630  172.8220  145.4430 C   0  0  2  0  0  3  0  0  0  0  0  0
  195.6730  170.8480  146.2780 O   0  0  0  0  0  1  0  0  0  0  0  0
  193.5350  169.9300  143.9200 O   0  0  0  0  0  0  0  0  0  0  0  0
  196.8170  171.4970  143.7150 C   0  0  0  0  0  2  0  0  0  0  0  0
  191.3750  176.7120  145.2120 C   0  0  2  0  0  3  0  0  0  0  0  0
  188.7430  175.8280  146.8750 C   0  0  0  0  0  2  0  0  0  0  0  0
  193.1090  173.2750  145.6010 C   0  0  0  0  0  2  0  0  0  0  0  0
  196.5640  173.0000  143.8480 C   0  0  0  0  0  2  0  0  0  0  0  0
  191.5290  175.2330  145.6120 C   0  0  1  0  0  3  0  0  0  0  0  0
  189.8080  178.1290  143.9830 C   0  0  0  0  0  2  0  0  0  0  0  0
  195.1800  173.3400  144.1980 N   0  0  0  0  0  0  0  0  0  0  0  0
  195.6170  170.7280  143.1740 C   0  0  0  0  0  2  0  0  0  0  0  0
  188.8270  176.2800  145.4210 C   0  0  2  0  0  3  0  0  0  0  0  0
  193.4950  175.1340  144.0310 C   0  0  0  0  0  0  0  0  0  0  0  0
  194.5770  171.2890  145.5340 C   0  0  2  0  0  3  0  0  0  0  0  0
  192.9850  174.7800  145.4050 C   0  0  2  0  0  3  0  0  0  0  0  0
  194.4870  175.8210  141.5560 C   0  0  0  0  0  3  0  0  0  0  0  0
  189.6570  174.6420  147.1470 C   0  0  0  0  0  2  0  0  0  0  0  0
  195.0500  174.7990  142.2540 N   0  0  0  0  0  0  0  0  0  0  0  0
  191.1230  175.0340  147.0660 C   0  0  0  0  0  2  0  0  0  0  0  0
  189.9600  177.3120  145.2700 C   0  0  1  0  0  3  0  0  0  0  0  0
  193.4390  176.5100  142.0790 N   0  0  0  0  0  0  0  0  0  0  0  0
  191.8290  176.9140  143.8480 N   0  0  0  0  0  0  0  0  0  0  0  0
  187.5980  176.8430  145.0640 O   0  0  0  0  0  0  0  0  0  0  0  0
  186.9570  177.0990  146.2770 C   0  0  0  0  0  2  0  0  0  0  0  0
  184.6130  178.5310  144.5440 O   0  0  0  0  0  0  0  0  0  0  0  0
  184.9280  178.3750  146.8780 C   0  0  0  0  0  2  0  0  0  0  0  0
  186.2780  178.4560  146.2280 C   0  0  2  0  0  3  0  0  0  0  0  0
  183.9670  178.7360  145.7700 C   0  0  0  0  0  2  0  0  0  0  0  0
  185.9660  178.8090  144.7910 C   0  0  0  0  0  2  0  0  0  0  0  0
  1 27  1  0  0  0  0
  1 18  1  0  0  0  0
  2 27  1  0  0  0  0
  2 14  1  0  0  0  0
  3 19  1  0  0  0  0
  4 18  2  0  0  0  0
  4 15  1  0  0  0  0
  5 19  1  0  0  0  0
  5 11  1  6  0  0  0
  7  3  2  0  0  0  0
  8 12  1  0  0  0  0
  9 27  1  6  0  0  0
  9 25  1  0  0  0  0
  9 13  1  0  0  0  0
 10 22  1  0  0  0  0
 12 15  1  0  0  0  0
 13 24  1  1  0  0  0
 15  5  1  0  0  0  0
 16  8  1  0  0  0  0
 16  3  1  0  0  0  0
 17 28  1  1  0  0  0
 17 10  1  0  0  0  0
 18 20  1  0  0  0  0
 19  6  1  6  0  0  0
 20 11  1  6  0  0  0
 20 13  1  0  0  0  0
 21 26  1  0  0  0  0
 21 23  2  0  0  0  0
 23  4  1  0  0  0  0
 24 22  1  0  0  0  0
 25 14  1  6  0  0  0
 25 17  1  0  0  0  0
 26  1  2  0  0  0  0
 28 29  1  0  0  0  0
 30 34  1  0  0  0  0
 30 33  1  0  0  0  0
 32 29  1  6  0  0  0
 32 31  1  0  0  0  0
 33 31  1  0  0  0  0
 34 32  1  0  0  0  0
M  END
>  <MODEL>
2

>  <REMARK>
 VINA RESULT:      -8.2      2.348      8.836
  Name = 
  3 active torsions:
  status: ('A' for Active; 'I' for Inactive)
    1  A    between atoms: C_17  and  O_28
    2  A    between atoms: O_28  and  C_29
    3  A    between atoms: C_29  and  C_32
                            x       y       z     vdW  Elec       q    Type
                         _______ _______ _______ _____ _____    ______ ____

>  <TORSDO>
F 3

$$$$
=
 OpenBabel11112417453D

 34 40  0  0  1  0  0  0  0  0999 V2000
  192.1650  175.8350  145.7820 C   0  0  0  0  0  0  0  0  0  0  0  0
  190.2430  177.1830  146.7410 C   0  0  0  0  0  2  0  0  0  0  0  0
  195.1360  174.7780  140.8200 C   0  0  0  0  0  0  0  0  0  0  0  0
  193.9660  174.8240  144.5440 C   0  0  0  0  0  0  0  0  0  0  0  0
  193.5250  173.5660  142.3790 C   0  0  2  0  0  3  0  0  0  0  0  0
  194.6710  172.4400  140.5780 O   0  0  0  0  0  1  0  0  0  0  0  0
  194.8790  175.7070  140.0730 O   0  0  0  0  0  0  0  0  0  0  0  0
  196.6580  173.5090  142.3690 C   0  0  0  0  0  2  0  0  0  0  0  0
  189.7580  175.3980  145.1710 C   0  0  2  0  0  3  0  0  0  0  0  0
  187.3250  176.0080  143.1250 C   0  0  0  0  0  2  0  0  0  0  0  0
  192.2150  174.3580  142.3700 C   0  0  0  0  0  2  0  0  0  0  0  0
  195.7700  173.4040  143.6100 C   0  0  0  0  0  2  0  0  0  0  0  0
  190.2640  175.1700  143.7350 C   0  0  1  0  0  3  0  0  0  0  0  0
  188.7450  177.1830  146.5010 C   0  0  0  0  0  2  0  0  0  0  0  0
  194.4480  174.0220  143.4460 N   0  0  0  0  0  0  0  0  0  0  0  0
  196.4390  174.7920  141.5750 C   0  0  0  0  0  2  0  0  0  0  0  0
  188.0170  176.9780  144.0760 C   0  0  2  0  0  3  0  0  0  0  0  0
  192.5930  175.0530  144.7030 C   0  0  0  0  0  0  0  0  0  0  0  0
  194.1290  173.6660  140.9710 C   0  0  2  0  0  3  0  0  0  0  0  0
  191.6030  174.4130  143.7630 C   0  0  2  0  0  3  0  0  0  0  0  0
  194.4070  176.1530  146.4580 C   0  0  0  0  0  3  0  0  0  0  0  0
  188.3180  175.3380  142.1870 C   0  0  0  0  0  2  0  0  0  0  0  0
  194.8410  175.3810  145.4270 N   0  0  0  0  0  0  0  0  0  0  0  0
  189.2370  174.3840  142.9320 C   0  0  0  0  0  2  0  0  0  0  0  0
  188.4690  176.2220  145.3400 C   0  0  1  0  0  3  0  0  0  0  0  0
  193.0780  176.3790  146.6290 N   0  0  0  0  0  0  0  0  0  0  0  0
  190.7660  176.0860  145.9570 N   0  0  0  0  0  0  0  0  0  0  0  0
  187.1120  177.9910  144.4070 O   0  0  0  0  0  0  0  0  0  0  0  0
  185.8530  177.3970  144.2870 C   0  0  0  0  0  2  0  0  0  0  0  0
  185.6140  177.5830  147.5220 O   0  0  0  0  0  0  0  0  0  0  0  0
  185.4840  179.2620  145.8670 C   0  0  0  0  0  2  0  0  0  0  0  0
  184.8980  178.0010  145.3020 C   0  0  2  0  0  3  0  0  0  0  0  0
  185.6170  178.9730  147.3440 C   0  0  0  0  0  2  0  0  0  0  0  0
  184.7920  177.0840  146.4990 C   0  0  0  0  0  2  0  0  0  0  0  0
  1 27  1  0  0  0  0
  1 26  1  0  0  0  0
  3 19  1  0  0  0  0
  3 16  1  0  0  0  0
  4 18  1  0  0  0  0
  4 23  2  0  0  0  0
  5 11  1  6  0  0  0
  5 15  1  0  0  0  0
  7  3  2  0  0  0  0
  8 12  1  0  0  0  0
  9 25  1  0  0  0  0
  9 27  1  1  0  0  0
 10 17  1  0  0  0  0
 13 24  1  6  0  0  0
 13 20  1  0  0  0  0
 13  9  1  0  0  0  0
 14  2  1  0  0  0  0
 15 12  1  0  0  0  0
 15  4  1  0  0  0  0
 16  8  1  0  0  0  0
 17 28  1  1  0  0  0
 17 25  1  0  0  0  0
 18  1  2  0  0  0  0
 19  6  1  1  0  0  0
 19  5  1  0  0  0  0
 20 11  1  6  0  0  0
 20 18  1  0  0  0  0
 21 26  2  0  0  0  0
 22 24  1  0  0  0  0
 22 10  1  0  0  0  0
 23 21  1  0  0  0  0
 25 14  1  1  0  0  0
 27  2  1  0  0  0  0
 29 28  1  0  0  0  0
 31 33  1  0  0  0  0
 32 29  1  6  0  0  0
 32 31  1  0  0  0  0
 32 34  1  0  0  0  0
 33 30  1  0  0  0  0
 34 30  1  0  0  0  0
M  END
>  <MODEL>
3

>  <REMARK>
 VINA RESULT:      -8.2      2.638      8.902
  Name = 
  3 active torsions:
  status: ('A' for Active; 'I' for Inactive)
    1  A    between atoms: C_17  and  O_28
    2  A    between atoms: O_28  and  C_29
    3  A    between atoms: C_29  and  C_32
                            x       y       z     vdW  Elec       q    Type
                         _______ _______ _______ _____ _____    ______ ____

>  <TORSDO>
F 3

$$$$
=
 OpenBabel11112417453D

 34 40  0  0  1  0  0  0  0  0999 V2000
  189.4760  174.9710  141.9630 C   0  0  0  0  0  0  0  0  0  0  0  0
  187.1100  175.6190  142.6040 C   0  0  0  0  0  2  0  0  0  0  0  0
  194.2910  172.2410  143.9450 C   0  0  0  0  0  0  0  0  0  0  0  0
  191.7000  174.0920  141.6860 C   0  0  0  0  0  0  0  0  0  0  0  0
  193.5330  174.6050  143.3720 C   0  0  2  0  0  3  0  0  0  0  0  0
  195.8300  174.0750  143.8890 O   0  0  0  0  0  1  0  0  0  0  0  0
  193.9230  171.5570  144.8860 O   0  0  0  0  0  0  0  0  0  0  0  0
  195.0640  172.5470  141.5710 C   0  0  0  0  0  2  0  0  0  0  0  0
  188.9680  176.6980  143.7300 C   0  0  2  0  0  3  0  0  0  0  0  0
  188.4920  177.3030  146.8730 C   0  0  0  0  0  2  0  0  0  0  0  0
  192.3650  174.9370  144.3040 C   0  0  0  0  0  2  0  0  0  0  0  0
  194.0470  173.5790  141.0780 C   0  0  0  0  0  2  0  0  0  0  0  0
  190.1400  176.0910  144.5230 C   0  0  1  0  0  3  0  0  0  0  0  0
  186.5290  176.5490  143.6530 C   0  0  0  0  0  2  0  0  0  0  0  0
  193.0790  173.9920  142.1000 N   0  0  0  0  0  0  0  0  0  0  0  0
  194.4920  171.5830  142.6050 C   0  0  0  0  0  2  0  0  0  0  0  0
  187.6320  176.4600  145.9390 C   0  0  2  0  0  3  0  0  0  0  0  0
  190.8050  174.9000  142.3980 C   0  0  0  0  0  0  0  0  0  0  0  0
  194.5080  173.7170  144.1580 C   0  0  2  0  0  3  0  0  0  0  0  0
  191.2880  175.7210  143.5670 C   0  0  2  0  0  3  0  0  0  0  0  0
  189.9530  173.4560  140.2140 C   0  0  0  0  0  3  0  0  0  0  0  0
  189.9340  176.8190  146.8970 C   0  0  0  0  0  2  0  0  0  0  0  0
  191.2520  173.3880  140.6100 N   0  0  0  0  0  0  0  0  0  0  0  0
  190.6340  177.0770  145.5730 C   0  0  0  0  0  2  0  0  0  0  0  0
  187.6930  177.0470  144.5170 C   0  0  1  0  0  3  0  0  0  0  0  0
  189.0740  174.2400  140.8900 N   0  0  0  0  0  0  0  0  0  0  0  0
  188.5450  175.7870  142.6830 N   0  0  0  0  0  0  0  0  0  0  0  0
  186.3190  176.4710  146.4190 O   0  0  0  0  0  0  0  0  0  0  0  0
  186.3400  177.3610  147.4950 C   0  0  0  0  0  2  0  0  0  0  0  0
  185.3680  179.5430  145.2930 O   0  0  0  0  0  0  0  0  0  0  0  0
  184.1700  177.8460  146.4160 C   0  0  0  0  0  2  0  0  0  0  0  0
  185.2200  178.3760  147.3500 C   0  0  2  0  0  3  0  0  0  0  0  0
  184.1530  178.8450  145.2830 C   0  0  0  0  0  2  0  0  0  0  0  0
  185.7440  179.6050  146.6430 C   0  0  0  0  0  2  0  0  0  0  0  0
  1 18  1  0  0  0  0
  1 27  1  0  0  0  0
  2 27  1  0  0  0  0
  2 14  1  0  0  0  0
  3 19  1  0  0  0  0
  3  7  2  0  0  0  0
  4 15  1  0  0  0  0
  4 18  2  0  0  0  0
  5 19  1  0  0  0  0
  5 11  1  1  0  0  0
  8 16  1  0  0  0  0
  9 27  1  6  0  0  0
  9 25  1  0  0  0  0
  9 13  1  0  0  0  0
 10 22  1  0  0  0  0
 12  8  1  0  0  0  0
 12 15  1  0  0  0  0
 13 24  1  1  0  0  0
 15  5  1  0  0  0  0
 16  3  1  0  0  0  0
 17 28  1  1  0  0  0
 17 10  1  0  0  0  0
 18 20  1  0  0  0  0
 19  6  1  6  0  0  0
 20 11  1  1  0  0  0
 20 13  1  0  0  0  0
 21 23  2  0  0  0  0
 21 26  1  0  0  0  0
 23  4  1  0  0  0  0
 24 22  1  0  0  0  0
 25 14  1  6  0  0  0
 25 17  1  0  0  0  0
 26  1  2  0  0  0  0
 28 29  1  0  0  0  0
 30 34  1  0  0  0  0
 31 32  1  0  0  0  0
 32 29  1  6  0  0  0
 33 30  1  0  0  0  0
 33 31  1  0  0  0  0
 34 32  1  0  0  0  0
M  END
>  <MODEL>
4

>  <REMARK>
 VINA RESULT:      -8.1      2.258      8.436
  Name = 
  3 active torsions:
  status: ('A' for Active; 'I' for Inactive)
    1  A    between atoms: C_17  and  O_28
    2  A    between atoms: O_28  and  C_29
    3  A    between atoms: C_29  and  C_32
                            x       y       z     vdW  Elec       q    Type
                         _______ _______ _______ _____ _____    ______ ____

>  <TORSDO>
F 3

$$$$
=
 OpenBabel11112417453D

 34 40  0  0  1  0  0  0  0  0999 V2000
  192.2150  176.0240  145.8570 C   0  0  0  0  0  0  0  0  0  0  0  0
  189.8880  176.8830  146.3810 C   0  0  0  0  0  2  0  0  0  0  0  0
  196.2080  175.6190  141.5600 C   0  0  0  0  0  0  0  0  0  0  0  0
  194.3990  175.4560  145.0160 C   0  0  0  0  0  0  0  0  0  0  0  0
  194.6710  174.0840  142.8920 C   0  0  2  0  0  3  0  0  0  0  0  0
  196.3600  173.2340  141.3930 O   0  0  0  0  0  1  0  0  0  0  0  0
  195.8810  176.4420  140.7220 O   0  0  0  0  0  0  0  0  0  0  0  0
  197.6770  174.7910  143.4270 C   0  0  0  0  0  2  0  0  0  0  0  0
  190.1320  175.0020  144.8690 C   0  0  2  0  0  3  0  0  0  0  0  0
  188.0420  174.9590  142.3980 C   0  0  0  0  0  2  0  0  0  0  0  0
  193.2350  174.5340  142.6060 C   0  0  0  0  0  2  0  0  0  0  0  0
  196.6260  174.4990  144.5010 C   0  0  0  0  0  2  0  0  0  0  0  0
  190.9320  174.8740  143.5590 C   0  0  1  0  0  3  0  0  0  0  0  0
  188.5020  176.5140  145.8860 C   0  0  0  0  0  2  0  0  0  0  0  0
  195.2500  174.7720  144.0720 N   0  0  0  0  0  0  0  0  0  0  0  0
  197.3110  175.9650  142.5270 C   0  0  0  0  0  2  0  0  0  0  0  0
  188.2990  176.0870  143.3900 C   0  0  2  0  0  3  0  0  0  0  0  0
  193.0060  175.3470  144.9200 C   0  0  0  0  0  0  0  0  0  0  0  0
  195.4820  174.2990  141.6070 C   0  0  2  0  0  3  0  0  0  0  0  0
  192.3830  174.4660  143.8660 C   0  0  2  0  0  3  0  0  0  0  0  0
  194.1560  176.8910  146.8880 C   0  0  0  0  0  3  0  0  0  0  0  0
  189.3190  174.5320  141.6910 C   0  0  0  0  0  2  0  0  0  0  0  0
  194.9410  176.2270  145.9990 N   0  0  0  0  0  0  0  0  0  0  0  0
  190.2840  173.8450  142.6430 C   0  0  0  0  0  2  0  0  0  0  0  0
  188.6770  175.4910  144.7590 C   0  0  1  0  0  3  0  0  0  0  0  0
  192.8040  176.7900  146.8120 N   0  0  0  0  0  0  0  0  0  0  0  0
  190.7890  175.9300  145.7700 N   0  0  0  0  0  0  0  0  0  0  0  0
  187.1360  176.8570  143.4940 O   0  0  0  0  0  0  0  0  0  0  0  0
  187.2780  177.8490  142.5220 C   0  0  0  0  0  2  0  0  0  0  0  0
  184.0920  178.0850  143.1120 O   0  0  0  0  0  0  0  0  0  0  0  0
  185.9410  179.0410  144.2250 C   0  0  0  0  0  2  0  0  0  0  0  0
  186.2680  178.9570  142.7630 C   0  0  2  0  0  3  0  0  0  0  0  0
  184.4590  178.7560  144.2850 C   0  0  0  0  0  2  0  0  0  0  0  0
  184.9510  178.5840  142.1200 C   0  0  0  0  0  2  0  0  0  0  0  0
  1 26  1  0  0  0  0
  3 19  1  0  0  0  0
  3 16  1  0  0  0  0
  4 23  2  0  0  0  0
  5 11  1  6  0  0  0
  5 15  1  0  0  0  0
  7  3  2  0  0  0  0
  8 12  1  0  0  0  0
  9 27  1  1  0  0  0
 10 17  1  0  0  0  0
 13 24  1  6  0  0  0
 13 20  1  0  0  0  0
 13  9  1  0  0  0  0
 14  2  1  0  0  0  0
 15 12  1  0  0  0  0
 15  4  1  0  0  0  0
 16  8  1  0  0  0  0
 17 28  1  1  0  0  0
 17 25  1  0  0  0  0
 18  4  1  0  0  0  0
 18  1  2  0  0  0  0
 19  6  1  1  0  0  0
 19  5  1  0  0  0  0
 20 11  1  6  0  0  0
 20 18  1  0  0  0  0
 22 10  1  0  0  0  0
 22 24  1  0  0  0  0
 23 21  1  0  0  0  0
 25  9  1  0  0  0  0
 25 14  1  1  0  0  0
 26 21  2  0  0  0  0
 27  1  1  0  0  0  0
 27  2  1  0  0  0  0
 29 28  1  0  0  0  0
 30 33  1  0  0  0  0
 31 33  1  0  0  0  0
 32 29  1  1  0  0  0
 32 31  1  0  0  0  0
 34 32  1  0  0  0  0
 34 30  1  0  0  0  0
M  END
>  <MODEL>
5

>  <REMARK>
 VINA RESULT:      -7.9      2.754      9.149
  Name = 
  3 active torsions:
  status: ('A' for Active; 'I' for Inactive)
    1  A    between atoms: C_17  and  O_28
    2  A    between atoms: O_28  and  C_29
    3  A    between atoms: C_29  and  C_32
                            x       y       z     vdW  Elec       q    Type
                         _______ _______ _______ _____ _____    ______ ____

>  <TORSDO>
F 3

$$$$
=
 OpenBabel11112417453D

 34 40  0  0  1  0  0  0  0  0999 V2000
  191.2510  173.9530  141.7880 C   0  0  0  0  0  0  0  0  0  0  0  0
  188.7640  173.8850  142.2740 C   0  0  0  0  0  2  0  0  0  0  0  0
  196.5050  174.7150  144.3150 C   0  0  0  0  0  0  0  0  0  0  0  0
  193.6590  173.9790  141.7470 C   0  0  0  0  0  0  0  0  0  0  0  0
  194.9670  175.9410  142.6960 C   0  0  2  0  0  3  0  0  0  0  0  0
  197.2230  176.6750  143.1390 O   0  0  0  0  0  1  0  0  0  0  0  0
  196.3300  174.5410  145.5090 O   0  0  0  0  0  0  0  0  0  0  0  0
  197.3490  174.0100  142.0520 C   0  0  0  0  0  2  0  0  0  0  0  0
  189.9380  176.0000  142.4540 C   0  0  2  0  0  3  0  0  0  0  0  0
  188.9370  177.9150  144.8640 C   0  0  0  0  0  2  0  0  0  0  0  0
  193.6680  176.2370  143.4520 C   0  0  0  0  0  2  0  0  0  0  0  0
  196.0740  174.1600  141.2200 C   0  0  0  0  0  2  0  0  0  0  0  0
  191.1620  176.3910  143.3030 C   0  0  1  0  0  3  0  0  0  0  0  0
  187.7640  174.9220  142.7510 C   0  0  0  0  0  2  0  0  0  0  0  0
  194.9190  174.6400  141.9870 N   0  0  0  0  0  0  0  0  0  0  0  0
  197.0840  173.5920  143.4940 C   0  0  0  0  0  2  0  0  0  0  0  0
  188.5680  176.4580  144.6080 C   0  0  2  0  0  3  0  0  0  0  0  0
  192.4530  174.6280  142.0380 C   0  0  0  0  0  0  0  0  0  0  0  0
  196.1170  176.0390  143.7080 C   0  0  2  0  0  3  0  0  0  0  0  0
  192.4580  176.0470  142.5490 C   0  0  2  0  0  3  0  0  0  0  0  0
  192.4540  172.0650  141.0320 C   0  0  0  0  0  3  0  0  0  0  0  0
  190.4430  178.1030  144.9650 C   0  0  0  0  0  2  0  0  0  0  0  0
  193.6310  172.7110  141.2500 N   0  0  0  0  0  0  0  0  0  0  0  0
  191.1270  177.8790  143.6260 C   0  0  0  0  0  2  0  0  0  0  0  0
  188.5500  176.1930  143.0910 C   0  0  1  0  0  3  0  0  0  0  0  0
  191.2760  172.6840  141.3030 N   0  0  0  0  0  0  0  0  0  0  0  0
  190.0090  174.5980  142.0860 N   0  0  0  0  0  0  0  0  0  0  0  0
  187.3080  176.2180  145.1630 O   0  0  0  0  0  0  0  0  0  0  0  0
  187.4780  176.4230  146.5340 C   0  0  0  0  0  2  0  0  0  0  0  0
  185.7000  179.1350  146.7290 O   0  0  0  0  0  0  0  0  0  0  0  0
  185.0990  176.9400  146.1030 C   0  0  0  0  0  2  0  0  0  0  0  0
  186.1620  176.8520  147.1600 C   0  0  2  0  0  3  0  0  0  0  0  0
  184.6750  178.3890  146.1330 C   0  0  0  0  0  2  0  0  0  0  0  0
  186.2860  178.2710  147.6670 C   0  0  0  0  0  2  0  0  0  0  0  0
  1 18  1  0  0  0  0
  1 27  1  0  0  0  0
  2 14  1  0  0  0  0
  3  7  2  0  0  0  0
  4 15  1  0  0  0  0
  4 18  2  0  0  0  0
  5 11  1  1  0  0  0
  5 19  1  0  0  0  0
  8 16  1  0  0  0  0
  9 27  1  1  0  0  0
  9 25  1  0  0  0  0
  9 13  1  0  0  0  0
 10 22  1  0  0  0  0
 12 15  1  0  0  0  0
 12  8  1  0  0  0  0
 13 24  1  6  0  0  0
 15  5  1  0  0  0  0
 16  3  1  0  0  0  0
 17 10  1  0  0  0  0
 17 28  1  6  0  0  0
 18 20  1  0  0  0  0
 19  6  1  6  0  0  0
 19  3  1  0  0  0  0
 20 13  1  0  0  0  0
 20 11  1  1  0  0  0
 21 23  2  0  0  0  0
 21 26  1  0  0  0  0
 23  4  1  0  0  0  0
 24 22  1  0  0  0  0
 25 14  1  1  0  0  0
 25 17  1  0  0  0  0
 26  1  2  0  0  0  0
 27  2  1  0  0  0  0
 28 29  1  0  0  0  0
 30 34  1  0  0  0  0
 31 33  1  0  0  0  0
 31 32  1  0  0  0  0
 32 29  1  6  0  0  0
 32 34  1  0  0  0  0
 33 30  1  0  0  0  0
M  END
>  <MODEL>
6

>  <REMARK>
 VINA RESULT:      -7.9      2.554      8.779
  Name = 
  3 active torsions:
  status: ('A' for Active; 'I' for Inactive)
    1  A    between atoms: C_17  and  O_28
    2  A    between atoms: O_28  and  C_29
    3  A    between atoms: C_29  and  C_32
                            x       y       z     vdW  Elec       q    Type
                         _______ _______ _______ _____ _____    ______ ____

>  <TORSDO>
F 3

$$$$
=
 OpenBabel11112417453D

 34 40  0  0  1  0  0  0  0  0999 V2000
  191.6420  174.6090  142.5370 C   0  0  0  0  0  0  0  0  0  0  0  0
  189.2700  175.4930  142.6420 C   0  0  0  0  0  2  0  0  0  0  0  0
  195.5110  171.2090  145.3740 C   0  0  0  0  0  0  0  0  0  0  0  0
  193.7660  173.4890  142.7290 C   0  0  0  0  0  0  0  0  0  0  0  0
  195.1620  173.6770  144.8460 C   0  0  2  0  0  3  0  0  0  0  0  0
  197.1910  172.8470  145.8540 O   0  0  0  0  0  1  0  0  0  0  0  0
  194.8530  170.5180  146.1340 O   0  0  0  0  0  0  0  0  0  0  0  0
  196.8790  171.5650  143.2930 C   0  0  0  0  0  2  0  0  0  0  0  0
  190.8860  176.2730  144.2740 C   0  0  2  0  0  3  0  0  0  0  0  0
  189.7020  176.7370  147.2510 C   0  0  0  0  0  2  0  0  0  0  0  0
  193.8370  174.0890  145.4940 C   0  0  0  0  0  2  0  0  0  0  0  0
  196.1270  172.7390  142.6620 C   0  0  0  0  0  2  0  0  0  0  0  0
  191.7550  175.4830  145.2710 C   0  0  1  0  0  3  0  0  0  0  0  0
  188.5410  176.4200  143.5980 C   0  0  0  0  0  2  0  0  0  0  0  0
  194.9810  173.2020  143.4530 N   0  0  0  0  0  0  0  0  0  0  0  0
  195.9740  170.6150  144.0690 C   0  0  0  0  0  2  0  0  0  0  0  0
  189.0230  176.0610  146.0660 C   0  0  2  0  0  3  0  0  0  0  0  0
  192.8070  174.3530  143.2720 C   0  0  0  0  0  0  0  0  0  0  0  0
  195.8150  172.6330  145.7630 C   0  0  2  0  0  3  0  0  0  0  0  0
  193.0620  175.0390  144.5910 C   0  0  2  0  0  3  0  0  0  0  0  0
  192.3880  173.1570  140.8290 C   0  0  0  0  0  3  0  0  0  0  0  0
  191.0370  176.0840  147.5790 C   0  0  0  0  0  2  0  0  0  0  0  0
  193.5330  172.9110  141.5180 N   0  0  0  0  0  0  0  0  0  0  0  0
  192.0670  176.3380  146.4920 C   0  0  0  0  0  2  0  0  0  0  0  0
  189.4950  176.7220  144.7580 C   0  0  1  0  0  3  0  0  0  0  0  0
  191.4510  173.9980  141.3390 N   0  0  0  0  0  0  0  0  0  0  0  0
  190.6480  175.4840  143.0800 N   0  0  0  0  0  0  0  0  0  0  0  0
  187.6390  176.1990  146.2130 O   0  0  0  0  0  0  0  0  0  0  0  0
  187.4780  177.3210  147.0290 C   0  0  0  0  0  2  0  0  0  0  0  0
  185.1920  179.4160  146.0600 O   0  0  0  0  0  0  0  0  0  0  0  0
  185.1880  177.0560  146.1370 C   0  0  0  0  0  2  0  0  0  0  0  0
  186.0020  177.5620  147.2930 C   0  0  2  0  0  3  0  0  0  0  0  0
  184.4860  178.2890  145.6190 C   0  0  0  0  0  2  0  0  0  0  0  0
  185.7300  179.0490  147.3030 C   0  0  0  0  0  2  0  0  0  0  0  0
  1 27  1  0  0  0  0
  1 18  1  0  0  0  0
  2 27  1  0  0  0  0
  2 14  1  0  0  0  0
  3 19  1  0  0  0  0
  3  7  2  0  0  0  0
  4 18  2  0  0  0  0
  4 15  1  0  0  0  0
  5 11  1  1  0  0  0
  5 19  1  0  0  0  0
  8 16  1  0  0  0  0
  9 27  1  6  0  0  0
  9 25  1  0  0  0  0
  9 13  1  0  0  0  0
 10 22  1  0  0  0  0
 12  8  1  0  0  0  0
 12 15  1  0  0  0  0
 13 24  1  1  0  0  0
 15  5  1  0  0  0  0
 16  3  1  0  0  0  0
 17 28  1  1  0  0  0
 17 10  1  0  0  0  0
 18 20  1  0  0  0  0
 19  6  1  6  0  0  0
 20 13  1  0  0  0  0
 20 11  1  1  0  0  0
 21 26  1  0  0  0  0
 21 23  2  0  0  0  0
 23  4  1  0  0  0  0
 24 22  1  0  0  0  0
 25 14  1  6  0  0  0
 25 17  1  0  0  0  0
 26  1  2  0  0  0  0
 28 29  1  0  0  0  0
 30 34  1  0  0  0  0
 31 32  1  0  0  0  0
 32 29  1  6  0  0  0
 32 34  1  0  0  0  0
 33 30  1  0  0  0  0
 33 31  1  0  0  0  0
M  END
>  <MODEL>
7

>  <REMARK>
 VINA RESULT:      -7.8      2.087      8.825
  Name = 
  3 active torsions:
  status: ('A' for Active; 'I' for Inactive)
    1  A    between atoms: C_17  and  O_28
    2  A    between atoms: O_28  and  C_29
    3  A    between atoms: C_29  and  C_32
                            x       y       z     vdW  Elec       q    Type
                         _______ _______ _______ _____ _____    ______ ____

>  <TORSDO>
F 3

$$$$
=
 OpenBabel11112417453D

 34 40  0  0  1  0  0  0  0  0999 V2000
  189.0570  174.4760  141.0290 C   0  0  0  0  0  0  0  0  0  0  0  0
  187.2850  176.0690  141.8940 C   0  0  0  0  0  2  0  0  0  0  0  0
  192.8500  170.3130  142.7180 C   0  0  0  0  0  0  0  0  0  0  0  0
  190.6940  172.7680  140.5810 C   0  0  0  0  0  0  0  0  0  0  0  0
  192.9020  172.7040  141.8390 C   0  0  2  0  0  3  0  0  0  0  0  0
  194.9020  171.3760  142.0860 O   0  0  0  0  0  1  0  0  0  0  0  0
  192.4690  169.9390  143.8150 O   0  0  0  0  0  0  0  0  0  0  0  0
  193.1550  170.0230  140.2380 C   0  0  0  0  0  2  0  0  0  0  0  0
  189.6030  176.4490  142.5010 C   0  0  2  0  0  3  0  0  0  0  0  0
  190.0620  177.5410  145.5130 C   0  0  0  0  0  2  0  0  0  0  0  0
  192.1630  173.5720  142.8620 C   0  0  0  0  0  2  0  0  0  0  0  0
  192.5050  171.3090  139.7240 C   0  0  0  0  0  2  0  0  0  0  0  0
  190.6130  175.5240  143.2030 C   0  0  1  0  0  3  0  0  0  0  0  0
  187.3210  177.2640  142.8290 C   0  0  0  0  0  2  0  0  0  0  0  0
  191.9960  172.1810  140.7880 N   0  0  0  0  0  0  0  0  0  0  0  0
  192.5070  169.4840  141.5080 C   0  0  0  0  0  2  0  0  0  0  0  0
  188.7760  177.0050  144.8950 C   0  0  2  0  0  3  0  0  0  0  0  0
  190.3280  173.9370  141.2600 C   0  0  0  0  0  0  0  0  0  0  0  0
  193.6300  171.5990  142.6170 C   0  0  2  0  0  3  0  0  0  0  0  0
  191.3150  174.6280  142.1670 C   0  0  2  0  0  3  0  0  0  0  0  0
  188.5640  172.7090  139.5390 C   0  0  0  0  0  3  0  0  0  0  0  0
  191.1980  176.5350  145.4040 C   0  0  0  0  0  2  0  0  0  0  0  0
  189.8010  172.1810  139.7360 N   0  0  0  0  0  0  0  0  0  0  0  0
  191.6440  176.3470  143.9630 C   0  0  0  0  0  2  0  0  0  0  0  0
  188.7410  177.3580  143.3960 C   0  0  1  0  0  3  0  0  0  0  0  0
  188.1970  173.8470  140.1850 N   0  0  0  0  0  0  0  0  0  0  0  0
  188.6630  175.6670  141.7190 N   0  0  0  0  0  0  0  0  0  0  0  0
  187.6920  177.5850  145.5610 O   0  0  0  0  0  0  0  0  0  0  0  0
  187.6330  176.9230  146.7890 C   0  0  0  0  0  2  0  0  0  0  0  0
  185.1940  179.0410  147.1350 O   0  0  0  0  0  0  0  0  0  0  0  0
  185.2490  176.9020  146.1380 C   0  0  0  0  0  2  0  0  0  0  0  0
  186.2020  176.9030  147.2970 C   0  0  2  0  0  3  0  0  0  0  0  0
  184.4570  178.1760  146.3160 C   0  0  0  0  0  2  0  0  0  0  0  0
  185.9030  178.2030  148.0090 C   0  0  0  0  0  2  0  0  0  0  0  0
  1 18  1  0  0  0  0
  1 27  1  0  0  0  0
  2 14  1  0  0  0  0
  3  7  2  0  0  0  0
  4 15  1  0  0  0  0
  4 18  2  0  0  0  0
  5 19  1  0  0  0  0
  5 11  1  1  0  0  0
  8 16  1  0  0  0  0
  9 27  1  1  0  0  0
  9 13  1  0  0  0  0
  9 25  1  0  0  0  0
 12  8  1  0  0  0  0
 12 15  1  0  0  0  0
 13 24  1  6  0  0  0
 15  5  1  0  0  0  0
 16  3  1  0  0  0  0
 17 10  1  0  0  0  0
 17 28  1  1  0  0  0
 18 20  1  0  0  0  0
 19  6  1  6  0  0  0
 19  3  1  0  0  0  0
 20 11  1  1  0  0  0
 20 13  1  0  0  0  0
 21 23  2  0  0  0  0
 21 26  1  0  0  0  0
 22 10  1  0  0  0  0
 23  4  1  0  0  0  0
 24 22  1  0  0  0  0
 25 14  1  6  0  0  0
 25 17  1  0  0  0  0
 26  1  2  0  0  0  0
 27  2  1  0  0  0  0
 28 29  1  0  0  0  0
 30 34  1  0  0  0  0
 31 33  1  0  0  0  0
 31 32  1  0  0  0  0
 32 29  1  6  0  0  0
 32 34  1  0  0  0  0
 33 30  1  0  0  0  0
M  END
>  <MODEL>
8

>  <REMARK>
 VINA RESULT:      -7.6      3.438      8.478
  Name = 
  3 active torsions:
  status: ('A' for Active; 'I' for Inactive)
    1  A    between atoms: C_17  and  O_28
    2  A    between atoms: O_28  and  C_29
    3  A    between atoms: C_29  and  C_32
                            x       y       z     vdW  Elec       q    Type
                         _______ _______ _______ _____ _____    ______ ____

>  <TORSDO>
F 3

$$$$
=
 OpenBabel11112417453D

 34 40  0  0  1  0  0  0  0  0999 V2000
  188.2710  176.6160  141.7010 C   0  0  0  0  0  0  0  0  0  0  0  0
  186.3490  176.7910  140.0580 C   0  0  0  0  0  2  0  0  0  0  0  0
  189.5710  175.2550  147.2710 C   0  0  0  0  0  0  0  0  0  0  0  0
  189.8250  176.2250  143.4980 C   0  0  0  0  0  0  0  0  0  0  0  0
  189.5020  177.3140  145.7720 C   0  0  2  0  0  3  0  0  0  0  0  0
  190.4380  177.3670  147.9960 O   0  0  0  0  0  1  0  0  0  0  0  0
  188.6190  174.6150  147.6890 O   0  0  0  0  0  0  0  0  0  0  0  0
  191.9370  175.4590  146.4420 C   0  0  0  0  0  2  0  0  0  0  0  0
  186.4720  178.3720  141.8930 C   0  0  2  0  0  3  0  0  0  0  0  0
  183.6170  179.2010  143.1720 C   0  0  0  0  0  2  0  0  0  0  0  0
  188.0510  177.4810  145.3100 C   0  0  0  0  0  2  0  0  0  0  0  0
  191.7050  176.1800  145.1120 C   0  0  0  0  0  2  0  0  0  0  0  0
  186.5330  178.1310  143.4130 C   0  0  1  0  0  3  0  0  0  0  0  0
  185.1210  177.6800  139.9760 C   0  0  0  0  0  2  0  0  0  0  0  0
  190.2950  176.4790  144.8390 N   0  0  0  0  0  0  0  0  0  0  0  0
  190.8030  174.5130  146.8220 C   0  0  0  0  0  2  0  0  0  0  0  0
  183.9090  178.0910  142.1700 C   0  0  2  0  0  3  0  0  0  0  0  0
  188.6930  176.8880  143.0070 C   0  0  0  0  0  0  0  0  0  0  0  0
  189.4650  176.7570  147.2020 C   0  0  2  0  0  3  0  0  0  0  0  0
  187.9920  177.9210  143.8540 C   0  0  2  0  0  3  0  0  0  0  0  0
  190.0300  175.0590  141.4430 C   0  0  0  0  0  3  0  0  0  0  0  0
  184.4550  179.0540  144.4330 C   0  0  0  0  0  2  0  0  0  0  0  0
  190.4670  175.3240  142.7030 N   0  0  0  0  0  0  0  0  0  0  0  0
  185.9280  179.3120  144.1590 C   0  0  0  0  0  2  0  0  0  0  0  0
  185.0760  178.5150  141.2600 C   0  0  1  0  0  3  0  0  0  0  0  0
  188.9380  175.7000  140.9510 N   0  0  0  0  0  0  0  0  0  0  0  0
  187.1120  177.2800  141.1840 N   0  0  0  0  0  0  0  0  0  0  0  0
  182.7550  177.8640  141.4140 O   0  0  0  0  0  0  0  0  0  0  0  0
  181.7750  178.6600  142.0120 C   0  0  0  0  0  2  0  0  0  0  0  0
  178.8750  179.9240  141.2780 O   0  0  0  0  0  0  0  0  0  0  0  0
  180.1700  178.2910  140.1690 C   0  0  0  0  0  2  0  0  0  0  0  0
  180.3950  178.1440  141.6460 C   0  0  2  0  0  3  0  0  0  0  0  0
  178.9830  179.2200  140.0720 C   0  0  0  0  0  2  0  0  0  0  0  0
  179.3440  179.0410  142.2620 C   0  0  0  0  0  2  0  0  0  0  0  0
  1 18  1  0  0  0  0
  2 27  1  0  0  0  0
  3  7  2  0  0  0  0
  4 15  1  0  0  0  0
  5 11  1  6  0  0  0
  5 19  1  0  0  0  0
  8 16  1  0  0  0  0
  9 27  1  6  0  0  0
  9 13  1  0  0  0  0
 10 22  1  0  0  0  0
 12  8  1  0  0  0  0
 13 20  1  0  0  0  0
 13 24  1  1  0  0  0
 14  2  1  0  0  0  0
 15 12  1  0  0  0  0
 15  5  1  0  0  0  0
 16  3  1  0  0  0  0
 17 28  1  6  0  0  0
 17 10  1  0  0  0  0
 18  4  2  0  0  0  0
 18 20  1  0  0  0  0
 19  3  1  0  0  0  0
 19  6  1  1  0  0  0
 20 11  1  1  0  0  0
 21 23  2  0  0  0  0
 23  4  1  0  0  0  0
 24 22  1  0  0  0  0
 25 14  1  6  0  0  0
 25  9  1  0  0  0  0
 25 17  1  0  0  0  0
 26 21  1  0  0  0  0
 26  1  2  0  0  0  0
 27  1  1  0  0  0  0
 28 29  1  0  0  0  0
 30 34  1  0  0  0  0
 31 32  1  0  0  0  0
 32 29  1  6  0  0  0
 32 34  1  0  0  0  0
 33 31  1  0  0  0  0
 33 30  1  0  0  0  0
M  END
>  <MODEL>
9

>  <REMARK>
 VINA RESULT:      -7.5      3.407      9.445
  Name = 
  3 active torsions:
  status: ('A' for Active; 'I' for Inactive)
    1  A    between atoms: C_17  and  O_28
    2  A    between atoms: O_28  and  C_29
    3  A    between atoms: C_29  and  C_32
                            x       y       z     vdW  Elec       q    Type
                         _______ _______ _______ _____ _____    ______ ____

>  <TORSDO>
F 3

$$$$
