=
 OpenBabel11112417383D

 28 32  0  0  1  0  0  0  0  0999 V2000
  186.2180  178.3890  144.3440 C   0  0  0  0  0  0  0  0  0  0  0  0
  189.5770  178.1280  145.9090 O   0  0  0  0  0  0  0  0  0  0  0  0
  188.6520  174.7130  139.7870 O   0  0  0  0  0  0  0  0  0  0  0  0
  185.0110  177.0290  146.4770 C   0  0  0  0  0  3  0  0  0  0  0  0
  188.3850  173.5380  141.8940 C   0  0  2  0  0  3  0  0  0  0  0  0
  186.7790  179.1200  143.1660 C   0  0  0  0  0  2  0  0  0  0  0  0
  190.4320  176.1140  147.0370 O   0  0  0  0  0  0  0  0  0  0  0  0
  190.0590  176.7170  145.7130 S   0  0  0  0  0  0  0  0  0  0  0  0
  191.3810  175.9620  143.4440 C   0  0  0  0  0  0  0  0  0  0  0  0
  188.7980  175.7260  144.9480 C   0  0  2  0  0  3  0  0  0  0  0  0
  185.6600  177.4660  140.0970 O   0  0  0  0  0  0  0  0  0  0  0  0
  187.3710  175.4730  143.0090 C   0  0  2  0  0  3  0  0  0  0  0  0
  190.4440  175.0960  143.1880 N   0  0  0  0  0  0  0  0  0  0  0  0
  191.4200  176.6990  144.6630 N   0  0  0  0  0  2  0  0  0  0  0  0
  186.4370  177.8070  141.0250 C   0  0  0  0  0  0  0  0  0  0  0  0
  186.7220  177.1360  144.7480 C   0  0  0  0  0  0  0  0  0  0  0  0
  188.2950  174.7110  140.9960 C   0  0  0  0  0  0  0  0  0  0  0  0
  192.4090  176.2360  142.4070 C   0  0  0  0  0  1  0  0  0  0  0  0
  187.7950  177.1910  141.1070 C   0  0  0  0  0  2  0  0  0  0  0  0
  186.0970  176.4590  145.8100 C   0  0  0  0  0  3  0  0  0  0  0  0
  185.1250  178.9500  145.0140 C   0  0  0  0  0  3  0  0  0  0  0  0
  184.5260  178.2770  146.0810 C   0  0  0  0  0  3  0  0  0  0  0  0
  186.0130  178.7880  141.9740 N   0  0  0  0  0  2  0  0  0  0  0  0
  188.1450  174.1700  143.2850 C   0  0  2  0  0  3  0  0  0  0  0  0
  187.7150  175.8330  141.6350 N   0  0  0  0  0  0  0  0  0  0  0  0
  189.3810  174.6150  144.0920 C   0  0  2  0  0  3  0  0  0  0  0  0
  189.6810  172.7490  141.7500 C   0  0  0  0  0  1  0  0  0  0  0  0
  187.8770  176.5030  144.0190 C   0  0  1  0  0  3  0  0  0  0  0  0
  1 16  2  0  0  0  0
  1 21  1  0  0  0  0
  3 17  2  0  0  0  0
  5 27  1  1  0  0  0
  5 24  1  0  0  0  0
  6  1  1  0  0  0  0
  8  2  2  0  0  0  0
  8  7  2  0  0  0  0
  9 14  1  0  0  0  0
 10  8  1  6  0  0  0
 11 15  2  0  0  0  0
 12 25  1  6  0  0  0
 12 24  1  0  0  0  0
 12 28  1  0  0  0  0
 13  9  2  0  0  0  0
 13 26  1  0  0  0  0
 14  8  1  0  0  0  0
 15 19  1  0  0  0  0
 15 23  1  0  0  0  0
 16 20  1  0  0  0  0
 17 25  1  0  0  0  0
 17  5  1  0  0  0  0
 18  9  1  0  0  0  0
 19 25  1  0  0  0  0
 20  4  2  0  0  0  0
 21 22  2  0  0  0  0
 22  4  1  0  0  0  0
 23  6  1  0  0  0  0
 24 26  1  0  0  0  0
 26 10  1  0  0  0  0
 28 16  1  0  0  0  0
 28 10  1  0  0  0  0
M  END
>  <MODEL>
1

>  <REMARK>
 VINA RESULT:      -8.1      0.000      0.000
  Name = 
  0 active torsions:
  status: ('A' for Active; 'I' for Inactive)
                            x       y       z     vdW  Elec       q    Type
                         _______ _______ _______ _____ _____    ______ ____

>  <TORSDO>
F 0

$$$$
=
 OpenBabel11112417383D

 28 32  0  0  1  0  0  0  0  0999 V2000
  186.8660  177.4380  144.7240 C   0  0  0  0  0  0  0  0  0  0  0  0
  187.1080  174.3580  142.6590 O   0  0  0  0  0  0  0  0  0  0  0  0
  192.9060  176.2460  146.2360 O   0  0  0  0  0  0  0  0  0  0  0  0
  186.4820  179.0430  142.4580 C   0  0  0  0  0  3  0  0  0  0  0  0
  192.6360  176.9010  143.9150 C   0  0  2  0  0  3  0  0  0  0  0  0
  187.0660  176.6580  145.9830 C   0  0  0  0  0  2  0  0  0  0  0  0
  188.3300  174.2050  140.5280 O   0  0  0  0  0  0  0  0  0  0  0  0
  188.4670  174.3500  142.0170 S   0  0  0  0  0  0  0  0  0  0  0  0
  190.6450  173.3080  143.2980 C   0  0  0  0  0  0  0  0  0  0  0  0
  189.3420  175.8510  142.3860 C   0  0  2  0  0  3  0  0  0  0  0  0
  189.7560  178.2070  147.9260 O   0  0  0  0  0  0  0  0  0  0  0  0
  190.2200  177.2580  144.1500 C   0  0  2  0  0  3  0  0  0  0  0  0
  191.2290  174.4700  143.2440 N   0  0  0  0  0  0  0  0  0  0  0  0
  189.4060  173.0520  142.6410 N   0  0  0  0  0  2  0  0  0  0  0  0
  189.1840  177.3730  147.1770 C   0  0  0  0  0  0  0  0  0  0  0  0
  187.7800  177.3650  143.6530 C   0  0  0  0  0  0  0  0  0  0  0  0
  192.1600  176.6000  145.2840 C   0  0  0  0  0  0  0  0  0  0  0  0
  191.2560  172.2340  144.1220 C   0  0  0  0  0  1  0  0  0  0  0  0
  189.9880  176.2840  146.5460 C   0  0  0  0  0  2  0  0  0  0  0  0
  187.5830  178.1870  142.5290 C   0  0  0  0  0  3  0  0  0  0  0  0
  185.7690  178.3030  144.6460 C   0  0  0  0  0  3  0  0  0  0  0  0
  185.5720  179.0990  143.5150 C   0  0  0  0  0  3  0  0  0  0  0  0
  187.7760  177.4740  146.9570 N   0  0  0  0  0  2  0  0  0  0  0  0
  191.3150  176.9450  143.1110 C   0  0  2  0  0  3  0  0  0  0  0  0
  190.7660  176.8010  145.4250 N   0  0  0  0  0  0  0  0  0  0  0  0
  190.8470  175.6420  142.4340 C   0  0  2  0  0  3  0  0  0  0  0  0
  193.6830  175.9240  143.3970 C   0  0  0  0  0  1  0  0  0  0  0  0
  188.9830  176.4630  143.7320 C   0  0  1  0  0  3  0  0  0  0  0  0
  1  6  1  0  0  0  0
  4 20  2  0  0  0  0
  4 22  1  0  0  0  0
  5 27  1  6  0  0  0
  5 17  1  0  0  0  0
  6 23  1  0  0  0  0
  7  8  2  0  0  0  0
  8 14  1  0  0  0  0
  8  2  2  0  0  0  0
  9 18  1  0  0  0  0
 10  8  1  1  0  0  0
 10 26  1  0  0  0  0
 10 28  1  0  0  0  0
 12 25  1  1  0  0  0
 13  9  2  0  0  0  0
 14  9  1  0  0  0  0
 15 11  2  0  0  0  0
 16 28  1  0  0  0  0
 16  1  2  0  0  0  0
 17 25  1  0  0  0  0
 17  3  2  0  0  0  0
 19 15  1  0  0  0  0
 20 16  1  0  0  0  0
 21  1  1  0  0  0  0
 22 21  2  0  0  0  0
 23 15  1  0  0  0  0
 24  5  1  0  0  0  0
 24 12  1  0  0  0  0
 25 19  1  0  0  0  0
 26 24  1  0  0  0  0
 26 13  1  0  0  0  0
 28 12  1  0  0  0  0
M  END
>  <MODEL>
2

>  <REMARK>
 VINA RESULT:      -8.0      2.276      4.775
  Name = 
  0 active torsions:
  status: ('A' for Active; 'I' for Inactive)
                            x       y       z     vdW  Elec       q    Type
                         _______ _______ _______ _____ _____    ______ ____

>  <TORSDO>
F 0

$$$$
=
 OpenBabel11112417383D

 28 32  0  0  1  0  0  0  0  0999 V2000
  185.8890  177.0110  143.8230 C   0  0  0  0  0  0  0  0  0  0  0  0
  187.0670  173.9840  142.0180 O   0  0  0  0  0  0  0  0  0  0  0  0
  191.4460  176.6990  146.8590 O   0  0  0  0  0  0  0  0  0  0  0  0
  185.8830  178.5320  141.4680 C   0  0  0  0  0  3  0  0  0  0  0  0
  191.6920  177.2950  144.5180 C   0  0  2  0  0  3  0  0  0  0  0  0
  185.8650  176.2750  145.1230 C   0  0  0  0  0  2  0  0  0  0  0  0
  188.8020  173.9940  140.2720 O   0  0  0  0  0  0  0  0  0  0  0  0
  188.5330  174.1650  141.7400 S   0  0  0  0  0  0  0  0  0  0  0  0
  190.4310  173.4510  143.5720 C   0  0  0  0  0  0  0  0  0  0  0  0
  189.0730  175.7770  142.2540 C   0  0  2  0  0  3  0  0  0  0  0  0
  187.7320  178.2020  147.6150 O   0  0  0  0  0  0  0  0  0  0  0  0
  189.2710  177.3060  144.1210 C   0  0  2  0  0  3  0  0  0  0  0  0
  190.8470  174.6840  143.6180 N   0  0  0  0  0  0  0  0  0  0  0  0
  189.4480  173.0180  142.6350 N   0  0  0  0  0  2  0  0  0  0  0  0
  187.4900  177.2910  146.7820 C   0  0  0  0  0  0  0  0  0  0  0  0
  187.0480  177.0630  143.0210 C   0  0  0  0  0  0  0  0  0  0  0  0
  190.9280  176.9370  145.7350 C   0  0  0  0  0  0  0  0  0  0  0  0
  190.9520  172.4800  144.5670 C   0  0  0  0  0  1  0  0  0  0  0  0
  188.5690  176.3240  146.4200 C   0  0  0  0  0  2  0  0  0  0  0  0
  187.0350  177.8420  141.8500 C   0  0  0  0  0  3  0  0  0  0  0  0
  184.7420  177.7110  143.4340 C   0  0  0  0  0  3  0  0  0  0  0  0
  184.7350  178.4640  142.2580 C   0  0  0  0  0  3  0  0  0  0  0  0
  186.1850  177.1900  146.2090 N   0  0  0  0  0  2  0  0  0  0  0  0
  190.6270  177.1450  143.4070 C   0  0  2  0  0  3  0  0  0  0  0  0
  189.5300  176.9380  145.5110 N   0  0  0  0  0  0  0  0  0  0  0  0
  190.5290  175.7850  142.6880 C   0  0  2  0  0  3  0  0  0  0  0  0
  192.9590  176.4720  144.3230 C   0  0  0  0  0  1  0  0  0  0  0  0
  188.3020  176.3410  143.4390 C   0  0  1  0  0  3  0  0  0  0  0  0
  1  6  1  0  0  0  0
  4 20  2  0  0  0  0
  4 22  1  0  0  0  0
  5 27  1  6  0  0  0
  5 17  1  0  0  0  0
  6 23  1  0  0  0  0
  7  8  2  0  0  0  0
  8  2  2  0  0  0  0
  8 14  1  0  0  0  0
  9 13  2  0  0  0  0
  9 18  1  0  0  0  0
 10  8  1  1  0  0  0
 10 26  1  0  0  0  0
 10 28  1  0  0  0  0
 12 25  1  1  0  0  0
 14  9  1  0  0  0  0
 15 11  2  0  0  0  0
 16 28  1  0  0  0  0
 16  1  2  0  0  0  0
 17  3  2  0  0  0  0
 19 15  1  0  0  0  0
 20 16  1  0  0  0  0
 21  1  1  0  0  0  0
 22 21  2  0  0  0  0
 23 15  1  0  0  0  0
 24 12  1  0  0  0  0
 24  5  1  0  0  0  0
 25 17  1  0  0  0  0
 25 19  1  0  0  0  0
 26 24  1  0  0  0  0
 26 13  1  0  0  0  0
 28 12  1  0  0  0  0
M  END
>  <MODEL>
3

>  <REMARK>
 VINA RESULT:      -7.8      2.262      4.669
  Name = 
  0 active torsions:
  status: ('A' for Active; 'I' for Inactive)
                            x       y       z     vdW  Elec       q    Type
                         _______ _______ _______ _____ _____    ______ ____

>  <TORSDO>
F 0

$$$$
=
 OpenBabel11112417383D

 28 32  0  0  1  0  0  0  0  0999 V2000
  192.2150  174.0120  144.8760 C   0  0  0  0  0  0  0  0  0  0  0  0
  190.2770  175.5920  147.6240 O   0  0  0  0  0  0  0  0  0  0  0  0
  187.4400  175.9000  141.1560 O   0  0  0  0  0  0  0  0  0  0  0  0
  194.3140  175.8470  145.1710 C   0  0  0  0  0  3  0  0  0  0  0  0
  188.7560  177.7560  142.0020 C   0  0  2  0  0  3  0  0  0  0  0  0
  191.1430  172.9960  144.6500 C   0  0  0  0  0  2  0  0  0  0  0  0
  190.0670  178.0220  147.9590 O   0  0  0  0  0  0  0  0  0  0  0  0
  189.6820  176.8630  147.0850 S   0  0  0  0  0  0  0  0  0  0  0  0
  187.2790  176.8720  145.7830 C   0  0  0  0  0  0  0  0  0  0  0  0
  190.2420  177.1620  145.4270 C   0  0  2  0  0  3  0  0  0  0  0  0
  190.2680  172.9620  141.0940 O   0  0  0  0  0  0  0  0  0  0  0  0
  190.3360  176.2880  143.1710 C   0  0  2  0  0  3  0  0  0  0  0  0
  187.8620  177.3380  144.7170 N   0  0  0  0  0  0  0  0  0  0  0  0
  187.9690  176.7300  147.0220 N   0  0  0  0  0  2  0  0  0  0  0  0
  190.1580  173.2050  142.3240 C   0  0  0  0  0  0  0  0  0  0  0  0
  191.9430  175.3960  144.8550 C   0  0  0  0  0  0  0  0  0  0  0  0
  188.4060  176.3260  141.8450 C   0  0  0  0  0  0  0  0  0  0  0  0
  185.8680  176.4160  145.6900 C   0  0  0  0  0  1  0  0  0  0  0  0
  189.0370  174.0690  142.8020 C   0  0  0  0  0  2  0  0  0  0  0  0
  193.0080  176.3040  144.9890 C   0  0  0  0  0  3  0  0  0  0  0  0
  193.5290  173.5640  145.0530 C   0  0  0  0  0  3  0  0  0  0  0  0
  194.5750  174.4760  145.2060 C   0  0  0  0  0  3  0  0  0  0  0  0
  191.0960  172.6390  143.2400 N   0  0  0  0  0  2  0  0  0  0  0  0
  189.7660  177.7190  143.1740 C   0  0  2  0  0  3  0  0  0  0  0  0
  189.3120  175.4740  142.5210 N   0  0  0  0  0  0  0  0  0  0  0  0
  189.2140  177.9160  144.5990 C   0  0  2  0  0  3  0  0  0  0  0  0
  187.5520  178.6660  142.2070 C   0  0  0  0  0  1  0  0  0  0  0  0
  190.5400  175.8980  144.6350 C   0  0  1  0  0  3  0  0  0  0  0  0
  1 21  1  0  0  0  0
  3 17  2  0  0  0  0
  4 22  1  0  0  0  0
  5 27  1  1  0  0  0
  5 24  1  0  0  0  0
  6  1  1  0  0  0  0
  8  2  2  0  0  0  0
  8  7  2  0  0  0  0
  9 14  1  0  0  0  0
 10  8  1  1  0  0  0
 11 15  2  0  0  0  0
 12 25  1  1  0  0  0
 12 24  1  0  0  0  0
 12 28  1  0  0  0  0
 13  9  2  0  0  0  0
 14  8  1  0  0  0  0
 15 19  1  0  0  0  0
 15 23  1  0  0  0  0
 16  1  2  0  0  0  0
 16 20  1  0  0  0  0
 17  5  1  0  0  0  0
 17 25  1  0  0  0  0
 18  9  1  0  0  0  0
 20  4  2  0  0  0  0
 21 22  2  0  0  0  0
 23  6  1  0  0  0  0
 24 26  1  0  0  0  0
 25 19  1  0  0  0  0
 26 13  1  0  0  0  0
 26 10  1  0  0  0  0
 28 16  1  0  0  0  0
 28 10  1  0  0  0  0
M  END
>  <MODEL>
4

>  <REMARK>
 VINA RESULT:      -7.6      2.264      5.667
  Name = 
  0 active torsions:
  status: ('A' for Active; 'I' for Inactive)
                            x       y       z     vdW  Elec       q    Type
                         _______ _______ _______ _____ _____    ______ ____

>  <TORSDO>
F 0

$$$$
=
 OpenBabel11112417383D

 28 32  0  0  1  0  0  0  0  0999 V2000
  188.6230  176.2400  145.2110 C   0  0  0  0  0  0  0  0  0  0  0  0
  189.1520  173.3300  142.9610 O   0  0  0  0  0  0  0  0  0  0  0  0
  194.8010  175.6660  146.5130 O   0  0  0  0  0  0  0  0  0  0  0  0
  187.9930  177.9160  143.0540 C   0  0  0  0  0  3  0  0  0  0  0  0
  194.3900  176.4160  144.2410 C   0  0  2  0  0  3  0  0  0  0  0  0
  188.9470  175.4170  146.4160 C   0  0  0  0  0  2  0  0  0  0  0  0
  190.3210  173.4400  140.7980 O   0  0  0  0  0  0  0  0  0  0  0  0
  190.4840  173.5140  142.2890 S   0  0  0  0  0  0  0  0  0  0  0  0
  192.8020  172.6590  143.4570 C   0  0  0  0  0  0  0  0  0  0  0  0
  191.1940  175.0820  142.7280 C   0  0  2  0  0  3  0  0  0  0  0  0
  191.4990  177.1520  148.3870 O   0  0  0  0  0  0  0  0  0  0  0  0
  191.9580  176.4790  144.5510 C   0  0  2  0  0  3  0  0  0  0  0  0
  193.2500  173.8810  143.4590 N   0  0  0  0  0  0  0  0  0  0  0  0
  191.5820  172.3000  142.8140 N   0  0  0  0  0  2  0  0  0  0  0  0
  191.0050  176.3020  147.6030 C   0  0  0  0  0  0  0  0  0  0  0  0
  189.5080  176.3330  144.1170 C   0  0  0  0  0  0  0  0  0  0  0  0
  193.9930  175.9850  145.6010 C   0  0  0  0  0  0  0  0  0  0  0  0
  193.5550  171.6170  144.2000 C   0  0  0  0  0  1  0  0  0  0  0  0
  191.9080  175.3500  146.8900 C   0  0  0  0  0  2  0  0  0  0  0  0
  189.1860  177.1900  143.0490 C   0  0  0  0  0  3  0  0  0  0  0  0
  187.4330  176.9760  145.2090 C   0  0  0  0  0  3  0  0  0  0  0  0
  187.1150  177.8060  144.1330 C   0  0  0  0  0  3  0  0  0  0  0  0
  189.5890  176.2530  147.4210 N   0  0  0  0  0  2  0  0  0  0  0  0
  193.0500  176.3530  143.4720 C   0  0  2  0  0  3  0  0  0  0  0  0
  192.5890  176.0160  145.7840 N   0  0  0  0  0  0  0  0  0  0  0  0
  192.7130  175.0460  142.7280 C   0  0  2  0  0  3  0  0  0  0  0  0
  195.5260  175.5960  143.6430 C   0  0  0  0  0  1  0  0  0  0  0  0
  190.8080  175.5720  144.1150 C   0  0  1  0  0  3  0  0  0  0  0  0
  1  6  1  0  0  0  0
  4 22  1  0  0  0  0
  5 27  1  6  0  0  0
  5 17  1  0  0  0  0
  6 23  1  0  0  0  0
  7  8  2  0  0  0  0
  8 14  1  0  0  0  0
  8  2  2  0  0  0  0
  9 13  2  0  0  0  0
  9 18  1  0  0  0  0
 10  8  1  1  0  0  0
 10 28  1  0  0  0  0
 12 25  1  1  0  0  0
 14  9  1  0  0  0  0
 15 11  2  0  0  0  0
 16  1  2  0  0  0  0
 17 25  1  0  0  0  0
 17  3  2  0  0  0  0
 19 15  1  0  0  0  0
 20  4  2  0  0  0  0
 20 16  1  0  0  0  0
 21  1  1  0  0  0  0
 22 21  2  0  0  0  0
 23 15  1  0  0  0  0
 24  5  1  0  0  0  0
 24 12  1  0  0  0  0
 25 19  1  0  0  0  0
 26 10  1  0  0  0  0
 26 13  1  0  0  0  0
 26 24  1  0  0  0  0
 28 16  1  0  0  0  0
 28 12  1  0  0  0  0
M  END
>  <MODEL>
5

>  <REMARK>
 VINA RESULT:      -7.5      3.072      5.714
  Name = 
  0 active torsions:
  status: ('A' for Active; 'I' for Inactive)
                            x       y       z     vdW  Elec       q    Type
                         _______ _______ _______ _____ _____    ______ ____

>  <TORSDO>
F 0

$$$$
=
 OpenBabel11112417383D

 28 32  0  0  1  0  0  0  0  0999 V2000
  188.3490  176.1030  144.1080 C   0  0  0  0  0  0  0  0  0  0  0  0
  191.7650  177.5530  144.3040 O   0  0  0  0  0  0  0  0  0  0  0  0
  191.2120  171.1040  141.4600 O   0  0  0  0  0  0  0  0  0  0  0  0
  188.1180  176.0230  146.9000 C   0  0  0  0  0  3  0  0  0  0  0  0
  191.7620  171.3590  143.8110 C   0  0  2  0  0  3  0  0  0  0  0  0
  188.3900  176.1080  142.6140 C   0  0  0  0  0  2  0  0  0  0  0  0
  193.4930  176.8280  145.9000 O   0  0  0  0  0  0  0  0  0  0  0  0
  192.7060  176.4430  144.6810 S   0  0  0  0  0  0  0  0  0  0  0  0
  193.8240  174.8170  142.7890 C   0  0  0  0  0  0  0  0  0  0  0  0
  191.8090  174.9450  145.0060 C   0  0  2  0  0  3  0  0  0  0  0  0
  187.4940  172.7760  141.3880 O   0  0  0  0  0  0  0  0  0  0  0  0
  190.2870  173.2990  144.0900 C   0  0  2  0  0  3  0  0  0  0  0  0
  193.2570  173.7860  143.3440 N   0  0  0  0  0  0  0  0  0  0  0  0
  193.7800  176.1140  143.3790 N   0  0  0  0  0  2  0  0  0  0  0  0
  188.2250  173.7560  141.6840 C   0  0  0  0  0  0  0  0  0  0  0  0
  189.3510  175.4720  144.8750 C   0  0  0  0  0  0  0  0  0  0  0  0
  191.0870  171.7310  142.5460 C   0  0  0  0  0  0  0  0  0  0  0  0
  194.4850  174.6510  141.4690 C   0  0  0  0  0  1  0  0  0  0  0  0
  189.7090  173.6210  141.5790 C   0  0  0  0  0  2  0  0  0  0  0  0
  189.2140  175.4270  146.2730 C   0  0  0  0  0  3  0  0  0  0  0  0
  187.2520  176.6920  144.7450 C   0  0  0  0  0  3  0  0  0  0  0  0
  187.1380  176.6590  146.1360 C   0  0  0  0  0  3  0  0  0  0  0  0
  187.6230  174.9830  142.0990 N   0  0  0  0  0  2  0  0  0  0  0  0
  191.5320  172.6140  144.6860 C   0  0  2  0  0  3  0  0  0  0  0  0
  190.2370  172.8530  142.7010 N   0  0  0  0  0  0  0  0  0  0  0  0
  192.6210  173.7040  144.6730 C   0  0  2  0  0  3  0  0  0  0  0  0
  193.2170  170.9440  143.6340 C   0  0  0  0  0  1  0  0  0  0  0  0
  190.5230  174.8050  144.2050 C   0  0  1  0  0  3  0  0  0  0  0  0
  1 21  2  0  0  0  0
  1 16  1  0  0  0  0
  2  8  2  0  0  0  0
  3 17  2  0  0  0  0
  5 27  1  6  0  0  0
  5 24  1  0  0  0  0
  6  1  1  0  0  0  0
  8  7  2  0  0  0  0
  9 13  2  0  0  0  0
  9 14  1  0  0  0  0
 10  8  1  6  0  0  0
 11 15  2  0  0  0  0
 12 25  1  6  0  0  0
 12 28  1  0  0  0  0
 12 24  1  0  0  0  0
 13 26  1  0  0  0  0
 14  8  1  0  0  0  0
 15 23  1  0  0  0  0
 16 20  2  0  0  0  0
 17 25  1  0  0  0  0
 17  5  1  0  0  0  0
 18  9  1  0  0  0  0
 19 15  1  0  0  0  0
 19 25  1  0  0  0  0
 20  4  1  0  0  0  0
 21 22  1  0  0  0  0
 22  4  2  0  0  0  0
 23  6  1  0  0  0  0
 26 24  1  0  0  0  0
 26 10  1  0  0  0  0
 28 16  1  0  0  0  0
 28 10  1  0  0  0  0
M  END
>  <MODEL>
6

>  <REMARK>
 VINA RESULT:      -7.3      2.405      3.642
  Name = 
  0 active torsions:
  status: ('A' for Active; 'I' for Inactive)
                            x       y       z     vdW  Elec       q    Type
                         _______ _______ _______ _____ _____    ______ ____

>  <TORSDO>
F 0

$$$$
=
 OpenBabel11112417383D

 28 32  0  0  1  0  0  0  0  0999 V2000
  187.6060  177.6550  144.6120 C   0  0  0  0  0  0  0  0  0  0  0  0
  190.6470  177.9870  146.7210 O   0  0  0  0  0  0  0  0  0  0  0  0
  190.8040  173.0300  141.6830 O   0  0  0  0  0  0  0  0  0  0  0  0
  186.0550  176.8500  146.8040 C   0  0  0  0  0  3  0  0  0  0  0  0
  190.1830  172.4430  143.9550 C   0  0  2  0  0  3  0  0  0  0  0  0
  188.3580  178.0740  143.3910 C   0  0  0  0  0  2  0  0  0  0  0  0
  191.3030  176.3900  148.4760 O   0  0  0  0  0  0  0  0  0  0  0  0
  191.1600  176.6010  146.9960 S   0  0  0  0  0  0  0  0  0  0  0  0
  192.8570  175.3390  145.2640 C   0  0  0  0  0  0  0  0  0  0  0  0
  190.0550  175.3810  146.3300 C   0  0  2  0  0  3  0  0  0  0  0  0
  187.7920  175.6120  140.7410 O   0  0  0  0  0  0  0  0  0  0  0  0
  188.9840  174.5510  144.3220 C   0  0  2  0  0  3  0  0  0  0  0  0
  191.9810  174.3910  145.1010 N   0  0  0  0  0  0  0  0  0  0  0  0
  192.6820  176.3740  146.2290 N   0  0  0  0  0  2  0  0  0  0  0  0
  188.3970  176.2260  141.6570 C   0  0  0  0  0  0  0  0  0  0  0  0
  188.0380  176.5810  145.4170 C   0  0  0  0  0  0  0  0  0  0  0  0
  190.2440  173.3310  142.7710 C   0  0  0  0  0  0  0  0  0  0  0  0
  194.0470  175.3800  144.3760 C   0  0  0  0  0  1  0  0  0  0  0  0
  189.7230  175.7220  142.1250 C   0  0  0  0  0  2  0  0  0  0  0  0
  187.2420  176.1780  146.5050 C   0  0  0  0  0  3  0  0  0  0  0  0
  186.4120  178.3170  144.9170 C   0  0  0  0  0  3  0  0  0  0  0  0
  185.6410  177.9220  146.0120 C   0  0  0  0  0  3  0  0  0  0  0  0
  187.8110  177.4000  142.2230 N   0  0  0  0  0  2  0  0  0  0  0  0
  189.7040  173.4090  145.0640 C   0  0  2  0  0  3  0  0  0  0  0  0
  189.5580  174.5510  142.9790 N   0  0  0  0  0  0  0  0  0  0  0  0
  190.7810  174.1130  145.9130 C   0  0  2  0  0  3  0  0  0  0  0  0
  191.4870  171.7110  144.2440 C   0  0  0  0  0  1  0  0  0  0  0  0
  189.3040  175.8360  145.0870 C   0  0  1  0  0  3  0  0  0  0  0  0
  1 21  2  0  0  0  0
  1 16  1  0  0  0  0
  2  8  2  0  0  0  0
  3 17  2  0  0  0  0
  5 27  1  1  0  0  0
  5 24  1  0  0  0  0
  6  1  1  0  0  0  0
  8  7  2  0  0  0  0
  9 14  1  0  0  0  0
 10  8  1  6  0  0  0
 11 15  2  0  0  0  0
 12 25  1  6  0  0  0
 12 24  1  0  0  0  0
 12 28  1  0  0  0  0
 13  9  2  0  0  0  0
 13 26  1  0  0  0  0
 14  8  1  0  0  0  0
 15 19  1  0  0  0  0
 15 23  1  0  0  0  0
 16 20  2  0  0  0  0
 17 25  1  0  0  0  0
 17  5  1  0  0  0  0
 18  9  1  0  0  0  0
 19 25  1  0  0  0  0
 20  4  1  0  0  0  0
 21 22  1  0  0  0  0
 22  4  2  0  0  0  0
 23  6  1  0  0  0  0
 24 26  1  0  0  0  0
 26 10  1  0  0  0  0
 28 16  1  0  0  0  0
 28 10  1  0  0  0  0
M  END
>  <MODEL>
7

>  <REMARK>
 VINA RESULT:      -7.3      1.834      2.268
  Name = 
  0 active torsions:
  status: ('A' for Active; 'I' for Inactive)
                            x       y       z     vdW  Elec       q    Type
                         _______ _______ _______ _____ _____    ______ ____

>  <TORSDO>
F 0

$$$$
=
 OpenBabel11112417383D

 28 32  0  0  1  0  0  0  0  0999 V2000
  189.0230  175.5170  146.2330 C   0  0  0  0  0  0  0  0  0  0  0  0
  188.9410  172.3800  144.2440 O   0  0  0  0  0  0  0  0  0  0  0  0
  195.1400  175.7620  144.5840 O   0  0  0  0  0  0  0  0  0  0  0  0
  187.2470  176.7900  144.4780 C   0  0  0  0  0  3  0  0  0  0  0  0
  193.6490  176.1290  142.7040 C   0  0  2  0  0  3  0  0  0  0  0  0
  189.9740  174.9160  147.2170 C   0  0  0  0  0  2  0  0  0  0  0  0
  188.9920  172.2910  141.7850 O   0  0  0  0  0  0  0  0  0  0  0  0
  189.7880  172.5970  143.0210 S   0  0  0  0  0  0  0  0  0  0  0  0
  192.4850  172.1580  143.0550 C   0  0  0  0  0  0  0  0  0  0  0  0
  190.3650  174.2760  142.9500 C   0  0  2  0  0  3  0  0  0  0  0  0
  192.8320  177.1660  147.6380 O   0  0  0  0  0  0  0  0  0  0  0  0
  191.6330  175.9920  144.0930 C   0  0  2  0  0  3  0  0  0  0  0  0
  192.6900  173.4060  142.7490 N   0  0  0  0  0  0  0  0  0  0  0  0
  191.1780  171.5890  143.0800 N   0  0  0  0  0  2  0  0  0  0  0  0
  192.1790  176.1650  147.2440 C   0  0  0  0  0  0  0  0  0  0  0  0
  189.3020  175.5390  144.8510 C   0  0  0  0  0  0  0  0  0  0  0  0
  193.9710  175.8630  144.1240 C   0  0  0  0  0  0  0  0  0  0  0  0
  193.6420  171.3160  143.4520 C   0  0  0  0  0  1  0  0  0  0  0  0
  192.8060  175.2160  146.2760 C   0  0  0  0  0  2  0  0  0  0  0  0
  188.4090  176.1950  143.9840 C   0  0  0  0  0  3  0  0  0  0  0  0
  187.8590  176.1220  146.7190 C   0  0  0  0  0  3  0  0  0  0  0  0
  186.9700  176.7510  145.8450 C   0  0  0  0  0  3  0  0  0  0  0  0
  190.8570  175.9480  147.7400 N   0  0  0  0  0  2  0  0  0  0  0  0
  192.1350  175.8210  142.6470 C   0  0  2  0  0  3  0  0  0  0  0  0
  192.8100  175.7780  144.9310 N   0  0  0  0  0  0  0  0  0  0  0  0
  191.7100  174.3920  142.2540 C   0  0  2  0  0  3  0  0  0  0  0  0
  194.5120  175.3500  141.7190 C   0  0  0  0  0  1  0  0  0  0  0  0
  190.5650  174.9210  144.3130 C   0  0  1  0  0  3  0  0  0  0  0  0
  1 21  1  0  0  0  0
  1  6  1  0  0  0  0
  4 22  1  0  0  0  0
  5 27  1  6  0  0  0
  5 17  1  0  0  0  0
  6 23  1  0  0  0  0
  7  8  2  0  0  0  0
  8 14  1  0  0  0  0
  8  2  2  0  0  0  0
  9 14  1  0  0  0  0
  9 18  1  0  0  0  0
 10  8  1  1  0  0  0
 10 28  1  0  0  0  0
 12 28  1  0  0  0  0
 12 25  1  1  0  0  0
 13  9  2  0  0  0  0
 15 11  2  0  0  0  0
 15 23  1  0  0  0  0
 16  1  2  0  0  0  0
 17  3  2  0  0  0  0
 17 25  1  0  0  0  0
 19 15  1  0  0  0  0
 20  4  2  0  0  0  0
 20 16  1  0  0  0  0
 22 21  2  0  0  0  0
 24  5  1  0  0  0  0
 24 12  1  0  0  0  0
 25 19  1  0  0  0  0
 26 24  1  0  0  0  0
 26 13  1  0  0  0  0
 26 10  1  0  0  0  0
 28 16  1  0  0  0  0
M  END
>  <MODEL>
8

>  <REMARK>
 VINA RESULT:      -7.1      3.212      5.614
  Name = 
  0 active torsions:
  status: ('A' for Active; 'I' for Inactive)
                            x       y       z     vdW  Elec       q    Type
                         _______ _______ _______ _____ _____    ______ ____

>  <TORSDO>
F 0

$$$$
=
 OpenBabel11112417383D

 28 32  0  0  1  0  0  0  0  0999 V2000
  193.1150  174.0960  141.9720 C   0  0  0  0  0  0  0  0  0  0  0  0
  193.5130  174.4220  145.6520 O   0  0  0  0  0  0  0  0  0  0  0  0
  187.0380  175.5500  143.0470 O   0  0  0  0  0  0  0  0  0  0  0  0
  194.8130  176.2760  141.4980 C   0  0  0  0  0  3  0  0  0  0  0  0
  188.5330  177.4180  143.4560 C   0  0  2  0  0  3  0  0  0  0  0  0
  192.1980  172.9270  142.1340 C   0  0  0  0  0  2  0  0  0  0  0  0
  193.5260  176.5630  146.8650 O   0  0  0  0  0  0  0  0  0  0  0  0
  192.6790  175.5910  146.0950 S   0  0  0  0  0  0  0  0  0  0  0  0
  190.0300  175.3040  146.7030 C   0  0  0  0  0  0  0  0  0  0  0  0
  191.9600  176.4130  144.6950 C   0  0  2  0  0  3  0  0  0  0  0  0
  189.1480  173.5310  140.2010 O   0  0  0  0  0  0  0  0  0  0  0  0
  190.5230  176.1620  142.7630 C   0  0  2  0  0  3  0  0  0  0  0  0
  189.7240  176.1450  145.7590 N   0  0  0  0  0  0  0  0  0  0  0  0
  191.3800  175.0470  147.0810 N   0  0  0  0  0  2  0  0  0  0  0  0
  189.8940  173.4340  141.2100 C   0  0  0  0  0  0  0  0  0  0  0  0
  192.8670  175.3280  142.6120 C   0  0  0  0  0  0  0  0  0  0  0  0
  188.2050  176.0280  143.0670 C   0  0  0  0  0  0  0  0  0  0  0  0
  188.9410  174.5410  147.3660 C   0  0  0  0  0  1  0  0  0  0  0  0
  189.3730  173.8430  142.5480 C   0  0  0  0  0  2  0  0  0  0  0  0
  193.7180  176.4170  142.3530 C   0  0  0  0  0  3  0  0  0  0  0  0
  194.2120  173.9660  141.1130 C   0  0  0  0  0  3  0  0  0  0  0  0
  195.0620  175.0490  140.8800 C   0  0  0  0  0  3  0  0  0  0  0  0
  191.2180  172.9200  141.0580 N   0  0  0  0  0  2  0  0  0  0  0  0
  190.0700  177.3570  143.6230 C   0  0  2  0  0  3  0  0  0  0  0  0
  189.3500  175.2970  142.6700 N   0  0  0  0  0  0  0  0  0  0  0  0
  190.6250  177.0580  145.0290 C   0  0  2  0  0  3  0  0  0  0  0  0
  187.7640  177.9160  144.6730 C   0  0  0  0  0  1  0  0  0  0  0  0
  191.6740  175.4950  143.5160 C   0  0  1  0  0  3  0  0  0  0  0  0
  1  6  1  0  0  0  0
  1 16  1  0  0  0  0
  2  8  2  0  0  0  0
  3 17  2  0  0  0  0
  4 20  1  0  0  0  0
  5 24  1  0  0  0  0
  5 27  1  1  0  0  0
  8  7  2  0  0  0  0
  8 14  1  0  0  0  0
  9 14  1  0  0  0  0
  9 18  1  0  0  0  0
 10 26  1  0  0  0  0
 10  8  1  1  0  0  0
 11 15  2  0  0  0  0
 12 25  1  1  0  0  0
 12 28  1  0  0  0  0
 12 24  1  0  0  0  0
 13  9  2  0  0  0  0
 15 19  1  0  0  0  0
 16 28  1  0  0  0  0
 17  5  1  0  0  0  0
 19 25  1  0  0  0  0
 20 16  2  0  0  0  0
 21  1  2  0  0  0  0
 22 21  1  0  0  0  0
 22  4  2  0  0  0  0
 23 15  1  0  0  0  0
 23  6  1  0  0  0  0
 24 26  1  0  0  0  0
 25 17  1  0  0  0  0
 26 13  1  0  0  0  0
 28 10  1  0  0  0  0
M  END
>  <MODEL>
9

>  <REMARK>
 VINA RESULT:      -7.1      2.461      6.099
  Name = 
  0 active torsions:
  status: ('A' for Active; 'I' for Inactive)
                            x       y       z     vdW  Elec       q    Type
                         _______ _______ _______ _____ _____    ______ ____

>  <TORSDO>
F 0

$$$$
