=
 OpenBabel11112416213D

 30 35  0  0  1  0  0  0  0  0999 V2000
  186.0240  177.2280  143.3350 C   0  0  0  0  0  0  0  0  0  0  0  0
  184.4260  178.4850  144.8590 C   0  0  0  0  0  0  0  0  0  0  0  0
  188.1570  175.9190  146.6570 N   0  0  0  0  0  2  0  0  0  0  0  0
  187.3060  176.4120  143.2740 C   0  0  0  0  0  0  0  0  0  0  0  0
  186.1040  178.3050  142.4260 O   0  0  0  0  0  0  0  0  0  0  0  0
  187.5110  176.4690  139.6670 O   0  0  0  0  0  0  0  0  0  0  0  0
  190.1100  175.4020  142.2090 C   0  0  1  0  0  3  0  0  0  0  0  0
  187.1640  176.7360  140.8490 C   0  0  0  0  0  0  0  0  0  0  0  0
  190.3410  175.3400  143.7210 C   0  0  2  0  0  3  0  0  0  0  0  0
  189.1990  175.2140  145.9850 C   0  0  0  0  0  0  0  0  0  0  0  0
  186.1190  177.8040  141.0960 C   0  0  1  0  0  3  0  0  0  0  0  0
  187.7460  176.0350  141.9590 N   0  0  0  0  0  0  0  0  0  0  0  0
  183.9870  178.8680  146.1300 C   0  0  0  0  0  3  0  0  0  0  0  0
  191.2320  174.1330  143.9410 C   0  0  0  0  0  2  0  0  0  0  0  0
  191.1810  174.5350  141.5650 C   0  0  0  0  0  2  0  0  0  0  0  0
  183.7160  178.8780  143.7710 F   0  0  0  0  0  0  0  0  0  0  0  0
  187.4430  176.4200  145.7080 C   0  0  0  0  0  0  0  0  0  0  0  0
  184.6810  178.4550  147.2700 C   0  0  0  0  0  3  0  0  0  0  0  0
  185.5810  177.6940  144.7160 C   0  0  0  0  0  0  0  0  0  0  0  0
  187.9510  176.0720  144.4020 C   0  0  0  0  0  0  0  0  0  0  0  0
  190.1210  174.6230  146.6090 O   0  0  0  0  0  0  0  0  0  0  0  0
  189.1300  175.2740  144.5520 N   0  0  0  0  0  0  0  0  0  0  0  0
  192.0660  174.0310  142.6860 C   0  0  0  0  0  2  0  0  0  0  0  0
  188.2490  173.6230  142.2020 C   0  0  0  0  0  1  0  0  0  0  0  0
  185.8160  177.6530  147.1440 C   0  0  0  0  0  3  0  0  0  0  0  0
  186.2620  177.2650  145.8760 C   0  0  0  0  0  0  0  0  0  0  0  0
  188.7290  174.9850  141.7090 C   0  0  2  0  0  3  0  0  0  0  0  0
  184.7250  177.4630  140.5590 C   0  0  0  0  0  2  0  0  0  0  0  0
  182.4650  178.3920  140.6920 C   0  0  0  0  0  2  0  0  0  0  0  0
  183.7740  178.6140  140.6410 C   0  0  0  0  0  3  0  0  0  0  0  0
  1 19  1  0  0  0  0
  2 13  1  0  0  0  0
  4  1  2  0  0  0  0
  4 20  1  0  0  0  0
  5  1  1  0  0  0  0
  6  8  2  0  0  0  0
  7 15  1  6  0  0  0
  7  9  1  0  0  0  0
  8 11  1  0  0  0  0
  8 12  1  0  0  0  0
  9 14  1  6  0  0  0
  9 22  1  0  0  0  0
 10 21  2  0  0  0  0
 10  3  1  0  0  0  0
 11 28  1  1  0  0  0
 11  5  1  0  0  0  0
 12  4  1  0  0  0  0
 13 18  2  0  0  0  0
 15 23  1  0  0  0  0
 16  2  1  0  0  0  0
 17 26  1  0  0  0  0
 17  3  1  0  0  0  0
 19  2  2  0  0  0  0
 19 26  1  0  0  0  0
 20 22  1  0  0  0  0
 20 17  2  0  0  0  0
 22 10  1  0  0  0  0
 23 14  1  0  0  0  0
 25 18  1  0  0  0  0
 26 25  2  0  0  0  0
 27 12  1  0  0  0  0
 27 24  1  1  0  0  0
 27  7  1  0  0  0  0
 28 30  1  0  0  0  0
 30 29  2  0  0  0  0
M  END
>  <MODEL>
1

>  <REMARK>
 VINA RESULT:      -8.4      0.000      0.000
  Name = 
  2 active torsions:
  status: ('A' for Active; 'I' for Inactive)
    1  A    between atoms: C_11  and  C_28
    2  A    between atoms: C_28  and  C_30
                            x       y       z     vdW  Elec       q    Type
                         _______ _______ _______ _____ _____    ______ ____

>  <TORSDO>
F 2

$$$$
=
 OpenBabel11112416213D

 30 35  0  0  1  0  0  0  0  0999 V2000
  188.4620  175.8780  143.6460 C   0  0  0  0  0  0  0  0  0  0  0  0
  186.1320  176.8520  143.9290 C   0  0  0  0  0  0  0  0  0  0  0  0
  189.5100  177.2980  147.4120 N   0  0  0  0  0  2  0  0  0  0  0  0
  189.8520  175.7730  144.2540 C   0  0  0  0  0  0  0  0  0  0  0  0
  188.5610  176.3370  142.3140 O   0  0  0  0  0  0  0  0  0  0  0  0
  191.3360  174.2680  141.3240 O   0  0  0  0  0  0  0  0  0  0  0  0
  193.0130  175.7250  144.3920 C   0  0  1  0  0  3  0  0  0  0  0  0
  190.5210  174.8620  142.0790 C   0  0  0  0  0  0  0  0  0  0  0  0
  192.6840  176.4640  145.6920 C   0  0  2  0  0  3  0  0  0  0  0  0
  190.8790  176.8970  147.4240 C   0  0  0  0  0  0  0  0  0  0  0  0
  189.2020  175.3500  141.5180 C   0  0  1  0  0  3  0  0  0  0  0  0
  190.8290  175.0750  143.4660 N   0  0  0  0  0  0  0  0  0  0  0  0
  185.1710  177.5360  144.6780 C   0  0  0  0  0  3  0  0  0  0  0  0
  193.7340  176.0140  146.6870 C   0  0  0  0  0  2  0  0  0  0  0  0
  194.4440  175.2240  144.5230 C   0  0  0  0  0  2  0  0  0  0  0  0
  185.7890  176.3540  142.7140 F   0  0  0  0  0  0  0  0  0  0  0  0
  189.0810  176.9460  146.2480 C   0  0  0  0  0  0  0  0  0  0  0  0
  185.4860  178.0350  145.9440 C   0  0  0  0  0  3  0  0  0  0  0  0
  187.4330  176.6750  144.4370 C   0  0  0  0  0  0  0  0  0  0  0  0
  190.1080  176.3020  145.4620 C   0  0  0  0  0  0  0  0  0  0  0  0
  191.6360  177.1230  148.4060 O   0  0  0  0  0  0  0  0  0  0  0  0
  191.3250  176.2630  146.2150 N   0  0  0  0  0  0  0  0  0  0  0  0
  194.9610  175.7270  145.8550 C   0  0  0  0  0  2  0  0  0  0  0  0
  191.8700  173.5290  145.0970 C   0  0  0  0  0  1  0  0  0  0  0  0
  186.7650  177.8480  146.4690 C   0  0  0  0  0  3  0  0  0  0  0  0
  187.7340  177.1650  145.7260 C   0  0  0  0  0  0  0  0  0  0  0  0
  192.0900  174.5730  144.0050 C   0  0  2  0  0  3  0  0  0  0  0  0
  188.2580  174.2340  141.0560 C   0  0  0  0  0  2  0  0  0  0  0  0
  188.2660  172.6710  139.1730 C   0  0  0  0  0  2  0  0  0  0  0  0
  188.3960  173.9220  139.6000 C   0  0  0  0  0  3  0  0  0  0  0  0
  1  4  2  0  0  0  0
  1 19  1  0  0  0  0
  2 19  2  0  0  0  0
  2 13  1  0  0  0  0
  3 10  1  0  0  0  0
  4 20  1  0  0  0  0
  5  1  1  0  0  0  0
  6  8  2  0  0  0  0
  7 15  1  1  0  0  0
  7  9  1  0  0  0  0
  8 12  1  0  0  0  0
  9 22  1  0  0  0  0
  9 14  1  1  0  0  0
 10 21  2  0  0  0  0
 11 28  1  1  0  0  0
 11  8  1  0  0  0  0
 11  5  1  0  0  0  0
 12 27  1  0  0  0  0
 12  4  1  0  0  0  0
 13 18  2  0  0  0  0
 15 23  1  0  0  0  0
 16  2  1  0  0  0  0
 17  3  1  0  0  0  0
 18 25  1  0  0  0  0
 19 26  1  0  0  0  0
 20 22  1  0  0  0  0
 20 17  2  0  0  0  0
 22 10  1  0  0  0  0
 23 14  1  0  0  0  0
 26 17  1  0  0  0  0
 26 25  2  0  0  0  0
 27  7  1  0  0  0  0
 27 24  1  1  0  0  0
 29 30  2  0  0  0  0
 30 28  1  0  0  0  0
M  END
>  <MODEL>
2

>  <REMARK>
 VINA RESULT:      -8.2      2.415      3.765
  Name = 
  2 active torsions:
  status: ('A' for Active; 'I' for Inactive)
    1  A    between atoms: C_11  and  C_28
    2  A    between atoms: C_28  and  C_30
                            x       y       z     vdW  Elec       q    Type
                         _______ _______ _______ _____ _____    ______ ____

>  <TORSDO>
F 2

$$$$
=
 OpenBabel11112416213D

 30 35  0  0  1  0  0  0  0  0999 V2000
  188.3630  176.3830  145.3280 C   0  0  0  0  0  0  0  0  0  0  0  0
  186.8660  178.0460  146.5300 C   0  0  0  0  0  0  0  0  0  0  0  0
  186.5990  177.4160  141.7070 N   0  0  0  0  0  2  0  0  0  0  0  0
  188.6680  175.7160  143.9960 C   0  0  0  0  0  0  0  0  0  0  0  0
  188.1670  175.3950  146.3180 O   0  0  0  0  0  0  0  0  0  0  0  0
  190.9340  173.2790  145.4050 O   0  0  0  0  0  0  0  0  0  0  0  0
  189.3900  173.4140  141.9480 C   0  0  1  0  0  3  0  0  0  0  0  0
  190.0560  174.1780  145.3060 C   0  0  0  0  0  0  0  0  0  0  0  0
  188.3890  174.2260  141.1210 C   0  0  2  0  0  3  0  0  0  0  0  0
  187.2840  176.4960  140.8580 C   0  0  0  0  0  0  0  0  0  0  0  0
  189.3910  174.7130  146.5560 C   0  0  1  0  0  3  0  0  0  0  0  0
  189.6880  174.7040  144.0200 N   0  0  0  0  0  0  0  0  0  0  0  0
  185.8700  179.0280  146.5260 C   0  0  0  0  0  3  0  0  0  0  0  0
  188.8860  174.1410  139.6920 C   0  0  0  0  0  2  0  0  0  0  0  0
  190.1640  172.5450  140.9690 C   0  0  0  0  0  2  0  0  0  0  0  0
  187.4720  177.7280  147.7020 F   0  0  0  0  0  0  0  0  0  0  0  0
  187.0380  177.1530  142.8890 C   0  0  0  0  0  0  0  0  0  0  0  0
  185.2490  179.3970  145.3310 C   0  0  0  0  0  3  0  0  0  0  0  0
  187.2380  177.4090  145.3320 C   0  0  0  0  0  0  0  0  0  0  0  0
  188.0140  176.0880  142.8820 C   0  0  0  0  0  0  0  0  0  0  0  0
  187.0690  176.4390  139.6170 O   0  0  0  0  0  0  0  0  0  0  0  0
  188.1940  175.6210  141.5410 N   0  0  0  0  0  0  0  0  0  0  0  0
  189.5720  172.7990  139.5980 C   0  0  0  0  0  2  0  0  0  0  0  0
  191.1290  175.3060  142.0990 C   0  0  0  0  0  1  0  0  0  0  0  0
  185.6230  178.7890  144.1320 C   0  0  0  0  0  3  0  0  0  0  0  0
  186.6170  177.8050  144.1270 C   0  0  0  0  0  0  0  0  0  0  0  0
  190.3580  174.2060  142.8230 C   0  0  2  0  0  3  0  0  0  0  0  0
  190.3320  175.4650  147.5030 C   0  0  0  0  0  2  0  0  0  0  0  0
  192.6040  176.1490  146.9030 C   0  0  0  0  0  2  0  0  0  0  0  0
  191.2960  176.3510  146.7810 C   0  0  0  0  0  3  0  0  0  0  0  0
  1 19  1  0  0  0  0
  1  5  1  0  0  0  0
  2 16  1  0  0  0  0
  3 17  1  0  0  0  0
  4 12  1  0  0  0  0
  4  1  2  0  0  0  0
  5 11  1  0  0  0  0
  7 15  1  6  0  0  0
  7 27  1  0  0  0  0
  8  6  2  0  0  0  0
  8 11  1  0  0  0  0
  9 14  1  6  0  0  0
  9 22  1  0  0  0  0
  9  7  1  0  0  0  0
 10 22  1  0  0  0  0
 10  3  1  0  0  0  0
 11 28  1  6  0  0  0
 12  8  1  0  0  0  0
 13  2  1  0  0  0  0
 17 26  1  0  0  0  0
 18 13  2  0  0  0  0
 19  2  2  0  0  0  0
 20 17  2  0  0  0  0
 20  4  1  0  0  0  0
 21 10  2  0  0  0  0
 22 20  1  0  0  0  0
 23 14  1  0  0  0  0
 23 15  1  0  0  0  0
 25 18  1  0  0  0  0
 26 25  2  0  0  0  0
 26 19  1  0  0  0  0
 27 24  1  6  0  0  0
 27 12  1  0  0  0  0
 30 29  2  0  0  0  0
 30 28  1  0  0  0  0
M  END
>  <MODEL>
3

>  <REMARK>
 VINA RESULT:      -8.0      2.118      5.186
  Name = 
  2 active torsions:
  status: ('A' for Active; 'I' for Inactive)
    1  A    between atoms: C_11  and  C_28
    2  A    between atoms: C_28  and  C_30
                            x       y       z     vdW  Elec       q    Type
                         _______ _______ _______ _____ _____    ______ ____

>  <TORSDO>
F 2

$$$$
=
 OpenBabel11112416213D

 30 35  0  0  1  0  0  0  0  0999 V2000
  187.3820  176.8050  144.2880 C   0  0  0  0  0  0  0  0  0  0  0  0
  185.5000  178.2630  143.3990 C   0  0  0  0  0  0  0  0  0  0  0  0
  188.0810  175.3720  140.4460 N   0  0  0  0  0  2  0  0  0  0  0  0
  188.3920  175.7230  143.9380 C   0  0  0  0  0  0  0  0  0  0  0  0
  186.6240  176.4020  145.4080 O   0  0  0  0  0  0  0  0  0  0  0  0
  189.3580  175.1140  147.3660 O   0  0  0  0  0  0  0  0  0  0  0  0
  190.1210  173.0920  144.2550 C   0  0  1  0  0  3  0  0  0  0  0  0
  188.7220  175.5250  146.3590 C   0  0  0  0  0  0  0  0  0  0  0  0
  189.8080  173.0470  142.7570 C   0  0  2  0  0  3  0  0  0  0  0  0
  189.1120  174.4320  140.7470 C   0  0  0  0  0  0  0  0  0  0  0  0
  187.4640  176.3450  146.5530 C   0  0  1  0  0  3  0  0  0  0  0  0
  189.1830  175.2290  145.0310 N   0  0  0  0  0  0  0  0  0  0  0  0
  184.7160  178.7500  142.3490 C   0  0  0  0  0  3  0  0  0  0  0  0
  191.0430  172.4570  142.1060 C   0  0  0  0  0  2  0  0  0  0  0  0
  191.3020  172.1610  144.4840 C   0  0  0  0  0  2  0  0  0  0  0  0
  185.3030  178.7510  144.6500 F   0  0  0  0  0  0  0  0  0  0  0  0
  187.7430  175.8570  141.5920 C   0  0  0  0  0  0  0  0  0  0  0  0
  184.9150  178.2880  141.0460 C   0  0  0  0  0  3  0  0  0  0  0  0
  186.4870  177.2910  143.1540 C   0  0  0  0  0  0  0  0  0  0  0  0
  188.5170  175.2910  142.6720 C   0  0  0  0  0  0  0  0  0  0  0  0
  189.6600  173.7280  139.8560 O   0  0  0  0  0  0  0  0  0  0  0  0
  189.4350  174.3280  142.1420 N   0  0  0  0  0  0  0  0  0  0  0  0
  191.6260  171.5300  143.1450 C   0  0  0  0  0  2  0  0  0  0  0  0
  191.4870  175.2700  144.1240 C   0  0  0  0  0  1  0  0  0  0  0  0
  185.9040  177.3390  140.7850 C   0  0  0  0  0  3  0  0  0  0  0  0
  186.6940  176.8460  141.8300 C   0  0  0  0  0  0  0  0  0  0  0  0
  190.4140  174.4650  144.8530 C   0  0  2  0  0  3  0  0  0  0  0  0
  187.6940  177.7120  147.2080 C   0  0  0  0  0  2  0  0  0  0  0  0
  186.0480  179.4660  147.6590 C   0  0  0  0  0  2  0  0  0  0  0  0
  186.4780  178.2330  147.9050 C   0  0  0  0  0  3  0  0  0  0  0  0
  1  5  1  0  0  0  0
  2 16  1  0  0  0  0
  3 10  1  0  0  0  0
  3 17  1  0  0  0  0
  4  1  1  0  0  0  0
  4 12  1  0  0  0  0
  5 11  1  0  0  0  0
  7 15  1  6  0  0  0
  7 27  1  0  0  0  0
  8 11  1  0  0  0  0
  8  6  2  0  0  0  0
  9 14  1  6  0  0  0
  9  7  1  0  0  0  0
 10 22  1  0  0  0  0
 11 28  1  6  0  0  0
 12  8  1  0  0  0  0
 13  2  2  0  0  0  0
 14 23  1  0  0  0  0
 17 26  2  0  0  0  0
 17 20  1  0  0  0  0
 18 13  1  0  0  0  0
 19  2  1  0  0  0  0
 19  1  2  0  0  0  0
 20  4  2  0  0  0  0
 21 10  2  0  0  0  0
 22 20  1  0  0  0  0
 22  9  1  0  0  0  0
 23 15  1  0  0  0  0
 25 18  2  0  0  0  0
 25 26  1  0  0  0  0
 26 19  1  0  0  0  0
 27 24  1  6  0  0  0
 27 12  1  0  0  0  0
 28 30  1  0  0  0  0
 29 30  2  0  0  0  0
M  END
>  <MODEL>
4

>  <REMARK>
 VINA RESULT:      -7.9      1.713      4.739
  Name = 
  2 active torsions:
  status: ('A' for Active; 'I' for Inactive)
    1  A    between atoms: C_11  and  C_28
    2  A    between atoms: C_28  and  C_30
                            x       y       z     vdW  Elec       q    Type
                         _______ _______ _______ _____ _____    ______ ____

>  <TORSDO>
F 2

$$$$
=
 OpenBabel11112416213D

 30 35  0  0  1  0  0  0  0  0999 V2000
  186.9430  177.3820  144.1270 C   0  0  0  0  0  0  0  0  0  0  0  0
  185.7510  178.7870  145.8770 C   0  0  0  0  0  0  0  0  0  0  0  0
  189.7200  176.1880  146.9830 N   0  0  0  0  0  2  0  0  0  0  0  0
  188.1600  176.5150  143.8410 C   0  0  0  0  0  0  0  0  0  0  0  0
  186.8490  178.4010  143.1540 O   0  0  0  0  0  0  0  0  0  0  0  0
  187.5690  176.3540  140.2810 O   0  0  0  0  0  0  0  0  0  0  0  0
  190.6350  175.3380  142.2600 C   0  0  1  0  0  3  0  0  0  0  0  0
  187.4970  176.7030  141.4890 C   0  0  0  0  0  0  0  0  0  0  0  0
  191.1920  175.3550  143.6870 C   0  0  2  0  0  3  0  0  0  0  0  0
  190.5720  175.4050  146.1480 C   0  0  0  0  0  0  0  0  0  0  0  0
  186.5590  177.8220  141.8880 C   0  0  1  0  0  3  0  0  0  0  0  0
  188.2910  176.0460  142.4900 N   0  0  0  0  0  0  0  0  0  0  0  0
  185.6120  179.2590  147.1850 C   0  0  0  0  0  3  0  0  0  0  0  0
  192.0790  174.1300  143.7860 C   0  0  0  0  0  2  0  0  0  0  0  0
  191.5170  174.3940  141.4570 C   0  0  0  0  0  2  0  0  0  0  0  0
  184.8290  179.1430  144.9460 F   0  0  0  0  0  0  0  0  0  0  0  0
  188.8280  176.6600  146.1820 C   0  0  0  0  0  0  0  0  0  0  0  0
  186.5280  178.8870  148.1710 C   0  0  0  0  0  3  0  0  0  0  0  0
  186.8260  177.9440  145.5380 C   0  0  0  0  0  0  0  0  0  0  0  0
  189.0290  176.2170  144.8220 C   0  0  0  0  0  0  0  0  0  0  0  0
  191.5940  174.8170  146.5930 O   0  0  0  0  0  0  0  0  0  0  0  0
  190.1920  175.3840  144.7630 N   0  0  0  0  0  0  0  0  0  0  0  0
  192.6140  173.9230  142.3890 C   0  0  0  0  0  2  0  0  0  0  0  0
  188.7760  173.6340  142.7740 C   0  0  0  0  0  1  0  0  0  0  0  0
  187.5870  178.0360  147.8540 C   0  0  0  0  0  3  0  0  0  0  0  0
  187.7350  177.5580  146.5470 C   0  0  0  0  0  0  0  0  0  0  0  0
  189.1690  174.9460  142.1010 C   0  0  2  0  0  3  0  0  0  0  0  0
  185.0730  177.5050  141.6910 C   0  0  0  0  0  2  0  0  0  0  0  0
  183.1410  178.2660  140.3970 C   0  0  0  0  0  2  0  0  0  0  0  0
  184.4580  178.2780  140.5680 C   0  0  0  0  0  3  0  0  0  0  0  0
  1 19  1  0  0  0  0
  2 13  1  0  0  0  0
  4  1  2  0  0  0  0
  4 20  1  0  0  0  0
  5  1  1  0  0  0  0
  6  8  2  0  0  0  0
  7 15  1  6  0  0  0
  7  9  1  0  0  0  0
  8 11  1  0  0  0  0
  8 12  1  0  0  0  0
  9 14  1  1  0  0  0
  9 22  1  0  0  0  0
 10 21  2  0  0  0  0
 10  3  1  0  0  0  0
 11 28  1  1  0  0  0
 11  5  1  0  0  0  0
 12  4  1  0  0  0  0
 13 18  2  0  0  0  0
 15 23  1  0  0  0  0
 16  2  1  0  0  0  0
 17 26  1  0  0  0  0
 17  3  1  0  0  0  0
 19  2  2  0  0  0  0
 19 26  1  0  0  0  0
 20 17  2  0  0  0  0
 22 20  1  0  0  0  0
 22 10  1  0  0  0  0
 23 14  1  0  0  0  0
 25 18  1  0  0  0  0
 26 25  2  0  0  0  0
 27  7  1  0  0  0  0
 27 12  1  0  0  0  0
 27 24  1  1  0  0  0
 29 30  2  0  0  0  0
 30 28  1  0  0  0  0
M  END
>  <MODEL>
5

>  <REMARK>
 VINA RESULT:      -7.8      1.146      1.238
  Name = 
  2 active torsions:
  status: ('A' for Active; 'I' for Inactive)
    1  A    between atoms: C_11  and  C_28
    2  A    between atoms: C_28  and  C_30
                            x       y       z     vdW  Elec       q    Type
                         _______ _______ _______ _____ _____    ______ ____

>  <TORSDO>
F 2

$$$$
=
 OpenBabel11112416213D

 30 35  0  0  1  0  0  0  0  0999 V2000
  186.2760  177.3920  144.4170 C   0  0  0  0  0  0  0  0  0  0  0  0
  184.8720  177.9190  142.3660 C   0  0  0  0  0  0  0  0  0  0  0  0
  189.6070  176.8360  141.9890 N   0  0  0  0  0  2  0  0  0  0  0  0
  187.6390  176.9290  144.9100 C   0  0  0  0  0  0  0  0  0  0  0  0
  185.2690  176.5770  144.9750 O   0  0  0  0  0  0  0  0  0  0  0  0
  186.5690  176.4790  148.3310 O   0  0  0  0  0  0  0  0  0  0  0  0
  189.7680  175.3540  146.6420 C   0  0  1  0  0  3  0  0  0  0  0  0
  186.5410  176.6570  147.0840 C   0  0  0  0  0  0  0  0  0  0  0  0
  190.4430  175.3260  145.2670 C   0  0  2  0  0  3  0  0  0  0  0  0
  190.5450  176.4420  142.9900 C   0  0  0  0  0  0  0  0  0  0  0  0
  185.2080  176.7910  146.3790 C   0  0  1  0  0  3  0  0  0  0  0  0
  187.7600  176.7400  146.3290 N   0  0  0  0  0  0  0  0  0  0  0  0
  184.7340  178.1010  140.9870 C   0  0  0  0  0  3  0  0  0  0  0  0
  191.9280  175.4320  145.5470 C   0  0  0  0  0  2  0  0  0  0  0  0
  190.8480  175.0440  147.6670 C   0  0  0  0  0  2  0  0  0  0  0  0
  183.7990  178.1330  143.1700 F   0  0  0  0  0  0  0  0  0  0  0  0
  188.4990  176.9940  142.6290 C   0  0  0  0  0  0  0  0  0  0  0  0
  185.8260  177.9160  140.1380 C   0  0  0  0  0  3  0  0  0  0  0  0
  186.1110  177.5320  142.9090 C   0  0  0  0  0  0  0  0  0  0  0  0
  188.6460  176.7340  144.0430 C   0  0  0  0  0  0  0  0  0  0  0  0
  191.7420  176.1590  142.7140 O   0  0  0  0  0  0  0  0  0  0  0  0
  189.9990  176.3530  144.3150 N   0  0  0  0  0  0  0  0  0  0  0  0
  192.1200  174.7690  146.8910 C   0  0  0  0  0  2  0  0  0  0  0  0
  189.8690  177.9160  146.8780 C   0  0  0  0  0  1  0  0  0  0  0  0
  187.0660  177.5520  140.6640 C   0  0  0  0  0  3  0  0  0  0  0  0
  187.2140  177.3680  142.0430 C   0  0  0  0  0  0  0  0  0  0  0  0
  189.0410  176.6420  147.0220 C   0  0  2  0  0  3  0  0  0  0  0  0
  184.4070  178.0370  146.7700 C   0  0  0  0  0  2  0  0  0  0  0  0
  185.9410  179.7340  147.6380 C   0  0  0  0  0  2  0  0  0  0  0  0
  185.1930  179.3010  146.6290 C   0  0  0  0  0  3  0  0  0  0  0  0
  1  4  1  0  0  0  0
  1  5  1  0  0  0  0
  2 19  1  0  0  0  0
  2 16  1  0  0  0  0
  3 17  1  0  0  0  0
  3 10  1  0  0  0  0
  4 12  1  0  0  0  0
  5 11  1  0  0  0  0
  7 27  1  0  0  0  0
  7 15  1  1  0  0  0
  8  6  2  0  0  0  0
  9 14  1  1  0  0  0
  9  7  1  0  0  0  0
 10 22  1  0  0  0  0
 11 28  1  6  0  0  0
 11  8  1  0  0  0  0
 12 27  1  0  0  0  0
 12  8  1  0  0  0  0
 13  2  2  0  0  0  0
 14 23  1  0  0  0  0
 17 20  1  0  0  0  0
 18 25  2  0  0  0  0
 18 13  1  0  0  0  0
 19  1  2  0  0  0  0
 20 22  1  0  0  0  0
 20  4  2  0  0  0  0
 21 10  2  0  0  0  0
 22  9  1  0  0  0  0
 23 15  1  0  0  0  0
 25 26  1  0  0  0  0
 26 17  2  0  0  0  0
 26 19  1  0  0  0  0
 27 24  1  6  0  0  0
 30 28  1  0  0  0  0
 30 29  2  0  0  0  0
M  END
>  <MODEL>
6

>  <REMARK>
 VINA RESULT:      -7.7      2.052      4.820
  Name = 
  2 active torsions:
  status: ('A' for Active; 'I' for Inactive)
    1  A    between atoms: C_11  and  C_28
    2  A    between atoms: C_28  and  C_30
                            x       y       z     vdW  Elec       q    Type
                         _______ _______ _______ _____ _____    ______ ____

>  <TORSDO>
F 2

$$$$
=
 OpenBabel11112416213D

 30 35  0  0  1  0  0  0  0  0999 V2000
  189.0350  176.1190  144.7980 C   0  0  0  0  0  0  0  0  0  0  0  0
  190.1380  176.8540  146.9660 C   0  0  0  0  0  0  0  0  0  0  0  0
  192.0960  173.3720  144.1760 N   0  0  0  0  0  2  0  0  0  0  0  0
  189.1780  175.2490  143.5590 C   0  0  0  0  0  0  0  0  0  0  0  0
  188.7590  177.4490  144.4140 O   0  0  0  0  0  0  0  0  0  0  0  0
  186.3330  176.6920  141.8630 O   0  0  0  0  0  0  0  0  0  0  0  0
  189.0430  174.4190  140.5080 C   0  0  1  0  0  3  0  0  0  0  0  0
  187.2670  176.5130  142.6900 C   0  0  0  0  0  0  0  0  0  0  0  0
  190.3500  173.7410  140.9290 C   0  0  2  0  0  3  0  0  0  0  0  0
  191.6850  172.8710  142.9050 C   0  0  0  0  0  0  0  0  0  0  0  0
  187.4740  177.5120  143.8090 C   0  0  1  0  0  3  0  0  0  0  0  0
  188.1300  175.3700  142.5840 N   0  0  0  0  0  0  0  0  0  0  0  0
  191.1540  176.7550  147.9210 C   0  0  0  0  0  3  0  0  0  0  0  0
  190.4060  172.4500  140.1370 C   0  0  0  0  0  2  0  0  0  0  0  0
  188.6030  173.7560  139.2120 C   0  0  0  0  0  2  0  0  0  0  0  0
  189.1170  177.7220  147.1780 F   0  0  0  0  0  0  0  0  0  0  0  0
  191.2300  174.2850  144.4570 C   0  0  0  0  0  0  0  0  0  0  0  0
  192.2030  175.8510  147.7440 C   0  0  0  0  0  3  0  0  0  0  0  0
  190.1720  176.0540  145.8090 C   0  0  0  0  0  0  0  0  0  0  0  0
  190.2280  174.4200  143.4260 C   0  0  0  0  0  0  0  0  0  0  0  0
  192.3340  171.9800  142.2940 O   0  0  0  0  0  0  0  0  0  0  0  0
  190.5090  173.4960  142.3690 N   0  0  0  0  0  0  0  0  0  0  0  0
  189.6780  172.7520  138.8490 C   0  0  0  0  0  2  0  0  0  0  0  0
  187.5580  173.0150  142.0740 C   0  0  0  0  0  1  0  0  0  0  0  0
  192.2390  175.0350  146.6130 C   0  0  0  0  0  3  0  0  0  0  0  0
  191.2270  175.1280  145.6510 C   0  0  0  0  0  0  0  0  0  0  0  0
  187.9020  174.3960  141.5210 C   0  0  2  0  0  3  0  0  0  0  0  0
  186.3270  177.5740  144.8240 C   0  0  0  0  0  2  0  0  0  0  0  0
  185.5670  179.7280  143.9470 C   0  0  0  0  0  2  0  0  0  0  0  0
  185.7870  178.9570  145.0050 C   0  0  0  0  0  3  0  0  0  0  0  0
  1 19  1  0  0  0  0
  2 16  1  0  0  0  0
  2 13  1  0  0  0  0
  3 17  1  0  0  0  0
  4  1  2  0  0  0  0
  5  1  1  0  0  0  0
  6  8  2  0  0  0  0
  7 15  1  6  0  0  0
  7  9  1  0  0  0  0
  7 27  1  0  0  0  0
  8 11  1  0  0  0  0
  9 14  1  6  0  0  0
  9 22  1  0  0  0  0
 10  3  1  0  0  0  0
 11  5  1  0  0  0  0
 11 28  1  1  0  0  0
 12  8  1  0  0  0  0
 12  4  1  0  0  0  0
 17 26  1  0  0  0  0
 18 13  2  0  0  0  0
 19  2  2  0  0  0  0
 20  4  1  0  0  0  0
 20 17  2  0  0  0  0
 21 10  2  0  0  0  0
 22 10  1  0  0  0  0
 22 20  1  0  0  0  0
 23 15  1  0  0  0  0
 23 14  1  0  0  0  0
 25 18  1  0  0  0  0
 26 19  1  0  0  0  0
 26 25  2  0  0  0  0
 27 24  1  1  0  0  0
 27 12  1  0  0  0  0
 28 30  1  0  0  0  0
 29 30  2  0  0  0  0
M  END
>  <MODEL>
7

>  <REMARK>
 VINA RESULT:      -7.6      2.573      4.514
  Name = 
  2 active torsions:
  status: ('A' for Active; 'I' for Inactive)
    1  A    between atoms: C_11  and  C_28
    2  A    between atoms: C_28  and  C_30
                            x       y       z     vdW  Elec       q    Type
                         _______ _______ _______ _____ _____    ______ ____

>  <TORSDO>
F 2

$$$$
=
 OpenBabel11112416213D

 30 35  0  0  1  0  0  0  0  0999 V2000
  189.0060  175.1760  143.3170 C   0  0  0  0  0  0  0  0  0  0  0  0
  186.7310  176.2750  143.5850 C   0  0  0  0  0  0  0  0  0  0  0  0
  190.2830  176.9660  146.8480 N   0  0  0  0  0  2  0  0  0  0  0  0
  190.4190  175.0810  143.8730 C   0  0  0  0  0  0  0  0  0  0  0  0
  189.0600  175.4780  141.9390 O   0  0  0  0  0  0  0  0  0  0  0  0
  191.7050  173.1930  141.0750 O   0  0  0  0  0  0  0  0  0  0  0  0
  193.5790  174.9130  143.8820 C   0  0  1  0  0  3  0  0  0  0  0  0
  190.9500  173.9030  141.7910 C   0  0  0  0  0  0  0  0  0  0  0  0
  193.3380  175.8070  145.1020 C   0  0  2  0  0  3  0  0  0  0  0  0
  191.6350  176.5100  146.8480 C   0  0  0  0  0  0  0  0  0  0  0  0
  189.6250  174.3800  141.2340 C   0  0  1  0  0  3  0  0  0  0  0  0
  191.3310  174.2570  143.1300 N   0  0  0  0  0  0  0  0  0  0  0  0
  185.8320  177.0800  144.2910 C   0  0  0  0  0  3  0  0  0  0  0  0
  194.4170  175.4280  146.0970 C   0  0  0  0  0  2  0  0  0  0  0  0
  194.9940  174.3690  144.0090 C   0  0  0  0  0  2  0  0  0  0  0  0
  186.3130  175.6590  142.4500 F   0  0  0  0  0  0  0  0  0  0  0  0
  189.7870  176.5030  145.7510 C   0  0  0  0  0  0  0  0  0  0  0  0
  186.2260  177.7040  145.4760 C   0  0  0  0  0  3  0  0  0  0  0  0
  188.0460  176.1010  144.0540 C   0  0  0  0  0  0  0  0  0  0  0  0
  190.7510  175.7320  145.0010 C   0  0  0  0  0  0  0  0  0  0  0  0
  192.4450  176.8130  147.7650 O   0  0  0  0  0  0  0  0  0  0  0  0
  192.0000  175.7250  145.7020 N   0  0  0  0  0  0  0  0  0  0  0  0
  195.5920  174.9960  145.2520 C   0  0  0  0  0  2  0  0  0  0  0  0
  192.3870  172.8620  144.8820 C   0  0  0  0  0  1  0  0  0  0  0  0
  187.5200  177.5230  145.9650 C   0  0  0  0  0  3  0  0  0  0  0  0
  188.4260  176.7200  145.2650 C   0  0  0  0  0  0  0  0  0  0  0  0
  192.5950  173.7650  143.6700 C   0  0  2  0  0  3  0  0  0  0  0  0
  188.6200  173.2610  140.9430 C   0  0  0  0  0  2  0  0  0  0  0  0
  188.3450  174.1130  138.6660 C   0  0  0  0  0  2  0  0  0  0  0  0
  188.3760  173.0650  139.4810 C   0  0  0  0  0  3  0  0  0  0  0  0
  1  4  2  0  0  0  0
  1 19  1  0  0  0  0
  2 19  2  0  0  0  0
  2 13  1  0  0  0  0
  3 10  1  0  0  0  0
  4 20  1  0  0  0  0
  5  1  1  0  0  0  0
  6  8  2  0  0  0  0
  7 15  1  1  0  0  0
  7  9  1  0  0  0  0
  8 12  1  0  0  0  0
  9 22  1  0  0  0  0
  9 14  1  1  0  0  0
 10 21  2  0  0  0  0
 11 28  1  1  0  0  0
 11  8  1  0  0  0  0
 11  5  1  0  0  0  0
 12 27  1  0  0  0  0
 12  4  1  0  0  0  0
 13 18  2  0  0  0  0
 15 23  1  0  0  0  0
 16  2  1  0  0  0  0
 17  3  1  0  0  0  0
 18 25  1  0  0  0  0
 19 26  1  0  0  0  0
 20 22  1  0  0  0  0
 20 17  2  0  0  0  0
 22 10  1  0  0  0  0
 23 14  1  0  0  0  0
 26 17  1  0  0  0  0
 26 25  2  0  0  0  0
 27  7  1  0  0  0  0
 27 24  1  1  0  0  0
 29 30  2  0  0  0  0
 30 28  1  0  0  0  0
M  END
>  <MODEL>
8

>  <REMARK>
 VINA RESULT:      -7.5      2.576      4.176
  Name = 
  2 active torsions:
  status: ('A' for Active; 'I' for Inactive)
    1  A    between atoms: C_11  and  C_28
    2  A    between atoms: C_28  and  C_30
                            x       y       z     vdW  Elec       q    Type
                         _______ _______ _______ _____ _____    ______ ____

>  <TORSDO>
F 2

$$$$
=
 OpenBabel11112416213D

 30 35  0  0  1  0  0  0  0  0999 V2000
  188.9180  175.1850  141.5370 C   0  0  0  0  0  0  0  0  0  0  0  0
  188.7340  173.6150  139.5470 C   0  0  0  0  0  0  0  0  0  0  0  0
  191.9060  172.7830  143.1510 N   0  0  0  0  0  2  0  0  0  0  0  0
  189.5680  175.4070  142.8940 C   0  0  0  0  0  0  0  0  0  0  0  0
  187.5160  175.2960  141.6590 O   0  0  0  0  0  0  0  0  0  0  0  0
  187.4730  178.2200  143.7590 O   0  0  0  0  0  0  0  0  0  0  0  0
  189.8220  176.2070  145.9450 C   0  0  1  0  0  3  0  0  0  0  0  0
  187.9210  177.2010  143.1700 C   0  0  0  0  0  0  0  0  0  0  0  0
  190.7360  174.9790  145.8960 C   0  0  2  0  0  3  0  0  0  0  0  0
  192.1150  173.4860  144.3750 C   0  0  0  0  0  0  0  0  0  0  0  0
  187.1730  176.6370  141.9800 C   0  0  1  0  0  3  0  0  0  0  0  0
  189.1360  176.5730  143.6120 N   0  0  0  0  0  0  0  0  0  0  0  0
  189.1380  172.4790  138.8380 C   0  0  0  0  0  3  0  0  0  0  0  0
  191.8630  175.2780  146.8640 C   0  0  0  0  0  2  0  0  0  0  0  0
  190.1810  176.9700  147.2110 C   0  0  0  0  0  2  0  0  0  0  0  0
  187.7850  174.4230  139.0120 F   0  0  0  0  0  0  0  0  0  0  0  0
  190.9470  173.4210  142.5720 C   0  0  0  0  0  0  0  0  0  0  0  0
  190.1320  171.6440  139.3510 C   0  0  0  0  0  3  0  0  0  0  0  0
  189.3160  173.9160  140.7930 C   0  0  0  0  0  0  0  0  0  0  0  0
  190.4960  174.5500  143.3530 C   0  0  0  0  0  0  0  0  0  0  0  0
  192.9650  173.1120  145.2270 O   0  0  0  0  0  0  0  0  0  0  0  0
  191.2500  174.6160  144.5680 N   0  0  0  0  0  0  0  0  0  0  0  0
  191.2420  176.1580  147.9240 C   0  0  0  0  0  2  0  0  0  0  0  0
  191.2630  177.6110  144.3390 C   0  0  0  0  0  1  0  0  0  0  0  0
  190.7330  171.9420  140.5740 C   0  0  0  0  0  3  0  0  0  0  0  0
  190.3350  173.0760  141.2910 C   0  0  0  0  0  0  0  0  0  0  0  0
  189.8670  177.1420  144.7400 C   0  0  2  0  0  3  0  0  0  0  0  0
  187.1330  177.5640  140.7600 C   0  0  0  0  0  2  0  0  0  0  0  0
  184.8160  178.1990  141.2250 C   0  0  0  0  0  2  0  0  0  0  0  0
  185.7410  177.8890  140.3220 C   0  0  0  0  0  3  0  0  0  0  0  0
  1  5  1  0  0  0  0
  1  4  1  0  0  0  0
  2 19  1  0  0  0  0
  3 10  1  0  0  0  0
  4 20  2  0  0  0  0
  4 12  1  0  0  0  0
  5 11  1  0  0  0  0
  7 15  1  1  0  0  0
  8 12  1  0  0  0  0
  8  6  2  0  0  0  0
  9  7  1  0  0  0  0
  9 14  1  1  0  0  0
 10 22  1  0  0  0  0
 10 21  2  0  0  0  0
 11 28  1  6  0  0  0
 11  8  1  0  0  0  0
 12 27  1  0  0  0  0
 13 18  1  0  0  0  0
 13  2  2  0  0  0  0
 14 23  1  0  0  0  0
 15 23  1  0  0  0  0
 16  2  1  0  0  0  0
 17  3  1  0  0  0  0
 17 20  1  0  0  0  0
 18 25  2  0  0  0  0
 19 26  1  0  0  0  0
 19  1  2  0  0  0  0
 20 22  1  0  0  0  0
 22  9  1  0  0  0  0
 25 26  1  0  0  0  0
 26 17  2  0  0  0  0
 27 24  1  6  0  0  0
 27  7  1  0  0  0  0
 30 28  1  0  0  0  0
 30 29  2  0  0  0  0
M  END
>  <MODEL>
9

>  <REMARK>
 VINA RESULT:      -7.5      2.816      5.557
  Name = 
  2 active torsions:
  status: ('A' for Active; 'I' for Inactive)
    1  A    between atoms: C_11  and  C_28
    2  A    between atoms: C_28  and  C_30
                            x       y       z     vdW  Elec       q    Type
                         _______ _______ _______ _____ _____    ______ ____

>  <TORSDO>
F 2

$$$$
