=
 OpenBabel11112417273D

 37 44  0  0  1  0  0  0  0  0999 V2000
  194.5050  174.4740  144.4420 C   0  0  2  0  0  3  0  0  0  0  0  0
  193.7360  173.1820  140.1130 C   0  0  0  0  0  0  0  0  0  0  0  0
  190.2790  174.5600  142.0310 C   0  0  0  0  0  0  0  0  0  0  0  0
  195.2250  174.2880  145.7580 C   0  0  2  0  0  3  0  0  0  0  0  0
  191.3120  177.5450  144.4130 C   0  0  0  0  0  2  0  0  0  0  0  0
  191.2150  173.1690  140.2680 C   0  0  0  0  0  0  0  0  0  0  0  0
  190.8300  175.2180  143.2820 C   0  0  2  0  0  3  0  0  0  0  0  0
  194.4070  176.6070  146.0050 C   0  0  2  0  0  3  0  0  0  0  0  0
  191.3130  173.7600  141.4540 C   0  0  0  0  0  0  0  0  0  0  0  0
  190.5750  176.7480  143.3150 C   0  0  1  0  0  3  0  0  0  0  0  0
  189.8780  173.1290  139.5790 C   0  0  0  0  0  2  0  0  0  0  0  0
  195.2220  175.6640  145.1050 C   0  0  2  0  0  3  0  0  0  0  0  0
  192.5230  173.8790  142.1620 N   0  0  0  0  0  0  0  0  0  0  0  0
  193.8700  174.5320  139.4290 C   0  0  0  0  0  1  0  0  0  0  0  0
  187.9710  175.5280  141.9060 C   0  0  0  0  0  2  0  0  0  0  0  0
  188.9290  174.0500  140.1520 O   0  0  0  0  0  0  0  0  0  0  0  0
  193.7900  173.3640  141.6400 C   0  0  0  0  0  2  0  0  0  0  0  0
  192.9160  176.6530  145.6980 C   0  0  1  0  0  3  0  0  0  0  0  0
  192.6820  177.2680  144.4530 O   0  0  0  0  0  0  0  0  0  0  0  0
  189.1060  174.7020  141.3880 C   0  0  0  0  0  0  0  0  0  0  0  0
  192.3590  174.8850  143.2090 C   0  0  2  0  0  3  0  0  0  0  0  0
  192.4240  172.4950  139.6810 C   0  0  0  0  0  2  0  0  0  0  0  0
  189.1360  177.0060  143.4120 N   0  0  0  0  0  0  0  0  0  0  0  0
  194.9010  172.3140  139.6880 C   0  0  0  0  0  1  0  0  0  0  0  0
  192.3980  175.2170  145.7290 C   0  0  0  0  0  2  0  0  0  0  0  0
  194.9490  177.8910  145.9620 O   0  0  0  0  0  1  0  0  0  0  0  0
  192.9630  174.4210  144.5480 C   0  0  2  0  0  3  0  0  0  0  0  0
  188.3920  176.9640  142.1640 C   0  0  0  0  0  2  0  0  0  0  0  0
  187.3760  177.8530  144.9240 C   0  0  0  0  0  3  0  0  0  0  0  0
  188.4050  176.9360  144.6580 C   0  0  0  0  0  0  0  0  0  0  0  0
  188.6890  175.9420  145.6110 C   0  0  0  0  0  3  0  0  0  0  0  0
  188.2540  174.9120  147.7150 F   0  0  0  0  0  0  0  0  0  0  0  0
  186.9480  176.7950  147.0590 C   0  0  0  0  0  3  0  0  0  0  0  0
  187.9670  175.8730  146.8050 C   0  0  0  0  0  0  0  0  0  0  0  0
  186.6520  177.7840  146.1190 C   0  0  0  0  0  3  0  0  0  0  0  0
  197.2420  173.4800  146.6990 F   0  0  0  0  0  0  0  0  0  0  0  0
  196.5600  173.6190  145.5060 C   0  0  0  0  0  2  0  0  0  0  0  0
  1 27  1  0  0  0  0
  1 12  1  0  0  0  0
  1  4  1  0  0  0  0
  2 17  1  0  0  0  0
  3  7  1  0  0  0  0
  5 19  1  0  0  0  0
  6  9  2  0  0  0  0
  7 10  1  0  0  0  0
  9  3  1  0  0  0  0
  9 13  1  0  0  0  0
 10 23  1  0  0  0  0
 10  5  1  0  0  0  0
 11 16  1  0  0  0  0
 11  6  1  0  0  0  0
 12  4  1  0  0  0  0
 12  8  1  0  0  0  0
 13 21  1  0  0  0  0
 14  2  1  0  0  0  0
 15 28  1  0  0  0  0
 16 20  1  0  0  0  0
 17 13  1  0  0  0  0
 18 25  1  0  0  0  0
 18  8  1  0  0  0  0
 19 18  1  0  0  0  0
 20 15  1  0  0  0  0
 20  3  2  0  0  0  0
 21  7  1  0  0  0  0
 21 27  1  0  0  0  0
 22  2  1  0  0  0  0
 22  6  1  0  0  0  0
 23 30  1  0  0  0  0
 24  2  1  0  0  0  0
 26  8  1  0  0  0  0
 27 25  1  0  0  0  0
 28 23  1  0  0  0  0
 29 35  1  0  0  0  0
 30 29  2  0  0  0  0
 30 31  1  0  0  0  0
 31 34  2  0  0  0  0
 34 33  1  0  0  0  0
 34 32  1  0  0  0  0
 35 33  2  0  0  0  0
 37  4  1  0  0  0  0
 37 36  1  0  0  0  0
M  END
>  <MODEL>
1

>  <REMARK>
 VINA RESULT:      -9.3      0.000      0.000
  Name = 
  2 active torsions:
  status: ('A' for Active; 'I' for Inactive)
    1  A    between atoms: C_4  and  C_37
    2  A    between atoms: N_23  and  C_30
                            x       y       z     vdW  Elec       q    Type
                         _______ _______ _______ _____ _____    ______ ____

>  <TORSDO>
F 2

$$$$
=
 OpenBabel11112417273D

 37 44  0  0  1  0  0  0  0  0999 V2000
  194.0470  174.3150  144.3890 C   0  0  2  0  0  3  0  0  0  0  0  0
  193.2640  173.1310  140.0320 C   0  0  0  0  0  0  0  0  0  0  0  0
  189.8800  174.7290  141.9110 C   0  0  0  0  0  0  0  0  0  0  0  0
  194.7300  174.0630  145.7150 C   0  0  2  0  0  3  0  0  0  0  0  0
  191.0800  177.6040  144.3470 C   0  0  0  0  0  2  0  0  0  0  0  0
  190.7450  173.2950  140.1460 C   0  0  0  0  0  0  0  0  0  0  0  0
  190.4550  175.3310  143.1790 C   0  0  2  0  0  3  0  0  0  0  0  0
  194.0740  176.4320  145.9770 C   0  0  2  0  0  3  0  0  0  0  0  0
  190.8650  173.8640  141.3410 C   0  0  0  0  0  0  0  0  0  0  0  0
  190.3080  176.8740  143.2270 C   0  0  1  0  0  3  0  0  0  0  0  0
  189.4210  173.3580  139.4340 C   0  0  0  0  0  2  0  0  0  0  0  0
  194.8350  175.4440  145.0790 C   0  0  2  0  0  3  0  0  0  0  0  0
  192.0680  173.8890  142.0690 N   0  0  0  0  0  0  0  0  0  0  0  0
  193.5050  174.4760  139.3670 C   0  0  0  0  0  1  0  0  0  0  0  0
  187.6490  175.8580  141.7610 C   0  0  0  0  0  2  0  0  0  0  0  0
  188.5300  174.3370  140.0040 O   0  0  0  0  0  0  0  0  0  0  0  0
  193.3040  173.2910  141.5620 C   0  0  0  0  0  2  0  0  0  0  0  0
  192.5950  176.5860  145.6460 C   0  0  1  0  0  3  0  0  0  0  0  0
  192.4270  177.2310  144.4060 O   0  0  0  0  0  0  0  0  0  0  0  0
  188.7320  174.9600  141.2510 C   0  0  0  0  0  0  0  0  0  0  0  0
  191.9570  174.8920  143.1270 C   0  0  2  0  0  3  0  0  0  0  0  0
  191.9140  172.5440  139.5700 C   0  0  0  0  0  2  0  0  0  0  0  0
  188.8890  177.2330  143.3040 N   0  0  0  0  0  0  0  0  0  0  0  0
  194.3710  172.1880  139.6150 C   0  0  0  0  0  1  0  0  0  0  0  0
  191.9760  175.1910  145.6510 C   0  0  0  0  0  2  0  0  0  0  0  0
  194.7060  177.6750  145.9590 O   0  0  0  0  0  1  0  0  0  0  0  0
  192.5040  174.3710  144.4700 C   0  0  2  0  0  3  0  0  0  0  0  0
  188.1660  177.2580  142.0440 C   0  0  0  0  0  2  0  0  0  0  0  0
  188.3730  176.1910  145.4840 C   0  0  0  0  0  3  0  0  0  0  0  0
  188.1340  177.2000  144.5370 C   0  0  0  0  0  0  0  0  0  0  0  0
  187.1720  178.1840  144.8250 C   0  0  0  0  0  3  0  0  0  0  0  0
  185.5330  179.1050  146.2880 F   0  0  0  0  0  0  0  0  0  0  0  0
  186.7030  177.1400  146.9570 C   0  0  0  0  0  3  0  0  0  0  0  0
  186.4600  178.1530  146.0260 C   0  0  0  0  0  0  0  0  0  0  0  0
  187.6600  176.1600  146.6870 C   0  0  0  0  0  3  0  0  0  0  0  0
  196.9040  173.5580  146.5050 F   0  0  0  0  0  0  0  0  0  0  0  0
  196.0190  173.3040  145.4750 C   0  0  0  0  0  2  0  0  0  0  0  0
  1 27  1  0  0  0  0
  1 12  1  0  0  0  0
  1  4  1  0  0  0  0
  2 17  1  0  0  0  0
  3  7  1  0  0  0  0
  5 19  1  0  0  0  0
  6  9  2  0  0  0  0
  7 10  1  0  0  0  0
  9  3  1  0  0  0  0
  9 13  1  0  0  0  0
 10 23  1  0  0  0  0
 10  5  1  0  0  0  0
 11 16  1  0  0  0  0
 11  6  1  0  0  0  0
 12  4  1  0  0  0  0
 12  8  1  0  0  0  0
 13 21  1  0  0  0  0
 14  2  1  0  0  0  0
 15 28  1  0  0  0  0
 16 20  1  0  0  0  0
 17 13  1  0  0  0  0
 18 25  1  0  0  0  0
 18  8  1  0  0  0  0
 19 18  1  0  0  0  0
 20 15  1  0  0  0  0
 20  3  2  0  0  0  0
 21  7  1  0  0  0  0
 21 27  1  0  0  0  0
 22  2  1  0  0  0  0
 22  6  1  0  0  0  0
 23 30  1  0  0  0  0
 24  2  1  0  0  0  0
 26  8  1  0  0  0  0
 27 25  1  0  0  0  0
 28 23  1  0  0  0  0
 29 35  1  0  0  0  0
 30 31  1  0  0  0  0
 30 29  2  0  0  0  0
 31 34  2  0  0  0  0
 34 32  1  0  0  0  0
 34 33  1  0  0  0  0
 35 33  2  0  0  0  0
 37  4  1  0  0  0  0
 37 36  1  0  0  0  0
M  END
>  <MODEL>
2

>  <REMARK>
 VINA RESULT:      -9.2      0.959      1.246
  Name = 
  2 active torsions:
  status: ('A' for Active; 'I' for Inactive)
    1  A    between atoms: C_4  and  C_37
    2  A    between atoms: N_23  and  C_30
                            x       y       z     vdW  Elec       q    Type
                         _______ _______ _______ _____ _____    ______ ____

>  <TORSDO>
F 2

$$$$
=
 OpenBabel11112417273D

 37 44  0  0  1  0  0  0  0  0999 V2000
  189.5070  173.7230  140.9970 C   0  0  2  0  0  3  0  0  0  0  0  0
  187.2360  176.8930  143.4020 C   0  0  0  0  0  0  0  0  0  0  0  0
  190.7960  175.6970  145.2530 C   0  0  0  0  0  0  0  0  0  0  0  0
  189.5050  172.5080  140.0960 C   0  0  2  0  0  3  0  0  0  0  0  0
  193.4850  175.0510  142.4250 C   0  0  0  0  0  2  0  0  0  0  0  0
  188.5700  176.6370  145.5320 C   0  0  0  0  0  0  0  0  0  0  0  0
  191.5040  174.9300  144.1530 C   0  0  2  0  0  3  0  0  0  0  0  0
  191.8010  173.3460  139.7320 C   0  0  2  0  0  3  0  0  0  0  0  0
  189.4320  175.8760  144.8680 C   0  0  0  0  0  0  0  0  0  0  0  0
  192.8240  175.6100  143.7020 C   0  0  1  0  0  3  0  0  0  0  0  0
  188.9540  177.1660  146.8880 C   0  0  0  0  0  2  0  0  0  0  0  0
  190.3140  173.7320  139.6850 C   0  0  2  0  0  3  0  0  0  0  0  0
  189.1800  175.3630  143.5820 N   0  0  0  0  0  0  0  0  0  0  0  0
  187.9430  178.1380  142.8920 C   0  0  0  0  0  1  0  0  0  0  0  0
  192.6680  176.1600  146.8530 C   0  0  0  0  0  2  0  0  0  0  0  0
  190.3660  177.0520  147.1490 O   0  0  0  0  0  0  0  0  0  0  0  0
  187.9370  175.6370  142.8580 C   0  0  0  0  0  2  0  0  0  0  0  0
  192.4770  173.5720  141.0780 C   0  0  1  0  0  3  0  0  0  0  0  0
  192.5890  174.9470  141.3550 O   0  0  0  0  0  0  0  0  0  0  0  0
  191.2550  176.2780  146.3760 C   0  0  0  0  0  0  0  0  0  0  0  0
  190.4420  174.9060  143.0020 C   0  0  2  0  0  3  0  0  0  0  0  0
  187.2090  176.8910  144.9450 C   0  0  0  0  0  2  0  0  0  0  0  0
  193.7920  175.5820  144.8020 N   0  0  0  0  0  0  0  0  0  0  0  0
  185.8110  176.9110  142.8920 C   0  0  0  0  0  1  0  0  0  0  0  0
  191.6480  172.8450  142.1340 C   0  0  0  0  0  2  0  0  0  0  0  0
  192.4970  174.0140  138.7240 O   0  0  0  0  0  1  0  0  0  0  0  0
  190.2930  173.5350  142.3150 C   0  0  2  0  0  3  0  0  0  0  0  0
  193.6580  176.6280  145.8010 C   0  0  0  0  0  2  0  0  0  0  0  0
  195.9790  174.5410  145.2880 C   0  0  0  0  0  3  0  0  0  0  0  0
  194.5910  174.4180  145.1180 C   0  0  0  0  0  0  0  0  0  0  0  0
  193.9980  173.1550  145.2870 C   0  0  0  0  0  3  0  0  0  0  0  0
  194.1910  170.8280  145.7630 F   0  0  0  0  0  0  0  0  0  0  0  0
  196.1570  172.1750  145.7680 C   0  0  0  0  0  3  0  0  0  0  0  0
  194.7760  172.0400  145.6070 C   0  0  0  0  0  0  0  0  0  0  0  0
  196.7590  173.4250  145.6100 C   0  0  0  0  0  3  0  0  0  0  0  0
  188.0170  173.6960  138.6900 F   0  0  0  0  0  0  0  0  0  0  0  0
  188.2130  172.4750  139.3070 C   0  0  0  0  0  2  0  0  0  0  0  0
  1 27  1  0  0  0  0
  2 22  1  0  0  0  0
  3 20  2  0  0  0  0
  4  1  1  0  0  0  0
  5 10  1  0  0  0  0
  6 11  1  0  0  0  0
  7  3  1  0  0  0  0
  8 18  1  0  0  0  0
  9  3  1  0  0  0  0
  9  6  2  0  0  0  0
 10  7  1  0  0  0  0
 10 23  1  0  0  0  0
 11 16  1  0  0  0  0
 12  8  1  0  0  0  0
 12  4  1  0  0  0  0
 12  1  1  0  0  0  0
 13  9  1  0  0  0  0
 14  2  1  0  0  0  0
 17  2  1  0  0  0  0
 17 13  1  0  0  0  0
 18 19  1  0  0  0  0
 18 25  1  0  0  0  0
 19  5  1  0  0  0  0
 20 15  1  0  0  0  0
 20 16  1  0  0  0  0
 21 13  1  0  0  0  0
 21  7  1  0  0  0  0
 22  6  1  0  0  0  0
 23 30  1  0  0  0  0
 23 28  1  0  0  0  0
 24  2  1  0  0  0  0
 25 27  1  0  0  0  0
 26  8  1  0  0  0  0
 27 21  1  0  0  0  0
 28 15  1  0  0  0  0
 29 35  1  0  0  0  0
 30 31  1  0  0  0  0
 30 29  2  0  0  0  0
 31 34  2  0  0  0  0
 34 32  1  0  0  0  0
 34 33  1  0  0  0  0
 35 33  2  0  0  0  0
 36 37  1  0  0  0  0
 37  4  1  0  0  0  0
M  END
>  <MODEL>
3

>  <REMARK>
 VINA RESULT:      -9.1      2.383      7.157
  Name = 
  2 active torsions:
  status: ('A' for Active; 'I' for Inactive)
    1  A    between atoms: C_4  and  C_37
    2  A    between atoms: N_23  and  C_30
                            x       y       z     vdW  Elec       q    Type
                         _______ _______ _______ _____ _____    ______ ____

>  <TORSDO>
F 2

$$$$
=
 OpenBabel11112417273D

 37 44  0  0  1  0  0  0  0  0999 V2000
  194.1660  173.6690  145.1150 C   0  0  2  0  0  3  0  0  0  0  0  0
  190.8760  176.1400  147.1310 C   0  0  0  0  0  0  0  0  0  0  0  0
  189.9130  175.0560  143.2040 C   0  0  0  0  0  0  0  0  0  0  0  0
  195.6320  173.3660  144.8960 C   0  0  2  0  0  3  0  0  0  0  0  0
  191.3320  171.4220  142.5570 C   0  0  0  0  0  2  0  0  0  0  0  0
  189.5630  176.6270  145.0280 C   0  0  0  0  0  0  0  0  0  0  0  0
  190.9580  174.0060  142.8800 C   0  0  2  0  0  3  0  0  0  0  0  0
  194.6010  171.2760  144.0710 C   0  0  2  0  0  3  0  0  0  0  0  0
  190.3240  175.7480  144.3840 C   0  0  0  0  0  0  0  0  0  0  0  0
  190.3420  172.6030  142.6420 C   0  0  1  0  0  3  0  0  0  0  0  0
  188.2950  177.1110  144.3800 C   0  0  0  0  0  2  0  0  0  0  0  0
  194.6890  172.2290  145.2730 C   0  0  2  0  0  3  0  0  0  0  0  0
  191.5080  175.2110  144.9200 N   0  0  0  0  0  0  0  0  0  0  0  0
  189.9980  175.0090  147.6380 C   0  0  0  0  0  1  0  0  0  0  0  0
  188.1910  174.6430  141.4300 C   0  0  0  0  0  2  0  0  0  0  0  0
  187.8900  176.2890  143.2690 O   0  0  0  0  0  0  0  0  0  0  0  0
  192.0020  175.5720  146.2500 C   0  0  0  0  0  2  0  0  0  0  0  0
  193.5050  171.6140  143.0680 C   0  0  1  0  0  3  0  0  0  0  0  0
  192.2320  171.3950  143.6280 O   0  0  0  0  0  0  0  0  0  0  0  0
  188.7130  175.3240  142.6560 C   0  0  0  0  0  0  0  0  0  0  0  0
  191.8800  174.0280  144.1450 C   0  0  2  0  0  3  0  0  0  0  0  0
  190.0260  177.1670  146.3540 C   0  0  0  0  0  2  0  0  0  0  0  0
  189.5130  172.6270  141.4340 N   0  0  0  0  0  0  0  0  0  0  0  0
  191.4990  176.8320  148.3250 C   0  0  0  0  0  1  0  0  0  0  0  0
  193.6990  173.0700  142.6510 C   0  0  0  0  0  2  0  0  0  0  0  0
  194.4600  169.9620  144.5160 O   0  0  0  0  0  1  0  0  0  0  0  0
  193.3870  174.0060  143.8230 C   0  0  2  0  0  3  0  0  0  0  0  0
  188.1600  173.1330  141.5950 C   0  0  0  0  0  2  0  0  0  0  0  0
  191.0660  173.4150  139.6820 C   0  0  0  0  0  3  0  0  0  0  0  0
  190.0620  172.5280  140.0990 C   0  0  0  0  0  0  0  0  0  0  0  0
  189.6250  171.5320  139.2080 C   0  0  0  0  0  3  0  0  0  0  0  0
  189.7390  170.4730  137.0760 F   0  0  0  0  0  0  0  0  0  0  0  0
  191.1680  172.3280  137.5210 C   0  0  0  0  0  3  0  0  0  0  0  0
  190.1730  171.4340  137.9260 C   0  0  0  0  0  0  0  0  0  0  0  0
  191.6150  173.3180  138.3990 C   0  0  0  0  0  3  0  0  0  0  0  0
  197.1910  172.7360  146.5610 F   0  0  0  0  0  0  0  0  0  0  0  0
  196.4170  173.7910  146.1190 C   0  0  0  0  0  2  0  0  0  0  0  0
  1 12  1  0  0  0  0
  2 14  1  0  0  0  0
  2 24  1  0  0  0  0
  3  9  1  0  0  0  0
  4  1  1  0  0  0  0
  4 12  1  0  0  0  0
  4 37  1  0  0  0  0
  5 10  1  0  0  0  0
  5 19  1  0  0  0  0
  6 22  1  0  0  0  0
  7  3  1  0  0  0  0
  7 21  1  0  0  0  0
  8 26  1  0  0  0  0
  8 12  1  0  0  0  0
  9 13  1  0  0  0  0
  9  6  2  0  0  0  0
 10  7  1  0  0  0  0
 11  6  1  0  0  0  0
 13 17  1  0  0  0  0
 15 28  1  0  0  0  0
 15 20  1  0  0  0  0
 16 11  1  0  0  0  0
 17  2  1  0  0  0  0
 18 19  1  0  0  0  0
 18  8  1  0  0  0  0
 20  3  2  0  0  0  0
 20 16  1  0  0  0  0
 21 13  1  0  0  0  0
 22  2  1  0  0  0  0
 23 28  1  0  0  0  0
 23 10  1  0  0  0  0
 25 18  1  0  0  0  0
 25 27  1  0  0  0  0
 27 21  1  0  0  0  0
 27  1  1  0  0  0  0
 29 30  1  0  0  0  0
 30 23  1  0  0  0  0
 31 30  2  0  0  0  0
 32 34  1  0  0  0  0
 33 34  2  0  0  0  0
 33 35  1  0  0  0  0
 34 31  1  0  0  0  0
 35 29  2  0  0  0  0
 37 36  1  0  0  0  0
M  END
>  <MODEL>
4

>  <REMARK>
 VINA RESULT:      -8.0      3.079      6.185
  Name = 
  2 active torsions:
  status: ('A' for Active; 'I' for Inactive)
    1  A    between atoms: C_4  and  C_37
    2  A    between atoms: N_23  and  C_30
                            x       y       z     vdW  Elec       q    Type
                         _______ _______ _______ _____ _____    ______ ____

>  <TORSDO>
F 2

$$$$
=
 OpenBabel11112417273D

 37 44  0  0  1  0  0  0  0  0999 V2000
  193.2470  176.3250  145.0390 C   0  0  2  0  0  3  0  0  0  0  0  0
  188.8750  177.0020  146.2300 C   0  0  0  0  0  0  0  0  0  0  0  0
  189.2680  175.0500  142.5480 C   0  0  0  0  0  0  0  0  0  0  0  0
  194.6860  176.7910  145.0050 C   0  0  2  0  0  3  0  0  0  0  0  0
  192.3740  172.6130  142.7820 C   0  0  0  0  0  2  0  0  0  0  0  0
  187.8820  176.4500  143.9740 C   0  0  0  0  0  0  0  0  0  0  0  0
  190.7310  174.6530  142.5330 C   0  0  2  0  0  3  0  0  0  0  0  0
  194.9730  174.3780  144.5510 C   0  0  2  0  0  3  0  0  0  0  0  0
  189.0740  176.0090  143.5890 C   0  0  0  0  0  0  0  0  0  0  0  0
  190.9350  173.1160  142.5420 C   0  0  1  0  0  3  0  0  0  0  0  0
  186.6740  176.1190  143.1410 C   0  0  0  0  0  2  0  0  0  0  0  0
  194.3720  175.3960  145.5330 C   0  0  2  0  0  3  0  0  0  0  0  0
  190.2560  176.2360  144.3170 N   0  0  0  0  0  0  0  0  0  0  0  0
  188.5910  175.6620  146.8880 C   0  0  0  0  0  1  0  0  0  0  0  0
  188.3090  173.5710  140.7660 C   0  0  0  0  0  2  0  0  0  0  0  0
  186.9250  175.0620  142.1940 O   0  0  0  0  0  0  0  0  0  0  0  0
  190.2690  176.9780  145.5790 C   0  0  0  0  0  2  0  0  0  0  0  0
  194.0470  173.9640  143.4150 C   0  0  1  0  0  3  0  0  0  0  0  0
  192.9700  173.2000  143.9040 O   0  0  0  0  0  0  0  0  0  0  0  0
  188.2080  174.5840  141.8620 C   0  0  0  0  0  0  0  0  0  0  0  0
  191.2880  175.3200  143.8360 C   0  0  2  0  0  3  0  0  0  0  0  0
  187.7810  177.3270  145.1920 C   0  0  0  0  0  2  0  0  0  0  0  0
  190.4250  172.5440  141.2920 N   0  0  0  0  0  0  0  0  0  0  0  0
  188.8600  178.0720  147.3010 C   0  0  0  0  0  1  0  0  0  0  0  0
  193.5720  175.2390  142.7230 C   0  0  0  0  0  2  0  0  0  0  0  0
  195.4200  173.2540  145.2450 O   0  0  0  0  0  1  0  0  0  0  0  0
  192.6420  176.0310  143.6470 C   0  0  2  0  0  3  0  0  0  0  0  0
  188.9940  172.2990  141.2370 C   0  0  0  0  0  2  0  0  0  0  0  0
  191.3470  171.3740  139.3210 C   0  0  0  0  0  3  0  0  0  0  0  0
  191.1750  172.5590  140.0560 C   0  0  0  0  0  0  0  0  0  0  0  0
  191.7210  173.7520  139.5520 C   0  0  0  0  0  3  0  0  0  0  0  0
  192.9560  174.9150  137.8780 F   0  0  0  0  0  0  0  0  0  0  0  0
  192.6000  172.5710  137.6310 C   0  0  0  0  0  3  0  0  0  0  0  0
  192.4310  173.7580  138.3490 C   0  0  0  0  0  0  0  0  0  0  0  0
  192.0560  171.3800  138.1160 C   0  0  0  0  0  3  0  0  0  0  0  0
  194.1920  177.3090  147.2610 F   0  0  0  0  0  0  0  0  0  0  0  0
  194.9350  177.7220  146.1730 C   0  0  0  0  0  2  0  0  0  0  0  0
  1 12  1  0  0  0  0
  2 14  1  0  0  0  0
  2 24  1  0  0  0  0
  3  9  1  0  0  0  0
  4  1  1  0  0  0  0
  4 12  1  0  0  0  0
  4 37  1  0  0  0  0
  5 19  1  0  0  0  0
  6 22  1  0  0  0  0
  7 10  1  0  0  0  0
  7  3  1  0  0  0  0
  7 21  1  0  0  0  0
  8 26  1  0  0  0  0
  8 12  1  0  0  0  0
  9  6  2  0  0  0  0
  9 13  1  0  0  0  0
 10  5  1  0  0  0  0
 11  6  1  0  0  0  0
 13 17  1  0  0  0  0
 15 28  1  0  0  0  0
 15 20  1  0  0  0  0
 16 11  1  0  0  0  0
 17  2  1  0  0  0  0
 18 19  1  0  0  0  0
 18  8  1  0  0  0  0
 20 16  1  0  0  0  0
 20  3  2  0  0  0  0
 21 13  1  0  0  0  0
 22  2  1  0  0  0  0
 23 10  1  0  0  0  0
 25 18  1  0  0  0  0
 25 27  1  0  0  0  0
 27 21  1  0  0  0  0
 27  1  1  0  0  0  0
 28 23  1  0  0  0  0
 29 30  1  0  0  0  0
 30 23  1  0  0  0  0
 31 30  2  0  0  0  0
 32 34  1  0  0  0  0
 33 35  1  0  0  0  0
 33 34  2  0  0  0  0
 34 31  1  0  0  0  0
 35 29  2  0  0  0  0
 37 36  1  0  0  0  0
M  END
>  <MODEL>
5

>  <REMARK>
 VINA RESULT:      -7.9      2.540      6.195
  Name = 
  2 active torsions:
  status: ('A' for Active; 'I' for Inactive)
    1  A    between atoms: C_4  and  C_37
    2  A    between atoms: N_23  and  C_30
                            x       y       z     vdW  Elec       q    Type
                         _______ _______ _______ _____ _____    ______ ____

>  <TORSDO>
F 2

$$$$
=
 OpenBabel11112417273D

 37 44  0  0  1  0  0  0  0  0999 V2000
  192.4430  172.6660  140.0780 C   0  0  2  0  0  3  0  0  0  0  0  0
  196.7210  174.1520  140.7730 C   0  0  0  0  0  0  0  0  0  0  0  0
  194.0100  175.6400  143.5950 C   0  0  0  0  0  0  0  0  0  0  0  0
  191.3270  172.2720  139.1360 C   0  0  2  0  0  3  0  0  0  0  0  0
  191.3760  172.7950  144.3760 C   0  0  0  0  0  2  0  0  0  0  0  0
  196.1230  175.9600  142.4330 C   0  0  0  0  0  0  0  0  0  0  0  0
  192.7840  174.7770  143.3700 C   0  0  2  0  0  3  0  0  0  0  0  0
  190.5450  171.2300  141.2370 C   0  0  2  0  0  3  0  0  0  0  0  0
  194.8910  175.4670  142.4840 C   0  0  0  0  0  0  0  0  0  0  0  0
  192.4450  173.8870  144.5940 C   0  0  1  0  0  3  0  0  0  0  0  0
  196.5600  176.9480  143.4810 C   0  0  0  0  0  2  0  0  0  0  0  0
  191.7240  171.3150  140.2540 C   0  0  2  0  0  3  0  0  0  0  0  0
  194.4000  174.5140  141.5720 N   0  0  0  0  0  0  0  0  0  0  0  0
  197.1770  173.1160  141.7870 C   0  0  0  0  0  1  0  0  0  0  0  0
  193.5540  176.6110  145.8600 C   0  0  0  0  0  2  0  0  0  0  0  0
  195.6780  176.9760  144.6200 O   0  0  0  0  0  0  0  0  0  0  0  0
  195.2200  173.9740  140.4850 C   0  0  0  0  0  2  0  0  0  0  0  0
  190.5700  172.2650  142.3540 C   0  0  1  0  0  3  0  0  0  0  0  0
  191.6290  172.0100  143.2460 O   0  0  0  0  0  0  0  0  0  0  0  0
  194.4000  176.3830  144.6470 C   0  0  0  0  0  0  0  0  0  0  0  0
  193.1840  173.9190  142.1210 C   0  0  2  0  0  3  0  0  0  0  0  0
  197.0230  175.5730  141.2920 C   0  0  0  0  0  2  0  0  0  0  0  0
  192.0500  174.7330  145.7230 N   0  0  0  0  0  0  0  0  0  0  0  0
  197.4890  173.9320  139.4880 C   0  0  0  0  0  1  0  0  0  0  0  0
  190.6920  173.6390  141.7030 C   0  0  0  0  0  2  0  0  0  0  0  0
  190.4640  169.9440  141.7710 O   0  0  0  0  0  1  0  0  0  0  0  0
  192.0730  173.8020  141.0600 C   0  0  2  0  0  3  0  0  0  0  0  0
  193.1330  175.3030  146.5060 C   0  0  0  0  0  2  0  0  0  0  0  0
  189.8690  174.8400  146.8790 C   0  0  0  0  0  3  0  0  0  0  0  0
  190.7240  175.2940  145.8620 C   0  0  0  0  0  0  0  0  0  0  0  0
  190.2750  176.3160  145.0070 C   0  0  0  0  0  3  0  0  0  0  0  0
  188.5780  177.8430  144.3250 F   0  0  0  0  0  0  0  0  0  0  0  0
  188.1550  176.3970  146.1710 C   0  0  0  0  0  3  0  0  0  0  0  0
  188.9990  176.8620  145.1590 C   0  0  0  0  0  0  0  0  0  0  0  0
  188.5910  175.3870  147.0320 C   0  0  0  0  0  3  0  0  0  0  0  0
  191.5720  172.6540  136.8130 F   0  0  0  0  0  0  0  0  0  0  0  0
  191.9250  171.7890  137.8310 C   0  0  0  0  0  2  0  0  0  0  0  0
  1 12  1  0  0  0  0
  1 27  1  0  0  0  0
  2 22  1  0  0  0  0
  2 14  1  0  0  0  0
  3 20  2  0  0  0  0
  4  1  1  0  0  0  0
  4 12  1  0  0  0  0
  5 10  1  0  0  0  0
  6  9  2  0  0  0  0
  6 11  1  0  0  0  0
  7  3  1  0  0  0  0
  7 10  1  0  0  0  0
  8 26  1  0  0  0  0
  8 18  1  0  0  0  0
  9  3  1  0  0  0  0
 10 23  1  0  0  0  0
 11 16  1  0  0  0  0
 12  8  1  0  0  0  0
 13 21  1  0  0  0  0
 13  9  1  0  0  0  0
 15 28  1  0  0  0  0
 16 20  1  0  0  0  0
 17  2  1  0  0  0  0
 17 13  1  0  0  0  0
 18 19  1  0  0  0  0
 19  5  1  0  0  0  0
 20 15  1  0  0  0  0
 21  7  1  0  0  0  0
 22  6  1  0  0  0  0
 23 30  1  0  0  0  0
 23 28  1  0  0  0  0
 24  2  1  0  0  0  0
 25 18  1  0  0  0  0
 27 25  1  0  0  0  0
 27 21  1  0  0  0  0
 29 35  1  0  0  0  0
 30 29  2  0  0  0  0
 31 34  2  0  0  0  0
 31 30  1  0  0  0  0
 32 34  1  0  0  0  0
 33 35  2  0  0  0  0
 34 33  1  0  0  0  0
 36 37  1  0  0  0  0
 37  4  1  0  0  0  0
M  END
>  <MODEL>
6

>  <REMARK>
 VINA RESULT:      -7.9      2.945      5.672
  Name = 
  2 active torsions:
  status: ('A' for Active; 'I' for Inactive)
    1  A    between atoms: C_4  and  C_37
    2  A    between atoms: N_23  and  C_30
                            x       y       z     vdW  Elec       q    Type
                         _______ _______ _______ _____ _____    ______ ____

>  <TORSDO>
F 2

$$$$
=
 OpenBabel11112417273D

 37 44  0  0  1  0  0  0  0  0999 V2000
  193.3240  174.4760  144.9530 C   0  0  2  0  0  3  0  0  0  0  0  0
  189.5150  176.7850  146.0270 C   0  0  0  0  0  0  0  0  0  0  0  0
  189.4340  175.2450  142.1350 C   0  0  0  0  0  0  0  0  0  0  0  0
  194.8240  174.3010  145.0480 C   0  0  2  0  0  3  0  0  0  0  0  0
  191.2380  171.7260  142.1760 C   0  0  0  0  0  2  0  0  0  0  0  0
  188.6080  176.9380  143.6750 C   0  0  0  0  0  0  0  0  0  0  0  0
  190.6020  174.2790  142.1320 C   0  0  2  0  0  3  0  0  0  0  0  0
  194.1450  172.0510  144.2830 C   0  0  2  0  0  3  0  0  0  0  0  0
  189.5470  176.0830  143.2870 C   0  0  0  0  0  0  0  0  0  0  0  0
  190.1600  172.8050  141.9410 C   0  0  1  0  0  3  0  0  0  0  0  0
  187.4570  177.2300  142.7500 C   0  0  0  0  0  2  0  0  0  0  0  0
  193.9190  173.1170  145.3660 C   0  0  2  0  0  3  0  0  0  0  0  0
  190.6420  175.7190  144.0910 N   0  0  0  0  0  0  0  0  0  0  0  0
  188.6470  175.6240  146.4830 C   0  0  0  0  0  1  0  0  0  0  0  0
  188.1340  174.4970  140.1280 C   0  0  0  0  0  2  0  0  0  0  0  0
  187.3460  176.2700  141.6810 O   0  0  0  0  0  0  0  0  0  0  0  0
  190.8340  176.2510  145.4420 C   0  0  0  0  0  2  0  0  0  0  0  0
  193.2460  172.1820  143.0610 C   0  0  1  0  0  3  0  0  0  0  0  0
  191.9090  171.8900  143.3930 O   0  0  0  0  0  0  0  0  0  0  0  0
  188.3480  175.3390  141.3460 C   0  0  0  0  0  0  0  0  0  0  0  0
  191.2530  174.5120  143.5380 C   0  0  2  0  0  3  0  0  0  0  0  0
  188.7560  177.6430  144.9940 C   0  0  0  0  0  2  0  0  0  0  0  0
  189.5850  172.6330  140.6040 N   0  0  0  0  0  0  0  0  0  0  0  0
  189.8330  177.6440  147.2320 C   0  0  0  0  0  1  0  0  0  0  0  0
  193.4010  173.6040  142.5280 C   0  0  0  0  0  2  0  0  0  0  0  0
  194.0250  170.7770  144.8370 O   0  0  0  0  0  1  0  0  0  0  0  0
  192.7900  174.6100  143.5080 C   0  0  2  0  0  3  0  0  0  0  0  0
  188.1910  173.0140  140.4510 C   0  0  0  0  0  2  0  0  0  0  0  0
  191.3690  173.4160  139.0850 C   0  0  0  0  0  3  0  0  0  0  0  0
  190.3920  172.4630  139.4160 C   0  0  0  0  0  0  0  0  0  0  0  0
  190.2370  171.3370  138.5880 C   0  0  0  0  0  3  0  0  0  0  0  0
  190.8690  170.0880  136.6600 F   0  0  0  0  0  0  0  0  0  0  0  0
  191.9970  172.1340  137.1300 C   0  0  0  0  0  3  0  0  0  0  0  0
  191.0330  171.1750  137.4510 C   0  0  0  0  0  0  0  0  0  0  0  0
  192.1660  173.2540  137.9470 C   0  0  0  0  0  3  0  0  0  0  0  0
  194.3920  175.8340  146.7990 F   0  0  0  0  0  0  0  0  0  0  0  0
  195.3160  174.9160  146.3410 C   0  0  0  0  0  2  0  0  0  0  0  0
  1  4  1  0  0  0  0
  1 12  1  0  0  0  0
  2 14  1  0  0  0  0
  2 24  1  0  0  0  0
  3  9  1  0  0  0  0
  4 12  1  0  0  0  0
  4 37  1  0  0  0  0
  5 19  1  0  0  0  0
  6 22  1  0  0  0  0
  7  3  1  0  0  0  0
  7 21  1  0  0  0  0
  8 26  1  0  0  0  0
  8 12  1  0  0  0  0
  9  6  2  0  0  0  0
  9 13  1  0  0  0  0
 10  7  1  0  0  0  0
 10  5  1  0  0  0  0
 11  6  1  0  0  0  0
 13 17  1  0  0  0  0
 15 28  1  0  0  0  0
 15 20  1  0  0  0  0
 16 11  1  0  0  0  0
 17  2  1  0  0  0  0
 18 19  1  0  0  0  0
 18  8  1  0  0  0  0
 20 16  1  0  0  0  0
 20  3  2  0  0  0  0
 21 13  1  0  0  0  0
 22  2  1  0  0  0  0
 23 10  1  0  0  0  0
 25 18  1  0  0  0  0
 25 27  1  0  0  0  0
 27 21  1  0  0  0  0
 27  1  1  0  0  0  0
 28 23  1  0  0  0  0
 29 30  1  0  0  0  0
 30 23  1  0  0  0  0
 31 30  2  0  0  0  0
 32 34  1  0  0  0  0
 33 34  2  0  0  0  0
 33 35  1  0  0  0  0
 34 31  1  0  0  0  0
 35 29  2  0  0  0  0
 37 36  1  0  0  0  0
M  END
>  <MODEL>
7

>  <REMARK>
 VINA RESULT:      -7.9      3.007      6.306
  Name = 
  2 active torsions:
  status: ('A' for Active; 'I' for Inactive)
    1  A    between atoms: C_4  and  C_37
    2  A    between atoms: N_23  and  C_30
                            x       y       z     vdW  Elec       q    Type
                         _______ _______ _______ _____ _____    ______ ____

>  <TORSDO>
F 2

$$$$
=
 OpenBabel11112417273D

 37 44  0  0  1  0  0  0  0  0999 V2000
  193.1550  172.7130  140.9540 C   0  0  2  0  0  3  0  0  0  0  0  0
  195.3990  173.2120  144.9170 C   0  0  0  0  0  0  0  0  0  0  0  0
  191.9650  175.5960  144.6890 C   0  0  0  0  0  0  0  0  0  0  0  0
  193.1660  172.4940  139.4580 C   0  0  2  0  0  3  0  0  0  0  0  0
  189.1900  173.5560  142.7440 C   0  0  0  0  0  2  0  0  0  0  0  0
  194.1640  175.2790  145.6810 C   0  0  0  0  0  0  0  0  0  0  0  0
  191.2420  175.0270  143.4830 C   0  0  2  0  0  3  0  0  0  0  0  0
  190.8270  171.9000  139.9910 C   0  0  2  0  0  3  0  0  0  0  0  0
  193.3050  175.0990  144.6830 C   0  0  0  0  0  0  0  0  0  0  0  0
  189.8810  174.3810  143.8500 C   0  0  1  0  0  3  0  0  0  0  0  0
  193.8150  176.2430  146.7820 C   0  0  0  0  0  2  0  0  0  0  0  0
  192.2960  171.5980  140.3300 C   0  0  2  0  0  3  0  0  0  0  0  0
  193.5240  174.1970  143.6270 N   0  0  0  0  0  0  0  0  0  0  0  0
  194.6260  172.2140  145.7630 C   0  0  0  0  0  1  0  0  0  0  0  0
  190.1440  176.8860  145.8270 C   0  0  0  0  0  2  0  0  0  0  0  0
  192.4200  176.6020  146.7850 O   0  0  0  0  0  0  0  0  0  0  0  0
  194.7250  173.3640  143.5430 C   0  0  0  0  0  2  0  0  0  0  0  0
  190.1980  173.0150  140.8170 C   0  0  1  0  0  3  0  0  0  0  0  0
  190.0450  172.6150  142.1590 O   0  0  0  0  0  0  0  0  0  0  0  0
  191.5310  176.3350  145.7250 C   0  0  0  0  0  0  0  0  0  0  0  0
  192.2580  173.9690  142.9320 C   0  0  2  0  0  3  0  0  0  0  0  0
  195.4890  174.5690  145.6460 C   0  0  0  0  0  2  0  0  0  0  0  0
  188.9600  175.4140  144.3320 N   0  0  0  0  0  0  0  0  0  0  0  0
  196.8010  172.6790  144.7120 C   0  0  0  0  0  1  0  0  0  0  0  0
  191.0960  174.2430  140.6880 C   0  0  0  0  0  2  0  0  0  0  0  0
  190.0660  170.7360  140.0930 O   0  0  0  0  0  1  0  0  0  0  0  0
  192.4300  174.0040  141.4010 C   0  0  2  0  0  3  0  0  0  0  0  0
  189.0950  175.7920  145.7280 C   0  0  0  0  0  2  0  0  0  0  0  0
  188.8980  177.0830  142.5110 C   0  0  0  0  0  3  0  0  0  0  0  0
  188.2190  176.2840  143.4450 C   0  0  0  0  0  0  0  0  0  0  0  0
  186.8140  176.3290  143.4790 C   0  0  0  0  0  3  0  0  0  0  0  0
  184.7540  177.1970  142.6540 F   0  0  0  0  0  0  0  0  0  0  0  0
  186.7960  177.9550  141.6870 C   0  0  0  0  0  3  0  0  0  0  0  0
  186.1070  177.1610  142.6070 C   0  0  0  0  0  0  0  0  0  0  0  0
  188.1910  177.9160  141.6380 C   0  0  0  0  0  3  0  0  0  0  0  0
  195.4610  172.1240  139.9060 F   0  0  0  0  0  0  0  0  0  0  0  0
  194.4260  171.7450  139.0740 C   0  0  0  0  0  2  0  0  0  0  0  0
  1 27  1  0  0  0  0
  2 22  1  0  0  0  0
  2 14  1  0  0  0  0
  3 20  2  0  0  0  0
  4 12  1  0  0  0  0
  4  1  1  0  0  0  0
  5 10  1  0  0  0  0
  6 11  1  0  0  0  0
  7 10  1  0  0  0  0
  7  3  1  0  0  0  0
  8 26  1  0  0  0  0
  8 12  1  0  0  0  0
  8 18  1  0  0  0  0
  9  3  1  0  0  0  0
  9  6  2  0  0  0  0
 10 23  1  0  0  0  0
 11 16  1  0  0  0  0
 12  1  1  0  0  0  0
 13  9  1  0  0  0  0
 17 13  1  0  0  0  0
 17  2  1  0  0  0  0
 18 19  1  0  0  0  0
 19  5  1  0  0  0  0
 20 15  1  0  0  0  0
 20 16  1  0  0  0  0
 21  7  1  0  0  0  0
 21 13  1  0  0  0  0
 22  6  1  0  0  0  0
 23 28  1  0  0  0  0
 24  2  1  0  0  0  0
 25 18  1  0  0  0  0
 25 27  1  0  0  0  0
 27 21  1  0  0  0  0
 28 15  1  0  0  0  0
 29 30  1  0  0  0  0
 30 31  2  0  0  0  0
 30 23  1  0  0  0  0
 33 34  2  0  0  0  0
 34 32  1  0  0  0  0
 34 31  1  0  0  0  0
 35 33  1  0  0  0  0
 35 29  2  0  0  0  0
 37  4  1  0  0  0  0
 37 36  1  0  0  0  0
M  END
>  <MODEL>
8

>  <REMARK>
 VINA RESULT:      -7.8      2.257      5.484
  Name = 
  2 active torsions:
  status: ('A' for Active; 'I' for Inactive)
    1  A    between atoms: C_4  and  C_37
    2  A    between atoms: N_23  and  C_30
                            x       y       z     vdW  Elec       q    Type
                         _______ _______ _______ _____ _____    ______ ____

>  <TORSDO>
F 2

$$$$
=
 OpenBabel11112417273D

 37 44  0  0  1  0  0  0  0  0999 V2000
  189.4840  173.6270  142.4380 C   0  0  2  0  0  3  0  0  0  0  0  0
  188.1940  176.8180  145.4620 C   0  0  0  0  0  0  0  0  0  0  0  0
  192.2310  175.7710  145.8330 C   0  0  0  0  0  0  0  0  0  0  0  0
  189.1810  172.3830  141.6320 C   0  0  2  0  0  3  0  0  0  0  0  0
  193.6570  175.0980  142.2050 C   0  0  0  0  0  2  0  0  0  0  0  0
  190.2490  176.6650  146.9240 C   0  0  0  0  0  0  0  0  0  0  0  0
  192.4920  174.9860  144.5620 C   0  0  2  0  0  3  0  0  0  0  0  0
  191.1330  173.2650  140.3990 C   0  0  2  0  0  3  0  0  0  0  0  0
  190.8180  175.9030  145.9960 C   0  0  0  0  0  0  0  0  0  0  0  0
  193.5140  175.6830  143.6270 C   0  0  1  0  0  3  0  0  0  0  0  0
  191.1030  177.2470  148.0170 C   0  0  0  0  0  2  0  0  0  0  0  0
  189.7280  173.6120  140.9170 C   0  0  2  0  0  3  0  0  0  0  0  0
  190.1120  175.3420  144.9160 N   0  0  0  0  0  0  0  0  0  0  0  0
  188.6080  178.0630  144.6940 C   0  0  0  0  0  1  0  0  0  0  0  0
  194.5540  176.3320  146.5850 C   0  0  0  0  0  2  0  0  0  0  0  0
  192.5110  177.1770  147.7200 O   0  0  0  0  0  0  0  0  0  0  0  0
  188.6780  175.5620  144.7170 C   0  0  0  0  0  2  0  0  0  0  0  0
  192.2630  173.5510  141.3790 C   0  0  1  0  0  3  0  0  0  0  0  0
  192.4250  174.9370  141.5630 O   0  0  0  0  0  0  0  0  0  0  0  0
  193.0630  176.4000  146.6830 C   0  0  0  0  0  0  0  0  0  0  0  0
  191.0720  174.8980  143.9070 C   0  0  2  0  0  3  0  0  0  0  0  0
  188.7590  176.8660  146.8970 C   0  0  0  0  0  2  0  0  0  0  0  0
  194.8300  175.7140  144.2720 N   0  0  0  0  0  0  0  0  0  0  0  0
  186.6830  176.7840  145.5360 C   0  0  0  0  0  1  0  0  0  0  0  0
  191.9270  172.8390  142.6860 C   0  0  0  0  0  2  0  0  0  0  0  0
  191.3670  173.9150  139.1880 O   0  0  0  0  0  1  0  0  0  0  0  0
  190.7210  173.5020  143.3580 C   0  0  2  0  0  3  0  0  0  0  0  0
  195.0510  176.7890  145.2240 C   0  0  0  0  0  2  0  0  0  0  0  0
  196.9880  174.6750  143.6670 C   0  0  0  0  0  3  0  0  0  0  0  0
  195.7290  174.5820  144.2830 C   0  0  0  0  0  0  0  0  0  0  0  0
  195.3780  173.3820  144.9260 C   0  0  0  0  0  3  0  0  0  0  0  0
  195.9060  171.1480  145.5640 F   0  0  0  0  0  0  0  0  0  0  0  0
  197.5070  172.4030  144.3230 C   0  0  0  0  0  3  0  0  0  0  0  0
  196.2600  172.2990  144.9440 C   0  0  0  0  0  0  0  0  0  0  0  0
  197.8720  173.5910  143.6860 C   0  0  0  0  0  3  0  0  0  0  0  0
  187.0610  173.3720  141.9900 F   0  0  0  0  0  0  0  0  0  0  0  0
  187.6870  172.2930  141.3990 C   0  0  0  0  0  2  0  0  0  0  0  0
  1 27  1  0  0  0  0
  2 24  1  0  0  0  0
  2 22  1  0  0  0  0
  3  9  1  0  0  0  0
  3 20  2  0  0  0  0
  4  1  1  0  0  0  0
  5 10  1  0  0  0  0
  6 11  1  0  0  0  0
  7  3  1  0  0  0  0
  8 12  1  0  0  0  0
  8 18  1  0  0  0  0
  9  6  2  0  0  0  0
 10 23  1  0  0  0  0
 10  7  1  0  0  0  0
 12  4  1  0  0  0  0
 12  1  1  0  0  0  0
 13  9  1  0  0  0  0
 14  2  1  0  0  0  0
 15 20  1  0  0  0  0
 16 11  1  0  0  0  0
 17 13  1  0  0  0  0
 17  2  1  0  0  0  0
 18 19  1  0  0  0  0
 18 25  1  0  0  0  0
 19  5  1  0  0  0  0
 20 16  1  0  0  0  0
 21  7  1  0  0  0  0
 21 13  1  0  0  0  0
 22  6  1  0  0  0  0
 23 30  1  0  0  0  0
 23 28  1  0  0  0  0
 25 27  1  0  0  0  0
 26  8  1  0  0  0  0
 27 21  1  0  0  0  0
 28 15  1  0  0  0  0
 29 35  2  0  0  0  0
 29 30  1  0  0  0  0
 30 31  2  0  0  0  0
 31 34  1  0  0  0  0
 33 34  2  0  0  0  0
 34 32  1  0  0  0  0
 35 33  1  0  0  0  0
 37  4  1  0  0  0  0
 37 36  1  0  0  0  0
M  END
>  <MODEL>
9

>  <REMARK>
 VINA RESULT:      -7.8      2.134      7.585
  Name = 
  2 active torsions:
  status: ('A' for Active; 'I' for Inactive)
    1  A    between atoms: C_4  and  C_37
    2  A    between atoms: N_23  and  C_30
                            x       y       z     vdW  Elec       q    Type
                         _______ _______ _______ _____ _____    ______ ____

>  <TORSDO>
F 2

$$$$
