=
 OpenBabel11112416183D

 30 35  0  0  1  0  0  0  0  0999 V2000
  187.5030  176.4550  145.3000 C   0  0  0  0  0  0  0  0  0  0  0  0
  185.6950  177.7640  146.4820 C   0  0  0  0  0  0  0  0  0  0  0  0
  185.8970  177.5200  141.5590 N   0  0  0  0  0  2  0  0  0  0  0  0
  188.0690  175.9930  144.0710 C   0  0  0  0  0  0  0  0  0  0  0  0
  188.1340  176.0860  146.4960 C   0  0  0  0  0  3  0  0  0  0  0  0
  190.9310  173.9910  145.3410 O   0  0  0  0  0  1  0  0  0  0  0  0
  188.7400  173.8370  141.9650 C   0  0  1  0  0  3  0  0  0  0  0  0
  189.8060  174.8100  145.3150 C   0  0  0  0  0  0  0  0  0  0  0  0
  187.8730  174.6990  141.1300 N   0  0  2  0  0  0  0  0  0  0  0  0
  186.8550  176.8950  140.7160 C   0  0  0  0  0  0  0  0  0  0  0  0
  189.2740  175.2830  146.5160 C   0  0  0  0  0  0  0  0  0  0  0  0
  189.2100  175.1490  144.0900 C   0  0  0  0  0  0  0  0  0  0  0  0
  184.5530  178.5640  146.3930 C   0  0  0  0  0  3  0  0  0  0  0  0
  188.3620  174.5120  139.7680 C   0  0  0  0  0  2  0  0  0  0  0  0
  189.4120  172.8150  141.0660 C   0  0  0  0  0  2  0  0  0  0  0  0
  186.1820  177.4670  147.7890 N   0  0  0  0  0  1  0  0  0  0  0  0
  186.3320  177.1830  142.8670 C   0  0  0  0  0  0  0  0  0  0  0  0
  184.0100  178.9010  145.1580 C   0  0  0  0  0  3  0  0  0  0  0  0
  186.3260  177.2750  145.2990 C   0  0  0  0  0  0  0  0  0  0  0  0
  187.4570  176.3870  142.8700 C   0  0  0  0  0  0  0  0  0  0  0  0
  186.8240  177.0180  139.4630 O   0  0  0  0  0  0  0  0  0  0  0  0
  187.9170  176.1330  141.4610 C   0  0  1  0  0  3  0  0  0  0  0  0
  188.9090  173.1090  139.6790 C   0  0  0  0  0  2  0  0  0  0  0  0
  190.7370  175.4860  142.1020 C   0  0  0  0  0  1  0  0  0  0  0  0
  184.6040  178.4380  143.9890 C   0  0  0  0  0  3  0  0  0  0  0  0
  185.7450  177.6330  144.0470 C   0  0  0  0  0  0  0  0  0  0  0  0
  189.7920  174.5460  142.8410 C   0  0  2  0  0  3  0  0  0  0  0  0
  189.8950  174.9270  147.7560 N   0  0  0  0  0  2  0  0  0  0  0  0
  191.3050  176.8710  148.0860 C   0  0  0  0  0  1  0  0  0  0  0  0
  191.2340  175.3590  148.1240 C   0  0  0  0  0  2  0  0  0  0  0  0
  1  5  1  0  0  0  0
  2 16  1  0  0  0  0
  3 17  1  0  0  0  0
  4 12  1  0  0  0  0
  4  1  2  0  0  0  0
  5 11  2  0  0  0  0
  7 15  1  6  0  0  0
  7 27  1  0  0  0  0
  8  6  1  0  0  0  0
  8 11  1  0  0  0  0
  9 14  1  6  0  0  0
  9 22  1  0  0  0  0
  9  7  1  0  0  0  0
 10  3  1  0  0  0  0
 11 28  1  0  0  0  0
 12  8  2  0  0  0  0
 13  2  1  0  0  0  0
 17 20  2  0  0  0  0
 17 26  1  0  0  0  0
 18 13  2  0  0  0  0
 19  1  1  0  0  0  0
 19  2  2  0  0  0  0
 20  4  1  0  0  0  0
 21 10  2  0  0  0  0
 22 10  1  6  0  0  0
 22 20  1  0  0  0  0
 23 14  1  0  0  0  0
 23 15  1  0  0  0  0
 25 26  2  0  0  0  0
 25 18  1  0  0  0  0
 26 19  1  0  0  0  0
 27 24  1  6  0  0  0
 27 12  1  0  0  0  0
 28 30  1  0  0  0  0
 29 30  1  0  0  0  0
M  END
>  <MODEL>
1

>  <REMARK>
 VINA RESULT:      -9.2      0.000      0.000
  Name = 
  2 active torsions:
  status: ('A' for Active; 'I' for Inactive)
    1  A    between atoms: C_11  and  N_28
    2  A    between atoms: N_28  and  C_30
                            x       y       z     vdW  Elec       q    Type
                         _______ _______ _______ _____ _____    ______ ____

>  <TORSDO>
F 2

$$$$
=
 OpenBabel11112416183D

 30 35  0  0  1  0  0  0  0  0999 V2000
  186.3360  177.2770  143.8700 C   0  0  0  0  0  0  0  0  0  0  0  0
  184.7150  178.4900  145.3810 C   0  0  0  0  0  0  0  0  0  0  0  0
  188.5380  175.9640  147.2070 N   0  0  0  0  0  2  0  0  0  0  0  0
  187.5190  176.4860  143.7360 C   0  0  0  0  0  0  0  0  0  0  0  0
  185.6420  177.6290  142.7050 C   0  0  0  0  0  3  0  0  0  0  0  0
  187.6930  176.1300  140.0400 O   0  0  0  0  0  1  0  0  0  0  0  0
  190.4700  176.0220  142.9550 C   0  0  1  0  0  3  0  0  0  0  0  0
  187.2500  176.4950  141.3090 C   0  0  0  0  0  0  0  0  0  0  0  0
  190.5860  175.7730  144.4100 N   0  0  2  0  0  0  0  0  0  0  0  0
  189.5140  175.1760  146.5380 C   0  0  0  0  0  0  0  0  0  0  0  0
  186.0770  177.2420  141.4370 C   0  0  0  0  0  0  0  0  0  0  0  0
  187.9830  176.1190  142.4460 C   0  0  0  0  0  0  0  0  0  0  0  0
  184.3330  178.8440  146.6770 C   0  0  0  0  0  3  0  0  0  0  0  0
  191.6920  174.8300  144.5410 C   0  0  0  0  0  2  0  0  0  0  0  0
  191.7700  175.6050  142.2910 C   0  0  0  0  0  2  0  0  0  0  0  0
  183.9010  178.9630  144.3100 N   0  0  0  0  0  1  0  0  0  0  0  0
  187.7540  176.4940  146.1500 C   0  0  0  0  0  0  0  0  0  0  0  0
  185.0710  178.4270  147.7800 C   0  0  0  0  0  3  0  0  0  0  0  0
  185.8780  177.6900  145.1650 C   0  0  0  0  0  0  0  0  0  0  0  0
  188.1990  176.1060  144.9050 C   0  0  0  0  0  0  0  0  0  0  0  0
  190.3700  174.4980  147.1640 O   0  0  0  0  0  0  0  0  0  0  0  0
  189.3870  175.1940  145.0380 C   0  0  1  0  0  3  0  0  0  0  0  0
  192.6470  175.1040  143.4060 C   0  0  0  0  0  2  0  0  0  0  0  0
  189.1360  173.8690  142.4000 C   0  0  0  0  0  1  0  0  0  0  0  0
  186.2080  177.6470  147.5990 C   0  0  0  0  0  3  0  0  0  0  0  0
  186.6170  177.2800  146.3130 C   0  0  0  0  0  0  0  0  0  0  0  0
  189.2740  175.3770  142.2290 C   0  0  2  0  0  3  0  0  0  0  0  0
  185.3430  177.6170  140.2670 N   0  0  0  0  0  2  0  0  0  0  0  0
  182.9440  177.9420  140.3800 C   0  0  0  0  0  1  0  0  0  0  0  0
  184.2930  178.6220  140.2790 C   0  0  0  0  0  2  0  0  0  0  0  0
  1 19  1  0  0  0  0
  2 13  1  0  0  0  0
  4  1  1  0  0  0  0
  4 20  1  0  0  0  0
  5  1  2  0  0  0  0
  6  8  1  0  0  0  0
  7 15  1  6  0  0  0
  7  9  1  0  0  0  0
  8 11  2  0  0  0  0
  8 12  1  0  0  0  0
  9 14  1  6  0  0  0
  9 22  1  0  0  0  0
 10 21  2  0  0  0  0
 10  3  1  0  0  0  0
 11  5  1  0  0  0  0
 12  4  2  0  0  0  0
 13 18  2  0  0  0  0
 15 23  1  0  0  0  0
 16  2  1  0  0  0  0
 17 26  1  0  0  0  0
 17  3  1  0  0  0  0
 19  2  2  0  0  0  0
 19 26  1  0  0  0  0
 20 17  2  0  0  0  0
 22 20  1  1  0  0  0
 22 10  1  0  0  0  0
 23 14  1  0  0  0  0
 25 18  1  0  0  0  0
 26 25  2  0  0  0  0
 27 24  1  1  0  0  0
 27 12  1  0  0  0  0
 27  7  1  0  0  0  0
 28 30  1  0  0  0  0
 28 11  1  0  0  0  0
 30 29  1  0  0  0  0
M  END
>  <MODEL>
2

>  <REMARK>
 VINA RESULT:      -8.8      1.716      5.298
  Name = 
  2 active torsions:
  status: ('A' for Active; 'I' for Inactive)
    1  A    between atoms: C_11  and  N_28
    2  A    between atoms: N_28  and  C_30
                            x       y       z     vdW  Elec       q    Type
                         _______ _______ _______ _____ _____    ______ ____

>  <TORSDO>
F 2

$$$$
=
 OpenBabel11112416183D

 30 35  0  0  1  0  0  0  0  0999 V2000
  188.1760  176.9670  145.5600 C   0  0  0  0  0  0  0  0  0  0  0  0
  186.3030  178.3120  146.5930 C   0  0  0  0  0  0  0  0  0  0  0  0
  186.3010  177.1540  141.7980 N   0  0  0  0  0  2  0  0  0  0  0  0
  188.7270  176.3320  144.4040 C   0  0  0  0  0  0  0  0  0  0  0  0
  188.8940  176.8900  146.7610 C   0  0  0  0  0  3  0  0  0  0  0  0
  191.8300  174.8700  145.8370 O   0  0  0  0  0  1  0  0  0  0  0  0
  189.5110  173.8830  142.6950 C   0  0  1  0  0  3  0  0  0  0  0  0
  190.6290  175.5660  145.7320 C   0  0  0  0  0  0  0  0  0  0  0  0
  188.5250  174.4890  141.7720 N   0  0  2  0  0  0  0  0  0  0  0  0
  187.2760  176.4670  141.0250 C   0  0  0  0  0  0  0  0  0  0  0  0
  190.1090  176.2100  146.8560 C   0  0  0  0  0  0  0  0  0  0  0  0
  189.9460  175.6120  144.5050 C   0  0  0  0  0  0  0  0  0  0  0  0
  185.0840  178.9750  146.4310 C   0  0  0  0  0  3  0  0  0  0  0  0
  188.9670  174.0910  140.4400 C   0  0  0  0  0  2  0  0  0  0  0  0
  190.2390  172.7720  141.9590 C   0  0  0  0  0  2  0  0  0  0  0  0
  186.8770  178.3120  147.8980 N   0  0  0  0  0  1  0  0  0  0  0  0
  186.8270  177.1120  143.1150 C   0  0  0  0  0  0  0  0  0  0  0  0
  184.4540  179.0210  145.1920 C   0  0  0  0  0  3  0  0  0  0  0  0
  186.9240  177.6640  145.4820 C   0  0  0  0  0  0  0  0  0  0  0  0
  188.0240  176.4340  143.1920 C   0  0  0  0  0  0  0  0  0  0  0  0
  187.1760  176.3470  139.7760 O   0  0  0  0  0  0  0  0  0  0  0  0
  188.4420  175.9580  141.8290 C   0  0  1  0  0  3  0  0  0  0  0  0
  189.6460  172.7510  140.5770 C   0  0  0  0  0  2  0  0  0  0  0  0
  191.3390  175.6990  142.3960 C   0  0  0  0  0  1  0  0  0  0  0  0
  185.0360  178.3990  144.0940 C   0  0  0  0  0  3  0  0  0  0  0  0
  186.2540  177.7240  144.2260 C   0  0  0  0  0  0  0  0  0  0  0  0
  190.5270  174.8360  143.3550 C   0  0  2  0  0  3  0  0  0  0  0  0
  190.8180  176.1530  148.0980 N   0  0  0  0  0  2  0  0  0  0  0  0
  191.3610  178.0240  149.5400 C   0  0  0  0  0  1  0  0  0  0  0  0
  191.8660  177.0960  148.4560 C   0  0  0  0  0  2  0  0  0  0  0  0
  1  5  1  0  0  0  0
  2 16  1  0  0  0  0
  3 17  1  0  0  0  0
  4 12  1  0  0  0  0
  4  1  2  0  0  0  0
  5 11  2  0  0  0  0
  7 15  1  6  0  0  0
  7 27  1  0  0  0  0
  8  6  1  0  0  0  0
  8 11  1  0  0  0  0
  9 14  1  6  0  0  0
  9 22  1  0  0  0  0
  9  7  1  0  0  0  0
 10  3  1  0  0  0  0
 11 28  1  0  0  0  0
 12  8  2  0  0  0  0
 13  2  1  0  0  0  0
 14 23  1  0  0  0  0
 17 20  2  0  0  0  0
 17 26  1  0  0  0  0
 18 13  2  0  0  0  0
 19  1  1  0  0  0  0
 19  2  2  0  0  0  0
 20  4  1  0  0  0  0
 21 10  2  0  0  0  0
 22 10  1  6  0  0  0
 22 20  1  0  0  0  0
 23 15  1  0  0  0  0
 25 26  2  0  0  0  0
 25 18  1  0  0  0  0
 26 19  1  0  0  0  0
 27 24  1  6  0  0  0
 27 12  1  0  0  0  0
 28 30  1  0  0  0  0
 30 29  1  0  0  0  0
M  END
>  <MODEL>
3

>  <REMARK>
 VINA RESULT:      -8.6      0.950      1.027
  Name = 
  2 active torsions:
  status: ('A' for Active; 'I' for Inactive)
    1  A    between atoms: C_11  and  N_28
    2  A    between atoms: N_28  and  C_30
                            x       y       z     vdW  Elec       q    Type
                         _______ _______ _______ _____ _____    ______ ____

>  <TORSDO>
F 2

$$$$
=
 OpenBabel11112416183D

 30 35  0  0  1  0  0  0  0  0999 V2000
  188.3310  176.1470  143.7070 C   0  0  0  0  0  0  0  0  0  0  0  0
  186.0610  177.2180  143.9960 C   0  0  0  0  0  0  0  0  0  0  0  0
  189.4880  177.4500  147.5370 N   0  0  0  0  0  2  0  0  0  0  0  0
  189.6330  175.8890  144.2360 C   0  0  0  0  0  0  0  0  0  0  0  0
  188.0190  175.6340  142.4400 C   0  0  0  0  0  3  0  0  0  0  0  0
  191.1410  173.9600  141.4390 O   0  0  0  0  0  1  0  0  0  0  0  0
  192.6970  176.2530  144.3620 C   0  0  1  0  0  3  0  0  0  0  0  0
  190.2200  174.6750  142.1990 C   0  0  0  0  0  0  0  0  0  0  0  0
  192.3580  176.7680  145.7080 N   0  0  2  0  0  0  0  0  0  0  0  0
  190.7840  176.8710  147.5910 C   0  0  0  0  0  0  0  0  0  0  0  0
  188.9390  174.9000  141.6910 C   0  0  0  0  0  0  0  0  0  0  0  0
  190.5820  175.1700  143.4630 C   0  0  0  0  0  0  0  0  0  0  0  0
  185.1880  177.9600  144.7960 C   0  0  0  0  0  3  0  0  0  0  0  0
  193.5340  176.4810  146.5240 C   0  0  0  0  0  2  0  0  0  0  0  0
  194.2040  176.0950  144.2720 C   0  0  0  0  0  2  0  0  0  0  0  0
  185.5810  176.8020  142.7200 N   0  0  0  0  0  1  0  0  0  0  0  0
  189.0170  177.0970  146.2460 C   0  0  0  0  0  0  0  0  0  0  0  0
  185.5760  178.4070  146.0540 C   0  0  0  0  0  3  0  0  0  0  0  0
  187.3750  176.9070  144.4600 C   0  0  0  0  0  0  0  0  0  0  0  0
  189.9380  176.3760  145.5180 C   0  0  0  0  0  0  0  0  0  0  0  0
  191.5020  176.9330  148.6230 O   0  0  0  0  0  0  0  0  0  0  0  0
  191.1790  176.1450  146.3330 C   0  0  1  0  0  3  0  0  0  0  0  0
  194.7330  176.5330  145.6110 C   0  0  0  0  0  2  0  0  0  0  0  0
  192.1550  173.7660  144.8590 C   0  0  0  0  0  1  0  0  0  0  0  0
  186.8500  178.1200  146.5310 C   0  0  0  0  0  3  0  0  0  0  0  0
  187.7470  177.3830  145.7510 C   0  0  0  0  0  0  0  0  0  0  0  0
  192.0000  174.9530  143.9160 C   0  0  2  0  0  3  0  0  0  0  0  0
  188.5870  174.3880  140.4020 N   0  0  0  0  0  2  0  0  0  0  0  0
  188.5810  172.5930  138.7730 C   0  0  0  0  0  1  0  0  0  0  0  0
  188.1950  173.0060  140.1780 C   0  0  0  0  0  2  0  0  0  0  0  0
  1  4  1  0  0  0  0
  1 19  1  0  0  0  0
  2 19  2  0  0  0  0
  2 13  1  0  0  0  0
  3 10  1  0  0  0  0
  4 20  1  0  0  0  0
  5  1  2  0  0  0  0
  6  8  1  0  0  0  0
  7 15  1  1  0  0  0
  7  9  1  0  0  0  0
  8 12  1  0  0  0  0
  9 22  1  0  0  0  0
  9 14  1  1  0  0  0
 10 21  2  0  0  0  0
 11  8  2  0  0  0  0
 11  5  1  0  0  0  0
 12 27  1  0  0  0  0
 12  4  2  0  0  0  0
 13 18  2  0  0  0  0
 15 23  1  0  0  0  0
 16  2  1  0  0  0  0
 17  3  1  0  0  0  0
 18 25  1  0  0  0  0
 19 26  1  0  0  0  0
 20 17  2  0  0  0  0
 22 20  1  6  0  0  0
 22 10  1  0  0  0  0
 23 14  1  0  0  0  0
 26 17  1  0  0  0  0
 26 25  2  0  0  0  0
 27  7  1  0  0  0  0
 27 24  1  1  0  0  0
 28 11  1  0  0  0  0
 29 30  1  0  0  0  0
 30 28  1  0  0  0  0
M  END
>  <MODEL>
4

>  <REMARK>
 VINA RESULT:      -8.4      2.188      5.645
  Name = 
  2 active torsions:
  status: ('A' for Active; 'I' for Inactive)
    1  A    between atoms: C_11  and  N_28
    2  A    between atoms: N_28  and  C_30
                            x       y       z     vdW  Elec       q    Type
                         _______ _______ _______ _____ _____    ______ ____

>  <TORSDO>
F 2

$$$$
=
 OpenBabel11112416183D

 30 35  0  0  1  0  0  0  0  0999 V2000
  187.9970  175.9410  141.8240 C   0  0  0  0  0  0  0  0  0  0  0  0
  189.6450  174.0640  141.4430 C   0  0  0  0  0  0  0  0  0  0  0  0
  188.9900  176.0500  145.9120 N   0  0  0  0  0  2  0  0  0  0  0  0
  187.3630  176.8400  142.7370 C   0  0  0  0  0  0  0  0  0  0  0  0
  187.6350  176.0080  140.4720 C   0  0  0  0  0  3  0  0  0  0  0  0
  185.0690  178.6480  140.4370 O   0  0  0  0  0  1  0  0  0  0  0  0
  184.9740  177.8860  144.3910 C   0  0  1  0  0  3  0  0  0  0  0  0
  186.0390  177.7660  140.9050 C   0  0  0  0  0  0  0  0  0  0  0  0
  185.8850  177.5480  145.5080 N   0  0  2  0  0  0  0  0  0  0  0  0
  188.1680  177.1360  146.3160 C   0  0  0  0  0  0  0  0  0  0  0  0
  186.6780  176.9090  140.0050 C   0  0  0  0  0  0  0  0  0  0  0  0
  186.3660  177.7360  142.2700 C   0  0  0  0  0  0  0  0  0  0  0  0
  190.5940  173.1870  141.9750 C   0  0  0  0  0  3  0  0  0  0  0  0
  185.5230  178.4730  146.5770 C   0  0  0  0  0  2  0  0  0  0  0  0
  183.7980  178.6660  144.9480 C   0  0  0  0  0  2  0  0  0  0  0  0
  189.3820  173.9710  140.0450 N   0  0  0  0  0  1  0  0  0  0  0  0
  188.6960  175.9020  144.5320 C   0  0  0  0  0  0  0  0  0  0  0  0
  190.9090  173.2090  143.3290 C   0  0  0  0  0  3  0  0  0  0  0  0
  188.9780  175.0030  142.2880 C   0  0  0  0  0  0  0  0  0  0  0  0
  187.7470  176.7960  144.0870 C   0  0  0  0  0  0  0  0  0  0  0  0
  188.1960  177.5970  147.4870 O   0  0  0  0  0  0  0  0  0  0  0  0
  187.3190  177.7010  145.2090 C   0  0  1  0  0  3  0  0  0  0  0  0
  184.0540  178.7740  146.4270 C   0  0  0  0  0  2  0  0  0  0  0  0
  186.3200  179.9280  143.5290 C   0  0  0  0  0  1  0  0  0  0  0  0
  190.2740  174.1120  144.1750 C   0  0  0  0  0  3  0  0  0  0  0  0
  189.3170  174.9990  143.6730 C   0  0  0  0  0  0  0  0  0  0  0  0
  185.5880  178.6350  143.1920 C   0  0  2  0  0  3  0  0  0  0  0  0
  186.3330  176.9540  138.6170 N   0  0  0  0  0  2  0  0  0  0  0  0
  185.8960  176.0410  136.4140 C   0  0  0  0  0  1  0  0  0  0  0  0
  186.7420  175.9330  137.6660 C   0  0  0  0  0  2  0  0  0  0  0  0
  1 19  2  0  0  0  0
  1  4  1  0  0  0  0
  2 13  2  0  0  0  0
  2 19  1  0  0  0  0
  3 10  1  0  0  0  0
  4 20  2  0  0  0  0
  5  1  1  0  0  0  0
  6  8  1  0  0  0  0
  7 15  1  1  0  0  0
  7  9  1  0  0  0  0
  8 12  2  0  0  0  0
  9 14  1  1  0  0  0
 10 21  2  0  0  0  0
 11  5  2  0  0  0  0
 11  8  1  0  0  0  0
 12  4  1  0  0  0  0
 12 27  1  0  0  0  0
 13 18  1  0  0  0  0
 15 23  1  0  0  0  0
 16  2  1  0  0  0  0
 17  3  1  0  0  0  0
 18 25  2  0  0  0  0
 19 26  1  0  0  0  0
 20 17  1  0  0  0  0
 22 20  1  6  0  0  0
 22  9  1  0  0  0  0
 22 10  1  0  0  0  0
 23 14  1  0  0  0  0
 26 25  1  0  0  0  0
 26 17  2  0  0  0  0
 27 24  1  1  0  0  0
 27  7  1  0  0  0  0
 28 11  1  0  0  0  0
 29 30  1  0  0  0  0
 30 28  1  0  0  0  0
M  END
>  <MODEL>
5

>  <REMARK>
 VINA RESULT:      -8.0      1.959      7.287
  Name = 
  2 active torsions:
  status: ('A' for Active; 'I' for Inactive)
    1  A    between atoms: C_11  and  N_28
    2  A    between atoms: N_28  and  C_30
                            x       y       z     vdW  Elec       q    Type
                         _______ _______ _______ _____ _____    ______ ____

>  <TORSDO>
F 2

$$$$
=
 OpenBabel11112416183D

 30 35  0  0  1  0  0  0  0  0999 V2000
  187.4750  176.4860  142.4610 C   0  0  0  0  0  0  0  0  0  0  0  0
  185.8220  178.3650  142.8060 C   0  0  0  0  0  0  0  0  0  0  0  0
  188.4160  176.4960  146.5630 N   0  0  0  0  0  2  0  0  0  0  0  0
  188.4540  175.6060  143.0180 C   0  0  0  0  0  0  0  0  0  0  0  0
  187.1940  176.3790  141.0920 C   0  0  0  0  0  3  0  0  0  0  0  0
  189.4860  173.7180  139.9870 O   0  0  0  0  0  1  0  0  0  0  0  0
  191.3360  174.5860  143.4580 C   0  0  1  0  0  3  0  0  0  0  0  0
  188.8230  174.6210  140.8140 C   0  0  0  0  0  0  0  0  0  0  0  0
  191.0190  174.9610  144.8550 N   0  0  2  0  0  0  0  0  0  0  0  0
  189.3370  175.4140  146.5860 C   0  0  0  0  0  0  0  0  0  0  0  0
  187.8460  175.4580  140.2720 C   0  0  0  0  0  0  0  0  0  0  0  0
  189.1420  174.6900  142.1800 C   0  0  0  0  0  0  0  0  0  0  0  0
  185.2070  179.2640  143.6810 C   0  0  0  0  0  3  0  0  0  0  0  0
  191.8250  174.0620  145.6740 C   0  0  0  0  0  2  0  0  0  0  0  0
  192.6410  173.8110  143.4510 C   0  0  0  0  0  2  0  0  0  0  0  0
  185.4310  178.4180  141.4360 N   0  0  0  0  0  1  0  0  0  0  0  0
  188.0600  176.6040  145.1930 C   0  0  0  0  0  0  0  0  0  0  0  0
  185.5310  179.2810  145.0330 C   0  0  0  0  0  3  0  0  0  0  0  0
  186.8010  177.4450  143.2890 C   0  0  0  0  0  0  0  0  0  0  0  0
  188.7150  175.6900  144.3960 C   0  0  0  0  0  0  0  0  0  0  0  0
  189.8380  174.9850  147.6580 O   0  0  0  0  0  0  0  0  0  0  0  0
  189.6040  174.8120  145.2320 C   0  0  1  0  0  3  0  0  0  0  0  0
  193.0740  173.7450  144.8910 C   0  0  0  0  0  2  0  0  0  0  0  0
  189.7570  172.5320  143.3460 C   0  0  0  0  0  1  0  0  0  0  0  0
  186.4810  178.3960  145.5300 C   0  0  0  0  0  3  0  0  0  0  0  0
  187.1170  177.4880  144.6780 C   0  0  0  0  0  0  0  0  0  0  0  0
  190.2540  173.8100  142.6810 C   0  0  2  0  0  3  0  0  0  0  0  0
  187.5340  175.3740  138.8770 N   0  0  0  0  0  2  0  0  0  0  0  0
  186.8010  176.1480  136.7010 C   0  0  0  0  0  1  0  0  0  0  0  0
  186.6730  176.3290  138.1990 C   0  0  0  0  0  2  0  0  0  0  0  0
  1  4  1  0  0  0  0
  1 19  1  0  0  0  0
  2 19  2  0  0  0  0
  2 13  1  0  0  0  0
  3 10  1  0  0  0  0
  4 20  1  0  0  0  0
  5  1  2  0  0  0  0
  6  8  1  0  0  0  0
  7 15  1  1  0  0  0
  7  9  1  0  0  0  0
  8 12  1  0  0  0  0
  9 22  1  0  0  0  0
  9 14  1  1  0  0  0
 10 21  2  0  0  0  0
 11  8  2  0  0  0  0
 11  5  1  0  0  0  0
 12 27  1  0  0  0  0
 12  4  2  0  0  0  0
 13 18  2  0  0  0  0
 15 23  1  0  0  0  0
 16  2  1  0  0  0  0
 17  3  1  0  0  0  0
 18 25  1  0  0  0  0
 19 26  1  0  0  0  0
 20 17  2  0  0  0  0
 22 20  1  6  0  0  0
 22 10  1  0  0  0  0
 23 14  1  0  0  0  0
 26 17  1  0  0  0  0
 26 25  2  0  0  0  0
 27 24  1  1  0  0  0
 27  7  1  0  0  0  0
 28 11  1  0  0  0  0
 29 30  1  0  0  0  0
 30 28  1  0  0  0  0
M  END
>  <MODEL>
6

>  <REMARK>
 VINA RESULT:      -7.9      1.976      5.516
  Name = 
  2 active torsions:
  status: ('A' for Active; 'I' for Inactive)
    1  A    between atoms: C_11  and  N_28
    2  A    between atoms: N_28  and  C_30
                            x       y       z     vdW  Elec       q    Type
                         _______ _______ _______ _____ _____    ______ ____

>  <TORSDO>
F 2

$$$$
=
 OpenBabel11112416183D

 30 35  0  0  1  0  0  0  0  0999 V2000
  188.2140  175.8810  142.1040 C   0  0  0  0  0  0  0  0  0  0  0  0
  186.6080  176.9810  140.4930 C   0  0  0  0  0  0  0  0  0  0  0  0
  186.6490  178.1450  145.2870 N   0  0  0  0  0  2  0  0  0  0  0  0
  188.7250  175.7750  143.4350 C   0  0  0  0  0  0  0  0  0  0  0  0
  188.7660  175.0530  141.1170 C   0  0  0  0  0  3  0  0  0  0  0  0
  191.3510  173.1880  142.9590 O   0  0  0  0  0  1  0  0  0  0  0  0
  190.8690  176.1710  145.6210 C   0  0  1  0  0  3  0  0  0  0  0  0
  190.3110  174.0730  142.6900 C   0  0  0  0  0  0  0  0  0  0  0  0
  189.8020  177.0190  146.2020 N   0  0  2  0  0  0  0  0  0  0  0  0
  187.4220  177.6040  146.3500 C   0  0  0  0  0  0  0  0  0  0  0  0
  189.7940  174.1520  141.3950 C   0  0  0  0  0  0  0  0  0  0  0  0
  189.7920  174.8830  143.7140 C   0  0  0  0  0  0  0  0  0  0  0  0
  185.5800  177.9030  140.2810 C   0  0  0  0  0  3  0  0  0  0  0  0
  190.0220  176.9590  147.6430 C   0  0  0  0  0  2  0  0  0  0  0  0
  191.9650  176.0010  146.6570 C   0  0  0  0  0  2  0  0  0  0  0  0
  187.0660  176.2440  139.3620 N   0  0  0  0  0  1  0  0  0  0  0  0
  187.1340  177.4640  144.1410 C   0  0  0  0  0  0  0  0  0  0  0  0
  185.0750  178.6660  141.3280 C   0  0  0  0  0  3  0  0  0  0  0  0
  187.1620  176.8080  141.7980 C   0  0  0  0  0  0  0  0  0  0  0  0
  188.1510  176.5810  144.4320 C   0  0  0  0  0  0  0  0  0  0  0  0
  187.2340  177.9370  147.5500 O   0  0  0  0  0  0  0  0  0  0  0  0
  188.4280  176.5760  145.9090 C   0  0  1  0  0  3  0  0  0  0  0  0
  191.5030  176.7760  147.8610 C   0  0  0  0  0  2  0  0  0  0  0  0
  189.6920  173.8990  146.0420 C   0  0  0  0  0  1  0  0  0  0  0  0
  185.5960  178.5170  142.6090 C   0  0  0  0  0  3  0  0  0  0  0  0
  186.6280  177.6060  142.8520 C   0  0  0  0  0  0  0  0  0  0  0  0
  190.4440  174.7970  145.0680 C   0  0  2  0  0  3  0  0  0  0  0  0
  190.3340  173.3200  140.3640 N   0  0  0  0  0  2  0  0  0  0  0  0
  188.9440  172.2980  138.6620 C   0  0  0  0  0  1  0  0  0  0  0  0
  189.9210  173.4120  138.9730 C   0  0  0  0  0  2  0  0  0  0  0  0
  1  4  1  0  0  0  0
  2 19  1  0  0  0  0
  3 10  1  0  0  0  0
  4 12  1  0  0  0  0
  4 20  2  0  0  0  0
  5 11  2  0  0  0  0
  5  1  1  0  0  0  0
  7  9  1  0  0  0  0
  7 15  1  1  0  0  0
  8  6  1  0  0  0  0
  8 12  2  0  0  0  0
  9 14  1  1  0  0  0
 10 21  2  0  0  0  0
 11  8  1  0  0  0  0
 12 27  1  0  0  0  0
 13  2  2  0  0  0  0
 13 18  1  0  0  0  0
 14 23  1  0  0  0  0
 15 23  1  0  0  0  0
 16  2  1  0  0  0  0
 17 20  1  0  0  0  0
 17  3  1  0  0  0  0
 18 25  2  0  0  0  0
 19  1  2  0  0  0  0
 19 26  1  0  0  0  0
 22 20  1  6  0  0  0
 22  9  1  0  0  0  0
 22 10  1  0  0  0  0
 25 26  1  0  0  0  0
 26 17  2  0  0  0  0
 27  7  1  0  0  0  0
 27 24  1  1  0  0  0
 28 11  1  0  0  0  0
 29 30  1  0  0  0  0
 30 28  1  0  0  0  0
M  END
>  <MODEL>
7

>  <REMARK>
 VINA RESULT:      -7.8      2.087      5.652
  Name = 
  2 active torsions:
  status: ('A' for Active; 'I' for Inactive)
    1  A    between atoms: C_11  and  N_28
    2  A    between atoms: N_28  and  C_30
                            x       y       z     vdW  Elec       q    Type
                         _______ _______ _______ _____ _____    ______ ____

>  <TORSDO>
F 2

$$$$
=
 OpenBabel11112416183D

 30 35  0  0  1  0  0  0  0  0999 V2000
  188.8940  175.5500  143.3560 C   0  0  0  0  0  0  0  0  0  0  0  0
  186.7310  176.5070  144.2450 C   0  0  0  0  0  0  0  0  0  0  0  0
  190.9580  176.9290  146.7540 N   0  0  0  0  0  2  0  0  0  0  0  0
  190.3010  175.3610  143.5180 C   0  0  0  0  0  0  0  0  0  0  0  0
  188.2840  175.0160  142.2130 C   0  0  0  0  0  3  0  0  0  0  0  0
  191.1080  173.4970  140.4050 O   0  0  0  0  0  1  0  0  0  0  0  0
  193.2670  175.8800  142.8320 C   0  0  1  0  0  3  0  0  0  0  0  0
  190.3870  174.1680  141.3890 C   0  0  0  0  0  0  0  0  0  0  0  0
  193.2720  176.3830  144.2240 N   0  0  2  0  0  0  0  0  0  0  0  0
  192.2500  176.4160  146.4570 C   0  0  0  0  0  0  0  0  0  0  0  0
  189.0070  174.3260  141.2400 C   0  0  0  0  0  0  0  0  0  0  0  0
  191.0460  174.6870  142.5150 C   0  0  0  0  0  0  0  0  0  0  0  0
  186.0660  177.2070  145.2540 C   0  0  0  0  0  3  0  0  0  0  0  0
  194.6340  176.1590  144.6970 C   0  0  0  0  0  2  0  0  0  0  0  0
  194.7020  175.7970  142.3450 C   0  0  0  0  0  2  0  0  0  0  0  0
  185.9520  176.0610  143.1380 N   0  0  0  0  0  1  0  0  0  0  0  0
  190.1800  176.5460  145.6310 C   0  0  0  0  0  0  0  0  0  0  0  0
  186.7500  177.6800  146.3680 C   0  0  0  0  0  3  0  0  0  0  0  0
  188.1360  176.2650  144.3420 C   0  0  0  0  0  0  0  0  0  0  0  0
  190.9100  175.8680  144.6780 C   0  0  0  0  0  0  0  0  0  0  0  0
  193.2110  176.5180  147.2630 O   0  0  0  0  0  0  0  0  0  0  0  0
  192.3330  175.7040  145.1330 C   0  0  1  0  0  3  0  0  0  0  0  0
  195.5450  176.2670  143.5000 C   0  0  0  0  0  2  0  0  0  0  0  0
  193.0000  173.3710  143.4330 C   0  0  0  0  0  1  0  0  0  0  0  0
  188.1180  177.4590  146.4880 C   0  0  0  0  0  3  0  0  0  0  0  0
  188.8120  176.7650  145.4920 C   0  0  0  0  0  0  0  0  0  0  0  0
  192.5420  174.5440  142.5750 C   0  0  2  0  0  3  0  0  0  0  0  0
  188.3530  173.7900  140.0860 N   0  0  0  0  0  2  0  0  0  0  0  0
  188.6780  173.6990  137.6860 C   0  0  0  0  0  1  0  0  0  0  0  0
  188.1910  174.5380  138.8490 C   0  0  0  0  0  2  0  0  0  0  0  0
  1  4  1  0  0  0  0
  1 19  1  0  0  0  0
  2 19  2  0  0  0  0
  2 13  1  0  0  0  0
  4 20  1  0  0  0  0
  5  1  2  0  0  0  0
  6  8  1  0  0  0  0
  7 15  1  1  0  0  0
  7  9  1  0  0  0  0
  8 12  1  0  0  0  0
  9 14  1  1  0  0  0
  9 22  1  0  0  0  0
 10  3  1  0  0  0  0
 10 21  2  0  0  0  0
 11  8  2  0  0  0  0
 11  5  1  0  0  0  0
 12 27  1  0  0  0  0
 12  4  2  0  0  0  0
 13 18  2  0  0  0  0
 15 23  1  0  0  0  0
 16  2  1  0  0  0  0
 17  3  1  0  0  0  0
 18 25  1  0  0  0  0
 19 26  1  0  0  0  0
 20 17  2  0  0  0  0
 22 20  1  6  0  0  0
 22 10  1  0  0  0  0
 23 14  1  0  0  0  0
 26 17  1  0  0  0  0
 26 25  2  0  0  0  0
 27  7  1  0  0  0  0
 27 24  1  1  0  0  0
 28 11  1  0  0  0  0
 29 30  1  0  0  0  0
 30 28  1  0  0  0  0
M  END
>  <MODEL>
8

>  <REMARK>
 VINA RESULT:      -7.6      2.598      5.840
  Name = 
  2 active torsions:
  status: ('A' for Active; 'I' for Inactive)
    1  A    between atoms: C_11  and  N_28
    2  A    between atoms: N_28  and  C_30
                            x       y       z     vdW  Elec       q    Type
                         _______ _______ _______ _____ _____    ______ ____

>  <TORSDO>
F 2

$$$$
=
 OpenBabel11112416183D

 30 35  0  0  1  0  0  0  0  0999 V2000
  188.2560  175.6320  143.1520 C   0  0  0  0  0  0  0  0  0  0  0  0
  188.1690  176.4070  145.5550 C   0  0  0  0  0  0  0  0  0  0  0  0
  190.5600  172.2910  144.2610 N   0  0  0  0  0  2  0  0  0  0  0  0
  188.7290  174.6840  142.1930 C   0  0  0  0  0  0  0  0  0  0  0  0
  187.4560  176.6880  142.6960 C   0  0  0  0  0  3  0  0  0  0  0  0
  187.3010  176.0960  139.0650 O   0  0  0  0  0  1  0  0  0  0  0  0
  190.5020  173.7750  139.8330 C   0  0  1  0  0  3  0  0  0  0  0  0
  187.6150  175.9280  140.4110 C   0  0  0  0  0  0  0  0  0  0  0  0
  191.0110  172.8420  140.8640 N   0  0  2  0  0  0  0  0  0  0  0  0
  190.6740  171.6630  142.9920 C   0  0  0  0  0  0  0  0  0  0  0  0
  187.1260  176.8400  141.3490 C   0  0  0  0  0  0  0  0  0  0  0  0
  188.4220  174.8530  140.8180 C   0  0  0  0  0  0  0  0  0  0  0  0
  188.5350  176.1990  146.8870 C   0  0  0  0  0  3  0  0  0  0  0  0
  191.4470  171.6660  140.1190 C   0  0  0  0  0  2  0  0  0  0  0  0
  191.0560  173.3520  138.4850 C   0  0  0  0  0  2  0  0  0  0  0  0
  187.3730  177.5550  145.2700 N   0  0  0  0  0  1  0  0  0  0  0  0
  189.8200  173.4700  143.9870 C   0  0  0  0  0  0  0  0  0  0  0  0
  189.3130  175.1050  147.2520 C   0  0  0  0  0  3  0  0  0  0  0  0
  188.5920  175.4960  144.5400 C   0  0  0  0  0  0  0  0  0  0  0  0
  189.5050  173.6060  142.6520 C   0  0  0  0  0  0  0  0  0  0  0  0
  191.2340  170.5450  142.8460 O   0  0  0  0  0  0  0  0  0  0  0  0
  190.0210  172.4290  141.8730 C   0  0  1  0  0  3  0  0  0  0  0  0
  191.9040  172.1410  138.7630 C   0  0  0  0  0  2  0  0  0  0  0  0
  188.1710  172.6680  139.5700 C   0  0  0  0  0  1  0  0  0  0  0  0
  189.7390  174.2020  146.2840 C   0  0  0  0  0  3  0  0  0  0  0  0
  189.3910  174.3870  144.9420 C   0  0  0  0  0  0  0  0  0  0  0  0
  188.9730  173.9520  139.7460 C   0  0  2  0  0  3  0  0  0  0  0  0
  186.3040  177.9300  140.9170 N   0  0  0  0  0  2  0  0  0  0  0  0
  183.9420  178.2950  140.5170 C   0  0  0  0  0  1  0  0  0  0  0  0
  185.0440  178.2730  141.5550 C   0  0  0  0  0  2  0  0  0  0  0  0
  1 19  1  0  0  0  0
  2 13  1  0  0  0  0
  4 20  1  0  0  0  0
  4  1  2  0  0  0  0
  5  1  1  0  0  0  0
  6  8  1  0  0  0  0
  7 15  1  6  0  0  0
  7  9  1  0  0  0  0
  8 12  2  0  0  0  0
  8 11  1  0  0  0  0
  9 14  1  6  0  0  0
  9 22  1  0  0  0  0
 10  3  1  0  0  0  0
 11  5  2  0  0  0  0
 12  4  1  0  0  0  0
 13 18  2  0  0  0  0
 15 23  1  0  0  0  0
 16  2  1  0  0  0  0
 17  3  1  0  0  0  0
 17 26  1  0  0  0  0
 19 26  1  0  0  0  0
 19  2  2  0  0  0  0
 20 17  2  0  0  0  0
 21 10  2  0  0  0  0
 22 20  1  1  0  0  0
 22 10  1  0  0  0  0
 23 14  1  0  0  0  0
 25 18  1  0  0  0  0
 26 25  2  0  0  0  0
 27 24  1  1  0  0  0
 27  7  1  0  0  0  0
 27 12  1  0  0  0  0
 28 11  1  0  0  0  0
 28 30  1  0  0  0  0
 29 30  1  0  0  0  0
M  END
>  <MODEL>
9

>  <REMARK>
 VINA RESULT:      -7.5      2.206      5.550
  Name = 
  2 active torsions:
  status: ('A' for Active; 'I' for Inactive)
    1  A    between atoms: C_11  and  N_28
    2  A    between atoms: N_28  and  C_30
                            x       y       z     vdW  Elec       q    Type
                         _______ _______ _______ _____ _____    ______ ____

>  <TORSDO>
F 2

$$$$
