=
 OpenBabel11112417463D

 34 41  0  0  1  0  0  0  0  0999 V2000
  188.9280  175.1960  142.8230 C   0  0  0  0  0  0  0  0  0  0  0  0
  191.0790  173.8600  142.6240 C   0  0  0  0  0  2  0  0  0  0  0  0
  184.7130  178.7630  146.2650 C   0  0  0  0  0  0  0  0  0  0  0  0
  187.1800  176.8250  143.1260 C   0  0  0  0  0  0  0  0  0  0  0  0
  186.7910  177.8530  145.3060 C   0  0  0  0  0  0  0  0  0  0  0  0
  186.3750  178.5880  147.6730 C   0  0  0  0  0  2  0  0  0  0  0  0
  184.8860  178.5430  147.7480 C   0  0  0  0  0  2  0  0  0  0  0  0
  184.1270  178.9180  143.9350 C   0  0  0  0  0  3  0  0  0  0  0  0
  190.1270  174.2170  144.8180 C   0  0  2  0  0  3  0  0  0  0  0  0
  192.3460  175.2370  146.9400 C   0  0  0  0  0  3  0  0  0  0  0  0
  187.8630  177.0820  145.7910 O   0  0  0  0  0  0  0  0  0  0  0  0
  185.2620  178.4630  143.3760 C   0  0  0  0  0  3  0  0  0  0  0  0
  189.7090  175.4980  145.5660 C   0  0  1  0  0  3  0  0  0  0  0  0
  192.0110  173.2400  143.6520 C   0  0  0  0  0  2  0  0  0  0  0  0
  186.3900  177.7150  144.0110 C   0  0  0  0  0  0  0  0  0  0  0  0
  183.7630  178.8010  145.3530 C   0  0  0  0  0  3  0  0  0  0  0  0
  192.4870  174.9390  145.4690 C   0  0  2  0  0  3  0  0  0  0  0  0
  188.1420  175.9760  143.6760 C   0  0  0  0  0  0  0  0  0  0  0  0
  186.2080  178.8940  146.2190 C   0  0  2  0  0  3  0  0  0  0  0  0
  188.2750  175.8650  145.1680 C   0  0  2  0  0  3  0  0  0  0  0  0
  187.7890  176.0910  140.9550 C   0  0  0  0  0  3  0  0  0  0  0  0
  191.1940  175.4080  147.6110 C   0  0  0  0  0  3  0  0  0  0  0  0
  187.0200  176.8590  141.7730 N   0  0  0  0  0  0  0  0  0  0  0  0
  189.7990  175.2490  147.0630 C   0  0  0  0  0  2  0  0  0  0  0  0
  191.5830  173.7750  145.0220 C   0  0  1  0  0  3  0  0  0  0  0  0
  188.7420  175.2730  141.4790 N   0  0  0  0  0  0  0  0  0  0  0  0
  189.9600  174.3750  143.3830 N   0  0  0  0  0  0  0  0  0  0  0  0
  193.8310  174.6620  145.1950 O   0  0  0  0  0  0  0  0  0  0  0  0
  194.3310  175.8390  144.6310 C   0  0  0  0  0  2  0  0  0  0  0  0
  195.4270  176.4820  141.4260 C   0  0  0  0  0  2  0  0  0  0  0  0
  196.3580  176.6520  143.4430 C   0  0  0  0  0  2  0  0  0  0  0  0
  195.3820  175.5070  143.5880 C   0  0  2  0  0  3  0  0  0  0  0  0
  196.6160  176.8410  142.0770 O   0  0  0  0  0  0  0  0  0  0  0  0
  194.7450  175.4040  142.2350 C   0  0  0  0  0  2  0  0  0  0  0  0
  1 27  1  0  0  0  0
  1 18  1  0  0  0  0
  2 27  1  0  0  0  0
  2 14  1  0  0  0  0
  3  7  1  0  0  0  0
  4 18  2  0  0  0  0
  4 15  1  0  0  0  0
  5 11  1  0  0  0  0
  5 19  1  0  0  0  0
  6  7  1  0  0  0  0
  8 16  1  0  0  0  0
  9 27  1  6  0  0  0
  9 25  1  0  0  0  0
  9 13  1  0  0  0  0
 10 22  2  0  0  0  0
 12  8  2  0  0  0  0
 12 15  1  0  0  0  0
 13 24  1  1  0  0  0
 15  5  2  0  0  0  0
 16  3  2  0  0  0  0
 17 28  1  1  0  0  0
 17 10  1  0  0  0  0
 19  3  1  0  0  0  0
 19  6  1  1  0  0  0
 20 18  1  6  0  0  0
 20 13  1  0  0  0  0
 20 11  1  0  0  0  0
 21 26  1  0  0  0  0
 21 23  2  0  0  0  0
 23  4  1  0  0  0  0
 24 22  1  0  0  0  0
 25 14  1  6  0  0  0
 25 17  1  0  0  0  0
 26  1  2  0  0  0  0
 29 28  1  0  0  0  0
 30 33  1  0  0  0  0
 30 34  1  0  0  0  0
 31 32  1  0  0  0  0
 32 29  1  1  0  0  0
 33 31  1  0  0  0  0
 34 32  1  0  0  0  0
M  END
>  <MODEL>
1

>  <REMARK>
 VINA RESULT:      -9.7      0.000      0.000
  Name = 
  3 active torsions:
  status: ('A' for Active; 'I' for Inactive)
    1  A    between atoms: C_17  and  O_28
    2  A    between atoms: O_28  and  C_29
    3  A    between atoms: C_29  and  C_32
                            x       y       z     vdW  Elec       q    Type
                         _______ _______ _______ _____ _____    ______ ____

>  <TORSDO>
F 3

$$$$
=
 OpenBabel11112417463D

 34 41  0  0  1  0  0  0  0  0999 V2000
  188.7710  175.1680  142.7380 C   0  0  0  0  0  0  0  0  0  0  0  0
  190.8760  173.7610  142.5340 C   0  0  0  0  0  2  0  0  0  0  0  0
  184.6660  178.8420  146.2000 C   0  0  0  0  0  0  0  0  0  0  0  0
  187.0780  176.8520  143.0510 C   0  0  0  0  0  0  0  0  0  0  0  0
  186.7160  177.8720  145.2390 C   0  0  0  0  0  0  0  0  0  0  0  0
  186.3160  178.5970  147.6120 C   0  0  0  0  0  2  0  0  0  0  0  0
  184.8260  178.6020  147.6810 C   0  0  0  0  0  2  0  0  0  0  0  0
  184.0950  179.0390  143.8690 C   0  0  0  0  0  3  0  0  0  0  0  0
  189.9280  174.1280  144.7280 C   0  0  2  0  0  3  0  0  0  0  0  0
  192.1720  175.0520  146.8680 C   0  0  0  0  0  3  0  0  0  0  0  0
  187.7590  177.0590  145.7210 O   0  0  0  0  0  0  0  0  0  0  0  0
  185.2160  178.5520  143.3100 C   0  0  0  0  0  3  0  0  0  0  0  0
  189.5510  175.4150  145.4870 C   0  0  1  0  0  3  0  0  0  0  0  0
  191.7830  173.0990  143.5600 C   0  0  0  0  0  2  0  0  0  0  0  0
  186.3150  177.7600  143.9420 C   0  0  0  0  0  0  0  0  0  0  0  0
  183.7220  178.9210  145.2840 C   0  0  0  0  0  3  0  0  0  0  0  0
  192.3080  174.7630  145.3950 C   0  0  2  0  0  3  0  0  0  0  0  0
  188.0080  175.9660  143.5960 C   0  0  0  0  0  0  0  0  0  0  0  0
  186.1650  178.9230  146.1610 C   0  0  2  0  0  3  0  0  0  0  0  0
  188.1320  175.8350  145.0880 C   0  0  2  0  0  3  0  0  0  0  0  0
  187.6710  176.1180  140.8750 C   0  0  0  0  0  3  0  0  0  0  0  0
  191.0230  175.2560  147.5370 C   0  0  0  0  0  3  0  0  0  0  0  0
  186.9250  176.9050  141.6970 N   0  0  0  0  0  0  0  0  0  0  0  0
  189.6260  175.1490  146.9820 C   0  0  0  0  0  2  0  0  0  0  0  0
  191.3680  173.6360  144.9340 C   0  0  1  0  0  3  0  0  0  0  0  0
  188.5940  175.2630  141.3940 N   0  0  0  0  0  0  0  0  0  0  0  0
  189.7730  174.3060  143.2940 N   0  0  0  0  0  0  0  0  0  0  0  0
  193.6430  174.4440  145.1240 O   0  0  0  0  0  0  0  0  0  0  0  0
  194.2090  175.6350  144.6590 C   0  0  0  0  0  2  0  0  0  0  0  0
  197.1330  173.8310  144.9470 C   0  0  0  0  0  2  0  0  0  0  0  0
  196.5490  175.6600  143.8170 C   0  0  0  0  0  2  0  0  0  0  0  0
  195.6740  175.6990  145.0500 C   0  0  2  0  0  3  0  0  0  0  0  0
  197.6320  174.8060  144.0720 O   0  0  0  0  0  0  0  0  0  0  0  0
  196.0570  174.4600  145.8010 C   0  0  0  0  0  2  0  0  0  0  0  0
  1 27  1  0  0  0  0
  1 18  1  0  0  0  0
  2 27  1  0  0  0  0
  2 14  1  0  0  0  0
  3  7  1  0  0  0  0
  4 18  2  0  0  0  0
  4 15  1  0  0  0  0
  5 11  1  0  0  0  0
  5 19  1  0  0  0  0
  6  7  1  0  0  0  0
  8 16  1  0  0  0  0
  9 27  1  6  0  0  0
  9 25  1  0  0  0  0
  9 13  1  0  0  0  0
 10 22  2  0  0  0  0
 12  8  2  0  0  0  0
 12 15  1  0  0  0  0
 13 24  1  1  0  0  0
 15  5  2  0  0  0  0
 16  3  2  0  0  0  0
 17 28  1  1  0  0  0
 17 10  1  0  0  0  0
 19  3  1  0  0  0  0
 19  6  1  1  0  0  0
 20 18  1  6  0  0  0
 20 13  1  0  0  0  0
 20 11  1  0  0  0  0
 21 26  1  0  0  0  0
 21 23  2  0  0  0  0
 23  4  1  0  0  0  0
 24 22  1  0  0  0  0
 25 14  1  6  0  0  0
 25 17  1  0  0  0  0
 26  1  2  0  0  0  0
 29 28  1  0  0  0  0
 30 34  1  0  0  0  0
 31 33  1  0  0  0  0
 31 32  1  0  0  0  0
 32 29  1  6  0  0  0
 32 34  1  0  0  0  0
 33 30  1  0  0  0  0
M  END
>  <MODEL>
2

>  <REMARK>
 VINA RESULT:      -9.6      0.897      1.228
  Name = 
  3 active torsions:
  status: ('A' for Active; 'I' for Inactive)
    1  A    between atoms: C_17  and  O_28
    2  A    between atoms: O_28  and  C_29
    3  A    between atoms: C_29  and  C_32
                            x       y       z     vdW  Elec       q    Type
                         _______ _______ _______ _____ _____    ______ ____

>  <TORSDO>
F 3

$$$$
=
 OpenBabel11112417463D

 34 41  0  0  1  0  0  0  0  0999 V2000
  188.7560  175.3740  142.5210 C   0  0  0  0  0  0  0  0  0  0  0  0
  190.8810  174.0440  142.1100 C   0  0  0  0  0  2  0  0  0  0  0  0
  184.7900  178.7470  146.4240 C   0  0  0  0  0  0  0  0  0  0  0  0
  187.0420  176.9880  143.0280 C   0  0  0  0  0  0  0  0  0  0  0  0
  186.7970  177.8880  145.2840 C   0  0  0  0  0  0  0  0  0  0  0  0
  186.5360  178.4840  147.7110 C   0  0  0  0  0  2  0  0  0  0  0  0
  185.0540  178.4410  147.8780 C   0  0  0  0  0  2  0  0  0  0  0  0
  184.0600  179.0400  144.1480 C   0  0  0  0  0  3  0  0  0  0  0  0
  190.0710  174.2750  144.3770 C   0  0  2  0  0  3  0  0  0  0  0  0
  192.4250  175.1610  146.4110 C   0  0  0  0  0  3  0  0  0  0  0  0
  187.8920  177.0860  145.6560 O   0  0  0  0  0  0  0  0  0  0  0  0
  185.1550  178.6150  143.4930 C   0  0  0  0  0  3  0  0  0  0  0  0
  189.7100  175.5110  145.2230 C   0  0  1  0  0  3  0  0  0  0  0  0
  191.8710  173.3610  143.0400 C   0  0  0  0  0  2  0  0  0  0  0  0
  186.3150  177.8270  144.0110 C   0  0  0  0  0  0  0  0  0  0  0  0
  183.7850  178.8420  145.5760 C   0  0  0  0  0  3  0  0  0  0  0  0
  192.4710  174.9490  144.9190 C   0  0  2  0  0  3  0  0  0  0  0  0
  188.0300  176.1050  143.4660 C   0  0  0  0  0  0  0  0  0  0  0  0
  186.2800  178.8760  146.2910 C   0  0  2  0  0  3  0  0  0  0  0  0
  188.2560  175.9060  144.9380 C   0  0  2  0  0  3  0  0  0  0  0  0
  187.5090  176.3800  140.7840 C   0  0  0  0  0  3  0  0  0  0  0  0
  191.3180  175.2970  147.1620 C   0  0  0  0  0  3  0  0  0  0  0  0
  186.7980  177.1020  141.6920 N   0  0  0  0  0  0  0  0  0  0  0  0
  189.8910  175.1740  146.6940 C   0  0  0  0  0  2  0  0  0  0  0  0
  191.5330  173.8170  144.4630 C   0  0  1  0  0  3  0  0  0  0  0  0
  188.4870  175.5290  141.1980 N   0  0  0  0  0  0  0  0  0  0  0  0
  189.8150  174.5170  142.9660 N   0  0  0  0  0  0  0  0  0  0  0  0
  193.7940  174.6850  144.5460 O   0  0  0  0  0  0  0  0  0  0  0  0
  194.4030  174.1950  145.7050 C   0  0  0  0  0  2  0  0  0  0  0  0
  194.3370  171.0400  144.3190 C   0  0  0  0  0  2  0  0  0  0  0  0
  195.4940  172.8940  143.8890 C   0  0  0  0  0  2  0  0  0  0  0  0
  195.2290  172.9660  145.3760 C   0  0  2  0  0  3  0  0  0  0  0  0
  195.3270  171.5640  143.4750 O   0  0  0  0  0  0  0  0  0  0  0  0
  194.4380  171.7260  145.6610 C   0  0  0  0  0  2  0  0  0  0  0  0
  1 27  1  0  0  0  0
  1 18  1  0  0  0  0
  2 27  1  0  0  0  0
  2 14  1  0  0  0  0
  3  7  1  0  0  0  0
  4 18  2  0  0  0  0
  4 15  1  0  0  0  0
  5 11  1  0  0  0  0
  5 19  1  0  0  0  0
  6  7  1  0  0  0  0
  8 16  1  0  0  0  0
  9 27  1  6  0  0  0
  9 25  1  0  0  0  0
  9 13  1  0  0  0  0
 10 22  2  0  0  0  0
 12 15  1  0  0  0  0
 12  8  2  0  0  0  0
 13 24  1  1  0  0  0
 15  5  2  0  0  0  0
 16  3  2  0  0  0  0
 17 28  1  1  0  0  0
 17 10  1  0  0  0  0
 19  3  1  0  0  0  0
 19  6  1  1  0  0  0
 20 18  1  6  0  0  0
 20 13  1  0  0  0  0
 20 11  1  0  0  0  0
 21 26  1  0  0  0  0
 21 23  2  0  0  0  0
 23  4  1  0  0  0  0
 24 22  1  0  0  0  0
 25 14  1  6  0  0  0
 25 17  1  0  0  0  0
 26  1  2  0  0  0  0
 28 29  1  0  0  0  0
 30 34  1  0  0  0  0
 31 32  1  0  0  0  0
 32 34  1  0  0  0  0
 32 29  1  6  0  0  0
 33 31  1  0  0  0  0
 33 30  1  0  0  0  0
M  END
>  <MODEL>
3

>  <REMARK>
 VINA RESULT:      -9.3      1.507      1.946
  Name = 
  3 active torsions:
  status: ('A' for Active; 'I' for Inactive)
    1  A    between atoms: C_17  and  O_28
    2  A    between atoms: O_28  and  C_29
    3  A    between atoms: C_29  and  C_32
                            x       y       z     vdW  Elec       q    Type
                         _______ _______ _______ _____ _____    ______ ____

>  <TORSDO>
F 3

$$$$
=
 OpenBabel11112417463D

 34 41  0  0  1  0  0  0  0  0999 V2000
  192.3850  176.0450  145.8380 C   0  0  0  0  0  0  0  0  0  0  0  0
  190.0350  176.0100  146.8010 C   0  0  0  0  0  2  0  0  0  0  0  0
  196.5360  175.3940  140.8690 C   0  0  0  0  0  0  0  0  0  0  0  0
  194.4420  176.4270  144.6430 C   0  0  0  0  0  0  0  0  0  0  0  0
  194.5880  176.0190  142.2410 C   0  0  0  0  0  0  0  0  0  0  0  0
  194.6120  175.2840  139.8370 C   0  0  0  0  0  2  0  0  0  0  0  0
  195.9290  174.5900  139.7450 C   0  0  0  0  0  2  0  0  0  0  0  0
  197.7090  176.3780  142.7260 C   0  0  0  0  0  3  0  0  0  0  0  0
  190.4630  174.8400  144.7280 C   0  0  2  0  0  3  0  0  0  0  0  0
  188.2550  175.5480  142.4700 C   0  0  0  0  0  3  0  0  0  0  0  0
  193.2330  175.6410  142.2850 O   0  0  0  0  0  0  0  0  0  0  0  0
  196.6690  176.7690  143.4820 C   0  0  0  0  0  3  0  0  0  0  0  0
  191.0830  175.2980  143.3930 C   0  0  1  0  0  3  0  0  0  0  0  0
  188.7200  175.4310  146.3030 C   0  0  0  0  0  2  0  0  0  0  0  0
  195.2330  176.3610  143.3900 C   0  0  0  0  0  0  0  0  0  0  0  0
  197.6410  175.4590  141.5830 C   0  0  0  0  0  3  0  0  0  0  0  0
  188.4000  176.0770  143.8750 C   0  0  2  0  0  3  0  0  0  0  0  0
  193.1450  175.9120  144.6710 C   0  0  0  0  0  0  0  0  0  0  0  0
  195.2350  176.1440  140.8900 C   0  0  2  0  0  3  0  0  0  0  0  0
  192.6080  175.1710  143.4800 C   0  0  2  0  0  3  0  0  0  0  0  0
  194.1920  177.1490  146.8880 C   0  0  0  0  0  3  0  0  0  0  0  0
  189.1890  174.8770  141.7730 C   0  0  0  0  0  3  0  0  0  0  0  0
  194.9410  177.0310  145.7580 N   0  0  0  0  0  0  0  0  0  0  0  0
  190.5390  174.4300  142.2700 C   0  0  0  0  0  2  0  0  0  0  0  0
  188.9420  175.0120  144.8450 C   0  0  1  0  0  3  0  0  0  0  0  0
  192.9200  176.6670  146.9210 N   0  0  0  0  0  0  0  0  0  0  0  0
  191.0310  175.5770  145.8450 N   0  0  0  0  0  0  0  0  0  0  0  0
  187.1570  176.5580  144.3020 O   0  0  0  0  0  0  0  0  0  0  0  0
  187.1890  177.9280  144.0250 C   0  0  0  0  0  2  0  0  0  0  0  0
  183.9950  179.0410  144.6920 C   0  0  0  0  0  2  0  0  0  0  0  0
  185.4240  177.7100  145.7640 C   0  0  0  0  0  2  0  0  0  0  0  0
  186.3160  178.6760  145.0160 C   0  0  2  0  0  3  0  0  0  0  0  0
  184.1440  178.2750  145.8570 O   0  0  0  0  0  0  0  0  0  0  0  0
  185.3530  179.5600  144.2840 C   0  0  0  0  0  2  0  0  0  0  0  0
  1 27  1  0  0  0  0
  1 26  1  0  0  0  0
  3 19  1  0  0  0  0
  3 16  2  0  0  0  0
  4 18  1  0  0  0  0
  4 23  2  0  0  0  0
  5 11  1  0  0  0  0
  5 15  2  0  0  0  0
  7  6  1  0  0  0  0
  7  3  1  0  0  0  0
  8 12  2  0  0  0  0
  9 25  1  0  0  0  0
  9 27  1  1  0  0  0
 10 17  1  0  0  0  0
 13 24  1  6  0  0  0
 13 20  1  0  0  0  0
 13  9  1  0  0  0  0
 14  2  1  0  0  0  0
 15 12  1  0  0  0  0
 15  4  1  0  0  0  0
 16  8  1  0  0  0  0
 17 28  1  1  0  0  0
 17 25  1  0  0  0  0
 18  1  2  0  0  0  0
 19  6  1  6  0  0  0
 19  5  1  0  0  0  0
 20 11  1  6  0  0  0
 20 18  1  0  0  0  0
 21 26  2  0  0  0  0
 22 24  1  0  0  0  0
 22 10  2  0  0  0  0
 23 21  1  0  0  0  0
 25 14  1  1  0  0  0
 27  2  1  0  0  0  0
 29 28  1  0  0  0  0
 30 33  1  0  0  0  0
 31 33  1  0  0  0  0
 32 29  1  6  0  0  0
 32 31  1  0  0  0  0
 34 30  1  0  0  0  0
 34 32  1  0  0  0  0
M  END
>  <MODEL>
4

>  <REMARK>
 VINA RESULT:      -8.5      2.132      8.836
  Name = 
  3 active torsions:
  status: ('A' for Active; 'I' for Inactive)
    1  A    between atoms: C_17  and  O_28
    2  A    between atoms: O_28  and  C_29
    3  A    between atoms: C_29  and  C_32
                            x       y       z     vdW  Elec       q    Type
                         _______ _______ _______ _____ _____    ______ ____

>  <TORSDO>
F 3

$$$$
=
 OpenBabel11112417463D

 34 41  0  0  1  0  0  0  0  0999 V2000
  192.4130  175.9060  145.5850 C   0  0  0  0  0  0  0  0  0  0  0  0
  190.5680  177.5690  145.0560 C   0  0  0  0  0  2  0  0  0  0  0  0
  194.9930  169.9400  145.2700 C   0  0  0  0  0  0  0  0  0  0  0  0
  194.2030  174.2940  145.6110 C   0  0  0  0  0  0  0  0  0  0  0  0
  193.8910  172.0620  144.6750 C   0  0  0  0  0  0  0  0  0  0  0  0
  193.2900  169.7420  143.9150 C   0  0  0  0  0  2  0  0  0  0  0  0
  193.9440  168.9010  144.9590 C   0  0  0  0  0  2  0  0  0  0  0  0
  196.6650  171.4580  146.1060 C   0  0  0  0  0  3  0  0  0  0  0  0
  190.0670  175.2050  144.9650 C   0  0  2  0  0  3  0  0  0  0  0  0
  188.5100  174.4090  142.2430 C   0  0  0  0  0  3  0  0  0  0  0  0
  192.5780  172.4490  144.3480 O   0  0  0  0  0  0  0  0  0  0  0  0
  196.1110  172.6330  145.7610 C   0  0  0  0  0  3  0  0  0  0  0  0
  190.7270  174.0380  144.2060 C   0  0  1  0  0  3  0  0  0  0  0  0
  189.1270  177.4070  144.5980 C   0  0  0  0  0  2  0  0  0  0  0  0
  194.7050  172.9240  145.3450 C   0  0  0  0  0  0  0  0  0  0  0  0
  195.9830  170.1570  146.1110 C   0  0  0  0  0  3  0  0  0  0  0  0
  189.0480  175.7440  142.6880 C   0  0  2  0  0  3  0  0  0  0  0  0
  192.8560  174.5930  145.3990 C   0  0  0  0  0  0  0  0  0  0  0  0
  194.3790  170.7380  144.1560 C   0  0  2  0  0  3  0  0  0  0  0  0
  191.8950  173.4960  145.0390 C   0  0  2  0  0  3  0  0  0  0  0  0
  194.6010  176.5590  146.1910 C   0  0  0  0  0  3  0  0  0  0  0  0
  188.8190  173.2110  142.7690 C   0  0  0  0  0  3  0  0  0  0  0  0
  195.0480  175.2870  146.0100 N   0  0  0  0  0  0  0  0  0  0  0  0
  189.6920  172.9510  143.9700 C   0  0  0  0  0  2  0  0  0  0  0  0
  188.9450  175.9340  144.2120 C   0  0  1  0  0  3  0  0  0  0  0  0
  193.2940  176.8650  145.9710 N   0  0  0  0  0  0  0  0  0  0  0  0
  191.0450  176.2260  145.3030 N   0  0  0  0  0  0  0  0  0  0  0  0
  188.3560  176.7540  142.0100 O   0  0  0  0  0  0  0  0  0  0  0  0
  187.0810  176.2270  141.7860 C   0  0  0  0  0  2  0  0  0  0  0  0
  185.8000  178.4360  144.1020 C   0  0  0  0  0  2  0  0  0  0  0  0
  186.6670  178.6630  142.0620 C   0  0  0  0  0  2  0  0  0  0  0  0
  186.0300  177.2920  142.0370 C   0  0  2  0  0  3  0  0  0  0  0  0
  186.1040  179.3910  143.1210 O   0  0  0  0  0  0  0  0  0  0  0  0
  185.4610  177.1340  143.4140 C   0  0  0  0  0  2  0  0  0  0  0  0
  1 26  1  0  0  0  0
  2 27  1  0  0  0  0
  3 16  2  0  0  0  0
  4 23  2  0  0  0  0
  5 15  2  0  0  0  0
  6  7  1  0  0  0  0
  7  3  1  0  0  0  0
  8 16  1  0  0  0  0
  9 27  1  6  0  0  0
 10 17  1  0  0  0  0
 10 22  2  0  0  0  0
 11  5  1  0  0  0  0
 12  8  2  0  0  0  0
 13 24  1  1  0  0  0
 13  9  1  0  0  0  0
 13 20  1  0  0  0  0
 14  2  1  0  0  0  0
 15  4  1  0  0  0  0
 15 12  1  0  0  0  0
 17 28  1  6  0  0  0
 17 25  1  0  0  0  0
 18  1  2  0  0  0  0
 18  4  1  0  0  0  0
 19  6  1  1  0  0  0
 19  5  1  0  0  0  0
 19  3  1  0  0  0  0
 20 11  1  6  0  0  0
 20 18  1  0  0  0  0
 22 24  1  0  0  0  0
 23 21  1  0  0  0  0
 25 14  1  6  0  0  0
 25  9  1  0  0  0  0
 26 21  2  0  0  0  0
 27  1  1  0  0  0  0
 29 28  1  0  0  0  0
 31 33  1  0  0  0  0
 32 29  1  1  0  0  0
 32 31  1  0  0  0  0
 32 34  1  0  0  0  0
 33 30  1  0  0  0  0
 34 30  1  0  0  0  0
M  END
>  <MODEL>
5

>  <REMARK>
 VINA RESULT:      -8.4      2.955      8.726
  Name = 
  3 active torsions:
  status: ('A' for Active; 'I' for Inactive)
    1  A    between atoms: C_17  and  O_28
    2  A    between atoms: O_28  and  C_29
    3  A    between atoms: C_29  and  C_32
                            x       y       z     vdW  Elec       q    Type
                         _______ _______ _______ _____ _____    ______ ____

>  <TORSDO>
F 3

$$$$
=
 OpenBabel11112417463D

 34 41  0  0  1  0  0  0  0  0999 V2000
  190.2110  174.8260  144.8900 C   0  0  0  0  0  0  0  0  0  0  0  0
  191.6950  173.2200  143.5960 C   0  0  0  0  0  2  0  0  0  0  0  0
  185.0950  178.8270  145.2780 C   0  0  0  0  0  0  0  0  0  0  0  0
  188.4600  176.0300  146.0220 C   0  0  0  0  0  0  0  0  0  0  0  0
  186.5330  176.8870  144.7920 C   0  0  0  0  0  0  0  0  0  0  0  0
  184.7810  177.9200  143.3150 C   0  0  0  0  0  2  0  0  0  0  0  0
  184.6440  179.2800  143.9110 C   0  0  0  0  0  2  0  0  0  0  0  0
  185.9440  178.4480  147.4990 C   0  0  0  0  0  3  0  0  0  0  0  0
  190.3050  174.7710  142.3670 C   0  0  2  0  0  3  0  0  0  0  0  0
  188.6610  173.2970  140.0010 C   0  0  0  0  0  3  0  0  0  0  0  0
  187.1050  176.3320  143.6320 O   0  0  0  0  0  0  0  0  0  0  0  0
  186.7070  177.3640  147.2770 C   0  0  0  0  0  3  0  0  0  0  0  0
  188.7910  175.0570  142.4080 C   0  0  1  0  0  3  0  0  0  0  0  0
  191.8760  172.9460  142.1120 C   0  0  0  0  0  2  0  0  0  0  0  0
  187.1960  176.8070  145.9790 C   0  0  0  0  0  0  0  0  0  0  0  0
  185.3780  179.3240  146.4650 C   0  0  0  0  0  3  0  0  0  0  0  0
  189.5980  172.7150  141.0290 C   0  0  2  0  0  3  0  0  0  0  0  0
  189.0610  175.6180  144.8320 C   0  0  0  0  0  0  0  0  0  0  0  0
  185.1430  177.4480  144.6870 C   0  0  2  0  0  3  0  0  0  0  0  0
  188.5050  176.0790  143.5140 C   0  0  2  0  0  3  0  0  0  0  0  0
  190.1420  174.8980  147.2510 C   0  0  0  0  0  3  0  0  0  0  0  0
  188.0980  174.5170  140.0380 C   0  0  0  0  0  3  0  0  0  0  0  0
  189.0190  175.6650  147.2100 N   0  0  0  0  0  0  0  0  0  0  0  0
  188.3520  175.5970  141.0570 C   0  0  0  0  0  2  0  0  0  0  0  0
  190.7460  173.6790  141.3820 C   0  0  1  0  0  3  0  0  0  0  0  0
  190.7270  174.4760  146.0970 N   0  0  0  0  0  0  0  0  0  0  0  0
  190.7910  174.3470  143.6700 N   0  0  0  0  0  0  0  0  0  0  0  0
  190.0960  171.5000  140.5450 O   0  0  0  0  0  0  0  0  0  0  0  0
  190.0140  171.6090  139.1540 C   0  0  0  0  0  2  0  0  0  0  0  0
  190.6550  168.2220  139.1870 C   0  0  0  0  0  2  0  0  0  0  0  0
  189.8890  169.6360  137.6460 C   0  0  0  0  0  2  0  0  0  0  0  0
  190.8010  170.4870  138.5000 C   0  0  2  0  0  3  0  0  0  0  0  0
  190.2190  168.2890  137.8570 O   0  0  0  0  0  0  0  0  0  0  0  0
  191.3030  169.5390  139.5460 C   0  0  0  0  0  2  0  0  0  0  0  0
  1 26  1  0  0  0  0
  2 27  1  0  0  0  0
  3 16  2  0  0  0  0
  4 23  2  0  0  0  0
  5 15  2  0  0  0  0
  6  7  1  0  0  0  0
  7  3  1  0  0  0  0
  9 13  1  0  0  0  0
  9 27  1  1  0  0  0
 10 22  2  0  0  0  0
 10 17  1  0  0  0  0
 11  5  1  0  0  0  0
 12  8  2  0  0  0  0
 13 24  1  6  0  0  0
 13 20  1  0  0  0  0
 14  2  1  0  0  0  0
 15  4  1  0  0  0  0
 15 12  1  0  0  0  0
 16  8  1  0  0  0  0
 17 28  1  6  0  0  0
 17 25  1  0  0  0  0
 18  1  2  0  0  0  0
 18  4  1  0  0  0  0
 19  6  1  6  0  0  0
 19  5  1  0  0  0  0
 19  3  1  0  0  0  0
 20 11  1  1  0  0  0
 20 18  1  0  0  0  0
 22 24  1  0  0  0  0
 23 21  1  0  0  0  0
 25 14  1  1  0  0  0
 25  9  1  0  0  0  0
 26 21  2  0  0  0  0
 27  1  1  0  0  0  0
 29 28  1  0  0  0  0
 30 34  1  0  0  0  0
 31 33  1  0  0  0  0
 31 32  1  0  0  0  0
 32 29  1  1  0  0  0
 32 34  1  0  0  0  0
 33 30  1  0  0  0  0
M  END
>  <MODEL>
6

>  <REMARK>
 VINA RESULT:      -8.4      3.363      5.572
  Name = 
  3 active torsions:
  status: ('A' for Active; 'I' for Inactive)
    1  A    between atoms: C_17  and  O_28
    2  A    between atoms: O_28  and  C_29
    3  A    between atoms: C_29  and  C_32
                            x       y       z     vdW  Elec       q    Type
                         _______ _______ _______ _____ _____    ______ ____

>  <TORSDO>
F 3

$$$$
=
 OpenBabel11112417463D

 34 41  0  0  1  0  0  0  0  0999 V2000
  190.4590  173.9010  142.3280 C   0  0  0  0  0  0  0  0  0  0  0  0
  192.7580  172.8700  142.0080 C   0  0  0  0  0  2  0  0  0  0  0  0
  186.1910  177.3920  145.7820 C   0  0  0  0  0  0  0  0  0  0  0  0
  188.5170  175.2920  142.6400 C   0  0  0  0  0  0  0  0  0  0  0  0
  188.2490  176.6300  144.6650 C   0  0  0  0  0  0  0  0  0  0  0  0
  188.0280  177.7120  146.9220 C   0  0  0  0  0  2  0  0  0  0  0  0
  186.5900  177.4700  147.2360 C   0  0  0  0  0  2  0  0  0  0  0  0
  185.2900  177.0390  143.5780 C   0  0  0  0  0  3  0  0  0  0  0  0
  192.0540  173.4770  144.2400 C   0  0  2  0  0  3  0  0  0  0  0  0
  194.3280  175.1680  145.8010 C   0  0  0  0  0  3  0  0  0  0  0  0
  189.4890  176.1190  145.0920 O   0  0  0  0  0  0  0  0  0  0  0  0
  186.4020  176.6580  142.9270 C   0  0  0  0  0  3  0  0  0  0  0  0
  191.5290  174.7990  144.8330 C   0  0  1  0  0  3  0  0  0  0  0  0
  193.9070  172.5840  142.9620 C   0  0  0  0  0  2  0  0  0  0  0  0
  187.7120  176.2050  143.4870 C   0  0  0  0  0  0  0  0  0  0  0  0
  185.1380  177.1290  145.0350 C   0  0  0  0  0  3  0  0  0  0  0  0
  194.3240  174.6330  144.3920 C   0  0  2  0  0  3  0  0  0  0  0  0
  189.6710  174.7020  143.1600 C   0  0  0  0  0  0  0  0  0  0  0  0
  187.6240  177.7240  145.4830 C   0  0  2  0  0  3  0  0  0  0  0  0
  190.0140  174.8810  144.6120 C   0  0  2  0  0  3  0  0  0  0  0  0
  188.9540  174.2730  140.5440 C   0  0  0  0  0  3  0  0  0  0  0  0
  193.2600  175.2920  146.6090 C   0  0  0  0  0  3  0  0  0  0  0  0
  188.1800  175.0590  141.3410 N   0  0  0  0  0  0  0  0  0  0  0  0
  191.8520  174.8390  146.3180 C   0  0  0  0  0  2  0  0  0  0  0  0
  193.5770  173.2910  144.2810 C   0  0  1  0  0  3  0  0  0  0  0  0
  190.0900  173.7060  141.0350 N   0  0  0  0  0  0  0  0  0  0  0  0
  191.6780  173.3490  142.8420 N   0  0  0  0  0  0  0  0  0  0  0  0
  195.6480  174.5060  143.9580 O   0  0  0  0  0  0  0  0  0  0  0  0
  196.4210  174.6710  145.1120 C   0  0  0  0  0  2  0  0  0  0  0  0
  196.8680  171.2530  145.0630 C   0  0  0  0  0  2  0  0  0  0  0  0
  197.6880  172.9380  143.8570 C   0  0  0  0  0  2  0  0  0  0  0  0
  197.4380  173.5500  145.2170 C   0  0  2  0  0  3  0  0  0  0  0  0
  197.7410  171.5440  144.0050 O   0  0  0  0  0  0  0  0  0  0  0  0
  196.8730  172.4200  146.0230 C   0  0  0  0  0  2  0  0  0  0  0  0
  1 27  1  0  0  0  0
  1 18  1  0  0  0  0
  2 27  1  0  0  0  0
  2 14  1  0  0  0  0
  3  7  1  0  0  0  0
  4 18  2  0  0  0  0
  4 15  1  0  0  0  0
  5 11  1  0  0  0  0
  5 19  1  0  0  0  0
  6  7  1  0  0  0  0
  8 16  1  0  0  0  0
  9 27  1  6  0  0  0
  9 25  1  0  0  0  0
  9 13  1  0  0  0  0
 10 22  2  0  0  0  0
 12 15  1  0  0  0  0
 12  8  2  0  0  0  0
 13 24  1  1  0  0  0
 15  5  2  0  0  0  0
 16  3  2  0  0  0  0
 17 28  1  1  0  0  0
 17 10  1  0  0  0  0
 19  3  1  0  0  0  0
 19  6  1  1  0  0  0
 20 18  1  6  0  0  0
 20 13  1  0  0  0  0
 20 11  1  0  0  0  0
 21 26  1  0  0  0  0
 21 23  2  0  0  0  0
 23  4  1  0  0  0  0
 24 22  1  0  0  0  0
 25 14  1  6  0  0  0
 25 17  1  0  0  0  0
 26  1  2  0  0  0  0
 28 29  1  0  0  0  0
 30 34  1  0  0  0  0
 31 33  1  0  0  0  0
 31 32  1  0  0  0  0
 32 29  1  6  0  0  0
 32 34  1  0  0  0  0
 33 30  1  0  0  0  0
M  END
>  <MODEL>
7

>  <REMARK>
 VINA RESULT:      -8.4      2.096      2.777
  Name = 
  3 active torsions:
  status: ('A' for Active; 'I' for Inactive)
    1  A    between atoms: C_17  and  O_28
    2  A    between atoms: O_28  and  C_29
    3  A    between atoms: C_29  and  C_32
                            x       y       z     vdW  Elec       q    Type
                         _______ _______ _______ _____ _____    ______ ____

>  <TORSDO>
F 3

$$$$
=
 OpenBabel11112417463D

 34 41  0  0  1  0  0  0  0  0999 V2000
  190.2190  173.1190  142.4440 C   0  0  0  0  0  0  0  0  0  0  0  0
  188.0470  174.3190  141.9030 C   0  0  0  0  0  2  0  0  0  0  0  0
  196.1320  172.9480  145.1550 C   0  0  0  0  0  0  0  0  0  0  0  0
  192.1500  172.0530  143.4120 C   0  0  0  0  0  0  0  0  0  0  0  0
  193.7270  173.3200  144.7780 C   0  0  0  0  0  0  0  0  0  0  0  0
  195.3660  174.8460  145.9180 C   0  0  0  0  0  2  0  0  0  0  0  0
  196.6680  174.3380  145.3980 C   0  0  0  0  0  2  0  0  0  0  0  0
  195.5250  170.7140  144.4930 C   0  0  0  0  0  3  0  0  0  0  0  0
  189.9930  175.6340  142.4770 C   0  0  2  0  0  3  0  0  0  0  0  0
  189.3110  177.8880  144.6950 C   0  0  0  0  0  3  0  0  0  0  0  0
  192.9100  174.4470  144.5650 O   0  0  0  0  0  0  0  0  0  0  0  0
  194.2020  170.8720  144.3170 C   0  0  0  0  0  3  0  0  0  0  0  0
  190.9420  175.6000  143.6910 C   0  0  1  0  0  3  0  0  0  0  0  0
  187.6410  175.7840  141.9210 C   0  0  0  0  0  2  0  0  0  0  0  0
  193.4150  172.1360  144.1830 C   0  0  0  0  0  0  0  0  0  0  0  0
  196.5070  171.7970  144.6330 C   0  0  0  0  0  3  0  0  0  0  0  0
  188.4210  176.8330  144.0910 C   0  0  2  0  0  3  0  0  0  0  0  0
  191.4460  173.2190  143.1080 C   0  0  0  0  0  0  0  0  0  0  0  0
  194.8550  173.4500  145.7620 C   0  0  2  0  0  3  0  0  0  0  0  0
  192.0390  174.5590  143.4400 C   0  0  2  0  0  3  0  0  0  0  0  0
  190.4410  170.7670  142.3870 C   0  0  0  0  0  3  0  0  0  0  0  0
  190.6530  177.9260  144.6380 C   0  0  0  0  0  3  0  0  0  0  0  0
  191.6330  170.8480  143.0380 N   0  0  0  0  0  0  0  0  0  0  0  0
  191.5510  176.9790  143.8840 C   0  0  0  0  0  2  0  0  0  0  0  0
  188.7700  176.5510  142.6180 C   0  0  1  0  0  3  0  0  0  0  0  0
  189.7370  171.8960  142.1020 N   0  0  0  0  0  0  0  0  0  0  0  0
  189.4640  174.3110  142.1910 N   0  0  0  0  0  0  0  0  0  0  0  0
  187.0890  177.2420  144.2200 O   0  0  0  0  0  0  0  0  0  0  0  0
  186.9350  177.5360  145.5780 C   0  0  0  0  0  2  0  0  0  0  0  0
  184.0670  179.0410  144.3970 C   0  0  0  0  0  2  0  0  0  0  0  0
  184.6930  178.2510  146.3830 C   0  0  0  0  0  2  0  0  0  0  0  0
  185.9870  178.7090  145.7490 C   0  0  2  0  0  3  0  0  0  0  0  0
  183.6300  178.8800  145.7190 O   0  0  0  0  0  0  0  0  0  0  0  0
  185.5670  179.2260  144.4070 C   0  0  0  0  0  2  0  0  0  0  0  0
  1 18  1  0  0  0  0
  2 14  1  0  0  0  0
  2 27  1  0  0  0  0
  3  7  1  0  0  0  0
  3 19  1  0  0  0  0
  4 15  1  0  0  0  0
  5 19  1  0  0  0  0
  7  6  1  0  0  0  0
  8 16  1  0  0  0  0
  9 27  1  1  0  0  0
  9 25  1  0  0  0  0
  9 13  1  0  0  0  0
 11  5  1  0  0  0  0
 12  8  2  0  0  0  0
 13 24  1  6  0  0  0
 15 12  1  0  0  0  0
 15  5  2  0  0  0  0
 16  3  2  0  0  0  0
 17 28  1  6  0  0  0
 17 10  1  0  0  0  0
 18  4  2  0  0  0  0
 19  6  1  6  0  0  0
 20 18  1  1  0  0  0
 20 13  1  0  0  0  0
 20 11  1  0  0  0  0
 21 23  2  0  0  0  0
 22 10  2  0  0  0  0
 23  4  1  0  0  0  0
 24 22  1  0  0  0  0
 25 14  1  1  0  0  0
 25 17  1  0  0  0  0
 26 21  1  0  0  0  0
 26  1  2  0  0  0  0
 27  1  1  0  0  0  0
 28 29  1  0  0  0  0
 30 34  1  0  0  0  0
 30 33  1  0  0  0  0
 32 29  1  6  0  0  0
 32 31  1  0  0  0  0
 33 31  1  0  0  0  0
 34 32  1  0  0  0  0
M  END
>  <MODEL>
8

>  <REMARK>
 VINA RESULT:      -8.2      2.310      8.414
  Name = 
  3 active torsions:
  status: ('A' for Active; 'I' for Inactive)
    1  A    between atoms: C_17  and  O_28
    2  A    between atoms: O_28  and  C_29
    3  A    between atoms: C_29  and  C_32
                            x       y       z     vdW  Elec       q    Type
                         _______ _______ _______ _____ _____    ______ ____

>  <TORSDO>
F 3

$$$$
=
 OpenBabel11112417463D

 34 41  0  0  1  0  0  0  0  0999 V2000
  191.3830  173.5620  142.3790 C   0  0  0  0  0  0  0  0  0  0  0  0
  193.7510  172.6690  142.1630 C   0  0  0  0  0  2  0  0  0  0  0  0
  186.8440  177.0300  145.4960 C   0  0  0  0  0  0  0  0  0  0  0  0
  189.3470  174.8380  142.5590 C   0  0  0  0  0  0  0  0  0  0  0  0
  188.9630  176.3200  144.4610 C   0  0  0  0  0  0  0  0  0  0  0  0
  188.6410  177.5700  146.6170 C   0  0  0  0  0  2  0  0  0  0  0  0
  187.2180  177.2570  146.9400 C   0  0  0  0  0  2  0  0  0  0  0  0
  185.9970  176.4330  143.3230 C   0  0  0  0  0  3  0  0  0  0  0  0
  192.9780  173.4110  144.3310 C   0  0  2  0  0  3  0  0  0  0  0  0
  195.1120  175.3800  145.7590 C   0  0  0  0  0  3  0  0  0  0  0  0
  190.2300  175.9330  144.9390 O   0  0  0  0  0  0  0  0  0  0  0  0
  187.1410  176.0750  142.7140 C   0  0  0  0  0  3  0  0  0  0  0  0
  192.3570  174.7390  144.8060 C   0  0  1  0  0  3  0  0  0  0  0  0
  194.9040  172.5440  143.1460 C   0  0  0  0  0  2  0  0  0  0  0  0
  188.4710  175.7620  143.3200 C   0  0  0  0  0  0  0  0  0  0  0  0
  185.8210  176.6340  144.7670 C   0  0  0  0  0  3  0  0  0  0  0  0
  195.1630  174.7290  144.4000 C   0  0  2  0  0  3  0  0  0  0  0  0
  190.5320  174.3740  143.1350 C   0  0  0  0  0  0  0  0  0  0  0  0
  188.2560  177.4340  145.1790 C   0  0  2  0  0  3  0  0  0  0  0  0
  190.8430  174.6980  144.5680 C   0  0  2  0  0  3  0  0  0  0  0  0
  189.8790  173.6790  140.5600 C   0  0  0  0  0  3  0  0  0  0  0  0
  194.0280  175.4970  146.5460 C   0  0  0  0  0  3  0  0  0  0  0  0
  189.0430  174.4740  141.2820 N   0  0  0  0  0  0  0  0  0  0  0  0
  192.6580  174.9260  146.2850 C   0  0  0  0  0  2  0  0  0  0  0  0
  194.5100  173.3350  144.3980 C   0  0  1  0  0  3  0  0  0  0  0  0
  191.0440  173.2350  141.1040 N   0  0  0  0  0  0  0  0  0  0  0  0
  192.6290  173.1400  142.9460 N   0  0  0  0  0  0  0  0  0  0  0  0
  196.4980  174.6570  143.9880 O   0  0  0  0  0  0  0  0  0  0  0  0
  196.7850  175.9280  143.4820 C   0  0  0  0  0  2  0  0  0  0  0  0
  197.2710  174.0390  140.6390 C   0  0  0  0  0  2  0  0  0  0  0  0
  196.7100  176.1630  141.0070 C   0  0  0  0  0  2  0  0  0  0  0  0
  197.5770  175.8040  142.1930 C   0  0  2  0  0  3  0  0  0  0  0  0
  196.9600  175.2380  139.9830 O   0  0  0  0  0  0  0  0  0  0  0  0
  197.9410  174.3710  141.9520 C   0  0  0  0  0  2  0  0  0  0  0  0
  1 27  1  0  0  0  0
  1 18  1  0  0  0  0
  2 27  1  0  0  0  0
  2 14  1  0  0  0  0
  3  7  1  0  0  0  0
  4 18  2  0  0  0  0
  4 15  1  0  0  0  0
  5 11  1  0  0  0  0
  5 19  1  0  0  0  0
  6  7  1  0  0  0  0
  8 16  1  0  0  0  0
  9 27  1  6  0  0  0
  9 25  1  0  0  0  0
  9 13  1  0  0  0  0
 10 22  2  0  0  0  0
 12 15  1  0  0  0  0
 12  8  2  0  0  0  0
 13 24  1  1  0  0  0
 15  5  2  0  0  0  0
 16  3  2  0  0  0  0
 17 28  1  1  0  0  0
 17 10  1  0  0  0  0
 19  3  1  0  0  0  0
 19  6  1  1  0  0  0
 20 18  1  6  0  0  0
 20 13  1  0  0  0  0
 20 11  1  0  0  0  0
 21 26  1  0  0  0  0
 21 23  2  0  0  0  0
 23  4  1  0  0  0  0
 24 22  1  0  0  0  0
 25 14  1  6  0  0  0
 25 17  1  0  0  0  0
 26  1  2  0  0  0  0
 29 28  1  0  0  0  0
 30 34  1  0  0  0  0
 31 32  1  0  0  0  0
 32 29  1  1  0  0  0
 33 30  1  0  0  0  0
 33 31  1  0  0  0  0
 34 32  1  0  0  0  0
M  END
>  <MODEL>
9

>  <REMARK>
 VINA RESULT:      -8.1      1.909      2.942
  Name = 
  3 active torsions:
  status: ('A' for Active; 'I' for Inactive)
    1  A    between atoms: C_17  and  O_28
    2  A    between atoms: O_28  and  C_29
    3  A    between atoms: C_29  and  C_32
                            x       y       z     vdW  Elec       q    Type
                         _______ _______ _______ _____ _____    ______ ____

>  <TORSDO>
F 3

$$$$
