=
 OpenBabel11112416243D

 30 35  0  0  1  0  0  0  0  0999 V2000
  187.7710  177.3270  145.2490 C   0  0  0  0  0  0  0  0  0  0  0  0
  185.9650  178.1260  146.7720 C   0  0  0  0  0  0  0  0  0  0  0  0
  185.3950  178.1170  141.7880 C   0  0  0  0  0  2  0  0  0  0  0  0
  188.2390  177.1210  143.9280 C   0  0  0  0  0  0  0  0  0  0  0  0
  188.6150  176.9560  146.3490 N   0  0  0  0  0  2  0  0  0  0  0  0
  191.6800  176.3830  144.8620 O   0  0  0  0  0  0  0  0  0  0  0  0
  188.5590  174.7910  142.1690 C   0  0  1  0  0  3  0  0  0  0  0  0
  190.4600  176.3810  144.9010 C   0  0  0  0  0  0  0  0  0  0  0  0
  187.7080  175.5940  141.1810 C   0  0  2  0  0  3  0  0  0  0  0  0
  186.4450  177.8040  140.7180 C   0  0  2  0  0  3  0  0  0  0  0  0
  189.7650  176.0730  146.1890 C   0  0  2  0  0  3  0  0  0  0  0  0
  189.6660  176.6690  143.6530 C   0  0  1  0  0  3  0  0  0  0  0  0
  184.6810  178.6560  146.9320 C   0  0  0  0  0  3  0  0  0  0  0  0
  188.2690  175.2550  139.8170 C   0  0  0  0  0  2  0  0  0  0  0  0
  188.9390  173.5270  141.4120 C   0  0  0  0  0  2  0  0  0  0  0  0
  186.7100  177.8650  147.9170 O   0  0  0  0  0  1  0  0  0  0  0  0
  186.1260  177.9180  143.0640 C   0  0  0  0  0  0  0  0  0  0  0  0
  183.8840  178.9410  145.8250 C   0  0  0  0  0  3  0  0  0  0  0  0
  186.4760  177.8740  145.4730 C   0  0  0  0  0  0  0  0  0  0  0  0
  187.3790  177.4040  142.8590 C   0  0  0  0  0  0  0  0  0  0  0  0
  185.8830  177.0240  139.7040 O   0  0  0  0  0  1  0  0  0  0  0  0
  187.6450  177.1210  141.4220 C   0  0  1  0  0  3  0  0  0  0  0  0
  188.7580  173.8240  139.9300 C   0  0  0  0  0  2  0  0  0  0  0  0
  190.8800  175.3260  142.1440 O   0  0  0  0  0  0  0  0  0  0  0  0
  184.3650  178.6990  144.5400 C   0  0  0  0  0  3  0  0  0  0  0  0
  185.6480  178.1710  144.3520 C   0  0  0  0  0  0  0  0  0  0  0  0
  189.7850  175.5530  142.6390 C   0  0  0  0  0  0  0  0  0  0  0  0
  189.3170  174.6190  146.1940 C   0  0  0  0  0  2  0  0  0  0  0  0
  189.7700  172.5460  144.9230 C   0  0  0  0  0  1  0  0  0  0  0  0
  190.4050  173.7300  145.6220 C   0  0  0  0  0  2  0  0  0  0  0  0
  1 19  1  0  0  0  0
  1  5  1  0  0  0  0
  2 13  1  0  0  0  0
  2 16  1  0  0  0  0
  3 17  1  0  0  0  0
  4  1  2  0  0  0  0
  6  8  2  0  0  0  0
  7 15  1  6  0  0  0
  7 27  1  0  0  0  0
  8 11  1  0  0  0  0
  9 14  1  6  0  0  0
  9 22  1  0  0  0  0
  9  7  1  0  0  0  0
 10 21  1  6  0  0  0
 10 22  1  0  0  0  0
 10  3  1  0  0  0  0
 11 28  1  6  0  0  0
 11  5  1  0  0  0  0
 12 27  1  6  0  0  0
 12  4  1  0  0  0  0
 12  8  1  0  0  0  0
 14 23  1  0  0  0  0
 17 26  1  0  0  0  0
 18 13  2  0  0  0  0
 19  2  2  0  0  0  0
 20 17  2  0  0  0  0
 20  4  1  0  0  0  0
 22 20  1  1  0  0  0
 23 15  1  0  0  0  0
 24 27  2  0  0  0  0
 25 18  1  0  0  0  0
 26 25  2  0  0  0  0
 26 19  1  0  0  0  0
 29 30  1  0  0  0  0
 30 28  1  0  0  0  0
M  END
>  <MODEL>
1

>  <REMARK>
 VINA RESULT:      -8.7      0.000      0.000
  Name = 
  2 active torsions:
  status: ('A' for Active; 'I' for Inactive)
    1  A    between atoms: C_11  and  C_28
    2  A    between atoms: C_28  and  C_30
                            x       y       z     vdW  Elec       q    Type
                         _______ _______ _______ _____ _____    ______ ____

>  <TORSDO>
F 2

$$$$
=
 OpenBabel11112416243D

 30 35  0  0  1  0  0  0  0  0999 V2000
  187.2860  176.4850  144.4350 C   0  0  0  0  0  0  0  0  0  0  0  0
  185.4940  177.9550  145.3580 C   0  0  0  0  0  0  0  0  0  0  0  0
  189.8350  177.2570  147.7750 C   0  0  0  0  0  2  0  0  0  0  0  0
  188.5590  175.8840  144.5880 C   0  0  0  0  0  0  0  0  0  0  0  0
  186.5370  176.2250  143.2390 N   0  0  0  0  0  2  0  0  0  0  0  0
  188.2380  173.6000  141.7720 O   0  0  0  0  0  0  0  0  0  0  0  0
  191.2360  176.3600  143.4800 C   0  0  1  0  0  3  0  0  0  0  0  0
  188.1550  174.6290  142.4240 C   0  0  0  0  0  0  0  0  0  0  0  0
  191.6780  176.4360  144.9440 C   0  0  2  0  0  3  0  0  0  0  0  0
  190.9640  176.2820  147.4260 C   0  0  2  0  0  3  0  0  0  0  0  0
  187.1490  175.6660  142.0380 C   0  0  2  0  0  3  0  0  0  0  0  0
  189.0750  174.8530  143.5960 C   0  0  1  0  0  3  0  0  0  0  0  0
  185.0470  178.8010  146.3760 C   0  0  0  0  0  3  0  0  0  0  0  0
  193.0570  175.8140  144.9690 C   0  0  0  0  0  2  0  0  0  0  0  0
  192.5250  176.4930  142.6810 C   0  0  0  0  0  2  0  0  0  0  0  0
  184.6500  177.7340  144.2760 O   0  0  0  0  0  1  0  0  0  0  0  0
  188.8450  177.0480  146.6890 C   0  0  0  0  0  0  0  0  0  0  0  0
  185.8460  179.0630  147.4880 C   0  0  0  0  0  3  0  0  0  0  0  0
  186.7730  177.3470  145.4450 C   0  0  0  0  0  0  0  0  0  0  0  0
  189.3220  176.2080  145.7170 C   0  0  0  0  0  0  0  0  0  0  0  0
  192.2050  176.9000  147.6020 O   0  0  0  0  0  1  0  0  0  0  0  0
  190.7270  175.7870  145.9770 C   0  0  1  0  0  3  0  0  0  0  0  0
  193.6700  176.1450  143.6220 C   0  0  0  0  0  2  0  0  0  0  0  0
  191.0930  174.1510  142.6010 O   0  0  0  0  0  0  0  0  0  0  0  0
  187.1050  178.4780  147.5940 C   0  0  0  0  0  3  0  0  0  0  0  0
  187.5760  177.6250  146.5890 C   0  0  0  0  0  0  0  0  0  0  0  0
  190.5060  175.0690  143.1560 C   0  0  0  0  0  0  0  0  0  0  0  0
  187.8300  176.7650  141.2340 C   0  0  0  0  0  2  0  0  0  0  0  0
  185.8890  177.8120  140.1150 C   0  0  0  0  0  1  0  0  0  0  0  0
  186.9510  177.9990  141.1780 C   0  0  0  0  0  2  0  0  0  0  0  0
  1  4  2  0  0  0  0
  1 19  1  0  0  0  0
  2 19  2  0  0  0  0
  2 13  1  0  0  0  0
  4 20  1  0  0  0  0
  5  1  1  0  0  0  0
  6  8  2  0  0  0  0
  7 15  1  6  0  0  0
  7  9  1  0  0  0  0
  9 14  1  6  0  0  0
  9 22  1  0  0  0  0
 10 21  1  6  0  0  0
 10  3  1  0  0  0  0
 11 28  1  1  0  0  0
 11  8  1  0  0  0  0
 11  5  1  0  0  0  0
 12  8  1  6  0  0  0
 12  4  1  0  0  0  0
 13 18  2  0  0  0  0
 15 23  1  0  0  0  0
 16  2  1  0  0  0  0
 17  3  1  0  0  0  0
 18 25  1  0  0  0  0
 19 26  1  0  0  0  0
 20 17  2  0  0  0  0
 22 20  1  6  0  0  0
 22 10  1  0  0  0  0
 23 14  1  0  0  0  0
 24 27  2  0  0  0  0
 26 17  1  0  0  0  0
 26 25  2  0  0  0  0
 27  7  1  0  0  0  0
 27 12  1  0  0  0  0
 29 30  1  0  0  0  0
 30 28  1  0  0  0  0
M  END
>  <MODEL>
2

>  <REMARK>
 VINA RESULT:      -8.6      2.005      4.980
  Name = 
  2 active torsions:
  status: ('A' for Active; 'I' for Inactive)
    1  A    between atoms: C_11  and  C_28
    2  A    between atoms: C_28  and  C_30
                            x       y       z     vdW  Elec       q    Type
                         _______ _______ _______ _____ _____    ______ ____

>  <TORSDO>
F 2

$$$$
=
 OpenBabel11112416243D

 30 35  0  0  1  0  0  0  0  0999 V2000
  189.0350  177.1310  145.5370 C   0  0  0  0  0  0  0  0  0  0  0  0
  186.9520  177.9030  146.6700 C   0  0  0  0  0  0  0  0  0  0  0  0
  186.9160  176.2400  141.9360 C   0  0  0  0  0  2  0  0  0  0  0  0
  189.6710  176.6500  144.3660 C   0  0  0  0  0  0  0  0  0  0  0  0
  189.8210  177.3240  146.7220 N   0  0  0  0  0  2  0  0  0  0  0  0
  193.0750  177.0720  145.5880 O   0  0  0  0  0  0  0  0  0  0  0  0
  190.6670  174.0410  143.4560 C   0  0  1  0  0  3  0  0  0  0  0  0
  191.8860  176.7920  145.5910 C   0  0  0  0  0  0  0  0  0  0  0  0
  189.7700  174.2790  142.2380 C   0  0  2  0  0  3  0  0  0  0  0  0
  188.1140  175.8760  141.0540 C   0  0  2  0  0  3  0  0  0  0  0  0
  191.1450  176.7350  146.8880 C   0  0  2  0  0  3  0  0  0  0  0  0
  191.1820  176.4880  144.2930 C   0  0  1  0  0  3  0  0  0  0  0  0
  185.5740  178.1350  146.6130 C   0  0  0  0  0  3  0  0  0  0  0  0
  190.5290  173.6840  141.0720 C   0  0  0  0  0  2  0  0  0  0  0  0
  191.3870  172.7350  143.1560 C   0  0  0  0  0  2  0  0  0  0  0  0
  187.6120  178.1880  147.8590 O   0  0  0  0  0  1  0  0  0  0  0  0
  187.5360  176.6190  143.2300 C   0  0  0  0  0  0  0  0  0  0  0  0
  184.8530  177.8710  145.4500 C   0  0  0  0  0  3  0  0  0  0  0  0
  187.6360  177.3960  145.5360 C   0  0  0  0  0  0  0  0  0  0  0  0
  188.8860  176.3810  143.2380 C   0  0  0  0  0  0  0  0  0  0  0  0
  187.8420  174.7140  140.3280 O   0  0  0  0  0  1  0  0  0  0  0  0
  189.3530  175.7450  141.9750 C   0  0  1  0  0  3  0  0  0  0  0  0
  191.3010  172.5140  141.6520 C   0  0  0  0  0  2  0  0  0  0  0  0
  192.8070  175.0780  143.3300 O   0  0  0  0  0  0  0  0  0  0  0  0
  185.5060  177.3710  144.3260 C   0  0  0  0  0  3  0  0  0  0  0  0
  186.8850  177.1320  144.3540 C   0  0  0  0  0  0  0  0  0  0  0  0
  191.6440  175.1790  143.6940 C   0  0  0  0  0  0  0  0  0  0  0  0
  191.0240  175.2890  147.3450 C   0  0  0  0  0  2  0  0  0  0  0  0
  189.2460  173.7660  146.5480 C   0  0  0  0  0  1  0  0  0  0  0  0
  189.5640  174.9030  147.4950 C   0  0  0  0  0  2  0  0  0  0  0  0
  1  5  1  0  0  0  0
  2 16  1  0  0  0  0
  3 17  1  0  0  0  0
  4  1  2  0  0  0  0
  5 11  1  0  0  0  0
  6  8  2  0  0  0  0
  7 15  1  6  0  0  0
  7 27  1  0  0  0  0
  8 11  1  0  0  0  0
  9 14  1  6  0  0  0
  9  7  1  0  0  0  0
 10 21  1  1  0  0  0
 10  3  1  0  0  0  0
 10 22  1  0  0  0  0
 11 28  1  6  0  0  0
 12 27  1  1  0  0  0
 12  4  1  0  0  0  0
 12  8  1  0  0  0  0
 13  2  1  0  0  0  0
 14 23  1  0  0  0  0
 17 20  2  0  0  0  0
 17 26  1  0  0  0  0
 18 13  2  0  0  0  0
 19  1  1  0  0  0  0
 19  2  2  0  0  0  0
 20  4  1  0  0  0  0
 22  9  1  0  0  0  0
 22 20  1  1  0  0  0
 23 15  1  0  0  0  0
 24 27  2  0  0  0  0
 25 26  2  0  0  0  0
 25 18  1  0  0  0  0
 26 19  1  0  0  0  0
 28 30  1  0  0  0  0
 29 30  1  0  0  0  0
M  END
>  <MODEL>
3

>  <REMARK>
 VINA RESULT:      -7.7      1.523      2.100
  Name = 
  2 active torsions:
  status: ('A' for Active; 'I' for Inactive)
    1  A    between atoms: C_11  and  C_28
    2  A    between atoms: C_28  and  C_30
                            x       y       z     vdW  Elec       q    Type
                         _______ _______ _______ _____ _____    ______ ____

>  <TORSDO>
F 2

$$$$
=
 OpenBabel11112416243D

 30 35  0  0  1  0  0  0  0  0999 V2000
  187.9520  175.5000  143.5170 C   0  0  0  0  0  0  0  0  0  0  0  0
  186.2330  177.2720  143.1640 C   0  0  0  0  0  0  0  0  0  0  0  0
  189.3420  177.3650  147.1000 C   0  0  0  0  0  2  0  0  0  0  0  0
  188.9810  174.9540  144.3220 C   0  0  0  0  0  0  0  0  0  0  0  0
  187.6090  174.8420  142.2890 N   0  0  0  0  0  2  0  0  0  0  0  0
  189.2290  171.7980  142.5220 O   0  0  0  0  0  0  0  0  0  0  0  0
  191.9140  174.8840  144.1940 C   0  0  1  0  0  3  0  0  0  0  0  0
  189.1100  172.9980  142.7140 C   0  0  0  0  0  0  0  0  0  0  0  0
  191.8510  175.4840  145.6020 C   0  0  2  0  0  3  0  0  0  0  0  0
  190.3400  176.2910  147.5400 C   0  0  2  0  0  3  0  0  0  0  0  0
  188.4810  173.8540  141.6620 C   0  0  2  0  0  3  0  0  0  0  0  0
  189.6140  173.6090  143.9960 C   0  0  1  0  0  3  0  0  0  0  0  0
  185.6240  178.4530  143.5990 C   0  0  0  0  0  3  0  0  0  0  0  0
  193.0170  174.8660  146.3420 C   0  0  0  0  0  2  0  0  0  0  0  0
  193.3970  174.6630  143.9350 C   0  0  0  0  0  2  0  0  0  0  0  0
  185.7700  176.6960  141.9860 O   0  0  0  0  0  1  0  0  0  0  0  0
  188.7470  176.8040  145.8620 C   0  0  0  0  0  0  0  0  0  0  0  0
  186.0400  179.0800  144.7720 C   0  0  0  0  0  3  0  0  0  0  0  0
  187.2870  176.6940  143.9160 C   0  0  0  0  0  0  0  0  0  0  0  0
  189.3700  175.6460  145.4760 C   0  0  0  0  0  0  0  0  0  0  0  0
  191.5380  176.8830  147.9470 O   0  0  0  0  0  1  0  0  0  0  0  0
  190.5160  175.3010  146.3610 C   0  0  1  0  0  3  0  0  0  0  0  0
  194.0890  174.6490  145.2910 C   0  0  0  0  0  2  0  0  0  0  0  0
  191.6980  172.5140  144.1160 O   0  0  0  0  0  0  0  0  0  0  0  0
  187.0750  178.5310  145.5250 C   0  0  0  0  0  3  0  0  0  0  0  0
  187.7010  177.3480  145.1120 C   0  0  0  0  0  0  0  0  0  0  0  0
  191.1240  173.5930  144.0730 C   0  0  0  0  0  0  0  0  0  0  0  0
  189.5650  174.5480  140.8510 C   0  0  0  0  0  2  0  0  0  0  0  0
  191.8250  173.6640  140.3730 C   0  0  0  0  0  1  0  0  0  0  0  0
  190.3530  173.5330  140.0440 C   0  0  0  0  0  2  0  0  0  0  0  0
  1 19  2  0  0  0  0
  1  4  1  0  0  0  0
  2 13  2  0  0  0  0
  2 19  1  0  0  0  0
  3 10  1  0  0  0  0
  4 20  2  0  0  0  0
  5  1  1  0  0  0  0
  6  8  2  0  0  0  0
  7 15  1  1  0  0  0
  7  9  1  0  0  0  0
  9 14  1  1  0  0  0
  9 22  1  0  0  0  0
 10 21  1  6  0  0  0
 11 28  1  1  0  0  0
 11  5  1  0  0  0  0
 11  8  1  0  0  0  0
 12  8  1  6  0  0  0
 12 27  1  0  0  0  0
 12  4  1  0  0  0  0
 13 18  1  0  0  0  0
 15 23  1  0  0  0  0
 16  2  1  0  0  0  0
 17  3  1  0  0  0  0
 18 25  2  0  0  0  0
 19 26  1  0  0  0  0
 20 17  1  0  0  0  0
 22 20  1  6  0  0  0
 22 10  1  0  0  0  0
 23 14  1  0  0  0  0
 26 25  1  0  0  0  0
 26 17  2  0  0  0  0
 27 24  2  0  0  0  0
 27  7  1  0  0  0  0
 30 29  1  0  0  0  0
 30 28  1  0  0  0  0
M  END
>  <MODEL>
4

>  <REMARK>
 VINA RESULT:      -7.6      2.227      5.135
  Name = 
  2 active torsions:
  status: ('A' for Active; 'I' for Inactive)
    1  A    between atoms: C_11  and  C_28
    2  A    between atoms: C_28  and  C_30
                            x       y       z     vdW  Elec       q    Type
                         _______ _______ _______ _____ _____    ______ ____

>  <TORSDO>
F 2

$$$$
=
 OpenBabel11112416243D

 30 35  0  0  1  0  0  0  0  0999 V2000
  187.9290  177.2740  143.6260 C   0  0  0  0  0  0  0  0  0  0  0  0
  185.9940  178.4770  142.6110 C   0  0  0  0  0  0  0  0  0  0  0  0
  188.4650  174.8890  140.1230 C   0  0  0  0  0  2  0  0  0  0  0  0
  188.9680  176.3220  143.4930 C   0  0  0  0  0  0  0  0  0  0  0  0
  187.7820  177.9700  144.8720 N   0  0  0  0  0  2  0  0  0  0  0  0
  190.7020  177.2280  146.5630 O   0  0  0  0  0  0  0  0  0  0  0  0
  189.4130  173.5760  144.4340 C   0  0  1  0  0  3  0  0  0  0  0  0
  189.7800  176.9820  145.8010 C   0  0  0  0  0  0  0  0  0  0  0  0
  189.6410  173.2530  142.9550 C   0  0  2  0  0  3  0  0  0  0  0  0
  189.7500  174.1660  140.5370 C   0  0  2  0  0  3  0  0  0  0  0  0
  188.4140  177.5100  146.1040 C   0  0  2  0  0  3  0  0  0  0  0  0
  190.0200  176.1380  144.5760 C   0  0  1  0  0  3  0  0  0  0  0  0
  185.1400  178.6650  141.5200 C   0  0  0  0  0  3  0  0  0  0  0  0
  190.7270  172.2000  142.9470 C   0  0  0  0  0  2  0  0  0  0  0  0
  189.6920  172.2690  145.1620 C   0  0  0  0  0  2  0  0  0  0  0  0
  185.7860  179.2570  143.7430 O   0  0  0  0  0  1  0  0  0  0  0  0
  188.1920  175.8000  141.2620 C   0  0  0  0  0  0  0  0  0  0  0  0
  185.2960  177.9170  140.3550 C   0  0  0  0  0  3  0  0  0  0  0  0
  187.0360  177.5170  142.5440 C   0  0  0  0  0  0  0  0  0  0  0  0
  189.0550  175.5840  142.3050 C   0  0  0  0  0  0  0  0  0  0  0  0
  189.6530  172.8040  140.2420 O   0  0  0  0  0  1  0  0  0  0  0  0
  189.9860  174.4530  142.0410 C   0  0  1  0  0  3  0  0  0  0  0  0
  190.5230  171.4050  144.2230 C   0  0  0  0  0  2  0  0  0  0  0  0
  191.3220  174.4410  145.5660 O   0  0  0  0  0  0  0  0  0  0  0  0
  186.3110  176.9670  140.2680 C   0  0  0  0  0  3  0  0  0  0  0  0
  187.1810  176.7600  141.3450 C   0  0  0  0  0  0  0  0  0  0  0  0
  190.3080  174.6970  144.9320 C   0  0  0  0  0  0  0  0  0  0  0  0
  187.5750  176.4160  146.7490 C   0  0  0  0  0  2  0  0  0  0  0  0
  185.1420  176.7910  146.5080 C   0  0  0  0  0  1  0  0  0  0  0  0
  186.3430  177.0130  147.4030 C   0  0  0  0  0  2  0  0  0  0  0  0
  1  5  1  0  0  0  0
  2 16  1  0  0  0  0
  3 10  1  0  0  0  0
  3 17  1  0  0  0  0
  4  1  1  0  0  0  0
  5 11  1  0  0  0  0
  7 27  1  0  0  0  0
  7 15  1  1  0  0  0
  8 11  1  0  0  0  0
  8  6  2  0  0  0  0
  9 14  1  1  0  0  0
  9  7  1  0  0  0  0
 10 21  1  1  0  0  0
 10 22  1  0  0  0  0
 11 28  1  6  0  0  0
 12  4  1  6  0  0  0
 12 27  1  0  0  0  0
 12  8  1  0  0  0  0
 13  2  2  0  0  0  0
 14 23  1  0  0  0  0
 17 26  2  0  0  0  0
 17 20  1  0  0  0  0
 18 13  1  0  0  0  0
 19  2  1  0  0  0  0
 19  1  2  0  0  0  0
 20  4  2  0  0  0  0
 22 20  1  1  0  0  0
 22  9  1  0  0  0  0
 23 15  1  0  0  0  0
 25 18  2  0  0  0  0
 25 26  1  0  0  0  0
 26 19  1  0  0  0  0
 27 24  2  0  0  0  0
 28 30  1  0  0  0  0
 29 30  1  0  0  0  0
M  END
>  <MODEL>
5

>  <REMARK>
 VINA RESULT:      -7.5      1.830      3.932
  Name = 
  2 active torsions:
  status: ('A' for Active; 'I' for Inactive)
    1  A    between atoms: C_11  and  C_28
    2  A    between atoms: C_28  and  C_30
                            x       y       z     vdW  Elec       q    Type
                         _______ _______ _______ _____ _____    ______ ____

>  <TORSDO>
F 2

$$$$
=
 OpenBabel11112416243D

 30 35  0  0  1  0  0  0  0  0999 V2000
  189.5720  174.5180  141.4520 C   0  0  0  0  0  0  0  0  0  0  0  0
  189.2900  172.6750  139.7940 C   0  0  0  0  0  0  0  0  0  0  0  0
  192.9150  172.5690  143.2610 C   0  0  0  0  0  2  0  0  0  0  0  0
  190.3060  175.0810  142.5240 C   0  0  0  0  0  0  0  0  0  0  0  0
  188.4150  175.2120  140.9640 N   0  0  0  0  0  2  0  0  0  0  0  0
  188.6510  178.3230  142.4480 O   0  0  0  0  0  0  0  0  0  0  0  0
  189.9130  175.3110  145.4250 C   0  0  1  0  0  3  0  0  0  0  0  0
  188.7920  177.1110  142.4070 C   0  0  0  0  0  0  0  0  0  0  0  0
  191.2890  174.6460  145.5250 C   0  0  2  0  0  3  0  0  0  0  0  0
  193.3150  173.6740  144.2430 C   0  0  2  0  0  3  0  0  0  0  0  0
  187.7610  176.2720  141.7230 C   0  0  2  0  0  3  0  0  0  0  0  0
  189.9910  176.4710  143.0580 C   0  0  1  0  0  3  0  0  0  0  0  0
  189.7200  171.4460  139.2870 C   0  0  0  0  0  3  0  0  0  0  0  0
  191.9490  175.2900  146.7240 C   0  0  0  0  0  2  0  0  0  0  0  0
  189.5300  175.6220  146.8650 C   0  0  0  0  0  2  0  0  0  0  0  0
  188.1900  173.2790  139.1950 O   0  0  0  0  0  1  0  0  0  0  0  0
  191.7660  173.1530  142.5260 C   0  0  0  0  0  0  0  0  0  0  0  0
  190.8170  170.7890  139.8420 C   0  0  0  0  0  3  0  0  0  0  0  0
  189.9700  173.2730  140.8860 C   0  0  0  0  0  0  0  0  0  0  0  0
  191.3830  174.3590  143.0530 C   0  0  0  0  0  0  0  0  0  0  0  0
  193.5800  173.1270  145.5020 O   0  0  0  0  0  1  0  0  0  0  0  0
  192.1760  174.7230  144.2600 C   0  0  1  0  0  3  0  0  0  0  0  0
  190.8160  175.6110  147.6800 C   0  0  0  0  0  2  0  0  0  0  0  0
  189.9730  177.6680  145.0880 O   0  0  0  0  0  0  0  0  0  0  0  0
  191.4980  171.3580  140.9150 C   0  0  0  0  0  3  0  0  0  0  0  0
  191.0900  172.5890  141.4410 C   0  0  0  0  0  0  0  0  0  0  0  0
  189.9300  176.5630  144.5660 C   0  0  0  0  0  0  0  0  0  0  0  0
  186.8200  175.6730  142.7590 C   0  0  0  0  0  2  0  0  0  0  0  0
  186.1470  176.7910  144.8600 C   0  0  0  0  0  1  0  0  0  0  0  0
  185.9410  176.7530  143.3610 C   0  0  0  0  0  2  0  0  0  0  0  0
  1  4  1  0  0  0  0
  2 19  1  0  0  0  0
  3 10  1  0  0  0  0
  4 20  2  0  0  0  0
  4 12  1  0  0  0  0
  5  1  1  0  0  0  0
  5 11  1  0  0  0  0
  7  9  1  0  0  0  0
  7 15  1  1  0  0  0
  8  6  2  0  0  0  0
  9 14  1  1  0  0  0
 10 22  1  0  0  0  0
 10 21  1  1  0  0  0
 11  8  1  0  0  0  0
 11 28  1  1  0  0  0
 12  8  1  6  0  0  0
 12 27  1  0  0  0  0
 13  2  2  0  0  0  0
 13 18  1  0  0  0  0
 14 23  1  0  0  0  0
 15 23  1  0  0  0  0
 16  2  1  0  0  0  0
 17 20  1  0  0  0  0
 17  3  1  0  0  0  0
 18 25  2  0  0  0  0
 19 26  1  0  0  0  0
 19  1  2  0  0  0  0
 22 20  1  6  0  0  0
 22  9  1  0  0  0  0
 25 26  1  0  0  0  0
 26 17  2  0  0  0  0
 27 24  2  0  0  0  0
 27  7  1  0  0  0  0
 28 30  1  0  0  0  0
 30 29  1  0  0  0  0
M  END
>  <MODEL>
6

>  <REMARK>
 VINA RESULT:      -7.5      2.536      7.162
  Name = 
  2 active torsions:
  status: ('A' for Active; 'I' for Inactive)
    1  A    between atoms: C_11  and  C_28
    2  A    between atoms: C_28  and  C_30
                            x       y       z     vdW  Elec       q    Type
                         _______ _______ _______ _____ _____    ______ ____

>  <TORSDO>
F 2

$$$$
=
 OpenBabel11112416243D

 30 35  0  0  1  0  0  0  0  0999 V2000
  188.2910  175.3520  142.5710 C   0  0  0  0  0  0  0  0  0  0  0  0
  186.7960  177.0800  141.5710 C   0  0  0  0  0  0  0  0  0  0  0  0
  188.6100  177.5380  146.2270 C   0  0  0  0  0  2  0  0  0  0  0  0
  189.0240  174.8830  143.6890 C   0  0  0  0  0  0  0  0  0  0  0  0
  188.3100  174.5830  141.3600 N   0  0  0  0  0  2  0  0  0  0  0  0
  189.7130  171.5780  142.3270 O   0  0  0  0  0  0  0  0  0  0  0  0
  191.8620  174.8090  144.4400 C   0  0  1  0  0  3  0  0  0  0  0  0
  189.5730  172.7900  142.3690 C   0  0  0  0  0  0  0  0  0  0  0  0
  191.4020  175.5350  145.7080 C   0  0  2  0  0  3  0  0  0  0  0  0
  189.4080  176.5110  147.0350 C   0  0  2  0  0  3  0  0  0  0  0  0
  189.3020  173.5450  141.1060 C   0  0  2  0  0  3  0  0  0  0  0  0
  189.6920  173.5160  143.6840 C   0  0  1  0  0  3  0  0  0  0  0  0
  186.1150  178.2940  141.7030 C   0  0  0  0  0  3  0  0  0  0  0  0
  192.2830  174.9900  146.8110 C   0  0  0  0  0  2  0  0  0  0  0  0
  193.3500  174.5690  144.6500 C   0  0  0  0  0  2  0  0  0  0  0  0
  186.6870  176.3980  140.3650 O   0  0  0  0  0  1  0  0  0  0  0  0
  188.3920  176.8660  144.9220 C   0  0  0  0  0  0  0  0  0  0  0  0
  186.1830  179.0260  142.8860 C   0  0  0  0  0  3  0  0  0  0  0  0
  187.5690  176.5760  142.6490 C   0  0  0  0  0  0  0  0  0  0  0  0
  189.0730  175.6790  144.8410 C   0  0  0  0  0  0  0  0  0  0  0  0
  190.4470  177.1410  147.7240 O   0  0  0  0  0  1  0  0  0  0  0  0
  189.8990  175.4190  146.0520 C   0  0  1  0  0  3  0  0  0  0  0  0
  193.6110  174.6800  146.1470 C   0  0  0  0  0  2  0  0  0  0  0  0
  191.6200  172.4410  144.5090 O   0  0  0  0  0  0  0  0  0  0  0  0
  186.9370  178.5500  143.9560 C   0  0  0  0  0  3  0  0  0  0  0  0
  187.6270  177.3370  143.8530 C   0  0  0  0  0  0  0  0  0  0  0  0
  191.1120  173.5110  144.2050 C   0  0  0  0  0  0  0  0  0  0  0  0
  190.5940  174.1650  140.5950 C   0  0  0  0  0  2  0  0  0  0  0  0
  192.8790  173.2620  140.8780 C   0  0  0  0  0  1  0  0  0  0  0  0
  191.5610  173.0830  140.1540 C   0  0  0  0  0  2  0  0  0  0  0  0
  1 19  2  0  0  0  0
  1  4  1  0  0  0  0
  2 13  2  0  0  0  0
  2 19  1  0  0  0  0
  3 10  1  0  0  0  0
  4 20  2  0  0  0  0
  5  1  1  0  0  0  0
  6  8  2  0  0  0  0
  7 15  1  1  0  0  0
  7  9  1  0  0  0  0
  9 22  1  0  0  0  0
  9 14  1  1  0  0  0
 10 21  1  6  0  0  0
 11 28  1  1  0  0  0
 11  5  1  0  0  0  0
 11  8  1  0  0  0  0
 12  8  1  6  0  0  0
 12  4  1  0  0  0  0
 12 27  1  0  0  0  0
 13 18  1  0  0  0  0
 15 23  1  0  0  0  0
 16  2  1  0  0  0  0
 17  3  1  0  0  0  0
 18 25  2  0  0  0  0
 19 26  1  0  0  0  0
 20 17  1  0  0  0  0
 22 20  1  6  0  0  0
 22 10  1  0  0  0  0
 23 14  1  0  0  0  0
 26 25  1  0  0  0  0
 26 17  2  0  0  0  0
 27  7  1  0  0  0  0
 27 24  2  0  0  0  0
 30 28  1  0  0  0  0
 30 29  1  0  0  0  0
M  END
>  <MODEL>
7

>  <REMARK>
 VINA RESULT:      -7.5      2.290      5.279
  Name = 
  2 active torsions:
  status: ('A' for Active; 'I' for Inactive)
    1  A    between atoms: C_11  and  C_28
    2  A    between atoms: C_28  and  C_30
                            x       y       z     vdW  Elec       q    Type
                         _______ _______ _______ _____ _____    ______ ____

>  <TORSDO>
F 2

$$$$
=
 OpenBabel11112416243D

 30 35  0  0  1  0  0  0  0  0999 V2000
  188.6670  175.3260  144.0090 C   0  0  0  0  0  0  0  0  0  0  0  0
  186.6630  176.7420  143.5610 C   0  0  0  0  0  0  0  0  0  0  0  0
  189.6560  177.5800  147.5000 C   0  0  0  0  0  2  0  0  0  0  0  0
  189.7670  175.0120  144.8440 C   0  0  0  0  0  0  0  0  0  0  0  0
  188.4640  174.5590  142.8140 N   0  0  0  0  0  2  0  0  0  0  0  0
  190.5980  171.8700  143.2040 O   0  0  0  0  0  0  0  0  0  0  0  0
  192.6670  175.4640  144.7310 C   0  0  1  0  0  3  0  0  0  0  0  0
  190.2650  173.0370  143.3360 C   0  0  0  0  0  0  0  0  0  0  0  0
  192.4800  176.1100  146.1070 C   0  0  2  0  0  3  0  0  0  0  0  0
  190.8240  176.7250  147.9980 C   0  0  2  0  0  3  0  0  0  0  0  0
  189.5060  173.7140  142.2390 C   0  0  2  0  0  3  0  0  0  0  0  0
  190.6350  173.7890  144.5880 C   0  0  1  0  0  3  0  0  0  0  0  0
  185.8480  177.8140  143.9350 C   0  0  0  0  0  3  0  0  0  0  0  0
  193.7280  175.7470  146.8820 C   0  0  0  0  0  2  0  0  0  0  0  0
  194.1690  175.5000  144.4890 C   0  0  0  0  0  2  0  0  0  0  0  0
  186.3260  176.0360  142.4120 O   0  0  0  0  0  1  0  0  0  0  0  0
  189.1860  176.8630  146.2890 C   0  0  0  0  0  0  0  0  0  0  0  0
  186.1300  178.5610  145.0770 C   0  0  0  0  0  3  0  0  0  0  0  0
  187.7950  176.4000  144.3450 C   0  0  0  0  0  0  0  0  0  0  0  0
  190.0110  175.8180  145.9640 C   0  0  0  0  0  0  0  0  0  0  0  0
  191.8920  177.5420  148.3790 O   0  0  0  0  0  1  0  0  0  0  0  0
  191.1890  175.7270  146.8700 C   0  0  1  0  0  3  0  0  0  0  0  0
  194.8350  175.6750  145.8470 C   0  0  0  0  0  2  0  0  0  0  0  0
  192.8790  173.0920  144.7690 O   0  0  0  0  0  0  0  0  0  0  0  0
  187.2370  178.2430  145.8610 C   0  0  0  0  0  3  0  0  0  0  0  0
  188.0690  177.1740  145.5100 C   0  0  0  0  0  0  0  0  0  0  0  0
  192.1230  174.0480  144.6720 C   0  0  0  0  0  0  0  0  0  0  0  0
  190.4590  174.5520  141.3990 C   0  0  0  0  0  2  0  0  0  0  0  0
  192.8640  174.1620  140.9760 C   0  0  0  0  0  1  0  0  0  0  0  0
  191.4630  173.6610  140.6940 C   0  0  0  0  0  2  0  0  0  0  0  0
  1 19  2  0  0  0  0
  1  4  1  0  0  0  0
  2 13  2  0  0  0  0
  2 19  1  0  0  0  0
  3 10  1  0  0  0  0
  4 20  2  0  0  0  0
  5  1  1  0  0  0  0
  6  8  2  0  0  0  0
  7 15  1  1  0  0  0
  7  9  1  0  0  0  0
  9 22  1  0  0  0  0
  9 14  1  1  0  0  0
 10 21  1  6  0  0  0
 11 28  1  1  0  0  0
 11  5  1  0  0  0  0
 11  8  1  0  0  0  0
 12  8  1  6  0  0  0
 12 27  1  0  0  0  0
 12  4  1  0  0  0  0
 13 18  1  0  0  0  0
 15 23  1  0  0  0  0
 16  2  1  0  0  0  0
 17  3  1  0  0  0  0
 18 25  2  0  0  0  0
 19 26  1  0  0  0  0
 20 17  1  0  0  0  0
 22 20  1  6  0  0  0
 22 10  1  0  0  0  0
 23 14  1  0  0  0  0
 26 25  1  0  0  0  0
 26 17  2  0  0  0  0
 27  7  1  0  0  0  0
 27 24  2  0  0  0  0
 30 29  1  0  0  0  0
 30 28  1  0  0  0  0
M  END
>  <MODEL>
8

>  <REMARK>
 VINA RESULT:      -7.4      2.469      5.419
  Name = 
  2 active torsions:
  status: ('A' for Active; 'I' for Inactive)
    1  A    between atoms: C_11  and  C_28
    2  A    between atoms: C_28  and  C_30
                            x       y       z     vdW  Elec       q    Type
                         _______ _______ _______ _____ _____    ______ ____

>  <TORSDO>
F 2

$$$$
=
 OpenBabel11112416243D

 30 35  0  0  1  0  0  0  0  0999 V2000
  190.5590  176.4090  144.9300 C   0  0  0  0  0  0  0  0  0  0  0  0
  188.8790  177.3020  146.5430 C   0  0  0  0  0  0  0  0  0  0  0  0
  187.5010  175.1290  142.2360 C   0  0  0  0  0  2  0  0  0  0  0  0
  190.8360  175.8020  143.6810 C   0  0  0  0  0  0  0  0  0  0  0  0
  191.6530  176.7310  145.8010 N   0  0  0  0  0  2  0  0  0  0  0  0
  194.4330  176.3540  143.7850 O   0  0  0  0  0  0  0  0  0  0  0  0
  191.6020  173.1090  142.7960 C   0  0  1  0  0  3  0  0  0  0  0  0
  193.3080  176.0760  144.1700 C   0  0  0  0  0  0  0  0  0  0  0  0
  190.3780  173.2110  141.8810 C   0  0  2  0  0  3  0  0  0  0  0  0
  188.3960  174.6690  141.0810 C   0  0  2  0  0  3  0  0  0  0  0  0
  192.9850  176.1630  145.6270 C   0  0  2  0  0  3  0  0  0  0  0  0
  192.2630  175.6320  143.1790 C   0  0  1  0  0  3  0  0  0  0  0  0
  187.5400  177.5260  146.8740 C   0  0  0  0  0  3  0  0  0  0  0  0
  190.7780  172.4920  140.6110 C   0  0  0  0  0  2  0  0  0  0  0  0
  192.2430  171.7770  142.4340 C   0  0  0  0  0  2  0  0  0  0  0  0
  189.8520  177.7150  147.4460 O   0  0  0  0  0  1  0  0  0  0  0  0
  188.4630  175.6470  143.2400 C   0  0  0  0  0  0  0  0  0  0  0  0
  186.5170  177.1370  146.0120 C   0  0  0  0  0  3  0  0  0  0  0  0
  189.2150  176.6720  145.3170 C   0  0  0  0  0  0  0  0  0  0  0  0
  189.7620  175.4110  142.8710 C   0  0  0  0  0  0  0  0  0  0  0  0
  187.9590  173.4340  140.5950 O   0  0  0  0  0  1  0  0  0  0  0  0
  189.8550  174.6400  141.6010 C   0  0  1  0  0  3  0  0  0  0  0  0
  191.7240  171.3920  141.0550 C   0  0  0  0  0  2  0  0  0  0  0  0
  193.5750  174.1240  141.9310 O   0  0  0  0  0  0  0  0  0  0  0  0
  186.8230  176.5160  144.8040 C   0  0  0  0  0  3  0  0  0  0  0  0
  188.1560  176.2810  144.4460 C   0  0  0  0  0  0  0  0  0  0  0  0
  192.5680  174.2650  142.6110 C   0  0  0  0  0  0  0  0  0  0  0  0
  193.0510  174.7760  146.2490 C   0  0  0  0  0  2  0  0  0  0  0  0
  194.0770  172.6300  145.5710 C   0  0  0  0  0  1  0  0  0  0  0  0
  194.3500  174.0890  145.8700 C   0  0  0  0  0  2  0  0  0  0  0  0
  1 19  1  0  0  0  0
  1  5  1  0  0  0  0
  2 13  1  0  0  0  0
  2 16  1  0  0  0  0
  3 17  1  0  0  0  0
  4  1  2  0  0  0  0
  6  8  2  0  0  0  0
  7 15  1  6  0  0  0
  8 11  1  0  0  0  0
  9 14  1  6  0  0  0
  9  7  1  0  0  0  0
 10 21  1  1  0  0  0
 10 22  1  0  0  0  0
 10  3  1  0  0  0  0
 11  5  1  0  0  0  0
 11 28  1  6  0  0  0
 12 27  1  1  0  0  0
 12  4  1  0  0  0  0
 12  8  1  0  0  0  0
 14 23  1  0  0  0  0
 17 26  1  0  0  0  0
 18 13  2  0  0  0  0
 19  2  2  0  0  0  0
 20 17  2  0  0  0  0
 20  4  1  0  0  0  0
 22  9  1  0  0  0  0
 22 20  1  1  0  0  0
 23 15  1  0  0  0  0
 24 27  2  0  0  0  0
 25 18  1  0  0  0  0
 26 25  2  0  0  0  0
 26 19  1  0  0  0  0
 27  7  1  0  0  0  0
 29 30  1  0  0  0  0
 30 28  1  0  0  0  0
M  END
>  <MODEL>
9

>  <REMARK>
 VINA RESULT:      -7.4      2.461      3.399
  Name = 
  2 active torsions:
  status: ('A' for Active; 'I' for Inactive)
    1  A    between atoms: C_11  and  C_28
    2  A    between atoms: C_28  and  C_30
                            x       y       z     vdW  Elec       q    Type
                         _______ _______ _______ _____ _____    ______ ____

>  <TORSDO>
F 2

$$$$
