=
 OpenBabel11112416343D

 32 37  0  0  1  0  0  0  0  0999 V2000
  184.9150  177.7490  145.8210 C   0  0  0  0  0  2  0  0  0  0  0  0
  189.4890  177.0550  143.4460 C   0  0  1  0  0  3  0  0  0  0  0  0
  187.9300  172.6110  141.8330 C   0  0  0  0  0  2  0  0  0  0  0  0
  189.3650  172.2840  141.4140 C   0  0  0  0  0  2  0  0  0  0  0  0
  191.9630  177.3520  143.9710 C   0  0  0  0  0  0  0  0  0  0  0  0
  193.0420  176.6230  144.6370 C   0  0  0  0  0  0  0  0  0  0  0  0
  187.6930  177.5490  145.1110 C   0  0  1  0  0  3  0  0  0  0  0  0
  187.1400  176.8100  142.7380 C   0  0  0  0  0  2  0  0  0  0  0  0
  194.2910  174.9090  145.3250 C   0  0  0  0  0  0  0  0  0  0  0  0
  185.2630  177.4240  144.3590 C   0  0  2  0  0  3  0  0  0  0  0  0
  187.7320  174.0970  141.9640 C   0  0  0  0  0  3  0  0  0  0  0  0
  188.5010  176.2860  142.6790 N   0  0  0  0  0  0  0  0  0  0  0  0
  188.7270  174.8890  142.3910 C   0  0  0  0  0  0  0  0  0  0  0  0
  191.0500  175.1170  143.2980 N   0  0  0  0  0  0  0  0  0  0  0  0
  194.9150  175.9350  145.8060 N   0  0  0  0  0  0  0  0  0  0  0  0
  185.8380  177.0460  146.8150 C   0  0  0  0  0  2  0  0  0  0  0  0
  186.6770  176.8290  144.1990 C   0  0  2  0  0  3  0  0  0  0  0  0
  194.1960  177.1550  145.4230 C   0  0  0  0  0  2  0  0  0  0  0  0
  187.2970  177.4610  146.5930 C   0  0  0  0  0  2  0  0  0  0  0  0
  190.3550  173.0670  142.2320 C   0  0  0  0  0  3  0  0  0  0  0  0
  190.0680  174.3100  142.6410 C   0  0  0  0  0  0  0  0  0  0  0  0
  192.1590  174.5110  143.9260 N   0  0  0  0  0  2  0  0  0  0  0  0
  189.1080  177.0010  144.9270 C   0  0  0  0  0  2  0  0  0  0  0  0
  191.9280  178.6100  144.0160 O   0  0  0  0  0  0  0  0  0  0  0  0
  194.7450  173.5080  145.5240 C   0  0  0  0  0  1  0  0  0  0  0  0
  190.9290  176.5840  143.1740 C   0  0  1  0  0  3  0  0  0  0  0  0
  193.1200  175.3220  144.5920 C   0  0  0  0  0  0  0  0  0  0  0  0
  185.1190  178.5850  143.5920 O   0  0  0  0  0  0  0  0  0  0  0  0
  183.7690  178.6200  143.2420 C   0  0  0  0  0  2  0  0  0  0  0  0
  183.6180  178.2800  141.8020 C   0  0  0  0  0  0  0  0  0  0  0  0
  184.6950  178.4270  140.9390 O   0  0  0  0  0  0  0  0  0  0  0  0
  182.5050  177.8970  141.3590 O   0  0  0  0  0  1  0  0  0  0  0  0
  1 16  1  0  0  0  0
  2 23  1  1  0  0  0
  3 11  1  0  0  0  0
  4  3  1  0  0  0  0
  4 20  1  0  0  0  0
  5 24  2  0  0  0  0
  5  6  1  0  0  0  0
  6 18  1  0  0  0  0
  7 23  1  1  0  0  0
  7 19  1  0  0  0  0
  9 25  1  0  0  0  0
  9 15  2  0  0  0  0
 10 28  1  6  0  0  0
 10  1  1  0  0  0  0
 11 13  2  0  0  0  0
 12  8  1  0  0  0  0
 12  2  1  0  0  0  0
 13 21  1  0  0  0  0
 13 12  1  0  0  0  0
 14 22  1  0  0  0  0
 17  8  1  6  0  0  0
 17 10  1  0  0  0  0
 17  7  1  0  0  0  0
 18 15  1  0  0  0  0
 19 16  1  0  0  0  0
 20 21  2  0  0  0  0
 21 14  1  0  0  0  0
 22 27  1  0  0  0  0
 26 14  1  0  0  0  0
 26  2  1  0  0  0  0
 26  5  1  1  0  0  0
 27  6  2  0  0  0  0
 27  9  1  0  0  0  0
 29 28  1  0  0  0  0
 30 29  1  0  0  0  0
 31 30  2  0  0  0  0
 32 30  1  0  0  0  0
M  END
>  <MODEL>
1

>  <REMARK>
 VINA RESULT:      -8.5      0.000      0.000
  Name = 
  3 active torsions:
  status: ('A' for Active; 'I' for Inactive)
    1  A    between atoms: C_10  and  O_20
    2  A    between atoms: O_20  and  C_29
    3  A    between atoms: C_29  and  C_30
                            x       y       z     vdW  Elec       q    Type
                         _______ _______ _______ _____ _____    ______ ____

>  <TORSDO>
F 3

$$$$
=
 OpenBabel11112416343D

 32 37  0  0  1  0  0  0  0  0999 V2000
  191.1170  171.6200  141.8330 C   0  0  0  0  0  2  0  0  0  0  0  0
  189.6420  176.4770  142.9660 C   0  0  1  0  0  3  0  0  0  0  0  0
  191.5480  175.9470  147.5330 C   0  0  0  0  0  2  0  0  0  0  0  0
  190.8420  177.2370  147.9540 C   0  0  0  0  0  2  0  0  0  0  0  0
  187.5840  177.9500  142.6770 C   0  0  0  0  0  0  0  0  0  0  0  0
  186.3070  178.2010  143.3450 C   0  0  0  0  0  0  0  0  0  0  0  0
  189.7080  174.0970  142.2060 C   0  0  1  0  0  3  0  0  0  0  0  0
  191.7480  175.2240  143.2300 C   0  0  0  0  0  2  0  0  0  0  0  0
  184.8250  178.4510  144.9910 C   0  0  0  0  0  0  0  0  0  0  0  0
  191.9110  172.8290  142.3550 C   0  0  2  0  0  3  0  0  0  0  0  0
  191.7000  175.8780  146.0370 C   0  0  0  0  0  3  0  0  0  0  0  0
  190.8170  176.1950  143.7980 N   0  0  0  0  0  0  0  0  0  0  0  0
  190.7670  176.3990  145.2260 C   0  0  0  0  0  0  0  0  0  0  0  0
  188.5320  177.4960  144.9520 N   0  0  0  0  0  0  0  0  0  0  0  0
  184.1250  178.6920  143.9310 N   0  0  0  0  0  0  0  0  0  0  0  0
  189.7120  171.5390  142.4280 C   0  0  0  0  0  2  0  0  0  0  0  0
  191.0120  173.8990  143.0080 C   0  0  2  0  0  3  0  0  0  0  0  0
  184.9860  178.5640  142.7500 C   0  0  0  0  0  3  0  0  0  0  0  0
  188.9020  172.7950  142.0890 C   0  0  0  0  0  2  0  0  0  0  0  0
  189.6280  177.4880  147.1020 C   0  0  0  0  0  3  0  0  0  0  0  0
  189.6220  177.1400  145.8080 C   0  0  0  0  0  0  0  0  0  0  0  0
  187.2710  177.8080  145.5040 N   0  0  0  0  0  0  0  0  0  0  0  0
  188.8280  175.1890  142.8150 C   0  0  0  0  0  2  0  0  0  0  0  0
  187.6690  178.0340  141.4230 O   0  0  0  0  0  0  0  0  0  0  0  0
  184.2660  178.4900  146.3680 C   0  0  0  0  0  1  0  0  0  0  0  0
  188.8140  177.6550  143.5100 C   0  0  1  0  0  3  0  0  0  0  0  0
  186.1900  178.1440  144.6430 C   0  0  0  0  0  0  0  0  0  0  0  0
  192.6500  173.3740  141.3000 O   0  0  0  0  0  0  0  0  0  0  0  0
  192.3030  172.6100  140.1850 C   0  0  0  0  0  2  0  0  0  0  0  0
  191.8510  173.5060  139.0880 C   0  0  0  0  0  0  0  0  0  0  0  0
  190.4990  173.6160  138.7950 O   0  0  0  0  0  1  0  0  0  0  0  0
  192.6960  174.1350  138.4000 O   0  0  0  0  0  0  0  0  0  0  0  0
  1 10  1  0  0  0  0
  1 16  1  0  0  0  0
  2 23  1  1  0  0  0
  2 26  1  0  0  0  0
  2 12  1  0  0  0  0
  3  4  1  0  0  0  0
  5  6  1  0  0  0  0
  6 27  1  0  0  0  0
  7 19  1  1  0  0  0
  7 23  1  0  0  0  0
  7 17  1  0  0  0  0
  8 12  1  0  0  0  0
  9 25  1  0  0  0  0
 10 28  1  6  0  0  0
 10 17  1  0  0  0  0
 11  3  1  0  0  0  0
 12 13  1  0  0  0  0
 13 21  1  0  0  0  0
 13 11  2  0  0  0  0
 14 22  1  0  0  0  0
 14 21  1  0  0  0  0
 15  9  2  0  0  0  0
 17  8  1  6  0  0  0
 18  6  2  0  0  0  0
 18 15  1  0  0  0  0
 19 16  1  0  0  0  0
 20  4  1  0  0  0  0
 21 20  2  0  0  0  0
 24  5  2  0  0  0  0
 26  5  1  6  0  0  0
 26 14  1  0  0  0  0
 27  9  1  0  0  0  0
 27 22  2  0  0  0  0
 29 28  1  0  0  0  0
 30 29  1  0  0  0  0
 31 30  1  0  0  0  0
 32 30  2  0  0  0  0
M  END
>  <MODEL>
2

>  <REMARK>
 VINA RESULT:      -8.0      2.951      7.423
  Name = 
  3 active torsions:
  status: ('A' for Active; 'I' for Inactive)
    1  A    between atoms: C_10  and  O_20
    2  A    between atoms: O_20  and  C_29
    3  A    between atoms: C_29  and  C_30
                            x       y       z     vdW  Elec       q    Type
                         _______ _______ _______ _____ _____    ______ ____

>  <TORSDO>
F 3

$$$$
=
 OpenBabel11112416343D

 32 37  0  0  1  0  0  0  0  0999 V2000
  191.1040  171.5990  141.8440 C   0  0  0  0  0  2  0  0  0  0  0  0
  189.7170  176.4740  143.0060 C   0  0  1  0  0  3  0  0  0  0  0  0
  191.5660  175.8660  147.5880 C   0  0  0  0  0  2  0  0  0  0  0  0
  190.8810  177.1660  148.0130 C   0  0  0  0  0  2  0  0  0  0  0  0
  187.6940  177.9930  142.7100 C   0  0  0  0  0  0  0  0  0  0  0  0
  186.4150  178.2640  143.3670 C   0  0  0  0  0  0  0  0  0  0  0  0
  189.7430  174.1010  142.2250 C   0  0  1  0  0  3  0  0  0  0  0  0
  191.7950  175.1770  143.2800 C   0  0  0  0  0  2  0  0  0  0  0  0
  184.9220  178.5290  145.0000 C   0  0  0  0  0  0  0  0  0  0  0  0
  191.9180  172.7870  142.3860 C   0  0  2  0  0  3  0  0  0  0  0  0
  191.7320  175.8070  146.0930 C   0  0  0  0  0  3  0  0  0  0  0  0
  190.8780  176.1610  143.8480 N   0  0  0  0  0  0  0  0  0  0  0  0
  190.8170  176.3540  145.2770 C   0  0  0  0  0  0  0  0  0  0  0  0
  188.6080  177.4990  144.9900 N   0  0  0  0  0  0  0  0  0  0  0  0
  184.2380  178.7940  143.9350 N   0  0  0  0  0  0  0  0  0  0  0  0
  189.6920  171.5410  142.4240 C   0  0  0  0  0  2  0  0  0  0  0  0
  191.0340  173.8690  143.0390 C   0  0  2  0  0  3  0  0  0  0  0  0
  185.1080  178.6590  142.7620 C   0  0  0  0  0  3  0  0  0  0  0  0
  188.9110  172.8170  142.0890 C   0  0  0  0  0  2  0  0  0  0  0  0
  189.6820  177.4490  147.1510 C   0  0  0  0  0  3  0  0  0  0  0  0
  189.6820  177.1130  145.8540 C   0  0  0  0  0  0  0  0  0  0  0  0
  187.3490  177.8320  145.5320 N   0  0  0  0  0  0  0  0  0  0  0  0
  188.8790  175.2060  142.8360 C   0  0  0  0  0  2  0  0  0  0  0  0
  187.7930  178.0850  141.4570 O   0  0  0  0  0  0  0  0  0  0  0  0
  184.3490  178.5680  146.3720 C   0  0  0  0  0  1  0  0  0  0  0  0
  188.9080  177.6640  143.5530 C   0  0  1  0  0  3  0  0  0  0  0  0
  186.2840  178.1980  144.6630 C   0  0  0  0  0  0  0  0  0  0  0  0
  192.6790  173.3260  141.3430 O   0  0  0  0  0  0  0  0  0  0  0  0
  193.8880  172.6290  141.3830 C   0  0  0  0  0  2  0  0  0  0  0  0
  194.8360  173.3290  142.2890 C   0  0  0  0  0  0  0  0  0  0  0  0
  195.3760  172.6600  143.3800 O   0  0  0  0  0  1  0  0  0  0  0  0
  195.1210  174.5380  142.0900 O   0  0  0  0  0  0  0  0  0  0  0  0
  1 10  1  0  0  0  0
  1 16  1  0  0  0  0
  2 23  1  1  0  0  0
  2 26  1  0  0  0  0
  2 12  1  0  0  0  0
  3  4  1  0  0  0  0
  5  6  1  0  0  0  0
  6 27  1  0  0  0  0
  7 19  1  1  0  0  0
  7 23  1  0  0  0  0
  7 17  1  0  0  0  0
  8 12  1  0  0  0  0
  9 25  1  0  0  0  0
 10 28  1  6  0  0  0
 10 17  1  0  0  0  0
 11  3  1  0  0  0  0
 12 13  1  0  0  0  0
 13 21  1  0  0  0  0
 13 11  2  0  0  0  0
 14 22  1  0  0  0  0
 14 21  1  0  0  0  0
 15  9  2  0  0  0  0
 17  8  1  6  0  0  0
 18  6  2  0  0  0  0
 18 15  1  0  0  0  0
 19 16  1  0  0  0  0
 20  4  1  0  0  0  0
 21 20  2  0  0  0  0
 24  5  2  0  0  0  0
 26  5  1  6  0  0  0
 26 14  1  0  0  0  0
 27  9  1  0  0  0  0
 27 22  2  0  0  0  0
 28 29  1  0  0  0  0
 29 30  1  0  0  0  0
 30 31  1  0  0  0  0
 32 30  2  0  0  0  0
M  END
>  <MODEL>
3

>  <REMARK>
 VINA RESULT:      -7.9      2.836      7.840
  Name = 
  3 active torsions:
  status: ('A' for Active; 'I' for Inactive)
    1  A    between atoms: C_10  and  O_20
    2  A    between atoms: O_20  and  C_29
    3  A    between atoms: C_29  and  C_30
                            x       y       z     vdW  Elec       q    Type
                         _______ _______ _______ _____ _____    ______ ____

>  <TORSDO>
F 3

$$$$
=
 OpenBabel11112416343D

 32 37  0  0  1  0  0  0  0  0999 V2000
  190.7380  172.8130  144.6390 C   0  0  0  0  0  2  0  0  0  0  0  0
  188.2970  177.2780  143.5680 C   0  0  1  0  0  3  0  0  0  0  0  0
  186.5280  177.3800  148.2200 C   0  0  0  0  0  2  0  0  0  0  0  0
  185.5730  178.5020  147.8090 C   0  0  0  0  0  2  0  0  0  0  0  0
  186.8590  178.2550  141.7050 C   0  0  0  0  0  0  0  0  0  0  0  0
  185.4610  178.2510  141.2770 C   0  0  0  0  0  0  0  0  0  0  0  0
  189.1720  174.9380  143.5030 C   0  0  1  0  0  3  0  0  0  0  0  0
  189.7580  176.5260  145.4050 C   0  0  0  0  0  2  0  0  0  0  0  0
  183.2360  178.2460  141.4120 C   0  0  0  0  0  0  0  0  0  0  0  0
  190.7830  174.1880  145.3270 C   0  0  2  0  0  3  0  0  0  0  0  0
  187.6860  177.2790  147.2640 C   0  0  0  0  0  3  0  0  0  0  0  0
  188.5820  177.2960  145.0070 N   0  0  0  0  0  0  0  0  0  0  0  0
  187.5270  177.5470  145.9580 C   0  0  0  0  0  0  0  0  0  0  0  0
  186.0010  178.1190  144.0560 N   0  0  0  0  0  0  0  0  0  0  0  0
  183.4490  178.2810  140.1370 N   0  0  0  0  0  0  0  0  0  0  0  0
  189.3420  172.4540  144.1340 C   0  0  0  0  0  2  0  0  0  0  0  0
  189.5590  175.0640  144.9920 C   0  0  2  0  0  3  0  0  0  0  0  0
  184.8960  178.2910  139.8950 C   0  0  0  0  0  3  0  0  0  0  0  0
  188.8470  173.4880  143.1150 C   0  0  0  0  0  2  0  0  0  0  0  0
  185.2790  178.4450  146.3350 C   0  0  0  0  0  3  0  0  0  0  0  0
  186.2190  178.0470  145.4680 C   0  0  0  0  0  0  0  0  0  0  0  0
  184.6870  178.1730  143.5450 N   0  0  0  0  0  0  0  0  0  0  0  0
  187.9890  175.8390  143.1470 C   0  0  0  0  0  2  0  0  0  0  0  0
  187.7830  178.2980  140.8490 O   0  0  0  0  0  0  0  0  0  0  0  0
  181.8760  178.2240  142.0140 C   0  0  0  0  0  1  0  0  0  0  0  0
  187.1850  178.2710  143.1840 C   0  0  1  0  0  3  0  0  0  0  0  0
  184.4810  178.2280  142.1380 C   0  0  0  0  0  0  0  0  0  0  0  0
  191.9720  174.8330  144.9700 O   0  0  0  0  0  0  0  0  0  0  0  0
  192.8440  174.5940  146.0330 C   0  0  0  0  0  2  0  0  0  0  0  0
  193.6740  175.8040  146.2780 C   0  0  0  0  0  0  0  0  0  0  0  0
  194.9870  175.8470  145.8290 O   0  0  0  0  0  0  0  0  0  0  0  0
  193.1980  176.7730  146.9240 O   0  0  0  0  0  1  0  0  0  0  0  0
  1 10  1  0  0  0  0
  2 23  1  1  0  0  0
  2 12  1  0  0  0  0
  4  3  1  0  0  0  0
  6  5  1  0  0  0  0
  6 27  1  0  0  0  0
  7 19  1  1  0  0  0
  7 17  1  0  0  0  0
  9 25  1  0  0  0  0
  9 27  1  0  0  0  0
 10 28  1  6  0  0  0
 11  3  1  0  0  0  0
 12  8  1  0  0  0  0
 12 13  1  0  0  0  0
 13 11  2  0  0  0  0
 14 21  1  0  0  0  0
 15  9  2  0  0  0  0
 16  1  1  0  0  0  0
 17 10  1  0  0  0  0
 17  8  1  6  0  0  0
 18 15  1  0  0  0  0
 18  6  2  0  0  0  0
 19 16  1  0  0  0  0
 20  4  1  0  0  0  0
 21 13  1  0  0  0  0
 21 20  2  0  0  0  0
 22 14  1  0  0  0  0
 23  7  1  0  0  0  0
 24  5  2  0  0  0  0
 26  5  1  6  0  0  0
 26  2  1  0  0  0  0
 26 14  1  0  0  0  0
 27 22  2  0  0  0  0
 28 29  1  0  0  0  0
 29 30  1  0  0  0  0
 30 32  1  0  0  0  0
 31 30  2  0  0  0  0
M  END
>  <MODEL>
4

>  <REMARK>
 VINA RESULT:      -7.8      2.589      8.116
  Name = 
  3 active torsions:
  status: ('A' for Active; 'I' for Inactive)
    1  A    between atoms: C_10  and  O_20
    2  A    between atoms: O_20  and  C_29
    3  A    between atoms: C_29  and  C_30
                            x       y       z     vdW  Elec       q    Type
                         _______ _______ _______ _____ _____    ______ ____

>  <TORSDO>
F 3

$$$$
=
 OpenBabel11112416343D

 32 37  0  0  1  0  0  0  0  0999 V2000
  185.2090  178.9510  143.6380 C   0  0  0  0  0  2  0  0  0  0  0  0
  188.2660  174.7890  143.0290 C   0  0  1  0  0  3  0  0  0  0  0  0
  192.1590  177.4700  144.5910 C   0  0  0  0  0  2  0  0  0  0  0  0
  193.0910  176.3540  144.1140 C   0  0  0  0  0  2  0  0  0  0  0  0
  188.6700  172.9690  141.2930 C   0  0  0  0  0  0  0  0  0  0  0  0
  189.4230  172.7760  140.0540 C   0  0  0  0  0  0  0  0  0  0  0  0
  186.6030  176.6220  142.6920 C   0  0  1  0  0  3  0  0  0  0  0  0
  187.9290  176.4100  144.8550 C   0  0  0  0  0  2  0  0  0  0  0  0
  191.0760  172.9440  138.5680 C   0  0  0  0  0  0  0  0  0  0  0  0
  186.1510  178.2290  144.6150 C   0  0  2  0  0  3  0  0  0  0  0  0
  190.7600  176.9540  144.7970 C   0  0  0  0  0  3  0  0  0  0  0  0
  188.8730  175.5980  144.0930 N   0  0  0  0  0  0  0  0  0  0  0  0
  190.2610  175.9850  144.0140 C   0  0  0  0  0  0  0  0  0  0  0  0
  190.5310  174.4740  142.0340 N   0  0  0  0  0  0  0  0  0  0  0  0
  190.2290  172.1670  137.9740 N   0  0  0  0  0  0  0  0  0  0  0  0
  185.7650  179.0030  142.2160 C   0  0  0  0  0  2  0  0  0  0  0  0
  187.2110  177.3680  143.8980 C   0  0  2  0  0  3  0  0  0  0  0  0
  189.0710  171.9640  138.8510 C   0  0  0  0  0  3  0  0  0  0  0  0
  185.9930  177.5900  141.6660 C   0  0  0  0  0  2  0  0  0  0  0  0
  192.4540  175.5580  143.0090 C   0  0  0  0  0  3  0  0  0  0  0  0
  191.1320  175.3440  142.9990 C   0  0  0  0  0  0  0  0  0  0  0  0
  191.2030  174.1840  140.8280 N   0  0  0  0  0  0  0  0  0  0  0  0
  187.6320  175.7270  142.0000 C   0  0  0  0  0  2  0  0  0  0  0  0
  187.5560  172.4010  141.4500 O   0  0  0  0  0  0  0  0  0  0  0  0
  192.3680  173.3620  137.9620 C   0  0  0  0  0  1  0  0  0  0  0  0
  189.2700  173.8010  142.4070 C   0  0  1  0  0  3  0  0  0  0  0  0
  190.5890  173.3320  139.8680 C   0  0  0  0  0  0  0  0  0  0  0  0
  185.3850  177.4520  145.4910 O   0  0  0  0  0  0  0  0  0  0  0  0
  184.7790  178.3700  146.3490 C   0  0  0  0  0  2  0  0  0  0  0  0
  185.6470  178.5900  147.5360 C   0  0  0  0  0  0  0  0  0  0  0  0
  186.0700  179.8720  147.8580 O   0  0  0  0  0  0  0  0  0  0  0  0
  186.0300  177.6100  148.2270 O   0  0  0  0  0  1  0  0  0  0  0  0
  1 10  1  0  0  0  0
  2 23  1  6  0  0  0
  2 12  1  0  0  0  0
  3 11  1  0  0  0  0
  4  3  1  0  0  0  0
  5 24  2  0  0  0  0
  6  5  1  0  0  0  0
  7 19  1  6  0  0  0
  7 17  1  0  0  0  0
  9 27  1  0  0  0  0
 10 28  1  1  0  0  0
 12  8  1  0  0  0  0
 13 12  1  0  0  0  0
 13 11  2  0  0  0  0
 14 26  1  0  0  0  0
 14 21  1  0  0  0  0
 15  9  2  0  0  0  0
 15 18  1  0  0  0  0
 16  1  1  0  0  0  0
 17 10  1  0  0  0  0
 17  8  1  1  0  0  0
 18  6  2  0  0  0  0
 19 16  1  0  0  0  0
 20  4  1  0  0  0  0
 21 20  2  0  0  0  0
 21 13  1  0  0  0  0
 22 14  1  0  0  0  0
 23  7  1  0  0  0  0
 25  9  1  0  0  0  0
 26  5  1  6  0  0  0
 26  2  1  0  0  0  0
 27  6  1  0  0  0  0
 27 22  2  0  0  0  0
 28 29  1  0  0  0  0
 29 30  1  0  0  0  0
 30 31  2  0  0  0  0
 30 32  1  0  0  0  0
M  END
>  <MODEL>
5

>  <REMARK>
 VINA RESULT:      -7.5      2.637      5.345
  Name = 
  3 active torsions:
  status: ('A' for Active; 'I' for Inactive)
    1  A    between atoms: C_10  and  O_20
    2  A    between atoms: O_20  and  C_29
    3  A    between atoms: C_29  and  C_30
                            x       y       z     vdW  Elec       q    Type
                         _______ _______ _______ _____ _____    ______ ____

>  <TORSDO>
F 3

$$$$
=
 OpenBabel11112416343D

 32 37  0  0  1  0  0  0  0  0999 V2000
  195.9200  174.7370  145.4960 C   0  0  0  0  0  2  0  0  0  0  0  0
  190.7500  174.1840  145.4170 C   0  0  1  0  0  3  0  0  0  0  0  0
  190.9160  173.7220  140.4630 C   0  0  0  0  0  2  0  0  0  0  0  0
  189.3940  173.8770  140.4200 C   0  0  0  0  0  2  0  0  0  0  0  0
  188.7080  175.2910  146.4610 C   0  0  0  0  0  0  0  0  0  0  0  0
  187.8420  176.4460  146.2280 C   0  0  0  0  0  0  0  0  0  0  0  0
  193.0780  174.9860  145.8410 C   0  0  1  0  0  3  0  0  0  0  0  0
  192.6190  172.9330  144.4070 C   0  0  0  0  0  2  0  0  0  0  0  0
  186.6750  177.9910  145.1240 C   0  0  0  0  0  0  0  0  0  0  0  0
  195.0240  173.6330  144.9100 C   0  0  2  0  0  3  0  0  0  0  0  0
  191.3760  173.2970  141.8320 C   0  0  0  0  0  3  0  0  0  0  0  0
  191.2640  173.4530  144.2520 N   0  0  0  0  0  0  0  0  0  0  0  0
  190.7370  173.7170  142.9340 C   0  0  0  0  0  0  0  0  0  0  0  0
  188.9600  175.1450  143.9720 N   0  0  0  0  0  0  0  0  0  0  0  0
  186.4320  178.2740  146.3620 N   0  0  0  0  0  0  0  0  0  0  0  0
  195.3190  176.1320  145.3290 C   0  0  0  0  0  2  0  0  0  0  0  0
  193.5740  174.1010  144.6770 C   0  0  2  0  0  3  0  0  0  0  0  0
  187.1450  177.3200  147.2190 C   0  0  0  0  0  2  0  0  0  0  0  0
  193.9610  176.2290  146.0330 C   0  0  0  0  0  2  0  0  0  0  0  0
  188.8990  174.6490  141.6120 C   0  0  0  0  0  3  0  0  0  0  0  0
  189.5020  174.5270  142.8010 C   0  0  0  0  0  0  0  0  0  0  0  0
  188.0720  176.2340  143.8510 N   0  0  0  0  0  2  0  0  0  0  0  0
  191.6250  175.4180  145.6460 C   0  0  0  0  0  2  0  0  0  0  0  0
  188.9520  174.9110  147.6380 O   0  0  0  0  0  0  0  0  0  0  0  0
  186.1110  178.7610  143.9840 C   0  0  0  0  0  1  0  0  0  0  0  0
  189.2550  174.5190  145.2780 C   0  0  1  0  0  3  0  0  0  0  0  0
  187.5520  176.8520  145.0220 C   0  0  0  0  0  0  0  0  0  0  0  0
  195.0600  172.5230  145.7610 O   0  0  0  0  0  0  0  0  0  0  0  0
  196.4030  172.1410  145.7970 C   0  0  0  0  0  2  0  0  0  0  0  0
  196.4960  170.6700  145.9920 C   0  0  0  0  0  0  0  0  0  0  0  0
  195.4180  169.9690  146.5130 O   0  0  0  0  0  1  0  0  0  0  0  0
  197.5660  170.0660  145.7200 O   0  0  0  0  0  0  0  0  0  0  0  0
  2 23  1  6  0  0  0
  3 11  1  0  0  0  0
  4  3  1  0  0  0  0
  4 20  1  0  0  0  0
  5 24  2  0  0  0  0
  6  5  1  0  0  0  0
  6 18  1  0  0  0  0
  7 23  1  6  0  0  0
  7 19  1  0  0  0  0
  9 15  2  0  0  0  0
 10  1  1  0  0  0  0
 10 28  1  1  0  0  0
 11 13  2  0  0  0  0
 12  8  1  0  0  0  0
 12  2  1  0  0  0  0
 13 12  1  0  0  0  0
 14 26  1  0  0  0  0
 15 18  1  0  0  0  0
 16  1  1  0  0  0  0
 16 19  1  0  0  0  0
 17  8  1  1  0  0  0
 17 10  1  0  0  0  0
 17  7  1  0  0  0  0
 20 21  2  0  0  0  0
 21 13  1  0  0  0  0
 21 14  1  0  0  0  0
 22 14  1  0  0  0  0
 22 27  1  0  0  0  0
 25  9  1  0  0  0  0
 26  2  1  0  0  0  0
 26  5  1  1  0  0  0
 27  9  1  0  0  0  0
 27  6  2  0  0  0  0
 28 29  1  0  0  0  0
 29 30  1  0  0  0  0
 30 31  1  0  0  0  0
 32 30  2  0  0  0  0
M  END
>  <MODEL>
6

>  <REMARK>
 VINA RESULT:      -7.5      3.476      8.241
  Name = 
  3 active torsions:
  status: ('A' for Active; 'I' for Inactive)
    1  A    between atoms: C_10  and  O_20
    2  A    between atoms: O_20  and  C_29
    3  A    between atoms: C_29  and  C_30
                            x       y       z     vdW  Elec       q    Type
                         _______ _______ _______ _____ _____    ______ ____

>  <TORSDO>
F 3

$$$$
=
 OpenBabel11112416343D

 32 37  0  0  1  0  0  0  0  0999 V2000
  187.0860  176.9300  146.4720 C   0  0  0  0  0  2  0  0  0  0  0  0
  191.5160  175.9840  143.9190 C   0  0  1  0  0  3  0  0  0  0  0  0
  189.1500  172.5910  141.1510 C   0  0  0  0  0  2  0  0  0  0  0  0
  190.5030  172.1010  140.6330 C   0  0  0  0  0  2  0  0  0  0  0  0
  193.9750  175.6000  144.4640 C   0  0  0  0  0  0  0  0  0  0  0  0
  194.8520  174.5070  144.8810 C   0  0  0  0  0  0  0  0  0  0  0  0
  189.7910  176.3600  145.6870 C   0  0  1  0  0  3  0  0  0  0  0  0
  189.2000  176.4420  143.2120 C   0  0  0  0  0  2  0  0  0  0  0  0
  195.6910  172.4470  145.0390 C   0  0  0  0  0  0  0  0  0  0  0  0
  187.4220  176.9590  144.9720 C   0  0  2  0  0  3  0  0  0  0  0  0
  189.2540  173.9890  141.6970 C   0  0  0  0  0  3  0  0  0  0  0  0
  190.4260  175.6830  142.9840 N   0  0  0  0  0  0  0  0  0  0  0  0
  190.3720  174.4060  142.3130 C   0  0  0  0  0  0  0  0  0  0  0  0
  192.6520  173.8820  143.2070 N   0  0  0  0  0  0  0  0  0  0  0  0
  196.4920  173.1450  145.7770 N   0  0  0  0  0  0  0  0  0  0  0  0
  187.8020  175.8020  147.2130 C   0  0  0  0  0  2  0  0  0  0  0  0
  188.6890  176.1510  144.6270 C   0  0  2  0  0  3  0  0  0  0  0  0
  196.0550  174.5460  145.7650 C   0  0  0  0  0  2  0  0  0  0  0  0
  189.3230  175.9480  147.0910 C   0  0  0  0  0  2  0  0  0  0  0  0
  191.5970  172.4020  141.6200 C   0  0  0  0  0  3  0  0  0  0  0  0
  191.5540  173.5130  142.3660 C   0  0  0  0  0  0  0  0  0  0  0  0
  193.5850  172.9080  143.6210 N   0  0  0  0  0  2  0  0  0  0  0  0
  191.0700  175.6020  145.3320 C   0  0  0  0  0  2  0  0  0  0  0  0
  194.1970  176.7750  144.8610 O   0  0  0  0  0  0  0  0  0  0  0  0
  195.8400  170.9830  144.8280 C   0  0  0  0  0  1  0  0  0  0  0  0
  192.8400  175.3180  143.5020 C   0  0  1  0  0  3  0  0  0  0  0  0
  194.6630  173.2820  144.4710 C   0  0  0  0  0  0  0  0  0  0  0  0
  187.5520  178.2910  144.5630 O   0  0  0  0  0  0  0  0  0  0  0  0
  186.2470  178.7220  144.3200 C   0  0  0  0  0  2  0  0  0  0  0  0
  185.8390  178.3230  142.9470 C   0  0  0  0  0  0  0  0  0  0  0  0
  184.7090  177.5390  142.7590 O   0  0  0  0  0  1  0  0  0  0  0  0
  186.5390  178.6640  141.9580 O   0  0  0  0  0  0  0  0  0  0  0  0
  1 16  1  0  0  0  0
  2 23  1  1  0  0  0
  3 11  1  0  0  0  0
  4  3  1  0  0  0  0
  4 20  1  0  0  0  0
  5 24  2  0  0  0  0
  5  6  1  0  0  0  0
  6 18  1  0  0  0  0
  7 23  1  6  0  0  0
  7 19  1  0  0  0  0
  9 15  2  0  0  0  0
 10 28  1  1  0  0  0
 10  1  1  0  0  0  0
 11 13  2  0  0  0  0
 12  8  1  0  0  0  0
 12  2  1  0  0  0  0
 13 21  1  0  0  0  0
 13 12  1  0  0  0  0
 14 26  1  0  0  0  0
 14 22  1  0  0  0  0
 17  8  1  6  0  0  0
 17 10  1  0  0  0  0
 17  7  1  0  0  0  0
 18 15  1  0  0  0  0
 19 16  1  0  0  0  0
 20 21  2  0  0  0  0
 21 14  1  0  0  0  0
 22 27  1  0  0  0  0
 25  9  1  0  0  0  0
 26  2  1  0  0  0  0
 26  5  1  1  0  0  0
 27  6  2  0  0  0  0
 27  9  1  0  0  0  0
 29 28  1  0  0  0  0
 30 29  1  0  0  0  0
 31 30  1  0  0  0  0
 32 30  2  0  0  0  0
M  END
>  <MODEL>
7

>  <REMARK>
 VINA RESULT:      -7.2      1.672      2.453
  Name = 
  3 active torsions:
  status: ('A' for Active; 'I' for Inactive)
    1  A    between atoms: C_10  and  O_20
    2  A    between atoms: O_20  and  C_29
    3  A    between atoms: C_29  and  C_30
                            x       y       z     vdW  Elec       q    Type
                         _______ _______ _______ _____ _____    ______ ____

>  <TORSDO>
F 3

$$$$
=
 OpenBabel11112416343D

 32 37  0  0  1  0  0  0  0  0999 V2000
  190.4480  172.1560  143.6430 C   0  0  0  0  0  2  0  0  0  0  0  0
  188.1820  176.8140  143.1870 C   0  0  1  0  0  3  0  0  0  0  0  0
  186.7390  176.5340  147.9430 C   0  0  0  0  0  2  0  0  0  0  0  0
  185.8200  177.7350  147.7120 C   0  0  0  0  0  2  0  0  0  0  0  0
  186.6760  178.0380  141.5360 C   0  0  0  0  0  0  0  0  0  0  0  0
  185.2540  178.1420  141.2120 C   0  0  0  0  0  0  0  0  0  0  0  0
  188.9250  174.4550  142.8340 C   0  0  1  0  0  3  0  0  0  0  0  0
  189.7210  175.8160  144.8330 C   0  0  0  0  0  2  0  0  0  0  0  0
  183.0460  178.2270  141.5060 C   0  0  0  0  0  0  0  0  0  0  0  0
  190.6130  173.4520  144.4550 C   0  0  2  0  0  3  0  0  0  0  0  0
  187.8230  176.4750  146.9000 C   0  0  0  0  0  3  0  0  0  0  0  0
  188.5650  176.6750  144.5970 N   0  0  0  0  0  0  0  0  0  0  0  0
  187.5900  176.8790  145.6420 C   0  0  0  0  0  0  0  0  0  0  0  0
  185.9720  177.7090  143.9180 N   0  0  0  0  0  0  0  0  0  0  0  0
  183.1750  178.3800  140.2280 N   0  0  0  0  0  0  0  0  0  0  0  0
  189.0040  171.9150  143.2080 C   0  0  0  0  0  2  0  0  0  0  0  0
  189.4180  174.4130  144.2960 C   0  0  2  0  0  3  0  0  0  0  0  0
  184.6010  178.3460  139.8840 C   0  0  0  0  0  3  0  0  0  0  0  0
  188.4980  173.0670  142.3330 C   0  0  0  0  0  2  0  0  0  0  0  0
  185.4240  177.8390  146.2650 C   0  0  0  0  0  3  0  0  0  0  0  0
  186.2820  177.4850  145.2980 C   0  0  0  0  0  0  0  0  0  0  0  0
  184.6320  177.8750  143.5110 N   0  0  0  0  0  0  0  0  0  0  0  0
  187.7700  175.4410  142.6530 C   0  0  0  0  0  2  0  0  0  0  0  0
  187.5410  178.1240  140.6230 O   0  0  0  0  0  0  0  0  0  0  0  0
  181.7310  178.2090  142.2000 C   0  0  0  0  0  1  0  0  0  0  0  0
  187.1010  177.8910  142.9820 C   0  0  1  0  0  3  0  0  0  0  0  0
  184.3350  178.0790  142.1350 C   0  0  0  0  0  0  0  0  0  0  0  0
  191.8080  174.0730  144.0770 O   0  0  0  0  0  0  0  0  0  0  0  0
  192.4800  173.1220  143.3090 C   0  0  0  0  0  2  0  0  0  0  0  0
  193.0660  173.7750  142.1080 C   0  0  0  0  0  0  0  0  0  0  0  0
  192.2980  174.6460  141.3480 O   0  0  0  0  0  0  0  0  0  0  0  0
  194.2450  173.5090  141.7600 O   0  0  0  0  0  1  0  0  0  0  0  0
  1 10  1  0  0  0  0
  2 23  1  1  0  0  0
  2 12  1  0  0  0  0
  4  3  1  0  0  0  0
  6  5  1  0  0  0  0
  6 27  1  0  0  0  0
  7 19  1  1  0  0  0
  7 17  1  0  0  0  0
  9 27  1  0  0  0  0
  9 25  1  0  0  0  0
 10 28  1  6  0  0  0
 11  3  1  0  0  0  0
 12  8  1  0  0  0  0
 12 13  1  0  0  0  0
 13 11  2  0  0  0  0
 14 21  1  0  0  0  0
 15  9  2  0  0  0  0
 16  1  1  0  0  0  0
 17 10  1  0  0  0  0
 17  8  1  6  0  0  0
 18 15  1  0  0  0  0
 18  6  2  0  0  0  0
 19 16  1  0  0  0  0
 20  4  1  0  0  0  0
 21 13  1  0  0  0  0
 21 20  2  0  0  0  0
 22 14  1  0  0  0  0
 23  7  1  0  0  0  0
 24  5  2  0  0  0  0
 26  5  1  6  0  0  0
 26  2  1  0  0  0  0
 26 14  1  0  0  0  0
 27 22  2  0  0  0  0
 29 28  1  0  0  0  0
 30 29  1  0  0  0  0
 31 30  2  0  0  0  0
 32 30  1  0  0  0  0
M  END
>  <MODEL>
8

>  <REMARK>
 VINA RESULT:      -7.2      2.753      7.995
  Name = 
  3 active torsions:
  status: ('A' for Active; 'I' for Inactive)
    1  A    between atoms: C_10  and  O_20
    2  A    between atoms: O_20  and  C_29
    3  A    between atoms: C_29  and  C_30
                            x       y       z     vdW  Elec       q    Type
                         _______ _______ _______ _____ _____    ______ ____

>  <TORSDO>
F 3

$$$$
=
 OpenBabel11112416343D

 32 37  0  0  1  0  0  0  0  0999 V2000
  187.1020  178.0840  143.7460 C   0  0  0  0  0  2  0  0  0  0  0  0
  190.0790  173.8530  144.2770 C   0  0  1  0  0  3  0  0  0  0  0  0
  193.5510  176.6270  146.5190 C   0  0  0  0  0  2  0  0  0  0  0  0
  194.5350  175.4630  146.3870 C   0  0  0  0  0  2  0  0  0  0  0  0
  190.8380  171.8780  142.8590 C   0  0  0  0  0  0  0  0  0  0  0  0
  191.8670  171.5660  141.8670 C   0  0  0  0  0  0  0  0  0  0  0  0
  188.6100  175.6650  143.3810 C   0  0  1  0  0  3  0  0  0  0  0  0
  189.3550  175.6380  145.8150 C   0  0  0  0  0  2  0  0  0  0  0  0
  193.8400  171.5790  140.8300 C   0  0  0  0  0  0  0  0  0  0  0  0
  187.7510  177.4450  144.9860 C   0  0  2  0  0  3  0  0  0  0  0  0
  192.1290  176.1460  146.4150 C   0  0  0  0  0  3  0  0  0  0  0  0
  190.4310  174.7500  145.3840 N   0  0  0  0  0  0  0  0  0  0  0  0
  191.8080  175.1140  145.6200 C   0  0  0  0  0  0  0  0  0  0  0  0
  192.5080  173.4260  143.9060 N   0  0  0  0  0  0  0  0  0  0  0  0
  193.1410  170.7610  140.1130 N   0  0  0  0  0  0  0  0  0  0  0  0
  187.9930  178.0000  142.5080 C   0  0  0  0  0  2  0  0  0  0  0  0
  188.9260  176.5120  144.6310 C   0  0  2  0  0  3  0  0  0  0  0  0
  191.7960  170.6500  140.6890 C   0  0  0  0  0  3  0  0  0  0  0  0
  188.3040  176.5410  142.1560 C   0  0  0  0  0  2  0  0  0  0  0  0
  194.1650  174.5750  145.2310 C   0  0  0  0  0  3  0  0  0  0  0  0
  192.8800  174.3750  144.9120 C   0  0  0  0  0  0  0  0  0  0  0  0
  193.4460  173.0200  142.9350 N   0  0  0  0  0  0  0  0  0  0  0  0
  189.7480  174.7000  143.0460 C   0  0  0  0  0  2  0  0  0  0  0  0
  189.7020  171.3390  142.7830 O   0  0  0  0  0  0  0  0  0  0  0  0
  195.2540  171.9270  140.5300 C   0  0  0  0  0  1  0  0  0  0  0  0
  191.1720  172.8020  144.0110 C   0  0  1  0  0  3  0  0  0  0  0  0
  193.0600  172.0900  141.9300 C   0  0  0  0  0  0  0  0  0  0  0  0
  186.7680  176.7590  145.7070 O   0  0  0  0  0  0  0  0  0  0  0  0
  185.5570  177.2740  145.2430 C   0  0  0  0  0  2  0  0  0  0  0  0
  184.8710  178.0020  146.3440 C   0  0  0  0  0  0  0  0  0  0  0  0
  185.4010  177.9780  147.6270 O   0  0  0  0  0  1  0  0  0  0  0  0
  183.7910  178.6080  146.1210 O   0  0  0  0  0  0  0  0  0  0  0  0
  1 10  1  0  0  0  0
  2 23  1  6  0  0  0
  2 12  1  0  0  0  0
  4  3  1  0  0  0  0
  6 27  1  0  0  0  0
  6  5  1  0  0  0  0
  7 19  1  6  0  0  0
  7 17  1  0  0  0  0
  9 27  1  0  0  0  0
 10 28  1  6  0  0  0
 11  3  1  0  0  0  0
 12 13  1  0  0  0  0
 12  8  1  0  0  0  0
 13 11  2  0  0  0  0
 14 26  1  0  0  0  0
 14 21  1  0  0  0  0
 15 18  1  0  0  0  0
 15  9  2  0  0  0  0
 16  1  1  0  0  0  0
 17 10  1  0  0  0  0
 17  8  1  1  0  0  0
 18  6  2  0  0  0  0
 19 16  1  0  0  0  0
 20  4  1  0  0  0  0
 21 20  2  0  0  0  0
 21 13  1  0  0  0  0
 22 14  1  0  0  0  0
 23  7  1  0  0  0  0
 24  5  2  0  0  0  0
 25  9  1  0  0  0  0
 26  5  1  6  0  0  0
 26  2  1  0  0  0  0
 27 22  2  0  0  0  0
 29 28  1  0  0  0  0
 29 30  1  0  0  0  0
 30 31  1  0  0  0  0
 32 30  2  0  0  0  0
M  END
>  <MODEL>
9

>  <REMARK>
 VINA RESULT:      -7.2      2.706      5.095
  Name = 
  3 active torsions:
  status: ('A' for Active; 'I' for Inactive)
    1  A    between atoms: C_10  and  O_20
    2  A    between atoms: O_20  and  C_29
    3  A    between atoms: C_29  and  C_30
                            x       y       z     vdW  Elec       q    Type
                         _______ _______ _______ _____ _____    ______ ____

>  <TORSDO>
F 3

$$$$
