=
 OpenBabel11112417253D

 37 43  0  0  1  0  0  0  0  0999 V2000
  189.9870  176.3410  145.5210 C   0  0  0  0  0  2  0  0  0  0  0  0
  186.1330  178.5210  147.2690 C   0  0  0  0  0  0  0  0  0  0  0  0
  185.9900  177.2550  143.2380 C   0  0  0  0  0  0  0  0  0  0  0  0
  191.5000  176.3550  145.7790 C   0  0  2  0  0  3  0  0  0  0  0  0
  188.9970  175.6790  141.7400 O   0  0  0  0  0  0  0  0  0  0  0  0
  184.9190  178.4340  145.1270 C   0  0  0  0  0  0  0  0  0  0  0  0
  187.4290  177.0830  143.0120 C   0  0  0  0  0  0  0  0  0  0  0  0
  191.9530  174.6470  143.8230 C   0  0  2  0  0  3  0  0  0  0  0  0
  185.7620  177.2590  144.7230 C   0  0  2  0  0  3  0  0  0  0  0  0
  188.1440  176.8200  141.6890 C   0  0  2  0  0  3  0  0  0  0  0  0
  184.0230  178.9090  144.3140 N   0  0  0  0  0  0  0  0  0  0  0  0
  192.3820  175.9120  144.5930 C   0  0  0  0  0  2  0  0  0  0  0  0
  187.1060  177.4220  145.2580 N   0  0  0  0  0  0  0  0  0  0  0  0
  185.5650  177.3250  148.0140 C   0  0  0  0  0  1  0  0  0  0  0  0
  185.3920  178.2520  141.0320 C   0  0  0  0  0  3  0  0  0  0  0  0
  183.7950  178.2920  143.0010 C   0  0  0  0  0  2  0  0  0  0  0  0
  187.4110  178.1020  146.5220 C   0  0  0  0  0  2  0  0  0  0  0  0
  191.1900  174.9510  142.5270 C   0  0  0  0  0  2  0  0  0  0  0  0
  189.9240  175.7410  142.8050 C   0  0  1  0  0  3  0  0  0  0  0  0
  185.0990  177.8270  142.4060 C   0  0  0  0  0  0  0  0  0  0  0  0
  188.0400  177.2570  144.1930 C   0  0  0  0  0  0  0  0  0  0  0  0
  185.1530  179.0400  146.3650 O   0  0  0  0  0  0  0  0  0  0  0  0
  187.2130  176.6930  140.5530 N   0  0  0  0  0  0  0  0  0  0  0  0
  186.4880  179.5910  148.2800 C   0  0  0  0  0  1  0  0  0  0  0  0
  190.2380  177.0580  143.1920 O   0  0  0  0  0  0  0  0  0  0  0  0
  191.2520  173.7440  144.6260 O   0  0  0  0  0  1  0  0  0  0  0  0
  189.5440  177.2950  144.3970 C   0  0  2  0  0  3  0  0  0  0  0  0
  186.3220  177.7610  140.2180 C   0  0  0  0  0  3  0  0  0  0  0  0
  187.1260  176.1420  138.1590 C   0  0  0  0  0  3  0  0  0  0  0  0
  187.4990  175.7950  139.4660 C   0  0  0  0  0  0  0  0  0  0  0  0
  188.1910  174.5930  139.6850 C   0  0  0  0  0  3  0  0  0  0  0  0
  189.1800  172.5220  138.8480 N   0  0  0  0  0  1  0  0  0  0  0  0
  188.0990  174.0900  137.3190 C   0  0  0  0  0  3  0  0  0  0  0  0
  188.4850  173.7410  138.6160 C   0  0  0  0  0  0  0  0  0  0  0  0
  187.4230  175.2910  137.0900 C   0  0  0  0  0  3  0  0  0  0  0  0
  190.5520  175.2990  147.6380 C   0  0  0  0  0  1  0  0  0  0  0  0
  191.8070  175.5490  146.9480 N   0  0  0  0  0  2  0  0  0  0  0  0
  1  4  1  0  0  0  0
  2 14  1  0  0  0  0
  2 24  1  0  0  0  0
  4 37  1  1  0  0  0
  5 19  1  0  0  0  0
  6 22  1  0  0  0  0
  7  3  1  0  0  0  0
  7 21  2  0  0  0  0
  8 12  1  0  0  0  0
  8 26  1  1  0  0  0
  9  3  1  6  0  0  0
  9  6  1  0  0  0  0
  9 13  1  0  0  0  0
 10  5  1  1  0  0  0
 10  7  1  0  0  0  0
 11  6  2  0  0  0  0
 12  4  1  0  0  0  0
 13 17  1  0  0  0  0
 15 20  1  0  0  0  0
 16 11  1  0  0  0  0
 17  2  1  0  0  0  0
 18  8  1  0  0  0  0
 19 18  1  6  0  0  0
 19 25  1  0  0  0  0
 20 16  1  0  0  0  0
 20  3  2  0  0  0  0
 21 27  1  0  0  0  0
 21 13  1  0  0  0  0
 22  2  1  0  0  0  0
 23 10  1  0  0  0  0
 25 27  1  0  0  0  0
 27  1  1  1  0  0  0
 28 23  1  0  0  0  0
 28 15  2  0  0  0  0
 29 30  1  0  0  0  0
 30 31  2  0  0  0  0
 30 23  1  0  0  0  0
 33 34  2  0  0  0  0
 34 32  1  0  0  0  0
 34 31  1  0  0  0  0
 35 33  1  0  0  0  0
 35 29  2  0  0  0  0
 37 36  1  0  0  0  0
M  END
>  <MODEL>
1

>  <REMARK>
 VINA RESULT:      -9.1      0.000      0.000
  Name = 
  2 active torsions:
  status: ('A' for Active; 'I' for Inactive)
    1  A    between atoms: C_4  and  N_37
    2  A    between atoms: N_23  and  C_30
                            x       y       z     vdW  Elec       q    Type
                         _______ _______ _______ _____ _____    ______ ____

>  <TORSDO>
F 2

$$$$
=
 OpenBabel11112417253D

 37 43  0  0  1  0  0  0  0  0999 V2000
  189.3680  174.2110  140.8590 C   0  0  0  0  0  2  0  0  0  0  0  0
  186.6930  177.3900  143.1810 C   0  0  0  0  0  0  0  0  0  0  0  0
  190.3240  176.2090  144.9970 C   0  0  1  0  0  3  0  0  0  0  0  0
  189.1420  173.0650  139.8640 C   0  0  2  0  0  3  0  0  0  0  0  0
  192.4070  173.6250  143.3370 O   0  0  0  0  0  0  0  0  0  0  0  0
  188.2190  177.4980  145.1130 C   0  0  0  0  0  0  0  0  0  0  0  0
  190.5600  174.9790  144.2320 C   0  0  0  0  0  0  0  0  0  0  0  0
  191.7040  172.4450  139.8350 C   0  0  2  0  0  3  0  0  0  0  0  0
  189.3390  177.0400  144.2240 C   0  0  2  0  0  3  0  0  0  0  0  0
  191.6150  173.9050  144.4880 C   0  0  2  0  0  3  0  0  0  0  0  0
  188.4330  177.7200  146.3760 N   0  0  0  0  0  0  0  0  0  0  0  0
  190.2360  171.9760  139.8420 C   0  0  0  0  0  2  0  0  0  0  0  0
  188.8220  176.1010  143.2390 N   0  0  0  0  0  0  0  0  0  0  0  0
  187.1070  178.6080  142.3720 C   0  0  0  0  0  1  0  0  0  0  0  0
  191.0650  175.3940  147.2340 C   0  0  0  0  0  3  0  0  0  0  0  0
  189.7730  177.5570  146.9530 C   0  0  0  0  0  2  0  0  0  0  0  0
  187.4650  176.1560  142.6840 C   0  0  0  0  0  2  0  0  0  0  0  0
  192.3620  172.4070  141.2210 C   0  0  0  0  0  2  0  0  0  0  0  0
  191.6250  173.2980  142.2060 C   0  0  1  0  0  3  0  0  0  0  0  0
  190.4770  176.3830  146.3230 C   0  0  2  0  0  3  0  0  0  0  0  0
  189.6270  174.9240  143.2710 C   0  0  0  0  0  0  0  0  0  0  0  0
  186.9370  177.6270  144.5710 O   0  0  0  0  0  0  0  0  0  0  0  0
  192.4940  174.2290  145.6270 N   0  0  0  0  0  0  0  0  0  0  0  0
  185.2120  177.1560  142.9720 C   0  0  0  0  0  1  0  0  0  0  0  0
  190.3760  172.7380  142.5380 O   0  0  0  0  0  0  0  0  0  0  0  0
  191.8640  173.6940  139.2310 O   0  0  0  0  0  1  0  0  0  0  0  0
  189.4180  173.7520  142.3280 C   0  0  2  0  0  3  0  0  0  0  0  0
  191.9460  174.4440  146.9310 C   0  0  0  0  0  3  0  0  0  0  0  0
  194.8790  174.8200  145.6700 C   0  0  0  0  0  3  0  0  0  0  0  0
  193.8790  173.8390  145.6210 C   0  0  0  0  0  0  0  0  0  0  0  0
  194.2470  172.4840  145.6160 C   0  0  0  0  0  3  0  0  0  0  0  0
  195.9600  170.7430  145.6220 N   0  0  0  0  0  1  0  0  0  0  0  0
  196.5860  173.1030  145.6730 C   0  0  0  0  0  3  0  0  0  0  0  0
  195.5960  172.1180  145.6360 C   0  0  0  0  0  0  0  0  0  0  0  0
  196.2280  174.4540  145.6930 C   0  0  0  0  0  3  0  0  0  0  0  0
  187.9630  174.6580  138.6240 C   0  0  0  0  0  1  0  0  0  0  0  0
  188.9570  173.6030  138.5270 N   0  0  0  0  0  2  0  0  0  0  0  0
  2 22  1  0  0  0  0
  3  7  1  1  0  0  0
  3 20  1  0  0  0  0
  4 37  1  6  0  0  0
  4  1  1  0  0  0  0
  6 11  2  0  0  0  0
  7 10  1  0  0  0  0
  8 26  1  1  0  0  0
  8 12  1  0  0  0  0
  8 18  1  0  0  0  0
  9  3  1  0  0  0  0
  9  6  1  1  0  0  0
 10  5  1  6  0  0  0
 10 23  1  0  0  0  0
 11 16  1  0  0  0  0
 12  4  1  0  0  0  0
 13 21  1  0  0  0  0
 13  9  1  0  0  0  0
 14  2  1  0  0  0  0
 17  2  1  0  0  0  0
 17 13  1  0  0  0  0
 19 18  1  6  0  0  0
 19 25  1  0  0  0  0
 19  5  1  0  0  0  0
 20 16  1  1  0  0  0
 20 15  1  0  0  0  0
 21  7  2  0  0  0  0
 22  6  1  0  0  0  0
 23 28  1  0  0  0  0
 24  2  1  0  0  0  0
 27  1  1  6  0  0  0
 27 25  1  0  0  0  0
 27 21  1  0  0  0  0
 28 15  2  0  0  0  0
 29 35  1  0  0  0  0
 30 23  1  0  0  0  0
 30 29  2  0  0  0  0
 31 30  1  0  0  0  0
 31 34  2  0  0  0  0
 32 34  1  0  0  0  0
 33 35  2  0  0  0  0
 34 33  1  0  0  0  0
 37 36  1  0  0  0  0
M  END
>  <MODEL>
2

>  <REMARK>
 VINA RESULT:      -8.8      2.630      6.898
  Name = 
  2 active torsions:
  status: ('A' for Active; 'I' for Inactive)
    1  A    between atoms: C_4  and  N_37
    2  A    between atoms: N_23  and  C_30
                            x       y       z     vdW  Elec       q    Type
                         _______ _______ _______ _____ _____    ______ ____

>  <TORSDO>
F 2

$$$$
=
 OpenBabel11112417253D

 37 43  0  0  1  0  0  0  0  0999 V2000
  193.0410  171.9210  141.4010 C   0  0  0  0  0  2  0  0  0  0  0  0
  196.1310  173.1080  144.8210 C   0  0  0  0  0  0  0  0  0  0  0  0
  192.4700  175.2190  144.6910 C   0  0  0  0  0  0  0  0  0  0  0  0
  193.1040  171.3390  139.9820 C   0  0  2  0  0  3  0  0  0  0  0  0
  190.0580  174.4690  141.9720 O   0  0  0  0  0  0  0  0  0  0  0  0
  194.7040  174.9130  145.7030 C   0  0  0  0  0  0  0  0  0  0  0  0
  192.0740  174.8830  143.3200 C   0  0  0  0  0  0  0  0  0  0  0  0
  190.4910  171.5180  139.6810 C   0  0  2  0  0  3  0  0  0  0  0  0
  193.5070  174.2190  145.1200 C   0  0  2  0  0  3  0  0  0  0  0  0
  190.9210  175.4690  142.5080 C   0  0  2  0  0  3  0  0  0  0  0  0
  194.5650  176.0410  146.3320 N   0  0  0  0  0  0  0  0  0  0  0  0
  191.9000  171.6670  139.0730 C   0  0  0  0  0  2  0  0  0  0  0  0
  193.8810  173.5790  143.8670 N   0  0  0  0  0  0  0  0  0  0  0  0
  195.8190  171.9570  145.7620 C   0  0  0  0  0  1  0  0  0  0  0  0
  191.7350  177.6010  144.7100 C   0  0  0  0  0  3  0  0  0  0  0  0
  193.2400  176.6460  146.5140 C   0  0  0  0  0  2  0  0  0  0  0  0
  195.2130  173.0300  143.5900 C   0  0  0  0  0  2  0  0  0  0  0  0
  189.8890  172.8470  140.1560 C   0  0  0  0  0  2  0  0  0  0  0  0
  190.7550  173.4970  141.2200 C   0  0  1  0  0  3  0  0  0  0  0  0
  192.3900  176.4220  145.2890 C   0  0  0  0  0  0  0  0  0  0  0  0
  192.9570  173.9850  142.8590 C   0  0  0  0  0  0  0  0  0  0  0  0
  195.9700  174.3530  145.5080 O   0  0  0  0  0  0  0  0  0  0  0  0
  190.1280  176.4510  143.2710 N   0  0  0  0  0  0  0  0  0  0  0  0
  197.5700  172.9780  144.3660 C   0  0  0  0  0  1  0  0  0  0  0  0
  191.9490  173.9840  140.6540 O   0  0  0  0  0  0  0  0  0  0  0  0
  190.4420  170.5500  140.6870 O   0  0  0  0  0  1  0  0  0  0  0  0
  193.0010  173.4600  141.4350 C   0  0  2  0  0  3  0  0  0  0  0  0
  190.7460  177.6180  143.8200 C   0  0  0  0  0  3  0  0  0  0  0  0
  187.8210  176.2730  144.1010 C   0  0  0  0  0  3  0  0  0  0  0  0
  188.7100  176.5740  143.0590 C   0  0  0  0  0  0  0  0  0  0  0  0
  188.2000  177.0390  141.8360 C   0  0  0  0  0  3  0  0  0  0  0  0
  186.3130  177.6410  140.4070 N   0  0  0  0  0  1  0  0  0  0  0  0
  185.9430  176.8650  142.6920 C   0  0  0  0  0  3  0  0  0  0  0  0
  186.8220  177.1780  141.6520 C   0  0  0  0  0  0  0  0  0  0  0  0
  186.4420  176.4150  143.9180 C   0  0  0  0  0  3  0  0  0  0  0  0
  193.7840  169.5940  141.3810 C   0  0  0  0  0  1  0  0  0  0  0  0
  193.2930  169.9000  140.0490 N   0  0  0  0  0  2  0  0  0  0  0  0
  2 22  1  0  0  0  0
  2 14  1  0  0  0  0
  3 20  2  0  0  0  0
  4 37  1  1  0  0  0
  4  1  1  0  0  0  0
  6 11  2  0  0  0  0
  7  3  1  0  0  0  0
  8 18  1  0  0  0  0
  8 26  1  1  0  0  0
  9  3  1  6  0  0  0
  9  6  1  0  0  0  0
 10  5  1  1  0  0  0
 10 23  1  0  0  0  0
 10  7  1  0  0  0  0
 11 16  1  0  0  0  0
 12  8  1  0  0  0  0
 12  4  1  0  0  0  0
 13  9  1  0  0  0  0
 15 20  1  0  0  0  0
 17 13  1  0  0  0  0
 17  2  1  0  0  0  0
 19 18  1  6  0  0  0
 19  5  1  0  0  0  0
 20 16  1  0  0  0  0
 21  7  2  0  0  0  0
 21 13  1  0  0  0  0
 22  6  1  0  0  0  0
 23 28  1  0  0  0  0
 24  2  1  0  0  0  0
 25 19  1  0  0  0  0
 25 27  1  0  0  0  0
 27  1  1  1  0  0  0
 27 21  1  0  0  0  0
 28 15  2  0  0  0  0
 30 23  1  0  0  0  0
 30 29  2  0  0  0  0
 31 30  1  0  0  0  0
 32 34  1  0  0  0  0
 33 35  2  0  0  0  0
 34 31  2  0  0  0  0
 34 33  1  0  0  0  0
 35 29  1  0  0  0  0
 37 36  1  0  0  0  0
M  END
>  <MODEL>
3

>  <REMARK>
 VINA RESULT:      -8.2      3.171      7.554
  Name = 
  2 active torsions:
  status: ('A' for Active; 'I' for Inactive)
    1  A    between atoms: C_4  and  N_37
    2  A    between atoms: N_23  and  C_30
                            x       y       z     vdW  Elec       q    Type
                         _______ _______ _______ _____ _____    ______ ____

>  <TORSDO>
F 2

$$$$
=
 OpenBabel11112417253D

 37 43  0  0  1  0  0  0  0  0999 V2000
  188.3830  176.6540  143.8680 C   0  0  0  0  0  2  0  0  0  0  0  0
  191.9360  175.4110  146.7810 C   0  0  0  0  0  0  0  0  0  0  0  0
  191.9950  173.8310  142.8600 C   0  0  1  0  0  3  0  0  0  0  0  0
  186.9120  177.0700  144.0030 C   0  0  2  0  0  3  0  0  0  0  0  0
  189.1910  174.6220  140.5610 O   0  0  0  0  0  0  0  0  0  0  0  0
  192.9880  173.9260  145.1210 C   0  0  0  0  0  0  0  0  0  0  0  0
  190.5920  174.0740  142.5070 C   0  0  0  0  0  0  0  0  0  0  0  0
  186.6090  177.2280  141.3890 C   0  0  2  0  0  3  0  0  0  0  0  0
  192.3260  174.7160  144.0290 C   0  0  2  0  0  3  0  0  0  0  0  0
  189.8360  173.5720  141.2780 C   0  0  2  0  0  3  0  0  0  0  0  0
  193.7310  172.9000  144.8300 N   0  0  0  0  0  0  0  0  0  0  0  0
  186.0320  176.8210  142.7600 C   0  0  0  0  0  2  0  0  0  0  0  0
  191.0170  175.1620  144.4820 N   0  0  0  0  0  0  0  0  0  0  0  0
  192.7490  176.6860  146.6380 C   0  0  0  0  0  1  0  0  0  0  0  0
  192.2550  171.5890  141.7990 C   0  0  0  0  0  3  0  0  0  0  0  0
  193.9630  172.5090  143.4330 C   0  0  0  0  0  2  0  0  0  0  0  0
  190.6960  175.4870  145.8750 C   0  0  0  0  0  2  0  0  0  0  0  0
  187.2140  176.0530  140.6090 C   0  0  0  0  0  2  0  0  0  0  0  0
  188.3480  175.4030  141.3820 C   0  0  1  0  0  3  0  0  0  0  0  0
  192.7140  172.7200  142.6160 C   0  0  2  0  0  3  0  0  0  0  0  0
  190.0480  174.7860  143.5040 C   0  0  0  0  0  0  0  0  0  0  0  0
  192.7470  174.2790  146.4510 O   0  0  0  0  0  0  0  0  0  0  0  0
  190.6900  172.7960  140.3600 N   0  0  0  0  0  0  0  0  0  0  0  0
  191.4820  175.2910  148.2210 C   0  0  0  0  0  1  0  0  0  0  0  0
  187.8460  174.6980  142.4940 O   0  0  0  0  0  0  0  0  0  0  0  0
  187.5080  178.2930  141.4810 O   0  0  0  0  0  1  0  0  0  0  0  0
  188.5770  175.1480  143.6130 C   0  0  2  0  0  3  0  0  0  0  0  0
  191.3640  171.6180  140.8130 C   0  0  0  0  0  3  0  0  0  0  0  0
  189.5510  171.9880  138.3370 C   0  0  0  0  0  3  0  0  0  0  0  0
  190.4790  172.8510  138.9380 C   0  0  0  0  0  0  0  0  0  0  0  0
  191.1550  173.7910  138.1430 C   0  0  0  0  0  3  0  0  0  0  0  0
  191.6180  174.8000  135.9680 N   0  0  0  0  0  1  0  0  0  0  0  0
  190.0040  172.9790  136.1750 C   0  0  0  0  0  3  0  0  0  0  0  0
  190.9230  173.8510  136.7670 C   0  0  0  0  0  0  0  0  0  0  0  0
  189.3160  172.0500  136.9600 C   0  0  0  0  0  3  0  0  0  0  0  0
  185.4230  178.7800  144.5750 C   0  0  0  0  0  1  0  0  0  0  0  0
  186.8300  178.4680  144.3910 N   0  0  0  0  0  2  0  0  0  0  0  0
  1  4  1  0  0  0  0
  2 24  1  0  0  0  0
  3  7  1  1  0  0  0
  3  9  1  0  0  0  0
  4 37  1  6  0  0  0
  5 19  1  0  0  0  0
  6 22  1  0  0  0  0
  7 21  2  0  0  0  0
  8 26  1  1  0  0  0
  8 12  1  0  0  0  0
  9 13  1  0  0  0  0
  9  6  1  1  0  0  0
 10  5  1  6  0  0  0
 10  7  1  0  0  0  0
 11  6  2  0  0  0  0
 12  4  1  0  0  0  0
 13 17  1  0  0  0  0
 14  2  1  0  0  0  0
 16 11  1  0  0  0  0
 17  2  1  0  0  0  0
 18  8  1  0  0  0  0
 19 18  1  6  0  0  0
 19 25  1  0  0  0  0
 20 15  1  1  0  0  0
 20  3  1  0  0  0  0
 20 16  1  0  0  0  0
 21 27  1  0  0  0  0
 21 13  1  0  0  0  0
 22  2  1  0  0  0  0
 23 28  1  0  0  0  0
 23 10  1  0  0  0  0
 25 27  1  0  0  0  0
 27  1  1  6  0  0  0
 28 15  2  0  0  0  0
 29 30  1  0  0  0  0
 30 23  1  0  0  0  0
 31 30  2  0  0  0  0
 32 34  1  0  0  0  0
 33 34  2  0  0  0  0
 33 35  1  0  0  0  0
 34 31  1  0  0  0  0
 35 29  2  0  0  0  0
 37 36  1  0  0  0  0
M  END
>  <MODEL>
4

>  <REMARK>
 VINA RESULT:      -8.2      2.312      6.190
  Name = 
  2 active torsions:
  status: ('A' for Active; 'I' for Inactive)
    1  A    between atoms: C_4  and  N_37
    2  A    between atoms: N_23  and  C_30
                            x       y       z     vdW  Elec       q    Type
                         _______ _______ _______ _____ _____    ______ ____

>  <TORSDO>
F 2

$$$$
=
 OpenBabel11112417253D

 37 43  0  0  1  0  0  0  0  0999 V2000
  193.8880  174.3440  144.0440 C   0  0  0  0  0  2  0  0  0  0  0  0
  193.6760  171.5110  140.2250 C   0  0  0  0  0  0  0  0  0  0  0  0
  190.2680  173.8560  141.0970 C   0  0  1  0  0  3  0  0  0  0  0  0
  194.6170  174.3570  145.3950 C   0  0  2  0  0  3  0  0  0  0  0  0
  190.2800  175.9860  144.1370 O   0  0  0  0  0  0  0  0  0  0  0  0
  191.3460  172.1220  139.7060 C   0  0  0  0  0  0  0  0  0  0  0  0
  190.5770  174.1790  142.4940 C   0  0  0  0  0  0  0  0  0  0  0  0
  193.4060  176.5760  146.1440 C   0  0  2  0  0  3  0  0  0  0  0  0
  191.5450  173.4160  140.4410 C   0  0  2  0  0  3  0  0  0  0  0  0
  189.6710  174.8530  143.5230 C   0  0  2  0  0  3  0  0  0  0  0  0
  190.1930  171.8400  139.1760 N   0  0  0  0  0  0  0  0  0  0  0  0
  193.9350  175.1750  146.5120 C   0  0  0  0  0  2  0  0  0  0  0  0
  192.4340  173.1960  141.5720 N   0  0  0  0  0  0  0  0  0  0  0  0
  194.4640  172.4060  139.2850 C   0  0  0  0  0  1  0  0  0  0  0  0
  187.8140  173.4890  141.3440 C   0  0  0  0  0  3  0  0  0  0  0  0
  189.0740  172.7870  139.2580 C   0  0  0  0  0  2  0  0  0  0  0  0
  193.5180  172.2070  141.5870 C   0  0  0  0  0  2  0  0  0  0  0  0
  191.8990  176.6020  145.8580 C   0  0  0  0  0  2  0  0  0  0  0  0
  191.5400  175.6850  144.7020 C   0  0  1  0  0  3  0  0  0  0  0  0
  189.0760  173.4870  140.5940 C   0  0  2  0  0  3  0  0  0  0  0  0
  191.8110  173.7180  142.7450 C   0  0  0  0  0  0  0  0  0  0  0  0
  192.4010  171.2070  139.6500 O   0  0  0  0  0  0  0  0  0  0  0  0
  188.3610  175.2360  142.9650 N   0  0  0  0  0  0  0  0  0  0  0  0
  194.4480  170.2230  140.4220 C   0  0  0  0  0  1  0  0  0  0  0  0
  191.6700  174.3360  145.0850 O   0  0  0  0  0  0  0  0  0  0  0  0
  194.1310  177.1660  145.1060 O   0  0  0  0  0  1  0  0  0  0  0  0
  192.4810  173.7220  144.1080 C   0  0  2  0  0  3  0  0  0  0  0  0
  187.4990  174.2510  142.3870 C   0  0  0  0  0  3  0  0  0  0  0  0
  187.3710  177.4390  142.5070 C   0  0  0  0  0  3  0  0  0  0  0  0
  187.6870  176.4220  143.4210 C   0  0  0  0  0  0  0  0  0  0  0  0
  187.2940  176.5600  144.7620 C   0  0  0  0  0  3  0  0  0  0  0  0
  186.2310  177.8410  146.5480 N   0  0  0  0  0  1  0  0  0  0  0  0
  186.3170  178.7190  144.2710 C   0  0  0  0  0  3  0  0  0  0  0  0
  186.6170  177.7060  145.1860 C   0  0  0  0  0  0  0  0  0  0  0  0
  186.6920  178.5840  142.9320 C   0  0  0  0  0  3  0  0  0  0  0  0
  196.8560  173.7940  145.7630 C   0  0  0  0  0  1  0  0  0  0  0  0
  195.9830  174.8170  145.2120 N   0  0  0  0  0  2  0  0  0  0  0  0
  1  4  1  0  0  0  0
  2 24  1  0  0  0  0
  2 17  1  0  0  0  0
  3  7  1  1  0  0  0
  4 37  1  6  0  0  0
  4 12  1  0  0  0  0
  5 19  1  0  0  0  0
  7 21  2  0  0  0  0
  8 26  1  6  0  0  0
  8 12  1  0  0  0  0
  9  6  1  1  0  0  0
  9  3  1  0  0  0  0
  9 13  1  0  0  0  0
 10  7  1  6  0  0  0
 10  5  1  0  0  0  0
 11 16  1  0  0  0  0
 11  6  2  0  0  0  0
 13 17  1  0  0  0  0
 13 21  1  0  0  0  0
 14  2  1  0  0  0  0
 15 28  2  0  0  0  0
 18  8  1  0  0  0  0
 19 25  1  0  0  0  0
 19 18  1  1  0  0  0
 20 16  1  1  0  0  0
 20  3  1  0  0  0  0
 20 15  1  0  0  0  0
 21 27  1  0  0  0  0
 22  6  1  0  0  0  0
 22  2  1  0  0  0  0
 23 30  1  0  0  0  0
 23 10  1  0  0  0  0
 27  1  1  6  0  0  0
 27 25  1  0  0  0  0
 28 23  1  0  0  0  0
 29 35  2  0  0  0  0
 29 30  1  0  0  0  0
 30 31  2  0  0  0  0
 31 34  1  0  0  0  0
 33 34  2  0  0  0  0
 34 32  1  0  0  0  0
 35 33  1  0  0  0  0
 37 36  1  0  0  0  0
M  END
>  <MODEL>
5

>  <REMARK>
 VINA RESULT:      -8.2      2.900      7.277
  Name = 
  2 active torsions:
  status: ('A' for Active; 'I' for Inactive)
    1  A    between atoms: C_4  and  N_37
    2  A    between atoms: N_23  and  C_30
                            x       y       z     vdW  Elec       q    Type
                         _______ _______ _______ _____ _____    ______ ____

>  <TORSDO>
F 2

$$$$
=
 OpenBabel11112417253D

 37 43  0  0  1  0  0  0  0  0999 V2000
  192.4290  172.7120  140.3270 C   0  0  0  0  0  2  0  0  0  0  0  0
  196.9200  172.3870  141.8720 C   0  0  0  0  0  0  0  0  0  0  0  0
  194.0790  174.0900  144.4990 C   0  0  1  0  0  3  0  0  0  0  0  0
  191.7130  172.8500  138.9770 C   0  0  2  0  0  3  0  0  0  0  0  0
  190.5830  174.5230  143.3320 O   0  0  0  0  0  0  0  0  0  0  0  0
  196.4280  173.4930  144.0170 C   0  0  0  0  0  0  0  0  0  0  0  0
  193.0320  174.3970  143.5190 C   0  0  0  0  0  0  0  0  0  0  0  0
  189.3460  172.9850  140.1310 C   0  0  2  0  0  3  0  0  0  0  0  0
  194.9940  173.0720  143.8810 C   0  0  2  0  0  3  0  0  0  0  0  0
  191.7620  175.2180  143.7310 C   0  0  2  0  0  3  0  0  0  0  0  0
  196.8100  174.1970  145.0420 N   0  0  0  0  0  0  0  0  0  0  0  0
  190.3050  173.4830  139.0320 C   0  0  0  0  0  2  0  0  0  0  0  0
  194.6140  173.1020  142.4760 N   0  0  0  0  0  0  0  0  0  0  0  0
  196.8810  170.9160  142.2480 C   0  0  0  0  0  1  0  0  0  0  0  0
  193.8870  176.1490  145.8940 C   0  0  0  0  0  3  0  0  0  0  0  0
  195.8590  174.5670  146.0980 C   0  0  0  0  0  2  0  0  0  0  0  0
  195.5350  172.8250  141.3680 C   0  0  0  0  0  2  0  0  0  0  0  0
  189.2890  173.9080  141.3550 C   0  0  0  0  0  2  0  0  0  0  0  0
  190.6560  174.0500  142.0030 C   0  0  1  0  0  3  0  0  0  0  0  0
  194.5090  174.8780  145.5030 C   0  0  2  0  0  3  0  0  0  0  0  0
  193.4160  173.8670  142.3490 C   0  0  0  0  0  0  0  0  0  0  0  0
  197.3290  173.1660  143.0000 O   0  0  0  0  0  0  0  0  0  0  0  0
  191.6130  175.6890  145.1200 N   0  0  0  0  0  0  0  0  0  0  0  0
  197.9260  172.5690  140.7550 C   0  0  0  0  0  1  0  0  0  0  0  0
  191.5110  174.8150  141.1860 O   0  0  0  0  0  0  0  0  0  0  0  0
  189.5980  171.6630  140.5030 O   0  0  0  0  0  1  0  0  0  0  0  0
  192.6910  174.0580  141.0280 C   0  0  2  0  0  3  0  0  0  0  0  0
  192.6180  176.5100  145.7230 C   0  0  0  0  0  3  0  0  0  0  0  0
  189.9410  174.9410  146.7590 C   0  0  0  0  0  3  0  0  0  0  0  0
  190.3110  175.8080  145.7210 C   0  0  0  0  0  0  0  0  0  0  0  0
  189.4180  176.8130  145.3160 C   0  0  0  0  0  3  0  0  0  0  0  0
  187.2640  177.9480  145.5020 N   0  0  0  0  0  1  0  0  0  0  0  0
  187.8010  176.0570  146.9510 C   0  0  0  0  0  3  0  0  0  0  0  0
  188.1660  176.9330  145.9250 C   0  0  0  0  0  0  0  0  0  0  0  0
  188.6890  175.0630  147.3700 C   0  0  0  0  0  3  0  0  0  0  0  0
  191.2470  171.7940  136.9440 C   0  0  0  0  0  1  0  0  0  0  0  0
  191.6440  171.5560  138.3210 N   0  0  0  0  0  2  0  0  0  0  0  0
  2 14  1  0  0  0  0
  2 22  1  0  0  0  0
  3  7  1  6  0  0  0
  3 20  1  0  0  0  0
  4 37  1  1  0  0  0
  4 12  1  0  0  0  0
  4  1  1  0  0  0  0
  6 11  2  0  0  0  0
  7 10  1  0  0  0  0
  8 26  1  1  0  0  0
  8 18  1  0  0  0  0
  9  6  1  6  0  0  0
  9  3  1  0  0  0  0
 10  5  1  1  0  0  0
 10 23  1  0  0  0  0
 11 16  1  0  0  0  0
 12  8  1  0  0  0  0
 13  9  1  0  0  0  0
 17  2  1  0  0  0  0
 17 13  1  0  0  0  0
 19 18  1  6  0  0  0
 19  5  1  0  0  0  0
 20 15  1  6  0  0  0
 20 16  1  0  0  0  0
 21 13  1  0  0  0  0
 21  7  2  0  0  0  0
 22  6  1  0  0  0  0
 23 30  1  0  0  0  0
 23 28  1  0  0  0  0
 24  2  1  0  0  0  0
 25 19  1  0  0  0  0
 27  1  1  1  0  0  0
 27 25  1  0  0  0  0
 27 21  1  0  0  0  0
 28 15  2  0  0  0  0
 29 35  1  0  0  0  0
 30 29  2  0  0  0  0
 31 30  1  0  0  0  0
 31 34  2  0  0  0  0
 32 34  1  0  0  0  0
 33 35  2  0  0  0  0
 34 33  1  0  0  0  0
 36 37  1  0  0  0  0
M  END
>  <MODEL>
6

>  <REMARK>
 VINA RESULT:      -8.0      3.410      9.181
  Name = 
  2 active torsions:
  status: ('A' for Active; 'I' for Inactive)
    1  A    between atoms: C_4  and  N_37
    2  A    between atoms: N_23  and  C_30
                            x       y       z     vdW  Elec       q    Type
                         _______ _______ _______ _____ _____    ______ ____

>  <TORSDO>
F 2

$$$$
=
 OpenBabel11112417253D

 37 43  0  0  1  0  0  0  0  0999 V2000
  187.3050  177.4670  144.6300 C   0  0  0  0  0  2  0  0  0  0  0  0
  191.2580  175.5320  146.4430 C   0  0  0  0  0  0  0  0  0  0  0  0
  190.4880  174.8920  142.3350 C   0  0  1  0  0  3  0  0  0  0  0  0
  185.9130  177.8640  145.1400 C   0  0  2  0  0  3  0  0  0  0  0  0
  187.3570  176.2350  140.8620 O   0  0  0  0  0  0  0  0  0  0  0  0
  191.8900  174.4500  144.3210 C   0  0  0  0  0  0  0  0  0  0  0  0
  189.0610  175.2320  142.3250 C   0  0  0  0  0  0  0  0  0  0  0  0
  185.1360  178.6220  142.7370 C   0  0  2  0  0  3  0  0  0  0  0  0
  191.0840  175.4790  143.5820 C   0  0  2  0  0  3  0  0  0  0  0  0
  188.0590  175.0380  141.1890 C   0  0  2  0  0  3  0  0  0  0  0  0
  192.5020  173.5060  143.6700 N   0  0  0  0  0  0  0  0  0  0  0  0
  184.8020  177.9210  144.0690 C   0  0  0  0  0  2  0  0  0  0  0  0
  189.9120  175.8310  144.3700 N   0  0  0  0  0  0  0  0  0  0  0  0
  192.1050  176.7920  146.4300 C   0  0  0  0  0  1  0  0  0  0  0  0
  190.4100  172.9500  140.7730 C   0  0  0  0  0  3  0  0  0  0  0  0
  192.4450  173.4420  142.2040 C   0  0  0  0  0  2  0  0  0  0  0  0
  189.8770  175.8330  145.8370 C   0  0  0  0  0  2  0  0  0  0  0  0
  185.5130  177.6470  141.6130 C   0  0  0  0  0  2  0  0  0  0  0  0
  186.7300  176.8200  141.9860 C   0  0  1  0  0  3  0  0  0  0  0  0
  191.0810  173.8560  141.7140 C   0  0  2  0  0  3  0  0  0  0  0  0
  188.7570  175.7050  143.5420 C   0  0  0  0  0  0  0  0  0  0  0  0
  191.9240  174.4930  145.7170 O   0  0  0  0  0  0  0  0  0  0  0  0
  188.6780  174.4790  139.9730 N   0  0  0  0  0  0  0  0  0  0  0  0
  191.0750  175.0910  147.8800 C   0  0  0  0  0  1  0  0  0  0  0  0
  186.4040  175.8860  142.9890 O   0  0  0  0  0  0  0  0  0  0  0  0
  186.0990  179.6230  142.8860 O   0  0  0  0  0  1  0  0  0  0  0  0
  187.3570  176.0560  144.0150 C   0  0  2  0  0  3  0  0  0  0  0  0
  189.3530  173.2180  140.0110 C   0  0  0  0  0  3  0  0  0  0  0  0
  187.0660  175.6660  138.5460 C   0  0  0  0  0  3  0  0  0  0  0  0
  188.2100  174.8620  138.6670 C   0  0  0  0  0  0  0  0  0  0  0  0
  188.9080  174.4840  137.5090 C   0  0  0  0  0  3  0  0  0  0  0  0
  189.1650  174.4890  135.0800 N   0  0  0  0  0  1  0  0  0  0  0  0
  187.3090  175.6750  136.1370 C   0  0  0  0  0  3  0  0  0  0  0  0
  188.4560  174.8840  136.2490 C   0  0  0  0  0  0  0  0  0  0  0  0
  186.6160  176.0680  137.2840 C   0  0  0  0  0  3  0  0  0  0  0  0
  185.8550  178.8560  147.2570 C   0  0  0  0  0  1  0  0  0  0  0  0
  185.9890  179.1370  145.8370 N   0  0  0  0  0  2  0  0  0  0  0  0
  1  4  1  0  0  0  0
  2 24  1  0  0  0  0
  3  7  1  1  0  0  0
  3  9  1  0  0  0  0
  4 37  1  6  0  0  0
  5 19  1  0  0  0  0
  6 22  1  0  0  0  0
  7 21  2  0  0  0  0
  8 26  1  1  0  0  0
  8 12  1  0  0  0  0
  9  6  1  1  0  0  0
  9 13  1  0  0  0  0
 10  5  1  6  0  0  0
 10  7  1  0  0  0  0
 11  6  2  0  0  0  0
 12  4  1  0  0  0  0
 13 17  1  0  0  0  0
 14  2  1  0  0  0  0
 16 11  1  0  0  0  0
 17  2  1  0  0  0  0
 18  8  1  0  0  0  0
 19 18  1  6  0  0  0
 19 25  1  0  0  0  0
 20 15  1  1  0  0  0
 20 16  1  0  0  0  0
 20  3  1  0  0  0  0
 21 27  1  0  0  0  0
 21 13  1  0  0  0  0
 22  2  1  0  0  0  0
 23 28  1  0  0  0  0
 23 10  1  0  0  0  0
 25 27  1  0  0  0  0
 27  1  1  6  0  0  0
 28 15  2  0  0  0  0
 29 30  1  0  0  0  0
 30 23  1  0  0  0  0
 31 30  2  0  0  0  0
 32 34  1  0  0  0  0
 33 34  2  0  0  0  0
 33 35  1  0  0  0  0
 34 31  1  0  0  0  0
 35 29  2  0  0  0  0
 37 36  1  0  0  0  0
M  END
>  <MODEL>
7

>  <REMARK>
 VINA RESULT:      -8.0      1.822      5.517
  Name = 
  2 active torsions:
  status: ('A' for Active; 'I' for Inactive)
    1  A    between atoms: C_4  and  N_37
    2  A    between atoms: N_23  and  C_30
                            x       y       z     vdW  Elec       q    Type
                         _______ _______ _______ _____ _____    ______ ____

>  <TORSDO>
F 2

$$$$
=
 OpenBabel11112417253D

 37 43  0  0  1  0  0  0  0  0999 V2000
  191.3600  172.6240  140.8950 C   0  0  0  0  0  2  0  0  0  0  0  0
  194.3000  172.6950  144.6370 C   0  0  0  0  0  0  0  0  0  0  0  0
  190.8720  175.1630  144.8120 C   0  0  0  0  0  0  0  0  0  0  0  0
  191.4670  172.3640  139.3860 C   0  0  2  0  0  3  0  0  0  0  0  0
  188.5960  175.2900  141.8830 O   0  0  0  0  0  0  0  0  0  0  0  0
  192.9910  174.4050  145.8330 C   0  0  0  0  0  0  0  0  0  0  0  0
  190.5430  175.1800  143.3830 C   0  0  0  0  0  0  0  0  0  0  0  0
  188.9100  172.8830  139.0100 C   0  0  2  0  0  3  0  0  0  0  0  0
  191.7770  173.9880  145.0540 C   0  0  2  0  0  3  0  0  0  0  0  0
  189.5100  176.0500  142.6710 C   0  0  2  0  0  3  0  0  0  0  0  0
  192.9150  175.3760  146.6940 N   0  0  0  0  0  0  0  0  0  0  0  0
  190.3660  173.0100  138.5180 C   0  0  0  0  0  2  0  0  0  0  0  0
  192.1770  173.6020  143.7080 N   0  0  0  0  0  0  0  0  0  0  0  0
  193.8160  171.4060  145.2790 C   0  0  0  0  0  1  0  0  0  0  0  0
  190.3650  177.5480  145.3320 C   0  0  0  0  0  3  0  0  0  0  0  0
  191.6430  176.0650  146.9430 C   0  0  0  0  0  2  0  0  0  0  0  0
  193.4670  172.9880  143.3780 C   0  0  0  0  0  2  0  0  0  0  0  0
  188.4030  174.1330  139.7420 C   0  0  0  0  0  2  0  0  0  0  0  0
  189.2500  174.4370  140.9650 C   0  0  1  0  0  3  0  0  0  0  0  0
  190.8630  176.2070  145.6610 C   0  0  0  0  0  0  0  0  0  0  0  0
  191.3680  174.3160  142.7750 C   0  0  0  0  0  0  0  0  0  0  0  0
  194.2090  173.7700  145.5780 O   0  0  0  0  0  0  0  0  0  0  0  0
  188.7610  176.9200  143.5960 N   0  0  0  0  0  0  0  0  0  0  0  0
  195.7490  172.5140  144.2330 C   0  0  0  0  0  1  0  0  0  0  0  0
  190.5220  174.9050  140.5810 O   0  0  0  0  0  0  0  0  0  0  0  0
  188.6990  171.7300  139.7690 O   0  0  0  0  0  1  0  0  0  0  0  0
  191.4620  174.1140  141.2720 C   0  0  2  0  0  3  0  0  0  0  0  0
  189.4470  177.8650  144.4230 C   0  0  0  0  0  3  0  0  0  0  0  0
  186.4620  177.2250  144.4120 C   0  0  0  0  0  3  0  0  0  0  0  0
  187.3790  177.2380  143.3500 C   0  0  0  0  0  0  0  0  0  0  0  0
  186.9400  177.6100  142.0700 C   0  0  0  0  0  3  0  0  0  0  0  0
  185.1630  178.3090  140.5470 N   0  0  0  0  0  1  0  0  0  0  0  0
  184.6920  177.9140  142.9110 C   0  0  0  0  0  3  0  0  0  0  0  0
  185.6010  177.9410  141.8500 C   0  0  0  0  0  0  0  0  0  0  0  0
  185.1230  177.5590  144.1920 C   0  0  0  0  0  3  0  0  0  0  0  0
  191.8680  170.2910  140.3900 C   0  0  0  0  0  1  0  0  0  0  0  0
  191.5140  170.9330  139.1360 N   0  0  0  0  0  2  0  0  0  0  0  0
  2 14  1  0  0  0  0
  2 22  1  0  0  0  0
  3 20  2  0  0  0  0
  4 37  1  1  0  0  0
  4  1  1  0  0  0  0
  6 11  2  0  0  0  0
  7  3  1  0  0  0  0
  8 18  1  0  0  0  0
  8 26  1  1  0  0  0
  9  3  1  6  0  0  0
  9  6  1  0  0  0  0
 10  5  1  1  0  0  0
 10  7  1  0  0  0  0
 10 23  1  0  0  0  0
 11 16  1  0  0  0  0
 12  8  1  0  0  0  0
 12  4  1  0  0  0  0
 13  9  1  0  0  0  0
 15 20  1  0  0  0  0
 17 13  1  0  0  0  0
 17  2  1  0  0  0  0
 19 18  1  6  0  0  0
 19  5  1  0  0  0  0
 20 16  1  0  0  0  0
 21  7  2  0  0  0  0
 21 13  1  0  0  0  0
 22  6  1  0  0  0  0
 23 28  1  0  0  0  0
 24  2  1  0  0  0  0
 25 19  1  0  0  0  0
 25 27  1  0  0  0  0
 27  1  1  1  0  0  0
 27 21  1  0  0  0  0
 28 15  2  0  0  0  0
 30 23  1  0  0  0  0
 30 29  2  0  0  0  0
 31 30  1  0  0  0  0
 32 34  1  0  0  0  0
 33 35  2  0  0  0  0
 34 31  2  0  0  0  0
 34 33  1  0  0  0  0
 35 29  1  0  0  0  0
 37 36  1  0  0  0  0
M  END
>  <MODEL>
8

>  <REMARK>
 VINA RESULT:      -7.9      2.331      7.007
  Name = 
  2 active torsions:
  status: ('A' for Active; 'I' for Inactive)
    1  A    between atoms: C_4  and  N_37
    2  A    between atoms: N_23  and  C_30
                            x       y       z     vdW  Elec       q    Type
                         _______ _______ _______ _____ _____    ______ ____

>  <TORSDO>
F 2

$$$$
=
 OpenBabel11112417253D

 37 43  0  0  1  0  0  0  0  0999 V2000
  189.3160  175.5160  143.4930 C   0  0  0  0  0  2  0  0  0  0  0  0
  188.6720  173.7700  139.1120 C   0  0  0  0  0  0  0  0  0  0  0  0
  192.3850  173.0040  140.9830 C   0  0  0  0  0  0  0  0  0  0  0  0
  188.8050  176.7070  144.3140 C   0  0  2  0  0  3  0  0  0  0  0  0
  193.0390  174.4470  144.3390 O   0  0  0  0  0  0  0  0  0  0  0  0
  190.9450  172.8280  138.9830 C   0  0  0  0  0  0  0  0  0  0  0  0
  192.3230  174.0380  142.0220 C   0  0  0  0  0  0  0  0  0  0  0  0
  190.3250  176.0730  146.3720 C   0  0  2  0  0  3  0  0  0  0  0  0
  190.9860  172.7800  140.4830 C   0  0  2  0  0  3  0  0  0  0  0  0
  193.4350  174.4800  142.9700 C   0  0  2  0  0  3  0  0  0  0  0  0
  191.9720  172.4400  138.2860 N   0  0  0  0  0  0  0  0  0  0  0  0
  189.7240  177.1660  145.4660 C   0  0  0  0  0  2  0  0  0  0  0  0
  190.2610  173.9220  141.0220 N   0  0  0  0  0  0  0  0  0  0  0  0
  187.8420  172.5630  139.5120 C   0  0  0  0  0  1  0  0  0  0  0  0
  194.8010  173.2160  140.4020 C   0  0  0  0  0  3  0  0  0  0  0  0
  193.1780  171.9220  138.9460 C   0  0  0  0  0  2  0  0  0  0  0  0
  189.1010  174.5410  140.3710 C   0  0  0  0  0  2  0  0  0  0  0  0
  191.7670  175.7010  146.0040 C   0  0  0  0  0  2  0  0  0  0  0  0
  191.8560  175.1810  144.5800 C   0  0  1  0  0  3  0  0  0  0  0  0
  193.4460  172.6810  140.2200 C   0  0  0  0  0  0  0  0  0  0  0  0
  191.1020  174.5890  141.9620 C   0  0  0  0  0  0  0  0  0  0  0  0
  189.8100  173.3460  138.3530 O   0  0  0  0  0  0  0  0  0  0  0  0
  194.6770  173.7050  142.7940 N   0  0  0  0  0  0  0  0  0  0  0  0
  187.8160  174.6770  138.2520 C   0  0  0  0  0  1  0  0  0  0  0  0
  191.6550  176.2280  143.6590 O   0  0  0  0  0  0  0  0  0  0  0  0
  189.5130  174.9400  146.4550 O   0  0  0  0  0  1  0  0  0  0  0  0
  190.6490  175.7900  142.7720 C   0  0  2  0  0  3  0  0  0  0  0  0
  195.3420  173.6710  141.5280 C   0  0  0  0  0  3  0  0  0  0  0  0
  196.2900  174.4320  144.5000 C   0  0  0  0  0  3  0  0  0  0  0  0
  195.5250  173.4100  143.9190 C   0  0  0  0  0  0  0  0  0  0  0  0
  195.5620  172.1230  144.4780 C   0  0  0  0  0  3  0  0  0  0  0  0
  196.4090  170.5470  146.1410 N   0  0  0  0  0  1  0  0  0  0  0  0
  197.1390  172.8780  146.1520 C   0  0  0  0  0  3  0  0  0  0  0  0
  196.3710  171.8570  145.5860 C   0  0  0  0  0  0  0  0  0  0  0  0
  197.0970  174.1660  145.6110 C   0  0  0  0  0  3  0  0  0  0  0  0
  186.9870  177.6300  145.4590 C   0  0  0  0  0  1  0  0  0  0  0  0
  187.4780  176.4160  144.8300 N   0  0  0  0  0  2  0  0  0  0  0  0
  1  4  1  0  0  0  0
  2 14  1  0  0  0  0
  2 17  1  0  0  0  0
  3  7  1  0  0  0  0
  4 37  1  1  0  0  0
  4 12  1  0  0  0  0
  5 19  1  0  0  0  0
  8 26  1  6  0  0  0
  9  6  1  6  0  0  0
  9  3  1  0  0  0  0
  9 13  1  0  0  0  0
 10  7  1  6  0  0  0
 10  5  1  0  0  0  0
 11 16  1  0  0  0  0
 11  6  2  0  0  0  0
 12  8  1  0  0  0  0
 13 21  1  0  0  0  0
 15 28  2  0  0  0  0
 16 20  1  0  0  0  0
 17 13  1  0  0  0  0
 18  8  1  0  0  0  0
 19 18  1  1  0  0  0
 20 15  1  0  0  0  0
 20  3  2  0  0  0  0
 21  7  2  0  0  0  0
 21 27  1  0  0  0  0
 22  6  1  0  0  0  0
 22  2  1  0  0  0  0
 23 10  1  0  0  0  0
 23 30  1  0  0  0  0
 24  2  1  0  0  0  0
 25 19  1  0  0  0  0
 27  1  1  1  0  0  0
 27 25  1  0  0  0  0
 28 23  1  0  0  0  0
 29 35  1  0  0  0  0
 30 31  1  0  0  0  0
 30 29  2  0  0  0  0
 31 34  2  0  0  0  0
 34 32  1  0  0  0  0
 34 33  1  0  0  0  0
 35 33  2  0  0  0  0
 37 36  1  0  0  0  0
M  END
>  <MODEL>
9

>  <REMARK>
 VINA RESULT:      -7.7      3.241      8.265
  Name = 
  2 active torsions:
  status: ('A' for Active; 'I' for Inactive)
    1  A    between atoms: C_4  and  N_37
    2  A    between atoms: N_23  and  C_30
                            x       y       z     vdW  Elec       q    Type
                         _______ _______ _______ _____ _____    ______ ____

>  <TORSDO>
F 2

$$$$
