=
 OpenBabel11112417063D

 31 35  0  0  1  0  0  0  0  0999 V2000
  190.7120  172.0260  142.3560 C   0  0  2  0  0  3  0  0  0  0  0  0
  191.8330  174.1760  145.3740 C   0  0  2  0  0  3  0  0  0  0  0  0
  192.8800  175.2620  145.5120 C   0  0  0  0  0  0  0  0  0  0  0  0
  194.9400  176.3210  144.7820 C   0  0  0  0  0  0  0  0  0  0  0  0
  191.5550  173.8000  143.9100 C   0  0  1  0  0  3  0  0  0  0  0  0
  189.7740  173.0340  141.7000 C   0  0  0  0  0  2  0  0  0  0  0  0
  193.9640  175.3340  144.6260 C   0  0  0  0  0  3  0  0  0  0  0  0
  189.6940  175.5710  145.4010 C   0  0  2  0  0  3  0  0  0  0  0  0
  190.1470  170.7540  142.2880 O   0  0  0  0  0  1  0  0  0  0  0  0
  191.7650  176.0880  147.5160 O   0  0  0  0  0  0  0  0  0  0  0  0
  196.0770  176.3990  143.8280 C   0  0  0  0  0  1  0  0  0  0  0  0
  189.3830  175.1100  143.9800 C   0  0  0  0  0  2  0  0  0  0  0  0
  190.5290  174.5100  146.1360 C   0  0  2  0  0  3  0  0  0  0  0  0
  190.9470  172.3990  143.8150 C   0  0  0  0  0  2  0  0  0  0  0  0
  194.8480  177.2360  145.8340 C   0  0  0  0  0  3  0  0  0  0  0  0
  190.6760  174.8540  143.2080 C   0  0  2  0  0  3  0  0  0  0  0  0
  190.3760  174.4380  141.7660 C   0  0  0  0  0  2  0  0  0  0  0  0
  190.8770  174.9700  147.5530 C   0  0  0  0  0  2  0  0  0  0  0  0
  192.8120  176.1640  146.5930 C   0  0  0  0  0  0  0  0  0  0  0  0
  193.7860  177.1570  146.7390 C   0  0  0  0  0  3  0  0  0  0  0  0
  189.1020  177.8870  146.9590 O   0  0  0  0  0  0  0  0  0  0  0  0
  188.2110  176.9980  146.8700 C   0  0  0  0  0  0  0  0  0  0  0  0
  188.4480  175.8090  146.1160 N   0  0  0  0  0  2  0  0  0  0  0  0
  184.6240  178.4980  146.3480 C   0  0  0  0  0  0  0  0  0  0  0  0
  185.8170  176.4220  146.8270 C   0  0  0  0  0  3  0  0  0  0  0  0
  187.2870  179.3550  148.4730 O   0  0  0  0  0  0  0  0  0  0  0  0
  183.5300  179.1270  145.6920 N   0  0  0  0  0  1  0  0  0  0  0  0
  184.7800  177.0380  146.2570 C   0  0  0  0  0  3  0  0  0  0  0  0
  186.5690  178.6340  147.7310 C   0  0  0  0  0  0  0  0  0  0  0  0
  186.8980  177.1720  147.5630 C   0  0  2  0  0  3  0  0  0  0  0  0
  185.4540  179.2140  147.0450 N   0  0  0  0  0  0  0  0  0  0  0  0
  1  9  1  1  0  0  0
  1 14  1  0  0  0  0
  2  3  1  6  0  0  0
  2 13  1  0  0  0  0
  3 19  1  0  0  0  0
  4 15  2  0  0  0  0
  5 14  1  1  0  0  0
  5  2  1  0  0  0  0
  6 17  1  0  0  0  0
  6  1  1  0  0  0  0
  7  4  1  0  0  0  0
  7  3  2  0  0  0  0
  8 23  1  1  0  0  0
  8 13  1  0  0  0  0
 10 18  1  0  0  0  0
 11  4  1  0  0  0  0
 12  8  1  0  0  0  0
 13 18  1  1  0  0  0
 15 20  1  0  0  0  0
 16 17  1  6  0  0  0
 16  5  1  0  0  0  0
 16 12  1  0  0  0  0
 19 20  2  0  0  0  0
 19 10  1  0  0  0  0
 22 21  2  0  0  0  0
 23 22  1  0  0  0  0
 24 31  2  0  0  0  0
 25 30  1  0  0  0  0
 27 24  1  0  0  0  0
 28 24  1  0  0  0  0
 28 25  2  0  0  0  0
 29 26  2  0  0  0  0
 30 22  1  6  0  0  0
 30 29  1  0  0  0  0
 31 29  1  0  0  0  0
M  END
>  <MODEL>
1

>  <REMARK>
 VINA RESULT:      -8.2      0.000      0.000
  Name = 
  2 active torsions:
  status: ('A' for Active; 'I' for Inactive)
    1  A    between atoms: C_5  and  C_30
    2  A    between atoms: C_10  and  N_16
                            x       y       z     vdW  Elec       q    Type
                         _______ _______ _______ _____ _____    ______ ____

>  <TORSDO>
F 2

$$$$
=
 OpenBabel11112417063D

 31 35  0  0  1  0  0  0  0  0999 V2000
  188.4760  173.8420  140.5850 C   0  0  2  0  0  3  0  0  0  0  0  0
  189.4060  176.3300  143.4020 C   0  0  2  0  0  3  0  0  0  0  0  0
  188.6970  176.7260  144.6800 C   0  0  0  0  0  0  0  0  0  0  0  0
  186.6610  176.9710  145.9820 C   0  0  0  0  0  0  0  0  0  0  0  0
  188.7810  175.0960  142.7320 C   0  0  1  0  0  3  0  0  0  0  0  0
  188.9420  172.5570  141.2610 C   0  0  0  0  0  2  0  0  0  0  0  0
  187.3080  176.5730  144.8110 C   0  0  0  0  0  3  0  0  0  0  0  0
  191.2720  174.8550  144.3310 C   0  0  2  0  0  3  0  0  0  0  0  0
  188.8170  173.8080  139.2350 O   0  0  0  0  0  1  0  0  0  0  0  0
  190.8020  177.5360  145.6030 O   0  0  0  0  0  0  0  0  0  0  0  0
  185.1910  176.7910  146.1170 C   0  0  0  0  0  1  0  0  0  0  0  0
  190.6930  173.6600  143.5800 C   0  0  0  0  0  2  0  0  0  0  0  0
  190.9310  176.1630  143.5990 C   0  0  2  0  0  3  0  0  0  0  0  0
  189.1340  175.0500  141.2440 C   0  0  0  0  0  2  0  0  0  0  0  0
  187.3930  177.5380  147.0290 C   0  0  0  0  0  3  0  0  0  0  0  0
  189.1760  173.7930  143.4540 C   0  0  2  0  0  3  0  0  0  0  0  0
  188.5780  172.5760  142.7460 C   0  0  0  0  0  2  0  0  0  0  0  0
  191.4770  177.3740  144.3560 C   0  0  0  0  0  2  0  0  0  0  0  0
  189.4240  177.3330  145.7240 C   0  0  0  0  0  0  0  0  0  0  0  0
  188.7720  177.7200  146.8990 C   0  0  0  0  0  3  0  0  0  0  0  0
  192.7610  174.9160  146.7660 O   0  0  0  0  0  0  0  0  0  0  0  0
  193.4000  174.7330  145.6920 C   0  0  0  0  0  0  0  0  0  0  0  0
  192.7160  174.7040  144.4390 N   0  0  0  0  0  2  0  0  0  0  0  0
  196.4790  174.1700  143.3280 C   0  0  0  0  0  0  0  0  0  0  0  0
  195.5560  175.6970  144.9950 C   0  0  0  0  0  3  0  0  0  0  0  0
  194.9360  172.1610  145.7620 O   0  0  0  0  0  0  0  0  0  0  0  0
  197.2160  174.0170  142.1220 N   0  0  0  0  0  1  0  0  0  0  0  0
  196.2770  175.5160  143.8880 C   0  0  0  0  0  3  0  0  0  0  0  0
  195.2750  173.2120  145.1580 C   0  0  0  0  0  0  0  0  0  0  0  0
  194.8840  174.5570  145.7180 C   0  0  2  0  0  3  0  0  0  0  0  0
  196.0190  173.1190  143.9380 N   0  0  0  0  0  0  0  0  0  0  0  0
  1  9  1  6  0  0  0
  1 14  1  0  0  0  0
  1  6  1  0  0  0  0
  2 13  1  0  0  0  0
  2  3  1  1  0  0  0
  3  7  2  0  0  0  0
  3 19  1  0  0  0  0
  4 11  1  0  0  0  0
  4 15  2  0  0  0  0
  5 14  1  6  0  0  0
  5  2  1  0  0  0  0
  5 16  1  0  0  0  0
  6 17  1  0  0  0  0
  7  4  1  0  0  0  0
  8 23  1  6  0  0  0
 10 19  1  0  0  0  0
 12  8  1  0  0  0  0
 13  8  1  0  0  0  0
 13 18  1  1  0  0  0
 16 17  1  6  0  0  0
 16 12  1  0  0  0  0
 18 10  1  0  0  0  0
 19 20  2  0  0  0  0
 20 15  1  0  0  0  0
 22 21  2  0  0  0  0
 23 22  1  0  0  0  0
 24 28  1  0  0  0  0
 24 31  2  0  0  0  0
 25 30  1  0  0  0  0
 27 24  1  0  0  0  0
 28 25  2  0  0  0  0
 29 30  1  0  0  0  0
 29 26  2  0  0  0  0
 30 22  1  6  0  0  0
 31 29  1  0  0  0  0
M  END
>  <MODEL>
2

>  <REMARK>
 VINA RESULT:      -8.2      3.203      7.310
  Name = 
  2 active torsions:
  status: ('A' for Active; 'I' for Inactive)
    1  A    between atoms: C_5  and  C_30
    2  A    between atoms: C_10  and  N_16
                            x       y       z     vdW  Elec       q    Type
                         _______ _______ _______ _____ _____    ______ ____

>  <TORSDO>
F 2

$$$$
=
 OpenBabel11112417063D

 31 35  0  0  1  0  0  0  0  0999 V2000
  191.7740  170.5540  141.6350 C   0  0  2  0  0  3  0  0  0  0  0  0
  191.5180  172.9560  144.6610 C   0  0  2  0  0  3  0  0  0  0  0  0
  192.4950  173.9520  145.2490 C   0  0  0  0  0  0  0  0  0  0  0  0
  194.7690  174.7240  145.6170 C   0  0  0  0  0  0  0  0  0  0  0  0
  191.9630  172.4260  143.2880 C   0  0  1  0  0  3  0  0  0  0  0  0
  191.4440  171.5520  140.5300 C   0  0  0  0  0  2  0  0  0  0  0  0
  193.8760  173.8160  145.0430 C   0  0  0  0  0  3  0  0  0  0  0  0
  189.8760  174.5280  143.4990 C   0  0  2  0  0  3  0  0  0  0  0  0
  191.1470  169.3390  141.3650 O   0  0  0  0  0  1  0  0  0  0  0  0
  190.6540  175.1190  146.3400 O   0  0  0  0  0  0  0  0  0  0  0  0
  196.2290  174.5800  145.3800 C   0  0  0  0  0  1  0  0  0  0  0  0
  190.2580  173.9230  142.1520 C   0  0  0  0  0  2  0  0  0  0  0  0
  190.0700  173.4980  144.6230 C   0  0  2  0  0  3  0  0  0  0  0  0
  191.2940  171.0840  142.9820 C   0  0  0  0  0  2  0  0  0  0  0  0
  194.2910  175.7670  146.4130 C   0  0  0  0  0  3  0  0  0  0  0  0
  191.7130  173.4580  142.1710 C   0  0  2  0  0  3  0  0  0  0  0  0
  192.1230  172.8940  140.8080 C   0  0  0  0  0  2  0  0  0  0  0  0
  189.7210  174.0980  145.9850 C   0  0  0  0  0  2  0  0  0  0  0  0
  192.0220  174.9860  146.0840 C   0  0  0  0  0  0  0  0  0  0  0  0
  192.9190  175.8970  146.6480 C   0  0  0  0  0  3  0  0  0  0  0  0
  188.9380  177.1270  144.2180 O   0  0  0  0  0  0  0  0  0  0  0  0
  188.0860  176.2860  143.8190 C   0  0  0  0  0  0  0  0  0  0  0  0
  188.4870  174.9650  143.4560 N   0  0  0  0  0  2  0  0  0  0  0  0
  185.6720  179.3630  144.1290 C   0  0  0  0  0  0  0  0  0  0  0  0
  186.4180  177.6180  142.5920 C   0  0  0  0  0  3  0  0  0  0  0  0
  186.1050  176.4610  146.0610 O   0  0  0  0  0  0  0  0  0  0  0  0
  185.2560  180.7120  144.2990 N   0  0  0  0  0  1  0  0  0  0  0  0
  185.9860  178.8660  142.7800 C   0  0  0  0  0  3  0  0  0  0  0  0
  186.1490  177.2080  145.0490 C   0  0  0  0  0  0  0  0  0  0  0  0
  186.6400  176.6590  143.7340 C   0  0  2  0  0  3  0  0  0  0  0  0
  185.7410  178.5770  145.1610 N   0  0  0  0  0  0  0  0  0  0  0  0
  1  9  1  6  0  0  0
  1 14  1  0  0  0  0
  2  3  1  6  0  0  0
  3 19  1  0  0  0  0
  4 15  2  0  0  0  0
  5 14  1  6  0  0  0
  5  2  1  0  0  0  0
  6 17  1  0  0  0  0
  6  1  1  0  0  0  0
  7  3  2  0  0  0  0
  7  4  1  0  0  0  0
  8 23  1  6  0  0  0
  8 13  1  0  0  0  0
 11  4  1  0  0  0  0
 12 16  1  0  0  0  0
 12  8  1  0  0  0  0
 13  2  1  0  0  0  0
 13 18  1  1  0  0  0
 15 20  1  0  0  0  0
 16 17  1  6  0  0  0
 16  5  1  0  0  0  0
 18 10  1  0  0  0  0
 19 10  1  0  0  0  0
 19 20  2  0  0  0  0
 22 21  2  0  0  0  0
 23 22  1  0  0  0  0
 24 27  1  0  0  0  0
 24 31  2  0  0  0  0
 25 28  2  0  0  0  0
 25 30  1  0  0  0  0
 28 24  1  0  0  0  0
 29 31  1  0  0  0  0
 29 26  2  0  0  0  0
 30 22  1  1  0  0  0
 30 29  1  0  0  0  0
M  END
>  <MODEL>
3

>  <REMARK>
 VINA RESULT:      -8.0      2.121      2.507
  Name = 
  2 active torsions:
  status: ('A' for Active; 'I' for Inactive)
    1  A    between atoms: C_5  and  C_30
    2  A    between atoms: C_10  and  N_16
                            x       y       z     vdW  Elec       q    Type
                         _______ _______ _______ _____ _____    ______ ____

>  <TORSDO>
F 2

$$$$
=
 OpenBabel11112417063D

 31 35  0  0  1  0  0  0  0  0999 V2000
  186.0230  177.3920  142.9250 C   0  0  2  0  0  3  0  0  0  0  0  0
  188.0280  174.2980  141.7420 C   0  0  2  0  0  3  0  0  0  0  0  0
  188.6570  173.9460  140.4100 C   0  0  0  0  0  0  0  0  0  0  0  0
  188.7590  174.1660  137.9930 C   0  0  0  0  0  0  0  0  0  0  0  0
  187.5690  175.7630  141.8150 C   0  0  1  0  0  3  0  0  0  0  0  0
  187.1980  178.3200  143.2180 C   0  0  0  0  0  2  0  0  0  0  0  0
  188.1910  174.5210  139.2190 C   0  0  0  0  0  3  0  0  0  0  0  0
  190.1020  174.9010  143.1040 C   0  0  2  0  0  3  0  0  0  0  0  0
  185.0550  177.5410  143.9160 O   0  0  0  0  0  1  0  0  0  0  0  0
  190.1240  172.3470  141.5200 O   0  0  0  0  0  0  0  0  0  0  0  0
  188.2680  174.7920  136.7380 C   0  0  0  0  0  1  0  0  0  0  0  0
  189.5840  176.3280  143.2500 C   0  0  0  0  0  2  0  0  0  0  0  0
  188.9290  173.9210  142.9410 C   0  0  2  0  0  3  0  0  0  0  0  0
  186.4950  175.9420  142.8900 C   0  0  0  0  0  2  0  0  0  0  0  0
  189.7880  173.2210  137.9460 C   0  0  0  0  0  3  0  0  0  0  0  0
  188.7570  176.7220  142.0280 C   0  0  2  0  0  3  0  0  0  0  0  0
  188.2730  178.1700  142.1410 C   0  0  0  0  0  2  0  0  0  0  0  0
  189.4320  172.4870  142.7620 C   0  0  0  0  0  2  0  0  0  0  0  0
  189.6700  172.9680  140.3530 C   0  0  0  0  0  0  0  0  0  0  0  0
  190.2420  172.6220  139.1240 C   0  0  0  0  0  3  0  0  0  0  0  0
  192.9430  174.6320  143.1710 O   0  0  0  0  0  0  0  0  0  0  0  0
  192.3110  174.4420  144.2470 C   0  0  0  0  0  0  0  0  0  0  0  0
  190.8880  174.5490  144.2790 N   0  0  0  0  0  2  0  0  0  0  0  0
  195.9360  174.1060  145.7080 C   0  0  0  0  0  0  0  0  0  0  0  0
  193.8170  175.2830  146.0040 C   0  0  0  0  0  3  0  0  0  0  0  0
  193.4030  171.7660  145.0390 O   0  0  0  0  0  0  0  0  0  0  0  0
  197.3560  174.1630  145.7630 N   0  0  0  0  0  1  0  0  0  0  0  0
  195.1490  175.2910  146.0840 C   0  0  0  0  0  3  0  0  0  0  0  0
  193.9240  172.8840  145.2890 C   0  0  0  0  0  0  0  0  0  0  0  0
  193.0440  174.0900  145.5020 C   0  0  2  0  0  3  0  0  0  0  0  0
  195.3500  173.0010  145.3570 N   0  0  0  0  0  0  0  0  0  0  0  0
  1  6  1  0  0  0  0
  1  9  1  1  0  0  0
  2  3  1  6  0  0  0
  2  5  1  0  0  0  0
  2 13  1  0  0  0  0
  4  7  1  0  0  0  0
  5 16  1  0  0  0  0
  5 14  1  1  0  0  0
  7  3  2  0  0  0  0
  8 12  1  0  0  0  0
  8 23  1  1  0  0  0
 10 18  1  0  0  0  0
 11  4  1  0  0  0  0
 13 18  1  6  0  0  0
 13  8  1  0  0  0  0
 14  1  1  0  0  0  0
 15  4  2  0  0  0  0
 15 20  1  0  0  0  0
 16 17  1  1  0  0  0
 16 12  1  0  0  0  0
 17  6  1  0  0  0  0
 19  3  1  0  0  0  0
 19 10  1  0  0  0  0
 20 19  2  0  0  0  0
 21 22  2  0  0  0  0
 22 23  1  0  0  0  0
 24 27  1  0  0  0  0
 24 28  1  0  0  0  0
 25 28  2  0  0  0  0
 26 29  2  0  0  0  0
 29 31  1  0  0  0  0
 29 30  1  0  0  0  0
 30 22  1  6  0  0  0
 30 25  1  0  0  0  0
 31 24  2  0  0  0  0
M  END
>  <MODEL>
4

>  <REMARK>
 VINA RESULT:      -7.9      3.598      7.945
  Name = 
  2 active torsions:
  status: ('A' for Active; 'I' for Inactive)
    1  A    between atoms: C_5  and  C_30
    2  A    between atoms: C_10  and  N_16
                            x       y       z     vdW  Elec       q    Type
                         _______ _______ _______ _____ _____    ______ ____

>  <TORSDO>
F 2

$$$$
=
 OpenBabel11112417063D

 31 35  0  0  1  0  0  0  0  0999 V2000
  185.6990  177.4060  142.4890 C   0  0  2  0  0  3  0  0  0  0  0  0
  188.1420  174.4300  142.0840 C   0  0  2  0  0  3  0  0  0  0  0  0
  188.9530  173.9370  140.9030 C   0  0  0  0  0  0  0  0  0  0  0  0
  189.3050  173.7520  138.5060 C   0  0  0  0  0  0  0  0  0  0  0  0
  187.5250  175.8170  141.8440 C   0  0  1  0  0  3  0  0  0  0  0  0
  186.7280  178.5090  142.7150 C   0  0  0  0  0  2  0  0  0  0  0  0
  188.5670  174.2380  139.5880 C   0  0  0  0  0  3  0  0  0  0  0  0
  189.9720  175.5100  143.4990 C   0  0  2  0  0  3  0  0  0  0  0  0
  184.6140  177.6000  143.3420 O   0  0  0  0  0  1  0  0  0  0  0  0
  190.4450  172.7470  142.4180 O   0  0  0  0  0  0  0  0  0  0  0  0
  188.8960  174.0890  137.1170 C   0  0  0  0  0  1  0  0  0  0  0  0
  189.2920  176.8660  143.3330 C   0  0  0  0  0  2  0  0  0  0  0  0
  188.9360  174.3780  143.4100 C   0  0  2  0  0  3  0  0  0  0  0  0
  186.3230  176.0420  142.7640 C   0  0  0  0  0  2  0  0  0  0  0  0
  190.4270  172.9490  138.7290 C   0  0  0  0  0  3  0  0  0  0  0  0
  188.5720  176.9400  141.9880 C   0  0  2  0  0  3  0  0  0  0  0  0
  187.9280  178.3130  141.7880 C   0  0  0  0  0  2  0  0  0  0  0  0
  189.6060  173.0100  143.5430 C   0  0  0  0  0  2  0  0  0  0  0  0
  190.0640  173.0970  141.1190 C   0  0  0  0  0  0  0  0  0  0  0  0
  190.8050  172.6210  140.0330 C   0  0  0  0  0  3  0  0  0  0  0  0
  192.7190  174.8440  143.8940 O   0  0  0  0  0  0  0  0  0  0  0  0
  192.0350  175.1340  144.9130 C   0  0  0  0  0  0  0  0  0  0  0  0
  190.6520  175.4650  144.7870 N   0  0  0  0  0  2  0  0  0  0  0  0
  191.9410  176.9950  148.3660 C   0  0  0  0  0  0  0  0  0  0  0  0
  191.6240  174.8110  147.3200 C   0  0  0  0  0  3  0  0  0  0  0  0
  194.3860  176.7350  145.8560 O   0  0  0  0  0  0  0  0  0  0  0  0
  191.5270  177.9150  149.3670 N   0  0  0  0  0  1  0  0  0  0  0  0
  191.2860  175.6810  148.2730 C   0  0  0  0  0  3  0  0  0  0  0  0
  193.3770  176.4230  146.5420 C   0  0  0  0  0  0  0  0  0  0  0  0
  192.6610  175.1240  146.2710 C   0  0  2  0  0  3  0  0  0  0  0  0
  192.9140  177.3120  147.5650 N   0  0  0  0  0  0  0  0  0  0  0  0
  1  6  1  0  0  0  0
  1 14  1  0  0  0  0
  1  9  1  1  0  0  0
  2  3  1  6  0  0  0
  2 13  1  0  0  0  0
  3 19  1  0  0  0  0
  4 15  2  0  0  0  0
  4  7  1  0  0  0  0
  5 16  1  0  0  0  0
  5  2  1  0  0  0  0
  5 14  1  1  0  0  0
  7  3  2  0  0  0  0
  8 23  1  1  0  0  0
 10 18  1  0  0  0  0
 11  4  1  0  0  0  0
 12  8  1  0  0  0  0
 13  8  1  0  0  0  0
 13 18  1  6  0  0  0
 15 20  1  0  0  0  0
 16 17  1  1  0  0  0
 16 12  1  0  0  0  0
 17  6  1  0  0  0  0
 19 10  1  0  0  0  0
 20 19  2  0  0  0  0
 21 22  2  0  0  0  0
 23 22  1  0  0  0  0
 24 27  1  0  0  0  0
 25 28  2  0  0  0  0
 26 29  2  0  0  0  0
 28 24  1  0  0  0  0
 29 31  1  0  0  0  0
 30 22  1  6  0  0  0
 30 29  1  0  0  0  0
 30 25  1  0  0  0  0
 31 24  2  0  0  0  0
M  END
>  <MODEL>
5

>  <REMARK>
 VINA RESULT:      -7.9      3.392      6.598
  Name = 
  2 active torsions:
  status: ('A' for Active; 'I' for Inactive)
    1  A    between atoms: C_5  and  C_30
    2  A    between atoms: C_10  and  N_16
                            x       y       z     vdW  Elec       q    Type
                         _______ _______ _______ _____ _____    ______ ____

>  <TORSDO>
F 2

$$$$
=
 OpenBabel11112417063D

 31 35  0  0  1  0  0  0  0  0999 V2000
  194.1940  176.6700  145.3780 C   0  0  2  0  0  3  0  0  0  0  0  0
  191.2670  175.5530  143.1040 C   0  0  2  0  0  3  0  0  0  0  0  0
  190.9310  174.2210  142.4640 C   0  0  0  0  0  0  0  0  0  0  0  0
  191.6130  172.0540  141.6040 C   0  0  0  0  0  0  0  0  0  0  0  0
  192.3870  175.4440  144.1500 C   0  0  1  0  0  3  0  0  0  0  0  0
  193.6540  176.1500  146.7070 C   0  0  0  0  0  2  0  0  0  0  0  0
  191.9290  173.2660  142.2230 C   0  0  0  0  0  3  0  0  0  0  0  0
  189.5430  175.6240  144.9860 C   0  0  2  0  0  3  0  0  0  0  0  0
  194.7870  177.9160  145.5740 O   0  0  0  0  0  1  0  0  0  0  0  0
  188.6090  174.9190  142.2190 O   0  0  0  0  0  0  0  0  0  0  0  0
  192.6750  171.0420  141.3660 C   0  0  0  0  0  1  0  0  0  0  0  0
  190.6720  175.6140  146.0130 C   0  0  0  0  0  2  0  0  0  0  0  0
  190.0190  176.2670  143.6740 C   0  0  2  0  0  3  0  0  0  0  0  0
  193.0600  176.8010  144.3670 C   0  0  0  0  0  2  0  0  0  0  0  0
  190.2990  171.7930  141.2080 C   0  0  0  0  0  3  0  0  0  0  0  0
  191.8750  174.8420  145.4740 C   0  0  2  0  0  3  0  0  0  0  0  0
  192.9960  174.7830  146.5140 C   0  0  0  0  0  2  0  0  0  0  0  0
  188.9080  176.2560  142.6230 C   0  0  0  0  0  2  0  0  0  0  0  0
  189.6140  173.9670  142.0290 C   0  0  0  0  0  0  0  0  0  0  0  0
  189.3010  172.7490  141.4190 C   0  0  0  0  0  3  0  0  0  0  0  0
  188.2320  175.0700  147.4610 O   0  0  0  0  0  0  0  0  0  0  0  0
  187.8050  176.0410  146.7760 C   0  0  0  0  0  0  0  0  0  0  0  0
  188.4090  176.3630  145.5230 N   0  0  0  0  0  2  0  0  0  0  0  0
  185.3180  178.8500  145.6320 C   0  0  0  0  0  0  0  0  0  0  0  0
  185.4190  176.5530  146.4520 C   0  0  0  0  0  3  0  0  0  0  0  0
  187.8910  178.7640  148.0230 O   0  0  0  0  0  0  0  0  0  0  0  0
  184.6790  179.7900  144.7780 N   0  0  0  0  0  1  0  0  0  0  0  0
  184.8160  177.4690  145.6920 C   0  0  0  0  0  3  0  0  0  0  0  0
  186.9950  178.3270  147.2540 C   0  0  0  0  0  0  0  0  0  0  0  0
  186.6520  176.8590  147.2620 C   0  0  2  0  0  3  0  0  0  0  0  0
  186.3170  179.2290  146.3720 N   0  0  0  0  0  0  0  0  0  0  0  0
  1  9  1  1  0  0  0
  1  6  1  0  0  0  0
  2  3  1  1  0  0  0
  2 13  1  0  0  0  0
  2  5  1  0  0  0  0
  4  7  2  0  0  0  0
  5 14  1  1  0  0  0
  5 16  1  0  0  0  0
  7  3  1  0  0  0  0
  8 23  1  1  0  0  0
  8 12  1  0  0  0  0
 10 18  1  0  0  0  0
 11  4  1  0  0  0  0
 13 18  1  6  0  0  0
 13  8  1  0  0  0  0
 14  1  1  0  0  0  0
 15 20  2  0  0  0  0
 15  4  1  0  0  0  0
 16 12  1  1  0  0  0
 16 17  1  0  0  0  0
 17  6  1  0  0  0  0
 19 10  1  0  0  0  0
 19  3  2  0  0  0  0
 20 19  1  0  0  0  0
 22 21  2  0  0  0  0
 23 22  1  0  0  0  0
 24 28  1  0  0  0  0
 24 31  2  0  0  0  0
 25 30  1  0  0  0  0
 27 24  1  0  0  0  0
 28 25  2  0  0  0  0
 29 30  1  0  0  0  0
 29 26  2  0  0  0  0
 30 22  1  6  0  0  0
 31 29  1  0  0  0  0
M  END
>  <MODEL>
6

>  <REMARK>
 VINA RESULT:      -7.8      1.646      4.543
  Name = 
  2 active torsions:
  status: ('A' for Active; 'I' for Inactive)
    1  A    between atoms: C_5  and  C_30
    2  A    between atoms: C_10  and  N_16
                            x       y       z     vdW  Elec       q    Type
                         _______ _______ _______ _____ _____    ______ ____

>  <TORSDO>
F 2

$$$$
=
 OpenBabel11112417063D

 31 35  0  0  1  0  0  0  0  0999 V2000
  187.9300  174.0570  140.2170 C   0  0  2  0  0  3  0  0  0  0  0  0
  189.3520  176.3570  142.9880 C   0  0  2  0  0  3  0  0  0  0  0  0
  188.8500  176.7030  144.3750 C   0  0  0  0  0  0  0  0  0  0  0  0
  187.0350  176.9360  145.9720 C   0  0  0  0  0  0  0  0  0  0  0  0
  188.5900  175.1810  142.3560 C   0  0  1  0  0  3  0  0  0  0  0  0
  188.4420  172.7230  140.7520 C   0  0  0  0  0  2  0  0  0  0  0  0
  187.4910  176.5840  144.7000 C   0  0  0  0  0  3  0  0  0  0  0  0
  191.2760  174.7790  143.5580 C   0  0  2  0  0  3  0  0  0  0  0  0
  188.0710  174.0860  138.8310 O   0  0  0  0  0  1  0  0  0  0  0  0
  191.0960  177.3980  145.0180 O   0  0  0  0  0  0  0  0  0  0  0  0
  185.5950  176.7920  146.3120 C   0  0  0  0  0  1  0  0  0  0  0  0
  190.5500  173.6440  142.8410 C   0  0  0  0  0  2  0  0  0  0  0  0
  190.8820  176.1340  142.9500 C   0  0  2  0  0  3  0  0  0  0  0  0
  188.7220  175.2060  140.8320 C   0  0  0  0  0  2  0  0  0  0  0  0
  187.9320  177.4230  146.9270 C   0  0  0  0  0  3  0  0  0  0  0  0
  189.0370  173.8290  142.9460 C   0  0  2  0  0  3  0  0  0  0  0  0
  188.2980  172.6710  142.2730 C   0  0  0  0  0  2  0  0  0  0  0  0
  191.5770  177.2860  143.6790 C   0  0  0  0  0  2  0  0  0  0  0  0
  189.7440  177.2290  145.3300 C   0  0  0  0  0  0  0  0  0  0  0  0
  189.2840  177.5710  146.6060 C   0  0  0  0  0  3  0  0  0  0  0  0
  192.8440  173.0780  145.2300 O   0  0  0  0  0  0  0  0  0  0  0  0
  193.4390  173.7040  144.3090 C   0  0  0  0  0  0  0  0  0  0  0  0
  192.7140  174.5800  143.4450 N   0  0  0  0  0  2  0  0  0  0  0  0
  196.4780  171.5050  145.4580 C   0  0  0  0  0  0  0  0  0  0  0  0
  195.2140  172.2070  143.4900 C   0  0  0  0  0  3  0  0  0  0  0  0
  195.6380  174.8770  145.9720 O   0  0  0  0  0  0  0  0  0  0  0  0
  197.1900  170.4650  146.1160 N   0  0  0  0  0  1  0  0  0  0  0  0
  195.9220  171.2660  144.1170 C   0  0  0  0  0  3  0  0  0  0  0  0
  195.6490  173.7470  145.4180 C   0  0  0  0  0  0  0  0  0  0  0  0
  194.9130  173.5440  144.1170 C   0  0  2  0  0  3  0  0  0  0  0  0
  196.3510  172.6630  146.0350 N   0  0  0  0  0  0  0  0  0  0  0  0
  1  9  1  6  0  0  0
  1  6  1  0  0  0  0
  1 14  1  0  0  0  0
  2  3  1  1  0  0  0
  3  7  2  0  0  0  0
  3 19  1  0  0  0  0
  4 11  1  0  0  0  0
  4 15  2  0  0  0  0
  5 14  1  6  0  0  0
  5 16  1  0  0  0  0
  5  2  1  0  0  0  0
  6 17  1  0  0  0  0
  7  4  1  0  0  0  0
  8 23  1  6  0  0  0
 10 19  1  0  0  0  0
 12 16  1  0  0  0  0
 12  8  1  0  0  0  0
 13  2  1  0  0  0  0
 13  8  1  0  0  0  0
 13 18  1  1  0  0  0
 16 17  1  6  0  0  0
 18 10  1  0  0  0  0
 19 20  2  0  0  0  0
 20 15  1  0  0  0  0
 22 21  2  0  0  0  0
 23 22  1  0  0  0  0
 24 31  2  0  0  0  0
 24 27  1  0  0  0  0
 25 30  1  0  0  0  0
 25 28  2  0  0  0  0
 28 24  1  0  0  0  0
 29 26  2  0  0  0  0
 29 31  1  0  0  0  0
 30 22  1  1  0  0  0
 30 29  1  0  0  0  0
M  END
>  <MODEL>
7

>  <REMARK>
 VINA RESULT:      -7.6      3.609      7.601
  Name = 
  2 active torsions:
  status: ('A' for Active; 'I' for Inactive)
    1  A    between atoms: C_5  and  C_30
    2  A    between atoms: C_10  and  N_16
                            x       y       z     vdW  Elec       q    Type
                         _______ _______ _______ _____ _____    ______ ____

>  <TORSDO>
F 2

$$$$
=
 OpenBabel11112417063D

 31 35  0  0  1  0  0  0  0  0999 V2000
  185.5890  179.1510  144.9610 C   0  0  2  0  0  3  0  0  0  0  0  0
  189.1000  177.6660  144.2890 C   0  0  2  0  0  3  0  0  0  0  0  0
  190.1480  177.0820  145.2140 C   0  0  0  0  0  0  0  0  0  0  0  0
  191.1720  176.9060  147.4090 C   0  0  0  0  0  0  0  0  0  0  0  0
  187.7450  177.8770  144.9830 C   0  0  1  0  0  3  0  0  0  0  0  0
  184.8070  177.8430  145.0450 C   0  0  0  0  0  2  0  0  0  0  0  0
  190.1830  177.4270  146.5730 C   0  0  0  0  0  3  0  0  0  0  0  0
  188.1890  175.5440  143.2010 C   0  0  2  0  0  3  0  0  0  0  0  0
  184.8380  180.0970  144.2660 O   0  0  0  0  0  1  0  0  0  0  0  0
  191.1680  175.9180  143.3310 O   0  0  0  0  0  0  0  0  0  0  0  0
  191.1910  177.2660  148.8510 C   0  0  0  0  0  1  0  0  0  0  0  0
  186.8220  175.8200  143.8190 C   0  0  0  0  0  2  0  0  0  0  0  0
  188.9520  176.8590  142.9780 C   0  0  2  0  0  3  0  0  0  0  0  0
  186.9130  178.9240  144.2400 C   0  0  0  0  0  2  0  0  0  0  0  0
  192.1450  176.0470  146.8910 C   0  0  0  0  0  3  0  0  0  0  0  0
  186.9780  176.5510  145.1510 C   0  0  2  0  0  3  0  0  0  0  0  0
  185.6150  176.7910  145.8050 C   0  0  0  0  0  2  0  0  0  0  0  0
  190.3380  176.5980  142.3880 C   0  0  0  0  0  2  0  0  0  0  0  0
  191.1530  176.2440  144.6900 C   0  0  0  0  0  0  0  0  0  0  0  0
  192.1360  175.7180  145.5340 C   0  0  0  0  0  3  0  0  0  0  0  0
  189.4880  173.1110  142.4620 O   0  0  0  0  0  0  0  0  0  0  0  0
  188.6880  173.6240  141.6320 C   0  0  0  0  0  0  0  0  0  0  0  0
  188.0150  174.8460  141.9340 N   0  0  0  0  0  2  0  0  0  0  0  0
  190.4600  172.7560  138.2410 C   0  0  0  0  0  0  0  0  0  0  0  0
  189.3330  171.7560  140.1630 C   0  0  0  0  0  3  0  0  0  0  0  0
  187.8160  174.9150  139.0720 O   0  0  0  0  0  0  0  0  0  0  0  0
  191.4970  172.6530  137.2730 N   0  0  0  0  0  1  0  0  0  0  0  0
  190.2700  171.6710  139.2170 C   0  0  0  0  0  3  0  0  0  0  0  0
  188.6110  173.9450  139.1810 C   0  0  0  0  0  0  0  0  0  0  0  0
  188.4430  172.9630  140.3130 C   0  0  2  0  0  3  0  0  0  0  0  0
  189.6740  173.7910  138.2340 N   0  0  0  0  0  0  0  0  0  0  0  0
  1  9  1  6  0  0  0
  1  6  1  0  0  0  0
  2  5  1  0  0  0  0
  2  3  1  1  0  0  0
  3  7  1  0  0  0  0
  4 11  1  0  0  0  0
  5 14  1  6  0  0  0
  5 16  1  0  0  0  0
  6 17  1  0  0  0  0
  7  4  2  0  0  0  0
  8 23  1  6  0  0  0
  8 12  1  0  0  0  0
 10 19  1  0  0  0  0
 13 18  1  1  0  0  0
 13  8  1  0  0  0  0
 13  2  1  0  0  0  0
 14  1  1  0  0  0  0
 15  4  1  0  0  0  0
 16 12  1  6  0  0  0
 16 17  1  0  0  0  0
 18 10  1  0  0  0  0
 19  3  2  0  0  0  0
 19 20  1  0  0  0  0
 20 15  2  0  0  0  0
 22 23  1  0  0  0  0
 22 21  2  0  0  0  0
 24 28  1  0  0  0  0
 25 30  1  0  0  0  0
 26 29  2  0  0  0  0
 27 24  1  0  0  0  0
 28 25  2  0  0  0  0
 29 30  1  0  0  0  0
 30 22  1  1  0  0  0
 31 24  2  0  0  0  0
 31 29  1  0  0  0  0
M  END
>  <MODEL>
8

>  <REMARK>
 VINA RESULT:      -7.6      3.474      7.291
  Name = 
  2 active torsions:
  status: ('A' for Active; 'I' for Inactive)
    1  A    between atoms: C_5  and  C_30
    2  A    between atoms: C_10  and  N_16
                            x       y       z     vdW  Elec       q    Type
                         _______ _______ _______ _____ _____    ______ ____

>  <TORSDO>
F 2

$$$$
=
 OpenBabel11112417063D

 31 35  0  0  1  0  0  0  0  0999 V2000
  195.9930  175.4770  143.8610 C   0  0  2  0  0  3  0  0  0  0  0  0
  192.5400  174.3810  142.4960 C   0  0  2  0  0  3  0  0  0  0  0  0
  191.8460  173.0350  142.4570 C   0  0  0  0  0  0  0  0  0  0  0  0
  191.9340  170.6080  142.4380 C   0  0  0  0  0  0  0  0  0  0  0  0
  193.7920  174.3780  143.3870 C   0  0  1  0  0  3  0  0  0  0  0  0
  195.6180  175.6110  145.3340 C   0  0  0  0  0  2  0  0  0  0  0  0
  192.5830  171.8430  142.5060 C   0  0  0  0  0  3  0  0  0  0  0  0
  191.2370  175.5330  144.3650 C   0  0  2  0  0  3  0  0  0  0  0  0
  196.8370  176.5250  143.5010 O   0  0  0  0  0  1  0  0  0  0  0  0
  189.6940  174.1470  142.1920 O   0  0  0  0  0  0  0  0  0  0  0  0
  192.7230  169.3490  142.5070 C   0  0  0  0  0  1  0  0  0  0  0  0
  192.5120  175.6110  145.1990 C   0  0  0  0  0  2  0  0  0  0  0  0
  191.5770  175.5330  142.8670 C   0  0  2  0  0  3  0  0  0  0  0  0
  194.7390  175.5150  142.9950 C   0  0  0  0  0  2  0  0  0  0  0  0
  190.5440  170.5540  142.3060 C   0  0  0  0  0  3  0  0  0  0  0  0
  193.4270  174.4290  144.8840 C   0  0  2  0  0  3  0  0  0  0  0  0
  194.6880  174.4700  145.7500 C   0  0  0  0  0  2  0  0  0  0  0  0
  190.3100  175.4230  142.0160 C   0  0  0  0  0  2  0  0  0  0  0  0
  190.4480  172.9740  142.2870 C   0  0  0  0  0  0  0  0  0  0  0  0
  189.8020  171.7350  142.2290 C   0  0  0  0  0  3  0  0  0  0  0  0
  188.6320  175.3660  145.5200 O   0  0  0  0  0  0  0  0  0  0  0  0
  189.0900  176.5160  145.2720 C   0  0  0  0  0  0  0  0  0  0  0  0
  190.3820  176.6690  144.6840 N   0  0  0  0  0  2  0  0  0  0  0  0
  185.4470  177.6460  146.1890 C   0  0  0  0  0  0  0  0  0  0  0  0
  187.7530  177.6640  146.9920 C   0  0  0  0  0  3  0  0  0  0  0  0
  187.4730  178.1700  143.3670 O   0  0  0  0  0  0  0  0  0  0  0  0
  184.0660  177.5410  146.5130 N   0  0  0  0  0  1  0  0  0  0  0  0
  186.4480  177.6090  147.2660 C   0  0  0  0  0  3  0  0  0  0  0  0
  187.1810  177.9200  144.5660 C   0  0  0  0  0  0  0  0  0  0  0  0
  188.2800  177.7340  145.5810 C   0  0  2  0  0  3  0  0  0  0  0  0
  185.8070  177.8040  144.9500 N   0  0  0  0  0  0  0  0  0  0  0  0
  1  9  1  6  0  0  0
  1  6  1  0  0  0  0
  2  3  1  1  0  0  0
  2 13  1  0  0  0  0
  2  5  1  0  0  0  0
  3  7  1  0  0  0  0
  4  7  2  0  0  0  0
  4 11  1  0  0  0  0
  5 14  1  6  0  0  0
  5 16  1  0  0  0  0
  6 17  1  0  0  0  0
  8 23  1  6  0  0  0
  8 12  1  0  0  0  0
 10 19  1  0  0  0  0
 13 18  1  6  0  0  0
 13  8  1  0  0  0  0
 14  1  1  0  0  0  0
 15  4  1  0  0  0  0
 16 12  1  6  0  0  0
 16 17  1  0  0  0  0
 18 10  1  0  0  0  0
 19  3  2  0  0  0  0
 20 19  1  0  0  0  0
 20 15  2  0  0  0  0
 22 21  2  0  0  0  0
 23 22  1  0  0  0  0
 24 27  1  0  0  0  0
 24 28  1  0  0  0  0
 25 28  2  0  0  0  0
 26 29  2  0  0  0  0
 29 31  1  0  0  0  0
 29 30  1  0  0  0  0
 30 22  1  6  0  0  0
 30 25  1  0  0  0  0
 31 24  2  0  0  0  0
M  END
>  <MODEL>
9

>  <REMARK>
 VINA RESULT:      -7.4      2.211      4.947
  Name = 
  2 active torsions:
  status: ('A' for Active; 'I' for Inactive)
    1  A    between atoms: C_5  and  C_30
    2  A    between atoms: C_10  and  N_16
                            x       y       z     vdW  Elec       q    Type
                         _______ _______ _______ _____ _____    ______ ____

>  <TORSDO>
F 2

$$$$
