=
 OpenBabel11112416513D

 31 35  0  0  1  0  0  0  0  0999 V2000
  194.4810  176.4300  144.9490 C   0  0  0  0  0  0  0  0  0  0  0  0
  191.0480  176.9680  143.4020 C   0  0  2  0  0  3  0  0  0  0  0  0
  190.7330  175.7150  142.5970 C   0  0  0  0  0  0  0  0  0  0  0  0
  191.4450  173.6750  141.4790 C   0  0  0  0  0  0  0  0  0  0  0  0
  192.1280  176.7490  144.4370 C   0  0  0  0  0  0  0  0  0  0  0  0
  194.1670  176.2390  146.2960 C   0  0  0  0  0  3  0  0  0  0  0  0
  191.7430  174.8040  142.2460 C   0  0  0  0  0  3  0  0  0  0  0  0
  189.3470  176.7270  145.2450 C   0  0  2  0  0  3  0  0  0  0  0  0
  195.8010  176.3630  144.5290 O   0  0  0  0  0  1  0  0  0  0  0  0
  188.4030  176.4070  142.4160 O   0  0  0  0  0  0  0  0  0  0  0  0
  192.7140  172.5410  141.0680 Cl  0  0  0  0  0  0  0  0  0  0  0  0
  190.4210  176.7620  146.3310 C   0  0  0  0  0  2  0  0  0  0  0  0
  189.7840  177.5750  144.0430 C   0  0  2  0  0  3  0  0  0  0  0  0
  193.4650  176.6860  144.0250 C   0  0  0  0  0  3  0  0  0  0  0  0
  190.1380  173.4510  141.0420 C   0  0  0  0  0  3  0  0  0  0  0  0
  191.8130  176.5580  145.8030 C   0  0  0  0  0  0  0  0  0  0  0  0
  192.8380  176.3140  146.7220 C   0  0  0  0  0  3  0  0  0  0  0  0
  188.6780  177.6830  142.9910 C   0  0  0  0  0  2  0  0  0  0  0  0
  189.4240  175.4990  142.1200 C   0  0  0  0  0  0  0  0  0  0  0  0
  189.1300  174.3630  141.3610 C   0  0  0  0  0  3  0  0  0  0  0  0
  187.8450  175.5130  147.3530 O   0  0  0  0  0  0  0  0  0  0  0  0
  187.3930  176.5760  146.8520 C   0  0  0  0  0  0  0  0  0  0  0  0
  188.0940  177.2300  145.7910 N   0  0  0  0  0  2  0  0  0  0  0  0
  184.8950  179.0860  145.5060 C   0  0  1  0  0  3  0  0  0  0  0  0
  184.9190  176.7660  146.4620 C   0  0  0  0  0  2  0  0  0  0  0  0
  187.2540  178.9930  148.4000 O   0  0  0  0  0  1  0  0  0  0  0  0
  184.8980  179.8520  144.2740 N   0  0  0  0  0  1  0  0  0  0  0  0
  184.9130  177.5960  145.1780 C   0  0  0  0  0  2  0  0  0  0  0  0
  186.1380  178.6510  147.6360 C   0  0  2  0  0  3  0  0  0  0  0  0
  186.0980  177.1360  147.3680 C   0  0  2  0  0  3  0  0  0  0  0  0
  186.1170  179.4600  146.3400 C   0  0  0  0  0  2  0  0  0  0  0  0
  1  6  1  0  0  0  0
  2  3  1  1  0  0  0
  2 13  1  0  0  0  0
  2  5  1  0  0  0  0
  4  7  2  0  0  0  0
  5 16  2  0  0  0  0
  6 17  2  0  0  0  0
  7  3  1  0  0  0  0
  8 23  1  1  0  0  0
  8 12  1  0  0  0  0
  9  1  1  0  0  0  0
 10 18  1  0  0  0  0
 11  4  1  0  0  0  0
 13 18  1  6  0  0  0
 13  8  1  0  0  0  0
 14  5  1  0  0  0  0
 14  1  2  0  0  0  0
 15 20  2  0  0  0  0
 15  4  1  0  0  0  0
 16 12  1  0  0  0  0
 16 17  1  0  0  0  0
 19 10  1  0  0  0  0
 19  3  2  0  0  0  0
 20 19  1  0  0  0  0
 22 21  2  0  0  0  0
 23 22  1  0  0  0  0
 24 27  1  6  0  0  0
 24 31  1  0  0  0  0
 25 30  1  0  0  0  0
 28 24  1  0  0  0  0
 28 25  1  0  0  0  0
 29 26  1  6  0  0  0
 30 22  1  6  0  0  0
 30 29  1  0  0  0  0
 31 29  1  0  0  0  0
M  END
>  <MODEL>
1

>  <REMARK>
 VINA RESULT:      -9.1      0.000      0.000
  Name = 
  2 active torsions:
  status: ('A' for Active; 'I' for Inactive)
    1  A    between atoms: C_5  and  C_30
    2  A    between atoms: C_10  and  N_16
                            x       y       z     vdW  Elec       q    Type
                         _______ _______ _______ _____ _____    ______ ____

>  <TORSDO>
F 2

$$$$
=
 OpenBabel11112416513D

 31 35  0  0  1  0  0  0  0  0999 V2000
  184.8370  178.1580  146.8500 C   0  0  0  0  0  0  0  0  0  0  0  0
  187.4660  175.8280  145.3930 C   0  0  2  0  0  3  0  0  0  0  0  0
  187.5910  176.1820  143.9170 C   0  0  0  0  0  0  0  0  0  0  0  0
  186.7150  177.2300  141.9040 C   0  0  0  0  0  0  0  0  0  0  0  0
  186.8330  176.9290  146.2120 C   0  0  0  0  0  0  0  0  0  0  0  0
  185.6110  179.0210  147.6270 C   0  0  0  0  0  3  0  0  0  0  0  0
  186.6050  176.9400  143.2660 C   0  0  0  0  0  3  0  0  0  0  0  0
  189.7120  176.6250  146.2110 C   0  0  2  0  0  3  0  0  0  0  0  0
  183.4630  178.3380  146.7720 O   0  0  0  0  0  1  0  0  0  0  0  0
  189.6480  174.8820  143.7710 O   0  0  0  0  0  0  0  0  0  0  0  0
  185.4850  178.1930  141.1150 Cl  0  0  0  0  0  0  0  0  0  0  0  0
  189.0800  177.5660  147.2350 C   0  0  0  0  0  2  0  0  0  0  0  0
  188.8170  175.3970  145.9980 C   0  0  2  0  0  3  0  0  0  0  0  0
  185.4460  177.1160  146.1470 C   0  0  0  0  0  3  0  0  0  0  0  0
  187.8060  176.7530  141.1740 C   0  0  0  0  0  3  0  0  0  0  0  0
  187.6140  177.8030  147.0040 C   0  0  0  0  0  0  0  0  0  0  0  0
  186.9930  178.8370  147.7120 C   0  0  0  0  0  3  0  0  0  0  0  0
  189.4790  174.3610  145.0870 C   0  0  0  0  0  2  0  0  0  0  0  0
  188.6700  175.6740  143.1640 C   0  0  0  0  0  0  0  0  0  0  0  0
  188.7800  175.9750  141.8030 C   0  0  0  0  0  3  0  0  0  0  0  0
  192.1580  176.8990  144.7550 O   0  0  0  0  0  0  0  0  0  0  0  0
  192.2170  176.3870  145.9040 C   0  0  0  0  0  0  0  0  0  0  0  0
  191.0290  176.2160  146.6810 N   0  0  0  0  0  2  0  0  0  0  0  0
  195.6950  176.1480  144.4230 C   0  0  1  0  0  3  0  0  0  0  0  0
  194.5660  177.0810  146.4610 C   0  0  0  0  0  2  0  0  0  0  0  0
  193.1630  173.6860  145.6380 O   0  0  0  0  0  1  0  0  0  0  0  0
  196.1780  176.4690  143.0930 N   0  0  0  0  0  1  0  0  0  0  0  0
  195.0910  177.3960  145.0590 C   0  0  0  0  0  2  0  0  0  0  0  0
  194.1180  174.7000  145.7210 C   0  0  2  0  0  3  0  0  0  0  0  0
  193.5470  175.9360  146.4370 C   0  0  2  0  0  3  0  0  0  0  0  0
  194.6490  175.0410  144.3300 C   0  0  0  0  0  2  0  0  0  0  0  0
  1  6  1  0  0  0  0
  2  3  1  6  0  0  0
  2 13  1  0  0  0  0
  2  5  1  0  0  0  0
  4  7  2  0  0  0  0
  5 16  2  0  0  0  0
  6 17  2  0  0  0  0
  7  3  1  0  0  0  0
  8 23  1  1  0  0  0
  8 12  1  0  0  0  0
  9  1  1  0  0  0  0
 10 18  1  0  0  0  0
 11  4  1  0  0  0  0
 13 18  1  6  0  0  0
 13  8  1  0  0  0  0
 14  5  1  0  0  0  0
 14  1  2  0  0  0  0
 15 20  2  0  0  0  0
 15  4  1  0  0  0  0
 16 12  1  0  0  0  0
 16 17  1  0  0  0  0
 19 10  1  0  0  0  0
 19  3  2  0  0  0  0
 20 19  1  0  0  0  0
 21 22  2  0  0  0  0
 22 23  1  0  0  0  0
 24 27  1  6  0  0  0
 24 28  1  0  0  0  0
 28 25  1  0  0  0  0
 29 26  1  6  0  0  0
 29 30  1  0  0  0  0
 30 22  1  6  0  0  0
 30 25  1  0  0  0  0
 31 24  1  0  0  0  0
 31 29  1  0  0  0  0
M  END
>  <MODEL>
2

>  <REMARK>
 VINA RESULT:      -9.0      3.017      7.132
  Name = 
  2 active torsions:
  status: ('A' for Active; 'I' for Inactive)
    1  A    between atoms: C_5  and  C_30
    2  A    between atoms: C_10  and  N_16
                            x       y       z     vdW  Elec       q    Type
                         _______ _______ _______ _____ _____    ______ ____

>  <TORSDO>
F 2

$$$$
=
 OpenBabel11112416513D

 31 35  0  0  1  0  0  0  0  0999 V2000
  185.0550  177.8470  146.8920 C   0  0  0  0  0  0  0  0  0  0  0  0
  187.3950  175.8720  144.6370 C   0  0  2  0  0  3  0  0  0  0  0  0
  187.1590  176.3740  143.2190 C   0  0  0  0  0  0  0  0  0  0  0  0
  185.7920  177.5420  141.5810 C   0  0  0  0  0  0  0  0  0  0  0  0
  186.9110  176.8380  145.6940 C   0  0  0  0  0  0  0  0  0  0  0  0
  185.9410  178.6880  147.5680 C   0  0  0  0  0  3  0  0  0  0  0  0
  186.0130  177.1150  142.8930 C   0  0  0  0  0  3  0  0  0  0  0  0
  189.7250  176.7530  145.0170 C   0  0  2  0  0  3  0  0  0  0  0  0
  183.6930  177.9300  147.1430 O   0  0  0  0  0  1  0  0  0  0  0  0
  189.1920  175.2520  142.4750 O   0  0  0  0  0  0  0  0  0  0  0  0
  184.3660  178.4810  141.1970 Cl  0  0  0  0  0  0  0  0  0  0  0  0
  189.2970  177.5410  146.2540 C   0  0  0  0  0  2  0  0  0  0  0  0
  188.8700  175.4870  144.8750 C   0  0  2  0  0  3  0  0  0  0  0  0
  185.5380  176.9260  145.9600 C   0  0  0  0  0  3  0  0  0  0  0  0
  186.7090  177.2210  140.5780 C   0  0  0  0  0  3  0  0  0  0  0  0
  187.8070  177.6880  146.3830 C   0  0  0  0  0  0  0  0  0  0  0  0
  187.3130  178.6000  147.3210 C   0  0  0  0  0  3  0  0  0  0  0  0
  189.3570  174.5960  143.7300 C   0  0  0  0  0  2  0  0  0  0  0  0
  188.0610  176.0230  142.1930 C   0  0  0  0  0  0  0  0  0  0  0  0
  187.8400  176.4610  140.8840 C   0  0  0  0  0  3  0  0  0  0  0  0
  191.8500  177.8520  143.4510 O   0  0  0  0  0  0  0  0  0  0  0  0
  192.1510  176.9930  144.3220 C   0  0  0  0  0  0  0  0  0  0  0  0
  191.1340  176.4010  145.1340 N   0  0  0  0  0  2  0  0  0  0  0  0
  193.8890  173.6730  144.8720 C   0  0  1  0  0  3  0  0  0  0  0  0
  194.0420  175.6590  143.3460 C   0  0  0  0  0  2  0  0  0  0  0  0
  193.4320  176.7850  146.8850 O   0  0  0  0  0  1  0  0  0  0  0  0
  193.3450  172.3360  145.0140 N   0  0  0  0  0  1  0  0  0  0  0  0
  193.4860  174.2440  143.5160 C   0  0  0  0  0  2  0  0  0  0  0  0
  193.9130  175.9750  145.8550 C   0  0  2  0  0  3  0  0  0  0  0  0
  193.5870  176.5840  144.4800 C   0  0  2  0  0  3  0  0  0  0  0  0
  193.3610  174.5580  145.9970 C   0  0  0  0  0  2  0  0  0  0  0  0
  1  9  1  0  0  0  0
  1  6  1  0  0  0  0
  2  3  1  6  0  0  0
  2 13  1  0  0  0  0
  2  5  1  0  0  0  0
  4  7  2  0  0  0  0
  5 14  1  0  0  0  0
  5 16  2  0  0  0  0
  7  3  1  0  0  0  0
  8 23  1  1  0  0  0
  8 12  1  0  0  0  0
 10 18  1  0  0  0  0
 11  4  1  0  0  0  0
 12 16  1  0  0  0  0
 13 18  1  6  0  0  0
 13  8  1  0  0  0  0
 14  1  2  0  0  0  0
 15 20  2  0  0  0  0
 15  4  1  0  0  0  0
 16 17  1  0  0  0  0
 17  6  2  0  0  0  0
 19 10  1  0  0  0  0
 19  3  2  0  0  0  0
 20 19  1  0  0  0  0
 21 22  2  0  0  0  0
 22 23  1  0  0  0  0
 24 27  1  1  0  0  0
 24 31  1  0  0  0  0
 25 28  1  0  0  0  0
 25 30  1  0  0  0  0
 28 24  1  0  0  0  0
 29 31  1  0  0  0  0
 29 26  1  1  0  0  0
 30 22  1  1  0  0  0
 30 29  1  0  0  0  0
M  END
>  <MODEL>
3

>  <REMARK>
 VINA RESULT:      -8.5      3.044      6.967
  Name = 
  2 active torsions:
  status: ('A' for Active; 'I' for Inactive)
    1  A    between atoms: C_5  and  C_30
    2  A    between atoms: C_10  and  N_16
                            x       y       z     vdW  Elec       q    Type
                         _______ _______ _______ _____ _____    ______ ____

>  <TORSDO>
F 2

$$$$
=
 OpenBabel11112416513D

 31 35  0  0  1  0  0  0  0  0999 V2000
  186.4340  177.8290  140.7660 C   0  0  0  0  0  0  0  0  0  0  0  0
  188.9550  177.7480  143.6130 C   0  0  2  0  0  3  0  0  0  0  0  0
  188.1610  177.5080  144.8900 C   0  0  0  0  0  0  0  0  0  0  0  0
  186.0600  177.5070  146.1150 C   0  0  0  0  0  0  0  0  0  0  0  0
  188.2000  177.3520  142.3650 C   0  0  0  0  0  0  0  0  0  0  0  0
  186.6920  176.6210  140.1150 C   0  0  0  0  0  3  0  0  0  0  0  0
  186.7710  177.6990  144.9280 C   0  0  0  0  0  3  0  0  0  0  0  0
  190.1900  175.5570  143.4620 C   0  0  2  0  0  3  0  0  0  0  0  0
  185.4290  178.6660  140.3050 O   0  0  0  0  0  1  0  0  0  0  0  0
  190.2250  177.0060  146.0880 O   0  0  0  0  0  0  0  0  0  0  0  0
  184.3240  177.7330  146.1380 Cl  0  0  0  0  0  0  0  0  0  0  0  0
  189.6280  175.2610  142.0720 C   0  0  0  0  0  2  0  0  0  0  0  0
  190.3400  177.0710  143.6590 C   0  0  2  0  0  3  0  0  0  0  0  0
  187.1860  178.1930  141.8860 C   0  0  0  0  0  3  0  0  0  0  0  0
  186.7320  177.1330  147.2800 C   0  0  0  0  0  3  0  0  0  0  0  0
  188.4610  176.1310  141.7010 C   0  0  0  0  0  0  0  0  0  0  0  0
  187.7090  175.7820  140.5750 C   0  0  0  0  0  3  0  0  0  0  0  0
  191.0310  177.4080  144.9820 C   0  0  0  0  0  2  0  0  0  0  0  0
  188.8360  177.1660  146.0810 C   0  0  0  0  0  0  0  0  0  0  0  0
  188.1180  176.9650  147.2630 C   0  0  0  0  0  3  0  0  0  0  0  0
  190.6860  173.2060  145.0110 O   0  0  0  0  0  0  0  0  0  0  0  0
  191.6600  173.7170  144.3980 C   0  0  0  0  0  0  0  0  0  0  0  0
  191.4800  174.8970  143.6110 N   0  0  0  0  0  2  0  0  0  0  0  0
  195.2010  175.0630  144.3270 C   0  0  1  0  0  3  0  0  0  0  0  0
  193.7650  173.5880  145.7630 C   0  0  0  0  0  2  0  0  0  0  0  0
  193.1750  172.8290  142.1230 O   0  0  0  0  0  1  0  0  0  0  0  0
  195.6910  176.4160  144.1500 N   0  0  0  0  0  1  0  0  0  0  0  0
  194.3030  175.0050  145.5590 C   0  0  0  0  0  2  0  0  0  0  0  0
  193.8850  173.2190  143.2600 C   0  0  2  0  0  3  0  0  0  0  0  0
  193.0170  173.0850  144.5230 C   0  0  2  0  0  3  0  0  0  0  0  0
  194.4230  174.6380  143.0850 C   0  0  0  0  0  2  0  0  0  0  0  0
  1 14  1  0  0  0  0
  2  5  1  6  0  0  0
  2 13  1  0  0  0  0
  2  3  1  0  0  0  0
  3  7  2  0  0  0  0
  3 19  1  0  0  0  0
  4 11  1  0  0  0  0
  4 15  2  0  0  0  0
  6 17  1  0  0  0  0
  6  1  2  0  0  0  0
  7  4  1  0  0  0  0
  8 23  1  6  0  0  0
  8 13  1  0  0  0  0
  9  1  1  0  0  0  0
 12  8  1  0  0  0  0
 13 18  1  1  0  0  0
 14  5  2  0  0  0  0
 16 12  1  0  0  0  0
 16  5  1  0  0  0  0
 17 16  2  0  0  0  0
 18 10  1  0  0  0  0
 19 10  1  0  0  0  0
 19 20  2  0  0  0  0
 20 15  1  0  0  0  0
 22 21  2  0  0  0  0
 23 22  1  0  0  0  0
 24 27  1  6  0  0  0
 24 28  1  0  0  0  0
 28 25  1  0  0  0  0
 29 26  1  6  0  0  0
 29 30  1  0  0  0  0
 30 22  1  6  0  0  0
 30 25  1  0  0  0  0
 31 29  1  0  0  0  0
 31 24  1  0  0  0  0
M  END
>  <MODEL>
4

>  <REMARK>
 VINA RESULT:      -8.2      3.440      7.623
  Name = 
  2 active torsions:
  status: ('A' for Active; 'I' for Inactive)
    1  A    between atoms: C_5  and  C_30
    2  A    between atoms: C_10  and  N_16
                            x       y       z     vdW  Elec       q    Type
                         _______ _______ _______ _____ _____    ______ ____

>  <TORSDO>
F 2

$$$$
=
 OpenBabel11112416513D

 31 35  0  0  1  0  0  0  0  0999 V2000
  185.6870  177.5500  142.3460 C   0  0  0  0  0  0  0  0  0  0  0  0
  188.3080  174.8830  143.0390 C   0  0  2  0  0  3  0  0  0  0  0  0
  188.8350  174.4290  141.6850 C   0  0  0  0  0  0  0  0  0  0  0  0
  188.6150  174.2640  139.2680 C   0  0  0  0  0  0  0  0  0  0  0  0
  187.6230  176.2290  142.9850 C   0  0  0  0  0  0  0  0  0  0  0  0
  186.3380  178.7130  142.7610 C   0  0  0  0  0  3  0  0  0  0  0  0
  188.1370  174.7140  140.5010 C   0  0  0  0  0  3  0  0  0  0  0  0
  190.3570  176.0540  143.9220 C   0  0  2  0  0  3  0  0  0  0  0  0
  184.4060  177.6230  141.8180 O   0  0  0  0  0  1  0  0  0  0  0  0
  190.7000  173.3020  142.7790 O   0  0  0  0  0  0  0  0  0  0  0  0
  187.7400  174.6450  137.8010 Cl  0  0  0  0  0  0  0  0  0  0  0  0
  189.6030  177.3690  144.1160 C   0  0  0  0  0  2  0  0  0  0  0  0
  189.4070  174.8660  144.1210 C   0  0  2  0  0  3  0  0  0  0  0  0
  186.3260  176.3140  142.4590 C   0  0  0  0  0  3  0  0  0  0  0  0
  189.7900  173.5120  139.2060 C   0  0  0  0  0  3  0  0  0  0  0  0
  188.2780  177.4090  143.4080 C   0  0  0  0  0  0  0  0  0  0  0  0
  187.6250  178.6400  143.3000 C   0  0  0  0  0  3  0  0  0  0  0  0
  190.1500  173.5290  144.0750 C   0  0  0  0  0  2  0  0  0  0  0  0
  190.0010  173.6390  141.6160 C   0  0  0  0  0  0  0  0  0  0  0  0
  190.4800  173.1990  140.3780 C   0  0  0  0  0  3  0  0  0  0  0  0
  193.1250  175.8240  143.2440 O   0  0  0  0  0  0  0  0  0  0  0  0
  192.8260  175.8770  144.4670 C   0  0  0  0  0  0  0  0  0  0  0  0
  191.4590  175.9860  144.8720 N   0  0  0  0  0  2  0  0  0  0  0  0
  196.5370  175.1380  144.2960 C   0  0  1  0  0  3  0  0  0  0  0  0
  194.9940  176.8680  145.2580 C   0  0  0  0  0  2  0  0  0  0  0  0
  193.5640  173.4230  145.7680 O   0  0  0  0  0  1  0  0  0  0  0  0
  197.3830  174.8150  143.1630 N   0  0  0  0  0  1  0  0  0  0  0  0
  195.8990  176.5070  144.0790 C   0  0  0  0  0  2  0  0  0  0  0  0
  194.5490  174.4020  145.6280 C   0  0  2  0  0  3  0  0  0  0  0  0
  193.9210  175.8000  145.4920 C   0  0  2  0  0  3  0  0  0  0  0  0
  195.4600  174.0690  144.4470 C   0  0  0  0  0  2  0  0  0  0  0  0
  1 14  2  0  0  0  0
  1  6  1  0  0  0  0
  2  3  1  6  0  0  0
  2 13  1  0  0  0  0
  4  7  1  0  0  0  0
  5  2  1  0  0  0  0
  5 16  2  0  0  0  0
  6 17  2  0  0  0  0
  7  3  2  0  0  0  0
  8 12  1  0  0  0  0
  8 13  1  0  0  0  0
  8 23  1  1  0  0  0
  9  1  1  0  0  0  0
 10 18  1  0  0  0  0
 11  4  1  0  0  0  0
 13 18  1  6  0  0  0
 14  5  1  0  0  0  0
 15  4  2  0  0  0  0
 15 20  1  0  0  0  0
 16 12  1  0  0  0  0
 17 16  1  0  0  0  0
 19  3  1  0  0  0  0
 19 10  1  0  0  0  0
 20 19  2  0  0  0  0
 21 22  2  0  0  0  0
 22 23  1  0  0  0  0
 24 27  1  6  0  0  0
 24 31  1  0  0  0  0
 25 30  1  0  0  0  0
 28 24  1  0  0  0  0
 28 25  1  0  0  0  0
 29 26  1  6  0  0  0
 30 22  1  6  0  0  0
 30 29  1  0  0  0  0
 31 29  1  0  0  0  0
M  END
>  <MODEL>
5

>  <REMARK>
 VINA RESULT:      -7.8      3.397      7.200
  Name = 
  2 active torsions:
  status: ('A' for Active; 'I' for Inactive)
    1  A    between atoms: C_5  and  C_30
    2  A    between atoms: C_10  and  N_16
                            x       y       z     vdW  Elec       q    Type
                         _______ _______ _______ _____ _____    ______ ____

>  <TORSDO>
F 2

$$$$
=
 OpenBabel11112416513D

 31 35  0  0  1  0  0  0  0  0999 V2000
  190.1730  171.4540  142.3200 C   0  0  0  0  0  0  0  0  0  0  0  0
  189.7190  174.4970  144.5570 C   0  0  2  0  0  3  0  0  0  0  0  0
  191.0300  175.2690  144.5120 C   0  0  0  0  0  0  0  0  0  0  0  0
  193.4130  175.3800  144.0340 C   0  0  0  0  0  0  0  0  0  0  0  0
  189.5550  173.5430  143.3960 C   0  0  0  0  0  0  0  0  0  0  0  0
  189.3760  171.7790  141.2210 C   0  0  0  0  0  3  0  0  0  0  0  0
  192.2090  174.6710  144.0390 C   0  0  0  0  0  3  0  0  0  0  0  0
  188.2300  176.1170  143.3280 C   0  0  2  0  0  3  0  0  0  0  0  0
  190.8810  170.2610  142.3350 O   0  0  0  0  0  1  0  0  0  0  0  0
  189.9430  177.1920  145.5440 O   0  0  0  0  0  0  0  0  0  0  0  0
  194.8680  174.6240  143.4240 Cl  0  0  0  0  0  0  0  0  0  0  0  0
  187.8500  175.0740  142.2780 C   0  0  0  0  0  2  0  0  0  0  0  0
  188.5010  175.4350  144.6760 C   0  0  2  0  0  3  0  0  0  0  0  0
  190.2610  172.3320  143.4030 C   0  0  0  0  0  3  0  0  0  0  0  0
  193.4540  176.6910  144.5140 C   0  0  0  0  0  3  0  0  0  0  0  0
  188.7450  173.8670  142.2830 C   0  0  0  0  0  0  0  0  0  0  0  0
  188.6570  172.9760  141.2080 C   0  0  0  0  0  3  0  0  0  0  0  0
  188.7470  176.4540  145.7900 C   0  0  0  0  0  2  0  0  0  0  0  0
  191.0890  176.5800  145.0280 C   0  0  0  0  0  0  0  0  0  0  0  0
  192.2940  177.2890  145.0120 C   0  0  0  0  0  3  0  0  0  0  0  0
  187.8720  178.4380  141.6980 O   0  0  0  0  0  0  0  0  0  0  0  0
  187.0240  178.2260  142.6050 C   0  0  0  0  0  0  0  0  0  0  0  0
  187.1500  177.0850  143.4590 N   0  0  0  0  0  2  0  0  0  0  0  0
  184.4050  178.7180  145.2970 C   0  0  1  0  0  3  0  0  0  0  0  0
  186.0980  180.0720  144.0340 C   0  0  0  0  0  2  0  0  0  0  0  0
  184.3480  177.6850  141.7090 O   0  0  0  0  0  1  0  0  0  0  0  0
  184.1640  177.9820  146.5230 N   0  0  0  0  0  1  0  0  0  0  0  0
  185.8160  179.2980  145.3220 C   0  0  0  0  0  2  0  0  0  0  0  0
  184.5030  178.5390  142.8020 C   0  0  2  0  0  3  0  0  0  0  0  0
  185.8940  179.1970  142.7930 C   0  0  2  0  0  3  0  0  0  0  0  0
  184.2370  177.7830  144.1030 C   0  0  0  0  0  2  0  0  0  0  0  0
  1  9  1  0  0  0  0
  1 14  1  0  0  0  0
  2  5  1  6  0  0  0
  2 13  1  0  0  0  0
  3  2  1  0  0  0  0
  3 19  1  0  0  0  0
  4  7  1  0  0  0  0
  4 15  2  0  0  0  0
  5 14  2  0  0  0  0
  6  1  2  0  0  0  0
  7  3  2  0  0  0  0
  8 23  1  1  0  0  0
  8 13  1  0  0  0  0
 10 18  1  0  0  0  0
 11  4  1  0  0  0  0
 12 16  1  0  0  0  0
 12  8  1  0  0  0  0
 13 18  1  1  0  0  0
 15 20  1  0  0  0  0
 16  5  1  0  0  0  0
 17  6  1  0  0  0  0
 17 16  2  0  0  0  0
 19 10  1  0  0  0  0
 20 19  2  0  0  0  0
 21 22  2  0  0  0  0
 22 23  1  0  0  0  0
 24 28  1  0  0  0  0
 24 27  1  1  0  0  0
 25 28  1  0  0  0  0
 29 26  1  6  0  0  0
 29 31  1  0  0  0  0
 30 22  1  1  0  0  0
 30 29  1  0  0  0  0
 30 25  1  0  0  0  0
 31 24  1  0  0  0  0
M  END
>  <MODEL>
6

>  <REMARK>
 VINA RESULT:      -7.7      2.430      4.818
  Name = 
  2 active torsions:
  status: ('A' for Active; 'I' for Inactive)
    1  A    between atoms: C_5  and  C_30
    2  A    between atoms: C_10  and  N_16
                            x       y       z     vdW  Elec       q    Type
                         _______ _______ _______ _____ _____    ______ ____

>  <TORSDO>
F 2

$$$$
=
 OpenBabel11112416513D

 31 35  0  0  1  0  0  0  0  0999 V2000
  196.8150  170.8030  145.4220 C   0  0  0  0  0  0  0  0  0  0  0  0
  196.2010  174.5150  144.8670 C   0  0  2  0  0  3  0  0  0  0  0  0
  196.3590  174.7640  143.3740 C   0  0  0  0  0  0  0  0  0  0  0  0
  197.1620  174.0810  141.1810 C   0  0  0  0  0  0  0  0  0  0  0  0
  195.9510  173.0630  145.2010 C   0  0  0  0  0  0  0  0  0  0  0  0
  195.5310  170.3350  145.7070 C   0  0  0  0  0  3  0  0  0  0  0  0
  196.9950  173.8260  142.5450 C   0  0  0  0  0  3  0  0  0  0  0  0
  193.7240  174.9110  145.1040 C   0  0  2  0  0  3  0  0  0  0  0  0
  197.8830  169.9180  145.3830 O   0  0  0  0  0  1  0  0  0  0  0  0
  195.3350  176.9620  143.6230 O   0  0  0  0  0  0  0  0  0  0  0  0
  197.9410  172.8920  140.1610 Cl  0  0  0  0  0  0  0  0  0  0  0  0
  193.4910  173.5190  145.6900 C   0  0  0  0  0  2  0  0  0  0  0  0
  195.1190  175.4190  145.4910 C   0  0  2  0  0  3  0  0  0  0  0  0
  197.0230  172.1610  145.1710 C   0  0  0  0  0  3  0  0  0  0  0  0
  196.7070  175.2820  140.6340 C   0  0  0  0  0  3  0  0  0  0  0  0
  194.6520  172.5860  145.4950 C   0  0  0  0  0  0  0  0  0  0  0  0
  194.4570  171.2260  145.7540 C   0  0  0  0  0  3  0  0  0  0  0  0
  195.3420  176.8660  145.0460 C   0  0  0  0  0  2  0  0  0  0  0  0
  195.9360  175.9890  142.8190 C   0  0  0  0  0  0  0  0  0  0  0  0
  196.0970  176.2350  141.4520 C   0  0  0  0  0  3  0  0  0  0  0  0
  191.2980  175.5780  143.7470 O   0  0  0  0  0  0  0  0  0  0  0  0
  191.5020  176.1080  144.8720 C   0  0  0  0  0  0  0  0  0  0  0  0
  192.6990  175.8200  145.5990 N   0  0  0  0  0  2  0  0  0  0  0  0
  187.8890  176.8740  144.0320 C   0  0  1  0  0  3  0  0  0  0  0  0
  189.2890  176.3230  146.0400 C   0  0  0  0  0  2  0  0  0  0  0  0
  191.1100  178.7500  143.8120 O   0  0  0  0  0  1  0  0  0  0  0  0
  187.0180  176.3150  143.0150 N   0  0  0  0  0  1  0  0  0  0  0  0
  188.3620  175.7610  144.9620 C   0  0  0  0  0  2  0  0  0  0  0  0
  190.0190  178.1300  144.4220 C   0  0  2  0  0  3  0  0  0  0  0  0
  190.4840  177.0620  145.4270 C   0  0  2  0  0  3  0  0  0  0  0  0
  189.0830  177.5490  143.3640 C   0  0  0  0  0  2  0  0  0  0  0  0
  1  6  1  0  0  0  0
  2  3  1  6  0  0  0
  2  5  1  0  0  0  0
  2 13  1  0  0  0  0
  4  7  1  0  0  0  0
  5 16  2  0  0  0  0
  6 17  2  0  0  0  0
  7  3  2  0  0  0  0
  8 13  1  0  0  0  0
  8 23  1  1  0  0  0
  8 12  1  0  0  0  0
  9  1  1  0  0  0  0
 10 18  1  0  0  0  0
 11  4  1  0  0  0  0
 13 18  1  6  0  0  0
 14  5  1  0  0  0  0
 14  1  2  0  0  0  0
 15  4  2  0  0  0  0
 15 20  1  0  0  0  0
 16 12  1  0  0  0  0
 16 17  1  0  0  0  0
 19  3  1  0  0  0  0
 19 10  1  0  0  0  0
 20 19  2  0  0  0  0
 21 22  2  0  0  0  0
 22 23  1  0  0  0  0
 24 27  1  6  0  0  0
 24 28  1  0  0  0  0
 28 25  1  0  0  0  0
 29 26  1  6  0  0  0
 29 30  1  0  0  0  0
 30 22  1  6  0  0  0
 30 25  1  0  0  0  0
 31 24  1  0  0  0  0
 31 29  1  0  0  0  0
M  END
>  <MODEL>
7

>  <REMARK>
 VINA RESULT:      -7.6      3.657      5.562
  Name = 
  2 active torsions:
  status: ('A' for Active; 'I' for Inactive)
    1  A    between atoms: C_5  and  C_30
    2  A    between atoms: C_10  and  N_16
                            x       y       z     vdW  Elec       q    Type
                         _______ _______ _______ _____ _____    ______ ____

>  <TORSDO>
F 2

$$$$
=
 OpenBabel11112416513D

 31 35  0  0  1  0  0  0  0  0999 V2000
  186.1080  178.9080  143.0140 C   0  0  0  0  0  0  0  0  0  0  0  0
  189.2940  176.9030  143.5570 C   0  0  2  0  0  3  0  0  0  0  0  0
  189.1130  176.1460  144.8650 C   0  0  0  0  0  0  0  0  0  0  0  0
  187.9810  175.8270  146.9950 C   0  0  0  0  0  0  0  0  0  0  0  0
  187.9860  177.3680  142.9580 C   0  0  0  0  0  0  0  0  0  0  0  0
  185.5050  178.2170  141.9610 C   0  0  0  0  0  3  0  0  0  0  0  0
  188.1150  176.5090  145.7830 C   0  0  0  0  0  3  0  0  0  0  0  0
  189.2510  174.9710  141.9400 C   0  0  2  0  0  3  0  0  0  0  0  0
  185.4780  180.0110  143.5710 O   0  0  0  0  0  1  0  0  0  0  0  0
  191.0430  174.7530  144.3350 O   0  0  0  0  0  0  0  0  0  0  0  0
  186.7190  176.2830  148.1170 Cl  0  0  0  0  0  0  0  0  0  0  0  0
  188.0780  175.5640  141.1600 C   0  0  0  0  0  2  0  0  0  0  0  0
  190.1130  176.0940  142.5310 C   0  0  2  0  0  3  0  0  0  0  0  0
  187.3440  178.4850  143.5090 C   0  0  0  0  0  3  0  0  0  0  0  0
  188.8530  174.7830  147.3090 C   0  0  0  0  0  3  0  0  0  0  0  0
  187.3750  176.6730  141.8900 C   0  0  0  0  0  0  0  0  0  0  0  0
  186.1420  177.1100  141.3950 C   0  0  0  0  0  3  0  0  0  0  0  0
  191.3770  175.5490  143.2000 C   0  0  0  0  0  2  0  0  0  0  0  0
  190.0120  175.1140  145.2070 C   0  0  0  0  0  0  0  0  0  0  0  0
  189.8680  174.4280  146.4170 C   0  0  0  0  0  3  0  0  0  0  0  0
  189.4750  172.1250  142.0890 O   0  0  0  0  0  0  0  0  0  0  0  0
  190.1130  172.7130  141.1760 C   0  0  0  0  0  0  0  0  0  0  0  0
  190.0470  174.1360  141.0510 N   0  0  0  0  0  2  0  0  0  0  0  0
  192.2210  173.5650  138.1460 C   0  0  1  0  0  3  0  0  0  0  0  0
  192.4350  172.3100  140.3090 C   0  0  0  0  0  2  0  0  0  0  0  0
  189.0920  171.6100  138.7260 O   0  0  0  0  0  1  0  0  0  0  0  0
  192.4650  174.8370  137.4950 N   0  0  0  0  0  1  0  0  0  0  0  0
  192.6900  173.6390  139.5960 C   0  0  0  0  0  2  0  0  0  0  0  0
  190.4540  171.9090  138.7820 C   0  0  2  0  0  3  0  0  0  0  0  0
  190.9590  171.9040  140.2360 C   0  0  2  0  0  3  0  0  0  0  0  0
  190.7310  173.2400  138.0860 C   0  0  0  0  0  2  0  0  0  0  0  0
  1 14  1  0  0  0  0
  1  9  1  0  0  0  0
  2  5  1  6  0  0  0
  2  3  1  0  0  0  0
  3 19  2  0  0  0  0
  3  7  1  0  0  0  0
  4 15  1  0  0  0  0
  4 11  1  0  0  0  0
  5 14  2  0  0  0  0
  6  1  2  0  0  0  0
  7  4  2  0  0  0  0
  8 23  1  6  0  0  0
  8 13  1  0  0  0  0
 10 19  1  0  0  0  0
 12 16  1  0  0  0  0
 12  8  1  0  0  0  0
 13 18  1  1  0  0  0
 13  2  1  0  0  0  0
 16  5  1  0  0  0  0
 17 16  2  0  0  0  0
 17  6  1  0  0  0  0
 18 10  1  0  0  0  0
 19 20  1  0  0  0  0
 20 15  2  0  0  0  0
 22 21  2  0  0  0  0
 23 22  1  0  0  0  0
 24 27  1  1  0  0  0
 24 28  1  0  0  0  0
 28 25  1  0  0  0  0
 29 26  1  1  0  0  0
 29 30  1  0  0  0  0
 30 25  1  0  0  0  0
 30 22  1  1  0  0  0
 31 24  1  0  0  0  0
 31 29  1  0  0  0  0
M  END
>  <MODEL>
8

>  <REMARK>
 VINA RESULT:      -7.6      3.690      7.942
  Name = 
  2 active torsions:
  status: ('A' for Active; 'I' for Inactive)
    1  A    between atoms: C_5  and  C_30
    2  A    between atoms: C_10  and  N_16
                            x       y       z     vdW  Elec       q    Type
                         _______ _______ _______ _____ _____    ______ ____

>  <TORSDO>
F 2

$$$$
=
 OpenBabel11112416513D

 31 35  0  0  1  0  0  0  0  0999 V2000
  192.4900  173.2150  141.5340 C   0  0  0  0  0  0  0  0  0  0  0  0
  191.8990  174.1720  145.1680 C   0  0  2  0  0  3  0  0  0  0  0  0
  192.8520  175.3190  145.4760 C   0  0  0  0  0  0  0  0  0  0  0  0
  194.8300  176.6340  144.9530 C   0  0  0  0  0  0  0  0  0  0  0  0
  191.6640  173.9810  143.6870 C   0  0  0  0  0  0  0  0  0  0  0  0
  191.3330  173.6920  140.9160 C   0  0  0  0  0  3  0  0  0  0  0  0
  193.9450  175.5990  144.6410 C   0  0  0  0  0  3  0  0  0  0  0  0
  189.7040  175.4030  145.2730 C   0  0  2  0  0  3  0  0  0  0  0  0
  193.4790  172.6030  140.7780 O   0  0  0  0  0  1  0  0  0  0  0  0
  191.6350  175.7870  147.5360 O   0  0  0  0  0  0  0  0  0  0  0  0
  196.1760  176.9800  143.8900 Cl  0  0  0  0  0  0  0  0  0  0  0  0
  189.3320  174.9980  143.8470 C   0  0  0  0  0  2  0  0  0  0  0  0
  190.5630  174.3120  145.9250 C   0  0  2  0  0  3  0  0  0  0  0  0
  192.6540  173.3580  142.9140 C   0  0  0  0  0  3  0  0  0  0  0  0
  194.6400  177.3910  146.1100 C   0  0  0  0  0  3  0  0  0  0  0  0
  190.4920  174.4590  143.0580 C   0  0  0  0  0  0  0  0  0  0  0  0
  190.3340  174.3020  141.6770 C   0  0  0  0  0  3  0  0  0  0  0  0
  190.8400  174.6100  147.4000 C   0  0  0  0  0  2  0  0  0  0  0  0
  192.6890  176.0650  146.6610 C   0  0  0  0  0  0  0  0  0  0  0  0
  193.5720  177.1060  146.9640 C   0  0  0  0  0  3  0  0  0  0  0  0
  188.2650  177.8670  145.4590 O   0  0  0  0  0  0  0  0  0  0  0  0
  187.8110  176.8770  146.0920 C   0  0  0  0  0  0  0  0  0  0  0  0
  188.4870  175.6180  146.0450 N   0  0  0  0  0  2  0  0  0  0  0  0
  184.6190  178.8690  145.6510 C   0  0  1  0  0  3  0  0  0  0  0  0
  185.3260  176.5190  146.1790 C   0  0  0  0  0  2  0  0  0  0  0  0
  187.4960  178.9750  148.0290 O   0  0  0  0  0  1  0  0  0  0  0  0
  184.2050  179.7620  144.5860 N   0  0  0  0  0  1  0  0  0  0  0  0
  184.8790  177.4790  145.0750 C   0  0  0  0  0  2  0  0  0  0  0  0
  186.3420  178.4760  147.4250 C   0  0  2  0  0  3  0  0  0  0  0  0
  186.5650  177.0420  146.9140 C   0  0  2  0  0  3  0  0  0  0  0  0
  185.8830  179.4140  146.3100 C   0  0  0  0  0  2  0  0  0  0  0  0
  1 14  1  0  0  0  0
  2  5  1  6  0  0  0
  2  3  1  0  0  0  0
  2 13  1  0  0  0  0
  3 19  1  0  0  0  0
  4 15  2  0  0  0  0
  6  1  2  0  0  0  0
  6 17  1  0  0  0  0
  7  4  1  0  0  0  0
  7  3  2  0  0  0  0
  8 13  1  0  0  0  0
  8 23  1  1  0  0  0
  9  1  1  0  0  0  0
 11  4  1  0  0  0  0
 12  8  1  0  0  0  0
 13 18  1  1  0  0  0
 14  5  2  0  0  0  0
 15 20  1  0  0  0  0
 16  5  1  0  0  0  0
 16 12  1  0  0  0  0
 17 16  2  0  0  0  0
 18 10  1  0  0  0  0
 19 20  2  0  0  0  0
 19 10  1  0  0  0  0
 21 22  2  0  0  0  0
 23 22  1  0  0  0  0
 24 27  1  6  0  0  0
 24 31  1  0  0  0  0
 25 30  1  0  0  0  0
 28 24  1  0  0  0  0
 28 25  1  0  0  0  0
 29 26  1  6  0  0  0
 30 22  1  6  0  0  0
 30 29  1  0  0  0  0
 31 29  1  0  0  0  0
M  END
>  <MODEL>
9

>  <REMARK>
 VINA RESULT:      -7.5      2.151      4.196
  Name = 
  2 active torsions:
  status: ('A' for Active; 'I' for Inactive)
    1  A    between atoms: C_5  and  C_30
    2  A    between atoms: C_10  and  N_16
                            x       y       z     vdW  Elec       q    Type
                         _______ _______ _______ _____ _____    ______ ____

>  <TORSDO>
F 2

$$$$
