=
 OpenBabel11112416593D

 31 35  0  0  0  0  0  0  0  0999 V2000
  184.5960  178.4790  146.3370 C   0  0  0  0  0  0  0  0  0  0  0  0
  187.3260  177.5000  143.9320 C   0  0  0  0  0  0  0  0  0  0  0  0
  186.7730  177.5880  142.6190 C   0  0  0  0  0  0  0  0  0  0  0  0
  184.9440  178.0490  141.0650 C   0  0  0  0  0  0  0  0  0  0  0  0
  186.6110  177.7930  145.1370 C   0  0  0  0  0  0  0  0  0  0  0  0
  185.2600  178.3530  147.5550 C   0  0  0  0  0  3  0  0  0  0  0  0
  185.4450  177.9770  142.3670 C   0  0  0  0  0  3  0  0  0  0  0  0
  189.3140  176.9790  145.2900 C   0  0  0  0  0  0  0  0  0  0  0  0
  183.2680  178.8820  146.3100 O   0  0  0  0  0  1  0  0  0  0  0  0
  188.8750  176.8920  141.7000 N   0  0  0  0  0  0  0  0  0  0  0  0
  183.6290  178.4360  140.8480 O   0  0  0  0  0  1  0  0  0  0  0  0
  188.5970  177.2690  146.4490 C   0  0  0  0  0  3  0  0  0  0  0  0
  188.6860  177.0930  144.0390 C   0  0  0  0  0  0  0  0  0  0  0  0
  185.2650  178.2030  145.1440 C   0  0  0  0  0  3  0  0  0  0  0  0
  185.7660  177.7320  139.9840 C   0  0  0  0  0  3  0  0  0  0  0  0
  187.2690  177.6690  146.3870 C   0  0  0  0  0  0  0  0  0  0  0  0
  186.5950  177.9470  147.5790 C   0  0  0  0  0  3  0  0  0  0  0  0
  189.4000  176.8060  142.9190 N   0  0  0  0  0  0  0  0  0  0  0  0
  187.5910  177.2710  141.5090 C   0  0  0  0  0  0  0  0  0  0  0  0
  187.0870  177.3430  140.2070 C   0  0  0  0  0  3  0  0  0  0  0  0
  190.4270  174.5070  146.4390 O   0  0  0  0  0  0  0  0  0  0  0  0
  191.2060  175.3510  145.9190 C   0  0  0  0  0  0  0  0  0  0  0  0
  190.6890  176.5650  145.3510 N   0  0  0  0  0  2  0  0  0  0  0  0
  195.4000  174.5810  145.7970 C   0  0  0  0  0  0  0  0  0  0  0  0
  193.1530  173.9940  145.1760 C   0  0  0  0  0  3  0  0  0  0  0  0
  193.1820  177.0140  147.2520 F   0  0  0  0  0  0  0  0  0  0  0  0
  196.7340  174.3410  145.7620 F   0  0  0  0  0  0  0  0  0  0  0  0
  194.5220  173.7300  145.1280 C   0  0  0  0  0  3  0  0  0  0  0  0
  193.5910  175.9290  146.5480 C   0  0  0  0  0  0  0  0  0  0  0  0
  192.6640  175.0970  145.8870 C   0  0  0  0  0  0  0  0  0  0  0  0
  194.9210  175.6500  146.4850 N   0  0  0  0  0  0  0  0  0  0  0  0
  1  6  1  0  0  0  0
  2 13  2  0  0  0  0
  2  5  1  0  0  0  0
  3  2  1  0  0  0  0
  4  7  1  0  0  0  0
  5 14  1  0  0  0  0
  5 16  2  0  0  0  0
  6 17  2  0  0  0  0
  7  3  2  0  0  0  0
  8 23  1  0  0  0  0
  8 12  2  0  0  0  0
  9  1  1  0  0  0  0
 10 18  2  0  0  0  0
 11  4  1  0  0  0  0
 13  8  1  0  0  0  0
 14  1  2  0  0  0  0
 15 20  1  0  0  0  0
 15  4  2  0  0  0  0
 16 12  1  0  0  0  0
 16 17  1  0  0  0  0
 18 13  1  0  0  0  0
 19 10  1  0  0  0  0
 19  3  1  0  0  0  0
 20 19  2  0  0  0  0
 22 21  2  0  0  0  0
 23 22  1  0  0  0  0
 24 31  1  0  0  0  0
 25 30  2  0  0  0  0
 27 24  1  0  0  0  0
 28 25  1  0  0  0  0
 28 24  2  0  0  0  0
 29 26  1  0  0  0  0
 30 22  1  0  0  0  0
 30 29  1  0  0  0  0
 31 29  2  0  0  0  0
M  END
>  <MODEL>
1

>  <REMARK>
 VINA RESULT:      -9.5      0.000      0.000
  Name = 
  2 active torsions:
  status: ('A' for Active; 'I' for Inactive)
    1  A    between atoms: C_5  and  C_30
    2  A    between atoms: C_10  and  N_16
                            x       y       z     vdW  Elec       q    Type
                         _______ _______ _______ _____ _____    ______ ____

>  <TORSDO>
F 2

$$$$
=
 OpenBabel11112416593D

 31 35  0  0  0  0  0  0  0  0999 V2000
  184.9360  178.1070  146.8740 C   0  0  0  0  0  0  0  0  0  0  0  0
  187.1450  177.8330  143.8340 C   0  0  0  0  0  0  0  0  0  0  0  0
  186.2910  177.9160  142.6930 C   0  0  0  0  0  0  0  0  0  0  0  0
  184.0970  178.1450  141.6410 C   0  0  0  0  0  0  0  0  0  0  0  0
  186.6960  177.8970  145.1910 C   0  0  0  0  0  0  0  0  0  0  0  0
  185.8800  178.0150  147.8950 C   0  0  0  0  0  3  0  0  0  0  0  0
  184.8960  178.0690  142.7830 C   0  0  0  0  0  3  0  0  0  0  0  0
  189.4540  177.5880  144.6550 C   0  0  0  0  0  0  0  0  0  0  0  0
  183.5910  178.2590  147.1850 O   0  0  0  0  0  1  0  0  0  0  0  0
  188.2010  177.6910  141.2620 N   0  0  0  0  0  0  0  0  0  0  0  0
  182.7240  178.2970  141.7620 O   0  0  0  0  0  1  0  0  0  0  0  0
  188.9930  177.6530  145.9680 C   0  0  0  0  0  3  0  0  0  0  0  0
  188.5390  177.6780  143.5930 C   0  0  0  0  0  0  0  0  0  0  0  0
  185.3410  178.0490  145.5400 C   0  0  0  0  0  3  0  0  0  0  0  0
  184.6820  178.0680  140.3770 C   0  0  0  0  0  3  0  0  0  0  0  0
  187.6410  177.8040  146.2440 C   0  0  0  0  0  0  0  0  0  0  0  0
  187.2310  177.8620  147.5790 C   0  0  0  0  0  3  0  0  0  0  0  0
  189.0060  177.6130  142.3180 N   0  0  0  0  0  0  0  0  0  0  0  0
  186.8650  177.8390  141.4020 C   0  0  0  0  0  0  0  0  0  0  0  0
  186.0640  177.9140  140.2580 C   0  0  0  0  0  3  0  0  0  0  0  0
  191.0480  175.1120  144.6290 O   0  0  0  0  0  0  0  0  0  0  0  0
  191.6080  176.2090  144.3600 C   0  0  0  0  0  0  0  0  0  0  0  0
  190.8540  177.4320  144.3650 N   0  0  0  0  0  2  0  0  0  0  0  0
  195.7780  176.3320  143.4670 C   0  0  0  0  0  0  0  0  0  0  0  0
  193.9700  176.6040  145.0290 C   0  0  0  0  0  3  0  0  0  0  0  0
  192.7080  175.5830  141.7430 F   0  0  0  0  0  0  0  0  0  0  0  0
  197.1010  176.3700  143.1780 F   0  0  0  0  0  0  0  0  0  0  0  0
  195.3360  176.6490  144.7500 C   0  0  0  0  0  3  0  0  0  0  0  0
  193.5450  175.9360  142.7500 C   0  0  0  0  0  0  0  0  0  0  0  0
  193.0510  176.2480  144.0340 C   0  0  0  0  0  0  0  0  0  0  0  0
  194.8820  175.9870  142.5040 N   0  0  0  0  0  0  0  0  0  0  0  0
  1  9  1  0  0  0  0
  1  6  1  0  0  0  0
  2  5  1  0  0  0  0
  3  7  2  0  0  0  0
  3  2  1  0  0  0  0
  4 11  1  0  0  0  0
  4  7  1  0  0  0  0
  5 14  1  0  0  0  0
  5 16  2  0  0  0  0
  8 12  2  0  0  0  0
 10 19  1  0  0  0  0
 10 18  2  0  0  0  0
 12 16  1  0  0  0  0
 13  2  2  0  0  0  0
 13  8  1  0  0  0  0
 14  1  2  0  0  0  0
 15  4  2  0  0  0  0
 16 17  1  0  0  0  0
 17  6  2  0  0  0  0
 18 13  1  0  0  0  0
 19  3  1  0  0  0  0
 20 15  1  0  0  0  0
 20 19  2  0  0  0  0
 22 23  1  0  0  0  0
 22 21  2  0  0  0  0
 23  8  1  0  0  0  0
 24 28  1  0  0  0  0
 26 29  1  0  0  0  0
 27 24  1  0  0  0  0
 28 25  2  0  0  0  0
 29 30  2  0  0  0  0
 30 22  1  0  0  0  0
 30 25  1  0  0  0  0
 31 29  1  0  0  0  0
 31 24  2  0  0  0  0
M  END
>  <MODEL>
2

>  <REMARK>
 VINA RESULT:      -9.3      1.908      2.035
  Name = 
  2 active torsions:
  status: ('A' for Active; 'I' for Inactive)
    1  A    between atoms: C_5  and  C_30
    2  A    between atoms: C_10  and  N_16
                            x       y       z     vdW  Elec       q    Type
                         _______ _______ _______ _____ _____    ______ ____

>  <TORSDO>
F 2

$$$$
=
 OpenBabel11112416593D

 31 35  0  0  0  0  0  0  0  0999 V2000
  185.2850  177.9480  141.0430 C   0  0  0  0  0  0  0  0  0  0  0  0
  187.2690  177.4130  144.2020 C   0  0  0  0  0  0  0  0  0  0  0  0
  186.4170  177.7640  145.2910 C   0  0  0  0  0  0  0  0  0  0  0  0
  184.2960  178.5500  146.2160 C   0  0  0  0  0  0  0  0  0  0  0  0
  186.8930  177.4750  142.8220 C   0  0  0  0  0  0  0  0  0  0  0  0
  186.2190  177.5740  140.0790 C   0  0  0  0  0  3  0  0  0  0  0  0
  185.0960  178.2170  145.1210 C   0  0  0  0  0  3  0  0  0  0  0  0
  189.4910  176.6030  143.5140 C   0  0  0  0  0  0  0  0  0  0  0  0
  184.0200  178.3700  140.6570 O   0  0  0  0  0  1  0  0  0  0  0  0
  188.1770  177.2260  146.8260 N   0  0  0  0  0  0  0  0  0  0  0  0
  182.9960  178.9940  146.0170 O   0  0  0  0  0  1  0  0  0  0  0  0
  189.1020  176.6720  142.1780 C   0  0  0  0  0  3  0  0  0  0  0  0
  188.5840  176.9690  144.5210 C   0  0  0  0  0  0  0  0  0  0  0  0
  185.6200  177.8980  142.3970 C   0  0  0  0  0  3  0  0  0  0  0  0
  184.8040  178.4370  147.5100 C   0  0  0  0  0  3  0  0  0  0  0  0
  187.8300  177.0990  141.8250 C   0  0  0  0  0  0  0  0  0  0  0  0
  187.4900  177.1510  140.4710 C   0  0  0  0  0  3  0  0  0  0  0  0
  188.9800  176.8960  145.8190 N   0  0  0  0  0  0  0  0  0  0  0  0
  186.9130  177.6560  146.6110 C   0  0  0  0  0  0  0  0  0  0  0  0
  186.1110  177.9910  147.7060 C   0  0  0  0  0  3  0  0  0  0  0  0
  191.9330  178.2160  143.8460 O   0  0  0  0  0  0  0  0  0  0  0  0
  191.9850  176.9710  144.0370 C   0  0  0  0  0  0  0  0  0  0  0  0
  190.8090  176.1610  143.8820 N   0  0  0  0  0  2  0  0  0  0  0  0
  195.6510  175.1270  145.2040 C   0  0  0  0  0  0  0  0  0  0  0  0
  193.5220  176.0840  145.7800 C   0  0  0  0  0  3  0  0  0  0  0  0
  194.0460  176.1650  142.1540 F   0  0  0  0  0  0  0  0  0  0  0  0
  196.8170  174.5420  145.5690 F   0  0  0  0  0  0  0  0  0  0  0  0
  194.7160  175.4830  146.1750 C   0  0  0  0  0  3  0  0  0  0  0  0
  194.2370  175.9540  143.4800 C   0  0  0  0  0  0  0  0  0  0  0  0
  193.2620  176.3310  144.4260 C   0  0  0  0  0  0  0  0  0  0  0  0
  195.3940  175.3690  143.8910 N   0  0  0  0  0  0  0  0  0  0  0  0
  1 14  1  0  0  0  0
  2 13  2  0  0  0  0
  2  3  1  0  0  0  0
  3 19  1  0  0  0  0
  4 15  2  0  0  0  0
  5  2  1  0  0  0  0
  6 17  1  0  0  0  0
  6  1  2  0  0  0  0
  7  3  2  0  0  0  0
  7  4  1  0  0  0  0
  8 23  1  0  0  0  0
  8 13  1  0  0  0  0
  9  1  1  0  0  0  0
 11  4  1  0  0  0  0
 12  8  2  0  0  0  0
 13 18  1  0  0  0  0
 14  5  2  0  0  0  0
 15 20  1  0  0  0  0
 16 12  1  0  0  0  0
 16  5  1  0  0  0  0
 17 16  2  0  0  0  0
 18 10  2  0  0  0  0
 19 10  1  0  0  0  0
 19 20  2  0  0  0  0
 21 22  2  0  0  0  0
 22 30  1  0  0  0  0
 23 22  1  0  0  0  0
 24 27  1  0  0  0  0
 24 28  1  0  0  0  0
 25 28  2  0  0  0  0
 26 29  1  0  0  0  0
 29 31  1  0  0  0  0
 29 30  2  0  0  0  0
 30 25  1  0  0  0  0
 31 24  2  0  0  0  0
M  END
>  <MODEL>
3

>  <REMARK>
 VINA RESULT:      -9.2      1.759      4.272
  Name = 
  2 active torsions:
  status: ('A' for Active; 'I' for Inactive)
    1  A    between atoms: C_5  and  C_30
    2  A    between atoms: C_10  and  N_16
                            x       y       z     vdW  Elec       q    Type
                         _______ _______ _______ _____ _____    ______ ____

>  <TORSDO>
F 2

$$$$
=
 OpenBabel11112416593D

 31 35  0  0  0  0  0  0  0  0999 V2000
  186.3080  177.8250  146.7650 C   0  0  0  0  0  0  0  0  0  0  0  0
  189.2150  176.3700  144.8590 C   0  0  0  0  0  0  0  0  0  0  0  0
  190.3470  176.4200  145.7270 C   0  0  0  0  0  0  0  0  0  0  0  0
  191.4250  176.9650  147.8520 C   0  0  0  0  0  0  0  0  0  0  0  0
  187.9050  176.8290  145.2040 C   0  0  0  0  0  0  0  0  0  0  0  0
  185.2920  177.7160  145.8180 C   0  0  0  0  0  3  0  0  0  0  0  0
  190.2920  176.9350  147.0350 C   0  0  0  0  0  3  0  0  0  0  0  0
  188.3600  175.7330  142.6390 C   0  0  0  0  0  0  0  0  0  0  0  0
  186.0390  178.3700  148.0130 O   0  0  0  0  0  1  0  0  0  0  0  0
  191.6930  175.4260  144.0110 N   0  0  0  0  0  0  0  0  0  0  0  0
  191.3400  177.4790  149.1380 O   0  0  0  0  0  1  0  0  0  0  0  0
  187.0920  176.1860  142.9980 C   0  0  0  0  0  3  0  0  0  0  0  0
  189.4160  175.8220  143.5600 C   0  0  0  0  0  0  0  0  0  0  0  0
  187.5980  177.3860  146.4600 C   0  0  0  0  0  3  0  0  0  0  0  0
  192.6410  176.4780  147.3730 C   0  0  0  0  0  3  0  0  0  0  0  0
  186.8560  176.7270  144.2540 C   0  0  0  0  0  0  0  0  0  0  0  0
  185.5660  177.1680  144.5650 C   0  0  0  0  0  3  0  0  0  0  0  0
  190.6460  175.3750  143.1930 N   0  0  0  0  0  0  0  0  0  0  0  0
  191.5900  175.9310  145.2610 C   0  0  0  0  0  0  0  0  0  0  0  0
  192.7230  175.9630  146.0800 C   0  0  0  0  0  3  0  0  0  0  0  0
  187.8160  172.9970  141.6950 O   0  0  0  0  0  0  0  0  0  0  0  0
  188.3320  173.8310  140.9040 C   0  0  0  0  0  0  0  0  0  0  0  0
  188.6080  175.1720  141.3380 N   0  0  0  0  0  2  0  0  0  0  0  0
  189.2970  172.6530  136.9190 C   0  0  0  0  0  0  0  0  0  0  0  0
  189.4420  172.2960  139.2920 C   0  0  0  0  0  3  0  0  0  0  0  0
  187.4460  175.2770  138.5430 F   0  0  0  0  0  0  0  0  0  0  0  0
  189.6010  172.2830  135.6510 F   0  0  0  0  0  0  0  0  0  0  0  0
  189.7650  171.9000  137.9950 C   0  0  0  0  0  3  0  0  0  0  0  0
  188.2080  174.1660  138.3950 C   0  0  0  0  0  0  0  0  0  0  0  0
  188.6590  173.4360  139.5150 C   0  0  0  0  0  0  0  0  0  0  0  0
  188.5370  173.7580  137.1400 N   0  0  0  0  0  0  0  0  0  0  0  0
  1  9  1  0  0  0  0
  2  5  1  0  0  0  0
  2  3  1  0  0  0  0
  3  7  1  0  0  0  0
  4 11  1  0  0  0  0
  5 14  2  0  0  0  0
  6  1  2  0  0  0  0
  7  4  2  0  0  0  0
  8 12  2  0  0  0  0
  8 13  1  0  0  0  0
 10 19  1  0  0  0  0
 12 16  1  0  0  0  0
 13  2  2  0  0  0  0
 14  1  1  0  0  0  0
 15  4  1  0  0  0  0
 16 17  2  0  0  0  0
 16  5  1  0  0  0  0
 17  6  1  0  0  0  0
 18 13  1  0  0  0  0
 18 10  2  0  0  0  0
 19  3  2  0  0  0  0
 19 20  1  0  0  0  0
 20 15  2  0  0  0  0
 22 23  1  0  0  0  0
 22 21  2  0  0  0  0
 23  8  1  0  0  0  0
 24 31  2  0  0  0  0
 24 28  1  0  0  0  0
 25 30  1  0  0  0  0
 27 24  1  0  0  0  0
 28 25  2  0  0  0  0
 29 26  1  0  0  0  0
 29 30  2  0  0  0  0
 30 22  1  0  0  0  0
 31 29  1  0  0  0  0
M  END
>  <MODEL>
4

>  <REMARK>
 VINA RESULT:      -8.6      4.239      6.921
  Name = 
  2 active torsions:
  status: ('A' for Active; 'I' for Inactive)
    1  A    between atoms: C_5  and  C_30
    2  A    between atoms: C_10  and  N_16
                            x       y       z     vdW  Elec       q    Type
                         _______ _______ _______ _____ _____    ______ ____

>  <TORSDO>
F 2

$$$$
=
 OpenBabel11112416593D

 31 35  0  0  0  0  0  0  0  0999 V2000
  191.2360  176.6230  147.4550 C   0  0  0  0  0  0  0  0  0  0  0  0
  188.7010  176.2780  144.6880 C   0  0  0  0  0  0  0  0  0  0  0  0
  187.5050  176.9130  145.1400 C   0  0  0  0  0  0  0  0  0  0  0  0
  186.1970  178.1350  146.8040 C   0  0  0  0  0  0  0  0  0  0  0  0
  189.9110  176.1890  145.4470 C   0  0  0  0  0  0  0  0  0  0  0  0
  192.3320  175.9740  146.8900 C   0  0  0  0  0  3  0  0  0  0  0  0
  187.3870  177.5260  146.4010 C   0  0  0  0  0  3  0  0  0  0  0  0
  189.8080  175.0530  142.8610 C   0  0  0  0  0  0  0  0  0  0  0  0
  191.3320  177.1660  148.7290 O   0  0  0  0  0  1  0  0  0  0  0  0
  186.4390  176.3550  143.0670 N   0  0  0  0  0  0  0  0  0  0  0  0
  186.1110  178.7320  148.0530 O   0  0  0  0  0  1  0  0  0  0  0  0
  190.9750  174.9780  143.6190 C   0  0  0  0  0  3  0  0  0  0  0  0
  188.6780  175.6980  143.3880 C   0  0  0  0  0  0  0  0  0  0  0  0
  190.0410  176.7280  146.7400 C   0  0  0  0  0  3  0  0  0  0  0  0
  185.0950  178.1430  145.9490 C   0  0  0  0  0  3  0  0  0  0  0  0
  191.0380  175.5320  144.8900 C   0  0  0  0  0  0  0  0  0  0  0  0
  192.2320  175.4290  145.6090 C   0  0  0  0  0  3  0  0  0  0  0  0
  187.5480  175.7610  142.6360 N   0  0  0  0  0  0  0  0  0  0  0  0
  186.3760  176.9310  144.2880 C   0  0  0  0  0  0  0  0  0  0  0  0
  185.1850  177.5410  144.6940 C   0  0  0  0  0  3  0  0  0  0  0  0
  188.8740  172.3720  142.0800 O   0  0  0  0  0  0  0  0  0  0  0  0
  189.2790  173.1670  141.1900 C   0  0  0  0  0  0  0  0  0  0  0  0
  189.7400  174.4810  141.5430 N   0  0  0  0  0  2  0  0  0  0  0  0
  189.3160  171.9380  137.1050 C   0  0  0  0  0  0  0  0  0  0  0  0
  190.0050  171.6160  139.3860 C   0  0  0  0  0  3  0  0  0  0  0  0
  187.8610  174.5730  139.0780 F   0  0  0  0  0  0  0  0  0  0  0  0
  189.3250  171.5520  135.8060 F   0  0  0  0  0  0  0  0  0  0  0  0
  190.0260  171.2040  138.0540 C   0  0  0  0  0  3  0  0  0  0  0  0
  188.5800  173.4640  138.7730 C   0  0  0  0  0  0  0  0  0  0  0  0
  189.2830  172.7540  139.7680 C   0  0  0  0  0  0  0  0  0  0  0  0
  188.6170  173.0410  137.4810 N   0  0  0  0  0  0  0  0  0  0  0  0
  1  9  1  0  0  0  0
  2  3  1  0  0  0  0
  2  5  1  0  0  0  0
  3  7  2  0  0  0  0
  4 11  1  0  0  0  0
  5 14  1  0  0  0  0
  6  1  1  0  0  0  0
  7  4  1  0  0  0  0
  8 13  1  0  0  0  0
  8 12  2  0  0  0  0
 10 19  1  0  0  0  0
 12 16  1  0  0  0  0
 13  2  2  0  0  0  0
 14  1  2  0  0  0  0
 15  4  2  0  0  0  0
 16  5  2  0  0  0  0
 16 17  1  0  0  0  0
 17  6  2  0  0  0  0
 18 10  2  0  0  0  0
 18 13  1  0  0  0  0
 19 20  2  0  0  0  0
 19  3  1  0  0  0  0
 20 15  1  0  0  0  0
 22 23  1  0  0  0  0
 22 21  2  0  0  0  0
 23  8  1  0  0  0  0
 24 31  2  0  0  0  0
 24 28  1  0  0  0  0
 25 30  1  0  0  0  0
 27 24  1  0  0  0  0
 28 25  2  0  0  0  0
 29 26  1  0  0  0  0
 29 30  2  0  0  0  0
 30 22  1  0  0  0  0
 31 29  1  0  0  0  0
M  END
>  <MODEL>
5

>  <REMARK>
 VINA RESULT:      -8.5      4.391      6.668
  Name = 
  2 active torsions:
  status: ('A' for Active; 'I' for Inactive)
    1  A    between atoms: C_5  and  C_30
    2  A    between atoms: C_10  and  N_16
                            x       y       z     vdW  Elec       q    Type
                         _______ _______ _______ _____ _____    ______ ____

>  <TORSDO>
F 2

$$$$
=
 OpenBabel11112416593D

 31 35  0  0  0  0  0  0  0  0999 V2000
  195.2290  174.2500  145.4380 C   0  0  0  0  0  0  0  0  0  0  0  0
  191.6960  173.7340  144.2340 C   0  0  0  0  0  0  0  0  0  0  0  0
  191.6920  172.5330  143.4640 C   0  0  0  0  0  0  0  0  0  0  0  0
  192.7950  170.5840  142.4850 C   0  0  0  0  0  0  0  0  0  0  0  0
  192.8510  174.2860  144.8740 C   0  0  0  0  0  0  0  0  0  0  0  0
  195.0900  175.4320  146.1630 C   0  0  0  0  0  3  0  0  0  0  0  0
  192.8430  171.7520  143.2470 C   0  0  0  0  0  3  0  0  0  0  0  0
  190.3670  175.6120  145.1120 C   0  0  0  0  0  0  0  0  0  0  0  0
  196.4690  173.6330  145.3490 O   0  0  0  0  0  1  0  0  0  0  0  0
  189.3460  172.8110  143.0630 N   0  0  0  0  0  0  0  0  0  0  0  0
  193.9460  169.8340  142.2880 O   0  0  0  0  0  1  0  0  0  0  0  0
  191.5050  176.1300  145.7250 C   0  0  0  0  0  3  0  0  0  0  0  0
  190.4580  174.4230  144.3710 C   0  0  0  0  0  0  0  0  0  0  0  0
  194.1220  173.6850  144.8030 C   0  0  0  0  0  3  0  0  0  0  0  0
  191.5880  170.1690  141.9210 C   0  0  0  0  0  3  0  0  0  0  0  0
  192.7310  175.4890  145.6160 C   0  0  0  0  0  0  0  0  0  0  0  0
  193.8420  176.0500  146.2500 C   0  0  0  0  0  3  0  0  0  0  0  0
  189.3380  173.9320  143.7790 N   0  0  0  0  0  0  0  0  0  0  0  0
  190.4790  172.0950  142.8830 C   0  0  0  0  0  0  0  0  0  0  0  0
  190.4320  170.9250  142.1200 C   0  0  0  0  0  3  0  0  0  0  0  0
  188.3100  175.2800  147.1940 O   0  0  0  0  0  0  0  0  0  0  0  0
  188.1090  176.0940  146.2510 C   0  0  0  0  0  0  0  0  0  0  0  0
  189.0950  176.2750  145.2230 N   0  0  0  0  0  2  0  0  0  0  0  0
  184.4930  178.3550  146.1390 C   0  0  0  0  0  0  0  0  0  0  0  0
  186.4580  177.6210  147.3140 C   0  0  0  0  0  3  0  0  0  0  0  0
  186.3490  176.1920  143.9410 F   0  0  0  0  0  0  0  0  0  0  0  0
  183.3430  179.0710  146.0990 F   0  0  0  0  0  0  0  0  0  0  0  0
  185.2790  178.3640  147.2910 C   0  0  0  0  0  3  0  0  0  0  0  0
  186.0240  176.8940  145.0550 C   0  0  0  0  0  0  0  0  0  0  0  0
  186.8510  176.8730  146.1970 C   0  0  0  0  0  0  0  0  0  0  0  0
  184.8780  177.6270  145.0580 N   0  0  0  0  0  0  0  0  0  0  0  0
  1  6  1  0  0  0  0
  2 13  2  0  0  0  0
  2  5  1  0  0  0  0
  3  2  1  0  0  0  0
  4  7  1  0  0  0  0
  5 16  2  0  0  0  0
  6 17  2  0  0  0  0
  7  3  2  0  0  0  0
  8 23  1  0  0  0  0
  8 12  2  0  0  0  0
  9  1  1  0  0  0  0
 10 18  2  0  0  0  0
 11  4  1  0  0  0  0
 13  8  1  0  0  0  0
 14  5  1  0  0  0  0
 14  1  2  0  0  0  0
 15 20  1  0  0  0  0
 15  4  2  0  0  0  0
 16 12  1  0  0  0  0
 16 17  1  0  0  0  0
 18 13  1  0  0  0  0
 19 10  1  0  0  0  0
 19  3  1  0  0  0  0
 20 19  2  0  0  0  0
 22 21  2  0  0  0  0
 23 22  1  0  0  0  0
 24 28  1  0  0  0  0
 26 29  1  0  0  0  0
 27 24  1  0  0  0  0
 28 25  2  0  0  0  0
 29 31  1  0  0  0  0
 29 30  2  0  0  0  0
 30 22  1  0  0  0  0
 30 25  1  0  0  0  0
 31 24  2  0  0  0  0
M  END
>  <MODEL>
6

>  <REMARK>
 VINA RESULT:      -8.4      3.884      8.414
  Name = 
  2 active torsions:
  status: ('A' for Active; 'I' for Inactive)
    1  A    between atoms: C_5  and  C_30
    2  A    between atoms: C_10  and  N_16
                            x       y       z     vdW  Elec       q    Type
                         _______ _______ _______ _____ _____    ______ ____

>  <TORSDO>
F 2

$$$$
=
 OpenBabel11112416593D

 31 35  0  0  0  0  0  0  0  0999 V2000
  195.0450  174.7180  145.7980 C   0  0  0  0  0  0  0  0  0  0  0  0
  191.5980  174.0290  144.4400 C   0  0  0  0  0  0  0  0  0  0  0  0
  191.6680  172.7870  143.7400 C   0  0  0  0  0  0  0  0  0  0  0  0
  192.8750  170.8200  142.9350 C   0  0  0  0  0  0  0  0  0  0  0  0
  192.7000  174.6500  145.1070 C   0  0  0  0  0  0  0  0  0  0  0  0
  194.8340  175.9340  146.4450 C   0  0  0  0  0  3  0  0  0  0  0  0
  192.8500  172.0310  143.6300 C   0  0  0  0  0  3  0  0  0  0  0  0
  190.1720  175.9130  145.1360 C   0  0  0  0  0  0  0  0  0  0  0  0
  196.3040  174.1340  145.8100 O   0  0  0  0  0  1  0  0  0  0  0  0
  189.3410  172.9720  143.2000 N   0  0  0  0  0  0  0  0  0  0  0  0
  194.0550  170.0970  142.8430 O   0  0  0  0  0  1  0  0  0  0  0  0
  191.2610  176.4980  145.7790 C   0  0  0  0  0  3  0  0  0  0  0  0
  190.3360  174.6870  144.4710 C   0  0  0  0  0  0  0  0  0  0  0  0
  193.9890  174.0860  145.1380 C   0  0  0  0  0  3  0  0  0  0  0  0
  191.7130  170.3390  142.3330 C   0  0  0  0  0  3  0  0  0  0  0  0
  192.5070  175.8890  145.7710 C   0  0  0  0  0  0  0  0  0  0  0  0
  193.5670  176.5180  146.4310 C   0  0  0  0  0  3  0  0  0  0  0  0
  189.2630  174.1300  143.8490 N   0  0  0  0  0  0  0  0  0  0  0  0
  190.5010  172.2820  143.1230 C   0  0  0  0  0  0  0  0  0  0  0  0
  190.5280  171.0690  142.4260 C   0  0  0  0  0  3  0  0  0  0  0  0
  188.0160  175.6390  147.1240 O   0  0  0  0  0  0  0  0  0  0  0  0
  187.8440  176.3900  146.1260 C   0  0  0  0  0  0  0  0  0  0  0  0
  188.8790  176.5420  145.1420 N   0  0  0  0  0  2  0  0  0  0  0  0
  184.1760  178.5040  145.6000 C   0  0  0  0  0  0  0  0  0  0  0  0
  186.0600  177.3330  144.6720 C   0  0  0  0  0  3  0  0  0  0  0  0
  186.2790  177.4630  148.3290 F   0  0  0  0  0  0  0  0  0  0  0  0
  183.0100  179.1760  145.4380 F   0  0  0  0  0  0  0  0  0  0  0  0
  184.8620  178.0230  144.4860 C   0  0  0  0  0  3  0  0  0  0  0  0
  185.8400  177.6310  147.0560 C   0  0  0  0  0  0  0  0  0  0  0  0
  186.5700  177.1260  145.9600 C   0  0  0  0  0  0  0  0  0  0  0  0
  184.6740  178.3000  146.8480 N   0  0  0  0  0  0  0  0  0  0  0  0
  1  9  1  0  0  0  0
  1  6  1  0  0  0  0
  2 13  2  0  0  0  0
  2  5  1  0  0  0  0
  3  2  1  0  0  0  0
  4  7  1  0  0  0  0
  5 14  1  0  0  0  0
  5 16  2  0  0  0  0
  7  3  2  0  0  0  0
  8 23  1  0  0  0  0
  8 12  2  0  0  0  0
 10 18  2  0  0  0  0
 11  4  1  0  0  0  0
 13  8  1  0  0  0  0
 14  1  2  0  0  0  0
 15 20  1  0  0  0  0
 15  4  2  0  0  0  0
 16 12  1  0  0  0  0
 16 17  1  0  0  0  0
 17  6  2  0  0  0  0
 18 13  1  0  0  0  0
 19 10  1  0  0  0  0
 19  3  1  0  0  0  0
 20 19  2  0  0  0  0
 22 21  2  0  0  0  0
 23 22  1  0  0  0  0
 24 31  1  0  0  0  0
 25 30  2  0  0  0  0
 27 24  1  0  0  0  0
 28 25  1  0  0  0  0
 28 24  2  0  0  0  0
 29 26  1  0  0  0  0
 30 22  1  0  0  0  0
 30 29  1  0  0  0  0
 31 29  2  0  0  0  0
M  END
>  <MODEL>
7

>  <REMARK>
 VINA RESULT:      -8.2      3.754      8.343
  Name = 
  2 active torsions:
  status: ('A' for Active; 'I' for Inactive)
    1  A    between atoms: C_5  and  C_30
    2  A    between atoms: C_10  and  N_16
                            x       y       z     vdW  Elec       q    Type
                         _______ _______ _______ _____ _____    ______ ____

>  <TORSDO>
F 2

$$$$
=
 OpenBabel11112416593D

 31 35  0  0  0  0  0  0  0  0999 V2000
  195.2490  174.9860  145.0840 C   0  0  0  0  0  0  0  0  0  0  0  0
  191.9170  174.9480  143.3260 C   0  0  0  0  0  0  0  0  0  0  0  0
  192.0800  174.1600  142.1460 C   0  0  0  0  0  0  0  0  0  0  0  0
  193.4120  172.7900  140.6240 C   0  0  0  0  0  0  0  0  0  0  0  0
  192.9530  175.2110  144.2770 C   0  0  0  0  0  0  0  0  0  0  0  0
  194.9510  175.7720  146.1950 C   0  0  0  0  0  3  0  0  0  0  0  0
  193.2960  173.5510  141.7880 C   0  0  0  0  0  3  0  0  0  0  0  0
  190.3750  176.2910  144.6980 C   0  0  0  0  0  0  0  0  0  0  0  0
  196.5300  174.4760  144.9180 O   0  0  0  0  0  1  0  0  0  0  0  0
  189.7800  174.5420  141.5880 N   0  0  0  0  0  0  0  0  0  0  0  0
  194.6250  172.2010  140.2970 O   0  0  0  0  0  1  0  0  0  0  0  0
  191.4000  176.5340  145.6100 C   0  0  0  0  0  3  0  0  0  0  0  0
  190.6280  175.5040  143.5630 C   0  0  0  0  0  0  0  0  0  0  0  0
  194.2610  174.7100  144.1380 C   0  0  0  0  0  3  0  0  0  0  0  0
  192.3070  172.6200  139.7900 C   0  0  0  0  0  3  0  0  0  0  0  0
  192.6700  176.0100  145.4140 C   0  0  0  0  0  0  0  0  0  0  0  0
  193.6630  176.2840  146.3590 C   0  0  0  0  0  3  0  0  0  0  0  0
  189.6170  175.2770  142.6840 N   0  0  0  0  0  0  0  0  0  0  0  0
  190.9710  173.9770  141.2870 C   0  0  0  0  0  0  0  0  0  0  0  0
  191.0890  173.2140  140.1210 C   0  0  0  0  0  3  0  0  0  0  0  0
  188.3700  175.5210  146.7130 O   0  0  0  0  0  0  0  0  0  0  0  0
  188.0980  176.4380  145.8910 C   0  0  0  0  0  0  0  0  0  0  0  0
  189.0580  176.8330  144.8980 N   0  0  0  0  0  2  0  0  0  0  0  0
  184.3230  178.4150  146.0850 C   0  0  0  0  0  0  0  0  0  0  0  0
  186.4080  177.7970  147.1090 C   0  0  0  0  0  3  0  0  0  0  0  0
  186.1930  176.4770  143.6960 F   0  0  0  0  0  0  0  0  0  0  0  0
  183.1220  179.0410  146.1410 F   0  0  0  0  0  0  0  0  0  0  0  0
  185.1770  178.4460  147.1860 C   0  0  0  0  0  3  0  0  0  0  0  0
  185.8880  177.1140  144.8540 C   0  0  0  0  0  0  0  0  0  0  0  0
  186.7850  177.1190  145.9420 C   0  0  0  0  0  0  0  0  0  0  0  0
  184.6930  177.7560  144.9550 N   0  0  0  0  0  0  0  0  0  0  0  0
  1  6  1  0  0  0  0
  2 13  2  0  0  0  0
  2  5  1  0  0  0  0
  3  2  1  0  0  0  0
  4  7  1  0  0  0  0
  5 16  2  0  0  0  0
  6 17  2  0  0  0  0
  7  3  2  0  0  0  0
  8 23  1  0  0  0  0
  8 12  2  0  0  0  0
  9  1  1  0  0  0  0
 10 18  2  0  0  0  0
 11  4  1  0  0  0  0
 13  8  1  0  0  0  0
 14  5  1  0  0  0  0
 14  1  2  0  0  0  0
 15 20  1  0  0  0  0
 15  4  2  0  0  0  0
 16 12  1  0  0  0  0
 16 17  1  0  0  0  0
 18 13  1  0  0  0  0
 19 10  1  0  0  0  0
 19  3  1  0  0  0  0
 20 19  2  0  0  0  0
 22 30  1  0  0  0  0
 22 21  2  0  0  0  0
 23 22  1  0  0  0  0
 24 27  1  0  0  0  0
 24 28  1  0  0  0  0
 25 28  2  0  0  0  0
 26 29  1  0  0  0  0
 29 31  1  0  0  0  0
 29 30  2  0  0  0  0
 30 25  1  0  0  0  0
 31 24  2  0  0  0  0
M  END
>  <MODEL>
8

>  <REMARK>
 VINA RESULT:      -8.2      3.877      8.098
  Name = 
  2 active torsions:
  status: ('A' for Active; 'I' for Inactive)
    1  A    between atoms: C_5  and  C_30
    2  A    between atoms: C_10  and  N_16
                            x       y       z     vdW  Elec       q    Type
                         _______ _______ _______ _____ _____    ______ ____

>  <TORSDO>
F 2

$$$$
=
 OpenBabel11112416593D

 31 35  0  0  0  0  0  0  0  0999 V2000
  186.3070  178.2920  144.4610 C   0  0  0  0  0  0  0  0  0  0  0  0
  188.9810  175.6370  144.4470 C   0  0  0  0  0  0  0  0  0  0  0  0
  189.8300  175.8980  145.5640 C   0  0  0  0  0  0  0  0  0  0  0  0
  190.4860  177.1920  147.5310 C   0  0  0  0  0  0  0  0  0  0  0  0
  187.8360  176.4200  144.0950 C   0  0  0  0  0  0  0  0  0  0  0  0
  185.5630  177.9220  143.3430 C   0  0  0  0  0  3  0  0  0  0  0  0
  189.6290  176.9720  146.4510 C   0  0  0  0  0  3  0  0  0  0  0  0
  188.5250  174.1820  142.5130 C   0  0  0  0  0  0  0  0  0  0  0  0
  185.9310  179.3990  145.2100 O   0  0  0  0  0  1  0  0  0  0  0  0
  191.1680  173.9980  144.9760 N   0  0  0  0  0  0  0  0  0  0  0  0
  190.2610  178.2590  148.3890 O   0  0  0  0  0  1  0  0  0  0  0  0
  187.4150  174.9600  142.1910 C   0  0  0  0  0  3  0  0  0  0  0  0
  189.3040  174.5150  143.6330 C   0  0  0  0  0  0  0  0  0  0  0  0
  187.4290  177.5480  144.8320 C   0  0  0  0  0  3  0  0  0  0  0  0
  191.5660  176.3370  147.7480 C   0  0  0  0  0  3  0  0  0  0  0  0
  187.0670  176.0610  142.9590 C   0  0  0  0  0  0  0  0  0  0  0  0
  185.9440  176.8090  142.5930 C   0  0  0  0  0  3  0  0  0  0  0  0
  190.3840  173.7460  143.9320 N   0  0  0  0  0  0  0  0  0  0  0  0
  190.9330  175.0440  145.8010 C   0  0  0  0  0  0  0  0  0  0  0  0
  191.7900  175.2660  146.8830 C   0  0  0  0  0  3  0  0  0  0  0  0
  190.3290  174.0730  140.1890 O   0  0  0  0  0  0  0  0  0  0  0  0
  189.7720  173.0140  140.5870 C   0  0  0  0  0  0  0  0  0  0  0  0
  188.8880  173.0390  141.7190 N   0  0  0  0  0  2  0  0  0  0  0  0
  190.4800  169.3360  138.5460 C   0  0  0  0  0  0  0  0  0  0  0  0
  189.4690  171.5160  138.6250 C   0  0  0  0  0  3  0  0  0  0  0  0
  191.3850  170.8570  141.6800 F   0  0  0  0  0  0  0  0  0  0  0  0
  190.7070  168.1660  137.9020 F   0  0  0  0  0  0  0  0  0  0  0  0
  189.6920  170.3190  137.9480 C   0  0  0  0  0  3  0  0  0  0  0  0
  190.8160  170.7100  140.4570 C   0  0  0  0  0  0  0  0  0  0  0  0
  190.0270  171.7320  139.8920 C   0  0  0  0  0  0  0  0  0  0  0  0
  191.0190  169.5510  139.7750 N   0  0  0  0  0  0  0  0  0  0  0  0
  1 14  1  0  0  0  0
  1  9  1  0  0  0  0
  2  3  1  0  0  0  0
  3 19  2  0  0  0  0
  3  7  1  0  0  0  0
  4 15  1  0  0  0  0
  4 11  1  0  0  0  0
  5  2  1  0  0  0  0
  5 14  2  0  0  0  0
  6  1  2  0  0  0  0
  7  4  2  0  0  0  0
  8 13  1  0  0  0  0
 10 19  1  0  0  0  0
 12  8  2  0  0  0  0
 12 16  1  0  0  0  0
 13 18  1  0  0  0  0
 13  2  2  0  0  0  0
 16  5  1  0  0  0  0
 17 16  2  0  0  0  0
 17  6  1  0  0  0  0
 18 10  2  0  0  0  0
 19 20  1  0  0  0  0
 20 15  2  0  0  0  0
 21 22  2  0  0  0  0
 22 23  1  0  0  0  0
 23  8  1  0  0  0  0
 24 31  1  0  0  0  0
 25 30  2  0  0  0  0
 27 24  1  0  0  0  0
 28 24  2  0  0  0  0
 28 25  1  0  0  0  0
 29 26  1  0  0  0  0
 30 29  1  0  0  0  0
 30 22  1  0  0  0  0
 31 29  2  0  0  0  0
M  END
>  <MODEL>
9

>  <REMARK>
 VINA RESULT:      -8.0      4.677      6.709
  Name = 
  2 active torsions:
  status: ('A' for Active; 'I' for Inactive)
    1  A    between atoms: C_5  and  C_30
    2  A    between atoms: C_10  and  N_16
                            x       y       z     vdW  Elec       q    Type
                         _______ _______ _______ _____ _____    ______ ____

>  <TORSDO>
F 2

$$$$
