=
 OpenBabel11112416423D

 32 37  0  0  1  0  0  0  0  0999 V2000
  193.2080  173.2540  141.8530 C   0  0  0  0  0  2  0  0  0  0  0  0
  188.4580  174.6630  142.8720 C   0  0  2  0  0  3  0  0  0  0  0  0
  190.0570  175.0820  147.4860 C   0  0  0  0  0  2  0  0  0  0  0  0
  190.0770  176.4820  147.3390 O   0  0  0  0  0  0  0  0  0  0  0  0
  187.0330  176.5850  141.9280 C   0  0  1  0  0  3  0  0  0  0  0  0
  186.5560  178.0310  142.1500 C   0  0  1  0  0  3  0  0  0  0  0  0
  189.9470  173.2230  141.3320 C   0  0  2  0  0  3  0  0  0  0  0  0
  189.6150  172.8400  143.8560 C   0  0  0  0  0  2  0  0  0  0  0  0
  185.5070  178.1060  144.3890 C   0  0  2  0  0  3  0  0  0  0  0  0
  191.4670  171.5690  142.6480 C   0  0  0  0  0  2  0  0  0  0  0  0
  190.3600  174.4060  146.1460 C   0  0  0  0  0  2  0  0  0  0  0  0
  189.5650  174.3030  143.7900 N   0  0  2  0  0  0  0  0  0  0  0  0
  189.2760  174.8100  145.1370 C   0  0  2  0  0  3  0  0  0  0  0  0
  188.0450  176.7540  144.2010 C   0  0  1  0  0  3  0  0  0  0  0  0
  184.3050  178.3740  143.5100 C   0  0  0  0  0  2  0  0  0  0  0  0
  192.2980  173.4340  140.7210 N   0  0  0  0  0  2  0  0  0  0  0  0
  190.0990  172.2510  142.5240 C   0  0  2  0  0  3  0  0  0  0  0  0
  184.7770  178.1330  141.7630 S   0  0  0  0  0  0  0  0  0  0  0  0
  191.1260  174.1800  141.1560 C   0  0  0  0  0  2  0  0  0  0  0  0
  192.5570  172.5610  143.0570 C   0  0  1  0  0  3  0  0  0  0  0  0
  188.9680  176.8300  146.5440 C   0  0  0  0  0  2  0  0  0  0  0  0
  189.1870  176.3360  145.1110 C   0  0  1  0  0  3  0  0  0  0  0  0
  187.9580  178.1570  144.1630 O   0  0  0  0  0  0  0  0  0  0  0  0
  188.6550  174.0300  141.4730 C   0  0  0  0  0  2  0  0  0  0  0  0
  187.3380  176.4370  140.4470 C   0  0  0  0  0  1  0  0  0  0  0  0
  185.4210  178.8690  145.5520 O   0  0  0  0  0  1  0  0  0  0  0  0
  188.2580  176.2000  142.7860 C   0  0  1  0  0  3  0  0  0  0  0  0
  186.7230  178.5210  143.5840 C   0  0  1  0  0  3  0  0  0  0  0  0
  193.5860  171.8850  143.8330 N   0  0  0  0  0  2  0  0  0  0  0  0
  194.0910  172.4070  145.0640 C   0  0  0  0  0  0  0  0  0  0  0  0
  195.0840  171.6830  145.7800 N   0  0  0  0  0  1  0  0  0  0  0  0
  193.6710  173.5040  145.5180 O   0  0  0  0  0  0  0  0  0  0  0  0
  1 20  1  0  0  0  0
  2 24  1  6  0  0  0
  2 12  1  0  0  0  0
  4  3  1  0  0  0  0
  5 25  1  6  0  0  0
  5  6  1  0  0  0  0
  5 27  1  0  0  0  0
  6 18  1  1  0  0  0
  6 28  1  0  0  0  0
  7 19  1  1  0  0  0
  7 24  1  0  0  0  0
  7 17  1  0  0  0  0
  9 26  1  1  0  0  0
 10 20  1  0  0  0  0
 11  3  1  0  0  0  0
 12  8  1  1  0  0  0
 12 13  1  0  0  0  0
 13 11  1  1  0  0  0
 14 23  1  6  0  0  0
 14 22  1  0  0  0  0
 15  9  1  0  0  0  0
 16 19  1  0  0  0  0
 16  1  1  0  0  0  0
 17 10  1  1  0  0  0
 17  8  1  0  0  0  0
 18 15  1  0  0  0  0
 20 29  1  6  0  0  0
 21  4  1  0  0  0  0
 22 13  1  0  0  0  0
 22 21  1  1  0  0  0
 27  2  1  0  0  0  0
 27 14  1  0  0  0  0
 28 23  1  0  0  0  0
 28  9  1  0  0  0  0
 29 30  1  0  0  0  0
 30 32  2  0  0  0  0
 30 31  1  0  0  0  0
M  END
>  <MODEL>
1

>  <REMARK>
 VINA RESULT:      -7.8      0.000      0.000
  Name = 
  1 active torsions:
  status: ('A' for Active; 'I' for Inactive)
    1  A    between atoms: C_20  and  N_29
                            x       y       z     vdW  Elec       q    Type
                         _______ _______ _______ _____ _____    ______ ____

>  <TORSDO>
F 1

$$$$
=
 OpenBabel11112416423D

 32 37  0  0  1  0  0  0  0  0999 V2000
  189.8700  171.9210  141.4840 C   0  0  0  0  0  2  0  0  0  0  0  0
  188.8590  176.1580  144.0540 C   0  0  2  0  0  3  0  0  0  0  0  0
  186.5600  177.5520  139.9570 C   0  0  0  0  0  2  0  0  0  0  0  0
  185.3220  177.2890  140.5770 O   0  0  0  0  0  0  0  0  0  0  0  0
  187.6350  176.5220  146.2880 C   0  0  1  0  0  3  0  0  0  0  0  0
  186.2900  176.8680  146.9490 C   0  0  1  0  0  3  0  0  0  0  0  0
  190.5420  174.2250  143.7520 C   0  0  2  0  0  3  0  0  0  0  0  0
  190.0150  176.0220  141.9860 C   0  0  0  0  0  2  0  0  0  0  0  0
  185.5450  179.0180  145.9790 C   0  0  2  0  0  3  0  0  0  0  0  0
  191.3700  173.9750  141.2970 C   0  0  0  0  0  2  0  0  0  0  0  0
  187.6300  176.5980  140.4910 C   0  0  0  0  0  2  0  0  0  0  0  0
  188.7000  175.8560  142.6120 N   0  0  2  0  0  0  0  0  0  0  0  0
  187.7800  176.8230  142.0020 C   0  0  2  0  0  3  0  0  0  0  0  0
  186.5060  177.0330  144.1240 C   0  0  1  0  0  3  0  0  0  0  0  0
  185.7880  179.4300  147.4140 C   0  0  0  0  0  2  0  0  0  0  0  0
  190.2460  171.9600  142.8970 N   0  0  0  0  0  2  0  0  0  0  0  0
  190.9770  174.9170  142.4410 C   0  0  2  0  0  3  0  0  0  0  0  0
  186.5850  178.0500  148.3050 S   0  0  0  0  0  0  0  0  0  0  0  0
  189.5630  173.0690  143.5490 C   0  0  0  0  0  2  0  0  0  0  0  0
  190.1560  173.2310  140.7380 C   0  0  1  0  0  3  0  0  0  0  0  0
  185.4480  177.6670  141.9270 C   0  0  0  0  0  2  0  0  0  0  0  0
  186.3970  176.7050  142.6450 C   0  0  1  0  0  3  0  0  0  0  0  0
  185.2410  176.9200  144.7280 O   0  0  0  0  0  0  0  0  0  0  0  0
  189.9280  175.2490  144.7090 C   0  0  0  0  0  2  0  0  0  0  0  0
  188.2730  175.4210  147.1200 C   0  0  0  0  0  1  0  0  0  0  0  0
  184.4280  179.6860  145.4790 O   0  0  0  0  0  1  0  0  0  0  0  0
  187.5050  176.0920  144.8100 C   0  0  1  0  0  3  0  0  0  0  0  0
  185.2900  177.5240  146.0040 C   0  0  1  0  0  3  0  0  0  0  0  0
  190.3500  172.9440  139.3240 N   0  0  0  0  0  2  0  0  0  0  0  0
  189.3130  173.1050  138.3540 C   0  0  0  0  0  0  0  0  0  0  0  0
  189.5790  172.8230  136.9860 N   0  0  0  0  0  1  0  0  0  0  0  0
  188.1640  173.4890  138.7000 O   0  0  0  0  0  0  0  0  0  0  0  0
  1 16  1  0  0  0  0
  2 24  1  1  0  0  0
  2 27  1  0  0  0  0
  3 11  1  0  0  0  0
  3  4  1  0  0  0  0
  4 21  1  0  0  0  0
  5  6  1  0  0  0  0
  5 25  1  1  0  0  0
  6 18  1  1  0  0  0
  7 19  1  6  0  0  0
  7 24  1  0  0  0  0
  8 17  1  0  0  0  0
  9 26  1  1  0  0  0
  9 28  1  0  0  0  0
  9 15  1  0  0  0  0
 12  8  1  6  0  0  0
 12  2  1  0  0  0  0
 13 11  1  6  0  0  0
 13 12  1  0  0  0  0
 13 22  1  0  0  0  0
 14 23  1  1  0  0  0
 14 27  1  0  0  0  0
 15 18  1  0  0  0  0
 16 19  1  0  0  0  0
 17 10  1  6  0  0  0
 17  7  1  0  0  0  0
 20 29  1  6  0  0  0
 20 10  1  0  0  0  0
 20  1  1  0  0  0  0
 22 21  1  6  0  0  0
 22 14  1  0  0  0  0
 23 28  1  0  0  0  0
 27  5  1  0  0  0  0
 28  6  1  0  0  0  0
 30 32  2  0  0  0  0
 30 29  1  0  0  0  0
 31 30  1  0  0  0  0
M  END
>  <MODEL>
2

>  <REMARK>
 VINA RESULT:      -7.4      2.979      5.085
  Name = 
  1 active torsions:
  status: ('A' for Active; 'I' for Inactive)
    1  A    between atoms: C_20  and  N_29
                            x       y       z     vdW  Elec       q    Type
                         _______ _______ _______ _____ _____    ______ ____

>  <TORSDO>
F 1

$$$$
=
 OpenBabel11112416423D

 32 37  0  0  1  0  0  0  0  0999 V2000
  185.9320  176.3870  143.8730 C   0  0  0  0  0  2  0  0  0  0  0  0
  190.9130  175.7800  143.2460 C   0  0  2  0  0  3  0  0  0  0  0  0
  191.1800  176.8220  148.0280 C   0  0  0  0  0  2  0  0  0  0  0  0
  191.3960  175.4560  148.3000 O   0  0  0  0  0  0  0  0  0  0  0  0
  192.2710  173.7690  142.3890 C   0  0  1  0  0  3  0  0  0  0  0  0
  193.0790  172.5250  142.7960 C   0  0  1  0  0  3  0  0  0  0  0  0
  188.7140  176.4940  142.0990 C   0  0  2  0  0  3  0  0  0  0  0  0
  189.8360  177.7320  144.0570 C   0  0  0  0  0  2  0  0  0  0  0  0
  194.8470  173.2930  144.3460 C   0  0  2  0  0  3  0  0  0  0  0  0
  187.4590  178.3710  143.3930 C   0  0  0  0  0  2  0  0  0  0  0  0
  190.2900  176.9790  146.7920 C   0  0  0  0  0  2  0  0  0  0  0  0
  190.1570  176.3410  144.3900 N   0  0  2  0  0  0  0  0  0  0  0  0
  191.0030  176.3430  145.5900 C   0  0  2  0  0  3  0  0  0  0  0  0
  192.1900  174.3000  144.8250 C   0  0  1  0  0  3  0  0  0  0  0  0
  195.6850  172.8380  143.1720 C   0  0  0  0  0  2  0  0  0  0  0  0
  186.3950  175.9060  142.5710 N   0  0  0  0  0  2  0  0  0  0  0  0
  188.8010  177.7970  142.9270 C   0  0  2  0  0  3  0  0  0  0  0  0
  194.5840  172.4370  141.7720 S   0  0  0  0  0  0  0  0  0  0  0  0
  187.7710  175.4450  142.6880 C   0  0  0  0  0  2  0  0  0  0  0  0
  186.8120  177.4940  144.4660 C   0  0  1  0  0  3  0  0  0  0  0  0
  192.1950  174.9480  147.2590 C   0  0  0  0  0  2  0  0  0  0  0  0
  191.3860  174.9100  145.9600 C   0  0  1  0  0  3  0  0  0  0  0  0
  192.5420  172.9780  145.1500 O   0  0  0  0  0  0  0  0  0  0  0  0
  190.1080  175.8860  141.9280 C   0  0  0  0  0  2  0  0  0  0  0  0
  191.4350  173.3840  141.1800 C   0  0  0  0  0  1  0  0  0  0  0  0
  195.4950  172.9770  145.5400 O   0  0  0  0  0  1  0  0  0  0  0  0
  191.3790  174.3250  143.5220 C   0  0  1  0  0  3  0  0  0  0  0  0
  193.5360  172.5370  144.2500 C   0  0  1  0  0  3  0  0  0  0  0  0
  186.0120  178.3110  145.3670 N   0  0  0  0  0  2  0  0  0  0  0  0
  185.8940  178.0300  146.7640 C   0  0  0  0  0  0  0  0  0  0  0  0
  185.1090  178.8820  147.5890 N   0  0  0  0  0  1  0  0  0  0  0  0
  186.4740  177.0320  147.2700 O   0  0  0  0  0  0  0  0  0  0  0  0
  1 20  1  0  0  0  0
  2 24  1  6  0  0  0
  2 27  1  0  0  0  0
  2 12  1  0  0  0  0
  3  4  1  0  0  0  0
  5 25  1  6  0  0  0
  5  6  1  0  0  0  0
  5 27  1  0  0  0  0
  6 18  1  6  0  0  0
  6 28  1  0  0  0  0
  7 24  1  1  0  0  0
  7 19  1  0  0  0  0
  7 17  1  0  0  0  0
  9 26  1  1  0  0  0
 10 20  1  0  0  0  0
 11  3  1  0  0  0  0
 12  8  1  6  0  0  0
 12 13  1  0  0  0  0
 13 22  1  0  0  0  0
 13 11  1  1  0  0  0
 14 23  1  1  0  0  0
 14 22  1  0  0  0  0
 15  9  1  0  0  0  0
 16 19  1  0  0  0  0
 16  1  1  0  0  0  0
 17 10  1  1  0  0  0
 17  8  1  0  0  0  0
 18 15  1  0  0  0  0
 20 29  1  1  0  0  0
 21  4  1  0  0  0  0
 22 21  1  1  0  0  0
 27 14  1  0  0  0  0
 28  9  1  0  0  0  0
 28 23  1  0  0  0  0
 29 30  1  0  0  0  0
 30 32  2  0  0  0  0
 30 31  1  0  0  0  0
M  END
>  <MODEL>
3

>  <REMARK>
 VINA RESULT:      -7.3      3.204      7.167
  Name = 
  1 active torsions:
  status: ('A' for Active; 'I' for Inactive)
    1  A    between atoms: C_20  and  N_29
                            x       y       z     vdW  Elec       q    Type
                         _______ _______ _______ _____ _____    ______ ____

>  <TORSDO>
F 1

$$$$
=
 OpenBabel11112416423D

 32 37  0  0  1  0  0  0  0  0999 V2000
  190.2300  178.2540  143.1160 C   0  0  0  0  0  2  0  0  0  0  0  0
  192.3700  174.2780  145.3950 C   0  0  2  0  0  3  0  0  0  0  0  0
  189.0640  171.6510  142.9070 C   0  0  0  0  0  2  0  0  0  0  0  0
  190.0750  171.2480  142.0130 O   0  0  0  0  0  0  0  0  0  0  0  0
  194.8030  173.4410  145.3870 C   0  0  1  0  0  3  0  0  0  0  0  0
  195.8030  172.4690  144.7380 C   0  0  1  0  0  3  0  0  0  0  0  0
  191.8220  176.7910  145.6110 C   0  0  2  0  0  3  0  0  0  0  0  0
  190.0830  174.8950  145.5220 C   0  0  0  0  0  2  0  0  0  0  0  0
  194.8300  170.2030  144.9330 C   0  0  2  0  0  3  0  0  0  0  0  0
  189.2920  177.3080  145.2900 C   0  0  0  0  0  2  0  0  0  0  0  0
  189.3580  173.0570  143.4360 C   0  0  0  0  0  2  0  0  0  0  0  0
  191.1110  174.3690  144.6190 N   0  0  2  0  0  0  0  0  0  0  0  0
  190.6960  173.0280  144.1880 C   0  0  2  0  0  3  0  0  0  0  0  0
  193.0610  172.2890  144.0250 C   0  0  1  0  0  3  0  0  0  0  0  0
  196.0410  170.0630  145.8290 C   0  0  0  0  0  2  0  0  0  0  0  0
  191.4300  178.4980  143.9150 N   0  0  0  0  0  2  0  0  0  0  0  0
  190.3570  176.3660  145.8610 C   0  0  2  0  0  3  0  0  0  0  0  0
  196.8160  171.7020  146.0450 S   0  0  0  0  0  0  0  0  0  0  0  0
  192.1040  177.2340  144.1760 C   0  0  0  0  0  2  0  0  0  0  0  0
  189.2560  177.2590  143.7610 C   0  0  1  0  0  3  0  0  0  0  0  0
  191.2490  171.0700  142.7700 C   0  0  0  0  0  2  0  0  0  0  0  0
  191.7550  172.4280  143.2630 C   0  0  1  0  0  3  0  0  0  0  0  0
  194.0460  171.7440  143.1810 O   0  0  0  0  0  0  0  0  0  0  0  0
  192.7710  175.6510  145.9870 C   0  0  0  0  0  2  0  0  0  0  0  0
  195.5350  174.7560  145.6040 C   0  0  0  0  0  1  0  0  0  0  0  0
  194.6220  169.0170  144.2310 O   0  0  0  0  0  1  0  0  0  0  0  0
  193.5190  173.6540  144.5560 C   0  0  1  0  0  3  0  0  0  0  0  0
  195.1420  171.3300  143.9690 C   0  0  1  0  0  3  0  0  0  0  0  0
  187.9090  177.5270  143.2810 N   0  0  0  0  0  2  0  0  0  0  0  0
  187.3500  176.8670  142.1430 C   0  0  0  0  0  0  0  0  0  0  0  0
  186.0190  177.1660  141.7410 N   0  0  0  0  0  1  0  0  0  0  0  0
  188.0260  176.0280  141.4910 O   0  0  0  0  0  0  0  0  0  0  0  0
  1 20  1  0  0  0  0
  1 16  1  0  0  0  0
  2 24  1  6  0  0  0
  3 11  1  0  0  0  0
  4 21  1  0  0  0  0
  4  3  1  0  0  0  0
  5 25  1  6  0  0  0
  6  5  1  0  0  0  0
  6 18  1  1  0  0  0
  7 19  1  6  0  0  0
  7 17  1  0  0  0  0
  7 24  1  0  0  0  0
  8 17  1  0  0  0  0
  9 26  1  6  0  0  0
  9 15  1  0  0  0  0
 12  2  1  0  0  0  0
 12  8  1  1  0  0  0
 13 11  1  6  0  0  0
 13 12  1  0  0  0  0
 14 23  1  6  0  0  0
 14 27  1  0  0  0  0
 15 18  1  0  0  0  0
 16 19  1  0  0  0  0
 17 10  1  6  0  0  0
 20 29  1  6  0  0  0
 20 10  1  0  0  0  0
 22 21  1  1  0  0  0
 22 14  1  0  0  0  0
 22 13  1  0  0  0  0
 23 28  1  0  0  0  0
 27  5  1  0  0  0  0
 27  2  1  0  0  0  0
 28  6  1  0  0  0  0
 28  9  1  0  0  0  0
 30 29  1  0  0  0  0
 31 30  1  0  0  0  0
 32 30  2  0  0  0  0
M  END
>  <MODEL>
4

>  <REMARK>
 VINA RESULT:      -7.1      3.664      8.188
  Name = 
  1 active torsions:
  status: ('A' for Active; 'I' for Inactive)
    1  A    between atoms: C_20  and  N_29
                            x       y       z     vdW  Elec       q    Type
                         _______ _______ _______ _____ _____    ______ ____

>  <TORSDO>
F 1

$$$$
=
 OpenBabel11112416423D

 32 37  0  0  1  0  0  0  0  0999 V2000
  188.9270  177.7770  146.5090 C   0  0  0  0  0  2  0  0  0  0  0  0
  192.1460  174.0990  145.2100 C   0  0  2  0  0  3  0  0  0  0  0  0
  189.2080  173.5230  141.3290 C   0  0  0  0  0  2  0  0  0  0  0  0
  190.1640  174.1740  140.5250 O   0  0  0  0  0  0  0  0  0  0  0  0
  194.6830  174.1540  144.7830 C   0  0  1  0  0  3  0  0  0  0  0  0
  195.7820  174.2630  143.7120 C   0  0  1  0  0  3  0  0  0  0  0  0
  191.0960  175.3820  147.1880 C   0  0  2  0  0  3  0  0  0  0  0  0
  189.8130  173.8510  145.5630 C   0  0  0  0  0  2  0  0  0  0  0  0
  195.3560  172.4700  142.0620 C   0  0  2  0  0  3  0  0  0  0  0  0
  188.4940  175.3470  147.1510 C   0  0  0  0  0  2  0  0  0  0  0  0
  189.2530  174.0790  142.7540 C   0  0  0  0  0  2  0  0  0  0  0  0
  190.8110  174.4360  144.6620 N   0  0  2  0  0  0  0  0  0  0  0  0
  190.6480  173.8190  143.3400 C   0  0  2  0  0  3  0  0  0  0  0  0
  193.0780  174.0350  142.8780 C   0  0  1  0  0  3  0  0  0  0  0  0
  196.6710  172.0030  142.6470 C   0  0  0  0  0  2  0  0  0  0  0  0
  190.1350  177.6190  147.3180 N   0  0  0  0  0  2  0  0  0  0  0  0
  189.8010  174.5840  146.9110 C   0  0  2  0  0  3  0  0  0  0  0  0
  197.0910  173.0500  144.0820 S   0  0  0  0  0  0  0  0  0  0  0  0
  191.0940  176.7930  146.6000 C   0  0  0  0  0  2  0  0  0  0  0  0
  188.2810  176.4450  146.1070 C   0  0  1  0  0  3  0  0  0  0  0  0
  191.4330  173.7760  140.9870 C   0  0  0  0  0  2  0  0  0  0  0  0
  191.6880  174.3800  142.3710 C   0  0  1  0  0  3  0  0  0  0  0  0
  194.0450  174.5530  141.9980 O   0  0  0  0  0  0  0  0  0  0  0  0
  192.3090  174.6130  146.6610 C   0  0  0  0  0  2  0  0  0  0  0  0
  195.1320  174.9890  145.9710 C   0  0  0  0  0  1  0  0  0  0  0  0
  195.3260  172.2010  140.6940 O   0  0  0  0  0  1  0  0  0  0  0  0
  193.2900  174.6020  144.2880 C   0  0  1  0  0  3  0  0  0  0  0  0
  195.2940  173.9670  142.2980 C   0  0  1  0  0  3  0  0  0  0  0  0
  186.8580  176.6520  145.8780 N   0  0  0  0  0  2  0  0  0  0  0  0
  186.3480  177.2630  144.6910 C   0  0  0  0  0  0  0  0  0  0  0  0
  184.9440  177.4170  144.5270 N   0  0  0  0  0  1  0  0  0  0  0  0
  187.1300  177.6710  143.7920 O   0  0  0  0  0  0  0  0  0  0  0  0
  1 16  1  0  0  0  0
  2 24  1  1  0  0  0
  3 11  1  0  0  0  0
  4 21  1  0  0  0  0
  4  3  1  0  0  0  0
  5 25  1  1  0  0  0
  6 18  1  1  0  0  0
  6  5  1  0  0  0  0
  7 19  1  6  0  0  0
  9 26  1  6  0  0  0
  9 28  1  0  0  0  0
  9 15  1  0  0  0  0
 12  2  1  0  0  0  0
 12  8  1  1  0  0  0
 13 11  1  6  0  0  0
 13 12  1  0  0  0  0
 14 23  1  6  0  0  0
 14 27  1  0  0  0  0
 15 18  1  0  0  0  0
 17  8  1  6  0  0  0
 17 10  1  0  0  0  0
 17  7  1  0  0  0  0
 19 16  1  0  0  0  0
 20 29  1  1  0  0  0
 20  1  1  0  0  0  0
 20 10  1  0  0  0  0
 22 21  1  6  0  0  0
 22 14  1  0  0  0  0
 22 13  1  0  0  0  0
 23 28  1  0  0  0  0
 24  7  1  0  0  0  0
 27  5  1  0  0  0  0
 27  2  1  0  0  0  0
 28  6  1  0  0  0  0
 30 29  1  0  0  0  0
 31 30  1  0  0  0  0
 32 30  2  0  0  0  0
M  END
>  <MODEL>
5

>  <REMARK>
 VINA RESULT:      -7.1      3.590      8.047
  Name = 
  1 active torsions:
  status: ('A' for Active; 'I' for Inactive)
    1  A    between atoms: C_20  and  N_29
                            x       y       z     vdW  Elec       q    Type
                         _______ _______ _______ _____ _____    ______ ____

>  <TORSDO>
F 1

$$$$
=
 OpenBabel11112416423D

 32 37  0  0  1  0  0  0  0  0999 V2000
  184.4440  178.0400  143.7460 C   0  0  0  0  0  2  0  0  0  0  0  0
  188.6160  176.0540  141.6900 C   0  0  2  0  0  3  0  0  0  0  0  0
  189.9630  175.2370  146.3320 C   0  0  0  0  0  2  0  0  0  0  0  0
  189.6490  173.8730  146.1690 O   0  0  0  0  0  0  0  0  0  0  0  0
  188.9130  174.1280  140.0090 C   0  0  1  0  0  3  0  0  0  0  0  0
  189.2040  172.6270  139.8470 C   0  0  1  0  0  3  0  0  0  0  0  0
  186.7490  177.8110  141.3930 C   0  0  2  0  0  3  0  0  0  0  0  0
  188.5420  177.8490  143.2400 C   0  0  0  0  0  2  0  0  0  0  0  0
  191.3340  172.1760  141.0220 C   0  0  2  0  0  3  0  0  0  0  0  0
  186.5530  179.4340  143.4180 C   0  0  0  0  0  2  0  0  0  0  0  0
  189.0430  176.0970  145.4610 C   0  0  0  0  0  2  0  0  0  0  0  0
  188.3220  176.4070  143.0990 N   0  0  2  0  0  0  0  0  0  0  0  0
  189.2600  175.7140  143.9900 C   0  0  2  0  0  3  0  0  0  0  0  0
  189.4030  173.7860  142.4310 C   0  0  1  0  0  3  0  0  0  0  0  0
  191.7410  171.8990  139.5910 C   0  0  0  0  0  2  0  0  0  0  0  0
  184.4840  177.9100  142.2890 N   0  0  0  0  0  2  0  0  0  0  0  0
  187.4700  178.6400  142.4800 C   0  0  2  0  0  3  0  0  0  0  0  0
  190.3830  172.3970  138.4770 S   0  0  0  0  0  0  0  0  0  0  0  0
  185.5600  177.0040  141.9140 C   0  0  0  0  0  2  0  0  0  0  0  0
  185.7700  178.5130  144.3550 C   0  0  1  0  0  3  0  0  0  0  0  0
  190.0180  173.5170  144.8590 C   0  0  0  0  0  2  0  0  0  0  0  0
  189.0850  174.2010  143.8570 C   0  0  1  0  0  3  0  0  0  0  0  0
  189.2380  172.3960  142.2930 O   0  0  0  0  0  0  0  0  0  0  0  0
  187.7410  176.8690  140.7070 C   0  0  0  0  0  2  0  0  0  0  0  0
  187.8290  174.4860  139.0060 C   0  0  0  0  0  1  0  0  0  0  0  0
  191.9640  171.2720  141.8750 O   0  0  0  0  0  1  0  0  0  0  0  0
  188.4930  174.5260  141.4420 C   0  0  1  0  0  3  0  0  0  0  0  0
  189.8310  171.9850  141.0800 C   0  0  1  0  0  3  0  0  0  0  0  0
  185.5040  179.1880  145.6160 N   0  0  0  0  0  2  0  0  0  0  0  0
  185.8190  178.6080  146.8840 C   0  0  0  0  0  0  0  0  0  0  0  0
  185.5470  179.3330  148.0760 N   0  0  0  0  0  1  0  0  0  0  0  0
  186.3300  177.4590  146.9550 O   0  0  0  0  0  0  0  0  0  0  0  0
  1 20  1  0  0  0  0
  2 24  1  6  0  0  0
  2 12  1  0  0  0  0
  4  3  1  0  0  0  0
  5 25  1  6  0  0  0
  5 27  1  0  0  0  0
  6 18  1  6  0  0  0
  6  5  1  0  0  0  0
  6 28  1  0  0  0  0
  7 24  1  1  0  0  0
  7 19  1  0  0  0  0
  7 17  1  0  0  0  0
  9 28  1  0  0  0  0
  9 26  1  1  0  0  0
 10 20  1  0  0  0  0
 11  3  1  0  0  0  0
 12  8  1  6  0  0  0
 12 13  1  0  0  0  0
 13 11  1  1  0  0  0
 14 23  1  1  0  0  0
 14 22  1  0  0  0  0
 15  9  1  0  0  0  0
 16  1  1  0  0  0  0
 17  8  1  1  0  0  0
 17 10  1  0  0  0  0
 18 15  1  0  0  0  0
 19 16  1  0  0  0  0
 20 29  1  1  0  0  0
 21  4  1  0  0  0  0
 22 13  1  0  0  0  0
 22 21  1  1  0  0  0
 27  2  1  0  0  0  0
 27 14  1  0  0  0  0
 28 23  1  0  0  0  0
 29 30  1  0  0  0  0
 30 32  2  0  0  0  0
 30 31  1  0  0  0  0
M  END
>  <MODEL>
6

>  <REMARK>
 VINA RESULT:      -7.1      3.258      7.018
  Name = 
  1 active torsions:
  status: ('A' for Active; 'I' for Inactive)
    1  A    between atoms: C_20  and  N_29
                            x       y       z     vdW  Elec       q    Type
                         _______ _______ _______ _____ _____    ______ ____

>  <TORSDO>
F 1

$$$$
=
 OpenBabel11112416423D

 32 37  0  0  1  0  0  0  0  0999 V2000
  190.6490  173.4250  138.1240 C   0  0  0  0  0  2  0  0  0  0  0  0
  189.0450  174.2320  142.8530 C   0  0  2  0  0  3  0  0  0  0  0  0
  193.8180  174.4300  143.9510 C   0  0  0  0  0  2  0  0  0  0  0  0
  193.7250  175.8320  144.0470 O   0  0  0  0  0  0  0  0  0  0  0  0
  187.5240  176.0650  143.8250 C   0  0  1  0  0  3  0  0  0  0  0  0
  187.4850  177.4280  144.5370 C   0  0  1  0  0  3  0  0  0  0  0  0
  188.4940  173.0920  140.6030 C   0  0  2  0  0  3  0  0  0  0  0  0
  190.4610  172.4660  142.1410 C   0  0  0  0  0  2  0  0  0  0  0  0
  188.8410  177.2040  146.5930 C   0  0  2  0  0  3  0  0  0  0  0  0
  190.3850  171.5050  139.7810 C   0  0  0  0  0  2  0  0  0  0  0  0
  192.8260  173.9050  142.9100 C   0  0  0  0  0  2  0  0  0  0  0  0
  190.4010  173.9170  142.3460 N   0  0  2  0  0  0  0  0  0  0  0  0
  191.4040  174.2750  143.3570 C   0  0  2  0  0  3  0  0  0  0  0  0
  189.9920  176.1490  144.1720 C   0  0  1  0  0  3  0  0  0  0  0  0
  187.4660  177.4160  147.1890 C   0  0  0  0  0  2  0  0  0  0  0  0
  189.2120  173.6020  138.3300 N   0  0  0  0  0  2  0  0  0  0  0  0
  189.5730  172.0460  140.9630 C   0  0  2  0  0  3  0  0  0  0  0  0
  186.2240  177.3740  145.8520 S   0  0  0  0  0  0  0  0  0  0  0  0
  188.9780  174.1800  139.6450 C   0  0  0  0  0  2  0  0  0  0  0  0
  191.3210  172.5690  139.2050 C   0  0  1  0  0  3  0  0  0  0  0  0
  192.4720  176.1260  144.6170 C   0  0  0  0  0  2  0  0  0  0  0  0
  191.3600  175.7800  143.6240 C   0  0  1  0  0  3  0  0  0  0  0  0
  189.9360  177.5330  144.4140 O   0  0  0  0  0  0  0  0  0  0  0  0
  187.9480  173.7430  141.8760 C   0  0  0  0  0  2  0  0  0  0  0  0
  186.4210  176.0750  142.7790 C   0  0  0  0  0  1  0  0  0  0  0  0
  189.7980  177.8540  147.3720 O   0  0  0  0  0  1  0  0  0  0  0  0
  188.8910  175.7410  143.1840 C   0  0  1  0  0  3  0  0  0  0  0  0
  188.8010  177.8110  145.2050 C   0  0  1  0  0  3  0  0  0  0  0  0
  192.5110  171.9430  138.6490 N   0  0  0  0  0  2  0  0  0  0  0  0
  193.8270  172.4560  138.8690 C   0  0  0  0  0  0  0  0  0  0  0  0
  194.9470  171.7810  138.3090 N   0  0  0  0  0  1  0  0  0  0  0  0
  194.0040  173.5010  139.5490 O   0  0  0  0  0  0  0  0  0  0  0  0
  1 16  1  0  0  0  0
  1 20  1  0  0  0  0
  2 24  1  6  0  0  0
  2 27  1  0  0  0  0
  3  4  1  0  0  0  0
  4 21  1  0  0  0  0
  5 25  1  6  0  0  0
  5  6  1  0  0  0  0
  6 28  1  0  0  0  0
  6 18  1  1  0  0  0
  7 19  1  6  0  0  0
  7 17  1  0  0  0  0
  7 24  1  0  0  0  0
  9 15  1  0  0  0  0
  9 26  1  1  0  0  0
 11  3  1  0  0  0  0
 12  8  1  1  0  0  0
 12  2  1  0  0  0  0
 12 13  1  0  0  0  0
 13 11  1  6  0  0  0
 13 22  1  0  0  0  0
 14 23  1  6  0  0  0
 16 19  1  0  0  0  0
 17 10  1  6  0  0  0
 17  8  1  0  0  0  0
 18 15  1  0  0  0  0
 20 29  1  6  0  0  0
 20 10  1  0  0  0  0
 22 14  1  0  0  0  0
 22 21  1  1  0  0  0
 23 28  1  0  0  0  0
 27  5  1  0  0  0  0
 27 14  1  0  0  0  0
 28  9  1  0  0  0  0
 29 30  1  0  0  0  0
 30 32  2  0  0  0  0
 31 30  1  0  0  0  0
M  END
>  <MODEL>
7

>  <REMARK>
 VINA RESULT:      -6.9      2.456      3.785
  Name = 
  1 active torsions:
  status: ('A' for Active; 'I' for Inactive)
    1  A    between atoms: C_20  and  N_29
                            x       y       z     vdW  Elec       q    Type
                         _______ _______ _______ _____ _____    ______ ____

>  <TORSDO>
F 1

$$$$
=
 OpenBabel11112416423D

 32 37  0  0  1  0  0  0  0  0999 V2000
  193.6250  173.1370  145.5550 C   0  0  0  0  0  2  0  0  0  0  0  0
  190.4200  176.6450  143.8230 C   0  0  2  0  0  3  0  0  0  0  0  0
  190.1550  173.7860  139.8510 C   0  0  0  0  0  2  0  0  0  0  0  0
  188.8900  173.3340  140.2760 O   0  0  0  0  0  0  0  0  0  0  0  0
  188.2110  177.5370  144.7960 C   0  0  1  0  0  3  0  0  0  0  0  0
  186.6780  177.4130  144.7690 C   0  0  1  0  0  3  0  0  0  0  0  0
  192.4710  176.2230  145.3310 C   0  0  2  0  0  3  0  0  0  0  0  0
  192.4310  175.9510  142.7720 C   0  0  0  0  0  2  0  0  0  0  0  0
  185.9750  177.7090  142.4160 C   0  0  2  0  0  3  0  0  0  0  0  0
  194.4280  175.0530  144.0770 C   0  0  0  0  0  2  0  0  0  0  0  0
  191.0310  174.1140  141.0620 C   0  0  0  0  0  2  0  0  0  0  0  0
  191.0730  175.5180  143.1170 N   0  0  2  0  0  0  0  0  0  0  0  0
  190.3560  175.2320  141.8680 C   0  0  2  0  0  3  0  0  0  0  0  0
  188.2010  175.9390  142.8810 C   0  0  1  0  0  3  0  0  0  0  0  0
  185.3650  178.9430  143.0450 C   0  0  0  0  0  2  0  0  0  0  0  0
  193.2340  174.2080  146.4730 N   0  0  0  0  0  2  0  0  0  0  0  0
  193.2960  176.0850  144.0320 C   0  0  2  0  0  3  0  0  0  0  0  0
  185.9500  179.0850  144.7690 S   0  0  0  0  0  0  0  0  0  0  0  0
  192.0570  174.8880  145.9500 C   0  0  0  0  0  2  0  0  0  0  0  0
  193.8880  173.6230  144.1240 C   0  0  1  0  0  3  0  0  0  0  0  0
  188.2340  174.4330  140.8620 C   0  0  0  0  0  2  0  0  0  0  0  0
  188.9220  174.8020  142.1790 C   0  0  1  0  0  3  0  0  0  0  0  0
  186.8820  175.5520  143.1790 O   0  0  0  0  0  0  0  0  0  0  0  0
  191.2240  177.0720  145.0750 C   0  0  0  0  0  2  0  0  0  0  0  0
  188.6200  177.7240  146.2480 C   0  0  0  0  0  1  0  0  0  0  0  0
  185.1180  177.2050  141.4390 O   0  0  0  0  0  1  0  0  0  0  0  0
  188.9400  176.3280  144.1680 C   0  0  1  0  0  3  0  0  0  0  0  0
  186.1400  176.6990  143.5350 C   0  0  1  0  0  3  0  0  0  0  0  0
  194.8170  172.7120  143.4730 N   0  0  0  0  0  2  0  0  0  0  0  0
  194.3880  171.6690  142.5950 C   0  0  0  0  0  0  0  0  0  0  0  0
  195.3540  170.8270  141.9790 N   0  0  0  0  0  1  0  0  0  0  0  0
  193.1630  171.4840  142.3680 O   0  0  0  0  0  0  0  0  0  0  0  0
  1 16  1  0  0  0  0
  2 27  1  0  0  0  0
  2 24  1  1  0  0  0
  3  4  1  0  0  0  0
  3 11  1  0  0  0  0
  4 21  1  0  0  0  0
  5 25  1  1  0  0  0
  6 18  1  6  0  0  0
  6  5  1  0  0  0  0
  7 24  1  6  0  0  0
  7 19  1  0  0  0  0
  9 26  1  6  0  0  0
  9 15  1  0  0  0  0
  9 28  1  0  0  0  0
 10 20  1  0  0  0  0
 12  8  1  6  0  0  0
 12  2  1  0  0  0  0
 13 11  1  1  0  0  0
 13 22  1  0  0  0  0
 13 12  1  0  0  0  0
 14 23  1  1  0  0  0
 14 27  1  0  0  0  0
 15 18  1  0  0  0  0
 17  8  1  6  0  0  0
 17 10  1  0  0  0  0
 17  7  1  0  0  0  0
 19 16  1  0  0  0  0
 20 29  1  1  0  0  0
 20  1  1  0  0  0  0
 22 21  1  6  0  0  0
 22 14  1  0  0  0  0
 23 28  1  0  0  0  0
 27  5  1  0  0  0  0
 28  6  1  0  0  0  0
 30 29  1  0  0  0  0
 31 30  1  0  0  0  0
 32 30  2  0  0  0  0
M  END
>  <MODEL>
8

>  <REMARK>
 VINA RESULT:      -6.9      2.416      4.242
  Name = 
  1 active torsions:
  status: ('A' for Active; 'I' for Inactive)
    1  A    between atoms: C_20  and  N_29
                            x       y       z     vdW  Elec       q    Type
                         _______ _______ _______ _____ _____    ______ ____

>  <TORSDO>
F 1

$$$$
=
 OpenBabel11112416423D

 32 37  0  0  1  0  0  0  0  0999 V2000
  196.8740  173.0060  144.6560 C   0  0  0  0  0  2  0  0  0  0  0  0
  192.8970  176.1250  144.4790 C   0  0  2  0  0  3  0  0  0  0  0  0
  192.0330  174.0380  140.1290 C   0  0  0  0  0  2  0  0  0  0  0  0
  190.9870  173.2920  140.7090 O   0  0  0  0  0  0  0  0  0  0  0  0
  190.9030  176.4050  146.0800 C   0  0  1  0  0  3  0  0  0  0  0  0
  189.4430  176.0110  146.3610 C   0  0  1  0  0  3  0  0  0  0  0  0
  195.2980  175.8170  145.3740 C   0  0  2  0  0  3  0  0  0  0  0  0
  194.6550  176.0130  142.8900 C   0  0  0  0  0  2  0  0  0  0  0  0
  188.1400  176.5970  144.3410 C   0  0  2  0  0  3  0  0  0  0  0  0
  197.0180  175.2730  143.4990 C   0  0  0  0  0  2  0  0  0  0  0  0
  193.1320  174.2950  141.1620 C   0  0  0  0  0  2  0  0  0  0  0  0
  193.4980  175.2840  143.4170 N   0  0  2  0  0  0  0  0  0  0  0  0
  192.5360  175.1040  142.3230 C   0  0  2  0  0  3  0  0  0  0  0  0
  190.6280  175.2080  143.9090 C   0  0  1  0  0  3  0  0  0  0  0  0
  187.5480  177.5620  145.3440 C   0  0  0  0  0  2  0  0  0  0  0  0
  196.5850  173.8010  145.8500 N   0  0  0  0  0  2  0  0  0  0  0  0
  195.7820  176.0710  143.9290 C   0  0  2  0  0  3  0  0  0  0  0  0
  188.5210  177.4920  146.8870 S   0  0  0  0  0  0  0  0  0  0  0  0
  195.2350  174.3390  145.7580 C   0  0  0  0  0  2  0  0  0  0  0  0
  196.7030  173.7840  143.3460 C   0  0  1  0  0  3  0  0  0  0  0  0
  190.3570  174.1270  141.6500 C   0  0  0  0  0  2  0  0  0  0  0  0
  191.2970  174.3690  142.8340 C   0  0  1  0  0  3  0  0  0  0  0  0
  189.4900  174.5390  144.3940 O   0  0  0  0  0  0  0  0  0  0  0  0
  193.9240  176.4560  145.5890 C   0  0  0  0  0  2  0  0  0  0  0  0
  191.6330  176.3960  147.4130 C   0  0  0  0  0  1  0  0  0  0  0  0
  187.1420  176.1310  143.4870 O   0  0  0  0  0  1  0  0  0  0  0  0
  191.6070  175.4850  145.0590 C   0  0  1  0  0  3  0  0  0  0  0  0
  188.7140  175.4470  145.1460 C   0  0  1  0  0  3  0  0  0  0  0  0
  197.5540  173.1930  142.3230 N   0  0  0  0  0  2  0  0  0  0  0  0
  197.0550  172.2950  141.3290 C   0  0  0  0  0  0  0  0  0  0  0  0
  197.9410  171.7690  140.3490 N   0  0  0  0  0  1  0  0  0  0  0  0
  195.8410  171.9600  141.3160 O   0  0  0  0  0  0  0  0  0  0  0  0
  1 16  1  0  0  0  0
  2 27  1  0  0  0  0
  2 24  1  1  0  0  0
  3  4  1  0  0  0  0
  3 11  1  0  0  0  0
  4 21  1  0  0  0  0
  5  6  1  0  0  0  0
  5 25  1  1  0  0  0
  6 18  1  6  0  0  0
  7 24  1  6  0  0  0
  7 19  1  0  0  0  0
  9 26  1  6  0  0  0
  9 28  1  0  0  0  0
  9 15  1  0  0  0  0
 10 17  1  0  0  0  0
 12  8  1  6  0  0  0
 12  2  1  0  0  0  0
 13 11  1  6  0  0  0
 13 22  1  0  0  0  0
 13 12  1  0  0  0  0
 14 23  1  1  0  0  0
 14 27  1  0  0  0  0
 15 18  1  0  0  0  0
 17  8  1  6  0  0  0
 17  7  1  0  0  0  0
 19 16  1  0  0  0  0
 20 29  1  6  0  0  0
 20 10  1  0  0  0  0
 20  1  1  0  0  0  0
 22 21  1  6  0  0  0
 22 14  1  0  0  0  0
 23 28  1  0  0  0  0
 27  5  1  0  0  0  0
 28  6  1  0  0  0  0
 30 29  1  0  0  0  0
 31 30  1  0  0  0  0
 32 30  2  0  0  0  0
M  END
>  <MODEL>
9

>  <REMARK>
 VINA RESULT:      -6.8      3.283      5.533
  Name = 
  1 active torsions:
  status: ('A' for Active; 'I' for Inactive)
    1  A    between atoms: C_20  and  N_29
                            x       y       z     vdW  Elec       q    Type
                         _______ _______ _______ _____ _____    ______ ____

>  <TORSDO>
F 1

$$$$
