=
 OpenBabel11112416393D

 32 38  0  0  1  0  0  0  0  0999 V2000
  192.2500  175.1120  144.0130 C   0  0  1  0  0  3  0  0  0  0  0  0
  187.5250  177.1960  143.5370 C   0  0  0  0  0  0  0  0  0  0  0  0
  186.2830  178.3240  148.0850 C   0  0  0  0  0  3  0  0  0  0  0  0
  184.9980  178.6570  147.6660 C   0  0  0  0  0  3  0  0  0  0  0  0
  185.8520  177.5090  141.6640 C   0  0  0  0  0  0  0  0  0  0  0  0
  184.5460  177.8680  141.3250 C   0  0  0  0  0  0  0  0  0  0  0  0
  189.9410  176.6480  143.1000 C   0  0  1  0  0  3  0  0  0  0  0  0
  189.2040  177.0750  145.3850 C   0  0  0  0  0  2  0  0  0  0  0  0
  182.4980  178.5430  141.5510 C   0  0  0  0  0  0  0  0  0  0  0  0
  191.3860  175.8260  145.0590 C   0  0  2  0  0  3  0  0  0  0  0  0
  187.2240  177.8820  147.1560 C   0  0  0  0  0  3  0  0  0  0  0  0
  187.8330  177.3190  144.8830 N   0  0  0  0  0  0  0  0  0  0  0  0
  186.9020  177.7650  145.7860 C   0  0  0  0  0  0  0  0  0  0  0  0
  185.2610  178.0120  144.0100 C   0  0  0  0  0  0  0  0  0  0  0  0
  182.7280  178.3030  140.2410 N   0  0  0  0  0  0  0  0  0  0  0  0
  191.5090  174.7910  142.8300 O   0  0  0  0  0  0  0  0  0  0  0  0
  189.9730  176.1050  144.5140 C   0  0  2  0  0  3  0  0  0  0  0  0
  183.9850  177.8890  140.1000 N   0  0  0  0  0  0  0  0  0  0  0  0
  190.9310  175.9160  142.1890 C   0  0  0  0  0  2  0  0  0  0  0  0
  192.4870  176.5920  144.3330 C   0  0  1  0  0  3  0  0  0  0  0  0
  184.6590  178.5510  146.3180 C   0  0  0  0  0  3  0  0  0  0  0  0
  185.5980  178.1070  145.3670 C   0  0  0  0  0  0  0  0  0  0  0  0
  183.9550  178.3650  143.5960 C   0  0  0  0  0  3  0  0  0  0  0  0
  188.5200  176.5310  142.6030 C   0  0  0  0  0  2  0  0  0  0  0  0
  186.7670  177.1380  140.5400 C   0  0  0  0  0  1  0  0  0  0  0  0
  181.2030  179.0290  142.1020 C   0  0  0  0  0  1  0  0  0  0  0  0
  186.2330  177.5630  143.0540 C   0  0  0  0  0  0  0  0  0  0  0  0
  183.6450  178.2720  142.2550 C   0  0  0  0  0  0  0  0  0  0  0  0
  193.6900  176.7210  145.2480 C   0  0  0  0  0  2  0  0  0  0  0  0
  194.6900  175.7290  144.8910 N   0  0  0  0  0  0  0  0  0  0  0  0
  195.7370  176.4230  144.1630 C   0  0  0  0  0  1  0  0  0  0  0  0
  195.2840  175.2720  146.1340 C   0  0  0  0  0  1  0  0  0  0  0  0
  1 16  1  6  0  0  0
  1 20  1  0  0  0  0
  1 10  1  0  0  0  0
  2 12  1  0  0  0  0
  4  3  1  0  0  0  0
  5 27  1  0  0  0  0
  6  5  2  0  0  0  0
  6 28  1  0  0  0  0
  7 19  1  6  0  0  0
  7 17  1  0  0  0  0
  9 26  1  0  0  0  0
  9 28  2  0  0  0  0
 11  3  2  0  0  0  0
 12  8  1  0  0  0  0
 12 13  1  0  0  0  0
 13 11  1  0  0  0  0
 14 22  1  0  0  0  0
 15  9  1  0  0  0  0
 17 10  1  0  0  0  0
 17  8  1  0  0  0  0
 18 15  2  0  0  0  0
 18  6  1  0  0  0  0
 19 16  1  0  0  0  0
 20 10  1  0  0  0  0
 20 29  1  0  0  0  0
 21  4  2  0  0  0  0
 22 13  2  0  0  0  0
 22 21  1  0  0  0  0
 23 14  2  0  0  0  0
 24  7  1  0  0  0  0
 24  2  1  0  0  0  0
 25  5  1  0  0  0  0
 27  2  2  0  0  0  0
 27 14  1  0  0  0  0
 28 23  1  0  0  0  0
 30 29  1  0  0  0  0
 30 32  1  0  0  0  0
 31 30  1  0  0  0  0
M  END
>  <MODEL>
1

>  <REMARK>
 VINA RESULT:      -9.2      0.000      0.000
  Name = 
  2 active torsions:
  status: ('A' for Active; 'I' for Inactive)
    1  A    between atoms: C_20  and  C_29
    2  A    between atoms: C_29  and  N_30
                            x       y       z     vdW  Elec       q    Type
                         _______ _______ _______ _____ _____    ______ ____

>  <TORSDO>
F 2

$$$$
=
 OpenBabel11112416393D

 32 38  0  0  1  0  0  0  0  0999 V2000
  185.1790  177.3700  146.9700 C   0  0  1  0  0  3  0  0  0  0  0  0
  189.7960  175.9980  145.0480 C   0  0  0  0  0  0  0  0  0  0  0  0
  188.7520  174.2070  140.6650 C   0  0  0  0  0  3  0  0  0  0  0  0
  190.0700  173.7900  140.5070 C   0  0  0  0  0  3  0  0  0  0  0  0
  192.1710  175.8880  145.9160 C   0  0  0  0  0  0  0  0  0  0  0  0
  193.4730  175.4430  145.6760 C   0  0  0  0  0  0  0  0  0  0  0  0
  188.0000  177.3130  146.2180 C   0  0  1  0  0  3  0  0  0  0  0  0
  187.5050  176.2490  144.0810 C   0  0  0  0  0  2  0  0  0  0  0  0
  195.1550  174.5250  144.6610 C   0  0  0  0  0  0  0  0  0  0  0  0
  185.5520  176.9020  145.5580 C   0  0  2  0  0  3  0  0  0  0  0  0
  188.3670  174.8620  141.8350 C   0  0  0  0  0  3  0  0  0  0  0  0
  188.8980  175.7490  144.0230 N   0  0  0  0  0  0  0  0  0  0  0  0
  189.2910  175.1140  142.8720 C   0  0  0  0  0  0  0  0  0  0  0  0
  191.5650  174.9430  143.7140 C   0  0  0  0  0  0  0  0  0  0  0  0
  195.5850  175.0180  145.8440 N   0  0  0  0  0  0  0  0  0  0  0  0
  186.2400  177.1490  147.9080 O   0  0  0  0  0  0  0  0  0  0  0  0
  187.0110  176.4170  145.5010 C   0  0  2  0  0  3  0  0  0  0  0  0
  194.5550  175.5820  146.4680 N   0  0  0  0  0  0  0  0  0  0  0  0
  187.4540  177.7950  147.5660 C   0  0  0  0  0  2  0  0  0  0  0  0
  185.4100  178.3920  145.8510 C   0  0  1  0  0  3  0  0  0  0  0  0
  190.9990  174.0300  141.5170 C   0  0  0  0  0  3  0  0  0  0  0  0
  190.6260  174.6900  142.7040 C   0  0  0  0  0  0  0  0  0  0  0  0
  192.9030  174.5230  143.5350 C   0  0  0  0  0  3  0  0  0  0  0  0
  189.2860  176.5360  146.3720 C   0  0  0  0  0  2  0  0  0  0  0  0
  191.9370  176.6490  147.1820 C   0  0  0  0  0  1  0  0  0  0  0  0
  196.0240  173.8270  143.6750 C   0  0  0  0  0  1  0  0  0  0  0  0
  191.1680  175.6220  144.9150 C   0  0  0  0  0  0  0  0  0  0  0  0
  193.8130  174.7880  144.5380 C   0  0  0  0  0  0  0  0  0  0  0  0
  184.0700  178.8770  145.3310 C   0  0  0  0  0  2  0  0  0  0  0  0
  184.2410  179.4920  144.0260 N   0  0  0  0  0  0  0  0  0  0  0  0
  185.6220  179.9310  143.9390 C   0  0  0  0  0  1  0  0  0  0  0  0
  184.0810  178.4350  143.0450 C   0  0  0  0  0  1  0  0  0  0  0  0
  1 16  1  1  0  0  0
  2 24  1  0  0  0  0
  3 11  1  0  0  0  0
  4  3  2  0  0  0  0
  4 21  1  0  0  0  0
  5 25  1  0  0  0  0
  6  5  2  0  0  0  0
  6 18  1  0  0  0  0
  7 24  1  1  0  0  0
  7 19  1  0  0  0  0
  8 17  1  0  0  0  0
  9 15  1  0  0  0  0
 10 20  1  0  0  0  0
 10  1  1  0  0  0  0
 11 13  2  0  0  0  0
 12  8  1  0  0  0  0
 12  2  1  0  0  0  0
 13 12  1  0  0  0  0
 14 27  1  0  0  0  0
 15 18  2  0  0  0  0
 17 10  1  0  0  0  0
 17  7  1  0  0  0  0
 19 16  1  0  0  0  0
 20  1  1  0  0  0  0
 21 22  2  0  0  0  0
 22 13  1  0  0  0  0
 22 14  1  0  0  0  0
 23 14  2  0  0  0  0
 23 28  1  0  0  0  0
 26  9  1  0  0  0  0
 27  2  2  0  0  0  0
 27  5  1  0  0  0  0
 28  9  2  0  0  0  0
 28  6  1  0  0  0  0
 29 20  1  0  0  0  0
 30 29  1  0  0  0  0
 31 30  1  0  0  0  0
 32 30  1  0  0  0  0
M  END
>  <MODEL>
2

>  <REMARK>
 VINA RESULT:      -8.8      2.323      8.832
  Name = 
  2 active torsions:
  status: ('A' for Active; 'I' for Inactive)
    1  A    between atoms: C_20  and  C_29
    2  A    between atoms: C_29  and  N_30
                            x       y       z     vdW  Elec       q    Type
                         _______ _______ _______ _____ _____    ______ ____

>  <TORSDO>
F 2

$$$$
=
 OpenBabel11112416393D

 32 38  0  0  1  0  0  0  0  0999 V2000
  189.9050  172.0550  139.5320 C   0  0  1  0  0  3  0  0  0  0  0  0
  188.6740  175.4000  143.2990 C   0  0  0  0  0  0  0  0  0  0  0  0
  192.2720  174.9160  146.5120 C   0  0  0  0  0  3  0  0  0  0  0  0
  191.5990  175.7380  147.4100 C   0  0  0  0  0  3  0  0  0  0  0  0
  186.7040  176.8950  143.8360 C   0  0  0  0  0  0  0  0  0  0  0  0
  186.0970  177.7130  144.7900 C   0  0  0  0  0  0  0  0  0  0  0  0
  189.0250  174.4130  141.0120 C   0  0  1  0  0  3  0  0  0  0  0  0
  190.7200  174.0800  142.7330 C   0  0  0  0  0  2  0  0  0  0  0  0
  185.7890  178.7920  146.6460 C   0  0  0  0  0  0  0  0  0  0  0  0
  190.7240  172.5040  140.7480 C   0  0  2  0  0  3  0  0  0  0  0  0
  191.7070  174.6370  145.2680 C   0  0  0  0  0  3  0  0  0  0  0  0
  189.9040  174.8820  143.6730 N   0  0  0  0  0  0  0  0  0  0  0  0
  190.4550  175.1730  144.8950 C   0  0  0  0  0  0  0  0  0  0  0  0
  188.5420  176.5640  145.4550 C   0  0  0  0  0  0  0  0  0  0  0  0
  184.7440  179.0410  145.8280 N   0  0  0  0  0  0  0  0  0  0  0  0
  188.5330  172.4580  139.6280 O   0  0  0  0  0  0  0  0  0  0  0  0
  189.8760  173.3650  141.7010 C   0  0  2  0  0  3  0  0  0  0  0  0
  184.9300  178.3810  144.6870 N   0  0  0  0  0  0  0  0  0  0  0  0
  188.3520  173.8580  139.7530 C   0  0  0  0  0  2  0  0  0  0  0  0
  190.9670  173.1500  139.3880 C   0  0  1  0  0  3  0  0  0  0  0  0
  190.3630  176.2800  147.0620 C   0  0  0  0  0  3  0  0  0  0  0  0
  189.7780  176.0080  145.8100 C   0  0  0  0  0  0  0  0  0  0  0  0
  187.8730  177.4060  146.3730 C   0  0  0  0  0  3  0  0  0  0  0  0
  188.0180  174.9120  142.0200 C   0  0  0  0  0  2  0  0  0  0  0  0
  186.0110  176.7620  142.5170 C   0  0  0  0  0  1  0  0  0  0  0  0
  185.9410  179.3610  148.0130 C   0  0  0  0  0  1  0  0  0  0  0  0
  187.9630  176.2790  144.1720 C   0  0  0  0  0  0  0  0  0  0  0  0
  186.6600  177.9490  146.0020 C   0  0  0  0  0  0  0  0  0  0  0  0
  192.2200  172.5560  138.7710 C   0  0  0  0  0  2  0  0  0  0  0  0
  192.8280  173.5160  137.8670 N   0  0  0  0  0  0  0  0  0  0  0  0
  191.7490  174.1660  137.1450 C   0  0  0  0  0  1  0  0  0  0  0  0
  193.4420  174.5360  138.6980 C   0  0  0  0  0  1  0  0  0  0  0  0
  1 16  1  1  0  0  0
  1 10  1  0  0  0  0
  2 12  1  0  0  0  0
  2 27  2  0  0  0  0
  3  4  1  0  0  0  0
  5 27  1  0  0  0  0
  5  6  2  0  0  0  0
  6 28  1  0  0  0  0
  7 19  1  6  0  0  0
  7 17  1  0  0  0  0
  7 24  1  0  0  0  0
  8 12  1  0  0  0  0
  9 26  1  0  0  0  0
 10 17  1  0  0  0  0
 11  3  2  0  0  0  0
 12 13  1  0  0  0  0
 13 11  1  0  0  0  0
 13 22  2  0  0  0  0
 14 22  1  0  0  0  0
 14 23  2  0  0  0  0
 15  9  1  0  0  0  0
 16 19  1  0  0  0  0
 17  8  1  0  0  0  0
 18  6  1  0  0  0  0
 18 15  2  0  0  0  0
 20  1  1  0  0  0  0
 20 10  1  0  0  0  0
 21  4  2  0  0  0  0
 22 21  1  0  0  0  0
 24  2  1  0  0  0  0
 25  5  1  0  0  0  0
 27 14  1  0  0  0  0
 28 23  1  0  0  0  0
 28  9  2  0  0  0  0
 29 20  1  0  0  0  0
 30 32  1  0  0  0  0
 30 29  1  0  0  0  0
 31 30  1  0  0  0  0
M  END
>  <MODEL>
3

>  <REMARK>
 VINA RESULT:      -8.5      3.105      5.359
  Name = 
  2 active torsions:
  status: ('A' for Active; 'I' for Inactive)
    1  A    between atoms: C_20  and  C_29
    2  A    between atoms: C_29  and  N_30
                            x       y       z     vdW  Elec       q    Type
                         _______ _______ _______ _____ _____    ______ ____

>  <TORSDO>
F 2

$$$$
=
 OpenBabel11112416393D

 32 38  0  0  1  0  0  0  0  0999 V2000
  195.5970  175.5930  144.6820 C   0  0  1  0  0  3  0  0  0  0  0  0
  190.4720  176.3000  145.0420 C   0  0  0  0  0  0  0  0  0  0  0  0
  188.7520  174.5190  140.8740 C   0  0  0  0  0  3  0  0  0  0  0  0
  187.4800  174.9950  141.1800 C   0  0  0  0  0  3  0  0  0  0  0  0
  188.9000  177.4430  146.6630 C   0  0  0  0  0  0  0  0  0  0  0  0
  187.5950  177.8820  146.8970 C   0  0  0  0  0  0  0  0  0  0  0  0
  192.8460  175.7320  145.6500 C   0  0  1  0  0  3  0  0  0  0  0  0
  191.9540  175.0060  143.5000 C   0  0  0  0  0  2  0  0  0  0  0  0
  185.4800  178.2380  146.5780 C   0  0  0  0  0  0  0  0  0  0  0  0
  194.4730  175.0880  143.7690 C   0  0  2  0  0  3  0  0  0  0  0  0
  189.8040  174.7270  141.7660 C   0  0  0  0  0  3  0  0  0  0  0  0
  190.6530  175.6230  143.8470 N   0  0  0  0  0  0  0  0  0  0  0  0
  189.6080  175.4150  142.9830 C   0  0  0  0  0  0  0  0  0  0  0  0
  188.0940  176.5650  144.4980 C   0  0  0  0  0  0  0  0  0  0  0  0
  185.8230  178.7430  147.7840 N   0  0  0  0  0  0  0  0  0  0  0  0
  195.1360  176.5880  145.6040 O   0  0  0  0  0  0  0  0  0  0  0  0
  193.1200  175.7090  144.1600 C   0  0  2  0  0  3  0  0  0  0  0  0
  187.1200  178.5250  147.9830 N   0  0  0  0  0  0  0  0  0  0  0  0
  194.0850  176.1490  146.4480 C   0  0  0  0  0  2  0  0  0  0  0  0
  195.0570  174.1660  144.8350 C   0  0  1  0  0  3  0  0  0  0  0  0
  187.2630  175.6750  142.3770 C   0  0  0  0  0  3  0  0  0  0  0  0
  188.3160  175.8930  143.2880 C   0  0  0  0  0  0  0  0  0  0  0  0
  186.7940  177.0330  144.8010 C   0  0  0  0  0  3  0  0  0  0  0  0
  191.6820  176.6670  145.8810 C   0  0  0  0  0  2  0  0  0  0  0  0
  189.8980  177.6680  147.7550 C   0  0  0  0  0  1  0  0  0  0  0  0
  184.1070  178.2840  146.0070 C   0  0  0  0  0  1  0  0  0  0  0  0
  189.1780  176.7730  145.4170 C   0  0  0  0  0  0  0  0  0  0  0  0
  186.5960  177.6860  146.0000 C   0  0  0  0  0  0  0  0  0  0  0  0
  196.0190  173.1930  144.1800 C   0  0  0  0  0  2  0  0  0  0  0  0
  196.0060  171.9290  144.8950 N   0  0  0  0  0  0  0  0  0  0  0  0
  196.9320  172.0580  146.0060 C   0  0  0  0  0  1  0  0  0  0  0  0
  194.6820  171.7940  145.4750 C   0  0  0  0  0  1  0  0  0  0  0  0
  1 20  1  0  0  0  0
  1 16  1  1  0  0  0
  2 27  2  0  0  0  0
  2 24  1  0  0  0  0
  3  4  2  0  0  0  0
  3 11  1  0  0  0  0
  4 21  1  0  0  0  0
  5  6  2  0  0  0  0
  5 25  1  0  0  0  0
  6 18  1  0  0  0  0
  7 24  1  6  0  0  0
  7 19  1  0  0  0  0
  8 12  1  0  0  0  0
  8 17  1  0  0  0  0
  9 15  1  0  0  0  0
 10 17  1  0  0  0  0
 10  1  1  0  0  0  0
 10 20  1  0  0  0  0
 11 13  2  0  0  0  0
 12  2  1  0  0  0  0
 13 22  1  0  0  0  0
 13 12  1  0  0  0  0
 14 23  2  0  0  0  0
 14 27  1  0  0  0  0
 15 18  2  0  0  0  0
 16 19  1  0  0  0  0
 17  7  1  0  0  0  0
 21 22  2  0  0  0  0
 22 14  1  0  0  0  0
 23 28  1  0  0  0  0
 26  9  1  0  0  0  0
 27  5  1  0  0  0  0
 28  9  2  0  0  0  0
 28  6  1  0  0  0  0
 29 20  1  0  0  0  0
 29 30  1  0  0  0  0
 30 32  1  0  0  0  0
 30 31  1  0  0  0  0
M  END
>  <MODEL>
4

>  <REMARK>
 VINA RESULT:      -8.4      3.077      5.268
  Name = 
  2 active torsions:
  status: ('A' for Active; 'I' for Inactive)
    1  A    between atoms: C_20  and  C_29
    2  A    between atoms: C_29  and  N_30
                            x       y       z     vdW  Elec       q    Type
                         _______ _______ _______ _____ _____    ______ ____

>  <TORSDO>
F 2

$$$$
=
 OpenBabel11112416393D

 32 38  0  0  1  0  0  0  0  0999 V2000
  185.5690  179.1640  143.3610 C   0  0  1  0  0  3  0  0  0  0  0  0
  189.0400  175.3240  143.0360 C   0  0  0  0  0  0  0  0  0  0  0  0
  191.8190  175.9280  146.9620 C   0  0  0  0  0  3  0  0  0  0  0  0
  192.6910  174.9410  146.5130 C   0  0  0  0  0  3  0  0  0  0  0  0
  189.6370  173.5470  141.3360 C   0  0  0  0  0  0  0  0  0  0  0  0
  190.5570  172.5660  140.9600 C   0  0  0  0  0  0  0  0  0  0  0  0
  186.8590  176.5750  142.9590 C   0  0  1  0  0  3  0  0  0  0  0  0
  188.3850  176.9420  144.8250 C   0  0  0  0  0  2  0  0  0  0  0  0
  192.2970  171.2740  141.0300 C   0  0  0  0  0  0  0  0  0  0  0  0
  186.6130  178.7000  144.3820 C   0  0  2  0  0  3  0  0  0  0  0  0
  190.6960  176.2590  146.2040 C   0  0  0  0  0  3  0  0  0  0  0  0
  189.3180  175.9520  144.2390 N   0  0  0  0  0  0  0  0  0  0  0  0
  190.4200  175.6100  144.9820 C   0  0  0  0  0  0  0  0  0  0  0  0
  191.0450  173.9400  143.3290 C   0  0  0  0  0  0  0  0  0  0  0  0
  191.5900  170.9800  139.9170 N   0  0  0  0  0  0  0  0  0  0  0  0
  185.7850  178.5830  142.0680 O   0  0  0  0  0  0  0  0  0  0  0  0
  187.5560  177.6460  143.7740 C   0  0  2  0  0  3  0  0  0  0  0  0
  190.5210  171.7710  139.8720 N   0  0  0  0  0  0  0  0  0  0  0  0
  185.7660  177.1660  142.0630 C   0  0  0  0  0  2  0  0  0  0  0  0
  185.1670  178.2310  144.5090 C   0  0  1  0  0  3  0  0  0  0  0  0
  192.4370  174.2860  145.3090 C   0  0  0  0  0  3  0  0  0  0  0  0
  191.3070  174.6090  144.5330 C   0  0  0  0  0  0  0  0  0  0  0  0
  191.9340  172.9310  142.8900 C   0  0  0  0  0  3  0  0  0  0  0  0
  187.9190  175.8540  142.1600 C   0  0  0  0  0  2  0  0  0  0  0  0
  188.4380  173.7250  140.4590 C   0  0  0  0  0  1  0  0  0  0  0  0
  193.5580  170.5920  141.4300 C   0  0  0  0  0  1  0  0  0  0  0  0
  189.8850  174.2790  142.5530 C   0  0  0  0  0  0  0  0  0  0  0  0
  191.6540  172.2810  141.7060 C   0  0  0  0  0  0  0  0  0  0  0  0
  184.4750  179.0380  145.5910 C   0  0  0  0  0  2  0  0  0  0  0  0
  184.4700  178.2910  146.8370 N   0  0  0  0  0  0  0  0  0  0  0  0
  184.8160  176.9190  146.5130 C   0  0  0  0  0  1  0  0  0  0  0  0
  185.5620  178.8140  147.6380 C   0  0  0  0  0  1  0  0  0  0  0  0
  1 16  1  6  0  0  0
  1 10  1  0  0  0  0
  1 20  1  0  0  0  0
  2 12  1  0  0  0  0
  4  3  1  0  0  0  0
  5 27  1  0  0  0  0
  6  5  2  0  0  0  0
  6 28  1  0  0  0  0
  7 19  1  6  0  0  0
  7 17  1  0  0  0  0
  9 26  1  0  0  0  0
  9 28  2  0  0  0  0
 10 20  1  0  0  0  0
 11  3  2  0  0  0  0
 12  8  1  0  0  0  0
 12 13  1  0  0  0  0
 13 11  1  0  0  0  0
 14 22  1  0  0  0  0
 15  9  1  0  0  0  0
 17 10  1  0  0  0  0
 17  8  1  0  0  0  0
 18 15  2  0  0  0  0
 18  6  1  0  0  0  0
 19 16  1  0  0  0  0
 20 29  1  0  0  0  0
 21  4  2  0  0  0  0
 22 13  2  0  0  0  0
 22 21  1  0  0  0  0
 23 14  2  0  0  0  0
 24  7  1  0  0  0  0
 24  2  1  0  0  0  0
 25  5  1  0  0  0  0
 27  2  2  0  0  0  0
 27 14  1  0  0  0  0
 28 23  1  0  0  0  0
 29 30  1  0  0  0  0
 30 32  1  0  0  0  0
 31 30  1  0  0  0  0
M  END
>  <MODEL>
5

>  <REMARK>
 VINA RESULT:      -8.3      3.187      7.766
  Name = 
  2 active torsions:
  status: ('A' for Active; 'I' for Inactive)
    1  A    between atoms: C_20  and  C_29
    2  A    between atoms: C_29  and  N_30
                            x       y       z     vdW  Elec       q    Type
                         _______ _______ _______ _____ _____    ______ ____

>  <TORSDO>
F 2

$$$$
=
 OpenBabel11112416393D

 32 38  0  0  1  0  0  0  0  0999 V2000
  185.8920  177.0470  146.7390 C   0  0  1  0  0  3  0  0  0  0  0  0
  190.2580  175.8750  144.1970 C   0  0  0  0  0  0  0  0  0  0  0  0
  188.7030  173.7690  140.1160 C   0  0  0  0  0  3  0  0  0  0  0  0
  190.0100  173.4320  139.7770 C   0  0  0  0  0  3  0  0  0  0  0  0
  192.7380  175.9720  144.6940 C   0  0  0  0  0  0  0  0  0  0  0  0
  194.0180  175.6010  144.2780 C   0  0  0  0  0  0  0  0  0  0  0  0
  188.5650  177.1340  145.5670 C   0  0  1  0  0  3  0  0  0  0  0  0
  187.8350  175.9180  143.5830 C   0  0  0  0  0  2  0  0  0  0  0  0
  195.5920  174.7400  143.0610 C   0  0  0  0  0  0  0  0  0  0  0  0
  186.0830  176.5240  145.3110 C   0  0  2  0  0  3  0  0  0  0  0  0
  188.4510  174.4640  141.2990 C   0  0  0  0  0  3  0  0  0  0  0  0
  189.2370  175.5090  143.3350 N   0  0  0  0  0  0  0  0  0  0  0  0
  189.4990  174.8350  142.1680 C   0  0  0  0  0  0  0  0  0  0  0  0
  191.8800  174.8640  142.6580 C   0  0  0  0  0  0  0  0  0  0  0  0
  196.1570  175.3270  144.1390 N   0  0  0  0  0  0  0  0  0  0  0  0
  187.0950  176.9520  147.5120 O   0  0  0  0  0  0  0  0  0  0  0  0
  187.5490  176.1340  145.0530 C   0  0  2  0  0  3  0  0  0  0  0  0
  195.1930  175.8580  144.8870 N   0  0  0  0  0  0  0  0  0  0  0  0
  188.1940  177.6560  146.9580 C   0  0  0  0  0  2  0  0  0  0  0  0
  185.8770  178.0160  145.5520 C   0  0  1  0  0  3  0  0  0  0  0  0
  191.0600  173.7910  140.6200 C   0  0  0  0  0  3  0  0  0  0  0  0
  190.8220  174.4920  141.8180 C   0  0  0  0  0  0  0  0  0  0  0  0
  193.2040  174.5240  142.2950 C   0  0  0  0  0  3  0  0  0  0  0  0
  189.9130  176.4540  145.5570 C   0  0  0  0  0  2  0  0  0  0  0  0
  192.6400  176.7880  145.9440 C   0  0  0  0  0  1  0  0  0  0  0  0
  196.3530  174.0450  141.9880 C   0  0  0  0  0  1  0  0  0  0  0  0
  191.6180  175.5840  143.8730 C   0  0  0  0  0  0  0  0  0  0  0  0
  194.2320  174.9060  143.1330 C   0  0  0  0  0  0  0  0  0  0  0  0
  184.4420  178.3820  145.2210 C   0  0  0  0  0  2  0  0  0  0  0  0
  184.4080  179.2450  144.0530 N   0  0  0  0  0  0  0  0  0  0  0  0
  185.7440  179.7900  143.8880 C   0  0  0  0  0  1  0  0  0  0  0  0
  184.1680  178.3850  142.9090 C   0  0  0  0  0  1  0  0  0  0  0  0
  1 16  1  1  0  0  0
  2 24  1  0  0  0  0
  3 11  1  0  0  0  0
  4  3  2  0  0  0  0
  4 21  1  0  0  0  0
  5 25  1  0  0  0  0
  6  5  2  0  0  0  0
  6 18  1  0  0  0  0
  7 24  1  1  0  0  0
  7 19  1  0  0  0  0
  8 17  1  0  0  0  0
  9 28  2  0  0  0  0
  9 15  1  0  0  0  0
 10 20  1  0  0  0  0
 10  1  1  0  0  0  0
 11 13  2  0  0  0  0
 12  8  1  0  0  0  0
 12  2  1  0  0  0  0
 13 12  1  0  0  0  0
 14 27  1  0  0  0  0
 15 18  2  0  0  0  0
 17 10  1  0  0  0  0
 17  7  1  0  0  0  0
 19 16  1  0  0  0  0
 20  1  1  0  0  0  0
 21 22  2  0  0  0  0
 22 13  1  0  0  0  0
 22 14  1  0  0  0  0
 23 14  2  0  0  0  0
 23 28  1  0  0  0  0
 26  9  1  0  0  0  0
 27  2  2  0  0  0  0
 27  5  1  0  0  0  0
 28  6  1  0  0  0  0
 29 20  1  0  0  0  0
 30 29  1  0  0  0  0
 31 30  1  0  0  0  0
 32 30  1  0  0  0  0
M  END
>  <MODEL>
6

>  <REMARK>
 VINA RESULT:      -8.1      2.284      8.819
  Name = 
  2 active torsions:
  status: ('A' for Active; 'I' for Inactive)
    1  A    between atoms: C_20  and  C_29
    2  A    between atoms: C_29  and  N_30
                            x       y       z     vdW  Elec       q    Type
                         _______ _______ _______ _____ _____    ______ ____

>  <TORSDO>
F 2

$$$$
=
 OpenBabel11112416393D

 32 38  0  0  1  0  0  0  0  0999 V2000
  195.5920  175.0170  145.2180 C   0  0  1  0  0  3  0  0  0  0  0  0
  190.6040  175.8200  144.0460 C   0  0  0  0  0  0  0  0  0  0  0  0
  190.0150  173.5300  139.8140 C   0  0  0  0  0  3  0  0  0  0  0  0
  188.7320  174.0550  139.6940 C   0  0  0  0  0  3  0  0  0  0  0  0
  188.7020  177.1830  145.0120 C   0  0  0  0  0  0  0  0  0  0  0  0
  187.4060  177.6630  144.8170 C   0  0  0  0  0  0  0  0  0  0  0  0
  192.6900  175.3120  145.3570 C   0  0  1  0  0  3  0  0  0  0  0  0
  192.3910  174.3200  143.1490 C   0  0  0  0  0  2  0  0  0  0  0  0
  185.4790  177.9970  143.8810 C   0  0  0  0  0  0  0  0  0  0  0  0
  194.7400  174.4100  144.0970 C   0  0  2  0  0  3  0  0  0  0  0  0
  190.7900  173.8410  140.9310 C   0  0  0  0  0  3  0  0  0  0  0  0
  191.0750  174.9910  143.0410 N   0  0  0  0  0  0  0  0  0  0  0  0
  190.2990  174.6830  141.9520 C   0  0  0  0  0  0  0  0  0  0  0  0
  188.4830  176.0380  142.8330 C   0  0  0  0  0  0  0  0  0  0  0  0
  185.5000  178.6510  145.0630 N   0  0  0  0  0  0  0  0  0  0  0  0
  194.9420  176.1290  145.8460 O   0  0  0  0  0  0  0  0  0  0  0  0
  193.3620  175.0910  144.0160 C   0  0  2  0  0  3  0  0  0  0  0  0
  186.6810  178.4470  145.6410 N   0  0  0  0  0  0  0  0  0  0  0  0
  193.6810  175.8150  146.4110 C   0  0  0  0  0  2  0  0  0  0  0  0
  194.9640  173.6290  145.3880 C   0  0  1  0  0  3  0  0  0  0  0  0
  188.2270  174.8870  140.6900 C   0  0  0  0  0  3  0  0  0  0  0  0
  188.9970  175.2110  141.8240 C   0  0  0  0  0  0  0  0  0  0  0  0
  187.1730  176.5560  142.7020 C   0  0  0  0  0  3  0  0  0  0  0  0
  191.5530  176.2810  145.1380 C   0  0  0  0  0  2  0  0  0  0  0  0
  189.3710  177.5370  146.3030 C   0  0  0  0  0  1  0  0  0  0  0  0
  184.3190  177.9820  142.9490 C   0  0  0  0  0  1  0  0  0  0  0  0
  189.2810  176.3530  143.9850 C   0  0  0  0  0  0  0  0  0  0  0  0
  186.6840  177.3620  143.7090 C   0  0  0  0  0  0  0  0  0  0  0  0
  196.0230  172.5680  145.1510 C   0  0  0  0  0  2  0  0  0  0  0  0
  195.7610  171.4120  145.9910 N   0  0  0  0  0  0  0  0  0  0  0  0
  194.5490  170.7880  145.4910 C   0  0  0  0  0  1  0  0  0  0  0  0
  196.8390  170.4710  145.7510 C   0  0  0  0  0  1  0  0  0  0  0  0
  1 20  1  0  0  0  0
  1 16  1  1  0  0  0
  2 24  1  0  0  0  0
  3 11  1  0  0  0  0
  4  3  2  0  0  0  0
  4 21  1  0  0  0  0
  5 25  1  0  0  0  0
  6  5  2  0  0  0  0
  6 18  1  0  0  0  0
  7 24  1  6  0  0  0
  7 19  1  0  0  0  0
  8 17  1  0  0  0  0
  9 15  1  0  0  0  0
 10  1  1  0  0  0  0
 10 20  1  0  0  0  0
 11 13  2  0  0  0  0
 12  8  1  0  0  0  0
 12  2  1  0  0  0  0
 13 12  1  0  0  0  0
 14 27  1  0  0  0  0
 15 18  2  0  0  0  0
 16 19  1  0  0  0  0
 17 10  1  0  0  0  0
 17  7  1  0  0  0  0
 21 22  2  0  0  0  0
 22 13  1  0  0  0  0
 22 14  1  0  0  0  0
 23 14  2  0  0  0  0
 23 28  1  0  0  0  0
 26  9  1  0  0  0  0
 27  2  2  0  0  0  0
 27  5  1  0  0  0  0
 28  9  2  0  0  0  0
 28  6  1  0  0  0  0
 29 20  1  0  0  0  0
 29 30  1  0  0  0  0
 31 30  1  0  0  0  0
 32 30  1  0  0  0  0
M  END
>  <MODEL>
7

>  <REMARK>
 VINA RESULT:      -8.1      2.459      5.359
  Name = 
  2 active torsions:
  status: ('A' for Active; 'I' for Inactive)
    1  A    between atoms: C_20  and  C_29
    2  A    between atoms: C_29  and  N_30
                            x       y       z     vdW  Elec       q    Type
                         _______ _______ _______ _____ _____    ______ ____

>  <TORSDO>
F 2

$$$$
=
 OpenBabel11112416393D

 32 38  0  0  1  0  0  0  0  0999 V2000
  186.2660  178.6990  143.1150 C   0  0  1  0  0  3  0  0  0  0  0  0
  189.5550  174.7260  143.6580 C   0  0  0  0  0  0  0  0  0  0  0  0
  192.9220  176.4080  146.7150 C   0  0  0  0  0  3  0  0  0  0  0  0
  193.6910  175.2650  146.5180 C   0  0  0  0  0  3  0  0  0  0  0  0
  189.8410  172.4410  142.6090 C   0  0  0  0  0  0  0  0  0  0  0  0
  190.6680  171.3250  142.4720 C   0  0  0  0  0  0  0  0  0  0  0  0
  187.4180  176.0380  143.4560 C   0  0  1  0  0  3  0  0  0  0  0  0
  189.2230  176.8970  144.8530 C   0  0  0  0  0  2  0  0  0  0  0  0
  192.3680  170.0060  142.7420 C   0  0  0  0  0  0  0  0  0  0  0  0
  187.4450  178.5300  144.0800 C   0  0  2  0  0  3  0  0  0  0  0  0
  191.7030  176.5470  146.0510 C   0  0  0  0  0  3  0  0  0  0  0  0
  190.0310  175.7010  144.5210 N   0  0  0  0  0  0  0  0  0  0  0  0
  191.2260  175.5470  145.1770 C   0  0  0  0  0  0  0  0  0  0  0  0
  191.5480  173.3760  144.1310 C   0  0  0  0  0  0  0  0  0  0  0  0
  191.4910  169.4080  141.9070 N   0  0  0  0  0  0  0  0  0  0  0  0
  186.2660  177.7030  142.0850 O   0  0  0  0  0  0  0  0  0  0  0  0
  188.2580  177.2650  143.7480 C   0  0  2  0  0  3  0  0  0  0  0  0
  190.4460  170.2140  141.7390 N   0  0  0  0  0  0  0  0  0  0  0  0
  186.2140  176.3720  142.5700 C   0  0  0  0  0  2  0  0  0  0  0  0
  186.0260  178.2400  144.5580 C   0  0  1  0  0  3  0  0  0  0  0  0
  193.2380  174.2640  145.6600 C   0  0  0  0  0  3  0  0  0  0  0  0
  192.0100  174.3900  144.9830 C   0  0  0  0  0  0  0  0  0  0  0  0
  192.3350  172.2150  143.9490 C   0  0  0  0  0  3  0  0  0  0  0  0
  188.3250  175.0120  142.8170 C   0  0  0  0  0  2  0  0  0  0  0  0
  188.5250  172.4020  141.8980 C   0  0  0  0  0  1  0  0  0  0  0  0
  193.6600  169.4060  143.1750 C   0  0  0  0  0  1  0  0  0  0  0  0
  190.2910  173.5200  143.4530 C   0  0  0  0  0  0  0  0  0  0  0  0
  191.8600  171.2270  143.1110 C   0  0  0  0  0  0  0  0  0  0  0  0
  185.5280  179.4140  145.3800 C   0  0  0  0  0  2  0  0  0  0  0  0
  184.9880  178.9380  146.6420 N   0  0  0  0  0  0  0  0  0  0  0  0
  184.4500  177.6110  146.4030 C   0  0  0  0  0  1  0  0  0  0  0  0
  186.1160  178.7710  147.5400 C   0  0  0  0  0  1  0  0  0  0  0  0
  1 16  1  6  0  0  0
  1 10  1  0  0  0  0
  1 20  1  0  0  0  0
  2 12  1  0  0  0  0
  4  3  1  0  0  0  0
  5 27  1  0  0  0  0
  6  5  2  0  0  0  0
  6 28  1  0  0  0  0
  7 19  1  6  0  0  0
  7 17  1  0  0  0  0
  9 28  2  0  0  0  0
  9 26  1  0  0  0  0
 10 20  1  0  0  0  0
 11  3  2  0  0  0  0
 12  8  1  0  0  0  0
 12 13  1  0  0  0  0
 13 11  1  0  0  0  0
 14 22  1  0  0  0  0
 15  9  1  0  0  0  0
 16 19  1  0  0  0  0
 17 10  1  0  0  0  0
 17  8  1  0  0  0  0
 18 15  2  0  0  0  0
 18  6  1  0  0  0  0
 20 29  1  0  0  0  0
 21  4  2  0  0  0  0
 22 13  2  0  0  0  0
 22 21  1  0  0  0  0
 23 14  2  0  0  0  0
 24  7  1  0  0  0  0
 24  2  1  0  0  0  0
 25  5  1  0  0  0  0
 27  2  2  0  0  0  0
 27 14  1  0  0  0  0
 28 23  1  0  0  0  0
 29 30  1  0  0  0  0
 30 32  1  0  0  0  0
 31 30  1  0  0  0  0
M  END
>  <MODEL>
8

>  <REMARK>
 VINA RESULT:      -8.1      3.321      8.119
  Name = 
  2 active torsions:
  status: ('A' for Active; 'I' for Inactive)
    1  A    between atoms: C_20  and  C_29
    2  A    between atoms: C_29  and  N_30
                            x       y       z     vdW  Elec       q    Type
                         _______ _______ _______ _____ _____    ______ ____

>  <TORSDO>
F 2

$$$$
=
 OpenBabel11112416393D

 32 38  0  0  1  0  0  0  0  0999 V2000
  185.8820  177.2200  146.0630 C   0  0  1  0  0  3  0  0  0  0  0  0
  190.5520  175.6450  144.4490 C   0  0  0  0  0  0  0  0  0  0  0  0
  189.6880  173.7070  140.0900 C   0  0  0  0  0  3  0  0  0  0  0  0
  191.0000  173.2470  140.0190 C   0  0  0  0  0  3  0  0  0  0  0  0
  192.8740  175.5060  145.4470 C   0  0  0  0  0  0  0  0  0  0  0  0
  194.1720  175.0170  145.2950 C   0  0  0  0  0  0  0  0  0  0  0  0
  188.7360  177.0560  145.4680 C   0  0  1  0  0  3  0  0  0  0  0  0
  188.3230  175.9190  143.3500 C   0  0  0  0  0  2  0  0  0  0  0  0
  195.8780  174.0130  144.4090 C   0  0  0  0  0  0  0  0  0  0  0  0
  186.3150  176.6850  144.6930 C   0  0  2  0  0  3  0  0  0  0  0  0
  189.2610  174.4190  141.2100 C   0  0  0  0  0  3  0  0  0  0  0  0
  189.7020  175.3800  143.3870 N   0  0  0  0  0  0  0  0  0  0  0  0
  190.1370  174.6870  142.2850 C   0  0  0  0  0  0  0  0  0  0  0  0
  192.3570  174.4890  143.2540 C   0  0  0  0  0  0  0  0  0  0  0  0
  196.2590  174.5410  145.5930 N   0  0  0  0  0  0  0  0  0  0  0  0
  186.8850  177.0090  147.0650 O   0  0  0  0  0  0  0  0  0  0  0  0
  187.7610  176.1580  144.7340 C   0  0  2  0  0  3  0  0  0  0  0  0
  195.2150  175.1590  146.1380 N   0  0  0  0  0  0  0  0  0  0  0  0
  188.1350  177.6070  146.7640 C   0  0  0  0  0  2  0  0  0  0  0  0
  186.2020  178.1890  144.9200 C   0  0  1  0  0  3  0  0  0  0  0  0
  191.8820  173.5030  141.0680 C   0  0  0  0  0  3  0  0  0  0  0  0
  191.4660  174.2210  142.2060 C   0  0  0  0  0  0  0  0  0  0  0  0
  193.6900  174.0260  143.1640 C   0  0  0  0  0  3  0  0  0  0  0  0
  189.9880  176.2510  145.7210 C   0  0  0  0  0  2  0  0  0  0  0  0
  192.5950  176.3250  146.6670 C   0  0  0  0  0  1  0  0  0  0  0  0
  196.7770  173.2510  143.5000 C   0  0  0  0  0  1  0  0  0  0  0  0
  191.9170  175.2270  144.4050 C   0  0  0  0  0  0  0  0  0  0  0  0
  194.5530  174.3060  144.2040 C   0  0  0  0  0  0  0  0  0  0  0  0
  184.9060  178.6890  144.3090 C   0  0  0  0  0  2  0  0  0  0  0  0
  184.6830  178.0430  143.0270 N   0  0  0  0  0  0  0  0  0  0  0  0
  183.3420  178.3970  142.5990 C   0  0  0  0  0  1  0  0  0  0  0  0
  185.5950  178.6660  142.0850 C   0  0  0  0  0  1  0  0  0  0  0  0
  1 16  1  1  0  0  0
  2 24  1  0  0  0  0
  3 11  1  0  0  0  0
  4  3  2  0  0  0  0
  4 21  1  0  0  0  0
  5 25  1  0  0  0  0
  6  5  2  0  0  0  0
  6 18  1  0  0  0  0
  7 24  1  1  0  0  0
  7 19  1  0  0  0  0
  8 12  1  0  0  0  0
  8 17  1  0  0  0  0
  9 15  1  0  0  0  0
 10 17  1  0  0  0  0
 10 20  1  0  0  0  0
 10  1  1  0  0  0  0
 11 13  2  0  0  0  0
 12  2  1  0  0  0  0
 13 12  1  0  0  0  0
 14 27  1  0  0  0  0
 15 18  2  0  0  0  0
 17  7  1  0  0  0  0
 19 16  1  0  0  0  0
 20  1  1  0  0  0  0
 21 22  2  0  0  0  0
 22 13  1  0  0  0  0
 22 14  1  0  0  0  0
 23 14  2  0  0  0  0
 23 28  1  0  0  0  0
 26  9  1  0  0  0  0
 27  2  2  0  0  0  0
 27  5  1  0  0  0  0
 28  9  2  0  0  0  0
 28  6  1  0  0  0  0
 29 20  1  0  0  0  0
 30 29  1  0  0  0  0
 31 30  1  0  0  0  0
 32 30  1  0  0  0  0
M  END
>  <MODEL>
9

>  <REMARK>
 VINA RESULT:      -8.0      2.234      9.153
  Name = 
  2 active torsions:
  status: ('A' for Active; 'I' for Inactive)
    1  A    between atoms: C_20  and  C_29
    2  A    between atoms: C_29  and  N_30
                            x       y       z     vdW  Elec       q    Type
                         _______ _______ _______ _____ _____    ______ ____

>  <TORSDO>
F 2

$$$$
