=
 OpenBabel11112418083D

 34 42  0  0  1  0  0  0  0  0999 V2000
  189.1420  175.1580  143.2370 C   0  0  2  0  0  3  0  0  0  0  0  0
  191.1050  173.6640  142.8070 C   0  0  0  0  0  2  0  0  0  0  0  0
  184.9390  178.9490  146.8680 C   0  0  2  0  0  3  0  0  0  0  0  0
  187.4180  176.8600  143.6820 C   0  0  1  0  0  3  0  0  0  0  0  0
  186.9280  177.4540  146.1930 C   0  0  2  0  0  3  0  0  0  0  0  0
  186.6650  178.3330  148.4060 O   0  0  0  0  0  1  0  0  0  0  0  0
  184.0720  177.7700  146.4510 C   0  0  0  0  0  2  0  0  0  0  0  0
  185.3160  178.2950  144.3150 C   0  0  1  0  0  3  0  0  0  0  0  0
  190.6110  174.2410  145.1230 C   0  0  2  0  0  3  0  0  0  0  0  0
  193.1710  175.5670  146.5460 C   0  0  0  0  0  2  0  0  0  0  0  0
  188.4290  177.2350  146.3370 C   0  0  0  0  0  2  0  0  0  0  0  0
  186.5400  178.9940  144.3300 O   0  0  0  0  0  0  0  0  0  0  0  0
  190.3140  175.6420  145.6980 C   0  0  1  0  0  3  0  0  0  0  0  0
  192.2210  173.1360  143.6810 C   0  0  0  0  0  2  0  0  0  0  0  0
  186.5930  177.6390  144.7130 C   0  0  2  0  0  0  0  0  0  0  0  0
  184.4040  178.8510  145.4330 C   0  0  2  0  0  3  0  0  0  0  0  0
  193.0870  175.0520  145.1090 C   0  0  2  0  0  3  0  0  0  0  0  0
  188.1590  175.6600  144.2970 C   0  0  2  0  0  3  0  0  0  0  0  0
  186.4270  178.6080  147.0580 C   0  0  2  0  0  3  0  0  0  0  0  0
  188.8040  175.8970  145.6910 C   0  0  2  0  0  3  0  0  0  0  0  0
  187.5280  176.0580  141.5670 C   0  0  0  0  0  2  0  0  0  0  0  0
  191.9950  176.4760  146.8770 C   0  0  0  0  0  2  0  0  0  0  0  0
  186.6350  176.4120  142.6010 O   0  0  0  0  0  0  0  0  0  0  0  0
  190.8200  175.7280  146.9980 O   0  0  0  0  0  0  0  0  0  0  0  0
  192.1020  173.8640  145.0140 C   0  0  1  0  0  3  0  0  0  0  0  0
  188.3670  174.8310  141.9610 C   0  0  0  0  0  2  0  0  0  0  0  0
  189.9640  173.9750  143.7520 C   0  0  1  0  0  3  0  0  0  0  0  0
  194.4880  174.6410  144.6730 C   0  0  0  0  0  2  0  0  0  0  0  0
  195.4720  174.8060  145.8270 C   0  0  0  0  0  2  0  0  0  0  0  0
  197.9410  172.3440  144.5730 C   0  0  0  0  0  2  0  0  0  0  0  0
  195.7720  172.2980  145.6610 C   0  0  0  0  0  2  0  0  0  0  0  0
  196.4440  173.6330  145.9410 C   0  0  0  0  0  3  0  0  0  0  0  0
  196.6300  171.5910  144.6260 C   0  0  0  0  0  2  0  0  0  0  0  0
  197.6070  173.7610  144.9750 C   0  0  0  0  0  2  0  0  0  0  0  0
  1 26  1  6  0  0  0
  1 27  1  0  0  0  0
  1 18  1  0  0  0  0
  2 14  1  0  0  0  0
  2 27  1  0  0  0  0
  3  7  1  1  0  0  0
  3 19  1  0  0  0  0
  4 23  1  6  0  0  0
  4 18  1  0  0  0  0
  4 15  1  0  0  0  0
  5 11  1  6  0  0  0
  5 19  1  0  0  0  0
  8 12  1  6  0  0  0
  8 15  1  0  0  0  0
  8 16  1  0  0  0  0
  9 13  1  0  0  0  0
 10 22  1  0  0  0  0
 12 15  1  0  0  0  0
 13 24  1  0  0  0  0
 14 25  1  0  0  0  0
 15  5  1  0  0  0  0
 16  7  1  0  0  0  0
 16  3  1  0  0  0  0
 17 10  1  0  0  0  0
 18 20  1  0  0  0  0
 19  6  1  0  0  0  0
 20 13  1  0  0  0  0
 20 11  1  0  0  0  0
 21 26  1  0  0  0  0
 21 23  1  0  0  0  0
 22 24  1  0  0  0  0
 25 17  1  0  0  0  0
 25  9  1  0  0  0  0
 27  9  1  0  0  0  0
 28 17  1  0  0  0  0
 28 29  1  0  0  0  0
 29 32  1  0  0  0  0
 30 33  1  0  0  0  0
 30 34  1  0  0  0  0
 31 32  1  0  0  0  0
 33 31  1  0  0  0  0
 34 32  1  0  0  0  0
M  END
>  <MODEL>
1

>  <REMARK>
 VINA RESULT:      -9.3      0.000      0.000
  Name = 
  3 active torsions:
  status: ('A' for Active; 'I' for Inactive)
    1  A    between atoms: C_17  and  C_28
    2  A    between atoms: C_28  and  C_29
    3  A    between atoms: C_29  and  C_32
                            x       y       z     vdW  Elec       q    Type
                         _______ _______ _______ _____ _____    ______ ____

>  <TORSDO>
F 3

$$$$
=
 OpenBabel11112418083D

 34 42  0  0  1  0  0  0  0  0999 V2000
  192.2150  175.8270  145.7750 C   0  0  2  0  0  3  0  0  0  0  0  0
  190.2050  177.3200  145.8520 C   0  0  0  0  0  2  0  0  0  0  0  0
  195.6570  170.1450  144.7350 C   0  0  2  0  0  3  0  0  0  0  0  0
  194.1800  174.3930  145.3890 C   0  0  1  0  0  3  0  0  0  0  0  0
  193.7380  171.8650  144.8340 C   0  0  2  0  0  3  0  0  0  0  0  0
  193.4470  169.6520  143.9650 O   0  0  0  0  0  1  0  0  0  0  0  0
  195.7290  170.3240  146.2450 C   0  0  0  0  0  2  0  0  0  0  0  0
  196.1580  172.6700  145.4110 C   0  0  1  0  0  3  0  0  0  0  0  0
  189.8440  174.9640  145.3420 C   0  0  2  0  0  3  0  0  0  0  0  0
  188.2720  174.6210  142.5590 C   0  0  0  0  0  2  0  0  0  0  0  0
  192.5360  172.4370  144.0930 C   0  0  0  0  0  2  0  0  0  0  0  0
  195.7420  173.0830  144.1280 O   0  0  0  0  0  0  0  0  0  0  0  0
  190.6140  174.0950  144.3270 C   0  0  1  0  0  3  0  0  0  0  0  0
  188.7540  177.1290  145.4740 C   0  0  0  0  0  2  0  0  0  0  0  0
  194.7350  172.9910  145.1100 C   0  0  2  0  0  0  0  0  0  0  0  0
  196.6000  171.1900  145.3460 C   0  0  2  0  0  3  0  0  0  0  0  0
  188.6660  175.9360  143.2320 C   0  0  2  0  0  3  0  0  0  0  0  0
  192.6990  174.3760  145.8040 C   0  0  2  0  0  3  0  0  0  0  0  0
  194.3710  170.6900  144.0900 C   0  0  2  0  0  3  0  0  0  0  0  0
  191.7830  173.3920  145.0240 C   0  0  2  0  0  3  0  0  0  0  0  0
  194.5770  176.4400  146.2750 C   0  0  0  0  0  2  0  0  0  0  0  0
  189.4510  173.6600  142.4910 C   0  0  0  0  0  2  0  0  0  0  0  0
  194.9250  175.0750  146.3720 O   0  0  0  0  0  0  0  0  0  0  0  0
  189.7440  173.1570  143.7620 O   0  0  0  0  0  0  0  0  0  0  0  0
  188.6680  175.7810  144.7700 C   0  0  1  0  0  3  0  0  0  0  0  0
  193.1130  176.6650  146.6860 C   0  0  0  0  0  2  0  0  0  0  0  0
  190.7340  175.9310  146.1440 C   0  0  1  0  0  3  0  0  0  0  0  0
  187.6760  177.0060  142.7890 C   0  0  0  0  0  2  0  0  0  0  0  0
  186.2440  176.5180  142.9840 C   0  0  0  0  0  2  0  0  0  0  0  0
  185.3990  179.8960  144.2500 C   0  0  0  0  0  2  0  0  0  0  0  0
  185.1880  177.6020  145.0120 C   0  0  0  0  0  2  0  0  0  0  0  0
  185.3150  177.6160  143.4970 C   0  0  0  0  0  3  0  0  0  0  0  0
  185.4610  179.0200  145.4830 C   0  0  0  0  0  2  0  0  0  0  0  0
  185.7930  179.0000  143.1000 C   0  0  0  0  0  2  0  0  0  0  0  0
  1 18  1  0  0  0  0
  1 27  1  0  0  0  0
  1 26  1  1  0  0  0
  2 27  1  0  0  0  0
  3 16  1  0  0  0  0
  3  7  1  1  0  0  0
  4 18  1  0  0  0  0
  4 23  1  1  0  0  0
  5 11  1  6  0  0  0
  5 15  1  0  0  0  0
  6 19  1  0  0  0  0
  8 12  1  6  0  0  0
  9 27  1  0  0  0  0
 10 17  1  0  0  0  0
 11 20  1  0  0  0  0
 12 15  1  0  0  0  0
 13 20  1  0  0  0  0
 13  9  1  0  0  0  0
 14  2  1  0  0  0  0
 15  4  1  0  0  0  0
 15  8  1  0  0  0  0
 16  8  1  0  0  0  0
 16  7  1  0  0  0  0
 17 25  1  0  0  0  0
 19  3  1  0  0  0  0
 19  5  1  0  0  0  0
 20 18  1  0  0  0  0
 21 23  1  0  0  0  0
 21 26  1  0  0  0  0
 22 10  1  0  0  0  0
 22 24  1  0  0  0  0
 24 13  1  0  0  0  0
 25  9  1  0  0  0  0
 25 14  1  0  0  0  0
 28 29  1  0  0  0  0
 28 17  1  0  0  0  0
 29 32  1  0  0  0  0
 30 33  1  0  0  0  0
 31 33  1  0  0  0  0
 32 31  1  0  0  0  0
 34 32  1  0  0  0  0
 34 30  1  0  0  0  0
M  END
>  <MODEL>
2

>  <REMARK>
 VINA RESULT:      -9.2      2.348      9.197
  Name = 
  3 active torsions:
  status: ('A' for Active; 'I' for Inactive)
    1  A    between atoms: C_17  and  C_28
    2  A    between atoms: C_28  and  C_29
    3  A    between atoms: C_29  and  C_32
                            x       y       z     vdW  Elec       q    Type
                         _______ _______ _______ _____ _____    ______ ____

>  <TORSDO>
F 3

$$$$
=
 OpenBabel11112418083D

 34 42  0  0  1  0  0  0  0  0999 V2000
  189.3160  175.1290  143.4700 C   0  0  2  0  0  3  0  0  0  0  0  0
  191.3340  173.6900  143.1140 C   0  0  0  0  0  2  0  0  0  0  0  0
  184.9390  178.8950  146.9180 C   0  0  2  0  0  3  0  0  0  0  0  0
  187.5290  176.7850  143.8350 C   0  0  1  0  0  3  0  0  0  0  0  0
  186.9870  177.4470  146.3180 C   0  0  2  0  0  3  0  0  0  0  0  0
  186.6660  178.3910  148.4960 O   0  0  0  0  0  1  0  0  0  0  0  0
  184.1180  177.6720  146.5320 C   0  0  0  0  0  2  0  0  0  0  0  0
  185.3710  178.1660  144.3940 C   0  0  1  0  0  3  0  0  0  0  0  0
  190.7910  174.3290  145.4030 C   0  0  2  0  0  3  0  0  0  0  0  0
  193.2860  175.7910  146.8080 C   0  0  0  0  0  2  0  0  0  0  0  0
  188.4930  177.2850  146.4870 C   0  0  0  0  0  2  0  0  0  0  0  0
  186.5700  178.9080  144.3980 O   0  0  0  0  0  0  0  0  0  0  0  0
  190.4390  175.7370  145.9250 C   0  0  1  0  0  3  0  0  0  0  0  0
  192.4570  173.2320  144.0180 C   0  0  0  0  0  2  0  0  0  0  0  0
  186.6640  177.5690  144.8290 C   0  0  2  0  0  0  0  0  0  0  0  0
  184.4260  178.7280  145.4810 C   0  0  2  0  0  3  0  0  0  0  0  0
  193.2380  175.2240  145.3880 C   0  0  2  0  0  3  0  0  0  0  0  0
  188.3030  175.6320  144.5000 C   0  0  2  0  0  3  0  0  0  0  0  0
  186.4360  178.6120  147.1370 C   0  0  2  0  0  3  0  0  0  0  0  0
  188.9220  175.9400  145.8920 C   0  0  2  0  0  3  0  0  0  0  0  0
  187.6930  175.9140  141.7500 C   0  0  0  0  0  2  0  0  0  0  0  0
  192.0760  176.6690  147.0940 C   0  0  0  0  0  2  0  0  0  0  0  0
  186.7750  176.2720  142.7610 O   0  0  0  0  0  0  0  0  0  0  0  0
  190.9260  175.8860  147.2270 O   0  0  0  0  0  0  0  0  0  0  0  0
  192.2960  174.0000  145.3240 C   0  0  1  0  0  3  0  0  0  0  0  0
  188.5680  174.7310  142.1960 C   0  0  0  0  0  2  0  0  0  0  0  0
  190.1710  173.9930  144.0350 C   0  0  1  0  0  3  0  0  0  0  0  0
  194.6570  174.8470  144.9840 C   0  0  0  0  0  2  0  0  0  0  0  0
  195.3320  176.0120  144.2670 C   0  0  0  0  0  2  0  0  0  0  0  0
  194.0900  175.0780  140.9030 C   0  0  0  0  0  2  0  0  0  0  0  0
  195.8520  174.3680  142.4140 C   0  0  0  0  0  2  0  0  0  0  0  0
  195.4390  175.7900  142.7600 C   0  0  0  0  0  3  0  0  0  0  0  0
  194.8490  173.8630  141.3920 C   0  0  0  0  0  2  0  0  0  0  0  0
  194.1270  176.0610  142.0490 C   0  0  0  0  0  2  0  0  0  0  0  0
  1 26  1  6  0  0  0
  1 27  1  0  0  0  0
  1 18  1  0  0  0  0
  2 14  1  0  0  0  0
  2 27  1  0  0  0  0
  3  7  1  1  0  0  0
  3 19  1  0  0  0  0
  4 23  1  6  0  0  0
  4 18  1  0  0  0  0
  4 15  1  0  0  0  0
  5 11  1  6  0  0  0
  5 19  1  0  0  0  0
  8 12  1  6  0  0  0
  8 15  1  0  0  0  0
  8 16  1  0  0  0  0
  9 13  1  0  0  0  0
 10 22  1  0  0  0  0
 12 15  1  0  0  0  0
 13 24  1  0  0  0  0
 14 25  1  0  0  0  0
 15  5  1  0  0  0  0
 16  7  1  0  0  0  0
 16  3  1  0  0  0  0
 17 10  1  0  0  0  0
 18 20  1  0  0  0  0
 19  6  1  0  0  0  0
 20 13  1  0  0  0  0
 20 11  1  0  0  0  0
 21 26  1  0  0  0  0
 21 23  1  0  0  0  0
 22 24  1  0  0  0  0
 25 17  1  0  0  0  0
 25  9  1  0  0  0  0
 27  9  1  0  0  0  0
 28 17  1  0  0  0  0
 29 28  1  0  0  0  0
 30 33  1  0  0  0  0
 30 34  1  0  0  0  0
 31 32  1  0  0  0  0
 32 29  1  0  0  0  0
 33 31  1  0  0  0  0
 34 32  1  0  0  0  0
M  END
>  <MODEL>
3

>  <REMARK>
 VINA RESULT:      -9.1      1.254      1.856
  Name = 
  3 active torsions:
  status: ('A' for Active; 'I' for Inactive)
    1  A    between atoms: C_17  and  C_28
    2  A    between atoms: C_28  and  C_29
    3  A    between atoms: C_29  and  C_32
                            x       y       z     vdW  Elec       q    Type
                         _______ _______ _______ _____ _____    ______ ____

>  <TORSDO>
F 3

$$$$
=
 OpenBabel11112418083D

 34 42  0  0  1  0  0  0  0  0999 V2000
  189.7430  174.7890  142.2160 C   0  0  2  0  0  3  0  0  0  0  0  0
  187.3910  175.4980  142.7070 C   0  0  0  0  0  2  0  0  0  0  0  0
  196.4570  174.9930  142.5470 C   0  0  2  0  0  3  0  0  0  0  0  0
  192.0590  173.9720  142.0210 C   0  0  1  0  0  3  0  0  0  0  0  0
  193.9650  175.5140  142.9610 C   0  0  2  0  0  3  0  0  0  0  0  0
  195.7320  176.6560  144.1070 O   0  0  0  0  0  1  0  0  0  0  0  0
  196.1670  175.3740  141.1020 C   0  0  0  0  0  2  0  0  0  0  0  0
  194.5700  173.4520  141.4740 C   0  0  1  0  0  3  0  0  0  0  0  0
  189.1950  176.8990  143.5580 C   0  0  2  0  0  3  0  0  0  0  0  0
  188.9410  177.2860  146.7400 C   0  0  0  0  0  2  0  0  0  0  0  0
  192.9170  175.8380  144.0190 C   0  0  0  0  0  2  0  0  0  0  0  0
  194.1540  173.0810  142.7690 O   0  0  0  0  0  0  0  0  0  0  0  0
  190.4590  176.4440  144.3160 C   0  0  1  0  0  3  0  0  0  0  0  0
  186.7910  176.5610  143.5980 C   0  0  0  0  0  2  0  0  0  0  0  0
  193.5540  174.2360  142.2290 C   0  0  2  0  0  0  0  0  0  0  0  0
  196.0430  173.9190  141.5320 C   0  0  2  0  0  3  0  0  0  0  0  0
  187.9950  176.4970  145.8350 C   0  0  2  0  0  3  0  0  0  0  0  0
  191.2040  175.2430  142.1690 C   0  0  2  0  0  3  0  0  0  0  0  0
  195.3720  175.4280  143.5490 C   0  0  2  0  0  3  0  0  0  0  0  0
  191.6010  176.2020  143.3250 C   0  0  2  0  0  3  0  0  0  0  0  0
  190.4850  172.8500  140.8400 C   0  0  0  0  0  2  0  0  0  0  0  0
  190.3940  176.9100  146.4820 C   0  0  0  0  0  2  0  0  0  0  0  0
  191.7910  173.3810  140.7700 O   0  0  0  0  0  0  0  0  0  0  0  0
  190.8180  177.4190  145.2510 O   0  0  0  0  0  0  0  0  0  0  0  0
  187.9390  177.1260  144.4240 C   0  0  1  0  0  3  0  0  0  0  0  0
  189.4400  173.9710  140.9600 C   0  0  0  0  0  2  0  0  0  0  0  0
  188.7940  175.9760  142.3940 C   0  0  1  0  0  3  0  0  0  0  0  0
  186.6180  176.4890  146.4880 C   0  0  0  0  0  2  0  0  0  0  0  0
  186.4690  177.6810  147.4270 C   0  0  0  0  0  2  0  0  0  0  0  0
  183.7470  178.9150  145.2370 C   0  0  0  0  0  2  0  0  0  0  0  0
  185.9770  179.6220  145.8790 C   0  0  0  0  0  2  0  0  0  0  0  0
  185.4250  178.6850  146.9410 C   0  0  0  0  0  3  0  0  0  0  0  0
  185.0010  179.5830  144.7160 C   0  0  0  0  0  2  0  0  0  0  0  0
  184.2100  178.0000  146.3450 C   0  0  0  0  0  2  0  0  0  0  0  0
  1 26  1  6  0  0  0
  1 27  1  0  0  0  0
  2 14  1  0  0  0  0
  3  7  1  6  0  0  0
  3 19  1  0  0  0  0
  4 23  1  6  0  0  0
  4 18  1  0  0  0  0
  4 15  1  0  0  0  0
  5 19  1  0  0  0  0
  5 11  1  1  0  0  0
  7 16  1  0  0  0  0
  8 16  1  0  0  0  0
  8 15  1  0  0  0  0
  8 12  1  1  0  0  0
  9 13  1  0  0  0  0
  9 25  1  0  0  0  0
 13 24  1  0  0  0  0
 14 25  1  0  0  0  0
 15 12  1  0  0  0  0
 15  5  1  0  0  0  0
 16  3  1  0  0  0  0
 17 28  1  0  0  0  0
 17 10  1  0  0  0  0
 18  1  1  0  0  0  0
 18 20  1  0  0  0  0
 19  6  1  0  0  0  0
 20 11  1  0  0  0  0
 20 13  1  0  0  0  0
 21 26  1  0  0  0  0
 22 10  1  0  0  0  0
 23 21  1  0  0  0  0
 24 22  1  0  0  0  0
 25 17  1  0  0  0  0
 27  2  1  0  0  0  0
 27  9  1  0  0  0  0
 28 29  1  0  0  0  0
 30 34  1  0  0  0  0
 31 32  1  0  0  0  0
 32 29  1  0  0  0  0
 33 30  1  0  0  0  0
 33 31  1  0  0  0  0
 34 32  1  0  0  0  0
M  END
>  <MODEL>
4

>  <REMARK>
 VINA RESULT:      -9.0      2.528      8.557
  Name = 
  3 active torsions:
  status: ('A' for Active; 'I' for Inactive)
    1  A    between atoms: C_17  and  C_28
    2  A    between atoms: C_28  and  C_29
    3  A    between atoms: C_29  and  C_32
                            x       y       z     vdW  Elec       q    Type
                         _______ _______ _______ _____ _____    ______ ____

>  <TORSDO>
F 3

$$$$
=
 OpenBabel11112418083D

 34 42  0  0  1  0  0  0  0  0999 V2000
  192.6640  176.1600  145.4620 C   0  0  2  0  0  3  0  0  0  0  0  0
  190.5210  176.2670  146.7550 C   0  0  0  0  0  2  0  0  0  0  0  0
  196.8240  174.2360  140.5420 C   0  0  2  0  0  3  0  0  0  0  0  0
  194.6310  176.2400  143.9820 C   0  0  1  0  0  3  0  0  0  0  0  0
  194.7090  174.5340  141.9870 C   0  0  2  0  0  3  0  0  0  0  0  0
  194.7110  173.2900  139.9400 O   0  0  0  0  0  1  0  0  0  0  0  0
  197.4280  173.5900  141.7810 C   0  0  0  0  0  2  0  0  0  0  0  0
  196.8460  175.9010  142.6190 C   0  0  1  0  0  3  0  0  0  0  0  0
  190.6410  174.6970  144.8950 C   0  0  2  0  0  3  0  0  0  0  0  0
  188.2640  175.2230  142.7950 C   0  0  0  0  0  2  0  0  0  0  0  0
  193.2070  174.7900  141.9620 C   0  0  0  0  0  2  0  0  0  0  0  0
  195.8670  176.6910  141.9790 O   0  0  0  0  0  0  0  0  0  0  0  0
  191.1580  174.9710  143.4680 C   0  0  1  0  0  3  0  0  0  0  0  0
  189.1480  175.6720  146.5420 C   0  0  0  0  0  2  0  0  0  0  0  0
  195.3890  175.6430  142.7900 C   0  0  2  0  0  0  0  0  0  0  0  0
  197.6100  175.0830  141.5520 C   0  0  2  0  0  3  0  0  0  0  0  0
  188.5190  175.9800  144.0990 C   0  0  2  0  0  3  0  0  0  0  0  0
  193.4930  175.3310  144.4790 C   0  0  2  0  0  3  0  0  0  0  0  0
  195.2930  174.3830  140.5840 C   0  0  2  0  0  3  0  0  0  0  0  0
  192.6490  174.6310  143.3790 C   0  0  2  0  0  3  0  0  0  0  0  0
  194.7720  177.4050  145.9190 C   0  0  0  0  0  2  0  0  0  0  0  0
  189.5350  175.1120  141.9640 C   0  0  0  0  0  2  0  0  0  0  0  0
  195.4850  176.5400  145.0610 O   0  0  0  0  0  0  0  0  0  0  0  0
  190.4250  174.2090  142.5530 O   0  0  0  0  0  0  0  0  0  0  0  0
  189.1620  175.0490  145.1520 C   0  0  1  0  0  3  0  0  0  0  0  0
  193.5830  176.6790  146.5690 C   0  0  0  0  0  2  0  0  0  0  0  0
  191.4760  175.3630  146.0040 C   0  0  1  0  0  3  0  0  0  0  0  0
  187.1850  176.5280  144.5920 C   0  0  0  0  0  2  0  0  0  0  0  0
  187.0830  178.0210  144.2970 C   0  0  0  0  0  2  0  0  0  0  0  0
  184.6150  178.3560  147.0410 C   0  0  0  0  0  2  0  0  0  0  0  0
  184.9330  179.2550  144.8090 C   0  0  0  0  0  2  0  0  0  0  0  0
  186.2700  178.7730  145.3490 C   0  0  0  0  0  3  0  0  0  0  0  0
  183.8750  178.7880  145.7930 C   0  0  0  0  0  2  0  0  0  0  0  0
  185.9790  177.9140  146.5650 C   0  0  0  0  0  2  0  0  0  0  0  0
  1 27  1  0  0  0  0
  1 26  1  1  0  0  0
  3 19  1  0  0  0  0
  3 16  1  0  0  0  0
  3  7  1  1  0  0  0
  4 18  1  0  0  0  0
  4 23  1  1  0  0  0
  5 11  1  6  0  0  0
  5 15  1  0  0  0  0
  6 19  1  0  0  0  0
  8 12  1  6  0  0  0
  8 15  1  0  0  0  0
  9 25  1  0  0  0  0
  9 27  1  0  0  0  0
 10 17  1  0  0  0  0
 11 20  1  0  0  0  0
 12 15  1  0  0  0  0
 13  9  1  0  0  0  0
 14  2  1  0  0  0  0
 15  4  1  0  0  0  0
 16  7  1  0  0  0  0
 16  8  1  0  0  0  0
 17 28  1  0  0  0  0
 17 25  1  0  0  0  0
 18  1  1  0  0  0  0
 19  5  1  0  0  0  0
 20 13  1  0  0  0  0
 20 18  1  0  0  0  0
 21 26  1  0  0  0  0
 22 24  1  0  0  0  0
 22 10  1  0  0  0  0
 23 21  1  0  0  0  0
 24 13  1  0  0  0  0
 25 14  1  0  0  0  0
 27  2  1  0  0  0  0
 29 28  1  0  0  0  0
 29 32  1  0  0  0  0
 31 32  1  0  0  0  0
 31 33  1  0  0  0  0
 32 34  1  0  0  0  0
 33 30  1  0  0  0  0
 34 30  1  0  0  0  0
M  END
>  <MODEL>
5

>  <REMARK>
 VINA RESULT:      -9.0      2.922      9.283
  Name = 
  3 active torsions:
  status: ('A' for Active; 'I' for Inactive)
    1  A    between atoms: C_17  and  C_28
    2  A    between atoms: C_28  and  C_29
    3  A    between atoms: C_29  and  C_32
                            x       y       z     vdW  Elec       q    Type
                         _______ _______ _______ _____ _____    ______ ____

>  <TORSDO>
F 3

$$$$
=
 OpenBabel11112418083D

 34 42  0  0  1  0  0  0  0  0999 V2000
  189.1790  174.5640  141.9360 C   0  0  2  0  0  3  0  0  0  0  0  0
  188.1460  176.7690  142.5220 C   0  0  0  0  0  2  0  0  0  0  0  0
  193.1890  169.2200  142.6990 C   0  0  2  0  0  3  0  0  0  0  0  0
  190.0130  172.2730  141.5820 C   0  0  1  0  0  3  0  0  0  0  0  0
  191.9620  171.4450  143.1360 C   0  0  2  0  0  3  0  0  0  0  0  0
  193.4660  170.4670  144.7220 O   0  0  0  0  0  1  0  0  0  0  0  0
  193.7780  169.9260  141.4850 C   0  0  0  0  0  2  0  0  0  0  0  0
  191.2970  170.0550  141.0230 C   0  0  1  0  0  3  0  0  0  0  0  0
  189.9600  175.9600  143.9340 C   0  0  2  0  0  3  0  0  0  0  0  0
  189.0400  175.8150  147.0120 C   0  0  0  0  0  2  0  0  0  0  0  0
  191.2290  172.2820  144.1770 C   0  0  0  0  0  2  0  0  0  0  0  0
  190.3480  169.9490  142.0620 O   0  0  0  0  0  0  0  0  0  0  0  0
  190.1220  174.5500  144.5380 C   0  0  1  0  0  3  0  0  0  0  0  0
  188.2770  177.6950  143.7090 C   0  0  0  0  0  2  0  0  0  0  0  0
  191.0220  171.1820  141.9580 C   0  0  2  0  0  0  0  0  0  0  0  0
  192.4920  169.1260  141.3340 C   0  0  2  0  0  3  0  0  0  0  0  0
  188.2000  176.2900  145.8260 C   0  0  2  0  0  3  0  0  0  0  0  0
  190.3920  173.6540  142.1440 C   0  0  2  0  0  3  0  0  0  0  0  0
  192.5360  170.1600  143.7270 C   0  0  2  0  0  3  0  0  0  0  0  0
  190.9490  173.6710  143.5950 C   0  0  2  0  0  3  0  0  0  0  0  0
  188.6480  173.1140  139.9810 C   0  0  0  0  0  2  0  0  0  0  0  0
  189.7080  174.4790  146.7150 C   0  0  0  0  0  2  0  0  0  0  0  0
  189.8340  172.3770  140.1880 O   0  0  0  0  0  0  0  0  0  0  0  0
  190.7410  174.6470  145.7880 O   0  0  0  0  0  0  0  0  0  0  0  0
  189.0970  176.9440  144.7500 C   0  0  1  0  0  3  0  0  0  0  0  0
  188.8150  174.5680  140.4510 C   0  0  0  0  0  2  0  0  0  0  0  0
  189.4310  175.9680  142.4890 C   0  0  1  0  0  3  0  0  0  0  0  0
  187.1630  177.2770  146.3500 C   0  0  0  0  0  2  0  0  0  0  0  0
  185.7540  176.7630  146.0740 C   0  0  0  0  0  2  0  0  0  0  0  0
  184.6960  178.9800  143.3000 C   0  0  0  0  0  2  0  0  0  0  0  0
  185.3720  179.2230  145.6180 C   0  0  0  0  0  2  0  0  0  0  0  0
  184.8730  177.8050  145.3890 C   0  0  0  0  0  3  0  0  0  0  0  0
  185.4570  179.8780  144.2500 C   0  0  0  0  0  2  0  0  0  0  0  0
  184.7990  177.5930  143.8890 C   0  0  0  0  0  2  0  0  0  0  0  0
  1 26  1  6  0  0  0
  1 18  1  0  0  0  0
  1 27  1  0  0  0  0
  2 14  1  0  0  0  0
  3  7  1  6  0  0  0
  3 19  1  0  0  0  0
  4 23  1  6  0  0  0
  4 15  1  0  0  0  0
  4 18  1  0  0  0  0
  5 19  1  0  0  0  0
  5 11  1  1  0  0  0
  8 16  1  0  0  0  0
  8 15  1  0  0  0  0
  8 12  1  1  0  0  0
  9 13  1  0  0  0  0
  9 25  1  0  0  0  0
 13 24  1  0  0  0  0
 14 25  1  0  0  0  0
 15 12  1  0  0  0  0
 15  5  1  0  0  0  0
 16  7  1  0  0  0  0
 16  3  1  0  0  0  0
 17 28  1  0  0  0  0
 17 10  1  0  0  0  0
 18 20  1  0  0  0  0
 19  6  1  0  0  0  0
 20 11  1  0  0  0  0
 20 13  1  0  0  0  0
 21 23  1  0  0  0  0
 21 26  1  0  0  0  0
 22 10  1  0  0  0  0
 24 22  1  0  0  0  0
 25 17  1  0  0  0  0
 27  2  1  0  0  0  0
 27  9  1  0  0  0  0
 29 28  1  0  0  0  0
 30 34  1  0  0  0  0
 30 33  1  0  0  0  0
 32 31  1  0  0  0  0
 32 29  1  0  0  0  0
 33 31  1  0  0  0  0
 34 32  1  0  0  0  0
M  END
>  <MODEL>
6

>  <REMARK>
 VINA RESULT:      -8.8      3.236      8.552
  Name = 
  3 active torsions:
  status: ('A' for Active; 'I' for Inactive)
    1  A    between atoms: C_17  and  C_28
    2  A    between atoms: C_28  and  C_29
    3  A    between atoms: C_29  and  C_32
                            x       y       z     vdW  Elec       q    Type
                         _______ _______ _______ _____ _____    ______ ____

>  <TORSDO>
F 3

$$$$
=
 OpenBabel11112418083D

 34 42  0  0  1  0  0  0  0  0999 V2000
  191.4520  174.7920  143.0400 C   0  0  2  0  0  3  0  0  0  0  0  0
  189.6130  176.4910  143.0830 C   0  0  0  0  0  2  0  0  0  0  0  0
  197.1670  171.8190  144.9710 C   0  0  2  0  0  3  0  0  0  0  0  0
  193.1280  172.9990  143.2520 C   0  0  1  0  0  3  0  0  0  0  0  0
  195.1490  173.4230  144.8740 C   0  0  2  0  0  3  0  0  0  0  0  0
  196.8180  173.5480  146.5880 O   0  0  0  0  0  1  0  0  0  0  0  0
  197.5070  172.3630  143.5900 C   0  0  0  0  0  2  0  0  0  0  0  0
  195.2020  171.3940  143.2260 C   0  0  1  0  0  3  0  0  0  0  0  0
  191.5110  176.8430  144.5710 C   0  0  2  0  0  3  0  0  0  0  0  0
  190.5370  177.1430  147.6200 C   0  0  0  0  0  2  0  0  0  0  0  0
  194.0890  174.1440  145.6960 C   0  0  0  0  0  2  0  0  0  0  0  0
  194.3090  171.1960  144.2990 O   0  0  0  0  0  0  0  0  0  0  0  0
  192.1700  175.8120  145.5110 C   0  0  1  0  0  3  0  0  0  0  0  0
  189.3030  177.6650  143.9840 C   0  0  0  0  0  2  0  0  0  0  0  0
  194.4570  172.5230  143.8490 C   0  0  2  0  0  0  0  0  0  0  0  0
  196.6430  171.1160  143.7110 C   0  0  2  0  0  3  0  0  0  0  0  0
  189.6500  176.9330  146.3920 C   0  0  2  0  0  3  0  0  0  0  0  0
  192.9080  174.5130  143.4200 C   0  0  2  0  0  3  0  0  0  0  0  0
  196.1400  172.6600  145.7510 C   0  0  2  0  0  3  0  0  0  0  0  0
  193.3270  175.1150  144.7890 C   0  0  2  0  0  3  0  0  0  0  0  0
  191.6420  172.8030  141.5530 C   0  0  0  0  0  2  0  0  0  0  0  0
  191.6870  176.1450  147.6490 C   0  0  0  0  0  2  0  0  0  0  0  0
  193.0070  172.6650  141.8880 O   0  0  0  0  0  0  0  0  0  0  0  0
  192.6270  176.4580  146.6630 O   0  0  0  0  0  0  0  0  0  0  0  0
  190.2870  177.5860  145.1440 C   0  0  1  0  0  3  0  0  0  0  0  0
  191.2040  174.2740  141.6220 C   0  0  0  0  0  2  0  0  0  0  0  0
  191.1070  176.2740  143.1990 C   0  0  1  0  0  3  0  0  0  0  0  0
  188.2830  177.5370  146.6910 C   0  0  0  0  0  2  0  0  0  0  0  0
  187.1860  176.5020  146.4660 C   0  0  0  0  0  2  0  0  0  0  0  0
  185.2430  177.9900  143.6840 C   0  0  0  0  0  2  0  0  0  0  0  0
  185.8860  178.6090  145.9400 C   0  0  0  0  0  2  0  0  0  0  0  0
  185.9460  177.0960  145.8010 C   0  0  0  0  0  3  0  0  0  0  0  0
  185.6550  179.1640  144.5450 C   0  0  0  0  0  2  0  0  0  0  0  0
  185.8880  176.7800  144.3180 C   0  0  0  0  0  2  0  0  0  0  0  0
  1 26  1  6  0  0  0
  1 27  1  0  0  0  0
  1 18  1  0  0  0  0
  2 27  1  0  0  0  0
  2 14  1  0  0  0  0
  3  7  1  6  0  0  0
  3 19  1  0  0  0  0
  4 23  1  6  0  0  0
  4 18  1  0  0  0  0
  4 15  1  0  0  0  0
  5 11  1  1  0  0  0
  5 19  1  0  0  0  0
  7 16  1  0  0  0  0
  8 16  1  0  0  0  0
  8 15  1  0  0  0  0
  8 12  1  1  0  0  0
  9 25  1  0  0  0  0
  9 13  1  0  0  0  0
 10 22  1  0  0  0  0
 13 24  1  0  0  0  0
 14 25  1  0  0  0  0
 15 12  1  0  0  0  0
 15  5  1  0  0  0  0
 16  3  1  0  0  0  0
 17 28  1  0  0  0  0
 17 10  1  0  0  0  0
 18 20  1  0  0  0  0
 19  6  1  0  0  0  0
 20 13  1  0  0  0  0
 20 11  1  0  0  0  0
 21 26  1  0  0  0  0
 21 23  1  0  0  0  0
 24 22  1  0  0  0  0
 25 17  1  0  0  0  0
 27  9  1  0  0  0  0
 29 28  1  0  0  0  0
 30 34  1  0  0  0  0
 30 33  1  0  0  0  0
 32 31  1  0  0  0  0
 32 29  1  0  0  0  0
 33 31  1  0  0  0  0
 34 32  1  0  0  0  0
M  END
>  <MODEL>
7

>  <REMARK>
 VINA RESULT:      -8.7      2.513      8.709
  Name = 
  3 active torsions:
  status: ('A' for Active; 'I' for Inactive)
    1  A    between atoms: C_17  and  C_28
    2  A    between atoms: C_28  and  C_29
    3  A    between atoms: C_29  and  C_32
                            x       y       z     vdW  Elec       q    Type
                         _______ _______ _______ _____ _____    ______ ____

>  <TORSDO>
F 3

$$$$
=
 OpenBabel11112418083D

 34 42  0  0  1  0  0  0  0  0999 V2000
  191.2240  176.2400  145.2830 C   0  0  2  0  0  3  0  0  0  0  0  0
  193.3400  175.4090  144.2320 C   0  0  0  0  0  2  0  0  0  0  0  0
  184.7990  178.2110  145.5180 C   0  0  2  0  0  3  0  0  0  0  0  0
  189.0380  176.7660  146.2900 C   0  0  1  0  0  3  0  0  0  0  0  0
  187.0570  177.3110  144.6550 C   0  0  2  0  0  3  0  0  0  0  0  0
  185.1100  177.4580  143.2680 O   0  0  0  0  0  1  0  0  0  0  0  0
  185.5660  179.4890  145.8230 C   0  0  0  0  0  2  0  0  0  0  0  0
  186.8040  177.7820  147.2150 C   0  0  1  0  0  3  0  0  0  0  0  0
  191.4730  175.9300  142.7540 C   0  0  2  0  0  3  0  0  0  0  0  0
  190.7180  173.3970  140.9230 C   0  0  0  0  0  2  0  0  0  0  0  0
  187.7300  176.2500  143.7940 C   0  0  0  0  0  2  0  0  0  0  0  0
  186.7510  176.4060  146.9100 O   0  0  0  0  0  0  0  0  0  0  0  0
  190.0010  175.4980  142.9140 C   0  0  1  0  0  3  0  0  0  0  0  0
  193.7020  174.9710  142.8310 C   0  0  0  0  0  2  0  0  0  0  0  0
  187.5800  177.1950  146.0870 C   0  0  2  0  0  0  0  0  0  0  0  0
  185.4330  178.4220  146.8990 C   0  0  2  0  0  3  0  0  0  0  0  0
  191.8410  173.4770  141.9580 C   0  0  2  0  0  3  0  0  0  0  0  0
  189.8960  176.9570  145.0270 C   0  0  2  0  0  3  0  0  0  0  0  0
  185.5330  177.2370  144.5790 C   0  0  2  0  0  3  0  0  0  0  0  0
  189.2230  176.5710  143.6800 C   0  0  2  0  0  3  0  0  0  0  0  0
  190.8160  176.7190  147.6930 C   0  0  0  0  0  2  0  0  0  0  0  0
  189.4010  173.9010  141.4970 C   0  0  0  0  0  2  0  0  0  0  0  0
  189.6480  177.4410  147.3660 O   0  0  0  0  0  0  0  0  0  0  0  0
  189.4370  175.2900  141.6510 O   0  0  0  0  0  0  0  0  0  0  0  0
  192.3970  174.9170  142.0480 C   0  0  1  0  0  3  0  0  0  0  0  0
  191.8500  176.8040  146.5590 C   0  0  0  0  0  2  0  0  0  0  0  0
  192.1550  176.3380  144.0730 C   0  0  1  0  0  3  0  0  0  0  0  0
  192.9290  172.4930  141.5480 C   0  0  0  0  0  2  0  0  0  0  0  0
  192.6870  171.1330  142.1940 C   0  0  0  0  0  2  0  0  0  0  0  0
  194.3510  172.0070  145.3880 C   0  0  0  0  0  2  0  0  0  0  0  0
  195.0200  171.3370  143.1540 C   0  0  0  0  0  2  0  0  0  0  0  0
  193.5890  170.8880  143.4020 C   0  0  0  0  0  3  0  0  0  0  0  0
  195.4050  172.2240  144.3250 C   0  0  0  0  0  2  0  0  0  0  0  0
  193.0980  171.6190  144.6380 C   0  0  0  0  0  2  0  0  0  0  0  0
  1 26  1  1  0  0  0
  3  7  1  6  0  0  0
  3 16  1  0  0  0  0
  4 23  1  1  0  0  0
  5 11  1  6  0  0  0
  5 15  1  0  0  0  0
  6 19  1  0  0  0  0
  7 16  1  0  0  0  0
  8 12  1  1  0  0  0
  9 13  1  0  0  0  0
  9 27  1  0  0  0  0
 10 22  1  0  0  0  0
 10 17  1  0  0  0  0
 13 20  1  0  0  0  0
 14  2  1  0  0  0  0
 15  4  1  0  0  0  0
 15 12  1  0  0  0  0
 15  8  1  0  0  0  0
 16  8  1  0  0  0  0
 17 25  1  0  0  0  0
 18  1  1  0  0  0  0
 18  4  1  0  0  0  0
 19  5  1  0  0  0  0
 19  3  1  0  0  0  0
 20 11  1  0  0  0  0
 20 18  1  0  0  0  0
 22 24  1  0  0  0  0
 23 21  1  0  0  0  0
 24 13  1  0  0  0  0
 25  9  1  0  0  0  0
 25 14  1  0  0  0  0
 26 21  1  0  0  0  0
 27  2  1  0  0  0  0
 27  1  1  0  0  0  0
 28 17  1  0  0  0  0
 28 29  1  0  0  0  0
 29 32  1  0  0  0  0
 31 32  1  0  0  0  0
 31 33  1  0  0  0  0
 32 34  1  0  0  0  0
 33 30  1  0  0  0  0
 34 30  1  0  0  0  0
M  END
>  <MODEL>
8

>  <REMARK>
 VINA RESULT:      -8.5      1.690      3.987
  Name = 
  3 active torsions:
  status: ('A' for Active; 'I' for Inactive)
    1  A    between atoms: C_17  and  C_28
    2  A    between atoms: C_28  and  C_29
    3  A    between atoms: C_29  and  C_32
                            x       y       z     vdW  Elec       q    Type
                         _______ _______ _______ _____ _____    ______ ____

>  <TORSDO>
F 3

$$$$
=
 OpenBabel11112418083D

 34 42  0  0  1  0  0  0  0  0999 V2000
  189.7620  174.1290  142.4400 C   0  0  2  0  0  3  0  0  0  0  0  0
  191.5180  172.4830  143.1320 C   0  0  0  0  0  2  0  0  0  0  0  0
  185.2600  179.0620  143.2270 C   0  0  2  0  0  3  0  0  0  0  0  0
  188.2570  175.9650  141.7830 C   0  0  1  0  0  3  0  0  0  0  0  0
  187.1160  177.3380  143.7090 C   0  0  2  0  0  3  0  0  0  0  0  0
  186.3210  178.8770  145.3630 O   0  0  0  0  0  1  0  0  0  0  0  0
  184.3980  177.8540  142.8910 C   0  0  0  0  0  2  0  0  0  0  0  0
  186.2990  177.6240  141.2420 C   0  0  1  0  0  3  0  0  0  0  0  0
  190.4300  173.7800  144.8860 C   0  0  2  0  0  3  0  0  0  0  0  0
  192.5990  175.3610  146.6570 C   0  0  0  0  0  2  0  0  0  0  0  0
  188.4510  177.1040  144.4050 C   0  0  0  0  0  2  0  0  0  0  0  0
  187.5500  178.2340  141.4720 O   0  0  0  0  0  0  0  0  0  0  0  0
  190.1830  175.3020  144.9110 C   0  0  1  0  0  3  0  0  0  0  0  0
  192.2220  172.2030  144.4410 C   0  0  0  0  0  2  0  0  0  0  0  0
  187.2810  177.0660  142.2130 C   0  0  2  0  0  0  0  0  0  0  0  0
  185.1820  178.5450  141.7840 C   0  0  2  0  0  3  0  0  0  0  0  0
  192.8830  174.4260  145.4800 C   0  0  2  0  0  3  0  0  0  0  0  0
  188.5870  174.9840  142.9210 C   0  0  2  0  0  3  0  0  0  0  0  0
  186.5520  178.7280  143.9950 C   0  0  2  0  0  3  0  0  0  0  0  0
  188.8030  175.6150  144.3250 C   0  0  2  0  0  3  0  0  0  0  0  0
  188.8890  174.5360  140.1430 C   0  0  0  0  0  2  0  0  0  0  0  0
  191.5270  176.3830  146.3040 C   0  0  0  0  0  2  0  0  0  0  0  0
  187.7850  175.2380  140.6720 O   0  0  0  0  0  0  0  0  0  0  0  0
  190.2740  175.7670  146.2260 O   0  0  0  0  0  0  0  0  0  0  0  0
  191.8100  173.3170  145.3960 C   0  0  1  0  0  3  0  0  0  0  0  0
  189.3750  173.4560  141.1220 C   0  0  0  0  0  2  0  0  0  0  0  0
  190.2020  173.1280  143.5100 C   0  0  1  0  0  3  0  0  0  0  0  0
  194.2730  173.8330  145.6760 C   0  0  0  0  0  2  0  0  0  0  0  0
  195.2880  174.9380  145.9460 C   0  0  0  0  0  2  0  0  0  0  0  0
  195.9510  176.0990  142.4900 C   0  0  0  0  0  2  0  0  0  0  0  0
  196.2610  174.0660  143.7790 C   0  0  0  0  0  2  0  0  0  0  0  0
  196.1560  175.2490  144.7280 C   0  0  0  0  0  3  0  0  0  0  0  0
  195.9140  174.5890  142.3960 C   0  0  0  0  0  2  0  0  0  0  0  0
  195.6180  176.4190  143.9280 C   0  0  0  0  0  2  0  0  0  0  0  0
  1 26  1  6  0  0  0
  1 18  1  0  0  0  0
  1 27  1  0  0  0  0
  2 27  1  0  0  0  0
  2 14  1  0  0  0  0
  3  7  1  1  0  0  0
  3 19  1  0  0  0  0
  4 23  1  6  0  0  0
  4 15  1  0  0  0  0
  4 18  1  0  0  0  0
  5 19  1  0  0  0  0
  5 11  1  1  0  0  0
  8 12  1  6  0  0  0
  8 16  1  0  0  0  0
  8 15  1  0  0  0  0
  9 13  1  0  0  0  0
  9 25  1  0  0  0  0
 12 15  1  0  0  0  0
 13 24  1  0  0  0  0
 14 25  1  0  0  0  0
 15  5  1  0  0  0  0
 16  7  1  0  0  0  0
 16  3  1  0  0  0  0
 17 28  1  0  0  0  0
 17 10  1  0  0  0  0
 18 20  1  0  0  0  0
 19  6  1  0  0  0  0
 20 11  1  0  0  0  0
 20 13  1  0  0  0  0
 21 23  1  0  0  0  0
 21 26  1  0  0  0  0
 22 10  1  0  0  0  0
 24 22  1  0  0  0  0
 25 17  1  0  0  0  0
 27  9  1  0  0  0  0
 28 29  1  0  0  0  0
 30 34  1  0  0  0  0
 31 32  1  0  0  0  0
 32 29  1  0  0  0  0
 33 30  1  0  0  0  0
 33 31  1  0  0  0  0
 34 32  1  0  0  0  0
M  END
>  <MODEL>
9

>  <REMARK>
 VINA RESULT:      -8.5      1.766      2.392
  Name = 
  3 active torsions:
  status: ('A' for Active; 'I' for Inactive)
    1  A    between atoms: C_17  and  C_28
    2  A    between atoms: C_28  and  C_29
    3  A    between atoms: C_29  and  C_32
                            x       y       z     vdW  Elec       q    Type
                         _______ _______ _______ _____ _____    ______ ____

>  <TORSDO>
F 3

$$$$
