=
 OpenBabel11112417133D

 37 43  0  0  1  0  0  0  0  0999 V2000
  191.0460  173.4880  141.5450 C   0  0  0  0  0  2  0  0  0  0  0  0
  189.5460  175.2060  146.4530 C   0  0  0  0  0  0  0  0  0  0  0  0
  193.2110  174.2430  144.3000 C   0  0  1  0  0  3  0  0  0  0  0  0
  190.7510  172.9560  140.1630 C   0  0  0  0  0  0  0  0  0  0  0  0
  192.6890  170.3320  144.1620 C   0  0  0  0  0  2  0  0  0  0  0  0
  192.1050  175.1660  146.4000 C   0  0  1  0  0  3  0  0  0  0  0  0
  192.6880  172.8960  143.7760 C   0  0  1  0  0  3  0  0  0  0  0  0
  192.1560  170.9940  140.4980 C   0  0  0  0  0  0  0  0  0  0  0  0
  192.0040  174.9660  144.8810 C   0  0  2  0  0  3  0  0  0  0  0  0
  193.4140  171.6670  144.3750 C   0  0  2  0  0  3  0  0  0  0  0  0
  193.3660  175.9490  146.7680 C   0  0  0  0  0  2  0  0  0  0  0  0
  191.3360  171.8810  139.7190 N   0  0  0  0  0  0  0  0  0  0  0  0
  190.7830  174.1360  144.4880 C   0  0  2  0  0  3  0  0  0  0  0  0
  188.7630  176.2060  145.6240 C   0  0  0  0  0  1  0  0  0  0  0  0
  195.6830  173.6370  144.6530 C   0  0  0  0  0  2  0  0  0  0  0  0
  194.6200  175.4500  146.0320 C   0  0  0  0  0  2  0  0  0  0  0  0
  189.7810  173.9270  145.6350 C   0  0  0  0  0  2  0  0  0  0  0  0
  191.8230  170.7070  141.8710 N   0  0  0  0  0  0  0  0  0  0  0  0
  192.6750  169.8600  142.7050 C   0  0  0  0  0  2  0  0  0  0  0  0
  194.3850  174.1300  145.3000 C   0  0  1  0  0  3  0  0  0  0  0  0
  191.2270  172.8420  143.9740 N   0  0  1  0  0  0  0  0  0  0  0  0
  190.8540  175.8640  146.9270 C   0  0  0  0  0  2  0  0  0  0  0  0
  194.8850  171.5750  143.9100 C   0  0  1  0  0  3  0  0  0  0  0  0
  188.7200  174.8480  147.6710 C   0  0  0  0  0  1  0  0  0  0  0  0
  190.5180  171.1090  142.3770 C   0  0  0  0  0  2  0  0  0  0  0  0
  193.3310  170.1490  139.7280 S   0  0  0  0  0  0  0  0  0  0  0  0
  190.5250  172.6000  142.7000 C   0  0  2  0  0  3  0  0  0  0  0  0
  195.4670  172.8110  143.5270 O   0  0  0  0  0  0  0  0  0  0  0  0
  197.0940  170.4950  144.3830 C   0  0  0  0  0  3  0  0  0  0  0  0
  195.7710  170.7220  144.7750 C   0  0  0  0  0  0  0  0  0  0  0  0
  195.3010  170.1750  145.9800 C   0  0  0  0  0  3  0  0  0  0  0  0
  195.6910  168.8700  147.9350 F   0  0  0  0  0  0  0  0  0  0  0  0
  197.4680  169.1700  146.3750 C   0  0  0  0  0  3  0  0  0  0  0  0
  196.1490  169.3980  146.7750 C   0  0  0  0  0  0  0  0  0  0  0  0
  197.9410  169.7190  145.1800 C   0  0  0  0  0  3  0  0  0  0  0  0
  188.5350  174.1100  139.7820 C   0  0  0  0  0  1  0  0  0  0  0  0
  189.8900  173.7290  139.2080 C   0  0  0  0  0  2  0  0  0  0  0  0
  1 27  1  0  0  0  0
  2 22  1  0  0  0  0
  2 24  1  0  0  0  0
  3  9  1  0  0  0  0
  3 20  1  0  0  0  0
  4  1  1  0  0  0  0
  5 10  1  0  0  0  0
  6 11  1  0  0  0  0
  6 22  1  0  0  0  0
  7 21  1  0  0  0  0
  7  3  1  0  0  0  0
  7 10  1  0  0  0  0
  8 18  1  0  0  0  0
  9  6  1  0  0  0  0
 12  4  2  0  0  0  0
 12  8  1  0  0  0  0
 13  9  1  0  0  0  0
 13 17  1  0  0  0  0
 14  2  1  0  0  0  0
 15 20  1  0  0  0  0
 16 11  1  0  0  0  0
 17  2  1  0  0  0  0
 18 25  1  0  0  0  0
 18 19  1  0  0  0  0
 19  5  1  0  0  0  0
 20 16  1  0  0  0  0
 21 13  1  0  0  0  0
 23 10  1  0  0  0  0
 23 30  1  0  0  0  0
 25 27  1  0  0  0  0
 26  8  2  0  0  0  0
 27 21  1  0  0  0  0
 28 23  1  0  0  0  0
 28 15  1  0  0  0  0
 29 30  2  0  0  0  0
 29 35  1  0  0  0  0
 30 31  1  0  0  0  0
 31 34  2  0  0  0  0
 33 34  1  0  0  0  0
 34 32  1  0  0  0  0
 35 33  2  0  0  0  0
 37 36  1  0  0  0  0
 37  4  1  0  0  0  0
M  END
>  <MODEL>
1

>  <REMARK>
 VINA RESULT:      -8.2      0.000      0.000
  Name = 
  2 active torsions:
  status: ('A' for Active; 'I' for Inactive)
    1  A    between atoms: C_4  and  C_37
    2  A    between atoms: C_23  and  C_30
                            x       y       z     vdW  Elec       q    Type
                         _______ _______ _______ _____ _____    ______ ____

>  <TORSDO>
F 2

$$$$
=
 OpenBabel11112417133D

 37 43  0  0  1  0  0  0  0  0999 V2000
  191.3610  172.5240  143.3370 C   0  0  0  0  0  2  0  0  0  0  0  0
  195.1060  176.1400  144.8150 C   0  0  0  0  0  0  0  0  0  0  0  0
  190.9770  175.1260  145.7740 C   0  0  1  0  0  3  0  0  0  0  0  0
  190.8500  171.4050  142.4620 C   0  0  0  0  0  0  0  0  0  0  0  0
  189.3700  176.3480  142.3810 C   0  0  0  0  0  2  0  0  0  0  0  0
  193.0420  176.5280  146.2790 C   0  0  1  0  0  3  0  0  0  0  0  0
  190.5310  175.0540  144.3040 C   0  0  1  0  0  3  0  0  0  0  0  0
  188.8640  172.6630  141.8250 C   0  0  0  0  0  0  0  0  0  0  0  0
  192.4980  175.1930  145.7480 C   0  0  2  0  0  3  0  0  0  0  0  0
  189.5430  176.1730  143.8950 C   0  0  2  0  0  3  0  0  0  0  0  0
  192.5660  176.7850  147.7090 C   0  0  0  0  0  2  0  0  0  0  0  0
  189.6910  171.4890  141.8740 N   0  0  0  0  0  0  0  0  0  0  0  0
  192.9100  174.9380  144.2990 C   0  0  2  0  0  3  0  0  0  0  0  0
  195.9450  174.8850  144.9640 C   0  0  0  0  0  1  0  0  0  0  0  0
  188.8360  176.0780  146.8270 C   0  0  0  0  0  2  0  0  0  0  0  0
  191.0680  176.5010  147.9040 C   0  0  0  0  0  2  0  0  0  0  0  0
  193.9930  175.8990  143.7850 C   0  0  0  0  0  2  0  0  0  0  0  0
  189.4550  173.9700  141.6890 N   0  0  0  0  0  0  0  0  0  0  0  0
  188.6410  175.1850  141.7010 C   0  0  0  0  0  2  0  0  0  0  0  0
  190.3350  176.2770  146.5830 C   0  0  1  0  0  3  0  0  0  0  0  0
  191.7280  175.0150  143.4440 N   0  0  1  0  0  0  0  0  0  0  0  0
  194.5660  176.5490  146.1980 C   0  0  0  0  0  2  0  0  0  0  0  0
  188.1720  176.0230  144.5920 C   0  0  1  0  0  3  0  0  0  0  0  0
  195.9990  177.2510  144.3020 C   0  0  0  0  0  1  0  0  0  0  0  0
  190.8650  174.0720  141.3400 C   0  0  0  0  0  2  0  0  0  0  0  0
  187.2410  172.4610  141.6960 S   0  0  0  0  0  0  0  0  0  0  0  0
  191.7230  173.8210  142.5770 C   0  0  2  0  0  3  0  0  0  0  0  0
  188.2030  175.3150  145.8200 O   0  0  0  0  0  0  0  0  0  0  0  0
  187.0420  177.9300  143.4270 C   0  0  0  0  0  3  0  0  0  0  0  0
  187.3380  177.2740  144.6260 C   0  0  0  0  0  0  0  0  0  0  0  0
  186.8300  177.7760  145.8340 C   0  0  0  0  0  3  0  0  0  0  0  0
  185.5570  179.4140  147.0070 F   0  0  0  0  0  0  0  0  0  0  0  0
  185.7570  179.5860  144.6380 C   0  0  0  0  0  3  0  0  0  0  0  0
  186.0430  178.9320  145.8390 C   0  0  0  0  0  0  0  0  0  0  0  0
  186.2550  179.0860  143.4320 C   0  0  0  0  0  3  0  0  0  0  0  0
  190.8160  169.0160  141.6380 C   0  0  0  0  0  1  0  0  0  0  0  0
  191.5930  170.1050  142.3610 C   0  0  0  0  0  2  0  0  0  0  0  0
  2 14  1  0  0  0  0
  2 22  1  0  0  0  0
  3 20  1  0  0  0  0
  4  1  1  0  0  0  0
  5 10  1  0  0  0  0
  6 11  1  0  0  0  0
  7  3  1  0  0  0  0
  8 12  1  0  0  0  0
  9  3  1  0  0  0  0
  9  6  1  0  0  0  0
 10  7  1  0  0  0  0
 10 23  1  0  0  0  0
 11 16  1  0  0  0  0
 12  4  2  0  0  0  0
 13  9  1  0  0  0  0
 17 13  1  0  0  0  0
 17  2  1  0  0  0  0
 18 19  1  0  0  0  0
 18  8  1  0  0  0  0
 19  5  1  0  0  0  0
 20 15  1  0  0  0  0
 20 16  1  0  0  0  0
 21 13  1  0  0  0  0
 21  7  1  0  0  0  0
 22  6  1  0  0  0  0
 23 30  1  0  0  0  0
 23 28  1  0  0  0  0
 24  2  1  0  0  0  0
 25 18  1  0  0  0  0
 25 27  1  0  0  0  0
 26  8  2  0  0  0  0
 27  1  1  0  0  0  0
 27 21  1  0  0  0  0
 28 15  1  0  0  0  0
 29 35  2  0  0  0  0
 29 30  1  0  0  0  0
 30 31  2  0  0  0  0
 31 34  1  0  0  0  0
 33 34  2  0  0  0  0
 34 32  1  0  0  0  0
 35 33  1  0  0  0  0
 36 37  1  0  0  0  0
 37  4  1  0  0  0  0
M  END
>  <MODEL>
2

>  <REMARK>
 VINA RESULT:      -8.0      3.930      7.438
  Name = 
  2 active torsions:
  status: ('A' for Active; 'I' for Inactive)
    1  A    between atoms: C_4  and  C_37
    2  A    between atoms: C_23  and  C_30
                            x       y       z     vdW  Elec       q    Type
                         _______ _______ _______ _____ _____    ______ ____

>  <TORSDO>
F 2

$$$$
=
 OpenBabel11112417133D

 37 43  0  0  1  0  0  0  0  0999 V2000
  194.4510  174.3810  142.9380 C   0  0  0  0  0  2  0  0  0  0  0  0
  191.3730  170.2110  141.3810 C   0  0  0  0  0  0  0  0  0  0  0  0
  190.9920  174.5080  142.0030 C   0  0  1  0  0  3  0  0  0  0  0  0
  195.7260  174.9740  143.4880 C   0  0  0  0  0  0  0  0  0  0  0  0
  191.2170  174.4560  145.9450 C   0  0  0  0  0  2  0  0  0  0  0  0
  189.9500  172.3300  141.1920 C   0  0  1  0  0  3  0  0  0  0  0  0
  191.6560  174.4840  143.3900 C   0  0  1  0  0  3  0  0  0  0  0  0
  194.5530  176.0750  145.3180 C   0  0  0  0  0  0  0  0  0  0  0  0
  191.2430  173.1350  141.3940 C   0  0  2  0  0  3  0  0  0  0  0  0
  190.6910  174.8250  144.5510 C   0  0  2  0  0  3  0  0  0  0  0  0
  188.9650  173.0880  140.3000 C   0  0  0  0  0  2  0  0  0  0  0  0
  195.7030  175.7870  144.5050 N   0  0  0  0  0  0  0  0  0  0  0  0
  192.2230  172.4280  142.3280 C   0  0  2  0  0  3  0  0  0  0  0  0
  192.5480  169.9730  140.4520 C   0  0  0  0  0  1  0  0  0  0  0  0
  189.2610  176.3660  142.3880 C   0  0  0  0  0  2  0  0  0  0  0  0
  188.8260  174.5710  140.6830 C   0  0  0  0  0  2  0  0  0  0  0  0
  191.8470  170.9690  142.6300 C   0  0  0  0  0  2  0  0  0  0  0  0
  193.6060  175.0380  145.6400 N   0  0  0  0  0  0  0  0  0  0  0  0
  192.3950  175.3170  146.4100 C   0  0  0  0  0  2  0  0  0  0  0  0
  189.4960  174.8990  142.0160 C   0  0  1  0  0  3  0  0  0  0  0  0
  192.3270  173.1830  143.5740 N   0  0  1  0  0  0  0  0  0  0  0  0
  190.2670  170.9550  140.6110 C   0  0  0  0  0  2  0  0  0  0  0  0
  190.2260  176.2980  144.5090 C   0  0  1  0  0  3  0  0  0  0  0  0
  190.8310  168.8650  141.8160 C   0  0  0  0  0  1  0  0  0  0  0  0
  193.9570  173.6520  145.3580 C   0  0  0  0  0  2  0  0  0  0  0  0
  194.4720  177.5400  146.0510 S   0  0  0  0  0  0  0  0  0  0  0  0
  193.7600  173.3610  143.8740 C   0  0  2  0  0  3  0  0  0  0  0  0
  190.2670  176.8990  143.2250 O   0  0  0  0  0  0  0  0  0  0  0  0
  188.6400  175.7800  146.3760 C   0  0  0  0  0  3  0  0  0  0  0  0
  188.9700  176.5880  145.2830 C   0  0  0  0  0  0  0  0  0  0  0  0
  188.1420  177.6700  144.9460 C   0  0  0  0  0  3  0  0  0  0  0  0
  186.1900  178.9740  145.3600 F   0  0  0  0  0  0  0  0  0  0  0  0
  186.6600  177.1150  146.7770 C   0  0  0  0  0  3  0  0  0  0  0  0
  186.9880  177.9300  145.6910 C   0  0  0  0  0  0  0  0  0  0  0  0
  187.4850  176.0410  147.1210 C   0  0  0  0  0  3  0  0  0  0  0  0
  197.9180  176.0010  142.7630 C   0  0  0  0  0  1  0  0  0  0  0  0
  197.0370  174.7620  142.7910 C   0  0  0  0  0  2  0  0  0  0  0  0
  1  4  1  0  0  0  0
  1 27  1  0  0  0  0
  2 24  1  0  0  0  0
  2 17  1  0  0  0  0
  3 20  1  0  0  0  0
  3  7  1  0  0  0  0
  4 12  2  0  0  0  0
  5 19  1  0  0  0  0
  6  9  1  0  0  0  0
  7 21  1  0  0  0  0
  7 10  1  0  0  0  0
  8 18  1  0  0  0  0
  8 26  2  0  0  0  0
  9  3  1  0  0  0  0
  9 13  1  0  0  0  0
 10  5  1  0  0  0  0
 11 16  1  0  0  0  0
 11  6  1  0  0  0  0
 12  8  1  0  0  0  0
 13 17  1  0  0  0  0
 13 21  1  0  0  0  0
 14  2  1  0  0  0  0
 15 28  1  0  0  0  0
 16 20  1  0  0  0  0
 18 19  1  0  0  0  0
 20 15  1  0  0  0  0
 21 27  1  0  0  0  0
 22  6  1  0  0  0  0
 22  2  1  0  0  0  0
 23 10  1  0  0  0  0
 23 30  1  0  0  0  0
 25 18  1  0  0  0  0
 27 25  1  0  0  0  0
 28 23  1  0  0  0  0
 29 35  1  0  0  0  0
 30 29  2  0  0  0  0
 31 30  1  0  0  0  0
 31 34  2  0  0  0  0
 32 34  1  0  0  0  0
 33 35  2  0  0  0  0
 34 33  1  0  0  0  0
 36 37  1  0  0  0  0
 37  4  1  0  0  0  0
M  END
>  <MODEL>
3

>  <REMARK>
 VINA RESULT:      -7.8      3.845      7.807
  Name = 
  2 active torsions:
  status: ('A' for Active; 'I' for Inactive)
    1  A    between atoms: C_4  and  C_37
    2  A    between atoms: C_23  and  C_30
                            x       y       z     vdW  Elec       q    Type
                         _______ _______ _______ _____ _____    ______ ____

>  <TORSDO>
F 2

$$$$
=
 OpenBabel11112417133D

 37 43  0  0  1  0  0  0  0  0999 V2000
  189.6110  174.1790  140.7700 C   0  0  0  0  0  2  0  0  0  0  0  0
  188.9450  176.8540  145.4270 C   0  0  0  0  0  0  0  0  0  0  0  0
  192.1820  175.1090  143.0890 C   0  0  1  0  0  3  0  0  0  0  0  0
  189.0870  173.4670  139.5470 C   0  0  0  0  0  0  0  0  0  0  0  0
  191.2530  171.3220  143.7110 C   0  0  0  0  0  2  0  0  0  0  0  0
  191.4580  176.4930  145.1000 C   0  0  1  0  0  3  0  0  0  0  0  0
  191.4610  173.7670  142.8750 C   0  0  1  0  0  3  0  0  0  0  0  0
  190.3170  171.4300  140.0690 C   0  0  0  0  0  0  0  0  0  0  0  0
  191.1400  176.0600  143.6610 C   0  0  2  0  0  3  0  0  0  0  0  0
  192.1320  172.5750  143.6000 C   0  0  2  0  0  3  0  0  0  0  0  0
  192.8290  177.1670  145.1800 C   0  0  0  0  0  2  0  0  0  0  0  0
  189.4970  172.2700  139.2390 N   0  0  0  0  0  0  0  0  0  0  0  0
  189.8000  175.3310  143.5610 C   0  0  2  0  0  3  0  0  0  0  0  0
  188.1660  177.7910  144.5240 C   0  0  0  0  0  1  0  0  0  0  0  0
  194.6040  174.2710  143.2680 C   0  0  0  0  0  2  0  0  0  0  0  0
  193.9190  176.4030  144.4110 C   0  0  0  0  0  2  0  0  0  0  0  0
  188.9400  175.4390  144.8300 C   0  0  0  0  0  2  0  0  0  0  0  0
  190.1390  171.4160  141.4990 N   0  0  0  0  0  0  0  0  0  0  0  0
  191.0020  170.6210  142.3720 C   0  0  0  0  0  2  0  0  0  0  0  0
  193.4590  175.0190  143.9570 C   0  0  1  0  0  3  0  0  0  0  0  0
  190.0410  173.9260  143.2400 N   0  0  1  0  0  0  0  0  0  0  0  0
  190.3630  177.4160  145.6290 C   0  0  0  0  0  2  0  0  0  0  0  0
  193.5120  172.2280  142.9990 C   0  0  1  0  0  3  0  0  0  0  0  0
  188.2520  176.8060  146.7730 C   0  0  0  0  0  1  0  0  0  0  0  0
  188.9580  172.0530  142.0670 C   0  0  0  0  0  2  0  0  0  0  0  0
  191.2910  170.3330  139.3360 S   0  0  0  0  0  0  0  0  0  0  0  0
  189.1580  173.5640  142.1150 C   0  0  2  0  0  3  0  0  0  0  0  0
  194.1610  173.3030  142.3390 O   0  0  0  0  0  0  0  0  0  0  0  0
  194.2220  171.4880  145.2830 C   0  0  0  0  0  3  0  0  0  0  0  0
  194.4120  171.4280  143.8990 C   0  0  0  0  0  0  0  0  0  0  0  0
  195.4180  170.6030  143.3730 C   0  0  0  0  0  3  0  0  0  0  0  0
  197.2040  169.0620  143.7170 F   0  0  0  0  0  0  0  0  0  0  0  0
  196.0410  169.9240  145.6110 C   0  0  0  0  0  3  0  0  0  0  0  0
  196.2320  169.8550  144.2290 C   0  0  0  0  0  0  0  0  0  0  0  0
  195.0360  170.7390  146.1390 C   0  0  0  0  0  3  0  0  0  0  0  0
  188.7130  174.1480  137.1420 C   0  0  0  0  0  1  0  0  0  0  0  0
  188.1910  174.1710  138.5700 C   0  0  0  0  0  2  0  0  0  0  0  0
  1 27  1  0  0  0  0
  2 22  1  0  0  0  0
  2 24  1  0  0  0  0
  3  9  1  0  0  0  0
  3 20  1  0  0  0  0
  4  1  1  0  0  0  0
  6 11  1  0  0  0  0
  6 22  1  0  0  0  0
  7  3  1  0  0  0  0
  7 21  1  0  0  0  0
  7 10  1  0  0  0  0
  8 18  1  0  0  0  0
  9  6  1  0  0  0  0
 10  5  1  0  0  0  0
 12  4  2  0  0  0  0
 12  8  1  0  0  0  0
 13  9  1  0  0  0  0
 13 17  1  0  0  0  0
 14  2  1  0  0  0  0
 15 20  1  0  0  0  0
 16 11  1  0  0  0  0
 17  2  1  0  0  0  0
 18 25  1  0  0  0  0
 18 19  1  0  0  0  0
 19  5  1  0  0  0  0
 20 16  1  0  0  0  0
 21 13  1  0  0  0  0
 23 10  1  0  0  0  0
 23 30  1  0  0  0  0
 25 27  1  0  0  0  0
 26  8  2  0  0  0  0
 27 21  1  0  0  0  0
 28 23  1  0  0  0  0
 28 15  1  0  0  0  0
 29 35  1  0  0  0  0
 30 29  2  0  0  0  0
 31 30  1  0  0  0  0
 31 34  2  0  0  0  0
 32 34  1  0  0  0  0
 33 35  2  0  0  0  0
 34 33  1  0  0  0  0
 36 37  1  0  0  0  0
 37  4  1  0  0  0  0
M  END
>  <MODEL>
4

>  <REMARK>
 VINA RESULT:      -7.5      1.748      2.157
  Name = 
  2 active torsions:
  status: ('A' for Active; 'I' for Inactive)
    1  A    between atoms: C_4  and  C_37
    2  A    between atoms: C_23  and  C_30
                            x       y       z     vdW  Elec       q    Type
                         _______ _______ _______ _____ _____    ______ ____

>  <TORSDO>
F 2

$$$$
=
 OpenBabel11112417133D

 37 43  0  0  1  0  0  0  0  0999 V2000
  188.4930  174.9620  139.7260 C   0  0  0  0  0  2  0  0  0  0  0  0
  186.5630  177.0840  144.3150 C   0  0  0  0  0  0  0  0  0  0  0  0
  190.4180  176.2900  142.4430 C   0  0  1  0  0  3  0  0  0  0  0  0
  188.3300  174.2350  138.4130 C   0  0  0  0  0  0  0  0  0  0  0  0
  190.3290  172.3570  142.7840 C   0  0  0  0  0  2  0  0  0  0  0  0
  189.1100  177.3300  144.3660 C   0  0  1  0  0  3  0  0  0  0  0  0
  190.0720  174.8370  142.0750 C   0  0  1  0  0  3  0  0  0  0  0  0
  189.9190  172.5010  139.0480 C   0  0  0  0  0  0  0  0  0  0  0  0
  189.1100  176.9360  142.8810 C   0  0  2  0  0  3  0  0  0  0  0  0
  190.8940  173.7820  142.8530 C   0  0  2  0  0  3  0  0  0  0  0  0
  190.2580  178.2910  144.6790 C   0  0  0  0  0  2  0  0  0  0  0  0
  189.0500  173.1870  138.1320 N   0  0  0  0  0  0  0  0  0  0  0  0
  188.0090  175.9300  142.5510 C   0  0  2  0  0  3  0  0  0  0  0  0
  185.7210  177.8800  143.3360 C   0  0  0  0  0  1  0  0  0  0  0  0
  192.9190  176.0160  142.9640 C   0  0  0  0  0  2  0  0  0  0  0  0
  191.5960  177.8510  144.0600 C   0  0  0  0  0  2  0  0  0  0  0  0
  186.9770  175.7500  143.6750 C   0  0  0  0  0  2  0  0  0  0  0  0
  189.5490  172.3480  140.4320 N   0  0  0  0  0  0  0  0  0  0  0  0
  190.4430  171.7120  141.3990 C   0  0  0  0  0  2  0  0  0  0  0  0
  191.5440  176.4330  143.4940 C   0  0  1  0  0  3  0  0  0  0  0  0
  188.6170  174.6430  142.2230 N   0  0  1  0  0  0  0  0  0  0  0  0
  187.7650  177.9400  144.7510 C   0  0  0  0  0  2  0  0  0  0  0  0
  192.3890  173.8020  142.4600 C   0  0  1  0  0  3  0  0  0  0  0  0
  185.7180  176.7860  145.5360 C   0  0  0  0  0  1  0  0  0  0  0  0
  188.1830  172.6570  140.8330 C   0  0  0  0  0  2  0  0  0  0  0  0
  191.2180  171.7080  138.4360 S   0  0  0  0  0  0  0  0  0  0  0  0
  188.0130  174.1680  140.9640 C   0  0  2  0  0  3  0  0  0  0  0  0
  192.8520  175.0390  141.9450 O   0  0  0  0  0  0  0  0  0  0  0  0
  192.9780  173.1950  144.8170 C   0  0  0  0  0  3  0  0  0  0  0  0
  193.3160  173.1670  143.4600 C   0  0  0  0  0  0  0  0  0  0  0  0
  194.4950  172.5250  143.0510 C   0  0  0  0  0  3  0  0  0  0  0  0
  196.4710  171.3110  143.6000 F   0  0  0  0  0  0  0  0  0  0  0  0
  194.9940  171.9650  145.3530 C   0  0  0  0  0  3  0  0  0  0  0  0
  195.3330  171.9280  143.9980 C   0  0  0  0  0  0  0  0  0  0  0  0
  193.8160  172.5970  145.7630 C   0  0  0  0  0  3  0  0  0  0  0  0
  186.6930  176.0410  137.7450 C   0  0  0  0  0  1  0  0  0  0  0  0
  187.4410  174.7830  137.3350 C   0  0  0  0  0  2  0  0  0  0  0  0
  1 27  1  0  0  0  0
  2 22  1  0  0  0  0
  2 24  1  0  0  0  0
  3  9  1  0  0  0  0
  3 20  1  0  0  0  0
  4  1  1  0  0  0  0
  5 10  1  0  0  0  0
  6 11  1  0  0  0  0
  6 22  1  0  0  0  0
  7 21  1  0  0  0  0
  7  3  1  0  0  0  0
  7 10  1  0  0  0  0
  8 18  1  0  0  0  0
  9  6  1  0  0  0  0
 12  4  2  0  0  0  0
 12  8  1  0  0  0  0
 13  9  1  0  0  0  0
 13 17  1  0  0  0  0
 14  2  1  0  0  0  0
 15 20  1  0  0  0  0
 16 11  1  0  0  0  0
 17  2  1  0  0  0  0
 18 25  1  0  0  0  0
 18 19  1  0  0  0  0
 19  5  1  0  0  0  0
 20 16  1  0  0  0  0
 21 13  1  0  0  0  0
 23 10  1  0  0  0  0
 23 30  1  0  0  0  0
 25 27  1  0  0  0  0
 26  8  2  0  0  0  0
 27 21  1  0  0  0  0
 28 23  1  0  0  0  0
 28 15  1  0  0  0  0
 29 35  1  0  0  0  0
 30 29  2  0  0  0  0
 31 30  1  0  0  0  0
 31 34  2  0  0  0  0
 32 34  1  0  0  0  0
 33 35  2  0  0  0  0
 34 33  1  0  0  0  0
 37 36  1  0  0  0  0
 37  4  1  0  0  0  0
M  END
>  <MODEL>
5

>  <REMARK>
 VINA RESULT:      -7.4      2.603      3.845
  Name = 
  2 active torsions:
  status: ('A' for Active; 'I' for Inactive)
    1  A    between atoms: C_4  and  C_37
    2  A    between atoms: C_23  and  C_30
                            x       y       z     vdW  Elec       q    Type
                         _______ _______ _______ _____ _____    ______ ____

>  <TORSDO>
F 2

$$$$
=
 OpenBabel11112417133D

 37 43  0  0  1  0  0  0  0  0999 V2000
  189.3270  174.9090  143.7450 C   0  0  0  0  0  2  0  0  0  0  0  0
  189.6620  172.8000  138.7720 C   0  0  0  0  0  0  0  0  0  0  0  0
  191.0460  171.9060  142.8070 C   0  0  1  0  0  3  0  0  0  0  0  0
  188.9410  175.9990  144.7150 C   0  0  0  0  0  0  0  0  0  0  0  0
  193.6920  174.8240  143.0770 C   0  0  0  0  0  2  0  0  0  0  0  0
  190.8360  171.1850  140.3730 C   0  0  1  0  0  3  0  0  0  0  0  0
  191.5760  173.3260  143.0650 C   0  0  1  0  0  3  0  0  0  0  0  0
  191.2210  176.2180  145.5470 C   0  0  0  0  0  0  0  0  0  0  0  0
  190.2240  171.9910  141.5280 C   0  0  2  0  0  3  0  0  0  0  0  0
  193.1170  173.4060  143.1870 C   0  0  2  0  0  3  0  0  0  0  0  0
  190.9950  169.7120  140.7550 C   0  0  0  0  0  2  0  0  0  0  0  0
  189.8100  176.4920  145.5510 N   0  0  0  0  0  0  0  0  0  0  0  0
  190.1070  173.4780  141.1960 C   0  0  2  0  0  3  0  0  0  0  0  0
  188.1590  172.9970  138.8240 C   0  0  0  0  0  1  0  0  0  0  0  0
  192.7990  170.5510  144.1070 C   0  0  0  0  0  2  0  0  0  0  0  0
  191.5970  169.5160  142.1560 C   0  0  0  0  0  2  0  0  0  0  0  0
  190.3470  173.8020  139.7140 C   0  0  0  0  0  2  0  0  0  0  0  0
  191.9330  176.0670  144.3030 N   0  0  0  0  0  0  0  0  0  0  0  0
  193.3540  175.7250  144.2700 C   0  0  0  0  0  2  0  0  0  0  0  0
  192.1400  170.8150  142.7500 C   0  0  1  0  0  3  0  0  0  0  0  0
  191.0430  174.2300  142.0290 N   0  0  1  0  0  0  0  0  0  0  0  0
  189.9870  171.3350  139.1140 C   0  0  0  0  0  2  0  0  0  0  0  0
  193.6390  172.6970  144.4580 C   0  0  1  0  0  3  0  0  0  0  0  0
  190.1290  173.0780  137.3580 C   0  0  0  0  0  1  0  0  0  0  0  0
  191.2730  176.4520  143.0630 C   0  0  0  0  0  2  0  0  0  0  0  0
  192.0310  176.3090  146.9690 S   0  0  0  0  0  0  0  0  0  0  0  0
  190.3040  175.3550  142.6310 C   0  0  2  0  0  3  0  0  0  0  0  0
  192.7920  171.6770  144.9600 O   0  0  0  0  0  0  0  0  0  0  0  0
  195.7850  172.1510  145.6260 C   0  0  0  0  0  3  0  0  0  0  0  0
  195.0960  172.3240  144.4220 C   0  0  0  0  0  0  0  0  0  0  0  0
  195.7640  172.1210  143.2050 C   0  0  0  0  0  3  0  0  0  0  0  0
  197.7560  171.5650  142.0200 F   0  0  0  0  0  0  0  0  0  0  0  0
  197.7990  171.5920  144.4030 C   0  0  0  0  0  3  0  0  0  0  0  0
  197.1140  171.7580  143.1970 C   0  0  0  0  0  0  0  0  0  0  0  0
  197.1350  171.7870  145.6180 C   0  0  0  0  0  3  0  0  0  0  0  0
  187.1160  176.7950  146.2710 C   0  0  0  0  0  1  0  0  0  0  0  0
  187.5140  176.4440  144.8460 C   0  0  0  0  0  2  0  0  0  0  0  0
  1  4  1  0  0  0  0
  2 14  1  0  0  0  0
  2 22  1  0  0  0  0
  2 17  1  0  0  0  0
  3  7  1  0  0  0  0
  4 37  1  0  0  0  0
  4 12  2  0  0  0  0
  5 10  1  0  0  0  0
  5 19  1  0  0  0  0
  6 11  1  0  0  0  0
  6  9  1  0  0  0  0
  7 10  1  0  0  0  0
  8 12  1  0  0  0  0
  8 26  2  0  0  0  0
  9  3  1  0  0  0  0
 10 23  1  0  0  0  0
 11 16  1  0  0  0  0
 13  9  1  0  0  0  0
 13 21  1  0  0  0  0
 15 28  1  0  0  0  0
 16 20  1  0  0  0  0
 17 13  1  0  0  0  0
 18  8  1  0  0  0  0
 19 18  1  0  0  0  0
 20  3  1  0  0  0  0
 20 15  1  0  0  0  0
 21 27  1  0  0  0  0
 21  7  1  0  0  0  0
 22  6  1  0  0  0  0
 23 28  1  0  0  0  0
 24  2  1  0  0  0  0
 25 18  1  0  0  0  0
 27 25  1  0  0  0  0
 27  1  1  0  0  0  0
 30 23  1  0  0  0  0
 30 29  2  0  0  0  0
 31 30  1  0  0  0  0
 32 34  1  0  0  0  0
 33 35  2  0  0  0  0
 34 31  2  0  0  0  0
 34 33  1  0  0  0  0
 35 29  1  0  0  0  0
 37 36  1  0  0  0  0
M  END
>  <MODEL>
6

>  <REMARK>
 VINA RESULT:      -7.3      2.685      5.776
  Name = 
  2 active torsions:
  status: ('A' for Active; 'I' for Inactive)
    1  A    between atoms: C_4  and  C_37
    2  A    between atoms: C_23  and  C_30
                            x       y       z     vdW  Elec       q    Type
                         _______ _______ _______ _____ _____    ______ ____

>  <TORSDO>
F 2

$$$$
=
 OpenBabel11112417133D

 37 43  0  0  1  0  0  0  0  0999 V2000
  189.0130  176.2090  142.1270 C   0  0  0  0  0  2  0  0  0  0  0  0
  191.1890  176.0530  147.0800 C   0  0  0  0  0  0  0  0  0  0  0  0
  192.4930  175.8860  142.9240 C   0  0  1  0  0  3  0  0  0  0  0  0
  187.8380  176.2180  141.1790 C   0  0  0  0  0  0  0  0  0  0  0  0
  191.0640  172.2970  142.1050 C   0  0  0  0  0  2  0  0  0  0  0  0
  193.1130  176.0000  145.3920 C   0  0  1  0  0  3  0  0  0  0  0  0
  191.4540  174.8270  142.5190 C   0  0  1  0  0  3  0  0  0  0  0  0
  188.6410  174.2480  139.9910 C   0  0  0  0  0  0  0  0  0  0  0  0
  192.0850  176.3660  144.3110 C   0  0  2  0  0  3  0  0  0  0  0  0
  192.0700  173.4540  142.1530 C   0  0  2  0  0  3  0  0  0  0  0  0
  194.4890  176.5790  145.0600 C   0  0  0  0  0  2  0  0  0  0  0  0
  187.7630  175.3680  140.1950 N   0  0  0  0  0  0  0  0  0  0  0  0
  190.7140  175.7500  144.5860 C   0  0  2  0  0  3  0  0  0  0  0  0
  190.3380  177.2970  147.2550 C   0  0  0  0  0  1  0  0  0  0  0  0
  194.4530  175.1590  141.4310 C   0  0  0  0  0  2  0  0  0  0  0  0
  194.8940  176.3630  143.5930 C   0  0  0  0  0  2  0  0  0  0  0  0
  190.5750  175.1550  145.9960 C   0  0  0  0  0  2  0  0  0  0  0  0
  189.1300  173.4880  141.1130 N   0  0  0  0  0  0  0  0  0  0  0  0
  190.0740  172.3850  140.9390 C   0  0  0  0  0  2  0  0  0  0  0  0
  193.9600  175.4010  142.8610 C   0  0  1  0  0  3  0  0  0  0  0  0
  190.4380  174.7250  143.5830 N   0  0  1  0  0  0  0  0  0  0  0  0
  192.6340  176.4770  146.7610 C   0  0  0  0  0  2  0  0  0  0  0  0
  192.9010  173.5170  140.8520 C   0  0  1  0  0  3  0  0  0  0  0  0
  191.1910  175.2900  148.3880 C   0  0  0  0  0  1  0  0  0  0  0  0
  188.5260  173.6970  142.4220 C   0  0  0  0  0  2  0  0  0  0  0  0
  188.8810  173.7240  138.4560 S   0  0  0  0  0  0  0  0  0  0  0  0
  189.0840  174.9700  143.0510 C   0  0  2  0  0  3  0  0  0  0  0  0
  193.4190  174.7990  140.5370 O   0  0  0  0  0  0  0  0  0  0  0  0
  194.2360  171.9890  139.3840 C   0  0  0  0  0  3  0  0  0  0  0  0
  193.8880  172.3960  140.6760 C   0  0  0  0  0  0  0  0  0  0  0  0
  194.4850  171.7740  141.7830 C   0  0  0  0  0  3  0  0  0  0  0  0
  195.9850  170.1450  142.6650 F   0  0  0  0  0  0  0  0  0  0  0  0
  195.7510  170.3380  140.3010 C   0  0  0  0  0  3  0  0  0  0  0  0
  195.4130  170.7450  141.5940 C   0  0  0  0  0  0  0  0  0  0  0  0
  195.1640  170.9600  139.1950 C   0  0  0  0  0  3  0  0  0  0  0  0
  187.0300  178.2910  142.3790 C   0  0  0  0  0  1  0  0  0  0  0  0
  186.7970  177.2960  141.2530 C   0  0  0  0  0  2  0  0  0  0  0  0
  1 27  1  0  0  0  0
  2 14  1  0  0  0  0
  2 24  1  0  0  0  0
  3  9  1  0  0  0  0
  4 37  1  0  0  0  0
  4  1  1  0  0  0  0
  5 10  1  0  0  0  0
  6 22  1  0  0  0  0
  7  3  1  0  0  0  0
  7 21  1  0  0  0  0
  8 12  1  0  0  0  0
  8 18  1  0  0  0  0
  9 13  1  0  0  0  0
  9  6  1  0  0  0  0
 10  7  1  0  0  0  0
 11  6  1  0  0  0  0
 12  4  2  0  0  0  0
 13 17  1  0  0  0  0
 15 20  1  0  0  0  0
 16 11  1  0  0  0  0
 17  2  1  0  0  0  0
 18 25  1  0  0  0  0
 19 18  1  0  0  0  0
 19  5  1  0  0  0  0
 20  3  1  0  0  0  0
 20 16  1  0  0  0  0
 21 13  1  0  0  0  0
 22  2  1  0  0  0  0
 23 10  1  0  0  0  0
 25 27  1  0  0  0  0
 26  8  2  0  0  0  0
 27 21  1  0  0  0  0
 28 23  1  0  0  0  0
 28 15  1  0  0  0  0
 29 30  1  0  0  0  0
 30 23  1  0  0  0  0
 30 31  2  0  0  0  0
 33 34  2  0  0  0  0
 34 31  1  0  0  0  0
 34 32  1  0  0  0  0
 35 29  2  0  0  0  0
 35 33  1  0  0  0  0
 37 36  1  0  0  0  0
M  END
>  <MODEL>
7

>  <REMARK>
 VINA RESULT:      -7.3      2.940      3.949
  Name = 
  2 active torsions:
  status: ('A' for Active; 'I' for Inactive)
    1  A    between atoms: C_4  and  C_37
    2  A    between atoms: C_23  and  C_30
                            x       y       z     vdW  Elec       q    Type
                         _______ _______ _______ _____ _____    ______ ____

>  <TORSDO>
F 2

$$$$
=
 OpenBabel11112417133D

 37 43  0  0  1  0  0  0  0  0999 V2000
  190.9590  175.1580  145.2740 C   0  0  0  0  0  2  0  0  0  0  0  0
  187.4390  176.6440  141.4430 C   0  0  0  0  0  0  0  0  0  0  0  0
  190.6930  173.7930  141.9700 C   0  0  1  0  0  3  0  0  0  0  0  0
  191.6220  175.3200  146.6210 C   0  0  0  0  0  0  0  0  0  0  0  0
  193.6440  176.4160  142.0010 C   0  0  0  0  0  2  0  0  0  0  0  0
  188.7960  174.6800  140.5200 C   0  0  1  0  0  3  0  0  0  0  0  0
  191.6650  174.8330  142.5510 C   0  0  1  0  0  3  0  0  0  0  0  0
  193.8450  175.4590  145.6330 C   0  0  0  0  0  0  0  0  0  0  0  0
  189.3260  174.4640  141.9460 C   0  0  2  0  0  3  0  0  0  0  0  0
  192.8710  175.1430  141.6310 C   0  0  2  0  0  3  0  0  0  0  0  0
  188.7030  173.3540  139.7630 C   0  0  0  0  0  2  0  0  0  0  0  0
  192.9190  175.3700  146.7290 N   0  0  0  0  0  0  0  0  0  0  0  0
  189.4850  175.7790  142.7070 C   0  0  2  0  0  3  0  0  0  0  0  0
  186.4530  176.4480  142.5790 C   0  0  0  0  0  1  0  0  0  0  0  0
  192.3540  172.3320  140.6650 C   0  0  0  0  0  2  0  0  0  0  0  0
  189.9540  172.4770  139.9300 C   0  0  0  0  0  2  0  0  0  0  0  0
  188.8250  176.9810  142.0130 C   0  0  0  0  0  2  0  0  0  0  0  0
  193.5290  176.2510  144.4710 N   0  0  0  0  0  0  0  0  0  0  0  0
  194.4230  176.3070  143.3160 C   0  0  0  0  0  2  0  0  0  0  0  0
  191.1100  173.2230  140.5950 C   0  0  1  0  0  3  0  0  0  0  0  0
  190.9060  176.0440  142.9160 N   0  0  1  0  0  0  0  0  0  0  0  0
  187.4420  175.3840  140.5600 C   0  0  0  0  0  2  0  0  0  0  0  0
  193.8280  173.9370  141.4970 C   0  0  1  0  0  3  0  0  0  0  0  0
  186.9700  177.8150  140.6040 C   0  0  0  0  0  1  0  0  0  0  0  0
  192.3940  177.1620  144.5280 C   0  0  0  0  0  2  0  0  0  0  0  0
  195.3460  174.8330  145.8360 S   0  0  0  0  0  0  0  0  0  0  0  0
  191.0960  176.3830  144.3390 C   0  0  2  0  0  3  0  0  0  0  0  0
  193.2260  172.6730  141.7230 O   0  0  0  0  0  0  0  0  0  0  0  0
  195.9380  173.2640  140.3290 C   0  0  0  0  0  3  0  0  0  0  0  0
  194.7360  173.9790  140.2990 C   0  0  0  0  0  0  0  0  0  0  0  0
  194.3860  174.6980  139.1460 C   0  0  0  0  0  3  0  0  0  0  0  0
  194.8990  175.4060  136.9290 F   0  0  0  0  0  0  0  0  0  0  0  0
  196.4420  173.9980  138.0770 C   0  0  0  0  0  3  0  0  0  0  0  0
  195.2390  174.7080  138.0390 C   0  0  0  0  0  0  0  0  0  0  0  0
  196.7910  173.2740  139.2210 C   0  0  0  0  0  3  0  0  0  0  0  0
  189.3570  174.9160  147.6670 C   0  0  0  0  0  1  0  0  0  0  0  0
  190.8160  175.2810  147.8860 C   0  0  0  0  0  2  0  0  0  0  0  0
  1  4  1  0  0  0  0
  2 17  1  0  0  0  0
  2 14  1  0  0  0  0
  3  7  1  0  0  0  0
  4 12  2  0  0  0  0
  4 37  1  0  0  0  0
  5 19  1  0  0  0  0
  6 22  1  0  0  0  0
  6  9  1  0  0  0  0
  7 21  1  0  0  0  0
  8 26  2  0  0  0  0
  8 12  1  0  0  0  0
  9  3  1  0  0  0  0
  9 13  1  0  0  0  0
 10  5  1  0  0  0  0
 10  7  1  0  0  0  0
 11 16  1  0  0  0  0
 11  6  1  0  0  0  0
 13 21  1  0  0  0  0
 15 28  1  0  0  0  0
 16 20  1  0  0  0  0
 17 13  1  0  0  0  0
 18 25  1  0  0  0  0
 18  8  1  0  0  0  0
 19 18  1  0  0  0  0
 20 15  1  0  0  0  0
 20  3  1  0  0  0  0
 21 27  1  0  0  0  0
 22  2  1  0  0  0  0
 23 10  1  0  0  0  0
 23 28  1  0  0  0  0
 24  2  1  0  0  0  0
 27 25  1  0  0  0  0
 27  1  1  0  0  0  0
 30 29  1  0  0  0  0
 30 23  1  0  0  0  0
 31 30  2  0  0  0  0
 32 34  1  0  0  0  0
 33 35  1  0  0  0  0
 34 33  2  0  0  0  0
 34 31  1  0  0  0  0
 35 29  2  0  0  0  0
 36 37  1  0  0  0  0
M  END
>  <MODEL>
8

>  <REMARK>
 VINA RESULT:      -7.3      4.119      6.662
  Name = 
  2 active torsions:
  status: ('A' for Active; 'I' for Inactive)
    1  A    between atoms: C_4  and  C_37
    2  A    between atoms: C_23  and  C_30
                            x       y       z     vdW  Elec       q    Type
                         _______ _______ _______ _____ _____    ______ ____

>  <TORSDO>
F 2

$$$$
=
 OpenBabel11112417133D

 37 43  0  0  1  0  0  0  0  0999 V2000
  188.7720  175.0770  143.4520 C   0  0  0  0  0  2  0  0  0  0  0  0
  189.7070  172.8810  138.5950 C   0  0  0  0  0  0  0  0  0  0  0  0
  190.8980  172.2790  142.7440 C   0  0  1  0  0  3  0  0  0  0  0  0
  188.1920  176.1400  144.3530 C   0  0  0  0  0  0  0  0  0  0  0  0
  193.1520  175.5020  143.0820 C   0  0  0  0  0  2  0  0  0  0  0  0
  190.9480  171.4670  140.3310 C   0  0  1  0  0  3  0  0  0  0  0  0
  191.2360  173.7600  142.9850 C   0  0  1  0  0  3  0  0  0  0  0  0
  190.3640  176.6570  145.3270 C   0  0  0  0  0  0  0  0  0  0  0  0
  190.1640  172.2260  141.4110 C   0  0  2  0  0  3  0  0  0  0  0  0
  192.7440  174.0290  143.2070 C   0  0  2  0  0  3  0  0  0  0  0  0
  191.2530  170.0360  140.7770 C   0  0  0  0  0  2  0  0  0  0  0  0
  188.9340  176.7590  145.2260 N   0  0  0  0  0  0  0  0  0  0  0  0
  189.8950  173.6780  141.0170 C   0  0  2  0  0  3  0  0  0  0  0  0
  188.1920  172.8960  138.5390 C   0  0  0  0  0  1  0  0  0  0  0  0
  192.7020  171.1830  144.2090 C   0  0  0  0  0  2  0  0  0  0  0  0
  191.7730  169.9550  142.2220 C   0  0  0  0  0  2  0  0  0  0  0  0
  190.2000  173.9850  139.5430 C   0  0  0  0  0  2  0  0  0  0  0  0
  191.1760  176.5580  144.1400 N   0  0  0  0  0  0  0  0  0  0  0  0
  192.6260  176.3890  144.2160 C   0  0  0  0  0  2  0  0  0  0  0  0
  192.1150  171.3270  142.8010 C   0  0  1  0  0  3  0  0  0  0  0  0
  190.6740  174.5610  141.8820 N   0  0  1  0  0  0  0  0  0  0  0  0
  190.1790  171.4770  139.0130 C   0  0  0  0  0  2  0  0  0  0  0  0
  193.2540  173.4250  144.5340 C   0  0  1  0  0  3  0  0  0  0  0  0
  190.2370  173.1720  137.2070 C   0  0  0  0  0  1  0  0  0  0  0  0
  190.5640  176.8240  142.8450 C   0  0  0  0  0  2  0  0  0  0  0  0
  191.0540  176.8880  146.7960 S   0  0  0  0  0  0  0  0  0  0  0  0
  189.7660  175.6060  142.3910 C   0  0  2  0  0  3  0  0  0  0  0  0
  192.5010  172.3250  145.0170 O   0  0  0  0  0  0  0  0  0  0  0  0
  195.4180  172.6910  143.5110 C   0  0  0  0  0  3  0  0  0  0  0  0
  194.7440  173.2300  144.6110 C   0  0  0  0  0  0  0  0  0  0  0  0
  195.4680  173.6060  145.7530 C   0  0  0  0  0  3  0  0  0  0  0  0
  197.5490  173.7910  146.8990 F   0  0  0  0  0  0  0  0  0  0  0  0
  197.5220  172.8850  144.6940 C   0  0  0  0  0  3  0  0  0  0  0  0
  196.8540  173.4300  145.7940 C   0  0  0  0  0  0  0  0  0  0  0  0
  196.8050  172.5160  143.5520 C   0  0  0  0  0  3  0  0  0  0  0  0
  186.1870  176.8000  145.7440 C   0  0  0  0  0  1  0  0  0  0  0  0
  186.7160  176.4130  144.3720 C   0  0  0  0  0  2  0  0  0  0  0  0
  1  4  1  0  0  0  0
  2 22  1  0  0  0  0
  2 17  1  0  0  0  0
  3 20  1  0  0  0  0
  3  7  1  0  0  0  0
  4 37  1  0  0  0  0
  4 12  2  0  0  0  0
  5 10  1  0  0  0  0
  5 19  1  0  0  0  0
  6 11  1  0  0  0  0
  6  9  1  0  0  0  0
  7 10  1  0  0  0  0
  8 26  2  0  0  0  0
  9  3  1  0  0  0  0
 10 23  1  0  0  0  0
 11 16  1  0  0  0  0
 12  8  1  0  0  0  0
 13  9  1  0  0  0  0
 13 21  1  0  0  0  0
 14  2  1  0  0  0  0
 15 28  1  0  0  0  0
 16 20  1  0  0  0  0
 17 13  1  0  0  0  0
 18 19  1  0  0  0  0
 18  8  1  0  0  0  0
 20 15  1  0  0  0  0
 21 27  1  0  0  0  0
 21  7  1  0  0  0  0
 22  6  1  0  0  0  0
 23 30  1  0  0  0  0
 23 28  1  0  0  0  0
 24  2  1  0  0  0  0
 25 18  1  0  0  0  0
 27 25  1  0  0  0  0
 27  1  1  0  0  0  0
 29 35  2  0  0  0  0
 29 30  1  0  0  0  0
 30 31  2  0  0  0  0
 31 34  1  0  0  0  0
 33 34  2  0  0  0  0
 34 32  1  0  0  0  0
 35 33  1  0  0  0  0
 37 36  1  0  0  0  0
M  END
>  <MODEL>
9

>  <REMARK>
 VINA RESULT:      -7.2      2.908      5.872
  Name = 
  2 active torsions:
  status: ('A' for Active; 'I' for Inactive)
    1  A    between atoms: C_4  and  C_37
    2  A    between atoms: C_23  and  C_30
                            x       y       z     vdW  Elec       q    Type
                         _______ _______ _______ _____ _____    ______ ____

>  <TORSDO>
F 2

$$$$
