=
 OpenBabel11112417073D

 31 35  0  0  1  0  0  0  0  0999 V2000
  190.9460  172.0310  142.1740 C   0  0  2  0  0  3  0  0  0  0  0  0
  191.8590  174.1290  145.2840 C   0  0  2  0  0  3  0  0  0  0  0  0
  192.8630  175.2470  145.4730 C   0  0  0  0  0  0  0  0  0  0  0  0
  194.8760  176.3270  144.8070 C   0  0  0  0  0  0  0  0  0  0  0  0
  191.7010  173.7430  143.8070 C   0  0  1  0  0  3  0  0  0  0  0  0
  189.9860  172.9270  141.6660 O   0  0  0  0  0  0  0  0  0  0  0  0
  193.9430  175.3520  144.6470 N   0  0  0  0  0  0  0  0  0  0  0  0
  189.6980  175.4740  145.1470 C   0  0  2  0  0  3  0  0  0  0  0  0
  190.4490  170.6100  142.0050 C   0  0  0  0  0  1  0  0  0  0  0  0
  191.6150  176.0380  147.4410 N   0  0  0  0  0  2  0  0  0  0  0  0
  196.0300  176.4090  143.8750 C   0  0  0  0  0  1  0  0  0  0  0  0
  189.4890  174.9840  143.7170 C   0  0  0  0  0  2  0  0  0  0  0  0
  190.4960  174.4340  145.9480 C   0  0  2  0  0  3  0  0  0  0  0  0
  191.1890  172.3100  143.6560 C   0  0  0  0  0  2  0  0  0  0  0  0
  194.7530  177.2520  145.8470 C   0  0  0  0  0  3  0  0  0  0  0  0
  190.8290  174.7430  143.0240 C   0  0  2  0  0  3  0  0  0  0  0  0
  190.5970  174.1960  141.6120 C   0  0  0  0  0  2  0  0  0  0  0  0
  190.7140  174.8900  147.3940 C   0  0  0  0  0  2  0  0  0  0  0  0
  192.7270  176.1420  146.5490 C   0  0  0  0  0  0  0  0  0  0  0  0
  193.6700  177.1550  146.7220 C   0  0  0  0  0  3  0  0  0  0  0  0
  188.8770  177.8990  146.4060 O   0  0  0  0  0  0  0  0  0  0  0  0
  188.0520  176.9460  146.3800 C   0  0  0  0  0  0  0  0  0  0  0  0
  188.4030  175.7010  145.7730 N   0  0  0  0  0  2  0  0  0  0  0  0
  185.0050  178.8240  145.2990 C   0  0  0  0  0  0  0  0  0  0  0  0
  185.5980  176.5340  146.0610 C   0  0  0  0  0  2  0  0  0  0  0  0
  186.9010  179.0250  148.3870 O   0  0  0  0  0  0  0  0  0  0  0  0
  184.3260  179.6000  144.5220 N   0  0  0  0  0  2  0  0  0  0  0  0
  185.3300  177.4330  144.8530 C   0  0  0  0  0  2  0  0  0  0  0  0
  186.4050  178.5360  147.3390 C   0  0  0  0  0  0  0  0  0  0  0  0
  186.6870  177.1060  146.9750 C   0  0  2  0  0  3  0  0  0  0  0  0
  185.6010  179.3550  146.4850 N   0  0  0  0  0  2  0  0  0  0  0  0
  1  9  1  1  0  0  0
  1 14  1  0  0  0  0
  2  3  1  6  0  0  0
  2 13  1  0  0  0  0
  3 19  1  0  0  0  0
  4 15  2  0  0  0  0
  5 14  1  1  0  0  0
  5  2  1  0  0  0  0
  6  1  1  0  0  0  0
  7  4  1  0  0  0  0
  7  3  2  0  0  0  0
  8 23  1  1  0  0  0
  8 13  1  0  0  0  0
 11  4  1  0  0  0  0
 12  8  1  0  0  0  0
 13 18  1  1  0  0  0
 15 20  1  0  0  0  0
 16 17  1  6  0  0  0
 16 12  1  0  0  0  0
 16  5  1  0  0  0  0
 17  6  1  0  0  0  0
 18 10  1  0  0  0  0
 19 20  2  0  0  0  0
 19 10  1  0  0  0  0
 22 21  2  0  0  0  0
 23 22  1  0  0  0  0
 24 31  1  0  0  0  0
 25 30  1  0  0  0  0
 27 24  2  0  0  0  0
 28 24  1  0  0  0  0
 28 25  1  0  0  0  0
 29 26  2  0  0  0  0
 30 22  1  6  0  0  0
 30 29  1  0  0  0  0
 31 29  1  0  0  0  0
M  END
>  <MODEL>
1

>  <REMARK>
 VINA RESULT:      -8.3      0.000      0.000
  Name = 
  2 active torsions:
  status: ('A' for Active; 'I' for Inactive)
    1  A    between atoms: C_5  and  C_30
    2  A    between atoms: C_10  and  N_16
                            x       y       z     vdW  Elec       q    Type
                         _______ _______ _______ _____ _____    ______ ____

>  <TORSDO>
F 2

$$$$
=
 OpenBabel11112417073D

 31 35  0  0  1  0  0  0  0  0999 V2000
  188.1910  173.9030  140.3810 C   0  0  2  0  0  3  0  0  0  0  0  0
  189.3050  176.2900  143.2040 C   0  0  2  0  0  3  0  0  0  0  0  0
  188.6420  176.6630  144.5140 C   0  0  0  0  0  0  0  0  0  0  0  0
  186.6640  176.9000  145.8150 C   0  0  0  0  0  0  0  0  0  0  0  0
  188.5810  175.1330  142.5030 C   0  0  1  0  0  3  0  0  0  0  0  0
  188.7400  172.7370  140.9460 O   0  0  0  0  0  0  0  0  0  0  0  0
  187.2920  176.5480  144.6620 N   0  0  0  0  0  0  0  0  0  0  0  0
  191.0750  174.6570  144.0360 C   0  0  2  0  0  3  0  0  0  0  0  0
  188.4320  173.9000  138.8860 C   0  0  0  0  0  1  0  0  0  0  0  0
  190.8230  177.3530  145.4230 N   0  0  0  0  0  2  0  0  0  0  0  0
  185.1910  176.7440  145.9340 C   0  0  0  0  0  1  0  0  0  0  0  0
  190.4140  173.5390  143.2360 C   0  0  0  0  0  2  0  0  0  0  0  0
  190.8180  176.0120  143.3610 C   0  0  2  0  0  3  0  0  0  0  0  0
  188.8440  175.1400  140.9970 C   0  0  0  0  0  2  0  0  0  0  0  0
  187.4000  177.4080  146.8880 C   0  0  0  0  0  3  0  0  0  0  0  0
  188.9070  173.7640  143.1300 C   0  0  2  0  0  3  0  0  0  0  0  0
  188.2720  172.6640  142.2740 C   0  0  0  0  0  2  0  0  0  0  0  0
  191.4790  177.1570  144.1330 C   0  0  0  0  0  2  0  0  0  0  0  0
  189.4080  177.2020  145.5630 C   0  0  0  0  0  0  0  0  0  0  0  0
  188.7820  177.5580  146.7570 C   0  0  0  0  0  3  0  0  0  0  0  0
  192.5860  174.5410  146.4540 O   0  0  0  0  0  0  0  0  0  0  0  0
  193.2020  174.3520  145.3710 C   0  0  0  0  0  0  0  0  0  0  0  0
  192.5080  174.4060  144.1240 N   0  0  0  0  0  2  0  0  0  0  0  0
  196.0700  175.6880  143.3780 C   0  0  0  0  0  0  0  0  0  0  0  0
  195.4950  175.2910  145.7630 C   0  0  0  0  0  2  0  0  0  0  0  0
  194.9020  172.2770  143.7930 O   0  0  0  0  0  0  0  0  0  0  0  0
  196.6190  176.4250  142.4710 N   0  0  0  0  0  2  0  0  0  0  0  0
  195.5600  176.3200  144.6340 C   0  0  0  0  0  2  0  0  0  0  0  0
  195.1250  173.4870  144.0600 C   0  0  0  0  0  0  0  0  0  0  0  0
  194.6710  174.0580  145.3730 C   0  0  2  0  0  3  0  0  0  0  0  0
  195.7820  174.3160  143.0980 N   0  0  0  0  0  2  0  0  0  0  0  0
  1  9  1  6  0  0  0
  1  6  1  0  0  0  0
  1 14  1  0  0  0  0
  2 13  1  0  0  0  0
  2  3  1  1  0  0  0
  3  7  2  0  0  0  0
  3 19  1  0  0  0  0
  4 11  1  0  0  0  0
  4 15  2  0  0  0  0
  5 14  1  6  0  0  0
  5 16  1  0  0  0  0
  5  2  1  0  0  0  0
  6 17  1  0  0  0  0
  7  4  1  0  0  0  0
  8 23  1  6  0  0  0
 10 19  1  0  0  0  0
 12  8  1  0  0  0  0
 13  8  1  0  0  0  0
 13 18  1  1  0  0  0
 16 17  1  6  0  0  0
 16 12  1  0  0  0  0
 18 10  1  0  0  0  0
 19 20  2  0  0  0  0
 20 15  1  0  0  0  0
 22 21  2  0  0  0  0
 23 22  1  0  0  0  0
 24 28  1  0  0  0  0
 26 29  2  0  0  0  0
 27 24  2  0  0  0  0
 28 25  1  0  0  0  0
 29 30  1  0  0  0  0
 30 22  1  6  0  0  0
 30 25  1  0  0  0  0
 31 24  1  0  0  0  0
 31 29  1  0  0  0  0
M  END
>  <MODEL>
2

>  <REMARK>
 VINA RESULT:      -7.6      2.530      7.044
  Name = 
  2 active torsions:
  status: ('A' for Active; 'I' for Inactive)
    1  A    between atoms: C_5  and  C_30
    2  A    between atoms: C_10  and  N_16
                            x       y       z     vdW  Elec       q    Type
                         _______ _______ _______ _____ _____    ______ ____

>  <TORSDO>
F 2

$$$$
=
 OpenBabel11112417073D

 31 35  0  0  1  0  0  0  0  0999 V2000
  186.1870  177.4750  142.7090 C   0  0  2  0  0  3  0  0  0  0  0  0
  188.0660  174.2310  141.7800 C   0  0  2  0  0  3  0  0  0  0  0  0
  188.7110  173.7890  140.4840 C   0  0  0  0  0  0  0  0  0  0  0  0
  188.8380  173.9140  138.1110 C   0  0  0  0  0  0  0  0  0  0  0  0
  187.6230  175.7000  141.7300 C   0  0  1  0  0  3  0  0  0  0  0  0
  187.3310  178.2110  143.0730 O   0  0  0  0  0  0  0  0  0  0  0  0
  188.2970  174.3100  139.2940 N   0  0  0  0  0  0  0  0  0  0  0  0
  190.1300  174.9160  143.1090 C   0  0  2  0  0  3  0  0  0  0  0  0
  185.0680  177.7680  143.6860 C   0  0  0  0  0  1  0  0  0  0  0  0
  190.1280  172.2060  141.7270 N   0  0  0  0  0  2  0  0  0  0  0  0
  188.3630  174.5200  136.8400 C   0  0  0  0  0  1  0  0  0  0  0  0
  189.6170  176.3520  143.1570 C   0  0  0  0  0  2  0  0  0  0  0  0
  188.9490  173.9380  143.0160 C   0  0  2  0  0  3  0  0  0  0  0  0
  186.5000  175.9790  142.7290 C   0  0  0  0  0  2  0  0  0  0  0  0
  189.8380  172.9390  138.0880 C   0  0  0  0  0  3  0  0  0  0  0  0
  188.7980  176.6790  141.9090 C   0  0  2  0  0  3  0  0  0  0  0  0
  188.2450  178.1040  142.0050 C   0  0  0  0  0  2  0  0  0  0  0  0
  189.4280  172.4840  142.9780 C   0  0  0  0  0  2  0  0  0  0  0  0
  189.6930  172.7820  140.4930 C   0  0  0  0  0  0  0  0  0  0  0  0
  190.2660  172.3720  139.2900 C   0  0  0  0  0  3  0  0  0  0  0  0
  192.8550  174.0710  143.1450 O   0  0  0  0  0  0  0  0  0  0  0  0
  192.2780  174.2300  144.2550 C   0  0  0  0  0  0  0  0  0  0  0  0
  190.9120  174.6420  144.3080 N   0  0  0  0  0  2  0  0  0  0  0  0
  194.2340  176.4820  146.5090 C   0  0  0  0  0  0  0  0  0  0  0  0
  192.4140  174.8000  146.6940 C   0  0  0  0  0  2  0  0  0  0  0  0
  195.2290  173.4260  144.8230 O   0  0  0  0  0  0  0  0  0  0  0  0
  194.7540  177.6060  146.8710 N   0  0  0  0  0  2  0  0  0  0  0  0
  192.7540  176.2880  146.6030 C   0  0  0  0  0  2  0  0  0  0  0  0
  194.4870  174.2740  145.3850 C   0  0  0  0  0  0  0  0  0  0  0  0
  193.0180  173.9980  145.5360 C   0  0  2  0  0  3  0  0  0  0  0  0
  195.0440  175.5070  145.8480 N   0  0  0  0  0  2  0  0  0  0  0  0
  1 14  1  0  0  0  0
  1  6  1  0  0  0  0
  1  9  1  1  0  0  0
  2  3  1  6  0  0  0
  2 13  1  0  0  0  0
  3 19  1  0  0  0  0
  4  7  1  0  0  0  0
  5  2  1  0  0  0  0
  5 16  1  0  0  0  0
  5 14  1  1  0  0  0
  7  3  2  0  0  0  0
  8 12  1  0  0  0  0
  8 23  1  1  0  0  0
 10 18  1  0  0  0  0
 11  4  1  0  0  0  0
 13 18  1  6  0  0  0
 13  8  1  0  0  0  0
 15  4  2  0  0  0  0
 15 20  1  0  0  0  0
 16 17  1  1  0  0  0
 16 12  1  0  0  0  0
 17  6  1  0  0  0  0
 19 10  1  0  0  0  0
 20 19  2  0  0  0  0
 21 22  2  0  0  0  0
 22 23  1  0  0  0  0
 24 28  1  0  0  0  0
 24 27  2  0  0  0  0
 26 29  2  0  0  0  0
 28 25  1  0  0  0  0
 29 30  1  0  0  0  0
 29 31  1  0  0  0  0
 30 22  1  6  0  0  0
 30 25  1  0  0  0  0
 31 24  1  0  0  0  0
M  END
>  <MODEL>
3

>  <REMARK>
 VINA RESULT:      -7.6      3.136      7.398
  Name = 
  2 active torsions:
  status: ('A' for Active; 'I' for Inactive)
    1  A    between atoms: C_5  and  C_30
    2  A    between atoms: C_10  and  N_16
                            x       y       z     vdW  Elec       q    Type
                         _______ _______ _______ _____ _____    ______ ____

>  <TORSDO>
F 2

$$$$
=
 OpenBabel11112417073D

 31 35  0  0  1  0  0  0  0  0999 V2000
  185.6050  177.7260  142.7700 C   0  0  2  0  0  3  0  0  0  0  0  0
  188.1400  174.8580  142.2580 C   0  0  2  0  0  3  0  0  0  0  0  0
  188.8150  174.3360  141.0070 C   0  0  0  0  0  0  0  0  0  0  0  0
  188.8100  174.0430  138.6460 C   0  0  0  0  0  0  0  0  0  0  0  0
  187.3690  176.1590  141.9940 C   0  0  1  0  0  3  0  0  0  0  0  0
  186.5620  178.7490  142.9060 O   0  0  0  0  0  0  0  0  0  0  0  0
  188.2430  174.5230  139.7850 N   0  0  0  0  0  0  0  0  0  0  0  0
  190.0440  176.2140  143.2740 C   0  0  2  0  0  3  0  0  0  0  0  0
  184.4900  177.9420  143.7710 C   0  0  0  0  0  1  0  0  0  0  0  0
  190.6100  173.3610  142.3820 N   0  0  0  0  0  2  0  0  0  0  0  0
  188.1550  174.2820  137.3340 C   0  0  0  0  0  1  0  0  0  0  0  0
  189.2170  177.4860  143.1170 C   0  0  0  0  0  2  0  0  0  0  0  0
  189.1180  175.0010  143.4480 C   0  0  2  0  0  3  0  0  0  0  0  0
  186.2540  176.3650  143.0200 C   0  0  0  0  0  2  0  0  0  0  0  0
  190.0060  173.3240  138.7070 C   0  0  0  0  0  3  0  0  0  0  0  0
  188.2930  177.3880  141.9040 C   0  0  2  0  0  3  0  0  0  0  0  0
  187.4300  178.6490  141.8000 C   0  0  0  0  0  2  0  0  0  0  0  0
  189.9170  173.7060  143.6200 C   0  0  0  0  0  2  0  0  0  0  0  0
  190.0020  173.5890  141.1070 C   0  0  0  0  0  0  0  0  0  0  0  0
  190.6030  173.0980  139.9490 C   0  0  0  0  0  3  0  0  0  0  0  0
  192.8870  176.4430  143.1800 O   0  0  0  0  0  0  0  0  0  0  0  0
  192.3360  176.4660  144.3140 C   0  0  0  0  0  0  0  0  0  0  0  0
  190.9180  176.3460  144.4320 N   0  0  0  0  0  2  0  0  0  0  0  0
  195.6490  175.0920  145.3710 C   0  0  0  0  0  0  0  0  0  0  0  0
  194.5060  177.2960  145.2600 C   0  0  0  0  0  2  0  0  0  0  0  0
  192.4030  174.8580  146.9770 O   0  0  0  0  0  0  0  0  0  0  0  0
  196.7170  174.3810  145.2290 N   0  0  0  0  0  2  0  0  0  0  0  0
  195.4820  176.3430  144.5680 C   0  0  0  0  0  2  0  0  0  0  0  0
  193.3390  175.3210  146.2750 C   0  0  0  0  0  0  0  0  0  0  0  0
  193.1580  176.6280  145.5550 C   0  0  2  0  0  3  0  0  0  0  0  0
  194.5580  174.5840  146.1430 N   0  0  0  0  0  2  0  0  0  0  0  0
  1  6  1  0  0  0  0
  1 14  1  0  0  0  0
  1  9  1  1  0  0  0
  2  3  1  6  0  0  0
  2 13  1  0  0  0  0
  3 19  1  0  0  0  0
  4 15  2  0  0  0  0
  4  7  1  0  0  0  0
  5  2  1  0  0  0  0
  5 14  1  1  0  0  0
  7  3  2  0  0  0  0
  8 13  1  0  0  0  0
  8 23  1  1  0  0  0
 10 18  1  0  0  0  0
 11  4  1  0  0  0  0
 12  8  1  0  0  0  0
 13 18  1  6  0  0  0
 15 20  1  0  0  0  0
 16 17  1  1  0  0  0
 16  5  1  0  0  0  0
 16 12  1  0  0  0  0
 17  6  1  0  0  0  0
 19 10  1  0  0  0  0
 20 19  2  0  0  0  0
 21 22  2  0  0  0  0
 22 23  1  0  0  0  0
 24 31  1  0  0  0  0
 25 30  1  0  0  0  0
 27 24  2  0  0  0  0
 28 25  1  0  0  0  0
 28 24  1  0  0  0  0
 29 26  2  0  0  0  0
 30 22  1  6  0  0  0
 30 29  1  0  0  0  0
 31 29  1  0  0  0  0
M  END
>  <MODEL>
4

>  <REMARK>
 VINA RESULT:      -7.5      3.112      7.416
  Name = 
  2 active torsions:
  status: ('A' for Active; 'I' for Inactive)
    1  A    between atoms: C_5  and  C_30
    2  A    between atoms: C_10  and  N_16
                            x       y       z     vdW  Elec       q    Type
                         _______ _______ _______ _____ _____    ______ ____

>  <TORSDO>
F 2

$$$$
=
 OpenBabel11112417073D

 31 35  0  0  1  0  0  0  0  0999 V2000
  186.4190  177.3830  142.9410 C   0  0  2  0  0  3  0  0  0  0  0  0
  188.2360  174.1280  141.9300 C   0  0  2  0  0  3  0  0  0  0  0  0
  188.8550  173.6990  140.6160 C   0  0  0  0  0  0  0  0  0  0  0  0
  188.9440  173.8600  138.2430 C   0  0  0  0  0  0  0  0  0  0  0  0
  187.8140  175.6040  141.9100 C   0  0  1  0  0  3  0  0  0  0  0  0
  187.5790  178.0970  143.2970 O   0  0  0  0  0  0  0  0  0  0  0  0
  188.4290  174.2440  139.4420 N   0  0  0  0  0  0  0  0  0  0  0  0
  190.3310  174.7630  143.2350 C   0  0  2  0  0  3  0  0  0  0  0  0
  185.3200  177.6750  143.9400 C   0  0  0  0  0  1  0  0  0  0  0  0
  190.2690  172.0760  141.8100 N   0  0  0  0  0  2  0  0  0  0  0  0
  188.4570  174.4930  136.9900 C   0  0  0  0  0  1  0  0  0  0  0  0
  189.8400  176.2050  143.3140 C   0  0  0  0  0  2  0  0  0  0  0  0
  189.1350  173.8040  143.1450 C   0  0  2  0  0  3  0  0  0  0  0  0
  186.7110  175.8830  142.9320 C   0  0  0  0  0  2  0  0  0  0  0  0
  189.9300  172.8720  138.1880 C   0  0  0  0  0  3  0  0  0  0  0  0
  189.0060  176.5640  142.0850 C   0  0  2  0  0  3  0  0  0  0  0  0
  188.4740  177.9950  142.2130 C   0  0  0  0  0  2  0  0  0  0  0  0
  189.5930  172.3440  143.0760 C   0  0  0  0  0  2  0  0  0  0  0  0
  189.8220  172.6780  140.5930 C   0  0  0  0  0  0  0  0  0  0  0  0
  190.3700  172.2800  139.3740 C   0  0  0  0  0  3  0  0  0  0  0  0
  193.0510  173.9000  143.2130 O   0  0  0  0  0  0  0  0  0  0  0  0
  192.4910  174.0400  144.3340 C   0  0  0  0  0  0  0  0  0  0  0  0
  191.1290  174.4590  144.4160 N   0  0  0  0  0  2  0  0  0  0  0  0
  196.1210  174.2160  145.2130 C   0  0  0  0  0  0  0  0  0  0  0  0
  193.9540  175.0370  146.1110 C   0  0  0  0  0  2  0  0  0  0  0  0
  193.7870  171.4490  145.4700 O   0  0  0  0  0  0  0  0  0  0  0  0
  197.3730  174.4130  144.9690 N   0  0  0  0  0  2  0  0  0  0  0  0
  195.1890  175.3840  145.2790 C   0  0  0  0  0  2  0  0  0  0  0  0
  194.2110  172.6340  145.4410 C   0  0  0  0  0  0  0  0  0  0  0  0
  193.2480  173.7760  145.5990 C   0  0  2  0  0  3  0  0  0  0  0  0
  195.6030  172.8830  145.2290 N   0  0  0  0  0  2  0  0  0  0  0  0
  1  6  1  0  0  0  0
  1  9  1  1  0  0  0
  2  3  1  6  0  0  0
  2 13  1  0  0  0  0
  4  7  1  0  0  0  0
  5  2  1  0  0  0  0
  5 16  1  0  0  0  0
  5 14  1  1  0  0  0
  7  3  2  0  0  0  0
  8 12  1  0  0  0  0
  8 23  1  1  0  0  0
 10 18  1  0  0  0  0
 11  4  1  0  0  0  0
 13 18  1  6  0  0  0
 13  8  1  0  0  0  0
 14  1  1  0  0  0  0
 15  4  2  0  0  0  0
 15 20  1  0  0  0  0
 16 17  1  1  0  0  0
 16 12  1  0  0  0  0
 17  6  1  0  0  0  0
 19  3  1  0  0  0  0
 19 10  1  0  0  0  0
 20 19  2  0  0  0  0
 21 22  2  0  0  0  0
 22 23  1  0  0  0  0
 24 31  1  0  0  0  0
 24 28  1  0  0  0  0
 27 24  2  0  0  0  0
 28 25  1  0  0  0  0
 29 26  2  0  0  0  0
 29 30  1  0  0  0  0
 30 22  1  6  0  0  0
 30 25  1  0  0  0  0
 31 29  1  0  0  0  0
M  END
>  <MODEL>
5

>  <REMARK>
 VINA RESULT:      -7.4      3.203      7.865
  Name = 
  2 active torsions:
  status: ('A' for Active; 'I' for Inactive)
    1  A    between atoms: C_5  and  C_30
    2  A    between atoms: C_10  and  N_16
                            x       y       z     vdW  Elec       q    Type
                         _______ _______ _______ _____ _____    ______ ____

>  <TORSDO>
F 2

$$$$
=
 OpenBabel11112417073D

 31 35  0  0  1  0  0  0  0  0999 V2000
  193.7220  176.4600  145.7050 C   0  0  2  0  0  3  0  0  0  0  0  0
  190.8440  176.1250  143.1520 C   0  0  2  0  0  3  0  0  0  0  0  0
  190.4120  174.9620  142.2830 C   0  0  0  0  0  0  0  0  0  0  0  0
  190.9540  172.9460  141.1410 C   0  0  0  0  0  0  0  0  0  0  0  0
  191.9180  175.7140  144.1690 C   0  0  1  0  0  3  0  0  0  0  0  0
  193.0050  175.9540  146.8060 O   0  0  0  0  0  0  0  0  0  0  0  0
  191.3030  173.9880  141.9410 N   0  0  0  0  0  0  0  0  0  0  0  0
  189.0820  176.0020  144.9890 C   0  0  2  0  0  3  0  0  0  0  0  0
  194.5660  177.6360  146.1500 C   0  0  0  0  0  1  0  0  0  0  0  0
  188.1620  175.9390  142.0900 N   0  0  0  0  0  2  0  0  0  0  0  0
  191.9560  171.9020  140.8050 C   0  0  0  0  0  1  0  0  0  0  0  0
  190.1760  175.7140  146.0130 C   0  0  0  0  0  2  0  0  0  0  0  0
  189.6510  176.8360  143.8310 C   0  0  2  0  0  3  0  0  0  0  0  0
  192.7530  176.9150  144.6140 C   0  0  0  0  0  2  0  0  0  0  0  0
  189.6560  172.8560  140.6330 C   0  0  0  0  0  3  0  0  0  0  0  0
  191.3340  174.9510  145.3720 C   0  0  2  0  0  3  0  0  0  0  0  0
  192.4450  174.7250  146.4020 C   0  0  0  0  0  2  0  0  0  0  0  0
  188.5750  177.1530  142.7890 C   0  0  0  0  0  2  0  0  0  0  0  0
  189.1070  174.9180  141.7620 C   0  0  0  0  0  0  0  0  0  0  0  0
  188.7280  173.8500  140.9490 C   0  0  0  0  0  3  0  0  0  0  0  0
  187.8780  175.2870  147.4750 O   0  0  0  0  0  0  0  0  0  0  0  0
  187.4410  176.3140  146.8880 C   0  0  0  0  0  0  0  0  0  0  0  0
  187.9930  176.7210  145.6360 N   0  0  0  0  0  2  0  0  0  0  0  0
  185.2140  179.0000  145.5440 C   0  0  0  0  0  0  0  0  0  0  0  0
  184.9960  176.8720  146.8100 C   0  0  0  0  0  2  0  0  0  0  0  0
  187.4710  179.0410  148.3850 O   0  0  0  0  0  0  0  0  0  0  0  0
  184.7750  179.8090  144.6390 N   0  0  0  0  0  2  0  0  0  0  0  0
  184.9170  177.5380  145.4350 C   0  0  0  0  0  2  0  0  0  0  0  0
  186.6800  178.5910  147.5160 C   0  0  0  0  0  0  0  0  0  0  0  0
  186.3420  177.1280  147.4980 C   0  0  2  0  0  3  0  0  0  0  0  0
  186.1320  179.4740  146.5320 N   0  0  0  0  0  2  0  0  0  0  0  0
  1  9  1  1  0  0  0
  1  6  1  0  0  0  0
  2  3  1  1  0  0  0
  2 13  1  0  0  0  0
  2  5  1  0  0  0  0
  4  7  2  0  0  0  0
  5 14  1  1  0  0  0
  5 16  1  0  0  0  0
  7  3  1  0  0  0  0
  8 23  1  1  0  0  0
  8 12  1  0  0  0  0
 10 18  1  0  0  0  0
 11  4  1  0  0  0  0
 13 18  1  6  0  0  0
 13  8  1  0  0  0  0
 14  1  1  0  0  0  0
 15 20  2  0  0  0  0
 15  4  1  0  0  0  0
 16 12  1  1  0  0  0
 16 17  1  0  0  0  0
 17  6  1  0  0  0  0
 19 10  1  0  0  0  0
 19  3  2  0  0  0  0
 20 19  1  0  0  0  0
 22 21  2  0  0  0  0
 23 22  1  0  0  0  0
 24 31  1  0  0  0  0
 25 30  1  0  0  0  0
 27 24  2  0  0  0  0
 28 24  1  0  0  0  0
 28 25  1  0  0  0  0
 29 26  2  0  0  0  0
 30 22  1  6  0  0  0
 30 29  1  0  0  0  0
 31 29  1  0  0  0  0
M  END
>  <MODEL>
6

>  <REMARK>
 VINA RESULT:      -7.3      2.075      4.544
  Name = 
  2 active torsions:
  status: ('A' for Active; 'I' for Inactive)
    1  A    between atoms: C_5  and  C_30
    2  A    between atoms: C_10  and  N_16
                            x       y       z     vdW  Elec       q    Type
                         _______ _______ _______ _____ _____    ______ ____

>  <TORSDO>
F 2

$$$$
=
 OpenBabel11112417073D

 31 35  0  0  1  0  0  0  0  0999 V2000
  191.3980  171.3150  140.2110 C   0  0  2  0  0  3  0  0  0  0  0  0
  191.6100  173.3530  143.4850 C   0  0  2  0  0  3  0  0  0  0  0  0
  192.5670  174.4420  143.9210 C   0  0  0  0  0  0  0  0  0  0  0  0
  194.7030  175.4780  143.7600 C   0  0  0  0  0  0  0  0  0  0  0  0
  191.7900  172.9880  142.0050 C   0  0  1  0  0  3  0  0  0  0  0  0
  190.6020  172.2420  139.5100 O   0  0  0  0  0  0  0  0  0  0  0  0
  193.8110  174.5290  143.3700 N   0  0  0  0  0  0  0  0  0  0  0  0
  189.5700  174.7540  142.8730 C   0  0  2  0  0  3  0  0  0  0  0  0
  190.9220  169.9100  139.9070 C   0  0  0  0  0  1  0  0  0  0  0  0
  190.9130  175.2420  145.5590 N   0  0  0  0  0  2  0  0  0  0  0  0
  196.0430  175.5410  143.1220 C   0  0  0  0  0  1  0  0  0  0  0  0
  189.6880  174.2870  141.4260 C   0  0  0  0  0  2  0  0  0  0  0  0
  190.1370  173.6850  143.8200 C   0  0  2  0  0  3  0  0  0  0  0  0
  191.2950  171.5710  141.7140 C   0  0  0  0  0  2  0  0  0  0  0  0
  194.3620  176.3930  144.7590 C   0  0  0  0  0  3  0  0  0  0  0  0
  191.1470  174.0190  141.0580 C   0  0  2  0  0  3  0  0  0  0  0  0
  191.2370  173.4950  139.6220 C   0  0  0  0  0  2  0  0  0  0  0  0
  190.0230  174.1170  145.2840 C   0  0  0  0  0  2  0  0  0  0  0  0
  192.2050  175.3270  144.9520 C   0  0  0  0  0  0  0  0  0  0  0  0
  193.1030  176.3140  145.3560 C   0  0  0  0  0  3  0  0  0  0  0  0
  188.5460  177.1490  144.0370 O   0  0  0  0  0  0  0  0  0  0  0  0
  187.7220  176.2350  143.7610 C   0  0  0  0  0  0  0  0  0  0  0  0
  188.1700  175.0070  143.1860 N   0  0  0  0  0  2  0  0  0  0  0  0
  185.5860  179.2740  144.1880 C   0  0  0  0  0  0  0  0  0  0  0  0
  185.5690  177.1650  142.8730 C   0  0  0  0  0  2  0  0  0  0  0  0
  186.1070  176.4530  146.4110 O   0  0  0  0  0  0  0  0  0  0  0  0
  185.3630  180.5430  144.2630 N   0  0  0  0  0  2  0  0  0  0  0  0
  185.9040  178.6570  142.8630 C   0  0  0  0  0  2  0  0  0  0  0  0
  186.0180  177.1080  145.3400 C   0  0  0  0  0  0  0  0  0  0  0  0
  186.2610  176.4260  144.0240 C   0  0  2  0  0  3  0  0  0  0  0  0
  185.7160  178.5050  145.3870 N   0  0  0  0  0  2  0  0  0  0  0  0
  1  9  1  1  0  0  0
  1 14  1  0  0  0  0
  2 13  1  0  0  0  0
  2  3  1  6  0  0  0
  3 19  1  0  0  0  0
  4 15  2  0  0  0  0
  5 14  1  1  0  0  0
  5  2  1  0  0  0  0
  6 17  1  0  0  0  0
  6  1  1  0  0  0  0
  7  4  1  0  0  0  0
  7  3  2  0  0  0  0
  8 23  1  1  0  0  0
  8 13  1  0  0  0  0
 11  4  1  0  0  0  0
 12  8  1  0  0  0  0
 13 18  1  1  0  0  0
 15 20  1  0  0  0  0
 16 17  1  6  0  0  0
 16 12  1  0  0  0  0
 16  5  1  0  0  0  0
 18 10  1  0  0  0  0
 19 20  2  0  0  0  0
 19 10  1  0  0  0  0
 22 21  2  0  0  0  0
 23 22  1  0  0  0  0
 24 27  2  0  0  0  0
 24 31  1  0  0  0  0
 25 30  1  0  0  0  0
 28 25  1  0  0  0  0
 28 24  1  0  0  0  0
 29 31  1  0  0  0  0
 29 26  2  0  0  0  0
 30 22  1  6  0  0  0
 30 29  1  0  0  0  0
M  END
>  <MODEL>
7

>  <REMARK>
 VINA RESULT:      -7.2      1.687      2.202
  Name = 
  2 active torsions:
  status: ('A' for Active; 'I' for Inactive)
    1  A    between atoms: C_5  and  C_30
    2  A    between atoms: C_10  and  N_16
                            x       y       z     vdW  Elec       q    Type
                         _______ _______ _______ _____ _____    ______ ____

>  <TORSDO>
F 2

$$$$
=
 OpenBabel11112417073D

 31 35  0  0  1  0  0  0  0  0999 V2000
  191.3980  171.1910  141.8680 C   0  0  2  0  0  3  0  0  0  0  0  0
  191.5470  173.6220  144.8640 C   0  0  2  0  0  3  0  0  0  0  0  0
  192.6740  174.4820  145.3960 C   0  0  0  0  0  0  0  0  0  0  0  0
  195.0080  174.8820  145.6350 C   0  0  0  0  0  0  0  0  0  0  0  0
  191.9010  172.9800  143.5160 C   0  0  1  0  0  3  0  0  0  0  0  0
  191.0620  172.1610  140.9050 O   0  0  0  0  0  0  0  0  0  0  0  0
  193.9720  174.1470  145.1490 N   0  0  0  0  0  0  0  0  0  0  0  0
  190.1660  175.3830  143.6440 C   0  0  2  0  0  3  0  0  0  0  0  0
  190.6040  169.9280  141.6100 C   0  0  0  0  0  1  0  0  0  0  0  0
  191.0370  175.9480  146.5040 N   0  0  0  0  0  2  0  0  0  0  0  0
  196.4060  174.4860  145.3290 C   0  0  0  0  0  1  0  0  0  0  0  0
  190.4250  174.6650  142.3240 C   0  0  0  0  0  2  0  0  0  0  0  0
  190.1990  174.3780  144.8050 C   0  0  2  0  0  3  0  0  0  0  0  0
  191.0820  171.7130  143.2690 C   0  0  0  0  0  2  0  0  0  0  0  0
  194.7590  176.0090  146.4230 C   0  0  0  0  0  3  0  0  0  0  0  0
  191.7850  173.9690  142.3410 C   0  0  2  0  0  3  0  0  0  0  0  0
  191.9990  173.2070  141.0300 C   0  0  0  0  0  2  0  0  0  0  0  0
  189.9300  175.0650  146.1480 C   0  0  0  0  0  2  0  0  0  0  0  0
  192.3900  175.5900  146.2130 C   0  0  0  0  0  0  0  0  0  0  0  0
  193.4390  176.3620  146.7110 C   0  0  0  0  0  3  0  0  0  0  0  0
  189.7360  178.1360  143.0270 O   0  0  0  0  0  0  0  0  0  0  0  0
  188.7220  177.4250  143.2640 C   0  0  0  0  0  0  0  0  0  0  0  0
  188.8680  176.0420  143.5890 N   0  0  0  0  0  2  0  0  0  0  0  0
  185.6790  177.0340  145.4020 C   0  0  0  0  0  0  0  0  0  0  0  0
  187.0410  178.8740  144.4330 C   0  0  0  0  0  2  0  0  0  0  0  0
  186.1230  176.4720  141.8440 O   0  0  0  0  0  0  0  0  0  0  0  0
  184.9970  176.5500  146.3850 N   0  0  0  0  0  2  0  0  0  0  0  0
  186.7690  178.0220  145.6740 C   0  0  0  0  0  2  0  0  0  0  0  0
  186.2990  176.9610  142.9900 C   0  0  0  0  0  0  0  0  0  0  0  0
  187.3480  178.0160  143.2000 C   0  0  2  0  0  3  0  0  0  0  0  0
  185.5190  176.4850  144.0910 N   0  0  0  0  0  2  0  0  0  0  0  0
  1  9  1  6  0  0  0
  1 14  1  0  0  0  0
  2  3  1  6  0  0  0
  3 19  1  0  0  0  0
  4 15  2  0  0  0  0
  5 14  1  6  0  0  0
  5  2  1  0  0  0  0
  6 17  1  0  0  0  0
  6  1  1  0  0  0  0
  7  3  2  0  0  0  0
  7  4  1  0  0  0  0
  8 23  1  6  0  0  0
  8 13  1  0  0  0  0
 11  4  1  0  0  0  0
 12 16  1  0  0  0  0
 12  8  1  0  0  0  0
 13  2  1  0  0  0  0
 13 18  1  1  0  0  0
 15 20  1  0  0  0  0
 16 17  1  6  0  0  0
 16  5  1  0  0  0  0
 18 10  1  0  0  0  0
 19 10  1  0  0  0  0
 19 20  2  0  0  0  0
 21 22  2  0  0  0  0
 22 23  1  0  0  0  0
 24 28  1  0  0  0  0
 24 27  2  0  0  0  0
 25 28  1  0  0  0  0
 26 29  2  0  0  0  0
 29 30  1  0  0  0  0
 29 31  1  0  0  0  0
 30 22  1  1  0  0  0
 30 25  1  0  0  0  0
 31 24  1  0  0  0  0
M  END
>  <MODEL>
8

>  <REMARK>
 VINA RESULT:      -7.1      1.973      2.502
  Name = 
  2 active torsions:
  status: ('A' for Active; 'I' for Inactive)
    1  A    between atoms: C_5  and  C_30
    2  A    between atoms: C_10  and  N_16
                            x       y       z     vdW  Elec       q    Type
                         _______ _______ _______ _____ _____    ______ ____

>  <TORSDO>
F 2

$$$$
=
 OpenBabel11112417073D

 31 35  0  0  1  0  0  0  0  0999 V2000
  188.5040  172.9910  140.8180 C   0  0  2  0  0  3  0  0  0  0  0  0
  190.0240  175.7760  143.0200 C   0  0  2  0  0  3  0  0  0  0  0  0
  189.5980  176.3270  144.3650 C   0  0  0  0  0  0  0  0  0  0  0  0
  187.8840  176.7290  145.9650 C   0  0  0  0  0  0  0  0  0  0  0  0
  189.2280  174.5210  142.6360 C   0  0  1  0  0  3  0  0  0  0  0  0
  189.1910  171.9250  141.4300 O   0  0  0  0  0  0  0  0  0  0  0  0
  188.3030  176.2200  144.7760 N   0  0  0  0  0  0  0  0  0  0  0  0
  191.9770  174.3000  143.7290 C   0  0  2  0  0  3  0  0  0  0  0  0
  188.4670  172.7740  139.3200 C   0  0  0  0  0  1  0  0  0  0  0  0
  191.8810  177.1660  144.7450 N   0  0  0  0  0  2  0  0  0  0  0  0
  186.4650  176.5760  146.3770 C   0  0  0  0  0  1  0  0  0  0  0  0
  191.2230  173.0700  143.2310 C   0  0  0  0  0  2  0  0  0  0  0  0
  191.5490  175.5390  142.9290 C   0  0  2  0  0  3  0  0  0  0  0  0
  189.2110  174.3110  141.1220 C   0  0  0  0  0  2  0  0  0  0  0  0
  188.7840  177.3960  146.7990 C   0  0  0  0  0  3  0  0  0  0  0  0
  189.7150  173.2610  143.3780 C   0  0  2  0  0  3  0  0  0  0  0  0
  188.9760  172.0410  142.8180 C   0  0  0  0  0  2  0  0  0  0  0  0
  192.2970  176.7920  143.3960 C   0  0  0  0  0  2  0  0  0  0  0  0
  190.5220  177.0210  145.1660 C   0  0  0  0  0  0  0  0  0  0  0  0
  190.1120  177.5410  146.3930 C   0  0  0  0  0  3  0  0  0  0  0  0
  193.6940  173.2130  145.7330 O   0  0  0  0  0  0  0  0  0  0  0  0
  194.2110  173.5220  144.6250 C   0  0  0  0  0  0  0  0  0  0  0  0
  193.4100  174.0800  143.5830 N   0  0  0  0  0  2  0  0  0  0  0  0
  196.5160  170.6760  145.3760 C   0  0  0  0  0  0  0  0  0  0  0  0
  195.9170  172.1160  143.4410 C   0  0  0  0  0  2  0  0  0  0  0  0
  196.7180  174.1660  146.3510 O   0  0  0  0  0  0  0  0  0  0  0  0
  196.8220  169.5150  145.8490 N   0  0  0  0  0  2  0  0  0  0  0  0
  195.6870  170.7730  144.1350 C   0  0  0  0  0  2  0  0  0  0  0  0
  196.4320  173.1480  145.6680 C   0  0  0  0  0  0  0  0  0  0  0  0
  195.6720  173.3010  144.3810 C   0  0  2  0  0  3  0  0  0  0  0  0
  196.8070  171.8500  146.1380 N   0  0  0  0  0  2  0  0  0  0  0  0
  1  9  1  6  0  0  0
  1 14  1  0  0  0  0
  1  6  1  0  0  0  0
  2  3  1  1  0  0  0
  3  7  2  0  0  0  0
  3 19  1  0  0  0  0
  4 11  1  0  0  0  0
  4 15  2  0  0  0  0
  5 14  1  6  0  0  0
  5  2  1  0  0  0  0
  5 16  1  0  0  0  0
  6 17  1  0  0  0  0
  7  4  1  0  0  0  0
  8 23  1  6  0  0  0
 10 19  1  0  0  0  0
 12 16  1  0  0  0  0
 12  8  1  0  0  0  0
 13  2  1  0  0  0  0
 13 18  1  1  0  0  0
 13  8  1  0  0  0  0
 16 17  1  6  0  0  0
 18 10  1  0  0  0  0
 19 20  2  0  0  0  0
 20 15  1  0  0  0  0
 22 21  2  0  0  0  0
 23 22  1  0  0  0  0
 24 27  2  0  0  0  0
 24 31  1  0  0  0  0
 25 28  1  0  0  0  0
 25 30  1  0  0  0  0
 28 24  1  0  0  0  0
 29 31  1  0  0  0  0
 29 26  2  0  0  0  0
 30 22  1  1  0  0  0
 30 29  1  0  0  0  0
M  END
>  <MODEL>
9

>  <REMARK>
 VINA RESULT:      -7.1      3.280      7.610
  Name = 
  2 active torsions:
  status: ('A' for Active; 'I' for Inactive)
    1  A    between atoms: C_5  and  C_30
    2  A    between atoms: C_10  and  N_16
                            x       y       z     vdW  Elec       q    Type
                         _______ _______ _______ _____ _____    ______ ____

>  <TORSDO>
F 2

$$$$
