=
 OpenBabel11112416323D

 32 37  0  0  1  0  0  0  0  0999 V2000
  187.8160  177.0040  141.2320 O   0  0  0  0  0  0  0  0  0  0  0  0
  190.2970  175.3440  144.7110 N   0  0  1  0  0  0  0  0  0  0  0  0
  190.2380  178.2540  148.6820 C   0  0  0  0  0  3  0  0  0  0  0  0
  191.4720  177.7300  149.0680 C   0  0  0  0  0  3  0  0  0  0  0  0
  192.4660  174.3040  143.9750 C   0  0  1  0  0  3  0  0  0  0  0  0
  193.9720  174.2930  144.2710 C   0  0  1  0  0  3  0  0  0  0  0  0
  188.3270  175.0290  143.2940 C   0  0  1  0  0  3  0  0  0  0  0  0
  188.1790  176.4460  145.3790 C   0  0  0  0  0  2  0  0  0  0  0  0
  195.7170  174.9380  145.6280 C   0  0  2  0  0  3  0  0  0  0  0  0
  186.9400  177.1480  143.4030 C   0  0  0  0  0  3  0  0  0  0  0  0
  189.6630  177.8650  147.4700 C   0  0  0  0  0  3  0  0  0  0  0  0
  189.7110  176.5770  145.2930 C   0  0  1  0  0  3  0  0  0  0  0  0
  190.3090  176.9370  146.6380 C   0  0  0  0  0  0  0  0  0  0  0  0
  192.2970  175.4540  146.1450 C   0  0  2  0  0  3  0  0  0  0  0  0
  196.0570  175.3820  144.2070 C   0  0  0  0  0  2  0  0  0  0  0  0
  187.9300  175.6640  140.8080 C   0  0  0  0  0  2  0  0  0  0  0  0
  187.6670  176.1900  144.0020 C   0  0  0  0  0  0  0  0  0  0  0  0
  194.7850  175.2210  143.4080 C   0  0  0  0  0  2  0  0  0  0  0  0
  187.7610  174.6210  141.9290 C   0  0  0  0  0  2  0  0  0  0  0  0
  186.6140  177.1320  141.9440 C   0  0  1  0  0  3  0  0  0  0  0  0
  192.1390  176.8300  148.2350 C   0  0  0  0  0  3  0  0  0  0  0  0
  191.5810  176.4520  147.0060 C   0  0  0  0  0  0  0  0  0  0  0  0
  193.6680  175.7430  146.0760 O   0  0  0  0  0  0  0  0  0  0  0  0
  189.8370  175.2360  143.3150 C   0  0  0  0  0  2  0  0  0  0  0  0
  191.9190  173.0770  144.3600 O   0  0  0  0  0  1  0  0  0  0  0  0
  196.5560  173.7320  146.0090 C   0  0  0  0  0  1  0  0  0  0  0  0
  191.7650  175.4580  144.7140 C   0  0  2  0  0  3  0  0  0  0  0  0
  194.2980  174.5950  145.6760 N   0  0  1  0  0  0  0  0  0  0  0  0
  185.9220  178.4300  141.5680 C   0  0  0  0  0  2  0  0  0  0  0  0
  184.4630  178.2050  141.3680 C   0  0  0  0  0  0  0  0  0  0  0  0
  183.9980  178.0830  140.2050 O   0  0  0  0  0  0  0  0  0  0  0  0
  183.6200  178.0970  142.4660 O   0  0  0  0  0  1  0  0  0  0  0  0
  1 20  1  0  0  0  0
  2 24  1  6  0  0  0
  2 27  1  0  0  0  0
  2 12  1  0  0  0  0
  3  4  1  0  0  0  0
  5  6  1  0  0  0  0
  5 25  1  1  0  0  0
  5 27  1  0  0  0  0
  6 18  1  6  0  0  0
  6 28  1  0  0  0  0
  7 19  1  6  0  0  0
  7 24  1  0  0  0  0
  7 17  1  0  0  0  0
  9 28  1  0  0  0  0
  9 26  1  6  0  0  0
 10 17  2  0  0  0  0
 11  3  2  0  0  0  0
 12  8  1  1  0  0  0
 12 13  1  0  0  0  0
 13 22  2  0  0  0  0
 13 11  1  0  0  0  0
 14 23  1  6  0  0  0
 14 22  1  0  0  0  0
 15  9  1  0  0  0  0
 16  1  1  0  0  0  0
 16 19  1  0  0  0  0
 17  8  1  0  0  0  0
 18 15  1  0  0  0  0
 20 29  1  6  0  0  0
 20 10  1  0  0  0  0
 21  4  2  0  0  0  0
 22 21  1  0  0  0  0
 27 14  1  0  0  0  0
 28 23  1  0  0  0  0
 30 29  1  0  0  0  0
 30 32  1  0  0  0  0
 31 30  2  0  0  0  0
M  END
>  <MODEL>
1

>  <REMARK>
 VINA RESULT:      -8.3      0.000      0.000
  Name = 
  2 active torsions:
  status: ('A' for Active; 'I' for Inactive)
    1  A    between atoms: C_20  and  C_29
    2  A    between atoms: C_29  and  C_30
                            x       y       z     vdW  Elec       q    Type
                         _______ _______ _______ _____ _____    ______ ____

>  <TORSDO>
F 2

$$$$
=
 OpenBabel11112416323D

 32 37  0  0  1  0  0  0  0  0999 V2000
  190.4560  171.4100  141.4060 O   0  0  0  0  0  0  0  0  0  0  0  0
  190.1180  175.6370  143.1480 N   0  0  1  0  0  0  0  0  0  0  0  0
  191.5670  175.9080  147.8460 C   0  0  0  0  0  3  0  0  0  0  0  0
  190.7380  177.0160  148.0230 C   0  0  0  0  0  3  0  0  0  0  0  0
  188.0310  176.8410  142.4290 C   0  0  1  0  0  3  0  0  0  0  0  0
  186.8470  177.6550  142.9710 C   0  0  1  0  0  3  0  0  0  0  0  0
  191.2420  174.2000  141.5160 C   0  0  1  0  0  3  0  0  0  0  0  0
  192.1210  174.3700  143.8780 C   0  0  0  0  0  2  0  0  0  0  0  0
  185.8460  178.7330  144.7420 C   0  0  2  0  0  3  0  0  0  0  0  0
  192.1990  172.2090  142.7590 C   0  0  0  0  0  3  0  0  0  0  0  0
  191.5710  175.2290  146.6250 C   0  0  0  0  0  3  0  0  0  0  0  0
  190.7200  174.8730  144.2700 C   0  0  1  0  0  3  0  0  0  0  0  0
  190.7590  175.6590  145.5650 C   0  0  0  0  0  0  0  0  0  0  0  0
  189.0060  177.2380  144.6540 C   0  0  2  0  0  3  0  0  0  0  0  0
  184.8310  177.7380  144.1830 C   0  0  0  0  0  2  0  0  0  0  0  0
  190.3570  172.1410  140.2050 C   0  0  0  0  0  2  0  0  0  0  0  0
  191.9760  173.5290  142.6550 C   0  0  0  0  0  0  0  0  0  0  0  0
  185.6040  176.8490  143.2360 C   0  0  0  0  0  2  0  0  0  0  0  0
  191.1710  173.4490  140.1820 C   0  0  0  0  0  2  0  0  0  0  0  0
  191.8180  171.2310  141.6930 C   0  0  1  0  0  3  0  0  0  0  0  0
  189.9020  177.4360  146.9870 C   0  0  0  0  0  3  0  0  0  0  0  0
  189.8840  176.7460  145.7670 C   0  0  0  0  0  0  0  0  0  0  0  0
  187.7300  177.5740  145.1310 O   0  0  0  0  0  0  0  0  0  0  0  0
  189.8970  174.7040  142.0300 C   0  0  0  0  0  2  0  0  0  0  0  0
  188.8650  177.6890  141.6950 O   0  0  0  0  0  1  0  0  0  0  0  0
  185.4600  180.1450  144.3440 C   0  0  0  0  0  1  0  0  0  0  0  0
  188.8160  176.1770  143.5730 C   0  0  2  0  0  3  0  0  0  0  0  0
  187.1620  178.4020  144.2020 N   0  0  1  0  0  0  0  0  0  0  0  0
  192.0640  169.8190  142.1940 C   0  0  0  0  0  2  0  0  0  0  0  0
  191.4500  168.8230  141.2710 C   0  0  0  0  0  0  0  0  0  0  0  0
  190.4400  168.1660  141.6360 O   0  0  0  0  0  1  0  0  0  0  0  0
  191.9690  168.6440  139.9960 O   0  0  0  0  0  0  0  0  0  0  0  0
  1 20  1  0  0  0  0
  2 24  1  6  0  0  0
  2 27  1  0  0  0  0
  2 12  1  0  0  0  0
  3  4  1  0  0  0  0
  5 25  1  1  0  0  0
  5  6  1  0  0  0  0
  5 27  1  0  0  0  0
  6 18  1  1  0  0  0
  6 28  1  0  0  0  0
  7 19  1  6  0  0  0
  7 24  1  0  0  0  0
  7 17  1  0  0  0  0
  9 26  1  6  0  0  0
 11  3  2  0  0  0  0
 12  8  1  6  0  0  0
 12 13  1  0  0  0  0
 13 22  2  0  0  0  0
 13 11  1  0  0  0  0
 14 23  1  1  0  0  0
 14 22  1  0  0  0  0
 15  9  1  0  0  0  0
 16  1  1  0  0  0  0
 17 10  2  0  0  0  0
 17  8  1  0  0  0  0
 18 15  1  0  0  0  0
 19 16  1  0  0  0  0
 20 29  1  1  0  0  0
 20 10  1  0  0  0  0
 21  4  2  0  0  0  0
 22 21  1  0  0  0  0
 27 14  1  0  0  0  0
 28  9  1  0  0  0  0
 28 23  1  0  0  0  0
 30 31  1  0  0  0  0
 30 29  1  0  0  0  0
 32 30  2  0  0  0  0
M  END
>  <MODEL>
2

>  <REMARK>
 VINA RESULT:      -7.8      2.995      7.099
  Name = 
  2 active torsions:
  status: ('A' for Active; 'I' for Inactive)
    1  A    between atoms: C_20  and  C_29
    2  A    between atoms: C_29  and  C_30
                            x       y       z     vdW  Elec       q    Type
                         _______ _______ _______ _____ _____    ______ ____

>  <TORSDO>
F 2

$$$$
=
 OpenBabel11112416323D

 32 37  0  0  1  0  0  0  0  0999 V2000
  187.2310  177.5530  141.1570 O   0  0  0  0  0  0  0  0  0  0  0  0
  190.6340  175.5080  143.4500 N   0  0  1  0  0  0  0  0  0  0  0  0
  191.1160  177.1600  148.0630 C   0  0  0  0  0  3  0  0  0  0  0  0
  192.4620  176.7940  148.0390 C   0  0  0  0  0  3  0  0  0  0  0  0
  192.6900  175.1370  142.0510 C   0  0  1  0  0  3  0  0  0  0  0  0
  194.2130  175.3300  142.0500 C   0  0  1  0  0  3  0  0  0  0  0  0
  188.4480  175.2240  142.3870 C   0  0  1  0  0  3  0  0  0  0  0  0
  188.6030  175.9660  144.7960 C   0  0  0  0  0  2  0  0  0  0  0  0
  196.1260  175.8990  143.1990 C   0  0  2  0  0  3  0  0  0  0  0  0
  186.8650  176.9310  143.3890 C   0  0  0  0  0  3  0  0  0  0  0  0
  190.3330  177.0150  146.9150 C   0  0  0  0  0  3  0  0  0  0  0  0
  190.0440  176.4020  144.4780 C   0  0  1  0  0  3  0  0  0  0  0  0
  190.8840  176.4880  145.7360 C   0  0  0  0  0  0  0  0  0  0  0  0
  192.8780  175.5990  144.4610 C   0  0  2  0  0  3  0  0  0  0  0  0
  196.0720  176.7700  141.9460 C   0  0  0  0  0  2  0  0  0  0  0  0
  187.4150  176.4250  140.3300 C   0  0  0  0  0  2  0  0  0  0  0  0
  187.8250  176.0020  143.5240 C   0  0  0  0  0  0  0  0  0  0  0  0
  194.6820  176.5950  141.3800 C   0  0  0  0  0  2  0  0  0  0  0  0
  187.6410  175.1040  141.0890 C   0  0  0  0  0  2  0  0  0  0  0  0
  186.2180  177.2520  142.0800 C   0  0  1  0  0  3  0  0  0  0  0  0
  193.0300  176.2980  146.8640 C   0  0  0  0  0  3  0  0  0  0  0  0
  192.2570  176.1710  145.7010 C   0  0  0  0  0  0  0  0  0  0  0  0
  194.1490  176.1500  144.2360 O   0  0  0  0  0  0  0  0  0  0  0  0
  189.8840  175.6990  142.1970 C   0  0  0  0  0  2  0  0  0  0  0  0
  192.4070  173.7710  142.1340 O   0  0  0  0  0  1  0  0  0  0  0  0
  197.1760  174.8170  143.0340 C   0  0  0  0  0  1  0  0  0  0  0  0
  192.0370  175.8920  143.2220 C   0  0  2  0  0  3  0  0  0  0  0  0
  194.8110  175.2950  143.3970 N   0  0  1  0  0  0  0  0  0  0  0  0
  185.2990  178.4490  142.2510 C   0  0  0  0  0  2  0  0  0  0  0  0
  184.0740  178.2900  141.4180 C   0  0  0  0  0  0  0  0  0  0  0  0
  184.1760  178.1250  140.1740 O   0  0  0  0  0  0  0  0  0  0  0  0
  182.8210  178.2890  142.0170 O   0  0  0  0  0  1  0  0  0  0  0  0
  1 20  1  0  0  0  0
  2 24  1  6  0  0  0
  2 12  1  0  0  0  0
  4  3  1  0  0  0  0
  5 25  1  1  0  0  0
  5 27  1  0  0  0  0
  6 18  1  1  0  0  0
  6  5  1  0  0  0  0
  6 28  1  0  0  0  0
  7 19  1  6  0  0  0
  7 17  1  0  0  0  0
  9 26  1  6  0  0  0
  9 28  1  0  0  0  0
 10 17  2  0  0  0  0
 11  3  2  0  0  0  0
 12  8  1  1  0  0  0
 12 13  1  0  0  0  0
 13 11  1  0  0  0  0
 14 23  1  6  0  0  0
 14 22  1  0  0  0  0
 15  9  1  0  0  0  0
 16 19  1  0  0  0  0
 16  1  1  0  0  0  0
 17  8  1  0  0  0  0
 18 15  1  0  0  0  0
 20 29  1  1  0  0  0
 20 10  1  0  0  0  0
 21  4  2  0  0  0  0
 22 13  2  0  0  0  0
 22 21  1  0  0  0  0
 24  7  1  0  0  0  0
 27  2  1  0  0  0  0
 27 14  1  0  0  0  0
 28 23  1  0  0  0  0
 30 32  1  0  0  0  0
 30 29  1  0  0  0  0
 31 30  2  0  0  0  0
M  END
>  <MODEL>
3

>  <REMARK>
 VINA RESULT:      -7.6      1.379      1.640
  Name = 
  2 active torsions:
  status: ('A' for Active; 'I' for Inactive)
    1  A    between atoms: C_20  and  C_29
    2  A    between atoms: C_29  and  C_30
                            x       y       z     vdW  Elec       q    Type
                         _______ _______ _______ _____ _____    ______ ____

>  <TORSDO>
F 2

$$$$
=
 OpenBabel11112416323D

 32 37  0  0  1  0  0  0  0  0999 V2000
  187.6270  176.3370  146.5560 O   0  0  0  0  0  0  0  0  0  0  0  0
  190.5130  175.0350  143.2400 N   0  0  1  0  0  0  0  0  0  0  0  0
  188.2710  172.6680  139.5510 C   0  0  0  0  0  3  0  0  0  0  0  0
  189.4690  172.0150  139.2600 C   0  0  0  0  0  3  0  0  0  0  0  0
  192.7020  174.1620  144.1180 C   0  0  1  0  0  3  0  0  0  0  0  0
  193.6840  172.9880  143.9900 C   0  0  1  0  0  3  0  0  0  0  0  0
  189.4770  176.9250  144.4000 C   0  0  1  0  0  3  0  0  0  0  0  0
  188.3090  175.8400  142.4410 C   0  0  0  0  0  2  0  0  0  0  0  0
  194.3220  171.0670  142.8930 C   0  0  2  0  0  3  0  0  0  0  0  0
  186.9630  176.6050  144.3220 C   0  0  0  0  0  3  0  0  0  0  0  0
  188.1910  173.5200  140.6550 C   0  0  0  0  0  3  0  0  0  0  0  0
  189.1960  174.6100  142.7050 C   0  0  1  0  0  3  0  0  0  0  0  0
  189.3130  173.7400  141.4710 C   0  0  0  0  0  0  0  0  0  0  0  0
  191.7250  173.2520  142.0490 C   0  0  2  0  0  3  0  0  0  0  0  0
  194.1940  170.7230  144.3750 C   0  0  0  0  0  2  0  0  0  0  0  0
  188.7230  177.1660  146.8730 C   0  0  0  0  0  2  0  0  0  0  0  0
  188.1670  176.5840  143.7260 C   0  0  0  0  0  0  0  0  0  0  0  0
  193.4930  171.9000  145.0130 C   0  0  0  0  0  2  0  0  0  0  0  0
  189.4170  177.8040  145.6540 C   0  0  0  0  0  2  0  0  0  0  0  0
  186.7580  177.0650  145.7300 C   0  0  1  0  0  3  0  0  0  0  0  0
  190.5830  172.2010  140.0810 C   0  0  0  0  0  3  0  0  0  0  0  0
  190.5050  173.0360  141.2040 C   0  0  0  0  0  0  0  0  0  0  0  0
  192.3880  172.0400  142.2930 O   0  0  0  0  0  0  0  0  0  0  0  0
  190.2920  175.6470  144.5620 C   0  0  0  0  0  2  0  0  0  0  0  0
  193.2900  175.3050  143.5710 O   0  0  0  0  0  1  0  0  0  0  0  0
  195.7860  171.1490  142.5040 C   0  0  0  0  0  1  0  0  0  0  0  0
  191.3730  173.8520  143.4080 C   0  0  2  0  0  3  0  0  0  0  0  0
  193.6700  172.3520  142.6600 N   0  0  1  0  0  0  0  0  0  0  0  0
  185.3170  176.8120  146.1380 C   0  0  0  0  0  2  0  0  0  0  0  0
  184.6650  178.0800  146.5650 C   0  0  0  0  0  0  0  0  0  0  0  0
  185.0180  178.6390  147.6370 O   0  0  0  0  0  1  0  0  0  0  0  0
  183.6920  178.6660  145.7670 O   0  0  0  0  0  0  0  0  0  0  0  0
  1 16  1  0  0  0  0
  2 27  1  0  0  0  0
  2 24  1  1  0  0  0
  3 11  1  0  0  0  0
  4  3  2  0  0  0  0
  4 21  1  0  0  0  0
  5 25  1  6  0  0  0
  6  5  1  0  0  0  0
  6 18  1  1  0  0  0
  7 24  1  1  0  0  0
  7 19  1  0  0  0  0
  8 17  1  0  0  0  0
  9 26  1  1  0  0  0
  9 15  1  0  0  0  0
 10 20  1  0  0  0  0
 11 13  2  0  0  0  0
 12  8  1  6  0  0  0
 12  2  1  0  0  0  0
 13 12  1  0  0  0  0
 14 22  1  6  0  0  0
 14 23  1  0  0  0  0
 14 27  1  0  0  0  0
 15 18  1  0  0  0  0
 17 10  2  0  0  0  0
 17  7  1  0  0  0  0
 19 16  1  0  0  0  0
 20 29  1  1  0  0  0
 20  1  1  0  0  0  0
 21 22  2  0  0  0  0
 22 13  1  0  0  0  0
 23 28  1  0  0  0  0
 27  5  1  0  0  0  0
 28  9  1  0  0  0  0
 28  6  1  0  0  0  0
 29 30  1  0  0  0  0
 30 31  1  0  0  0  0
 32 30  2  0  0  0  0
M  END
>  <MODEL>
4

>  <REMARK>
 VINA RESULT:      -7.6      2.809      5.357
  Name = 
  2 active torsions:
  status: ('A' for Active; 'I' for Inactive)
    1  A    between atoms: C_20  and  C_29
    2  A    between atoms: C_29  and  C_30
                            x       y       z     vdW  Elec       q    Type
                         _______ _______ _______ _____ _____    ______ ____

>  <TORSDO>
F 2

$$$$
=
 OpenBabel11112416323D

 32 37  0  0  1  0  0  0  0  0999 V2000
  190.4420  171.3660  141.7270 O   0  0  0  0  0  0  0  0  0  0  0  0
  190.1070  175.6550  143.3100 N   0  0  1  0  0  0  0  0  0  0  0  0
  191.4850  176.0860  148.0180 C   0  0  0  0  0  3  0  0  0  0  0  0
  190.6610  177.2050  148.1420 C   0  0  0  0  0  3  0  0  0  0  0  0
  188.0410  176.8480  142.5150 C   0  0  1  0  0  3  0  0  0  0  0  0
  186.8550  177.6890  143.0080 C   0  0  1  0  0  3  0  0  0  0  0  0
  191.2460  174.1540  141.7490 C   0  0  1  0  0  3  0  0  0  0  0  0
  192.0890  174.4030  144.1170 C   0  0  0  0  0  2  0  0  0  0  0  0
  185.8340  178.8360  144.7230 C   0  0  2  0  0  3  0  0  0  0  0  0
  192.1690  172.2020  143.0770 C   0  0  0  0  0  3  0  0  0  0  0  0
  191.5030  175.3630  146.8230 C   0  0  0  0  0  3  0  0  0  0  0  0
  190.6860  174.9290  144.4680 C   0  0  1  0  0  3  0  0  0  0  0  0
  190.7100  175.7610  145.7340 C   0  0  0  0  0  0  0  0  0  0  0  0
  188.9840  177.3170  144.7400 C   0  0  2  0  0  3  0  0  0  0  0  0
  184.8210  177.8290  144.1840 C   0  0  0  0  0  2  0  0  0  0  0  0
  190.3670  172.0550  140.4980 C   0  0  0  0  0  2  0  0  0  0  0  0
  191.9580  173.5190  142.9230 C   0  0  0  0  0  0  0  0  0  0  0  0
  185.6010  176.9010  143.2830 C   0  0  0  0  0  2  0  0  0  0  0  0
  191.1910  173.3560  140.4420 C   0  0  0  0  0  2  0  0  0  0  0  0
  191.7980  171.1890  142.0410 C   0  0  1  0  0  3  0  0  0  0  0  0
  189.8440  177.5930  147.0780 C   0  0  0  0  0  3  0  0  0  0  0  0
  189.8400  176.8600  145.8830 C   0  0  0  0  0  0  0  0  0  0  0  0
  187.7030  177.6790  145.1840 O   0  0  0  0  0  0  0  0  0  0  0  0
  189.8980  174.6840  142.2220 C   0  0  0  0  0  2  0  0  0  0  0  0
  188.8930  177.6620  141.7650 O   0  0  0  0  0  1  0  0  0  0  0  0
  185.4650  180.2360  144.2690 C   0  0  0  0  0  1  0  0  0  0  0  0
  188.8030  176.2200  143.6950 C   0  0  2  0  0  3  0  0  0  0  0  0
  187.1550  178.4770  144.2170 N   0  0  1  0  0  0  0  0  0  0  0  0
  192.0250  169.7940  142.5960 C   0  0  0  0  0  2  0  0  0  0  0  0
  193.4540  169.6080  142.9740 C   0  0  0  0  0  0  0  0  0  0  0  0
  194.3530  169.7000  142.0970 O   0  0  0  0  0  0  0  0  0  0  0  0
  193.7980  169.3680  144.2970 O   0  0  0  0  0  1  0  0  0  0  0  0
  1 20  1  0  0  0  0
  2 24  1  6  0  0  0
  2 27  1  0  0  0  0
  2 12  1  0  0  0  0
  3  4  1  0  0  0  0
  5 25  1  1  0  0  0
  5  6  1  0  0  0  0
  5 27  1  0  0  0  0
  6 18  1  1  0  0  0
  6 28  1  0  0  0  0
  7 19  1  6  0  0  0
  7 24  1  0  0  0  0
  7 17  1  0  0  0  0
  9 26  1  6  0  0  0
 11  3  2  0  0  0  0
 12  8  1  6  0  0  0
 12 13  1  0  0  0  0
 13 22  2  0  0  0  0
 13 11  1  0  0  0  0
 14 23  1  1  0  0  0
 14 22  1  0  0  0  0
 15  9  1  0  0  0  0
 16  1  1  0  0  0  0
 17 10  2  0  0  0  0
 17  8  1  0  0  0  0
 18 15  1  0  0  0  0
 19 16  1  0  0  0  0
 20 29  1  1  0  0  0
 20 10  1  0  0  0  0
 21  4  2  0  0  0  0
 22 21  1  0  0  0  0
 27 14  1  0  0  0  0
 28  9  1  0  0  0  0
 28 23  1  0  0  0  0
 29 30  1  0  0  0  0
 30 32  1  0  0  0  0
 31 30  2  0  0  0  0
M  END
>  <MODEL>
5

>  <REMARK>
 VINA RESULT:      -7.6      2.722      7.262
  Name = 
  2 active torsions:
  status: ('A' for Active; 'I' for Inactive)
    1  A    between atoms: C_20  and  C_29
    2  A    between atoms: C_29  and  C_30
                            x       y       z     vdW  Elec       q    Type
                         _______ _______ _______ _____ _____    ______ ____

>  <TORSDO>
F 2

$$$$
=
 OpenBabel11112416323D

 32 37  0  0  1  0  0  0  0  0999 V2000
  187.4460  177.5420  142.3010 O   0  0  0  0  0  0  0  0  0  0  0  0
  191.1130  174.8980  143.0620 N   0  0  1  0  0  0  0  0  0  0  0  0
  193.8200  176.4080  146.8880 C   0  0  0  0  0  3  0  0  0  0  0  0
  194.9390  175.8030  146.3170 C   0  0  0  0  0  3  0  0  0  0  0  0
  192.2630  174.1660  140.9490 C   0  0  1  0  0  3  0  0  0  0  0  0
  193.6430  174.0780  140.2820 C   0  0  1  0  0  3  0  0  0  0  0  0
  188.6690  175.0240  143.0610 C   0  0  1  0  0  3  0  0  0  0  0  0
  189.9770  175.7110  145.1100 C   0  0  0  0  0  2  0  0  0  0  0  0
  195.9300  174.2810  140.4560 C   0  0  2  0  0  3  0  0  0  0  0  0
  187.9880  176.9860  144.5150 C   0  0  0  0  0  3  0  0  0  0  0  0
  192.6040  176.4150  146.2000 C   0  0  0  0  0  3  0  0  0  0  0  0
  191.1870  175.8780  144.1740 C   0  0  1  0  0  3  0  0  0  0  0  0
  192.4910  175.8030  144.9410 C   0  0  0  0  0  0  0  0  0  0  0  0
  193.5540  174.5720  143.0060 C   0  0  2  0  0  3  0  0  0  0  0  0
  195.4840  175.1540  139.2850 C   0  0  0  0  0  2  0  0  0  0  0  0
  187.0610  176.4050  141.5620 C   0  0  0  0  0  2  0  0  0  0  0  0
  188.7420  175.8960  144.2940 C   0  0  0  0  0  0  0  0  0  0  0  0
  193.9780  175.2400  139.3840 C   0  0  0  0  0  2  0  0  0  0  0  0
  187.3710  175.0600  142.2470 C   0  0  0  0  0  2  0  0  0  0  0  0
  186.9000  177.4270  143.5880 C   0  0  1  0  0  3  0  0  0  0  0  0
  194.8490  175.2180  145.0520 C   0  0  0  0  0  3  0  0  0  0  0  0
  193.6390  175.2410  144.3460 C   0  0  0  0  0  0  0  0  0  0  0  0
  194.6730  174.8830  142.2180 O   0  0  0  0  0  0  0  0  0  0  0  0
  189.9360  175.2300  142.2400 C   0  0  0  0  0  2  0  0  0  0  0  0
  191.8210  172.8740  141.2470 O   0  0  0  0  0  1  0  0  0  0  0  0
  196.6070  173.0260  139.9380 C   0  0  0  0  0  1  0  0  0  0  0  0
  192.3200  175.0200  142.2270 C   0  0  2  0  0  3  0  0  0  0  0  0
  194.7520  173.9260  141.2420 N   0  0  1  0  0  0  0  0  0  0  0  0
  186.3610  178.7700  144.0480 C   0  0  0  0  0  2  0  0  0  0  0  0
  184.8870  178.6980  144.2530 C   0  0  0  0  0  0  0  0  0  0  0  0
  184.1410  178.2980  143.3210 O   0  0  0  0  0  0  0  0  0  0  0  0
  184.3390  179.0410  145.4820 O   0  0  0  0  0  1  0  0  0  0  0  0
  1 20  1  0  0  0  0
  2 24  1  6  0  0  0
  2 12  1  0  0  0  0
  4  3  1  0  0  0  0
  5 25  1  1  0  0  0
  5 27  1  0  0  0  0
  6 18  1  1  0  0  0
  6  5  1  0  0  0  0
  6 28  1  0  0  0  0
  7 24  1  6  0  0  0
  7 17  1  0  0  0  0
  9 26  1  6  0  0  0
  9 28  1  0  0  0  0
 11  3  2  0  0  0  0
 12 13  1  0  0  0  0
 12  8  1  1  0  0  0
 13 11  1  0  0  0  0
 14 23  1  6  0  0  0
 14 22  1  0  0  0  0
 15 18  1  0  0  0  0
 15  9  1  0  0  0  0
 16 19  1  0  0  0  0
 16  1  1  0  0  0  0
 17 10  2  0  0  0  0
 17  8  1  0  0  0  0
 19  7  1  0  0  0  0
 20 29  1  1  0  0  0
 20 10  1  0  0  0  0
 21  4  2  0  0  0  0
 22 13  2  0  0  0  0
 22 21  1  0  0  0  0
 27 14  1  0  0  0  0
 27  2  1  0  0  0  0
 28 23  1  0  0  0  0
 29 30  1  0  0  0  0
 30 32  1  0  0  0  0
 31 30  2  0  0  0  0
M  END
>  <MODEL>
6

>  <REMARK>
 VINA RESULT:      -7.5      2.382      3.319
  Name = 
  2 active torsions:
  status: ('A' for Active; 'I' for Inactive)
    1  A    between atoms: C_20  and  C_29
    2  A    between atoms: C_29  and  C_30
                            x       y       z     vdW  Elec       q    Type
                         _______ _______ _______ _____ _____    ______ ____

>  <TORSDO>
F 2

$$$$
=
 OpenBabel11112416323D

 32 37  0  0  1  0  0  0  0  0999 V2000
  194.3850  176.5060  145.1720 O   0  0  0  0  0  0  0  0  0  0  0  0
  190.1370  175.0860  144.1980 N   0  0  1  0  0  0  0  0  0  0  0  0
  189.9110  172.3300  140.1240 C   0  0  0  0  0  3  0  0  0  0  0  0
  188.5810  172.7140  139.9550 C   0  0  0  0  0  3  0  0  0  0  0  0
  188.3870  176.8480  144.5950 C   0  0  1  0  0  3  0  0  0  0  0  0
  187.1810  177.5350  143.9390 C   0  0  1  0  0  3  0  0  0  0  0  0
  192.0120  174.9480  145.7650 C   0  0  1  0  0  3  0  0  0  0  0  0
  191.9160  173.4160  143.7600 C   0  0  0  0  0  2  0  0  0  0  0  0
  185.6710  177.6260  142.2030 C   0  0  2  0  0  3  0  0  0  0  0  0
  194.0790  174.2940  144.4530 C   0  0  0  0  0  3  0  0  0  0  0  0
  190.6670  172.8750  141.1640 C   0  0  0  0  0  3  0  0  0  0  0  0
  190.9450  174.4350  143.1370 C   0  0  1  0  0  3  0  0  0  0  0  0
  190.0960  173.7980  142.0560 C   0  0  0  0  0  0  0  0  0  0  0  0
  188.1240  175.2010  142.7840 C   0  0  2  0  0  3  0  0  0  0  0  0
  186.3250  179.0010  142.3090 C   0  0  0  0  0  2  0  0  0  0  0  0
  193.7800  176.7300  146.4250 C   0  0  0  0  0  2  0  0  0  0  0  0
  192.7750  174.1440  144.7370 C   0  0  0  0  0  0  0  0  0  0  0  0
  187.5050  178.8280  143.2360 C   0  0  0  0  0  2  0  0  0  0  0  0
  192.8210  175.6150  146.8830 C   0  0  0  0  0  2  0  0  0  0  0  0
  194.9740  175.2330  145.1980 C   0  0  1  0  0  3  0  0  0  0  0  0
  188.0100  173.6540  140.8150 C   0  0  0  0  0  3  0  0  0  0  0  0
  188.7680  174.2220  141.8480 C   0  0  0  0  0  0  0  0  0  0  0  0
  187.3430  176.1310  142.0800 O   0  0  0  0  0  0  0  0  0  0  0  0
  191.0470  175.8800  145.0410 C   0  0  0  0  0  2  0  0  0  0  0  0
  187.9350  176.0520  145.6510 O   0  0  0  0  0  1  0  0  0  0  0  0
  184.2550  177.6820  142.7450 C   0  0  0  0  0  1  0  0  0  0  0  0
  189.1610  175.9940  143.5750 C   0  0  2  0  0  3  0  0  0  0  0  0
  186.4660  176.6770  142.9780 N   0  0  1  0  0  0  0  0  0  0  0  0
  196.3340  175.2740  144.5230 C   0  0  0  0  0  2  0  0  0  0  0  0
  197.1830  174.1440  144.9910 C   0  0  0  0  0  0  0  0  0  0  0  0
  197.9180  173.5290  144.1740 O   0  0  0  0  0  0  0  0  0  0  0  0
  197.1920  173.7890  146.3330 O   0  0  0  0  0  1  0  0  0  0  0  0
  1 20  1  0  0  0  0
  1 16  1  0  0  0  0
  2 24  1  1  0  0  0
  3 11  1  0  0  0  0
  4  3  2  0  0  0  0
  4 21  1  0  0  0  0
  5 25  1  1  0  0  0
  6 18  1  6  0  0  0
  6  5  1  0  0  0  0
  7 24  1  6  0  0  0
  7 19  1  0  0  0  0
  8 17  1  0  0  0  0
  9 15  1  0  0  0  0
  9 26  1  1  0  0  0
  9 28  1  0  0  0  0
 10 17  2  0  0  0  0
 10 20  1  0  0  0  0
 11 13  2  0  0  0  0
 12  8  1  1  0  0  0
 12  2  1  0  0  0  0
 13 12  1  0  0  0  0
 14 22  1  6  0  0  0
 14 27  1  0  0  0  0
 15 18  1  0  0  0  0
 16 19  1  0  0  0  0
 17  7  1  0  0  0  0
 20 29  1  6  0  0  0
 21 22  2  0  0  0  0
 22 13  1  0  0  0  0
 23 14  1  0  0  0  0
 23 28  1  0  0  0  0
 27  2  1  0  0  0  0
 27  5  1  0  0  0  0
 28  6  1  0  0  0  0
 29 30  1  0  0  0  0
 30 32  1  0  0  0  0
 31 30  2  0  0  0  0
M  END
>  <MODEL>
7

>  <REMARK>
 VINA RESULT:      -7.1      2.170      8.608
  Name = 
  2 active torsions:
  status: ('A' for Active; 'I' for Inactive)
    1  A    between atoms: C_20  and  C_29
    2  A    between atoms: C_29  and  C_30
                            x       y       z     vdW  Elec       q    Type
                         _______ _______ _______ _____ _____    ______ ____

>  <TORSDO>
F 2

$$$$
=
 OpenBabel11112416323D

 32 37  0  0  1  0  0  0  0  0999 V2000
  193.1450  172.5630  142.2320 O   0  0  0  0  0  0  0  0  0  0  0  0
  191.2060  176.4320  143.7440 N   0  0  1  0  0  0  0  0  0  0  0  0
  191.5680  176.9930  148.6220 C   0  0  0  0  0  3  0  0  0  0  0  0
  190.4230  177.7900  148.6020 C   0  0  0  0  0  3  0  0  0  0  0  0
  189.0310  176.9650  142.5980 C   0  0  1  0  0  3  0  0  0  0  0  0
  187.5750  177.3630  142.8760 C   0  0  1  0  0  3  0  0  0  0  0  0
  193.0070  175.4560  142.4050 C   0  0  1  0  0  3  0  0  0  0  0  0
  193.3190  175.8150  144.8850 C   0  0  0  0  0  2  0  0  0  0  0  0
  185.9710  178.0310  144.3870 C   0  0  2  0  0  3  0  0  0  0  0  0
  194.2660  173.8140  143.8700 C   0  0  0  0  0  3  0  0  0  0  0  0
  192.0150  176.3840  147.4470 C   0  0  0  0  0  3  0  0  0  0  0  0
  191.7830  175.8560  144.9840 C   0  0  1  0  0  3  0  0  0  0  0  0
  191.3300  176.5770  146.2370 C   0  0  0  0  0  0  0  0  0  0  0  0
  189.3910  177.5730  144.9570 C   0  0  2  0  0  3  0  0  0  0  0  0
  185.4360  176.7920  143.6730 C   0  0  0  0  0  2  0  0  0  0  0  0
  193.0620  173.2650  141.0120 C   0  0  0  0  0  2  0  0  0  0  0  0
  193.6760  175.0070  143.6840 C   0  0  0  0  0  0  0  0  0  0  0  0
  186.6100  176.2080  142.9220 C   0  0  0  0  0  2  0  0  0  0  0  0
  193.4270  174.7590  141.1060 C   0  0  0  0  0  2  0  0  0  0  0  0
  194.4140  172.7990  142.7810 C   0  0  1  0  0  3  0  0  0  0  0  0
  189.7160  177.9650  147.4110 C   0  0  0  0  0  3  0  0  0  0  0  0
  190.1440  177.3390  146.2320 C   0  0  0  0  0  0  0  0  0  0  0  0
  188.0060  177.4900  145.1680 O   0  0  0  0  0  0  0  0  0  0  0  0
  191.5010  175.5100  142.6330 C   0  0  0  0  0  2  0  0  0  0  0  0
  189.6930  178.0470  142.0130 O   0  0  0  0  0  1  0  0  0  0  0  0
  185.2580  179.2700  143.8780 C   0  0  0  0  0  1  0  0  0  0  0  0
  189.7450  176.5370  143.8930 C   0  0  2  0  0  3  0  0  0  0  0  0
  187.4030  178.1330  144.1210 N   0  0  1  0  0  0  0  0  0  0  0  0
  194.9770  171.5150  143.3640 C   0  0  0  0  0  2  0  0  0  0  0  0
  196.3120  171.7600  143.9770 C   0  0  0  0  0  0  0  0  0  0  0  0
  197.2750  172.1340  143.2580 O   0  0  0  0  0  0  0  0  0  0  0  0
  196.4870  171.6080  145.3460 O   0  0  0  0  0  1  0  0  0  0  0  0
  1 20  1  0  0  0  0
  2 24  1  6  0  0  0
  2 27  1  0  0  0  0
  2 12  1  0  0  0  0
  4  3  1  0  0  0  0
  5 25  1  1  0  0  0
  5  6  1  0  0  0  0
  5 27  1  0  0  0  0
  6 18  1  1  0  0  0
  6 28  1  0  0  0  0
  7 19  1  6  0  0  0
  7 24  1  0  0  0  0
  7 17  1  0  0  0  0
  9 26  1  6  0  0  0
 11  3  2  0  0  0  0
 12  8  1  6  0  0  0
 12 13  1  0  0  0  0
 13 11  1  0  0  0  0
 14 23  1  1  0  0  0
 14 22  1  0  0  0  0
 15  9  1  0  0  0  0
 16 19  1  0  0  0  0
 16  1  1  0  0  0  0
 17 10  2  0  0  0  0
 17  8  1  0  0  0  0
 18 15  1  0  0  0  0
 20 29  1  1  0  0  0
 20 10  1  0  0  0  0
 21  4  2  0  0  0  0
 22 13  2  0  0  0  0
 22 21  1  0  0  0  0
 27 14  1  0  0  0  0
 28  9  1  0  0  0  0
 28 23  1  0  0  0  0
 29 30  1  0  0  0  0
 30 32  1  0  0  0  0
 31 30  2  0  0  0  0
M  END
>  <MODEL>
8

>  <REMARK>
 VINA RESULT:      -7.0      2.420      7.543
  Name = 
  2 active torsions:
  status: ('A' for Active; 'I' for Inactive)
    1  A    between atoms: C_20  and  C_29
    2  A    between atoms: C_29  and  C_30
                            x       y       z     vdW  Elec       q    Type
                         _______ _______ _______ _____ _____    ______ ____

>  <TORSDO>
F 2

$$$$
=
 OpenBabel11112416323D

 32 37  0  0  1  0  0  0  0  0999 V2000
  195.0310  177.4380  144.7960 O   0  0  0  0  0  0  0  0  0  0  0  0
  190.9480  175.3550  144.8830 N   0  0  1  0  0  0  0  0  0  0  0  0
  189.5690  173.6280  140.4830 C   0  0  0  0  0  3  0  0  0  0  0  0
  188.2340  173.7290  140.8770 C   0  0  0  0  0  3  0  0  0  0  0  0
  189.2620  176.5360  146.3290 C   0  0  1  0  0  3  0  0  0  0  0  0
  187.8210  177.0640  146.3340 C   0  0  1  0  0  3  0  0  0  0  0  0
  193.2740  175.2890  145.6410 C   0  0  1  0  0  3  0  0  0  0  0  0
  192.6320  174.2760  143.4180 C   0  0  0  0  0  2  0  0  0  0  0  0
  185.7720  177.2060  145.2930 C   0  0  2  0  0  3  0  0  0  0  0  0
  194.7650  175.4390  143.5960 C   0  0  0  0  0  3  0  0  0  0  0  0
  190.5830  174.0770  141.3330 C   0  0  0  0  0  3  0  0  0  0  0  0
  191.3760  175.1640  143.4750 C   0  0  1  0  0  3  0  0  0  0  0  0
  190.2740  174.6170  142.5920 C   0  0  0  0  0  0  0  0  0  0  0  0
  188.5540  175.3320  144.3010 C   0  0  2  0  0  3  0  0  0  0  0  0
  186.2360  178.6320  145.5810 C   0  0  0  0  0  2  0  0  0  0  0  0
  194.9150  177.2260  146.1850 C   0  0  0  0  0  2  0  0  0  0  0  0
  193.6930  174.9360  144.2320 C   0  0  0  0  0  0  0  0  0  0  0  0
  187.6890  178.5220  145.9790 C   0  0  0  0  0  2  0  0  0  0  0  0
  194.3500  175.8480  146.5790 C   0  0  0  0  0  2  0  0  0  0  0  0
  195.7450  176.3590  144.2520 C   0  0  1  0  0  3  0  0  0  0  0  0
  187.9120  174.2930  142.1130 C   0  0  0  0  0  3  0  0  0  0  0  0
  188.9210  174.7660  142.9620 C   0  0  0  0  0  0  0  0  0  0  0  0
  187.4540  176.1970  144.1970 O   0  0  0  0  0  0  0  0  0  0  0  0
  191.9970  176.1200  145.5790 C   0  0  0  0  0  2  0  0  0  0  0  0
  189.3460  175.4380  147.1890 O   0  0  0  0  0  1  0  0  0  0  0  0
  184.6680  176.8140  146.2570 C   0  0  0  0  0  1  0  0  0  0  0  0
  189.7010  176.1370  144.9090 C   0  0  2  0  0  3  0  0  0  0  0  0
  186.9150  176.3100  145.4500 N   0  0  1  0  0  0  0  0  0  0  0  0
  196.7350  176.8610  143.2160 C   0  0  0  0  0  2  0  0  0  0  0  0
  196.4170  176.3000  141.8740 C   0  0  0  0  0  0  0  0  0  0  0  0
  196.9820  175.2450  141.4820 O   0  0  0  0  0  1  0  0  0  0  0  0
  195.4720  176.9190  141.0670 O   0  0  0  0  0  0  0  0  0  0  0  0
  1 16  1  0  0  0  0
  2 27  1  0  0  0  0
  2 24  1  1  0  0  0
  3  4  2  0  0  0  0
  3 11  1  0  0  0  0
  4 21  1  0  0  0  0
  5  6  1  0  0  0  0
  5 25  1  1  0  0  0
  6 18  1  6  0  0  0
  7 24  1  6  0  0  0
  7 19  1  0  0  0  0
  8 17  1  0  0  0  0
  9 28  1  0  0  0  0
  9 15  1  0  0  0  0
  9 26  1  1  0  0  0
 10 17  2  0  0  0  0
 10 20  1  0  0  0  0
 11 13  2  0  0  0  0
 12  8  1  1  0  0  0
 12  2  1  0  0  0  0
 13 22  1  0  0  0  0
 13 12  1  0  0  0  0
 14 22  1  6  0  0  0
 14 27  1  0  0  0  0
 15 18  1  0  0  0  0
 16 19  1  0  0  0  0
 17  7  1  0  0  0  0
 20 29  1  6  0  0  0
 20  1  1  0  0  0  0
 21 22  2  0  0  0  0
 23 14  1  0  0  0  0
 23 28  1  0  0  0  0
 27  5  1  0  0  0  0
 28  6  1  0  0  0  0
 30 29  1  0  0  0  0
 31 30  1  0  0  0  0
 32 30  2  0  0  0  0
M  END
>  <MODEL>
9

>  <REMARK>
 VINA RESULT:      -6.8      2.585      8.026
  Name = 
  2 active torsions:
  status: ('A' for Active; 'I' for Inactive)
    1  A    between atoms: C_20  and  C_29
    2  A    between atoms: C_29  and  C_30
                            x       y       z     vdW  Elec       q    Type
                         _______ _______ _______ _____ _____    ______ ____

>  <TORSDO>
F 2

$$$$
