=
 OpenBabel11112416223D

 30 35  0  0  1  0  0  0  0  0999 V2000
  186.9610  176.6710  144.1090 C   0  0  2  0  0  3  0  0  0  0  0  0
  185.1630  177.9870  145.3630 C   0  0  0  0  0  0  0  0  0  0  0  0
  189.4720  177.1100  147.5750 N   0  0  0  0  0  2  0  0  0  0  0  0
  188.4180  176.0830  144.1940 C   0  0  1  0  0  3  0  0  0  0  0  0
  186.7650  177.5110  142.8430 C   0  0  0  0  0  2  0  0  0  0  0  0
  187.8480  174.4290  141.7770 O   0  0  0  0  0  1  0  0  0  0  0  0
  191.6510  176.3300  143.2040 C   0  0  1  0  0  3  0  0  0  0  0  0
  188.2330  175.7670  141.6680 C   0  0  1  0  0  3  0  0  0  0  0  0
  191.6640  176.8840  144.6400 C   0  0  2  0  0  3  0  0  0  0  0  0
  190.7240  176.7550  147.0080 C   0  0  0  0  0  0  0  0  0  0  0  0
  186.9830  176.6550  141.5890 C   0  0  2  0  0  3  0  0  0  0  0  0
  189.1450  176.1610  142.8340 C   0  0  2  0  0  3  0  0  0  0  0  0
  184.7020  178.6660  146.4950 C   0  0  0  0  0  3  0  0  0  0  0  0
  193.0660  176.5910  145.0980 C   0  0  0  0  0  2  0  0  0  0  0  0
  192.8750  175.6930  142.9330 O   0  0  0  0  0  0  0  0  0  0  0  0
  184.3460  177.8890  144.2860 F   0  0  0  0  0  0  0  0  0  0  0  0
  188.5010  176.7040  146.5790 C   0  0  2  0  0  3  0  0  0  0  0  0
  185.4960  178.7560  147.6380 C   0  0  0  0  0  3  0  0  0  0  0  0
  186.4510  177.4100  145.3530 C   0  0  0  0  0  0  0  0  0  0  0  0
  189.2270  176.8040  145.2620 C   0  0  1  0  0  3  0  0  0  0  0  0
  191.7930  176.7910  147.6740 O   0  0  0  0  0  0  0  0  0  0  0  0
  190.6200  176.2740  145.5900 C   0  0  1  0  0  3  0  0  0  0  0  0
  193.7950  176.2600  143.8230 C   0  0  0  0  0  2  0  0  0  0  0  0
  190.4620  174.2260  143.4950 O   0  0  0  0  0  1  0  0  0  0  0  0
  186.7550  178.1550  147.6600 C   0  0  0  0  0  3  0  0  0  0  0  0
  187.2400  177.4950  146.5250 C   0  0  0  0  0  0  0  0  0  0  0  0
  190.4840  175.4270  142.7800 C   0  0  2  0  0  3  0  0  0  0  0  0
  187.0650  177.5410  140.3550 C   0  0  0  0  0  2  0  0  0  0  0  0
  184.6850  178.2910  140.3560 C   0  0  0  0  0  1  0  0  0  0  0  0
  185.7540  177.5410  139.5840 C   0  0  0  0  0  2  0  0  0  0  0  0
  1  5  1  6  0  0  0
  1  4  1  0  0  0  0
  1 19  1  0  0  0  0
  2 13  1  0  0  0  0
  4 20  1  0  0  0  0
  7  9  1  0  0  0  0
  8  6  1  0  0  0  0
  8 12  1  0  0  0  0
  9 14  1  0  0  0  0
  9 22  1  0  0  0  0
 10  3  1  0  0  0  0
 10 21  2  0  0  0  0
 11  8  1  0  0  0  0
 11  5  1  0  0  0  0
 12  4  1  0  0  0  0
 13 18  2  0  0  0  0
 15  7  1  0  0  0  0
 15 23  1  0  0  0  0
 16  2  1  0  0  0  0
 17  3  1  0  0  0  0
 18 25  1  0  0  0  0
 19  2  2  0  0  0  0
 19 26  1  0  0  0  0
 20 22  1  0  0  0  0
 20 17  1  0  0  0  0
 22 10  1  0  0  0  0
 23 14  1  0  0  0  0
 26 17  1  0  0  0  0
 26 25  2  0  0  0  0
 27 12  1  0  0  0  0
 27  7  1  0  0  0  0
 27 24  1  0  0  0  0
 28 11  1  0  0  0  0
 30 28  1  0  0  0  0
 30 29  1  0  0  0  0
M  END
>  <MODEL>
1

>  <REMARK>
 VINA RESULT:      -9.1      0.000      0.000
  Name = 
  2 active torsions:
  status: ('A' for Active; 'I' for Inactive)
    1  A    between atoms: C_11  and  C_28
    2  A    between atoms: C_28  and  C_30
                            x       y       z     vdW  Elec       q    Type
                         _______ _______ _______ _____ _____    ______ ____

>  <TORSDO>
F 2

$$$$
=
 OpenBabel11112416223D

 30 35  0  0  1  0  0  0  0  0999 V2000
  187.9830  177.6550  145.1050 C   0  0  2  0  0  3  0  0  0  0  0  0
  185.8450  178.6030  146.1380 C   0  0  0  0  0  0  0  0  0  0  0  0
  185.9540  177.6440  141.3110 N   0  0  0  0  0  2  0  0  0  0  0  0
  188.6590  177.1660  143.7710 C   0  0  1  0  0  3  0  0  0  0  0  0
  188.1230  176.6160  146.2230 C   0  0  0  0  0  2  0  0  0  0  0  0
  191.3150  177.2670  145.1270 O   0  0  0  0  0  1  0  0  0  0  0  0
  189.7520  174.5370  141.9310 C   0  0  1  0  0  3  0  0  0  0  0  0
  190.4640  176.1690  145.2750 C   0  0  1  0  0  3  0  0  0  0  0  0
  188.4280  174.9340  141.2520 C   0  0  2  0  0  3  0  0  0  0  0  0
  186.8300  176.8030  140.5750 C   0  0  0  0  0  0  0  0  0  0  0  0
  189.6020  176.3540  146.5320 C   0  0  2  0  0  3  0  0  0  0  0  0
  189.6120  175.9750  144.0170 C   0  0  2  0  0  3  0  0  0  0  0  0
  184.5270  179.0570  146.0340 C   0  0  0  0  0  3  0  0  0  0  0  0
  188.6360  174.4920  139.8310 C   0  0  0  0  0  2  0  0  0  0  0  0
  190.6440  174.0350  140.9670 O   0  0  0  0  0  0  0  0  0  0  0  0
  186.4400  178.6060  147.3560 F   0  0  0  0  0  0  0  0  0  0  0  0
  186.6960  177.9680  142.5130 C   0  0  2  0  0  3  0  0  0  0  0  0
  183.8920  179.1070  144.7940 C   0  0  0  0  0  3  0  0  0  0  0  0
  186.5390  178.1610  144.9920 C   0  0  0  0  0  0  0  0  0  0  0  0
  187.6040  176.7870  142.7420 C   0  0  1  0  0  3  0  0  0  0  0  0
  186.5940  176.4730  139.3840 O   0  0  0  0  0  0  0  0  0  0  0  0
  188.0690  176.4270  141.3340 C   0  0  1  0  0  3  0  0  0  0  0  0
  189.8390  173.5910  139.9100 C   0  0  0  0  0  2  0  0  0  0  0  0
  190.8960  176.6800  142.0760 O   0  0  0  0  0  1  0  0  0  0  0  0
  184.5770  178.7140  143.6440 C   0  0  0  0  0  3  0  0  0  0  0  0
  185.8880  178.2320  143.7360 C   0  0  0  0  0  0  0  0  0  0  0  0
  190.4610  175.5740  142.8120 C   0  0  2  0  0  3  0  0  0  0  0  0
  189.7440  175.1350  147.4310 C   0  0  0  0  0  2  0  0  0  0  0  0
  191.5030  176.5410  148.5060 C   0  0  0  0  0  1  0  0  0  0  0  0
  191.0850  175.1270  148.1480 C   0  0  0  0  0  2  0  0  0  0  0  0
  1  5  1  1  0  0  0
  2 16  1  0  0  0  0
  3 17  1  0  0  0  0
  4 12  1  0  0  0  0
  4  1  1  0  0  0  0
  5 11  1  0  0  0  0
  6  8  1  0  0  0  0
  7 27  1  0  0  0  0
  8 11  1  0  0  0  0
  9 22  1  0  0  0  0
  9  7  1  0  0  0  0
 10  3  1  0  0  0  0
 10 22  1  0  0  0  0
 11 28  1  0  0  0  0
 12  8  1  0  0  0  0
 13  2  1  0  0  0  0
 14 23  1  0  0  0  0
 14  9  1  0  0  0  0
 15  7  1  0  0  0  0
 17 20  1  0  0  0  0
 17 26  1  0  0  0  0
 18 13  2  0  0  0  0
 19  1  1  0  0  0  0
 19  2  2  0  0  0  0
 20  4  1  0  0  0  0
 21 10  2  0  0  0  0
 22 20  1  0  0  0  0
 23 15  1  0  0  0  0
 24 27  1  0  0  0  0
 25 26  2  0  0  0  0
 25 18  1  0  0  0  0
 26 19  1  0  0  0  0
 27 12  1  0  0  0  0
 28 30  1  0  0  0  0
 30 29  1  0  0  0  0
M  END
>  <MODEL>
2

>  <REMARK>
 VINA RESULT:      -8.5      2.232      5.322
  Name = 
  2 active torsions:
  status: ('A' for Active; 'I' for Inactive)
    1  A    between atoms: C_11  and  C_28
    2  A    between atoms: C_28  and  C_30
                            x       y       z     vdW  Elec       q    Type
                         _______ _______ _______ _____ _____    ______ ____

>  <TORSDO>
F 2

$$$$
=
 OpenBabel11112416223D

 30 35  0  0  1  0  0  0  0  0999 V2000
  190.0510  174.6590  144.6100 C   0  0  2  0  0  3  0  0  0  0  0  0
  191.8250  173.5450  143.1440 C   0  0  0  0  0  0  0  0  0  0  0  0
  187.9140  175.6320  141.0050 N   0  0  0  0  0  2  0  0  0  0  0  0
  188.6840  175.4370  144.6060 C   0  0  1  0  0  3  0  0  0  0  0  0
  191.1170  175.3950  145.4290 C   0  0  0  0  0  2  0  0  0  0  0  0
  188.4410  174.9480  147.5390 O   0  0  0  0  0  1  0  0  0  0  0  0
  187.0940  178.4030  145.0180 C   0  0  1  0  0  3  0  0  0  0  0  0
  189.2130  175.9990  147.0390 C   0  0  1  0  0  3  0  0  0  0  0  0
  187.1260  178.2140  143.4910 C   0  0  2  0  0  3  0  0  0  0  0  0
  187.0130  176.6020  141.5170 C   0  0  0  0  0  0  0  0  0  0  0  0
  190.6710  175.5380  146.8900 C   0  0  2  0  0  3  0  0  0  0  0  0
  188.6340  176.5100  145.7160 C   0  0  2  0  0  3  0  0  0  0  0  0
  192.3240  173.1620  141.8970 C   0  0  0  0  0  3  0  0  0  0  0  0
  185.9150  178.9790  143.0340 C   0  0  0  0  0  2  0  0  0  0  0  0
  185.9280  179.0990  145.3830 O   0  0  0  0  0  0  0  0  0  0  0  0
  192.5400  173.2350  144.2540 F   0  0  0  0  0  0  0  0  0  0  0  0
  188.4780  175.0100  142.1860 C   0  0  2  0  0  3  0  0  0  0  0  0
  191.6010  173.4270  140.7340 C   0  0  0  0  0  3  0  0  0  0  0  0
  190.5960  174.2320  143.2410 C   0  0  0  0  0  0  0  0  0  0  0  0
  188.4340  176.0780  143.2480 C   0  0  1  0  0  3  0  0  0  0  0  0
  186.2000  177.2150  140.7760 O   0  0  0  0  0  0  0  0  0  0  0  0
  187.0870  176.7540  143.0080 C   0  0  1  0  0  3  0  0  0  0  0  0
  185.5410  179.8040  144.2370 C   0  0  0  0  0  2  0  0  0  0  0  0
  186.2150  176.2600  145.7650 O   0  0  0  0  0  1  0  0  0  0  0  0
  190.3640  174.0670  140.8140 C   0  0  0  0  0  3  0  0  0  0  0  0
  189.8640  174.4800  142.0550 C   0  0  0  0  0  0  0  0  0  0  0  0
  187.2690  177.1670  145.9110 C   0  0  2  0  0  3  0  0  0  0  0  0
  191.5870  176.5020  147.6280 C   0  0  0  0  0  2  0  0  0  0  0  0
  191.5080  178.0380  149.5930 C   0  0  0  0  0  1  0  0  0  0  0  0
  190.7940  177.5940  148.3300 C   0  0  0  0  0  2  0  0  0  0  0  0
  1  5  1  6  0  0  0
  2 19  1  0  0  0  0
  2 16  1  0  0  0  0
  3 10  1  0  0  0  0
  3 17  1  0  0  0  0
  4  1  1  0  0  0  0
  4 12  1  0  0  0  0
  5 11  1  0  0  0  0
  7 15  1  0  0  0  0
  7 27  1  0  0  0  0
  8  6  1  0  0  0  0
  9  7  1  0  0  0  0
 10 22  1  0  0  0  0
 11  8  1  0  0  0  0
 11 28  1  0  0  0  0
 12 27  1  0  0  0  0
 12  8  1  0  0  0  0
 13  2  2  0  0  0  0
 14  9  1  0  0  0  0
 14 23  1  0  0  0  0
 17 20  1  0  0  0  0
 18 25  2  0  0  0  0
 18 13  1  0  0  0  0
 19  1  1  0  0  0  0
 20  4  1  0  0  0  0
 21 10  2  0  0  0  0
 22 20  1  0  0  0  0
 22  9  1  0  0  0  0
 23 15  1  0  0  0  0
 24 27  1  0  0  0  0
 25 26  1  0  0  0  0
 26 17  1  0  0  0  0
 26 19  2  0  0  0  0
 28 30  1  0  0  0  0
 30 29  1  0  0  0  0
M  END
>  <MODEL>
3

>  <REMARK>
 VINA RESULT:      -8.3      3.174      7.121
  Name = 
  2 active torsions:
  status: ('A' for Active; 'I' for Inactive)
    1  A    between atoms: C_11  and  C_28
    2  A    between atoms: C_28  and  C_30
                            x       y       z     vdW  Elec       q    Type
                         _______ _______ _______ _____ _____    ______ ____

>  <TORSDO>
F 2

$$$$
=
 OpenBabel11112416223D

 30 35  0  0  1  0  0  0  0  0999 V2000
  187.5020  177.4890  143.6920 C   0  0  2  0  0  3  0  0  0  0  0  0
  185.5410  178.5380  142.4290 C   0  0  0  0  0  0  0  0  0  0  0  0
  188.2530  175.0850  140.2050 N   0  0  0  0  0  2  0  0  0  0  0  0
  188.6730  176.4430  143.6070 C   0  0  1  0  0  3  0  0  0  0  0  0
  186.6480  177.2800  144.9470 C   0  0  0  0  0  2  0  0  0  0  0  0
  189.8800  177.6540  146.0520 O   0  0  0  0  0  1  0  0  0  0  0  0
  189.8670  173.4200  144.5740 C   0  0  1  0  0  3  0  0  0  0  0  0
  188.8480  176.7170  146.1390 C   0  0  1  0  0  3  0  0  0  0  0  0
  189.3910  173.1820  143.1290 C   0  0  2  0  0  3  0  0  0  0  0  0
  189.1190  174.1110  140.7690 C   0  0  0  0  0  0  0  0  0  0  0  0
  187.4990  177.4470  146.2120 C   0  0  2  0  0  3  0  0  0  0  0  0
  188.9090  175.7390  144.9620 C   0  0  2  0  0  3  0  0  0  0  0  0
  184.7410  178.6660  141.2910 C   0  0  0  0  0  3  0  0  0  0  0  0
  190.2780  172.0590  142.6670 C   0  0  0  0  0  2  0  0  0  0  0  0
  190.9750  172.6000  144.8470 O   0  0  0  0  0  0  0  0  0  0  0  0
  185.2570  179.3020  143.5130 F   0  0  0  0  0  0  0  0  0  0  0  0
  188.1790  176.1230  141.2130 C   0  0  2  0  0  3  0  0  0  0  0  0
  185.0230  177.9280  140.1410 C   0  0  0  0  0  3  0  0  0  0  0  0
  186.6270  177.6370  142.4400 C   0  0  0  0  0  0  0  0  0  0  0  0
  188.3950  175.4110  142.5230 C   0  0  1  0  0  3  0  0  0  0  0  0
  189.5650  173.1440  140.0970 O   0  0  0  0  0  0  0  0  0  0  0  0
  189.4890  174.3990  142.1950 C   0  0  1  0  0  3  0  0  0  0  0  0
  190.8820  171.5350  143.9430 C   0  0  0  0  0  2  0  0  0  0  0  0
  191.2340  175.4180  144.3210 O   0  0  0  0  0  1  0  0  0  0  0  0
  186.1180  177.0630  140.1200 C   0  0  0  0  0  3  0  0  0  0  0  0
  186.9120  176.9050  141.2620 C   0  0  0  0  0  0  0  0  0  0  0  0
  190.1580  174.8600  145.0180 C   0  0  2  0  0  3  0  0  0  0  0  0
  186.7270  176.9670  147.4320 C   0  0  0  0  0  2  0  0  0  0  0  0
  185.9970  179.3450  147.6390 C   0  0  0  0  0  1  0  0  0  0  0  0
  185.5650  177.8950  147.7530 C   0  0  0  0  0  2  0  0  0  0  0  0
  1  5  1  1  0  0  0
  2 19  1  0  0  0  0
  2 16  1  0  0  0  0
  3 10  1  0  0  0  0
  3 17  1  0  0  0  0
  4  1  1  0  0  0  0
  4 12  1  0  0  0  0
  5 11  1  0  0  0  0
  6  8  1  0  0  0  0
  7 15  1  0  0  0  0
  7 27  1  0  0  0  0
  8 11  1  0  0  0  0
  9  7  1  0  0  0  0
 10 22  1  0  0  0  0
 11 28  1  0  0  0  0
 12 27  1  0  0  0  0
 12  8  1  0  0  0  0
 13  2  2  0  0  0  0
 14  9  1  0  0  0  0
 14 23  1  0  0  0  0
 17 26  1  0  0  0  0
 17 20  1  0  0  0  0
 18 13  1  0  0  0  0
 19  1  1  0  0  0  0
 20  4  1  0  0  0  0
 21 10  2  0  0  0  0
 22 20  1  0  0  0  0
 22  9  1  0  0  0  0
 23 15  1  0  0  0  0
 24 27  1  0  0  0  0
 25 18  2  0  0  0  0
 25 26  1  0  0  0  0
 26 19  2  0  0  0  0
 28 30  1  0  0  0  0
 29 30  1  0  0  0  0
M  END
>  <MODEL>
4

>  <REMARK>
 VINA RESULT:      -8.2      2.247      5.218
  Name = 
  2 active torsions:
  status: ('A' for Active; 'I' for Inactive)
    1  A    between atoms: C_11  and  C_28
    2  A    between atoms: C_28  and  C_30
                            x       y       z     vdW  Elec       q    Type
                         _______ _______ _______ _____ _____    ______ ____

>  <TORSDO>
F 2

$$$$
=
 OpenBabel11112416223D

 30 35  0  0  1  0  0  0  0  0999 V2000
  189.9060  175.6640  143.6750 C   0  0  2  0  0  3  0  0  0  0  0  0
  192.0170  174.4960  144.5220 C   0  0  0  0  0  0  0  0  0  0  0  0
  189.6810  177.6640  147.4770 N   0  0  0  0  0  2  0  0  0  0  0  0
  188.7710  176.6910  144.0390 C   0  0  1  0  0  3  0  0  0  0  0  0
  189.3270  174.3480  143.1460 C   0  0  0  0  0  2  0  0  0  0  0  0
  188.0200  176.8240  141.1540 O   0  0  0  0  0  1  0  0  0  0  0  0
  185.5150  177.1640  144.8590 C   0  0  1  0  0  3  0  0  0  0  0  0
  187.5610  175.7940  141.9780 C   0  0  1  0  0  3  0  0  0  0  0  0
  186.2580  177.3310  146.1970 C   0  0  2  0  0  3  0  0  0  0  0  0
  188.3460  178.1440  147.4150 C   0  0  0  0  0  0  0  0  0  0  0  0
  188.5090  174.5910  141.8720 C   0  0  2  0  0  3  0  0  0  0  0  0
  187.4140  176.2850  143.4220 C   0  0  2  0  0  3  0  0  0  0  0  0
  192.9810  174.2640  145.5060 C   0  0  0  0  0  3  0  0  0  0  0  0
  185.3560  178.2550  146.9670 C   0  0  0  0  0  2  0  0  0  0  0  0
  184.3830  177.9970  144.8410 O   0  0  0  0  0  0  0  0  0  0  0  0
  192.1150  173.8300  143.3450 F   0  0  0  0  0  0  0  0  0  0  0  0
  189.9700  177.2370  146.1220 C   0  0  2  0  0  3  0  0  0  0  0  0
  192.9390  174.9570  146.7150 C   0  0  0  0  0  3  0  0  0  0  0  0
  190.9700  175.4140  144.7510 C   0  0  0  0  0  0  0  0  0  0  0  0
  188.6380  176.8310  145.5490 C   0  0  1  0  0  3  0  0  0  0  0  0
  187.8170  178.7690  148.3710 O   0  0  0  0  0  0  0  0  0  0  0  0
  187.6860  177.8930  146.0910 C   0  0  1  0  0  3  0  0  0  0  0  0
  184.0690  178.2270  146.1860 C   0  0  0  0  0  2  0  0  0  0  0  0
  186.7900  178.6360  143.3980 O   0  0  0  0  0  1  0  0  0  0  0  0
  191.9360  175.8990  146.9430 C   0  0  0  0  0  3  0  0  0  0  0  0
  190.9480  176.1230  145.9770 C   0  0  0  0  0  0  0  0  0  0  0  0
  186.3100  177.3320  143.5560 C   0  0  2  0  0  3  0  0  0  0  0  0
  187.7130  173.3460  141.5120 C   0  0  0  0  0  2  0  0  0  0  0  0
  188.4940  173.7240  139.1720 C   0  0  0  0  0  1  0  0  0  0  0  0
  188.2550  172.6860  140.2520 C   0  0  0  0  0  2  0  0  0  0  0  0
  1  5  1  1  0  0  0
  1  4  1  0  0  0  0
  1 19  1  0  0  0  0
  2 19  2  0  0  0  0
  2 13  1  0  0  0  0
  4 20  1  0  0  0  0
  6  8  1  0  0  0  0
  7  9  1  0  0  0  0
  8 12  1  0  0  0  0
  9 14  1  0  0  0  0
 10  3  1  0  0  0  0
 10 21  2  0  0  0  0
 11  8  1  0  0  0  0
 11  5  1  0  0  0  0
 12 27  1  0  0  0  0
 12  4  1  0  0  0  0
 13 18  2  0  0  0  0
 15  7  1  0  0  0  0
 15 23  1  0  0  0  0
 16  2  1  0  0  0  0
 17  3  1  0  0  0  0
 18 25  1  0  0  0  0
 19 26  1  0  0  0  0
 20 22  1  0  0  0  0
 20 17  1  0  0  0  0
 22  9  1  0  0  0  0
 22 10  1  0  0  0  0
 23 14  1  0  0  0  0
 24 27  1  0  0  0  0
 26 17  1  0  0  0  0
 26 25  2  0  0  0  0
 27  7  1  0  0  0  0
 28 11  1  0  0  0  0
 29 30  1  0  0  0  0
 30 28  1  0  0  0  0
M  END
>  <MODEL>
5

>  <REMARK>
 VINA RESULT:      -8.1      2.735      5.543
  Name = 
  2 active torsions:
  status: ('A' for Active; 'I' for Inactive)
    1  A    between atoms: C_11  and  C_28
    2  A    between atoms: C_28  and  C_30
                            x       y       z     vdW  Elec       q    Type
                         _______ _______ _______ _____ _____    ______ ____

>  <TORSDO>
F 2

$$$$
=
 OpenBabel11112416223D

 30 35  0  0  1  0  0  0  0  0999 V2000
  188.5930  177.6480  143.7750 C   0  0  2  0  0  3  0  0  0  0  0  0
  186.2680  178.7120  143.8020 C   0  0  0  0  0  0  0  0  0  0  0  0
  187.3980  175.5150  140.2340 N   0  0  0  0  0  2  0  0  0  0  0  0
  189.5410  176.6500  143.0120 C   0  0  1  0  0  3  0  0  0  0  0  0
  188.5170  177.3230  145.2700 C   0  0  0  0  0  2  0  0  0  0  0  0
  191.8540  177.7320  144.5560 O   0  0  0  0  0  1  0  0  0  0  0  0
  191.0440  173.6110  142.9820 C   0  0  1  0  0  3  0  0  0  0  0  0
  191.0130  176.7560  145.0950 C   0  0  1  0  0  3  0  0  0  0  0  0
  189.8820  173.4560  141.9830 C   0  0  2  0  0  3  0  0  0  0  0  0
  188.4250  174.5350  140.1890 C   0  0  0  0  0  0  0  0  0  0  0  0
  189.9040  177.4320  145.9160 C   0  0  2  0  0  3  0  0  0  0  0  0
  190.4440  175.8630  143.9880 C   0  0  2  0  0  3  0  0  0  0  0  0
  184.9920  178.8910  143.2600 C   0  0  0  0  0  3  0  0  0  0  0  0
  190.3900  172.3980  141.0430 C   0  0  0  0  0  2  0  0  0  0  0  0
  192.1260  172.8120  142.5740 O   0  0  0  0  0  0  0  0  0  0  0  0
  186.5960  179.3900  144.9300 F   0  0  0  0  0  0  0  0  0  0  0  0
  187.8670  176.4790  141.2100 C   0  0  2  0  0  3  0  0  0  0  0  0
  184.6280  178.2440  142.0800 C   0  0  0  0  0  3  0  0  0  0  0  0
  187.1940  177.8500  143.1770 C   0  0  0  0  0  0  0  0  0  0  0  0
  188.7310  175.6860  142.1570 C   0  0  1  0  0  3  0  0  0  0  0  0
  188.4480  173.6330  139.3110 O   0  0  0  0  0  0  0  0  0  0  0  0
  189.4860  174.7380  141.2310 C   0  0  1  0  0  3  0  0  0  0  0  0
  191.5680  171.8090  141.7720 C   0  0  0  0  0  2  0  0  0  0  0  0
  192.0910  175.6680  142.2080 O   0  0  0  0  0  1  0  0  0  0  0  0
  185.5450  177.4210  141.4260 C   0  0  0  0  0  3  0  0  0  0  0  0
  186.8170  177.2120  141.9710 C   0  0  0  0  0  0  0  0  0  0  0  0
  191.5330  175.0260  143.3190 C   0  0  2  0  0  3  0  0  0  0  0  0
  189.8790  176.8430  147.3190 C   0  0  0  0  0  2  0  0  0  0  0  0
  189.0380  174.4970  147.4390 C   0  0  0  0  0  1  0  0  0  0  0  0
  190.2700  175.3730  147.3110 C   0  0  0  0  0  2  0  0  0  0  0  0
  1  5  1  1  0  0  0
  2 16  1  0  0  0  0
  3 17  1  0  0  0  0
  4  1  1  0  0  0  0
  4 12  1  0  0  0  0
  5 11  1  0  0  0  0
  6  8  1  0  0  0  0
  7 27  1  0  0  0  0
  8 11  1  0  0  0  0
  9  7  1  0  0  0  0
 10  3  1  0  0  0  0
 10 22  1  0  0  0  0
 11 28  1  0  0  0  0
 12  8  1  0  0  0  0
 13  2  1  0  0  0  0
 14 23  1  0  0  0  0
 14  9  1  0  0  0  0
 15  7  1  0  0  0  0
 17 26  1  0  0  0  0
 17 20  1  0  0  0  0
 18 13  2  0  0  0  0
 19  1  1  0  0  0  0
 19  2  2  0  0  0  0
 20  4  1  0  0  0  0
 21 10  2  0  0  0  0
 22  9  1  0  0  0  0
 22 20  1  0  0  0  0
 23 15  1  0  0  0  0
 24 27  1  0  0  0  0
 25 26  2  0  0  0  0
 25 18  1  0  0  0  0
 26 19  1  0  0  0  0
 27 12  1  0  0  0  0
 30 28  1  0  0  0  0
 30 29  1  0  0  0  0
M  END
>  <MODEL>
6

>  <REMARK>
 VINA RESULT:      -8.1      2.407      5.283
  Name = 
  2 active torsions:
  status: ('A' for Active; 'I' for Inactive)
    1  A    between atoms: C_11  and  C_28
    2  A    between atoms: C_28  and  C_30
                            x       y       z     vdW  Elec       q    Type
                         _______ _______ _______ _____ _____    ______ ____

>  <TORSDO>
F 2

$$$$
=
 OpenBabel11112416223D

 30 35  0  0  1  0  0  0  0  0999 V2000
  187.4550  175.6690  143.6930 C   0  0  2  0  0  3  0  0  0  0  0  0
  185.5960  177.4240  143.7410 C   0  0  0  0  0  0  0  0  0  0  0  0
  189.0640  177.5110  147.2330 N   0  0  0  0  0  2  0  0  0  0  0  0
  188.7520  175.1510  144.4170 C   0  0  1  0  0  3  0  0  0  0  0  0
  187.6940  175.8890  142.1950 C   0  0  0  0  0  2  0  0  0  0  0  0
  188.5820  172.6300  142.8290 O   0  0  0  0  0  1  0  0  0  0  0  0
  192.1330  174.8980  144.3660 C   0  0  1  0  0  3  0  0  0  0  0  0
  189.1590  173.7860  142.2980 C   0  0  1  0  0  3  0  0  0  0  0  0
  191.8640  176.0140  145.3920 C   0  0  2  0  0  3  0  0  0  0  0  0
  190.3580  176.9270  147.2370 C   0  0  0  0  0  0  0  0  0  0  0  0
  188.0990  174.5750  141.5160 C   0  0  2  0  0  3  0  0  0  0  0  0
  189.7990  174.6270  143.4070 C   0  0  2  0  0  3  0  0  0  0  0  0
  184.9650  178.5290  144.3180 C   0  0  0  0  0  3  0  0  0  0  0  0
  193.0560  175.9230  146.3040 C   0  0  0  0  0  2  0  0  0  0  0  0
  193.2890  174.1880  144.7340 O   0  0  0  0  0  0  0  0  0  0  0  0
  185.0660  176.8870  142.6150 F   0  0  0  0  0  0  0  0  0  0  0  0
  188.3250  176.7320  146.2590 C   0  0  2  0  0  3  0  0  0  0  0  0
  185.4550  179.0880  145.4980 C   0  0  0  0  0  3  0  0  0  0  0  0
  186.7570  176.8780  144.3300 C   0  0  0  0  0  0  0  0  0  0  0  0
  189.3610  176.2470  145.2790 C   0  0  1  0  0  3  0  0  0  0  0  0
  191.2230  177.2270  148.1020 O   0  0  0  0  0  0  0  0  0  0  0  0
  190.5450  175.8860  146.1720 C   0  0  1  0  0  3  0  0  0  0  0  0
  194.0270  175.0660  145.5360 C   0  0  0  0  0  2  0  0  0  0  0  0
  190.6380  173.1410  145.1410 O   0  0  0  0  0  1  0  0  0  0  0  0
  186.5770  178.5350  146.1170 C   0  0  0  0  0  3  0  0  0  0  0  0
  187.2350  177.4440  145.5360 C   0  0  0  0  0  0  0  0  0  0  0  0
  190.9970  173.9200  144.0360 C   0  0  2  0  0  3  0  0  0  0  0  0
  188.6030  174.8450  140.1060 C   0  0  0  0  0  2  0  0  0  0  0  0
  188.2960  172.6740  138.9140 C   0  0  0  0  0  1  0  0  0  0  0  0
  189.3060  173.6270  139.5260 C   0  0  0  0  0  2  0  0  0  0  0  0
  1  5  1  6  0  0  0
  1 19  1  0  0  0  0
  1  4  1  0  0  0  0
  2 13  2  0  0  0  0
  2 19  1  0  0  0  0
  3 10  1  0  0  0  0
  4 20  1  0  0  0  0
  7 15  1  0  0  0  0
  7  9  1  0  0  0  0
  8  6  1  0  0  0  0
  8 12  1  0  0  0  0
  9 22  1  0  0  0  0
  9 14  1  0  0  0  0
 10 21  2  0  0  0  0
 11  5  1  0  0  0  0
 11  8  1  0  0  0  0
 12 27  1  0  0  0  0
 12  4  1  0  0  0  0
 13 18  1  0  0  0  0
 15 23  1  0  0  0  0
 16  2  1  0  0  0  0
 17  3  1  0  0  0  0
 18 25  2  0  0  0  0
 19 26  2  0  0  0  0
 20 22  1  0  0  0  0
 20 17  1  0  0  0  0
 22 10  1  0  0  0  0
 23 14  1  0  0  0  0
 26 25  1  0  0  0  0
 26 17  1  0  0  0  0
 27  7  1  0  0  0  0
 27 24  1  0  0  0  0
 28 11  1  0  0  0  0
 29 30  1  0  0  0  0
 30 28  1  0  0  0  0
M  END
>  <MODEL>
7

>  <REMARK>
 VINA RESULT:      -8.0      1.688      2.300
  Name = 
  2 active torsions:
  status: ('A' for Active; 'I' for Inactive)
    1  A    between atoms: C_11  and  C_28
    2  A    between atoms: C_28  and  C_30
                            x       y       z     vdW  Elec       q    Type
                         _______ _______ _______ _____ _____    ______ ____

>  <TORSDO>
F 2

$$$$
=
 OpenBabel11112416223D

 30 35  0  0  1  0  0  0  0  0999 V2000
  188.3790  175.7340  143.4020 C   0  0  2  0  0  3  0  0  0  0  0  0
  186.8690  176.6770  141.5660 C   0  0  0  0  0  0  0  0  0  0  0  0
  186.4310  178.4050  146.1540 N   0  0  0  0  0  2  0  0  0  0  0  0
  188.7450  175.8090  144.9300 C   0  0  1  0  0  3  0  0  0  0  0  0
  189.6230  175.8640  142.5160 C   0  0  0  0  0  2  0  0  0  0  0  0
  190.2510  173.2480  144.6540 O   0  0  0  0  0  1  0  0  0  0  0  0
  190.9770  176.8130  147.2770 C   0  0  1  0  0  3  0  0  0  0  0  0
  190.8270  174.4710  144.3020 C   0  0  1  0  0  3  0  0  0  0  0  0
  189.8470  177.8550  147.3760 C   0  0  2  0  0  3  0  0  0  0  0  0
  187.3470  178.3410  147.2370 C   0  0  0  0  0  0  0  0  0  0  0  0
  190.6110  174.7260  142.8030 C   0  0  2  0  0  3  0  0  0  0  0  0
  190.2580  175.6020  145.1650 C   0  0  2  0  0  3  0  0  0  0  0  0
  185.8490  177.5270  141.1310 C   0  0  0  0  0  3  0  0  0  0  0  0
  189.9340  178.3060  148.8070 C   0  0  0  0  0  2  0  0  0  0  0  0
  191.5520  176.6200  148.5450 O   0  0  0  0  0  0  0  0  0  0  0  0
  187.4700  175.8650  140.6610 F   0  0  0  0  0  0  0  0  0  0  0  0
  186.8230  177.3100  145.2900 C   0  0  2  0  0  3  0  0  0  0  0  0
  185.1800  178.3500  142.0370 C   0  0  0  0  0  3  0  0  0  0  0  0
  187.2550  176.6620  142.9240 C   0  0  0  0  0  0  0  0  0  0  0  0
  188.3010  177.1380  145.5240 C   0  0  1  0  0  3  0  0  0  0  0  0
  187.1970  179.0300  148.2800 O   0  0  0  0  0  0  0  0  0  0  0  0
  188.4410  177.3350  147.0310 C   0  0  1  0  0  3  0  0  0  0  0  0
  191.2720  177.7890  149.2630 C   0  0  0  0  0  2  0  0  0  0  0  0
  189.7330  174.7230  147.3720 O   0  0  0  0  0  1  0  0  0  0  0  0
  185.5190  178.3170  143.3900 C   0  0  0  0  0  3  0  0  0  0  0  0
  186.5560  177.4900  143.8350 C   0  0  0  0  0  0  0  0  0  0  0  0
  190.6650  175.4560  146.6310 C   0  0  2  0  0  3  0  0  0  0  0  0
  191.9480  175.0100  142.1370 C   0  0  0  0  0  2  0  0  0  0  0  0
  193.9110  176.0400  143.2840 C   0  0  0  0  0  1  0  0  0  0  0  0
  192.5590  176.3060  142.6490 C   0  0  0  0  0  2  0  0  0  0  0  0
  1  5  1  6  0  0  0
  1  4  1  0  0  0  0
  2 19  1  0  0  0  0
  3 10  1  0  0  0  0
  4 12  1  0  0  0  0
  4 20  1  0  0  0  0
  5 11  1  0  0  0  0
  7  9  1  0  0  0  0
  7 15  1  0  0  0  0
  8  6  1  0  0  0  0
  8 12  1  0  0  0  0
  9 14  1  0  0  0  0
 10 21  2  0  0  0  0
 11  8  1  0  0  0  0
 12 27  1  0  0  0  0
 13  2  2  0  0  0  0
 13 18  1  0  0  0  0
 14 23  1  0  0  0  0
 15 23  1  0  0  0  0
 16  2  1  0  0  0  0
 17 20  1  0  0  0  0
 17  3  1  0  0  0  0
 18 25  2  0  0  0  0
 19  1  1  0  0  0  0
 19 26  2  0  0  0  0
 20 22  1  0  0  0  0
 22 10  1  0  0  0  0
 22  9  1  0  0  0  0
 25 26  1  0  0  0  0
 26 17  1  0  0  0  0
 27  7  1  0  0  0  0
 27 24  1  0  0  0  0
 28 30  1  0  0  0  0
 28 11  1  0  0  0  0
 30 29  1  0  0  0  0
M  END
>  <MODEL>
8

>  <REMARK>
 VINA RESULT:      -7.6      1.980      4.583
  Name = 
  2 active torsions:
  status: ('A' for Active; 'I' for Inactive)
    1  A    between atoms: C_11  and  C_28
    2  A    between atoms: C_28  and  C_30
                            x       y       z     vdW  Elec       q    Type
                         _______ _______ _______ _____ _____    ______ ____

>  <TORSDO>
F 2

$$$$
=
 OpenBabel11112416223D

 30 35  0  0  1  0  0  0  0  0999 V2000
  189.2140  174.5690  143.3820 C   0  0  2  0  0  3  0  0  0  0  0  0
  187.1970  176.1370  143.3010 C   0  0  0  0  0  0  0  0  0  0  0  0
  190.6350  176.8310  146.7540 N   0  0  0  0  0  2  0  0  0  0  0  0
  190.5530  174.2350  144.1370 C   0  0  1  0  0  3  0  0  0  0  0  0
  189.4330  174.6890  141.8700 C   0  0  0  0  0  2  0  0  0  0  0  0
  190.6260  171.5910  142.7570 O   0  0  0  0  0  1  0  0  0  0  0  0
  193.9430  174.3010  144.0860 C   0  0  1  0  0  3  0  0  0  0  0  0
  191.0910  172.7500  142.1320 C   0  0  1  0  0  3  0  0  0  0  0  0
  193.5670  175.4650  145.0210 C   0  0  2  0  0  3  0  0  0  0  0  0
  191.9790  176.3750  146.7970 C   0  0  0  0  0  0  0  0  0  0  0  0
  189.9620  173.3690  141.2950 C   0  0  2  0  0  3  0  0  0  0  0  0
  191.6460  173.7340  143.1660 C   0  0  2  0  0  3  0  0  0  0  0  0
  186.4620  177.2200  143.7910 C   0  0  0  0  0  3  0  0  0  0  0  0
  194.7610  175.5600  145.9310 C   0  0  0  0  0  2  0  0  0  0  0  0
  195.1600  173.7350  144.5030 O   0  0  0  0  0  0  0  0  0  0  0  0
  186.7220  175.4640  142.2240 F   0  0  0  0  0  0  0  0  0  0  0  0
  189.9750  175.9110  145.8500 C   0  0  2  0  0  3  0  0  0  0  0  0
  186.8950  177.9150  144.9200 C   0  0  0  0  0  3  0  0  0  0  0  0
  188.4030  175.7530  143.9240 C   0  0  0  0  0  0  0  0  0  0  0  0
  191.0540  175.4500  144.9050 C   0  0  1  0  0  3  0  0  0  0  0  0
  192.8100  176.8250  147.6300 O   0  0  0  0  0  0  0  0  0  0  0  0
  192.2650  175.2750  145.8170 C   0  0  1  0  0  3  0  0  0  0  0  0
  195.8100  174.7410  145.2270 C   0  0  0  0  0  2  0  0  0  0  0  0
  192.6200  172.4780  145.0080 O   0  0  0  0  0  1  0  0  0  0  0  0
  188.0630  177.5220  145.5740 C   0  0  0  0  0  3  0  0  0  0  0  0
  188.8230  176.4560  145.0780 C   0  0  0  0  0  0  0  0  0  0  0  0
  192.9060  173.1960  143.8420 C   0  0  2  0  0  3  0  0  0  0  0  0
  190.4400  173.5720  139.8660 C   0  0  0  0  0  2  0  0  0  0  0  0
  188.2650  172.6300  139.0850 C   0  0  0  0  0  1  0  0  0  0  0  0
  189.2710  173.7530  138.9100 C   0  0  0  0  0  2  0  0  0  0  0  0
  1  5  1  6  0  0  0
  1 19  1  0  0  0  0
  1  4  1  0  0  0  0
  2 13  2  0  0  0  0
  2 19  1  0  0  0  0
  3 10  1  0  0  0  0
  4 20  1  0  0  0  0
  7 15  1  0  0  0  0
  7  9  1  0  0  0  0
  8  6  1  0  0  0  0
  8 12  1  0  0  0  0
  9 22  1  0  0  0  0
  9 14  1  0  0  0  0
 10 21  2  0  0  0  0
 11  5  1  0  0  0  0
 11  8  1  0  0  0  0
 12 27  1  0  0  0  0
 12  4  1  0  0  0  0
 13 18  1  0  0  0  0
 15 23  1  0  0  0  0
 16  2  1  0  0  0  0
 17  3  1  0  0  0  0
 18 25  2  0  0  0  0
 19 26  2  0  0  0  0
 20 22  1  0  0  0  0
 20 17  1  0  0  0  0
 22 10  1  0  0  0  0
 23 14  1  0  0  0  0
 26 25  1  0  0  0  0
 26 17  1  0  0  0  0
 27  7  1  0  0  0  0
 27 24  1  0  0  0  0
 28 11  1  0  0  0  0
 30 29  1  0  0  0  0
 30 28  1  0  0  0  0
M  END
>  <MODEL>
9

>  <REMARK>
 VINA RESULT:      -7.5      2.282      3.425
  Name = 
  2 active torsions:
  status: ('A' for Active; 'I' for Inactive)
    1  A    between atoms: C_11  and  C_28
    2  A    between atoms: C_28  and  C_30
                            x       y       z     vdW  Elec       q    Type
                         _______ _______ _______ _____ _____    ______ ____

>  <TORSDO>
F 2

$$$$
