=
 OpenBabel11112416183D

 30 35  0  0  1  0  0  0  0  0999 V2000
  186.3010  177.3040  143.7810 C   0  0  0  0  0  0  0  0  0  0  0  0
  184.6190  178.3990  145.2820 C   0  0  0  0  0  0  0  0  0  0  0  0
  188.5530  176.1350  146.9960 C   0  0  0  0  0  3  0  0  0  0  0  0
  187.4980  176.5350  143.6310 C   0  0  0  0  0  0  0  0  0  0  0  0
  185.6000  177.7000  142.6340 C   0  0  0  0  0  3  0  0  0  0  0  0
  187.5320  176.1600  139.9190 O   0  0  0  0  0  1  0  0  0  0  0  0
  190.3140  175.6060  142.6360 C   0  0  1  0  0  3  0  0  0  0  0  0
  187.1470  176.5430  141.2010 C   0  0  0  0  0  0  0  0  0  0  0  0
  190.4110  175.2180  144.0240 N   0  0  0  0  0  0  0  0  0  0  0  0
  189.6360  175.5350  146.3950 C   0  0  0  0  0  0  0  0  0  0  0  0
  186.0170  177.3430  141.3560 C   0  0  0  0  0  0  0  0  0  0  0  0
  187.8850  176.1170  142.3200 C   0  0  0  0  0  0  0  0  0  0  0  0
  184.1910  178.6990  146.5770 C   0  0  0  0  0  3  0  0  0  0  0  0
  191.6040  174.4430  144.3050 C   0  0  0  0  0  2  0  0  0  0  0  0
  191.4730  174.9280  141.9270 C   0  0  0  0  0  2  0  0  0  0  0  0
  183.8500  178.8380  144.2550 F   0  0  0  0  0  0  0  0  0  0  0  0
  187.7070  176.5500  146.0300 N   0  0  0  0  0  0  0  0  0  0  0  0
  184.9260  178.2800  147.6820 C   0  0  0  0  0  3  0  0  0  0  0  0
  185.8140  177.6560  145.0730 C   0  0  0  0  0  0  0  0  0  0  0  0
  188.2100  176.2180  144.8200 C   0  0  0  0  0  0  0  0  0  0  0  0
  190.8150  175.0010  147.1330 C   0  0  0  0  0  1  0  0  0  0  0  0
  189.4460  175.5960  145.0190 C   0  0  0  0  0  0  0  0  0  0  0  0
  192.4070  174.4330  143.0200 C   0  0  0  0  0  2  0  0  0  0  0  0
  188.6000  173.7180  142.3990 C   0  0  0  0  0  1  0  0  0  0  0  0
  186.0990  177.5560  147.5000 C   0  0  0  0  0  3  0  0  0  0  0  0
  186.5500  177.2390  146.2080 C   0  0  0  0  0  0  0  0  0  0  0  0
  188.9940  175.1480  142.0430 C   0  0  2  0  0  3  0  0  0  0  0  0
  185.3090  177.7620  140.2280 O   0  0  0  0  0  0  0  0  0  0  0  0
  183.0400  177.8610  140.2610 C   0  0  0  0  0  1  0  0  0  0  0  0
  184.2570  178.6490  140.3250 N   0  0  0  0  0  2  0  0  0  0  0  0
  1 19  1  0  0  0  0
  2 13  1  0  0  0  0
  4  1  1  0  0  0  0
  4 20  1  0  0  0  0
  5  1  2  0  0  0  0
  6  8  1  0  0  0  0
  7 15  1  6  0  0  0
  7  9  1  0  0  0  0
  8 11  2  0  0  0  0
  8 12  1  0  0  0  0
  9 14  1  0  0  0  0
  9 22  1  0  0  0  0
 10  3  2  0  0  0  0
 10 21  1  0  0  0  0
 11  5  1  0  0  0  0
 12  4  2  0  0  0  0
 13 18  2  0  0  0  0
 15 23  1  0  0  0  0
 16  2  1  0  0  0  0
 17 26  1  0  0  0  0
 17  3  1  0  0  0  0
 19  2  2  0  0  0  0
 19 26  1  0  0  0  0
 20 22  2  0  0  0  0
 20 17  1  0  0  0  0
 22 10  1  0  0  0  0
 23 14  1  0  0  0  0
 25 18  1  0  0  0  0
 26 25  2  0  0  0  0
 27 12  1  0  0  0  0
 27 24  1  1  0  0  0
 27  7  1  0  0  0  0
 28 30  1  0  0  0  0
 28 11  1  0  0  0  0
 29 30  1  0  0  0  0
M  END
>  <MODEL>
1

>  <REMARK>
 VINA RESULT:      -9.0      0.000      0.000
  Name = 
  2 active torsions:
  status: ('A' for Active; 'I' for Inactive)
    1  A    between atoms: C_11  and  O_28
    2  A    between atoms: O_28  and  N_30
                            x       y       z     vdW  Elec       q    Type
                         _______ _______ _______ _____ _____    ______ ____

>  <TORSDO>
F 2

$$$$
=
 OpenBabel11112416183D

 30 35  0  0  1  0  0  0  0  0999 V2000
  187.8890  176.4680  144.5390 C   0  0  0  0  0  0  0  0  0  0  0  0
  186.6130  178.3230  145.6400 C   0  0  0  0  0  0  0  0  0  0  0  0
  186.4910  177.5650  140.8490 C   0  0  0  0  0  3  0  0  0  0  0  0
  188.2840  175.7880  143.3430 C   0  0  0  0  0  0  0  0  0  0  0  0
  188.3790  176.0150  145.7710 C   0  0  0  0  0  3  0  0  0  0  0  0
  190.6140  173.2670  144.8060 O   0  0  0  0  0  1  0  0  0  0  0  0
  188.8660  173.4970  141.2960 C   0  0  1  0  0  3  0  0  0  0  0  0
  189.7000  174.3130  144.7030 C   0  0  0  0  0  0  0  0  0  0  0  0
  188.3880  174.5130  140.3880 N   0  0  0  0  0  0  0  0  0  0  0  0
  187.0280  176.5980  140.0300 C   0  0  0  0  0  0  0  0  0  0  0  0
  189.2610  174.9430  145.8640 C   0  0  0  0  0  0  0  0  0  0  0  0
  189.2400  174.7300  143.4400 C   0  0  0  0  0  0  0  0  0  0  0  0
  185.7700  179.4290  145.5170 C   0  0  0  0  0  3  0  0  0  0  0  0
  188.5530  174.1410  138.9950 C   0  0  0  0  0  2  0  0  0  0  0  0
  189.5050  172.4260  140.4300 C   0  0  0  0  0  2  0  0  0  0  0  0
  187.0190  177.9860  146.8890 F   0  0  0  0  0  0  0  0  0  0  0  0
  186.9030  177.3290  142.1120 N   0  0  0  0  0  0  0  0  0  0  0  0
  185.3130  179.8370  144.2670 C   0  0  0  0  0  3  0  0  0  0  0  0
  187.0210  177.5960  144.4870 C   0  0  0  0  0  0  0  0  0  0  0  0
  187.7060  176.2420  142.1270 C   0  0  0  0  0  0  0  0  0  0  0  0
  186.7530  176.4880  138.5710 C   0  0  0  0  0  1  0  0  0  0  0  0
  187.7820  175.7410  140.8240 C   0  0  0  0  0  0  0  0  0  0  0  0
  189.0650  172.7150  139.0040 C   0  0  0  0  0  2  0  0  0  0  0  0
  190.9300  174.9790  141.6090 C   0  0  0  0  0  1  0  0  0  0  0  0
  185.6960  179.1380  143.1270 C   0  0  0  0  0  3  0  0  0  0  0  0
  186.5450  178.0240  143.2230 C   0  0  0  0  0  0  0  0  0  0  0  0
  189.8870  174.0750  142.2580 C   0  0  2  0  0  3  0  0  0  0  0  0
  189.7230  174.5020  147.1060 O   0  0  0  0  0  0  0  0  0  0  0  0
  191.8290  175.3130  147.3610 C   0  0  0  0  0  1  0  0  0  0  0  0
  190.4890  175.3090  147.9190 N   0  0  0  0  0  2  0  0  0  0  0  0
  1  5  1  0  0  0  0
  2 16  1  0  0  0  0
  3 17  1  0  0  0  0
  4 12  1  0  0  0  0
  4  1  2  0  0  0  0
  5 11  2  0  0  0  0
  7 15  1  6  0  0  0
  7 27  1  0  0  0  0
  8  6  1  0  0  0  0
  8 11  1  0  0  0  0
  9 22  1  0  0  0  0
  9  7  1  0  0  0  0
 10 22  1  0  0  0  0
 10  3  2  0  0  0  0
 11 28  1  0  0  0  0
 12  8  2  0  0  0  0
 13  2  1  0  0  0  0
 14 23  1  0  0  0  0
 14  9  1  0  0  0  0
 17 20  1  0  0  0  0
 17 26  1  0  0  0  0
 18 13  2  0  0  0  0
 19  1  1  0  0  0  0
 19  2  2  0  0  0  0
 20  4  1  0  0  0  0
 21 10  1  0  0  0  0
 22 20  2  0  0  0  0
 23 15  1  0  0  0  0
 25 26  2  0  0  0  0
 25 18  1  0  0  0  0
 26 19  1  0  0  0  0
 27 24  1  6  0  0  0
 27 12  1  0  0  0  0
 28 30  1  0  0  0  0
 29 30  1  0  0  0  0
M  END
>  <MODEL>
2

>  <REMARK>
 VINA RESULT:      -8.4      2.741      5.386
  Name = 
  2 active torsions:
  status: ('A' for Active; 'I' for Inactive)
    1  A    between atoms: C_11  and  O_28
    2  A    between atoms: O_28  and  N_30
                            x       y       z     vdW  Elec       q    Type
                         _______ _______ _______ _____ _____    ______ ____

>  <TORSDO>
F 2

$$$$
=
 OpenBabel11112416183D

 30 35  0  0  1  0  0  0  0  0999 V2000
  188.1250  176.1750  143.4830 C   0  0  0  0  0  0  0  0  0  0  0  0
  185.8360  177.1610  143.7440 C   0  0  0  0  0  0  0  0  0  0  0  0
  189.1840  177.3910  147.2480 C   0  0  0  0  0  3  0  0  0  0  0  0
  189.4100  175.8850  144.0430 C   0  0  0  0  0  0  0  0  0  0  0  0
  187.8440  175.7590  142.1750 C   0  0  0  0  0  3  0  0  0  0  0  0
  190.8950  173.9580  141.2140 O   0  0  0  0  0  1  0  0  0  0  0  0
  192.5110  175.6490  144.3700 C   0  0  1  0  0  3  0  0  0  0  0  0
  189.9970  174.7050  141.9710 C   0  0  0  0  0  0  0  0  0  0  0  0
  192.1510  175.9690  145.7310 N   0  0  0  0  0  0  0  0  0  0  0  0
  190.5020  177.0030  147.3240 C   0  0  0  0  0  0  0  0  0  0  0  0
  188.7660  175.0470  141.4150 C   0  0  0  0  0  0  0  0  0  0  0  0
  190.3270  175.0970  143.2810 C   0  0  0  0  0  0  0  0  0  0  0  0
  184.9080  177.8300  144.5460 C   0  0  0  0  0  3  0  0  0  0  0  0
  193.2710  175.8610  146.6460 C   0  0  0  0  0  2  0  0  0  0  0  0
  193.9520  175.1760  144.4160 C   0  0  0  0  0  2  0  0  0  0  0  0
  185.4410  176.8110  142.4960 F   0  0  0  0  0  0  0  0  0  0  0  0
  188.7010  177.0200  146.0440 N   0  0  0  0  0  0  0  0  0  0  0  0
  185.2390  178.2200  145.8400 C   0  0  0  0  0  3  0  0  0  0  0  0
  187.1350  176.8660  144.2410 C   0  0  0  0  0  0  0  0  0  0  0  0
  189.6700  176.3880  145.3460 C   0  0  0  0  0  0  0  0  0  0  0  0
  191.3950  177.2910  148.4810 C   0  0  0  0  0  1  0  0  0  0  0  0
  190.8330  176.3860  146.1230 C   0  0  0  0  0  0  0  0  0  0  0  0
  194.4840  175.5660  145.7860 C   0  0  0  0  0  2  0  0  0  0  0  0
  191.3820  173.3870  144.7770 C   0  0  0  0  0  1  0  0  0  0  0  0
  186.5060  177.9450  146.3440 C   0  0  0  0  0  3  0  0  0  0  0  0
  187.4560  177.2710  145.5600 C   0  0  0  0  0  0  0  0  0  0  0  0
  191.6150  174.5540  143.8220 C   0  0  2  0  0  3  0  0  0  0  0  0
  188.4670  174.6570  140.1080 O   0  0  0  0  0  0  0  0  0  0  0  0
  188.3720  173.1710  138.3940 C   0  0  0  0  0  1  0  0  0  0  0  0
  188.1040  173.3620  139.8070 N   0  0  0  0  0  2  0  0  0  0  0  0
  1  4  1  0  0  0  0
  1 19  1  0  0  0  0
  2 19  2  0  0  0  0
  2 13  1  0  0  0  0
  3 10  2  0  0  0  0
  4 20  1  0  0  0  0
  5  1  2  0  0  0  0
  6  8  1  0  0  0  0
  7 15  1  1  0  0  0
  7  9  1  0  0  0  0
  8 12  1  0  0  0  0
  9 22  1  0  0  0  0
  9 14  1  0  0  0  0
 10 21  1  0  0  0  0
 11  8  2  0  0  0  0
 11  5  1  0  0  0  0
 12 27  1  0  0  0  0
 12  4  2  0  0  0  0
 13 18  2  0  0  0  0
 15 23  1  0  0  0  0
 16  2  1  0  0  0  0
 17  3  1  0  0  0  0
 18 25  1  0  0  0  0
 19 26  1  0  0  0  0
 20 17  1  0  0  0  0
 20 22  2  0  0  0  0
 22 10  1  0  0  0  0
 23 14  1  0  0  0  0
 26 17  1  0  0  0  0
 26 25  2  0  0  0  0
 27  7  1  0  0  0  0
 27 24  1  1  0  0  0
 28 11  1  0  0  0  0
 29 30  1  0  0  0  0
 30 28  1  0  0  0  0
M  END
>  <MODEL>
3

>  <REMARK>
 VINA RESULT:      -8.4      2.164      3.214
  Name = 
  2 active torsions:
  status: ('A' for Active; 'I' for Inactive)
    1  A    between atoms: C_11  and  O_28
    2  A    between atoms: O_28  and  N_30
                            x       y       z     vdW  Elec       q    Type
                         _______ _______ _______ _____ _____    ______ ____

>  <TORSDO>
F 2

$$$$
=
 OpenBabel11112416183D

 30 35  0  0  1  0  0  0  0  0999 V2000
  189.4380  175.5510  144.0020 C   0  0  0  0  0  0  0  0  0  0  0  0
  191.3480  174.6280  145.3360 C   0  0  0  0  0  0  0  0  0  0  0  0
  188.0380  177.6140  147.2510 C   0  0  0  0  0  3  0  0  0  0  0  0
  188.2840  176.3940  143.9280 C   0  0  0  0  0  0  0  0  0  0  0  0
  189.8380  174.8460  142.8590 C   0  0  0  0  0  3  0  0  0  0  0  0
  187.4370  175.9690  140.3190 O   0  0  0  0  0  1  0  0  0  0  0  0
  185.3760  177.3860  143.3470 C   0  0  1  0  0  3  0  0  0  0  0  0
  188.0780  175.8290  141.5470 C   0  0  0  0  0  0  0  0  0  0  0  0
  185.6150  178.0690  144.5960 N   0  0  0  0  0  0  0  0  0  0  0  0
  186.8850  178.1850  146.7640 C   0  0  0  0  0  0  0  0  0  0  0  0
  189.1650  174.9650  141.6470 C   0  0  0  0  0  0  0  0  0  0  0  0
  187.6370  176.5610  142.6640 C   0  0  0  0  0  0  0  0  0  0  0  0
  192.0380  174.5670  146.5480 C   0  0  0  0  0  3  0  0  0  0  0  0
  184.5630  179.0100  144.9300 C   0  0  0  0  0  2  0  0  0  0  0  0
  184.1280  178.0180  142.7550 C   0  0  0  0  0  2  0  0  0  0  0  0
  191.8390  173.8990  144.3030 F   0  0  0  0  0  0  0  0  0  0  0  0
  188.6190  176.9150  146.2540 N   0  0  0  0  0  0  0  0  0  0  0  0
  191.5960  175.2890  147.6530 C   0  0  0  0  0  3  0  0  0  0  0  0
  190.1810  175.4320  145.2110 C   0  0  0  0  0  0  0  0  0  0  0  0
  187.8780  177.0320  145.1310 C   0  0  0  0  0  0  0  0  0  0  0  0
  185.9350  178.9870  147.5840 C   0  0  0  0  0  1  0  0  0  0  0  0
  186.7560  177.8120  145.4310 C   0  0  0  0  0  0  0  0  0  0  0  0
  183.4930  178.8310  143.8710 C   0  0  0  0  0  2  0  0  0  0  0  0
  187.0980  178.9840  142.3300 C   0  0  0  0  0  1  0  0  0  0  0  0
  190.4560  176.0790  147.5540 C   0  0  0  0  0  3  0  0  0  0  0  0
  189.7450  176.1590  146.3460 C   0  0  0  0  0  0  0  0  0  0  0  0
  186.5520  177.5620  142.4050 C   0  0  2  0  0  3  0  0  0  0  0  0
  189.5760  174.2410  140.5260 O   0  0  0  0  0  0  0  0  0  0  0  0
  188.2170  172.6680  139.6120 C   0  0  0  0  0  1  0  0  0  0  0  0
  189.3900  172.8780  140.4400 N   0  0  0  0  0  2  0  0  0  0  0  0
  1 19  1  0  0  0  0
  2 13  1  0  0  0  0
  4  1  1  0  0  0  0
  4 20  1  0  0  0  0
  5  1  2  0  0  0  0
  6  8  1  0  0  0  0
  7 15  1  6  0  0  0
  7  9  1  0  0  0  0
  8 11  2  0  0  0  0
  8 12  1  0  0  0  0
  9 14  1  0  0  0  0
  9 22  1  0  0  0  0
 10  3  2  0  0  0  0
 10 21  1  0  0  0  0
 11  5  1  0  0  0  0
 12  4  2  0  0  0  0
 13 18  2  0  0  0  0
 15 23  1  0  0  0  0
 16  2  1  0  0  0  0
 17 26  1  0  0  0  0
 17  3  1  0  0  0  0
 19  2  2  0  0  0  0
 19 26  1  0  0  0  0
 20 22  2  0  0  0  0
 20 17  1  0  0  0  0
 22 10  1  0  0  0  0
 23 14  1  0  0  0  0
 25 18  1  0  0  0  0
 26 25  2  0  0  0  0
 27 24  1  1  0  0  0
 27 12  1  0  0  0  0
 27  7  1  0  0  0  0
 28 11  1  0  0  0  0
 29 30  1  0  0  0  0
 30 28  1  0  0  0  0
M  END
>  <MODEL>
4

>  <REMARK>
 VINA RESULT:      -8.2      2.379      5.615
  Name = 
  2 active torsions:
  status: ('A' for Active; 'I' for Inactive)
    1  A    between atoms: C_11  and  O_28
    2  A    between atoms: O_28  and  N_30
                            x       y       z     vdW  Elec       q    Type
                         _______ _______ _______ _____ _____    ______ ____

>  <TORSDO>
F 2

$$$$
=
 OpenBabel11112416183D

 30 35  0  0  1  0  0  0  0  0999 V2000
  188.0940  175.9550  142.4360 C   0  0  0  0  0  0  0  0  0  0  0  0
  186.1720  177.5450  142.1960 C   0  0  0  0  0  0  0  0  0  0  0  0
  188.9470  177.3970  146.1730 C   0  0  0  0  0  3  0  0  0  0  0  0
  189.1540  175.4190  143.2340 C   0  0  0  0  0  0  0  0  0  0  0  0
  187.8820  175.4370  141.1510 C   0  0  0  0  0  3  0  0  0  0  0  0
  190.3860  172.7620  140.9220 O   0  0  0  0  0  1  0  0  0  0  0  0
  191.9840  174.4150  144.1070 C   0  0  1  0  0  3  0  0  0  0  0  0
  189.6480  173.8270  141.4310 C   0  0  0  0  0  0  0  0  0  0  0  0
  191.5540  175.0220  145.3450 N   0  0  0  0  0  0  0  0  0  0  0  0
  190.0760  176.6870  146.5130 C   0  0  0  0  0  0  0  0  0  0  0  0
  188.6530  174.3970  140.6400 C   0  0  0  0  0  0  0  0  0  0  0  0
  189.8990  174.3090  142.7280 C   0  0  0  0  0  0  0  0  0  0  0  0
  185.3770  178.5500  142.7510 C   0  0  0  0  0  3  0  0  0  0  0  0
  192.4640  174.7570  146.4430 C   0  0  0  0  0  2  0  0  0  0  0  0
  193.2100  173.5860  144.4480 C   0  0  0  0  0  2  0  0  0  0  0  0
  185.8620  177.1280  140.9430 F   0  0  0  0  0  0  0  0  0  0  0  0
  188.5420  176.9910  144.9510 N   0  0  0  0  0  0  0  0  0  0  0  0
  185.6320  179.0280  144.0330 C   0  0  0  0  0  3  0  0  0  0  0  0
  187.2530  176.9910  142.9350 C   0  0  0  0  0  0  0  0  0  0  0  0
  189.3730  176.0260  144.5000 C   0  0  0  0  0  0  0  0  0  0  0  0
  190.8510  176.8960  147.7670 C   0  0  0  0  0  1  0  0  0  0  0  0
  190.3710  175.8300  145.4590 C   0  0  0  0  0  0  0  0  0  0  0  0
  193.6440  174.0230  145.8380 C   0  0  0  0  0  2  0  0  0  0  0  0
  190.2090  172.6260  144.5560 C   0  0  0  0  0  1  0  0  0  0  0  0
  186.6870  178.5030  144.7720 C   0  0  0  0  0  3  0  0  0  0  0  0
  187.4980  177.4900  144.2380 C   0  0  0  0  0  0  0  0  0  0  0  0
  190.8930  173.5300  143.5350 C   0  0  2  0  0  3  0  0  0  0  0  0
  188.4310  173.9090  139.3510 O   0  0  0  0  0  0  0  0  0  0  0  0
  188.5770  174.3200  137.1230 C   0  0  0  0  0  1  0  0  0  0  0  0
  187.9160  174.7090  138.3540 N   0  0  0  0  0  2  0  0  0  0  0  0
  1 19  1  0  0  0  0
  1  4  1  0  0  0  0
  2 13  2  0  0  0  0
  2 19  1  0  0  0  0
  3 10  2  0  0  0  0
  4 20  1  0  0  0  0
  5  1  2  0  0  0  0
  6  8  1  0  0  0  0
  7 15  1  1  0  0  0
  7  9  1  0  0  0  0
  8 12  1  0  0  0  0
  9 22  1  0  0  0  0
  9 14  1  0  0  0  0
 10 21  1  0  0  0  0
 11  5  1  0  0  0  0
 11  8  2  0  0  0  0
 12  4  2  0  0  0  0
 12 27  1  0  0  0  0
 13 18  1  0  0  0  0
 15 23  1  0  0  0  0
 16  2  1  0  0  0  0
 17  3  1  0  0  0  0
 18 25  2  0  0  0  0
 19 26  2  0  0  0  0
 20 17  1  0  0  0  0
 20 22  2  0  0  0  0
 22 10  1  0  0  0  0
 23 14  1  0  0  0  0
 26 25  1  0  0  0  0
 26 17  1  0  0  0  0
 27  7  1  0  0  0  0
 27 24  1  1  0  0  0
 28 11  1  0  0  0  0
 29 30  1  0  0  0  0
 30 28  1  0  0  0  0
M  END
>  <MODEL>
5

>  <REMARK>
 VINA RESULT:      -8.1      2.323      3.364
  Name = 
  2 active torsions:
  status: ('A' for Active; 'I' for Inactive)
    1  A    between atoms: C_11  and  O_28
    2  A    between atoms: O_28  and  N_30
                            x       y       z     vdW  Elec       q    Type
                         _______ _______ _______ _____ _____    ______ ____

>  <TORSDO>
F 2

$$$$
=
 OpenBabel11112416183D

 30 35  0  0  1  0  0  0  0  0999 V2000
  187.4020  176.8160  143.0500 C   0  0  0  0  0  0  0  0  0  0  0  0
  185.3550  178.2100  143.4360 C   0  0  0  0  0  0  0  0  0  0  0  0
  188.6980  177.4870  146.8770 C   0  0  0  0  0  3  0  0  0  0  0  0
  188.6060  176.2330  143.5590 C   0  0  0  0  0  0  0  0  0  0  0  0
  187.0390  176.5730  141.7190 C   0  0  0  0  0  3  0  0  0  0  0  0
  189.6680  174.2910  140.5550 O   0  0  0  0  0  1  0  0  0  0  0  0
  191.6000  175.3650  143.8020 C   0  0  1  0  0  3  0  0  0  0  0  0
  188.9380  175.1360  141.3880 C   0  0  0  0  0  0  0  0  0  0  0  0
  191.3170  175.6370  145.1910 N   0  0  0  0  0  0  0  0  0  0  0  0
  189.9140  176.8420  146.8940 C   0  0  0  0  0  0  0  0  0  0  0  0
  187.7980  175.7570  140.8860 C   0  0  0  0  0  0  0  0  0  0  0  0
  189.3460  175.3460  142.7180 C   0  0  0  0  0  0  0  0  0  0  0  0
  184.5810  178.9800  144.3070 C   0  0  0  0  0  3  0  0  0  0  0  0
  192.3980  175.2350  146.0710 C   0  0  0  0  0  2  0  0  0  0  0  0
  192.9200  174.6150  143.7800 C   0  0  0  0  0  2  0  0  0  0  0  0
  184.8930  178.0480  142.1720 F   0  0  0  0  0  0  0  0  0  0  0  0
  188.1450  177.3180  145.6580 N   0  0  0  0  0  0  0  0  0  0  0  0
  184.9890  179.1900  145.6210 C   0  0  0  0  0  3  0  0  0  0  0  0
  186.5720  177.6240  143.8810 C   0  0  0  0  0  0  0  0  0  0  0  0
  188.9670  176.5670  144.8920 C   0  0  0  0  0  0  0  0  0  0  0  0
  190.8510  176.8520  148.0520 C   0  0  0  0  0  1  0  0  0  0  0  0
  190.1090  176.2720  145.6420 C   0  0  0  0  0  0  0  0  0  0  0  0
  193.5250  174.7790  145.1650 C   0  0  0  0  0  2  0  0  0  0  0  0
  190.0480  173.3450  144.0500 C   0  0  0  0  0  1  0  0  0  0  0  0
  186.1790  178.6300  146.0750 C   0  0  0  0  0  3  0  0  0  0  0  0
  186.9730  177.8480  145.2210 C   0  0  0  0  0  0  0  0  0  0  0  0
  190.5030  174.5170  143.1870 C   0  0  2  0  0  3  0  0  0  0  0  0
  187.4210  175.5420  139.5590 O   0  0  0  0  0  0  0  0  0  0  0  0
  186.6950  176.0520  137.4680 C   0  0  0  0  0  1  0  0  0  0  0  0
  186.6880  176.4750  138.8560 N   0  0  0  0  0  2  0  0  0  0  0  0
  1  4  1  0  0  0  0
  1 19  1  0  0  0  0
  2 19  2  0  0  0  0
  2 13  1  0  0  0  0
  3 10  2  0  0  0  0
  4 20  1  0  0  0  0
  5  1  2  0  0  0  0
  6  8  1  0  0  0  0
  7 15  1  1  0  0  0
  7  9  1  0  0  0  0
  8 12  1  0  0  0  0
  9 22  1  0  0  0  0
  9 14  1  0  0  0  0
 10 21  1  0  0  0  0
 11  8  2  0  0  0  0
 11  5  1  0  0  0  0
 12 27  1  0  0  0  0
 12  4  2  0  0  0  0
 13 18  2  0  0  0  0
 15 23  1  0  0  0  0
 16  2  1  0  0  0  0
 17  3  1  0  0  0  0
 18 25  1  0  0  0  0
 19 26  1  0  0  0  0
 20 22  2  0  0  0  0
 20 17  1  0  0  0  0
 22 10  1  0  0  0  0
 23 14  1  0  0  0  0
 26 17  1  0  0  0  0
 26 25  2  0  0  0  0
 27  7  1  0  0  0  0
 27 24  1  1  0  0  0
 28 11  1  0  0  0  0
 29 30  1  0  0  0  0
 30 28  1  0  0  0  0
M  END
>  <MODEL>
6

>  <REMARK>
 VINA RESULT:      -8.0      1.674      2.203
  Name = 
  2 active torsions:
  status: ('A' for Active; 'I' for Inactive)
    1  A    between atoms: C_11  and  O_28
    2  A    between atoms: O_28  and  N_30
                            x       y       z     vdW  Elec       q    Type
                         _______ _______ _______ _____ _____    ______ ____

>  <TORSDO>
F 2

$$$$
=
 OpenBabel11112416183D

 30 35  0  0  1  0  0  0  0  0999 V2000
  188.8790  176.8990  146.0130 C   0  0  0  0  0  0  0  0  0  0  0  0
  186.7270  177.9130  146.8010 C   0  0  0  0  0  0  0  0  0  0  0  0
  187.2620  176.0830  142.3400 C   0  0  0  0  0  3  0  0  0  0  0  0
  189.6420  176.2950  144.9640 C   0  0  0  0  0  0  0  0  0  0  0  0
  189.4870  177.1160  147.2560 C   0  0  0  0  0  3  0  0  0  0  0  0
  192.9300  175.9700  146.6980 O   0  0  0  0  0  1  0  0  0  0  0  0
  191.5140  174.3160  143.4280 C   0  0  1  0  0  3  0  0  0  0  0  0
  191.5880  176.2560  146.4610 C   0  0  0  0  0  0  0  0  0  0  0  0
  190.5800  174.6290  142.3720 N   0  0  0  0  0  0  0  0  0  0  0  0
  188.2900  175.4230  141.7050 C   0  0  0  0  0  0  0  0  0  0  0  0
  190.8190  176.7890  147.4920 C   0  0  0  0  0  0  0  0  0  0  0  0
  191.0260  176.0210  145.1930 C   0  0  0  0  0  0  0  0  0  0  0  0
  185.4090  178.2820  146.5240 C   0  0  0  0  0  3  0  0  0  0  0  0
  190.9870  174.0900  141.0880 C   0  0  0  0  0  2  0  0  0  0  0  0
  192.6870  173.6200  142.7610 C   0  0  0  0  0  2  0  0  0  0  0  0
  187.1990  178.1790  148.0440 F   0  0  0  0  0  0  0  0  0  0  0  0
  187.6820  176.4350  143.5730 N   0  0  0  0  0  0  0  0  0  0  0  0
  184.8540  178.0430  145.2700 C   0  0  0  0  0  3  0  0  0  0  0  0
  187.5250  177.2880  145.8030 C   0  0  0  0  0  0  0  0  0  0  0  0
  188.9600  176.0320  143.7450 C   0  0  0  0  0  0  0  0  0  0  0  0
  188.1880  174.8270  140.3440 C   0  0  0  0  0  1  0  0  0  0  0  0
  189.3640  175.3630  142.5850 C   0  0  0  0  0  0  0  0  0  0  0  0
  192.2220  173.2540  141.3600 C   0  0  0  0  0  2  0  0  0  0  0  0
  192.3460  176.7250  143.1840 C   0  0  0  0  0  1  0  0  0  0  0  0
  185.6160  177.4300  144.2810 C   0  0  0  0  0  3  0  0  0  0  0  0
  186.9440  177.0520  144.5330 C   0  0  0  0  0  0  0  0  0  0  0  0
  191.9800  175.5810  144.1250 C   0  0  2  0  0  3  0  0  0  0  0  0
  191.3970  177.0020  148.7450 O   0  0  0  0  0  0  0  0  0  0  0  0
  191.5720  178.0130  150.7710 C   0  0  0  0  0  1  0  0  0  0  0  0
  191.3690  178.2390  149.3520 N   0  0  0  0  0  2  0  0  0  0  0  0
  1  5  1  0  0  0  0
  2 16  1  0  0  0  0
  3 17  1  0  0  0  0
  4 12  1  0  0  0  0
  4  1  2  0  0  0  0
  5 11  2  0  0  0  0
  7 15  1  6  0  0  0
  7 27  1  0  0  0  0
  8  6  1  0  0  0  0
  8 11  1  0  0  0  0
  9 22  1  0  0  0  0
  9  7  1  0  0  0  0
 10  3  2  0  0  0  0
 10 22  1  0  0  0  0
 11 28  1  0  0  0  0
 12  8  2  0  0  0  0
 13  2  1  0  0  0  0
 14 23  1  0  0  0  0
 14  9  1  0  0  0  0
 17 20  1  0  0  0  0
 17 26  1  0  0  0  0
 18 13  2  0  0  0  0
 19  1  1  0  0  0  0
 19  2  2  0  0  0  0
 20  4  1  0  0  0  0
 21 10  1  0  0  0  0
 22 20  2  0  0  0  0
 23 15  1  0  0  0  0
 25 26  2  0  0  0  0
 25 18  1  0  0  0  0
 26 19  1  0  0  0  0
 27 24  1  6  0  0  0
 27 12  1  0  0  0  0
 28 30  1  0  0  0  0
 30 29  1  0  0  0  0
M  END
>  <MODEL>
7

>  <REMARK>
 VINA RESULT:      -8.0      3.150      5.529
  Name = 
  2 active torsions:
  status: ('A' for Active; 'I' for Inactive)
    1  A    between atoms: C_11  and  O_28
    2  A    between atoms: O_28  and  N_30
                            x       y       z     vdW  Elec       q    Type
                         _______ _______ _______ _____ _____    ______ ____

>  <TORSDO>
F 2

$$$$
=
 OpenBabel11112416183D

 30 35  0  0  1  0  0  0  0  0999 V2000
  188.9930  175.0360  141.7980 C   0  0  0  0  0  0  0  0  0  0  0  0
  189.1030  173.5180  139.8080 C   0  0  0  0  0  0  0  0  0  0  0  0
  192.4890  173.5020  143.2820 C   0  0  0  0  0  3  0  0  0  0  0  0
  189.5830  175.5210  143.0090 C   0  0  0  0  0  0  0  0  0  0  0  0
  187.7760  175.5830  141.3700 C   0  0  0  0  0  3  0  0  0  0  0  0
  187.1080  178.1730  143.8840 O   0  0  0  0  0  1  0  0  0  0  0  0
  189.9190  176.4120  145.9870 C   0  0  1  0  0  3  0  0  0  0  0  0
  187.7350  177.1250  143.2150 C   0  0  0  0  0  0  0  0  0  0  0  0
  191.2090  175.8000  145.7740 N   0  0  0  0  0  0  0  0  0  0  0  0
  192.6180  174.1680  144.4800 C   0  0  0  0  0  0  0  0  0  0  0  0
  187.1400  176.6030  142.0690 C   0  0  0  0  0  0  0  0  0  0  0  0
  188.9570  176.6130  143.6870 C   0  0  0  0  0  0  0  0  0  0  0  0
  189.7870  172.5310  139.0940 C   0  0  0  0  0  3  0  0  0  0  0  0
  192.1200  176.0150  146.8830 C   0  0  0  0  0  2  0  0  0  0  0  0
  190.0320  177.1920  147.2850 C   0  0  0  0  0  2  0  0  0  0  0  0
  187.9350  173.9660  139.2850 F   0  0  0  0  0  0  0  0  0  0  0  0
  191.3690  173.9430  142.6710 N   0  0  0  0  0  0  0  0  0  0  0  0
  190.9940  172.0230  139.5660 C   0  0  0  0  0  3  0  0  0  0  0  0
  189.6310  174.0220  141.0280 C   0  0  0  0  0  0  0  0  0  0  0  0
  190.7800  174.8860  143.4380 C   0  0  0  0  0  0  0  0  0  0  0  0
  193.7020  173.9110  145.4690 C   0  0  0  0  0  1  0  0  0  0  0  0
  191.5360  175.0320  144.6050 C   0  0  0  0  0  0  0  0  0  0  0  0
  191.3120  176.7170  147.9550 C   0  0  0  0  0  2  0  0  0  0  0  0
  190.7110  178.2540  144.3960 C   0  0  0  0  0  1  0  0  0  0  0  0
  191.5260  172.4990  140.7600 C   0  0  0  0  0  3  0  0  0  0  0  0
  190.8600  173.4930  141.4940 C   0  0  0  0  0  0  0  0  0  0  0  0
  189.5710  177.3440  144.8420 C   0  0  2  0  0  3  0  0  0  0  0  0
  185.9200  177.1210  141.6280 O   0  0  0  0  0  0  0  0  0  0  0  0
  184.4590  178.4360  140.4920 C   0  0  0  0  0  1  0  0  0  0  0  0
  185.8590  178.0850  140.6450 N   0  0  0  0  0  2  0  0  0  0  0  0
  1  4  1  0  0  0  0
  2 19  1  0  0  0  0
  3 10  2  0  0  0  0
  4 20  1  0  0  0  0
  4 12  2  0  0  0  0
  5  1  2  0  0  0  0
  5 11  1  0  0  0  0
  7 15  1  1  0  0  0
  8 12  1  0  0  0  0
  8  6  1  0  0  0  0
  9  7  1  0  0  0  0
  9 14  1  0  0  0  0
 10 22  1  0  0  0  0
 10 21  1  0  0  0  0
 11  8  2  0  0  0  0
 12 27  1  0  0  0  0
 13 18  1  0  0  0  0
 13  2  2  0  0  0  0
 14 23  1  0  0  0  0
 15 23  1  0  0  0  0
 16  2  1  0  0  0  0
 17  3  1  0  0  0  0
 17 20  1  0  0  0  0
 18 25  2  0  0  0  0
 19 26  2  0  0  0  0
 19  1  1  0  0  0  0
 20 22  2  0  0  0  0
 22  9  1  0  0  0  0
 25 26  1  0  0  0  0
 26 17  1  0  0  0  0
 27 24  1  6  0  0  0
 27  7  1  0  0  0  0
 28 11  1  0  0  0  0
 29 30  1  0  0  0  0
 30 28  1  0  0  0  0
M  END
>  <MODEL>
8

>  <REMARK>
 VINA RESULT:      -7.6      2.756      5.540
  Name = 
  2 active torsions:
  status: ('A' for Active; 'I' for Inactive)
    1  A    between atoms: C_11  and  O_28
    2  A    between atoms: O_28  and  N_30
                            x       y       z     vdW  Elec       q    Type
                         _______ _______ _______ _____ _____    ______ ____

>  <TORSDO>
F 2

$$$$
=
 OpenBabel11112416183D

 30 35  0  0  1  0  0  0  0  0999 V2000
  187.1830  176.8710  143.6720 C   0  0  0  0  0  0  0  0  0  0  0  0
  185.4610  178.2930  142.5350 C   0  0  0  0  0  0  0  0  0  0  0  0
  188.1960  175.0920  140.1250 C   0  0  0  0  0  3  0  0  0  0  0  0
  188.2210  175.8900  143.5820 C   0  0  0  0  0  0  0  0  0  0  0  0
  186.8650  177.4110  144.9250 C   0  0  0  0  0  3  0  0  0  0  0  0
  189.3020  175.8070  147.1530 O   0  0  0  0  0  1  0  0  0  0  0  0
  189.9480  173.3470  144.1590 C   0  0  1  0  0  3  0  0  0  0  0  0
  188.6010  176.1360  145.9960 C   0  0  0  0  0  0  0  0  0  0  0  0
  190.0730  173.3990  142.7210 N   0  0  0  0  0  0  0  0  0  0  0  0
  189.1350  174.1640  140.5170 C   0  0  0  0  0  0  0  0  0  0  0  0
  187.5480  177.0440  146.0800 C   0  0  0  0  0  0  0  0  0  0  0  0
  188.9610  175.5660  144.7620 C   0  0  0  0  0  0  0  0  0  0  0  0
  184.8260  178.6850  141.3540 C   0  0  0  0  0  3  0  0  0  0  0  0
  191.0330  172.4410  142.2080 C   0  0  0  0  0  2  0  0  0  0  0  0
  190.9990  172.3610  144.6370 C   0  0  0  0  0  2  0  0  0  0  0  0
  185.0630  178.8930  143.6840 F   0  0  0  0  0  0  0  0  0  0  0  0
  187.7930  175.7750  141.2160 N   0  0  0  0  0  0  0  0  0  0  0  0
  185.1820  178.1160  140.1350 C   0  0  0  0  0  3  0  0  0  0  0  0
  186.4850  177.3060  142.5090 C   0  0  0  0  0  0  0  0  0  0  0  0
  188.4580  175.3220  142.3020 C   0  0  0  0  0  0  0  0  0  0  0  0
  189.7730  173.1790  139.6010 C   0  0  0  0  0  1  0  0  0  0  0  0
  189.2980  174.2810  141.8930 C   0  0  0  0  0  0  0  0  0  0  0  0
  191.4750  171.6160  143.4000 C   0  0  0  0  0  2  0  0  0  0  0  0
  191.3990  175.4570  144.1970 C   0  0  0  0  0  1  0  0  0  0  0  0
  186.1790  177.1460  140.0870 C   0  0  0  0  0  3  0  0  0  0  0  0
  186.8340  176.7370  141.2600 C   0  0  0  0  0  0  0  0  0  0  0  0
  190.1950  174.7150  144.7680 C   0  0  2  0  0  3  0  0  0  0  0  0
  187.2020  177.5870  147.3190 O   0  0  0  0  0  0  0  0  0  0  0  0
  185.2290  178.6630  147.6400 C   0  0  0  0  0  1  0  0  0  0  0  0
  185.9430  177.4180  147.8540 N   0  0  0  0  0  2  0  0  0  0  0  0
  1  5  1  0  0  0  0
  2 16  1  0  0  0  0
  3 10  2  0  0  0  0
  3 17  1  0  0  0  0
  4  1  2  0  0  0  0
  4 12  1  0  0  0  0
  5 11  2  0  0  0  0
  7 15  1  1  0  0  0
  7 27  1  0  0  0  0
  8 11  1  0  0  0  0
  8  6  1  0  0  0  0
  9  7  1  0  0  0  0
 10 22  1  0  0  0  0
 11 28  1  0  0  0  0
 12 27  1  0  0  0  0
 12  8  2  0  0  0  0
 13  2  2  0  0  0  0
 14  9  1  0  0  0  0
 14 23  1  0  0  0  0
 17 26  1  0  0  0  0
 17 20  1  0  0  0  0
 18 13  1  0  0  0  0
 19  2  1  0  0  0  0
 19  1  1  0  0  0  0
 20  4  1  0  0  0  0
 21 10  1  0  0  0  0
 22 20  2  0  0  0  0
 22  9  1  0  0  0  0
 23 15  1  0  0  0  0
 25 18  2  0  0  0  0
 25 26  1  0  0  0  0
 26 19  2  0  0  0  0
 27 24  1  6  0  0  0
 28 30  1  0  0  0  0
 29 30  1  0  0  0  0
M  END
>  <MODEL>
9

>  <REMARK>
 VINA RESULT:      -7.5      2.567      4.950
  Name = 
  2 active torsions:
  status: ('A' for Active; 'I' for Inactive)
    1  A    between atoms: C_11  and  O_28
    2  A    between atoms: O_28  and  N_30
                            x       y       z     vdW  Elec       q    Type
                         _______ _______ _______ _____ _____    ______ ____

>  <TORSDO>
F 2

$$$$
