=
 OpenBabel11112417433D

 28 32  0  0  1  0  0  0  0  0999 V2000
  186.8850  178.1620  144.8470 C   0  0  0  0  0  0  0  0  0  0  0  0
  190.3590  177.9920  145.0920 O   0  0  0  0  0  1  0  0  0  0  0  0
  187.6640  172.9900  141.4490 C   0  0  0  0  0  1  0  0  0  0  0  0
  185.6030  177.3950  147.2250 C   0  0  0  0  0  3  0  0  0  0  0  0
  189.6800  174.0870  142.4170 C   0  0  2  0  0  3  0  0  0  0  0  0
  187.4960  178.6400  143.5620 C   0  0  0  0  0  2  0  0  0  0  0  0
  189.5260  177.7130  147.3010 C   0  0  0  0  0  1  0  0  0  0  0  0
  190.2700  177.0760  146.1430 C   0  0  1  0  0  0  0  0  0  0  0  0
  192.4150  175.8680  145.9850 C   0  0  0  0  0  0  0  0  0  0  0  0
  189.5740  175.7690  145.6810 C   0  0  2  0  0  3  0  0  0  0  0  0
  187.5050  177.4270  140.4930 O   0  0  0  0  0  0  0  0  0  0  0  0
  188.5450  175.9590  143.4710 C   0  0  1  0  0  3  0  0  0  0  0  0
  191.9450  175.2280  144.7140 C   0  0  0  0  0  2  0  0  0  0  0  0
  191.6470  176.7450  146.6300 C   0  0  0  0  0  3  0  0  0  0  0  0
  186.8660  177.2870  141.5690 C   0  0  0  0  0  0  0  0  0  0  0  0
  187.2200  176.9240  145.4670 C   0  0  0  0  0  0  0  0  0  0  0  0
  188.3500  174.3150  141.7200 C   0  0  2  0  0  3  0  0  0  0  0  0
  193.7300  175.6040  146.4600 N   0  0  0  0  0  1  0  0  0  0  0  0
  186.5510  175.9790  142.0490 N   0  0  0  0  0  2  0  0  0  0  0  0
  186.5600  176.5580  146.6480 C   0  0  0  0  0  3  0  0  0  0  0  0
  185.9250  178.9900  145.4420 C   0  0  0  0  0  3  0  0  0  0  0  0
  185.2890  178.6120  146.6240 C   0  0  0  0  0  3  0  0  0  0  0  0
  186.5220  178.4840  142.3930 C   0  0  0  0  0  2  0  0  0  0  0  0
  189.9020  175.3160  143.2830 C   0  0  1  0  0  3  0  0  0  0  0  0
  187.5370  175.1250  142.7070 C   0  0  2  0  0  3  0  0  0  0  0  0
  190.4290  174.9670  144.6710 C   0  0  2  0  0  3  0  0  0  0  0  0
  190.7940  173.9690  141.3940 C   0  0  0  0  0  1  0  0  0  0  0  0
  188.2420  175.9360  144.9460 C   0  0  2  0  0  3  0  0  0  0  0  0
  1 21  2  0  0  0  0
  1 16  1  0  0  0  0
  2  8  1  0  0  0  0
  3 17  1  0  0  0  0
  5 27  1  6  0  0  0
  5 24  1  0  0  0  0
  6  1  1  0  0  0  0
  8 14  1  0  0  0  0
  8  7  1  1  0  0  0
  9 18  1  0  0  0  0
  9 14  2  0  0  0  0
 10  8  1  0  0  0  0
 11 15  2  0  0  0  0
 12 28  1  0  0  0  0
 13  9  1  0  0  0  0
 15 19  1  0  0  0  0
 15 23  1  0  0  0  0
 16 20  2  0  0  0  0
 17  5  1  0  0  0  0
 17 25  1  0  0  0  0
 19 25  1  0  0  0  0
 20  4  1  0  0  0  0
 21 22  1  0  0  0  0
 22  4  2  0  0  0  0
 23  6  1  0  0  0  0
 24 12  1  0  0  0  0
 24 26  1  0  0  0  0
 25 12  1  0  0  0  0
 26 13  1  0  0  0  0
 26 10  1  0  0  0  0
 28 16  1  0  0  0  0
 28 10  1  0  0  0  0
M  END
>  <MODEL>
1

>  <REMARK>
 VINA RESULT:      -8.9      0.000      0.000
  Name = 
  0 active torsions:
  status: ('A' for Active; 'I' for Inactive)
                            x       y       z     vdW  Elec       q    Type
                         _______ _______ _______ _____ _____    ______ ____

>  <TORSDO>
F 0

$$$$
=
 OpenBabel11112417433D

 28 32  0  0  1  0  0  0  0  0999 V2000
  190.1190  175.5270  143.2590 C   0  0  0  0  0  0  0  0  0  0  0  0
  188.0770  177.8940  141.7150 O   0  0  0  0  0  1  0  0  0  0  0  0
  186.1220  176.3230  147.9810 C   0  0  0  0  0  1  0  0  0  0  0  0
  189.7010  172.9360  142.2610 C   0  0  0  0  0  3  0  0  0  0  0  0
  185.7580  177.6230  145.8880 C   0  0  2  0  0  3  0  0  0  0  0  0
  190.4400  176.8880  143.8040 C   0  0  0  0  0  2  0  0  0  0  0  0
  187.8540  175.8990  140.4420 C   0  0  0  0  0  1  0  0  0  0  0  0
  187.1630  176.9060  141.3410 C   0  0  1  0  0  0  0  0  0  0  0  0
  185.0570  178.1740  141.1350 C   0  0  0  0  0  0  0  0  0  0  0  0
  186.5510  176.2180  142.5880 C   0  0  2  0  0  3  0  0  0  0  0  0
  190.0460  178.2680  146.7750 O   0  0  0  0  0  0  0  0  0  0  0  0
  187.6940  176.8070  144.6680 C   0  0  1  0  0  3  0  0  0  0  0  0
  185.0330  178.3480  142.6240 C   0  0  0  0  0  2  0  0  0  0  0  0
  186.0590  177.5290  140.5410 C   0  0  0  0  0  3  0  0  0  0  0  0
  190.0580  177.1230  146.2530 C   0  0  0  0  0  0  0  0  0  0  0  0
  188.7990  174.9930  143.1980 C   0  0  0  0  0  0  0  0  0  0  0  0
  186.7930  177.1220  146.8810 C   0  0  2  0  0  3  0  0  0  0  0  0
  184.0440  178.7800  140.3410 N   0  0  0  0  0  1  0  0  0  0  0  0
  189.0550  176.1660  146.6010 N   0  0  0  0  0  2  0  0  0  0  0  0
  188.6170  173.6940  142.7040 C   0  0  0  0  0  3  0  0  0  0  0  0
  191.1940  174.7520  142.8060 C   0  0  0  0  0  3  0  0  0  0  0  0
  190.9880  173.4660  142.3080 C   0  0  0  0  0  3  0  0  0  0  0  0
  191.0630  176.7950  145.1970 C   0  0  0  0  0  2  0  0  0  0  0  0
  186.4780  177.7010  144.5520 C   0  0  1  0  0  3  0  0  0  0  0  0
  187.6970  176.2230  146.0660 C   0  0  2  0  0  3  0  0  0  0  0  0
  185.6350  177.1640  143.4000 C   0  0  2  0  0  3  0  0  0  0  0  0
  185.2690  179.0010  146.2920 C   0  0  0  0  0  1  0  0  0  0  0  0
  187.5450  175.7170  143.6400 C   0  0  2  0  0  3  0  0  0  0  0  0
  1  6  1  0  0  0  0
  4 22  2  0  0  0  0
  4 20  1  0  0  0  0
  5 27  1  1  0  0  0
  5 17  1  0  0  0  0
  6 23  1  0  0  0  0
  8  7  1  6  0  0  0
  8  2  1  0  0  0  0
  8 10  1  0  0  0  0
  9 13  1  0  0  0  0
 10 26  1  0  0  0  0
 10 28  1  0  0  0  0
 12 25  1  0  0  0  0
 13 26  1  0  0  0  0
 14  9  2  0  0  0  0
 14  8  1  0  0  0  0
 15 19  1  0  0  0  0
 15 11  2  0  0  0  0
 16  1  1  0  0  0  0
 16 28  1  0  0  0  0
 17  3  1  0  0  0  0
 18  9  1  0  0  0  0
 20 16  2  0  0  0  0
 21  1  2  0  0  0  0
 22 21  1  0  0  0  0
 23 15  1  0  0  0  0
 24 12  1  0  0  0  0
 24  5  1  0  0  0  0
 25 19  1  0  0  0  0
 25 17  1  0  0  0  0
 26 24  1  0  0  0  0
 28 12  1  0  0  0  0
M  END
>  <MODEL>
2

>  <REMARK>
 VINA RESULT:      -8.4      1.713      6.423
  Name = 
  0 active torsions:
  status: ('A' for Active; 'I' for Inactive)
                            x       y       z     vdW  Elec       q    Type
                         _______ _______ _______ _____ _____    ______ ____

>  <TORSDO>
F 0

$$$$
=
 OpenBabel11112417433D

 28 32  0  0  1  0  0  0  0  0999 V2000
  190.9110  174.4840  144.3010 C   0  0  0  0  0  0  0  0  0  0  0  0
  188.5010  175.5720  146.5730 O   0  0  0  0  0  1  0  0  0  0  0  0
  187.2000  177.3650  140.1980 C   0  0  0  0  0  1  0  0  0  0  0  0
  193.2820  175.9810  144.4520 C   0  0  0  0  0  3  0  0  0  0  0  0
  186.5540  177.3920  142.6030 C   0  0  2  0  0  3  0  0  0  0  0  0
  189.7010  173.6030  144.1980 C   0  0  0  0  0  2  0  0  0  0  0  0
  190.5180  176.6830  147.1650 C   0  0  0  0  0  1  0  0  0  0  0  0
  189.0990  176.8330  146.6500 C   0  0  1  0  0  0  0  0  0  0  0  0
  187.2150  178.2810  147.3100 C   0  0  0  0  0  0  0  0  0  0  0  0
  189.0750  177.5410  145.2700 C   0  0  2  0  0  3  0  0  0  0  0  0
  187.4610  173.1310  141.8220 O   0  0  0  0  0  0  0  0  0  0  0  0
  188.4060  176.0610  143.4420 C   0  0  1  0  0  3  0  0  0  0  0  0
  186.6100  178.0890  145.9520 C   0  0  0  0  0  2  0  0  0  0  0  0
  188.3540  177.6750  147.6400 C   0  0  0  0  0  3  0  0  0  0  0  0
  188.6130  173.6210  141.9590 C   0  0  0  0  0  0  0  0  0  0  0  0
  190.8590  175.9070  144.2360 C   0  0  0  0  0  0  0  0  0  0  0  0
  187.1080  176.5450  141.4700 C   0  0  2  0  0  3  0  0  0  0  0  0
  186.5190  179.0460  148.2870 N   0  0  0  0  0  1  0  0  0  0  0  0
  188.9310  174.8800  141.3630 N   0  0  0  0  0  2  0  0  0  0  0  0
  192.0560  176.6310  144.3040 C   0  0  0  0  0  3  0  0  0  0  0  0
  192.1500  173.8500  144.4530 C   0  0  0  0  0  3  0  0  0  0  0  0
  193.3290  174.5910  144.5310 C   0  0  0  0  0  3  0  0  0  0  0  0
  189.6170  172.9330  142.8260 C   0  0  0  0  0  2  0  0  0  0  0  0
  187.1770  176.8330  143.8720 C   0  0  1  0  0  3  0  0  0  0  0  0
  188.4940  176.1510  141.9330 C   0  0  2  0  0  3  0  0  0  0  0  0
  187.6450  177.9270  144.8260 C   0  0  2  0  0  3  0  0  0  0  0  0
  185.0440  177.2590  142.6670 C   0  0  0  0  0  1  0  0  0  0  0  0
  189.5950  176.7260  144.0830 C   0  0  2  0  0  3  0  0  0  0  0  0
  1 21  1  0  0  0  0
  2  8  1  0  0  0  0
  3 17  1  0  0  0  0
  4 22  1  0  0  0  0
  5 27  1  1  0  0  0
  5 24  1  0  0  0  0
  6  1  1  0  0  0  0
  8  7  1  1  0  0  0
  8 14  1  0  0  0  0
  9 14  2  0  0  0  0
  9 18  1  0  0  0  0
 10  8  1  0  0  0  0
 11 15  2  0  0  0  0
 12 24  1  0  0  0  0
 12 28  1  0  0  0  0
 13  9  1  0  0  0  0
 15 23  1  0  0  0  0
 16  1  2  0  0  0  0
 16 20  1  0  0  0  0
 17 25  1  0  0  0  0
 17  5  1  0  0  0  0
 19 25  1  0  0  0  0
 19 15  1  0  0  0  0
 20  4  2  0  0  0  0
 21 22  2  0  0  0  0
 23  6  1  0  0  0  0
 24 26  1  0  0  0  0
 25 12  1  0  0  0  0
 26 10  1  0  0  0  0
 26 13  1  0  0  0  0
 28 16  1  0  0  0  0
 28 10  1  0  0  0  0
M  END
>  <MODEL>
3

>  <REMARK>
 VINA RESULT:      -8.1      2.168      5.052
  Name = 
  0 active torsions:
  status: ('A' for Active; 'I' for Inactive)
                            x       y       z     vdW  Elec       q    Type
                         _______ _______ _______ _____ _____    ______ ____

>  <TORSDO>
F 0

$$$$
=
 OpenBabel11112417433D

 28 32  0  0  1  0  0  0  0  0999 V2000
  188.6820  176.2560  144.9890 C   0  0  0  0  0  0  0  0  0  0  0  0
  191.8570  177.3310  144.0320 O   0  0  0  0  0  1  0  0  0  0  0  0
  189.7050  171.9160  140.6280 C   0  0  0  0  0  1  0  0  0  0  0  0
  188.6970  174.9420  147.4710 C   0  0  0  0  0  3  0  0  0  0  0  0
  191.4830  173.6060  141.0570 C   0  0  2  0  0  3  0  0  0  0  0  0
  188.5820  176.9940  143.6870 C   0  0  0  0  0  2  0  0  0  0  0  0
  192.0480  176.6440  146.3000 C   0  0  0  0  0  1  0  0  0  0  0  0
  192.4620  176.3850  144.8630 C   0  0  1  0  0  0  0  0  0  0  0  0
  194.6510  176.0410  143.7810 C   0  0  0  0  0  0  0  0  0  0  0  0
  192.0900  174.9450  144.4240 C   0  0  2  0  0  3  0  0  0  0  0  0
  187.8160  176.0460  140.6210 O   0  0  0  0  0  0  0  0  0  0  0  0
  190.3020  174.8800  142.7570 C   0  0  1  0  0  3  0  0  0  0  0  0
  193.9640  175.3490  142.6430 C   0  0  0  0  0  2  0  0  0  0  0  0
  193.9500  176.5440  144.7950 C   0  0  0  0  0  3  0  0  0  0  0  0
  187.7080  175.6240  141.8010 C   0  0  0  0  0  0  0  0  0  0  0  0
  189.5950  175.1870  145.2220 C   0  0  0  0  0  0  0  0  0  0  0  0
  189.9890  173.3800  140.8970 C   0  0  2  0  0  3  0  0  0  0  0  0
  196.0590  176.2400  143.7350 N   0  0  0  0  0  1  0  0  0  0  0  0
  188.0230  174.2640  142.1070 N   0  0  0  0  0  2  0  0  0  0  0  0
  189.5770  174.5410  146.4650 C   0  0  0  0  0  3  0  0  0  0  0  0
  187.8090  176.6470  146.0120 C   0  0  0  0  0  3  0  0  0  0  0  0
  187.8160  175.9980  147.2460 C   0  0  0  0  0  3  0  0  0  0  0  0
  187.3430  176.5680  142.9000 C   0  0  0  0  0  2  0  0  0  0  0  0
  191.6170  174.7800  142.0130 C   0  0  1  0  0  3  0  0  0  0  0  0
  189.3980  173.7860  142.2300 C   0  0  2  0  0  3  0  0  0  0  0  0
  192.7070  174.5640  143.0570 C   0  0  2  0  0  3  0  0  0  0  0  0
  192.1070  173.9550  139.7200 C   0  0  0  0  0  1  0  0  0  0  0  0
  190.6000  174.6650  144.2170 C   0  0  2  0  0  3  0  0  0  0  0  0
  1 16  2  0  0  0  0
  1 21  1  0  0  0  0
  2  8  1  0  0  0  0
  3 17  1  0  0  0  0
  5 27  1  6  0  0  0
  5 24  1  0  0  0  0
  6  1  1  0  0  0  0
  8  7  1  1  0  0  0
  9 14  2  0  0  0  0
 10  8  1  0  0  0  0
 11 15  2  0  0  0  0
 12 28  1  0  0  0  0
 13 26  1  0  0  0  0
 13  9  1  0  0  0  0
 14  8  1  0  0  0  0
 15 19  1  0  0  0  0
 15 23  1  0  0  0  0
 16 20  1  0  0  0  0
 17  5  1  0  0  0  0
 17 25  1  0  0  0  0
 18  9  1  0  0  0  0
 19 25  1  0  0  0  0
 20  4  2  0  0  0  0
 21 22  2  0  0  0  0
 22  4  1  0  0  0  0
 23  6  1  0  0  0  0
 24 12  1  0  0  0  0
 24 26  1  0  0  0  0
 25 12  1  0  0  0  0
 26 10  1  0  0  0  0
 28 10  1  0  0  0  0
 28 16  1  0  0  0  0
M  END
>  <MODEL>
4

>  <REMARK>
 VINA RESULT:      -8.0      1.797      2.709
  Name = 
  0 active torsions:
  status: ('A' for Active; 'I' for Inactive)
                            x       y       z     vdW  Elec       q    Type
                         _______ _______ _______ _____ _____    ______ ____

>  <TORSDO>
F 0

$$$$
=
 OpenBabel11112417433D

 28 32  0  0  1  0  0  0  0  0999 V2000
  191.4940  174.8480  142.1240 C   0  0  0  0  0  0  0  0  0  0  0  0
  189.2060  177.4740  142.2680 O   0  0  0  0  0  1  0  0  0  0  0  0
  191.1920  175.2910  148.3370 C   0  0  0  0  0  1  0  0  0  0  0  0
  190.2890  172.4120  141.4160 C   0  0  0  0  0  3  0  0  0  0  0  0
  189.8000  176.8390  146.9700 C   0  0  2  0  0  3  0  0  0  0  0  0
  192.2210  176.1190  142.4500 C   0  0  0  0  0  2  0  0  0  0  0  0
  188.0580  175.6510  141.2620 C   0  0  0  0  0  1  0  0  0  0  0  0
  188.1470  176.5820  142.4570 C   0  0  1  0  0  0  0  0  0  0  0  0
  186.4820  177.9660  143.6370 C   0  0  0  0  0  0  0  0  0  0  0  0
  188.3240  175.7850  143.7750 C   0  0  2  0  0  3  0  0  0  0  0  0
  193.8170  177.1660  145.1410 O   0  0  0  0  0  0  0  0  0  0  0  0
  190.5340  176.0740  144.7830 C   0  0  1  0  0  3  0  0  0  0  0  0
  187.3640  177.9690  144.8490 C   0  0  0  0  0  2  0  0  0  0  0  0
  186.8600  177.3450  142.5210 C   0  0  0  0  0  3  0  0  0  0  0  0
  193.3940  176.0890  144.6460 C   0  0  0  0  0  0  0  0  0  0  0  0
  190.3470  174.3900  142.8340 C   0  0  0  0  0  0  0  0  0  0  0  0
  191.1610  176.1770  147.1080 C   0  0  2  0  0  3  0  0  0  0  0  0
  185.2690  178.7080  143.6500 N   0  0  0  0  0  1  0  0  0  0  0  0
  192.6960  175.1500  145.4660 N   0  0  0  0  0  2  0  0  0  0  0  0
  189.7690  173.1670  142.4690 C   0  0  0  0  0  3  0  0  0  0  0  0
  192.0000  174.0780  141.0680 C   0  0  0  0  0  3  0  0  0  0  0  0
  191.4020  172.8690  140.7140 C   0  0  0  0  0  3  0  0  0  0  0  0
  193.5340  175.8370  143.1800 C   0  0  0  0  0  2  0  0  0  0  0  0
  189.5910  177.0340  145.4770 C   0  0  1  0  0  3  0  0  0  0  0  0
  191.3020  175.3340  145.8590 C   0  0  2  0  0  3  0  0  0  0  0  0
  188.1780  176.6760  145.0320 C   0  0  2  0  0  3  0  0  0  0  0  0
  189.7980  178.1840  147.6710 C   0  0  0  0  0  1  0  0  0  0  0  0
  189.6870  175.1190  143.9850 C   0  0  2  0  0  3  0  0  0  0  0  0
  1  6  1  0  0  0  0
  1 16  1  0  0  0  0
  2  8  1  0  0  0  0
  4 20  1  0  0  0  0
  5 17  1  0  0  0  0
  5 27  1  1  0  0  0
  6 23  1  0  0  0  0
  8  7  1  6  0  0  0
  8 14  1  0  0  0  0
  8 10  1  0  0  0  0
  9 18  1  0  0  0  0
  9 13  1  0  0  0  0
 10 28  1  0  0  0  0
 10 26  1  0  0  0  0
 12 24  1  0  0  0  0
 12 25  1  0  0  0  0
 13 26  1  0  0  0  0
 14  9  2  0  0  0  0
 15 11  2  0  0  0  0
 15 19  1  0  0  0  0
 16 28  1  0  0  0  0
 17  3  1  0  0  0  0
 19 25  1  0  0  0  0
 20 16  2  0  0  0  0
 21  1  2  0  0  0  0
 22 21  1  0  0  0  0
 22  4  2  0  0  0  0
 23 15  1  0  0  0  0
 24  5  1  0  0  0  0
 25 17  1  0  0  0  0
 26 24  1  0  0  0  0
 28 12  1  0  0  0  0
M  END
>  <MODEL>
5

>  <REMARK>
 VINA RESULT:      -7.8      1.710      6.382
  Name = 
  0 active torsions:
  status: ('A' for Active; 'I' for Inactive)
                            x       y       z     vdW  Elec       q    Type
                         _______ _______ _______ _____ _____    ______ ____

>  <TORSDO>
F 0

$$$$
=
 OpenBabel11112417433D

 28 32  0  0  1  0  0  0  0  0999 V2000
  188.3950  176.1400  145.5650 C   0  0  0  0  0  0  0  0  0  0  0  0
  189.3160  173.6410  143.3150 O   0  0  0  0  0  1  0  0  0  0  0  0
  194.4920  177.4440  145.3880 C   0  0  0  0  0  1  0  0  0  0  0  0
  187.0640  178.2730  144.3130 C   0  0  0  0  0  3  0  0  0  0  0  0
  193.6410  175.5660  143.9910 C   0  0  2  0  0  3  0  0  0  0  0  0
  189.0460  175.0150  146.3150 C   0  0  0  0  0  2  0  0  0  0  0  0
  187.8680  175.1020  142.1240 C   0  0  0  0  0  1  0  0  0  0  0  0
  189.2730  174.5420  142.2490 C   0  0  1  0  0  0  0  0  0  0  0  0
  190.8290  173.5300  140.6250 C   0  0  0  0  0  0  0  0  0  0  0  0
  190.3130  175.6770  142.4400 C   0  0  2  0  0  3  0  0  0  0  0  0
  191.8870  174.7720  147.9770 O   0  0  0  0  0  0  0  0  0  0  0  0
  191.3120  175.6970  144.6720 C   0  0  1  0  0  3  0  0  0  0  0  0
  191.9730  173.8710  141.5310 C   0  0  0  0  0  2  0  0  0  0  0  0
  189.5760  173.8170  140.9740 C   0  0  0  0  0  3  0  0  0  0  0  0
  191.1200  175.6650  147.5290 C   0  0  0  0  0  0  0  0  0  0  0  0
  188.9750  176.7690  144.4250 C   0  0  0  0  0  0  0  0  0  0  0  0
  193.5590  176.2500  145.3450 C   0  0  2  0  0  3  0  0  0  0  0  0
  191.0750  172.8110  139.4230 N   0  0  0  0  0  1  0  0  0  0  0  0
  191.6620  176.7910  146.8350 N   0  0  0  0  0  2  0  0  0  0  0  0
  188.2970  177.8380  143.8240 C   0  0  0  0  0  3  0  0  0  0  0  0
  187.1560  176.5890  146.0400 C   0  0  0  0  0  3  0  0  0  0  0  0
  186.4930  177.6460  145.4180 C   0  0  0  0  0  3  0  0  0  0  0  0
  189.6400  175.5000  147.6380 C   0  0  0  0  0  2  0  0  0  0  0  0
  192.2660  174.9610  143.7570 C   0  0  1  0  0  3  0  0  0  0  0  0
  192.1220  176.7130  145.4510 C   0  0  2  0  0  3  0  0  0  0  0  0
  191.7700  175.1700  142.3300 C   0  0  2  0  0  3  0  0  0  0  0  0
  194.6890  174.4700  144.0210 C   0  0  0  0  0  1  0  0  0  0  0  0
  190.2980  176.3850  143.7980 C   0  0  2  0  0  3  0  0  0  0  0  0
  1 21  1  0  0  0  0
  1  6  1  0  0  0  0
  4 22  1  0  0  0  0
  5 27  1  1  0  0  0
  5 17  1  0  0  0  0
  6 23  1  0  0  0  0
  8  7  1  6  0  0  0
  8 10  1  0  0  0  0
  8  2  1  0  0  0  0
  9 14  2  0  0  0  0
  9 13  1  0  0  0  0
 10 28  1  0  0  0  0
 12 25  1  0  0  0  0
 13 26  1  0  0  0  0
 14  8  1  0  0  0  0
 15 23  1  0  0  0  0
 15 11  2  0  0  0  0
 16  1  2  0  0  0  0
 17  3  1  0  0  0  0
 17 25  1  0  0  0  0
 18  9  1  0  0  0  0
 19 15  1  0  0  0  0
 20  4  2  0  0  0  0
 20 16  1  0  0  0  0
 22 21  2  0  0  0  0
 24  5  1  0  0  0  0
 24 12  1  0  0  0  0
 25 19  1  0  0  0  0
 26 10  1  0  0  0  0
 26 24  1  0  0  0  0
 28 16  1  0  0  0  0
 28 12  1  0  0  0  0
M  END
>  <MODEL>
6

>  <REMARK>
 VINA RESULT:      -7.8      2.218      5.288
  Name = 
  0 active torsions:
  status: ('A' for Active; 'I' for Inactive)
                            x       y       z     vdW  Elec       q    Type
                         _______ _______ _______ _____ _____    ______ ____

>  <TORSDO>
F 0

$$$$
=
 OpenBabel11112417433D

 28 32  0  0  1  0  0  0  0  0999 V2000
  191.6390  174.3370  142.5410 C   0  0  0  0  0  0  0  0  0  0  0  0
  191.2170  174.7250  145.9800 O   0  0  0  0  0  1  0  0  0  0  0  0
  187.0050  178.5050  142.3040 C   0  0  0  0  0  1  0  0  0  0  0  0
  193.9480  175.6250  141.5910 C   0  0  0  0  0  3  0  0  0  0  0  0
  187.8370  177.7840  144.5380 C   0  0  2  0  0  3  0  0  0  0  0  0
  190.4220  173.5770  142.9790 C   0  0  0  0  0  2  0  0  0  0  0  0
  193.4040  175.5180  145.4890 C   0  0  0  0  0  1  0  0  0  0  0  0
  192.0130  175.8730  145.9790 C   0  0  1  0  0  0  0  0  0  0  0  0
  191.1900  177.0990  147.9550 C   0  0  0  0  0  0  0  0  0  0  0  0
  191.3780  176.9860  145.1050 C   0  0  2  0  0  3  0  0  0  0  0  0
  187.1990  173.9680  142.3890 O   0  0  0  0  0  0  0  0  0  0  0  0
  189.4980  176.1920  143.7570 C   0  0  1  0  0  3  0  0  0  0  0  0
  189.9050  177.3720  147.2330 C   0  0  0  0  0  2  0  0  0  0  0  0
  192.1540  176.3800  147.3810 C   0  0  0  0  0  3  0  0  0  0  0  0
  188.3040  174.3480  141.9210 C   0  0  0  0  0  0  0  0  0  0  0  0
  191.8710  175.7070  142.8590 C   0  0  0  0  0  0  0  0  0  0  0  0
  187.4630  177.3250  143.1390 C   0  0  2  0  0  3  0  0  0  0  0  0
  191.3460  177.5350  149.3000 N   0  0  0  0  0  1  0  0  0  0  0  0
  188.5000  175.7190  141.5720 N   0  0  0  0  0  2  0  0  0  0  0  0
  193.0250  176.3300  142.3660 C   0  0  0  0  0  3  0  0  0  0  0  0
  192.5780  173.6450  141.7660 C   0  0  0  0  0  3  0  0  0  0  0  0
  193.7260  174.2810  141.2950 C   0  0  0  0  0  3  0  0  0  0  0  0
  189.4420  173.3850  141.8210 C   0  0  0  0  0  2  0  0  0  0  0  0
  188.9230  176.8280  145.0040 C   0  0  1  0  0  3  0  0  0  0  0  0
  188.7450  176.7570  142.5700 C   0  0  2  0  0  3  0  0  0  0  0  0
  190.0690  177.5430  145.7120 C   0  0  2  0  0  3  0  0  0  0  0  0
  186.6360  177.6900  145.4590 C   0  0  0  0  0  1  0  0  0  0  0  0
  190.9530  176.5750  143.6920 C   0  0  2  0  0  3  0  0  0  0  0  0
  1 16  1  0  0  0  0
  1  6  1  0  0  0  0
  3 17  1  0  0  0  0
  4 20  1  0  0  0  0
  5 24  1  0  0  0  0
  5 27  1  1  0  0  0
  8  7  1  6  0  0  0
  8  2  1  0  0  0  0
  8 14  1  0  0  0  0
  9 18  1  0  0  0  0
 10 26  1  0  0  0  0
 10  8  1  0  0  0  0
 12 24  1  0  0  0  0
 13  9  1  0  0  0  0
 14  9  2  0  0  0  0
 15 11  2  0  0  0  0
 16 28  1  0  0  0  0
 17  5  1  0  0  0  0
 19 15  1  0  0  0  0
 19 25  1  0  0  0  0
 20 16  2  0  0  0  0
 21  1  2  0  0  0  0
 22  4  2  0  0  0  0
 22 21  1  0  0  0  0
 23 15  1  0  0  0  0
 23  6  1  0  0  0  0
 24 26  1  0  0  0  0
 25 17  1  0  0  0  0
 25 12  1  0  0  0  0
 26 13  1  0  0  0  0
 28 12  1  0  0  0  0
 28 10  1  0  0  0  0
M  END
>  <MODEL>
7

>  <REMARK>
 VINA RESULT:      -7.8      1.967      5.239
  Name = 
  0 active torsions:
  status: ('A' for Active; 'I' for Inactive)
                            x       y       z     vdW  Elec       q    Type
                         _______ _______ _______ _____ _____    ______ ____

>  <TORSDO>
F 0

$$$$
=
 OpenBabel11112417433D

 28 32  0  0  1  0  0  0  0  0999 V2000
  188.7130  176.2250  144.8020 C   0  0  0  0  0  0  0  0  0  0  0  0
  189.0230  172.8370  144.0410 O   0  0  0  0  0  1  0  0  0  0  0  0
  194.8600  175.7630  145.7510 C   0  0  0  0  0  1  0  0  0  0  0  0
  188.3540  177.8100  142.5120 C   0  0  0  0  0  3  0  0  0  0  0  0
  193.6160  173.7290  145.0300 C   0  0  2  0  0  3  0  0  0  0  0  0
  188.8430  175.4420  146.0750 C   0  0  0  0  0  2  0  0  0  0  0  0
  188.3210  173.9030  142.0360 C   0  0  0  0  0  1  0  0  0  0  0  0
  189.4260  173.1350  142.7370 C   0  0  1  0  0  0  0  0  0  0  0  0
  190.7470  171.1480  142.1150 C   0  0  0  0  0  0  0  0  0  0  0  0
  190.7530  173.9380  142.7380 C   0  0  2  0  0  3  0  0  0  0  0  0
  191.1920  175.2910  148.3880 O   0  0  0  0  0  0  0  0  0  0  0  0
  191.4000  174.7230  144.9620 C   0  0  1  0  0  3  0  0  0  0  0  0
  191.8110  171.5700  143.0830 C   0  0  0  0  0  2  0  0  0  0  0  0
  189.6310  171.8610  141.9780 C   0  0  0  0  0  3  0  0  0  0  0  0
  190.8370  176.0400  147.4410 C   0  0  0  0  0  0  0  0  0  0  0  0
  189.6140  176.1040  143.7050 C   0  0  0  0  0  0  0  0  0  0  0  0
  193.5930  174.9500  145.9330 C   0  0  2  0  0  3  0  0  0  0  0  0
  190.8920  169.9260  141.4020 N   0  0  0  0  0  1  0  0  0  0  0  0
  191.8120  176.5560  146.5320 N   0  0  0  0  0  2  0  0  0  0  0  0
  189.4200  176.9120  142.5770 C   0  0  0  0  0  3  0  0  0  0  0  0
  187.6470  177.1290  144.7160 C   0  0  0  0  0  3  0  0  0  0  0  0
  187.4660  177.9160  143.5790 C   0  0  0  0  0  3  0  0  0  0  0  0
  189.3870  176.3130  147.2090 C   0  0  0  0  0  2  0  0  0  0  0  0
  192.1610  173.4420  144.6960 C   0  0  1  0  0  3  0  0  0  0  0  0
  192.3950  175.7470  145.4650 C   0  0  2  0  0  3  0  0  0  0  0  0
  191.9560  173.0950  143.2250 C   0  0  2  0  0  3  0  0  0  0  0  0
  194.2200  172.5460  145.7630 C   0  0  0  0  0  1  0  0  0  0  0  0
  190.8010  175.1640  143.6530 C   0  0  2  0  0  3  0  0  0  0  0  0
  1  6  1  0  0  0  0
  3 17  1  0  0  0  0
  4 20  2  0  0  0  0
  4 22  1  0  0  0  0
  5 27  1  1  0  0  0
  5 17  1  0  0  0  0
  6 23  1  0  0  0  0
  8  7  1  6  0  0  0
  8 10  1  0  0  0  0
  8  2  1  0  0  0  0
  9 13  1  0  0  0  0
 10 26  1  0  0  0  0
 10 28  1  0  0  0  0
 12 25  1  0  0  0  0
 13 26  1  0  0  0  0
 14  9  2  0  0  0  0
 14  8  1  0  0  0  0
 15 11  2  0  0  0  0
 16  1  2  0  0  0  0
 18  9  1  0  0  0  0
 19 15  1  0  0  0  0
 20 16  1  0  0  0  0
 21  1  1  0  0  0  0
 22 21  2  0  0  0  0
 23 15  1  0  0  0  0
 24 12  1  0  0  0  0
 24  5  1  0  0  0  0
 25 17  1  0  0  0  0
 25 19  1  0  0  0  0
 26 24  1  0  0  0  0
 28 16  1  0  0  0  0
 28 12  1  0  0  0  0
M  END
>  <MODEL>
8

>  <REMARK>
 VINA RESULT:      -7.7      2.565      5.553
  Name = 
  0 active torsions:
  status: ('A' for Active; 'I' for Inactive)
                            x       y       z     vdW  Elec       q    Type
                         _______ _______ _______ _____ _____    ______ ____

>  <TORSDO>
F 0

$$$$
=
 OpenBabel11112417433D

 28 32  0  0  1  0  0  0  0  0999 V2000
  195.0030  173.1680  144.2180 C   0  0  0  0  0  0  0  0  0  0  0  0
  192.2310  173.6110  142.1500 O   0  0  0  0  0  1  0  0  0  0  0  0
  191.5660  176.5090  148.2090 C   0  0  0  0  0  1  0  0  0  0  0  0
  195.1620  170.5630  145.2560 C   0  0  0  0  0  3  0  0  0  0  0  0
  190.6110  175.9910  145.9690 C   0  0  2  0  0  3  0  0  0  0  0  0
  195.0200  174.5610  143.6610 C   0  0  0  0  0  2  0  0  0  0  0  0
  192.3850  171.2740  142.5580 C   0  0  0  0  0  1  0  0  0  0  0  0
  191.5710  172.5390  142.7550 C   0  0  1  0  0  0  0  0  0  0  0  0
  189.1970  173.0850  142.3710 C   0  0  0  0  0  0  0  0  0  0  0  0
  191.3250  172.8180  144.2600 C   0  0  2  0  0  3  0  0  0  0  0  0
  194.6530  177.5360  145.0400 O   0  0  0  0  0  0  0  0  0  0  0  0
  192.5240  174.7840  145.0810 C   0  0  1  0  0  3  0  0  0  0  0  0
  189.3150  174.2200  143.3430 C   0  0  0  0  0  2  0  0  0  0  0  0
  190.2510  172.3250  142.0790 C   0  0  0  0  0  3  0  0  0  0  0  0
  194.9010  176.3510  145.3860 C   0  0  0  0  0  0  0  0  0  0  0  0
  193.8740  172.5920  144.8700 C   0  0  0  0  0  0  0  0  0  0  0  0
  191.8580  176.4160  146.7240 C   0  0  2  0  0  3  0  0  0  0  0  0
  187.9680  172.8730  141.6850 N   0  0  0  0  0  1  0  0  0  0  0  0
  194.2380  175.7820  146.5170 N   0  0  0  0  0  2  0  0  0  0  0  0
  193.9810  171.2950  145.3880 C   0  0  0  0  0  3  0  0  0  0  0  0
  196.1790  172.4170  144.0920 C   0  0  0  0  0  3  0  0  0  0  0  0
  196.2590  171.1230  144.6040 C   0  0  0  0  0  3  0  0  0  0  0  0
  195.8160  175.5090  144.5590 C   0  0  0  0  0  2  0  0  0  0  0  0
  191.1110  175.2200  144.7580 C   0  0  1  0  0  3  0  0  0  0  0  0
  192.8570  175.3100  146.4620 C   0  0  2  0  0  3  0  0  0  0  0  0
  190.3020  173.9540  144.4940 C   0  0  2  0  0  3  0  0  0  0  0  0
  189.8300  177.2100  145.5170 C   0  0  0  0  0  1  0  0  0  0  0  0
  192.5400  173.2790  145.0700 C   0  0  2  0  0  3  0  0  0  0  0  0
  1 16  1  0  0  0  0
  2  8  1  0  0  0  0
  4 20  1  0  0  0  0
  5 27  1  6  0  0  0
  5 17  1  0  0  0  0
  6  1  1  0  0  0  0
  6 23  1  0  0  0  0
  8  7  1  6  0  0  0
  8 10  1  0  0  0  0
  9 13  1  0  0  0  0
 10 26  1  0  0  0  0
 10 28  1  0  0  0  0
 11 15  2  0  0  0  0
 12 25  1  0  0  0  0
 13 26  1  0  0  0  0
 14  9  2  0  0  0  0
 14  8  1  0  0  0  0
 15 19  1  0  0  0  0
 16 28  1  0  0  0  0
 16 20  2  0  0  0  0
 17  3  1  0  0  0  0
 18  9  1  0  0  0  0
 21  1  2  0  0  0  0
 21 22  1  0  0  0  0
 22  4  2  0  0  0  0
 23 15  1  0  0  0  0
 24 12  1  0  0  0  0
 24  5  1  0  0  0  0
 25 19  1  0  0  0  0
 25 17  1  0  0  0  0
 26 24  1  0  0  0  0
 28 12  1  0  0  0  0
M  END
>  <MODEL>
9

>  <REMARK>
 VINA RESULT:      -7.0      3.111      7.715
  Name = 
  0 active torsions:
  status: ('A' for Active; 'I' for Inactive)
                            x       y       z     vdW  Elec       q    Type
                         _______ _______ _______ _____ _____    ______ ____

>  <TORSDO>
F 0

$$$$
