=
 OpenBabel11112416263D

 30 35  0  0  1  0  0  0  0  0999 V2000
  188.2430  176.2970  141.8570 C   0  0  2  0  0  3  0  0  0  0  0  0
  189.1380  173.9540  141.1530 C   0  0  0  0  0  0  0  0  0  0  0  0
  189.0910  175.2440  145.7870 O   0  0  0  0  0  0  0  0  0  0  0  0
  187.5130  176.8840  143.0760 C   0  0  2  0  0  3  0  0  0  0  0  0
  187.2870  176.0940  140.8330 O   0  0  0  0  0  0  0  0  0  0  0  0
  185.1020  178.6580  141.2290 O   0  0  0  0  0  0  0  0  0  0  0  0
  185.2620  177.9870  144.6730 C   0  0  1  0  0  3  0  0  0  0  0  0
  186.1910  178.1340  141.4170 C   0  0  0  0  0  0  0  0  0  0  0  0
  185.9700  176.8280  145.4150 C   0  0  2  0  0  3  0  0  0  0  0  0
  188.0930  175.9250  146.4450 C   0  0  0  0  0  0  0  0  0  0  0  0
  186.8930  177.3540  140.3350 C   0  0  2  0  0  3  0  0  0  0  0  0
  186.9360  178.2580  142.7190 C   0  0  1  0  0  3  0  0  0  0  0  0
  189.5970  172.6190  141.5390 C   0  0  0  0  0  3  0  0  0  0  0  0
  185.2170  176.7030  146.7280 C   0  0  0  0  0  2  0  0  0  0  0  0
  184.4530  178.7500  145.7130 C   0  0  0  0  0  2  0  0  0  0  0  0
  188.9110  174.1980  139.9390 O   0  0  0  0  0  0  0  0  0  0  0  0
  189.3710  175.8160  144.5240 C   0  0  2  0  0  3  0  0  0  0  0  0
  190.0570  172.4020  142.7680 C   0  0  0  0  0  3  0  0  0  0  0  0
  188.9250  174.9880  142.2010 C   0  0  0  0  0  0  0  0  0  0  0  0
  188.3570  176.9690  144.3480 C   0  0  2  0  0  3  0  0  0  0  0  0
  187.7710  175.6590  147.6340 O   0  0  0  0  0  0  0  0  0  0  0  0
  187.4990  177.0290  145.6460 C   0  0  1  0  0  3  0  0  0  0  0  0
  184.7120  178.0880  147.0490 C   0  0  0  0  0  2  0  0  0  0  0  0
  185.5340  180.0910  143.4810 O   0  0  0  0  0  1  0  0  0  0  0  0
  190.2160  173.5210  143.7590 C   0  0  0  0  0  2  0  0  0  0  0  0
  189.3990  174.7580  143.4480 C   0  0  0  0  0  0  0  0  0  0  0  0
  186.1940  178.9300  143.8940 C   0  0  1  0  0  3  0  0  0  0  0  0
  186.0580  177.1760  139.2280 O   0  0  0  0  0  0  0  0  0  0  0  0
  185.9840  176.0960  137.1120 C   0  0  0  0  0  1  0  0  0  0  0  0
  186.8380  176.4830  138.3020 C   0  0  0  0  0  2  0  0  0  0  0  0
  1  5  1  6  0  0  0
  1 19  1  0  0  0  0
  1  4  1  0  0  0  0
  2 13  1  0  0  0  0
  2 19  1  0  0  0  0
  3 10  1  0  0  0  0
  4 20  1  0  0  0  0
  6  8  2  0  0  0  0
  7  9  1  0  0  0  0
  7 15  1  0  0  0  0
  8 12  1  0  0  0  0
  9 22  1  0  0  0  0
  9 14  1  0  0  0  0
 10 21  2  0  0  0  0
 11  5  1  0  0  0  0
 11  8  1  0  0  0  0
 12  4  1  0  0  0  0
 12 27  1  0  0  0  0
 13 18  2  0  0  0  0
 14 23  1  0  0  0  0
 15 23  1  0  0  0  0
 16  2  2  0  0  0  0
 17  3  1  0  0  0  0
 18 25  1  0  0  0  0
 19 26  2  0  0  0  0
 20 17  1  0  0  0  0
 20 22  1  0  0  0  0
 22 10  1  0  0  0  0
 24 27  1  0  0  0  0
 26 25  1  0  0  0  0
 26 17  1  0  0  0  0
 27  7  1  0  0  0  0
 28 11  1  0  0  0  0
 29 30  1  0  0  0  0
 30 28  1  0  0  0  0
M  END
>  <MODEL>
1

>  <REMARK>
 VINA RESULT:      -9.1      0.000      0.000
  Name = 
  2 active torsions:
  status: ('A' for Active; 'I' for Inactive)
    1  A    between atoms: C_11  and  O_28
    2  A    between atoms: O_28  and  C_30
                            x       y       z     vdW  Elec       q    Type
                         _______ _______ _______ _____ _____    ______ ____

>  <TORSDO>
F 2

$$$$
=
 OpenBabel11112416263D

 30 35  0  0  1  0  0  0  0  0999 V2000
  186.9890  177.3100  144.1870 C   0  0  2  0  0  3  0  0  0  0  0  0
  184.6650  178.1750  143.3870 C   0  0  0  0  0  0  0  0  0  0  0  0
  187.6750  176.0740  140.2790 O   0  0  0  0  0  0  0  0  0  0  0  0
  187.9320  176.1570  143.8080 C   0  0  2  0  0  3  0  0  0  0  0  0
  186.2980  176.9390  145.3650 O   0  0  0  0  0  0  0  0  0  0  0  0
  188.5670  175.1160  147.1070 O   0  0  0  0  0  0  0  0  0  0  0  0
  189.3380  173.5510  144.0590 C   0  0  1  0  0  3  0  0  0  0  0  0
  188.2770  175.9220  146.2350 C   0  0  0  0  0  0  0  0  0  0  0  0
  188.6490  173.6930  142.6800 C   0  0  2  0  0  3  0  0  0  0  0  0
  188.4530  174.9630  140.5050 C   0  0  0  0  0  0  0  0  0  0  0  0
  187.2090  176.9660  146.4430 C   0  0  2  0  0  3  0  0  0  0  0  0
  188.9830  175.9690  144.9060 C   0  0  1  0  0  3  0  0  0  0  0  0
  183.6480  178.2510  142.3370 C   0  0  0  0  0  3  0  0  0  0  0  0
  188.9770  172.3990  141.9570 C   0  0  0  0  0  2  0  0  0  0  0  0
  190.3630  172.4320  143.9270 C   0  0  0  0  0  2  0  0  0  0  0  0
  184.3820  178.5790  144.5460 O   0  0  0  0  0  0  0  0  0  0  0  0
  187.7250  176.9790  141.3650 C   0  0  2  0  0  3  0  0  0  0  0  0
  183.9850  178.0460  141.0680 C   0  0  0  0  0  3  0  0  0  0  0  0
  186.0020  177.6030  143.0740 C   0  0  0  0  0  0  0  0  0  0  0  0
  188.6010  176.3000  142.4410 C   0  0  2  0  0  3  0  0  0  0  0  0
  188.6490  174.0890  139.6190 O   0  0  0  0  0  0  0  0  0  0  0  0
  189.0820  174.9410  141.8520 C   0  0  1  0  0  3  0  0  0  0  0  0
  190.3160  171.9540  142.4930 C   0  0  0  0  0  2  0  0  0  0  0  0
  190.8120  174.5790  145.6990 O   0  0  0  0  0  1  0  0  0  0  0  0
  185.4150  177.8350  140.6550 C   0  0  0  0  0  2  0  0  0  0  0  0
  186.3350  177.4010  141.7780 C   0  0  0  0  0  0  0  0  0  0  0  0
  189.9860  174.8360  144.6010 C   0  0  1  0  0  3  0  0  0  0  0  0
  186.5210  176.7420  147.6390 O   0  0  0  0  0  0  0  0  0  0  0  0
  186.7040  179.0560  148.1500 C   0  0  0  0  0  1  0  0  0  0  0  0
  185.7730  177.9020  147.8420 C   0  0  0  0  0  2  0  0  0  0  0  0
  1 19  1  6  0  0  0
  1  5  1  0  0  0  0
  2 16  2  0  0  0  0
  3 10  1  0  0  0  0
  3 17  1  0  0  0  0
  4  1  1  0  0  0  0
  4 12  1  0  0  0  0
  5 11  1  0  0  0  0
  7 27  1  0  0  0  0
  8 11  1  0  0  0  0
  8  6  2  0  0  0  0
  9  7  1  0  0  0  0
 10 22  1  0  0  0  0
 11 28  1  0  0  0  0
 12  8  1  0  0  0  0
 13  2  1  0  0  0  0
 14 23  1  0  0  0  0
 14  9  1  0  0  0  0
 15  7  1  0  0  0  0
 17 26  1  0  0  0  0
 17 20  1  0  0  0  0
 18 13  2  0  0  0  0
 19  2  1  0  0  0  0
 20  4  1  0  0  0  0
 21 10  2  0  0  0  0
 22 20  1  0  0  0  0
 22  9  1  0  0  0  0
 23 15  1  0  0  0  0
 25 18  1  0  0  0  0
 25 26  1  0  0  0  0
 26 19  2  0  0  0  0
 27 12  1  0  0  0  0
 27 24  1  0  0  0  0
 28 30  1  0  0  0  0
 30 29  1  0  0  0  0
M  END
>  <MODEL>
2

>  <REMARK>
 VINA RESULT:      -8.8      1.645      6.724
  Name = 
  2 active torsions:
  status: ('A' for Active; 'I' for Inactive)
    1  A    between atoms: C_11  and  O_28
    2  A    between atoms: O_28  and  C_30
                            x       y       z     vdW  Elec       q    Type
                         _______ _______ _______ _____ _____    ______ ____

>  <TORSDO>
F 2

$$$$
=
 OpenBabel11112416263D

 30 35  0  0  1  0  0  0  0  0999 V2000
  188.3340  177.3740  145.2750 C   0  0  2  0  0  3  0  0  0  0  0  0
  186.1640  178.0860  146.5290 C   0  0  0  0  0  0  0  0  0  0  0  0
  186.3620  178.2630  141.7260 O   0  0  0  0  0  0  0  0  0  0  0  0
  188.6700  176.7220  143.9240 C   0  0  2  0  0  3  0  0  0  0  0  0
  188.4270  176.3780  146.2760 O   0  0  0  0  0  0  0  0  0  0  0  0
  190.9590  174.3850  145.2150 O   0  0  0  0  0  0  0  0  0  0  0  0
  189.5110  174.5990  142.0230 C   0  0  1  0  0  3  0  0  0  0  0  0
  190.3420  175.4400  145.1980 C   0  0  0  0  0  0  0  0  0  0  0  0
  188.1730  175.2480  141.5930 C   0  0  2  0  0  3  0  0  0  0  0  0
  186.9330  177.3330  140.8880 C   0  0  0  0  0  0  0  0  0  0  0  0
  189.7890  176.0560  146.4580 C   0  0  2  0  0  3  0  0  0  0  0  0
  190.1200  176.2300  143.9360 C   0  0  1  0  0  3  0  0  0  0  0  0
  184.7510  178.4650  146.4750 C   0  0  0  0  0  3  0  0  0  0  0  0
  187.7960  174.5260  140.3110 C   0  0  0  0  0  2  0  0  0  0  0  0
  190.0630  173.8750  140.8020 C   0  0  0  0  0  2  0  0  0  0  0  0
  186.6920  177.8420  147.6460 O   0  0  0  0  0  0  0  0  0  0  0  0
  187.1900  178.5440  142.8380 C   0  0  2  0  0  3  0  0  0  0  0  0
  184.2330  178.9440  145.3490 C   0  0  0  0  0  3  0  0  0  0  0  0
  186.9420  177.9750  145.2660 C   0  0  0  0  0  0  0  0  0  0  0  0
  188.4110  177.6070  142.7050 C   0  0  2  0  0  3  0  0  0  0  0  0
  186.4220  177.0280  139.7770 O   0  0  0  0  0  0  0  0  0  0  0  0
  188.2240  176.7930  141.3900 C   0  0  1  0  0  3  0  0  0  0  0  0
  189.1000  174.1270  139.6630 C   0  0  0  0  0  2  0  0  0  0  0  0
  191.8120  174.9790  142.7190 O   0  0  0  0  0  1  0  0  0  0  0  0
  185.0830  179.2080  144.1380 C   0  0  0  0  0  2  0  0  0  0  0  0
  186.4050  178.4690  144.1250 C   0  0  0  0  0  0  0  0  0  0  0  0
  190.5500  175.5710  142.6080 C   0  0  1  0  0  3  0  0  0  0  0  0
  189.9190  175.1790  147.5390 O   0  0  0  0  0  0  0  0  0  0  0  0
  191.2860  176.9560  148.3290 C   0  0  0  0  0  1  0  0  0  0  0  0
  191.1730  175.4660  148.0810 C   0  0  0  0  0  2  0  0  0  0  0  0
  1 19  1  6  0  0  0
  1  5  1  0  0  0  0
  2 16  2  0  0  0  0
  3 17  1  0  0  0  0
  4 12  1  0  0  0  0
  4  1  1  0  0  0  0
  5 11  1  0  0  0  0
  7 27  1  0  0  0  0
  8  6  2  0  0  0  0
  8 11  1  0  0  0  0
  9  7  1  0  0  0  0
 10 22  1  0  0  0  0
 10  3  1  0  0  0  0
 11 28  1  0  0  0  0
 12  8  1  0  0  0  0
 13  2  1  0  0  0  0
 14  9  1  0  0  0  0
 15  7  1  0  0  0  0
 17 26  1  0  0  0  0
 18 13  2  0  0  0  0
 19  2  1  0  0  0  0
 20 17  1  0  0  0  0
 20  4  1  0  0  0  0
 21 10  2  0  0  0  0
 22  9  1  0  0  0  0
 22 20  1  0  0  0  0
 23 14  1  0  0  0  0
 23 15  1  0  0  0  0
 25 18  1  0  0  0  0
 26 25  1  0  0  0  0
 26 19  2  0  0  0  0
 27 24  1  0  0  0  0
 27 12  1  0  0  0  0
 28 30  1  0  0  0  0
 30 29  1  0  0  0  0
M  END
>  <MODEL>
3

>  <REMARK>
 VINA RESULT:      -8.5      1.715      7.128
  Name = 
  2 active torsions:
  status: ('A' for Active; 'I' for Inactive)
    1  A    between atoms: C_11  and  O_28
    2  A    between atoms: O_28  and  C_30
                            x       y       z     vdW  Elec       q    Type
                         _______ _______ _______ _____ _____    ______ ____

>  <TORSDO>
F 2

$$$$
=
 OpenBabel11112416263D

 30 35  0  0  1  0  0  0  0  0999 V2000
  187.8100  175.6220  143.1970 C   0  0  2  0  0  3  0  0  0  0  0  0
  186.2900  177.6540  142.6110 C   0  0  0  0  0  0  0  0  0  0  0  0
  188.4770  177.4120  146.8880 O   0  0  0  0  0  0  0  0  0  0  0  0
  189.0710  175.3890  144.0450 C   0  0  2  0  0  3  0  0  0  0  0  0
  188.2030  175.6930  141.8400 O   0  0  0  0  0  0  0  0  0  0  0  0
  190.7890  173.5080  141.6190 O   0  0  0  0  0  0  0  0  0  0  0  0
  191.9400  174.8900  144.6360 C   0  0  1  0  0  3  0  0  0  0  0  0
  189.7980  173.9480  142.1850 C   0  0  0  0  0  0  0  0  0  0  0  0
  191.4010  176.1050  145.4280 C   0  0  2  0  0  3  0  0  0  0  0  0
  189.7640  176.9930  147.1360 C   0  0  0  0  0  0  0  0  0  0  0  0
  188.5820  174.4010  141.4170 C   0  0  2  0  0  3  0  0  0  0  0  0
  189.6920  174.0360  143.6840 C   0  0  1  0  0  3  0  0  0  0  0  0
  185.7930  178.9890  142.9510 C   0  0  0  0  0  3  0  0  0  0  0  0
  192.5900  176.5870  146.2400 C   0  0  0  0  0  2  0  0  0  0  0  0
  193.2310  174.4560  145.3170 C   0  0  0  0  0  2  0  0  0  0  0  0
  186.0370  177.1770  141.4730 O   0  0  0  0  0  0  0  0  0  0  0  0
  187.8130  176.5540  145.9800 C   0  0  2  0  0  3  0  0  0  0  0  0
  185.8490  179.4190  144.2080 C   0  0  0  0  0  3  0  0  0  0  0  0
  187.1020  176.8990  143.6020 C   0  0  0  0  0  0  0  0  0  0  0  0
  188.8570  175.4980  145.5540 C   0  0  2  0  0  3  0  0  0  0  0  0
  190.4920  177.5410  148.0050 O   0  0  0  0  0  0  0  0  0  0  0  0
  190.1680  175.8070  146.3350 C   0  0  1  0  0  3  0  0  0  0  0  0
  193.4280  175.3620  146.5130 C   0  0  0  0  0  2  0  0  0  0  0  0
  191.5940  172.5610  144.0210 O   0  0  0  0  0  1  0  0  0  0  0  0
  186.3200  178.5320  145.3260 C   0  0  0  0  0  2  0  0  0  0  0  0
  187.1490  177.3460  144.8800 C   0  0  0  0  0  0  0  0  0  0  0  0
  190.9610  173.7120  144.5000 C   0  0  1  0  0  3  0  0  0  0  0  0
  188.8390  174.4170  140.0420 O   0  0  0  0  0  0  0  0  0  0  0  0
  188.5660  173.0850  138.0930 C   0  0  0  0  0  1  0  0  0  0  0  0
  188.1920  173.2850  139.5470 C   0  0  0  0  0  2  0  0  0  0  0  0
  1  5  1  6  0  0  0
  1 19  1  0  0  0  0
  1  4  1  0  0  0  0
  2 13  1  0  0  0  0
  2 19  1  0  0  0  0
  3 10  1  0  0  0  0
  4 20  1  0  0  0  0
  6  8  2  0  0  0  0
  7 15  1  0  0  0  0
  7  9  1  0  0  0  0
  8 12  1  0  0  0  0
  9 14  1  0  0  0  0
  9 22  1  0  0  0  0
 10 21  2  0  0  0  0
 11  5  1  0  0  0  0
 11  8  1  0  0  0  0
 12  4  1  0  0  0  0
 12 27  1  0  0  0  0
 13 18  2  0  0  0  0
 14 23  1  0  0  0  0
 15 23  1  0  0  0  0
 16  2  2  0  0  0  0
 17  3  1  0  0  0  0
 18 25  1  0  0  0  0
 19 26  2  0  0  0  0
 20 17  1  0  0  0  0
 20 22  1  0  0  0  0
 22 10  1  0  0  0  0
 24 27  1  0  0  0  0
 26 25  1  0  0  0  0
 26 17  1  0  0  0  0
 27  7  1  0  0  0  0
 28 11  1  0  0  0  0
 29 30  1  0  0  0  0
 30 28  1  0  0  0  0
M  END
>  <MODEL>
4

>  <REMARK>
 VINA RESULT:      -8.3      2.139      5.546
  Name = 
  2 active torsions:
  status: ('A' for Active; 'I' for Inactive)
    1  A    between atoms: C_11  and  O_28
    2  A    between atoms: O_28  and  C_30
                            x       y       z     vdW  Elec       q    Type
                         _______ _______ _______ _____ _____    ______ ____

>  <TORSDO>
F 2

$$$$
=
 OpenBabel11112416263D

 30 35  0  0  1  0  0  0  0  0999 V2000
  190.1050  176.0270  145.1490 C   0  0  2  0  0  3  0  0  0  0  0  0
  192.5920  176.1060  144.3780 C   0  0  0  0  0  0  0  0  0  0  0  0
  189.0900  175.2360  141.1970 O   0  0  0  0  0  0  0  0  0  0  0  0
  188.7410  176.3740  144.5310 C   0  0  2  0  0  3  0  0  0  0  0  0
  190.4760  177.0860  146.0110 O   0  0  0  0  0  0  0  0  0  0  0  0
  187.5310  178.1540  147.3130 O   0  0  0  0  0  0  0  0  0  0  0  0
  186.2440  177.9120  144.0540 C   0  0  1  0  0  3  0  0  0  0  0  0
  188.2140  177.3130  146.7450 C   0  0  0  0  0  0  0  0  0  0  0  0
  186.9780  177.5990  142.7290 C   0  0  2  0  0  3  0  0  0  0  0  0
  187.8620  175.8530  141.1300 C   0  0  0  0  0  0  0  0  0  0  0  0
  189.6420  177.0470  147.1490 C   0  0  2  0  0  3  0  0  0  0  0  0
  187.6800  176.4510  145.6330 C   0  0  1  0  0  3  0  0  0  0  0  0
  193.5670  176.1220  143.2850 C   0  0  0  0  0  3  0  0  0  0  0  0
  186.1010  178.2160  141.6540 C   0  0  0  0  0  2  0  0  0  0  0  0
  184.8130  178.2870  143.6890 C   0  0  0  0  0  2  0  0  0  0  0  0
  192.9810  176.3470  145.5510 O   0  0  0  0  0  0  0  0  0  0  0  0
  189.4320  174.8940  142.5260 C   0  0  2  0  0  3  0  0  0  0  0  0
  193.2320  175.6550  142.0870 C   0  0  0  0  0  3  0  0  0  0  0  0
  191.1610  175.8310  144.0790 C   0  0  0  0  0  0  0  0  0  0  0  0
  188.2880  175.4370  143.4120 C   0  0  2  0  0  3  0  0  0  0  0  0
  187.3110  176.1330  140.0330 O   0  0  0  0  0  0  0  0  0  0  0  0
  187.2400  176.0860  142.4610 C   0  0  1  0  0  3  0  0  0  0  0  0
  184.6900  178.1550  142.1870 C   0  0  0  0  0  2  0  0  0  0  0  0
  185.3730  177.0190  146.1440 O   0  0  0  0  0  1  0  0  0  0  0  0
  191.8980  175.0080  141.8370 C   0  0  0  0  0  2  0  0  0  0  0  0
  190.8320  175.3520  142.8560 C   0  0  0  0  0  0  0  0  0  0  0  0
  186.2710  176.7830  145.0990 C   0  0  1  0  0  3  0  0  0  0  0  0
  190.0810  177.9940  148.0800 O   0  0  0  0  0  0  0  0  0  0  0  0
  191.5690  178.1880  149.9220 C   0  0  0  0  0  1  0  0  0  0  0  0
  191.2050  177.4160  148.6720 C   0  0  0  0  0  2  0  0  0  0  0  0
  1 19  1  6  0  0  0
  1  5  1  0  0  0  0
  2 16  2  0  0  0  0
  3 17  1  0  0  0  0
  4  1  1  0  0  0  0
  4 12  1  0  0  0  0
  5 11  1  0  0  0  0
  7 27  1  0  0  0  0
  8 11  1  0  0  0  0
  8  6  2  0  0  0  0
  9  7  1  0  0  0  0
 10  3  1  0  0  0  0
 10 22  1  0  0  0  0
 11 28  1  0  0  0  0
 12  8  1  0  0  0  0
 13  2  1  0  0  0  0
 14 23  1  0  0  0  0
 14  9  1  0  0  0  0
 15  7  1  0  0  0  0
 17 26  1  0  0  0  0
 17 20  1  0  0  0  0
 18 13  2  0  0  0  0
 19  2  1  0  0  0  0
 20  4  1  0  0  0  0
 21 10  2  0  0  0  0
 22  9  1  0  0  0  0
 22 20  1  0  0  0  0
 23 15  1  0  0  0  0
 25 18  1  0  0  0  0
 25 26  1  0  0  0  0
 26 19  2  0  0  0  0
 27 12  1  0  0  0  0
 27 24  1  0  0  0  0
 28 30  1  0  0  0  0
 30 29  1  0  0  0  0
M  END
>  <MODEL>
5

>  <REMARK>
 VINA RESULT:      -8.3      2.424      5.746
  Name = 
  2 active torsions:
  status: ('A' for Active; 'I' for Inactive)
    1  A    between atoms: C_11  and  O_28
    2  A    between atoms: O_28  and  C_30
                            x       y       z     vdW  Elec       q    Type
                         _______ _______ _______ _____ _____    ______ ____

>  <TORSDO>
F 2

$$$$
=
 OpenBabel11112416263D

 30 35  0  0  1  0  0  0  0  0999 V2000
  186.5460  176.7900  144.2630 C   0  0  2  0  0  3  0  0  0  0  0  0
  185.2430  178.5450  145.6800 C   0  0  0  0  0  0  0  0  0  0  0  0
  189.2690  176.5470  147.3930 O   0  0  0  0  0  0  0  0  0  0  0  0
  188.0170  176.3800  144.0860 C   0  0  2  0  0  3  0  0  0  0  0  0
  186.1850  177.6060  143.1640 O   0  0  0  0  0  0  0  0  0  0  0  0
  187.9490  176.3130  140.5700 O   0  0  0  0  0  0  0  0  0  0  0  0
  190.6750  176.1490  142.7790 C   0  0  1  0  0  3  0  0  0  0  0  0
  187.4670  176.2290  141.6910 C   0  0  0  0  0  0  0  0  0  0  0  0
  190.7990  176.6820  144.2260 C   0  0  2  0  0  3  0  0  0  0  0  0
  190.4250  176.2870  146.6940 C   0  0  0  0  0  0  0  0  0  0  0  0
  186.1060  176.7920  142.0130 C   0  0  2  0  0  3  0  0  0  0  0  0
  188.1650  175.5250  142.8230 C   0  0  1  0  0  3  0  0  0  0  0  0
  185.1860  179.4160  146.8560 C   0  0  0  0  0  3  0  0  0  0  0  0
  192.2910  176.8810  144.4300 C   0  0  0  0  0  2  0  0  0  0  0  0
  192.0570  175.6570  142.3690 C   0  0  0  0  0  2  0  0  0  0  0  0
  184.3740  178.6750  144.7780 O   0  0  0  0  0  0  0  0  0  0  0  0
  188.1190  176.1680  146.6620 C   0  0  2  0  0  3  0  0  0  0  0  0
  185.9440  179.1520  147.9160 C   0  0  0  0  0  3  0  0  0  0  0  0
  186.3360  177.5430  145.5610 C   0  0  0  0  0  0  0  0  0  0  0  0
  188.6320  175.6700  145.2920 C   0  0  2  0  0  3  0  0  0  0  0  0
  191.5660  176.4350  147.2060 O   0  0  0  0  0  0  0  0  0  0  0  0
  190.1860  175.7600  145.3240 C   0  0  1  0  0  3  0  0  0  0  0  0
  192.9680  175.8510  143.5610 C   0  0  0  0  0  2  0  0  0  0  0  0
  189.7400  174.4330  141.3280 O   0  0  0  0  0  1  0  0  0  0  0  0
  186.7970  177.9170  147.9900 C   0  0  0  0  0  2  0  0  0  0  0  0
  187.1000  177.2820  146.6480 C   0  0  0  0  0  0  0  0  0  0  0  0
  189.6140  175.0550  142.5740 C   0  0  1  0  0  3  0  0  0  0  0  0
  185.6140  177.5460  140.9430 O   0  0  0  0  0  0  0  0  0  0  0  0
  183.3980  178.2910  140.5130 C   0  0  0  0  0  1  0  0  0  0  0  0
  184.5610  178.2850  141.4840 C   0  0  0  0  0  2  0  0  0  0  0  0
  1  5  1  6  0  0  0
  1 19  1  0  0  0  0
  2 13  1  0  0  0  0
  4  1  1  0  0  0  0
  4 20  1  0  0  0  0
  6  8  2  0  0  0  0
  7  9  1  0  0  0  0
  8 11  1  0  0  0  0
  8 12  1  0  0  0  0
  9 14  1  0  0  0  0
  9 22  1  0  0  0  0
 10 21  2  0  0  0  0
 10  3  1  0  0  0  0
 11  5  1  0  0  0  0
 12  4  1  0  0  0  0
 13 18  2  0  0  0  0
 15  7  1  0  0  0  0
 15 23  1  0  0  0  0
 16  2  2  0  0  0  0
 17  3  1  0  0  0  0
 18 25  1  0  0  0  0
 19  2  1  0  0  0  0
 19 26  2  0  0  0  0
 20 22  1  0  0  0  0
 20 17  1  0  0  0  0
 22 10  1  0  0  0  0
 23 14  1  0  0  0  0
 24 27  1  0  0  0  0
 26 17  1  0  0  0  0
 26 25  1  0  0  0  0
 27  7  1  0  0  0  0
 27 12  1  0  0  0  0
 28 30  1  0  0  0  0
 28 11  1  0  0  0  0
 29 30  1  0  0  0  0
M  END
>  <MODEL>
6

>  <REMARK>
 VINA RESULT:      -8.2      1.887      5.482
  Name = 
  2 active torsions:
  status: ('A' for Active; 'I' for Inactive)
    1  A    between atoms: C_11  and  O_28
    2  A    between atoms: O_28  and  C_30
                            x       y       z     vdW  Elec       q    Type
                         _______ _______ _______ _____ _____    ______ ____

>  <TORSDO>
F 2

$$$$
=
 OpenBabel11112416263D

 30 35  0  0  1  0  0  0  0  0999 V2000
  188.8380  175.0390  143.5420 C   0  0  2  0  0  3  0  0  0  0  0  0
  186.9810  176.8230  143.1500 C   0  0  0  0  0  0  0  0  0  0  0  0
  189.4510  176.7560  147.2760 O   0  0  0  0  0  0  0  0  0  0  0  0
  190.1720  174.9770  144.3030 C   0  0  2  0  0  3  0  0  0  0  0  0
  189.1260  175.2300  142.1700 O   0  0  0  0  0  0  0  0  0  0  0  0
  192.0060  173.5010  141.6890 O   0  0  0  0  0  0  0  0  0  0  0  0
  193.1160  174.9230  144.7020 C   0  0  1  0  0  3  0  0  0  0  0  0
  190.9960  173.7520  142.3320 C   0  0  0  0  0  0  0  0  0  0  0  0
  192.4440  176.0010  145.5860 C   0  0  2  0  0  3  0  0  0  0  0  0
  190.8010  176.5410  147.4280 C   0  0  0  0  0  0  0  0  0  0  0  0
  189.6770  174.0340  141.6590 C   0  0  2  0  0  3  0  0  0  0  0  0
  190.9750  173.7580  143.8370 C   0  0  1  0  0  3  0  0  0  0  0  0
  186.3020  178.0450  143.5860 C   0  0  0  0  0  3  0  0  0  0  0  0
  193.5920  176.6340  146.3520 C   0  0  0  0  0  2  0  0  0  0  0  0
  194.5010  174.6740  145.2850 C   0  0  0  0  0  2  0  0  0  0  0  0
  186.7330  176.3590  142.0050 O   0  0  0  0  0  0  0  0  0  0  0  0
  188.8730  175.8420  146.3650 C   0  0  2  0  0  3  0  0  0  0  0  0
  186.3700  178.4250  144.8580 C   0  0  0  0  0  3  0  0  0  0  0  0
  187.9640  176.1670  144.0520 C   0  0  0  0  0  0  0  0  0  0  0  0
  190.0420  174.9860  145.8250 C   0  0  2  0  0  3  0  0  0  0  0  0
  191.4880  177.1620  148.2810 O   0  0  0  0  0  0  0  0  0  0  0  0
  191.3350  175.4700  146.5450 C   0  0  1  0  0  3  0  0  0  0  0  0
  194.6290  175.5490  146.5130 C   0  0  0  0  0  2  0  0  0  0  0  0
  193.1040  172.5960  143.9880 O   0  0  0  0  0  1  0  0  0  0  0  0
  187.0480  177.5800  145.9000 C   0  0  0  0  0  2  0  0  0  0  0  0
  188.0230  176.5620  145.3460 C   0  0  0  0  0  0  0  0  0  0  0  0
  192.3290  173.6090  144.5610 C   0  0  1  0  0  3  0  0  0  0  0  0
  189.8380  174.1490  140.2750 O   0  0  0  0  0  0  0  0  0  0  0  0
  188.1980  172.6800  139.3830 C   0  0  0  0  0  1  0  0  0  0  0  0
  188.5420  174.1050  139.7610 C   0  0  0  0  0  2  0  0  0  0  0  0
  1  5  1  6  0  0  0
  1 19  1  0  0  0  0
  1  4  1  0  0  0  0
  2 13  1  0  0  0  0
  2 19  1  0  0  0  0
  3 10  1  0  0  0  0
  4 20  1  0  0  0  0
  6  8  2  0  0  0  0
  7 15  1  0  0  0  0
  7  9  1  0  0  0  0
  8 12  1  0  0  0  0
  9 14  1  0  0  0  0
  9 22  1  0  0  0  0
 10 21  2  0  0  0  0
 11  5  1  0  0  0  0
 11  8  1  0  0  0  0
 12  4  1  0  0  0  0
 12 27  1  0  0  0  0
 13 18  2  0  0  0  0
 14 23  1  0  0  0  0
 15 23  1  0  0  0  0
 16  2  2  0  0  0  0
 17  3  1  0  0  0  0
 18 25  1  0  0  0  0
 19 26  2  0  0  0  0
 20 17  1  0  0  0  0
 20 22  1  0  0  0  0
 22 10  1  0  0  0  0
 24 27  1  0  0  0  0
 26 25  1  0  0  0  0
 26 17  1  0  0  0  0
 27  7  1  0  0  0  0
 28 11  1  0  0  0  0
 29 30  1  0  0  0  0
 30 28  1  0  0  0  0
M  END
>  <MODEL>
7

>  <REMARK>
 VINA RESULT:      -8.1      2.634      5.994
  Name = 
  2 active torsions:
  status: ('A' for Active; 'I' for Inactive)
    1  A    between atoms: C_11  and  O_28
    2  A    between atoms: O_28  and  C_30
                            x       y       z     vdW  Elec       q    Type
                         _______ _______ _______ _____ _____    ______ ____

>  <TORSDO>
F 2

$$$$
=
 OpenBabel11112416263D

 30 35  0  0  1  0  0  0  0  0999 V2000
  188.7320  177.8270  145.5970 C   0  0  2  0  0  3  0  0  0  0  0  0
  186.4620  178.2990  146.7850 C   0  0  0  0  0  0  0  0  0  0  0  0
  186.6270  177.6900  142.0170 O   0  0  0  0  0  0  0  0  0  0  0  0
  189.1930  177.0340  144.3640 C   0  0  2  0  0  3  0  0  0  0  0  0
  189.0210  177.0540  146.7470 O   0  0  0  0  0  0  0  0  0  0  0  0
  191.9030  175.4500  145.9520 O   0  0  0  0  0  0  0  0  0  0  0  0
  190.4460  174.8270  142.8180 C   0  0  1  0  0  3  0  0  0  0  0  0
  191.0870  176.3440  145.7790 C   0  0  0  0  0  0  0  0  0  0  0  0
  189.0060  175.1150  142.3300 C   0  0  2  0  0  3  0  0  0  0  0  0
  187.3740  176.7630  141.3270 C   0  0  0  0  0  0  0  0  0  0  0  0
  190.4200  177.0440  146.9360 C   0  0  2  0  0  3  0  0  0  0  0  0
  190.7130  176.8470  144.4100 C   0  0  1  0  0  3  0  0  0  0  0  0
  185.0010  178.3760  146.7150 C   0  0  0  0  0  3  0  0  0  0  0  0
  188.7830  174.1260  141.1990 C   0  0  0  0  0  2  0  0  0  0  0  0
  191.1340  174.0290  141.7180 C   0  0  0  0  0  2  0  0  0  0  0  0
  187.0260  178.3570  147.9090 O   0  0  0  0  0  0  0  0  0  0  0  0
  187.3800  178.3140  143.0380 C   0  0  2  0  0  3  0  0  0  0  0  0
  184.3990  178.5440  145.5420 C   0  0  0  0  0  3  0  0  0  0  0  0
  187.2480  178.1300  145.5340 C   0  0  0  0  0  0  0  0  0  0  0  0
  188.7640  177.6290  143.0230 C   0  0  2  0  0  3  0  0  0  0  0  0
  186.9360  176.1780  140.3010 O   0  0  0  0  0  0  0  0  0  0  0  0
  188.7460  176.5820  141.8700 C   0  0  1  0  0  3  0  0  0  0  0  0
  190.1410  173.8870  140.5850 C   0  0  0  0  0  2  0  0  0  0  0  0
  192.6230  175.7670  143.3650 O   0  0  0  0  0  1  0  0  0  0  0  0
  185.1810  178.7610  144.2770 C   0  0  0  0  0  2  0  0  0  0  0  0
  186.6240  178.3060  144.3450 C   0  0  0  0  0  0  0  0  0  0  0  0
  191.2680  176.0700  143.1980 C   0  0  1  0  0  3  0  0  0  0  0  0
  190.7220  176.4070  148.1440 O   0  0  0  0  0  0  0  0  0  0  0  0
  191.1640  178.2880  149.5270 C   0  0  0  0  0  1  0  0  0  0  0  0
  191.7530  177.1660  148.6980 C   0  0  0  0  0  2  0  0  0  0  0  0
  1 19  1  6  0  0  0
  1  5  1  0  0  0  0
  2 16  2  0  0  0  0
  3 17  1  0  0  0  0
  4 12  1  0  0  0  0
  4  1  1  0  0  0  0
  5 11  1  0  0  0  0
  7 27  1  0  0  0  0
  8  6  2  0  0  0  0
  8 11  1  0  0  0  0
  9  7  1  0  0  0  0
 10 22  1  0  0  0  0
 10  3  1  0  0  0  0
 11 28  1  0  0  0  0
 12  8  1  0  0  0  0
 13  2  1  0  0  0  0
 14  9  1  0  0  0  0
 15  7  1  0  0  0  0
 17 26  1  0  0  0  0
 18 13  2  0  0  0  0
 19  2  1  0  0  0  0
 20 17  1  0  0  0  0
 20  4  1  0  0  0  0
 21 10  2  0  0  0  0
 22  9  1  0  0  0  0
 22 20  1  0  0  0  0
 23 14  1  0  0  0  0
 23 15  1  0  0  0  0
 25 26  1  0  0  0  0
 25 18  1  0  0  0  0
 26 19  2  0  0  0  0
 27 24  1  0  0  0  0
 27 12  1  0  0  0  0
 28 30  1  0  0  0  0
 30 29  1  0  0  0  0
M  END
>  <MODEL>
8

>  <REMARK>
 VINA RESULT:      -8.0      2.141      7.315
  Name = 
  2 active torsions:
  status: ('A' for Active; 'I' for Inactive)
    1  A    between atoms: C_11  and  O_28
    2  A    between atoms: O_28  and  C_30
                            x       y       z     vdW  Elec       q    Type
                         _______ _______ _______ _____ _____    ______ ____

>  <TORSDO>
F 2

$$$$
=
 OpenBabel11112416263D

 30 35  0  0  1  0  0  0  0  0999 V2000
  190.7820  174.6350  144.1900 C   0  0  2  0  0  3  0  0  0  0  0  0
  192.8170  174.0930  142.6570 C   0  0  0  0  0  0  0  0  0  0  0  0
  188.5030  174.9990  140.7340 O   0  0  0  0  0  0  0  0  0  0  0  0
  189.5180  175.5030  144.0870 C   0  0  2  0  0  3  0  0  0  0  0  0
  191.7290  175.3340  144.9760 O   0  0  0  0  0  0  0  0  0  0  0  0
  189.8400  176.9810  147.2630 O   0  0  0  0  0  0  0  0  0  0  0  0
  187.7040  177.8010  144.5990 C   0  0  1  0  0  3  0  0  0  0  0  0
  189.9940  176.1000  146.4280 C   0  0  0  0  0  0  0  0  0  0  0  0
  187.8830  177.5460  143.0830 C   0  0  2  0  0  3  0  0  0  0  0  0
  187.6080  175.9670  141.1300 C   0  0  0  0  0  0  0  0  0  0  0  0
  191.2850  175.3300  146.3160 C   0  0  2  0  0  3  0  0  0  0  0  0
  188.9030  175.6850  145.4780 C   0  0  1  0  0  3  0  0  0  0  0  0
  193.3920  174.0220  141.3120 C   0  0  0  0  0  3  0  0  0  0  0  0
  187.0220  178.6050  142.4160 C   0  0  0  0  0  2  0  0  0  0  0  0
  186.4610  178.6660  144.7580 C   0  0  0  0  0  2  0  0  0  0  0  0
  193.5740  173.9630  143.6550 O   0  0  0  0  0  0  0  0  0  0  0  0
  189.0530  174.3110  141.8400 C   0  0  2  0  0  3  0  0  0  0  0  0
  192.5950  173.9290  140.2520 C   0  0  0  0  0  3  0  0  0  0  0  0
  191.3600  174.3380  142.8200 C   0  0  0  0  0  0  0  0  0  0  0  0
  188.4700  174.9940  143.0970 C   0  0  2  0  0  3  0  0  0  0  0  0
  186.9130  176.6160  140.3040 O   0  0  0  0  0  0  0  0  0  0  0  0
  187.5030  176.1110  142.6060 C   0  0  1  0  0  3  0  0  0  0  0  0
  185.8890  178.8790  143.3740 C   0  0  0  0  0  2  0  0  0  0  0  0
  187.1870  176.8260  146.7670 O   0  0  0  0  0  1  0  0  0  0  0  0
  191.1050  173.7910  140.3940 C   0  0  0  0  0  2  0  0  0  0  0  0
  190.5570  174.2380  141.7340 C   0  0  0  0  0  0  0  0  0  0  0  0
  187.6160  176.5360  145.4680 C   0  0  1  0  0  3  0  0  0  0  0  0
  192.2710  175.8900  147.1340 O   0  0  0  0  0  0  0  0  0  0  0  0
  194.5640  175.9630  146.5130 C   0  0  0  0  0  1  0  0  0  0  0  0
  193.1680  176.4900  146.2510 C   0  0  0  0  0  2  0  0  0  0  0  0
  1 19  1  6  0  0  0
  1  5  1  0  0  0  0
  2 19  1  0  0  0  0
  2 16  2  0  0  0  0
  3 10  1  0  0  0  0
  3 17  1  0  0  0  0
  4  1  1  0  0  0  0
  4 12  1  0  0  0  0
  5 11  1  0  0  0  0
  7 15  1  0  0  0  0
  7 27  1  0  0  0  0
  8  6  2  0  0  0  0
  9  7  1  0  0  0  0
 10 22  1  0  0  0  0
 11  8  1  0  0  0  0
 11 28  1  0  0  0  0
 12  8  1  0  0  0  0
 13  2  1  0  0  0  0
 14  9  1  0  0  0  0
 14 23  1  0  0  0  0
 17 20  1  0  0  0  0
 18 25  1  0  0  0  0
 18 13  2  0  0  0  0
 20  4  1  0  0  0  0
 21 10  2  0  0  0  0
 22  9  1  0  0  0  0
 22 20  1  0  0  0  0
 23 15  1  0  0  0  0
 25 26  1  0  0  0  0
 26 17  1  0  0  0  0
 26 19  2  0  0  0  0
 27 12  1  0  0  0  0
 27 24  1  0  0  0  0
 30 29  1  0  0  0  0
 30 28  1  0  0  0  0
M  END
>  <MODEL>
9

>  <REMARK>
 VINA RESULT:      -7.9      2.399      5.619
  Name = 
  2 active torsions:
  status: ('A' for Active; 'I' for Inactive)
    1  A    between atoms: C_11  and  O_28
    2  A    between atoms: O_28  and  C_30
                            x       y       z     vdW  Elec       q    Type
                         _______ _______ _______ _____ _____    ______ ____

>  <TORSDO>
F 2

$$$$
