=
 OpenBabel11112417463D

 34 40  0  0  1  0  0  0  0  0999 V2000
  189.5050  175.0610  142.0360 C   0  0  0  0  0  0  0  0  0  0  0  0
  187.1360  175.7160  142.6460 C   0  0  0  0  0  2  0  0  0  0  0  0
  195.4330  173.4900  144.2210 C   0  0  1  0  0  3  0  0  0  0  0  0
  191.7210  174.1470  141.8260 C   0  0  0  0  0  0  0  0  0  0  0  0
  193.4080  175.0360  143.4580 C   0  0  2  0  0  3  0  0  0  0  0  0
  195.6980  175.9850  143.8780 C   0  0  0  0  0  1  0  0  0  0  0  0
  194.8030  172.5870  145.2620 C   0  0  0  0  0  1  0  0  0  0  0  0
  195.5670  173.6960  141.7990 C   0  0  0  0  0  2  0  0  0  0  0  0
  188.9800  176.7700  143.8200 C   0  0  2  0  0  3  0  0  0  0  0  0
  188.3940  177.3250  146.8400 C   0  0  0  0  0  2  0  0  0  0  0  0
  192.3270  175.1270  144.3560 O   0  0  0  0  0  0  0  0  0  0  0  0
  194.1650  173.9830  141.2600 C   0  0  0  0  0  2  0  0  0  0  0  0
  190.1400  176.1390  144.6210 C   0  0  1  0  0  3  0  0  0  0  0  0
  186.5430  176.6280  143.7060 C   0  0  0  0  0  2  0  0  0  0  0  0
  193.1140  173.9740  142.3730 C   0  0  2  0  0  3  0  0  0  0  0  0
  195.4970  172.7780  142.9320 N   0  0  0  0  0  2  0  0  0  0  0  0
  187.6670  176.4510  145.9270 N   0  0  0  0  0  0  0  0  0  0  0  0
  190.8210  174.9800  142.4970 C   0  0  0  0  0  0  0  0  0  0  0  0
  194.7300  174.8700  144.2270 C   0  0  2  0  0  3  0  0  0  0  0  0
  191.2990  175.8080  143.6700 C   0  0  2  0  0  3  0  0  0  0  0  0
  190.0010  173.4940  140.3360 C   0  0  0  0  0  3  0  0  0  0  0  0
  189.8350  176.8600  146.9920 C   0  0  0  0  0  2  0  0  0  0  0  0
  191.2880  173.4080  140.7690 N   0  0  0  0  0  0  0  0  0  0  0  0
  190.6220  177.0860  145.7100 C   0  0  0  0  0  2  0  0  0  0  0  0
  187.6970  177.0980  144.6060 C   0  0  1  0  0  3  0  0  0  0  0  0
  189.1180  174.3130  140.9690 N   0  0  0  0  0  0  0  0  0  0  0  0
  188.5690  175.8850  142.7420 N   0  0  0  0  0  0  0  0  0  0  0  0
  186.3850  176.4350  146.3780 O   0  0  0  0  0  0  0  0  0  0  0  0
  186.3860  177.2830  147.4900 C   0  0  0  0  0  2  0  0  0  0  0  0
  185.3330  179.5400  145.4120 O   0  0  0  0  0  0  0  0  0  0  0  0
  184.1970  177.7420  146.4360 C   0  0  0  0  0  2  0  0  0  0  0  0
  185.2250  178.2590  147.4010 C   0  0  2  0  0  3  0  0  0  0  0  0
  184.1460  178.7970  145.3580 C   0  0  0  0  0  2  0  0  0  0  0  0
  185.7000  179.5460  146.7660 C   0  0  0  0  0  2  0  0  0  0  0  0
  1 18  1  0  0  0  0
  1 27  1  0  0  0  0
  2 27  1  0  0  0  0
  2 14  1  0  0  0  0
  3 19  1  0  0  0  0
  3  7  1  1  0  0  0
  4 15  1  0  0  0  0
  4 18  2  0  0  0  0
  5 19  1  0  0  0  0
  5 11  1  1  0  0  0
  8 16  1  0  0  0  0
  9 27  1  6  0  0  0
  9 25  1  0  0  0  0
  9 13  1  0  0  0  0
 10 22  1  0  0  0  0
 12  8  1  0  0  0  0
 13 24  1  1  0  0  0
 15 12  1  6  0  0  0
 15  5  1  0  0  0  0
 16  3  1  0  0  0  0
 17 28  1  0  0  0  0
 17 10  1  0  0  0  0
 19  6  1  6  0  0  0
 20 18  1  6  0  0  0
 20 11  1  0  0  0  0
 20 13  1  0  0  0  0
 21 23  2  0  0  0  0
 21 26  1  0  0  0  0
 23  4  1  0  0  0  0
 24 22  1  0  0  0  0
 25 14  1  6  0  0  0
 25 17  1  0  0  0  0
 26  1  2  0  0  0  0
 28 29  1  0  0  0  0
 30 34  1  0  0  0  0
 31 32  1  0  0  0  0
 32 29  1  6  0  0  0
 33 30  1  0  0  0  0
 33 31  1  0  0  0  0
 34 32  1  0  0  0  0
M  END
>  <MODEL>
1

>  <REMARK>
 VINA RESULT:      -8.2      0.000      0.000
  Name = 
  3 active torsions:
  status: ('A' for Active; 'I' for Inactive)
    1  A    between atoms: N_17  and  O_28
    2  A    between atoms: O_28  and  C_29
    3  A    between atoms: C_29  and  C_32
                            x       y       z     vdW  Elec       q    Type
                         _______ _______ _______ _____ _____    ______ ____

>  <TORSDO>
F 3

$$$$
=
 OpenBabel11112417463D

 34 40  0  0  1  0  0  0  0  0999 V2000
  190.7480  173.7320  141.8000 C   0  0  0  0  0  0  0  0  0  0  0  0
  188.2520  174.1170  142.0010 C   0  0  0  0  0  2  0  0  0  0  0  0
  196.6160  174.6960  144.4480 C   0  0  1  0  0  3  0  0  0  0  0  0
  193.0990  173.3010  142.0760 C   0  0  0  0  0  0  0  0  0  0  0  0
  194.4370  175.2060  143.0120 C   0  0  2  0  0  3  0  0  0  0  0  0
  196.4750  176.6740  142.8730 C   0  0  0  0  0  1  0  0  0  0  0  0
  196.0550  174.3340  145.8090 C   0  0  0  0  0  1  0  0  0  0  0  0
  196.9490  173.6770  142.2630 C   0  0  0  0  0  2  0  0  0  0  0  0
  189.7610  175.9620  142.4590 C   0  0  2  0  0  3  0  0  0  0  0  0
  188.7950  177.8320  144.7700 C   0  0  0  0  0  2  0  0  0  0  0  0
  193.2740  175.5200  143.7430 O   0  0  0  0  0  0  0  0  0  0  0  0
  195.5780  173.3670  141.6610 C   0  0  0  0  0  2  0  0  0  0  0  0
  190.9290  176.0660  143.4630 C   0  0  1  0  0  3  0  0  0  0  0  0
  187.4090  175.2980  142.4470 C   0  0  0  0  0  2  0  0  0  0  0  0
  194.4410  173.7090  142.6270 C   0  0  2  0  0  3  0  0  0  0  0  0
  196.9290  173.4620  143.7060 N   0  0  0  0  0  2  0  0  0  0  0  0
  188.3240  176.4920  144.4380 N   0  0  0  0  0  0  0  0  0  0  0  0
  192.0060  174.1590  142.2310 C   0  0  0  0  0  0  0  0  0  0  0  0
  195.6860  175.7190  143.7500 C   0  0  2  0  0  3  0  0  0  0  0  0
  192.2150  175.5410  142.8100 C   0  0  2  0  0  3  0  0  0  0  0  0
  191.6730  171.6590  141.1410 C   0  0  0  0  0  3  0  0  0  0  0  0
  190.2720  177.8050  145.1310 C   0  0  0  0  0  2  0  0  0  0  0  0
  192.9070  172.0610  141.5500 N   0  0  0  0  0  0  0  0  0  0  0  0
  191.1300  177.5070  143.9110 C   0  0  0  0  0  2  0  0  0  0  0  0
  188.3690  176.3760  142.9720 C   0  0  1  0  0  3  0  0  0  0  0  0
  190.6040  172.4900  141.2700 N   0  0  0  0  0  0  0  0  0  0  0  0
  189.6180  174.5930  141.9890 N   0  0  0  0  0  0  0  0  0  0  0  0
  187.0270  176.4490  144.8410 O   0  0  0  0  0  0  0  0  0  0  0  0
  187.0830  176.5040  146.2370 C   0  0  0  0  0  2  0  0  0  0  0  0
  185.6260  179.2810  147.0660 O   0  0  0  0  0  0  0  0  0  0  0  0
  184.8870  177.5040  145.6980 C   0  0  0  0  0  2  0  0  0  0  0  0
  185.7370  176.9310  146.7950 C   0  0  2  0  0  3  0  0  0  0  0  0
  184.6400  178.9280  146.1350 C   0  0  0  0  0  2  0  0  0  0  0  0
  185.9320  178.0910  147.7440 C   0  0  0  0  0  2  0  0  0  0  0  0
  1 27  1  0  0  0  0
  1 18  1  0  0  0  0
  2 14  1  0  0  0  0
  3  7  1  1  0  0  0
  4 18  2  0  0  0  0
  4 15  1  0  0  0  0
  5 11  1  1  0  0  0
  5 19  1  0  0  0  0
  8 16  1  0  0  0  0
  9 27  1  1  0  0  0
  9 25  1  0  0  0  0
  9 13  1  0  0  0  0
 10 22  1  0  0  0  0
 12  8  1  0  0  0  0
 13 24  1  6  0  0  0
 15 12  1  6  0  0  0
 15  5  1  0  0  0  0
 16  3  1  0  0  0  0
 17 10  1  0  0  0  0
 17 28  1  0  0  0  0
 19  6  1  6  0  0  0
 19  3  1  0  0  0  0
 20 18  1  1  0  0  0
 20 13  1  0  0  0  0
 20 11  1  0  0  0  0
 21 26  1  0  0  0  0
 21 23  2  0  0  0  0
 23  4  1  0  0  0  0
 24 22  1  0  0  0  0
 25 14  1  1  0  0  0
 25 17  1  0  0  0  0
 26  1  2  0  0  0  0
 27  2  1  0  0  0  0
 28 29  1  0  0  0  0
 30 34  1  0  0  0  0
 31 33  1  0  0  0  0
 31 32  1  0  0  0  0
 32 29  1  6  0  0  0
 32 34  1  0  0  0  0
 33 30  1  0  0  0  0
M  END
>  <MODEL>
2

>  <REMARK>
 VINA RESULT:      -8.1      1.355      1.742
  Name = 
  3 active torsions:
  status: ('A' for Active; 'I' for Inactive)
    1  A    between atoms: N_17  and  O_28
    2  A    between atoms: O_28  and  C_29
    3  A    between atoms: C_29  and  C_32
                            x       y       z     vdW  Elec       q    Type
                         _______ _______ _______ _____ _____    ______ ____

>  <TORSDO>
F 3

$$$$
=
 OpenBabel11112417463D

 34 40  0  0  1  0  0  0  0  0999 V2000
  192.1780  176.0260  145.8020 C   0  0  0  0  0  0  0  0  0  0  0  0
  190.1520  177.1660  146.8060 C   0  0  0  0  0  2  0  0  0  0  0  0
  195.1170  173.9830  140.3640 C   0  0  1  0  0  3  0  0  0  0  0  0
  194.0610  175.2670  144.5090 C   0  0  0  0  0  0  0  0  0  0  0  0
  193.4890  173.9270  142.4660 C   0  0  2  0  0  3  0  0  0  0  0  0
  193.8850  171.8810  141.0570 C   0  0  0  0  0  1  0  0  0  0  0  0
  194.7610  175.2910  139.6880 C   0  0  0  0  0  1  0  0  0  0  0  0
  196.4230  173.1830  142.2570 C   0  0  0  0  0  2  0  0  0  0  0  0
  189.8190  175.4980  145.0740 C   0  0  2  0  0  3  0  0  0  0  0  0
  187.4550  176.1530  143.1370 C   0  0  0  0  0  2  0  0  0  0  0  0
  192.3450  174.7450  142.3840 O   0  0  0  0  0  0  0  0  0  0  0  0
  195.7940  173.7250  143.5410 C   0  0  0  0  0  2  0  0  0  0  0  0
  190.3870  175.4250  143.6400 C   0  0  1  0  0  3  0  0  0  0  0  0
  188.6640  177.1050  146.5080 C   0  0  0  0  0  2  0  0  0  0  0  0
  194.6090  174.6490  143.2490 C   0  0  2  0  0  3  0  0  0  0  0  0
  196.3250  174.1730  141.1880 N   0  0  0  0  0  2  0  0  0  0  0  0
  188.1280  177.0480  144.0720 N   0  0  0  0  0  0  0  0  0  0  0  0
  192.6760  175.3680  144.6750 C   0  0  0  0  0  0  0  0  0  0  0  0
  193.8690  173.3990  141.0720 C   0  0  2  0  0  3  0  0  0  0  0  0
  191.7520  174.7240  143.6650 C   0  0  2  0  0  3  0  0  0  0  0  0
  194.3870  176.4850  146.5130 C   0  0  0  0  0  3  0  0  0  0  0  0
  188.4350  175.6300  142.0970 C   0  0  0  0  0  2  0  0  0  0  0  0
  194.8880  175.8420  145.4230 N   0  0  0  0  0  0  0  0  0  0  0  0
  189.4370  174.6720  142.7200 C   0  0  0  0  0  2  0  0  0  0  0  0
  188.4810  176.2410  145.2510 C   0  0  1  0  0  3  0  0  0  0  0  0
  193.0420  176.5770  146.6960 N   0  0  0  0  0  0  0  0  0  0  0  0
  190.7610  176.1640  145.9590 N   0  0  0  0  0  0  0  0  0  0  0  0
  187.1960  177.9680  144.4330 O   0  0  0  0  0  0  0  0  0  0  0  0
  185.9730  177.2960  144.3370 C   0  0  0  0  0  2  0  0  0  0  0  0
  185.5830  177.6640  147.5360 O   0  0  0  0  0  0  0  0  0  0  0  0
  185.4820  179.2410  145.7830 C   0  0  0  0  0  2  0  0  0  0  0  0
  184.9560  177.9320  145.2680 C   0  0  2  0  0  3  0  0  0  0  0  0
  185.5610  179.0410  147.2770 C   0  0  0  0  0  2  0  0  0  0  0  0
  184.8160  177.0860  146.5130 C   0  0  0  0  0  2  0  0  0  0  0  0
  1 27  1  0  0  0  0
  1 26  1  0  0  0  0
  3  7  1  1  0  0  0
  3 19  1  0  0  0  0
  3 16  1  0  0  0  0
  4 18  1  0  0  0  0
  4 23  2  0  0  0  0
  5 11  1  6  0  0  0
  5 15  1  0  0  0  0
  8 12  1  0  0  0  0
  9 25  1  0  0  0  0
  9 27  1  1  0  0  0
 10 17  1  0  0  0  0
 13 24  1  6  0  0  0
 13 20  1  0  0  0  0
 13  9  1  0  0  0  0
 14  2  1  0  0  0  0
 15 12  1  1  0  0  0
 15  4  1  0  0  0  0
 16  8  1  0  0  0  0
 17 28  1  0  0  0  0
 17 25  1  0  0  0  0
 18  1  2  0  0  0  0
 19  6  1  1  0  0  0
 19  5  1  0  0  0  0
 20 11  1  6  0  0  0
 20 18  1  0  0  0  0
 21 26  2  0  0  0  0
 22 24  1  0  0  0  0
 22 10  1  0  0  0  0
 23 21  1  0  0  0  0
 25 14  1  1  0  0  0
 27  2  1  0  0  0  0
 29 28  1  0  0  0  0
 31 33  1  0  0  0  0
 32 29  1  6  0  0  0
 32 31  1  0  0  0  0
 32 34  1  0  0  0  0
 33 30  1  0  0  0  0
 34 30  1  0  0  0  0
M  END
>  <MODEL>
3

>  <REMARK>
 VINA RESULT:      -7.9      1.879      3.831
  Name = 
  3 active torsions:
  status: ('A' for Active; 'I' for Inactive)
    1  A    between atoms: N_17  and  O_28
    2  A    between atoms: O_28  and  C_29
    3  A    between atoms: C_29  and  C_32
                            x       y       z     vdW  Elec       q    Type
                         _______ _______ _______ _____ _____    ______ ____

>  <TORSDO>
F 3

$$$$
=
 OpenBabel11112417463D

 34 40  0  0  1  0  0  0  0  0999 V2000
  191.8490  174.8140  142.4440 C   0  0  0  0  0  0  0  0  0  0  0  0
  189.5720  175.9160  142.5760 C   0  0  0  0  0  2  0  0  0  0  0  0
  196.3760  171.3230  145.5580 C   0  0  1  0  0  3  0  0  0  0  0  0
  193.8080  173.4220  142.5670 C   0  0  0  0  0  0  0  0  0  0  0  0
  195.0210  173.4690  144.7640 C   0  0  2  0  0  3  0  0  0  0  0  0
  197.1920  173.6770  146.0160 C   0  0  0  0  0  1  0  0  0  0  0  0
  195.2930  170.4130  146.1000 C   0  0  0  0  0  1  0  0  0  0  0  0
  197.3100  172.0030  143.4150 C   0  0  0  0  0  2  0  0  0  0  0  0
  191.1080  176.1760  144.4370 C   0  0  2  0  0  3  0  0  0  0  0  0
  189.7050  176.2020  147.2300 C   0  0  0  0  0  2  0  0  0  0  0  0
  193.7470  173.6430  145.3380 O   0  0  0  0  0  0  0  0  0  0  0  0
  196.2310  172.7540  142.6340 C   0  0  0  0  0  2  0  0  0  0  0  0
  191.8150  175.1080  145.3000 C   0  0  1  0  0  3  0  0  0  0  0  0
  188.8520  176.7000  143.6580 C   0  0  0  0  0  2  0  0  0  0  0  0
  194.8980  172.7790  143.3860 C   0  0  2  0  0  3  0  0  0  0  0  0
  196.7150  170.9140  144.1830 N   0  0  0  0  0  2  0  0  0  0  0  0
  189.1570  175.7640  145.9510 N   0  0  0  0  0  0  0  0  0  0  0  0
  192.9110  174.2960  143.1890 C   0  0  0  0  0  0  0  0  0  0  0  0
  195.9750  172.8040  145.7710 C   0  0  2  0  0  3  0  0  0  0  0  0
  193.1350  174.6990  144.6290 C   0  0  2  0  0  3  0  0  0  0  0  0
  192.5630  173.5760  140.5600 C   0  0  0  0  0  3  0  0  0  0  0  0
  190.9100  175.3570  147.6130 C   0  0  0  0  0  2  0  0  0  0  0  0
  193.6060  173.0670  141.2700 N   0  0  0  0  0  0  0  0  0  0  0  0
  192.0910  175.6390  146.6990 C   0  0  0  0  0  2  0  0  0  0  0  0
  189.7250  176.6490  144.9220 C   0  0  1  0  0  3  0  0  0  0  0  0
  191.6910  174.4400  141.1460 N   0  0  0  0  0  0  0  0  0  0  0  0
  190.9050  175.6810  143.0850 N   0  0  0  0  0  0  0  0  0  0  0  0
  187.8190  175.9860  146.0300 O   0  0  0  0  0  0  0  0  0  0  0  0
  187.6800  177.0020  146.9810 C   0  0  0  0  0  2  0  0  0  0  0  0
  185.3710  179.2100  146.4240 O   0  0  0  0  0  0  0  0  0  0  0  0
  185.3600  176.8670  146.1360 C   0  0  0  0  0  2  0  0  0  0  0  0
  186.2130  177.1900  147.3280 C   0  0  2  0  0  3  0  0  0  0  0  0
  184.6480  178.1640  145.8340 C   0  0  0  0  0  2  0  0  0  0  0  0
  185.9420  178.6560  147.5790 C   0  0  0  0  0  2  0  0  0  0  0  0
  1 27  1  0  0  0  0
  1 18  1  0  0  0  0
  2 27  1  0  0  0  0
  2 14  1  0  0  0  0
  3 19  1  0  0  0  0
  3  7  1  6  0  0  0
  4 18  2  0  0  0  0
  4 15  1  0  0  0  0
  5 11  1  1  0  0  0
  5 19  1  0  0  0  0
  8 16  1  0  0  0  0
  9 27  1  6  0  0  0
  9 25  1  0  0  0  0
  9 13  1  0  0  0  0
 10 22  1  0  0  0  0
 12  8  1  0  0  0  0
 13 24  1  1  0  0  0
 15 12  1  6  0  0  0
 15  5  1  0  0  0  0
 16  3  1  0  0  0  0
 17 28  1  0  0  0  0
 17 10  1  0  0  0  0
 19  6  1  6  0  0  0
 20 18  1  6  0  0  0
 20 13  1  0  0  0  0
 20 11  1  0  0  0  0
 21 26  1  0  0  0  0
 21 23  2  0  0  0  0
 23  4  1  0  0  0  0
 24 22  1  0  0  0  0
 25 14  1  6  0  0  0
 25 17  1  0  0  0  0
 26  1  2  0  0  0  0
 28 29  1  0  0  0  0
 30 34  1  0  0  0  0
 31 32  1  0  0  0  0
 32 29  1  6  0  0  0
 32 34  1  0  0  0  0
 33 31  1  0  0  0  0
 33 30  1  0  0  0  0
M  END
>  <MODEL>
4

>  <REMARK>
 VINA RESULT:      -7.9      1.583      2.254
  Name = 
  3 active torsions:
  status: ('A' for Active; 'I' for Inactive)
    1  A    between atoms: N_17  and  O_28
    2  A    between atoms: O_28  and  C_29
    3  A    between atoms: C_29  and  C_32
                            x       y       z     vdW  Elec       q    Type
                         _______ _______ _______ _____ _____    ______ ____

>  <TORSDO>
F 3

$$$$
=
 OpenBabel11112417463D

 34 40  0  0  1  0  0  0  0  0999 V2000
  187.9960  175.5950  141.0250 C   0  0  0  0  0  0  0  0  0  0  0  0
  188.1880  174.4560  138.7710 C   0  0  0  0  0  2  0  0  0  0  0  0
  190.5900  176.3890  146.9430 C   0  0  1  0  0  3  0  0  0  0  0  0
  188.2820  176.7190  143.1340 C   0  0  0  0  0  0  0  0  0  0  0  0
  189.1410  175.2840  145.0060 C   0  0  2  0  0  3  0  0  0  0  0  0
  188.9410  174.5200  147.3930 C   0  0  0  0  0  1  0  0  0  0  0  0
  191.9650  176.5110  146.3170 C   0  0  0  0  0  1  0  0  0  0  0  0
  188.4440  177.5370  146.9160 C   0  0  0  0  0  2  0  0  0  0  0  0
  188.5710  173.1490  140.7800 C   0  0  2  0  0  3  0  0  0  0  0  0
  190.8110  170.9910  140.4680 C   0  0  0  0  0  2  0  0  0  0  0  0
  189.8620  174.6030  144.0060 O   0  0  0  0  0  0  0  0  0  0  0  0
  187.8580  177.4330  145.5070 C   0  0  0  0  0  2  0  0  0  0  0  0
  189.5680  173.3730  141.9380 C   0  0  1  0  0  3  0  0  0  0  0  0
  188.5900  173.0580  138.3380 C   0  0  0  0  0  2  0  0  0  0  0  0
  188.8130  176.7230  144.5440 C   0  0  2  0  0  3  0  0  0  0  0  0
  189.8950  177.6850  146.8510 N   0  0  0  0  0  2  0  0  0  0  0  0
  190.5320  172.1330  139.6030 N   0  0  0  0  0  0  0  0  0  0  0  0
  188.4060  175.5610  142.3600 C   0  0  0  0  0  0  0  0  0  0  0  0
  189.8560  175.1550  146.3620 C   0  0  2  0  0  3  0  0  0  0  0  0
  188.9320  174.2910  142.9920 C   0  0  2  0  0  3  0  0  0  0  0  0
  187.4140  177.8750  141.2600 C   0  0  0  0  0  3  0  0  0  0  0  0
  191.1690  171.4580  141.8700 C   0  0  0  0  0  2  0  0  0  0  0  0
  187.8040  177.8570  142.5630 N   0  0  0  0  0  0  0  0  0  0  0  0
  189.9590  172.0480  142.5780 C   0  0  0  0  0  2  0  0  0  0  0  0
  189.0710  172.3090  139.5900 C   0  0  1  0  0  3  0  0  0  0  0  0
  187.5130  176.7520  140.4990 N   0  0  0  0  0  0  0  0  0  0  0  0
  188.1550  174.4230  140.2170 N   0  0  0  0  0  0  0  0  0  0  0  0
  190.9400  171.7600  138.3610 O   0  0  0  0  0  0  0  0  0  0  0  0
  192.2280  172.2880  138.2340 C   0  0  0  0  0  2  0  0  0  0  0  0
  194.3240  174.7580  138.0720 O   0  0  0  0  0  0  0  0  0  0  0  0
  192.1710  174.5040  137.1380 C   0  0  0  0  0  2  0  0  0  0  0  0
  192.1980  173.7900  138.4580 C   0  0  2  0  0  3  0  0  0  0  0  0
  193.4430  175.3180  137.1380 C   0  0  0  0  0  2  0  0  0  0  0  0
  193.5030  174.2300  139.0800 C   0  0  0  0  0  2  0  0  0  0  0  0
  1 18  1  0  0  0  0
  2 27  1  0  0  0  0
  3  7  1  6  0  0  0
  4 15  1  0  0  0  0
  5 11  1  6  0  0  0
  5 19  1  0  0  0  0
  9 27  1  6  0  0  0
  9 13  1  0  0  0  0
 10 22  1  0  0  0  0
 12  8  1  0  0  0  0
 13 24  1  1  0  0  0
 13 20  1  0  0  0  0
 14  2  1  0  0  0  0
 15  5  1  0  0  0  0
 15 12  1  1  0  0  0
 16  8  1  0  0  0  0
 16  3  1  0  0  0  0
 17 10  1  0  0  0  0
 18  4  2  0  0  0  0
 19  3  1  0  0  0  0
 19  6  1  1  0  0  0
 20 18  1  6  0  0  0
 20 11  1  0  0  0  0
 21 23  2  0  0  0  0
 22 24  1  0  0  0  0
 23  4  1  0  0  0  0
 25 14  1  6  0  0  0
 25 17  1  0  0  0  0
 25  9  1  0  0  0  0
 26  1  2  0  0  0  0
 26 21  1  0  0  0  0
 27  1  1  0  0  0  0
 28 17  1  0  0  0  0
 29 28  1  0  0  0  0
 30 34  1  0  0  0  0
 31 32  1  0  0  0  0
 32 29  1  6  0  0  0
 32 34  1  0  0  0  0
 33 31  1  0  0  0  0
 33 30  1  0  0  0  0
M  END
>  <MODEL>
5

>  <REMARK>
 VINA RESULT:      -7.8      3.164      7.651
  Name = 
  3 active torsions:
  status: ('A' for Active; 'I' for Inactive)
    1  A    between atoms: N_17  and  O_28
    2  A    between atoms: O_28  and  C_29
    3  A    between atoms: C_29  and  C_32
                            x       y       z     vdW  Elec       q    Type
                         _______ _______ _______ _____ _____    ______ ____

>  <TORSDO>
F 3

$$$$
=
 OpenBabel11112417463D

 34 40  0  0  1  0  0  0  0  0999 V2000
  192.2070  176.0850  145.8720 C   0  0  0  0  0  0  0  0  0  0  0  0
  189.8880  176.8900  146.4960 C   0  0  0  0  0  2  0  0  0  0  0  0
  196.2650  174.4350  141.0560 C   0  0  1  0  0  3  0  0  0  0  0  0
  194.3690  175.6240  144.9210 C   0  0  0  0  0  0  0  0  0  0  0  0
  194.3550  174.1560  142.8860 C   0  0  2  0  0  3  0  0  0  0  0  0
  195.2980  172.1720  141.6600 C   0  0  0  0  0  1  0  0  0  0  0  0
  195.8110  175.6460  140.2670 C   0  0  0  0  0  1  0  0  0  0  0  0
  197.3670  173.9150  143.1630 C   0  0  0  0  0  2  0  0  0  0  0  0
  190.1110  175.1470  144.8220 C   0  0  2  0  0  3  0  0  0  0  0  0
  188.0090  175.3430  142.5160 C   0  0  0  0  0  2  0  0  0  0  0  0
  193.1210  174.7660  142.5890 O   0  0  0  0  0  0  0  0  0  0  0  0
  196.4620  174.3740  144.3080 C   0  0  0  0  0  2  0  0  0  0  0  0
  190.9030  175.1360  143.4960 C   0  0  1  0  0  3  0  0  0  0  0  0
  188.4970  176.5710  145.9790 C   0  0  0  0  0  2  0  0  0  0  0  0
  195.2040  175.0760  143.7920 C   0  0  2  0  0  3  0  0  0  0  0  0
  197.2790  174.8470  142.0430 N   0  0  0  0  0  2  0  0  0  0  0  0
  188.3700  176.3620  143.4960 N   0  0  0  0  0  0  0  0  0  0  0  0
  192.9780  175.4930  144.8690 C   0  0  0  0  0  0  0  0  0  0  0  0
  195.0330  173.6650  141.5940 C   0  0  2  0  0  3  0  0  0  0  0  0
  192.3440  174.6770  143.7640 C   0  0  2  0  0  3  0  0  0  0  0  0
  194.1700  176.9290  146.8860 C   0  0  0  0  0  3  0  0  0  0  0  0
  189.2130  174.9690  141.6660 C   0  0  0  0  0  2  0  0  0  0  0  0
  194.9350  176.3540  145.9190 N   0  0  0  0  0  0  0  0  0  0  0  0
  190.2470  174.2100  142.4830 C   0  0  0  0  0  2  0  0  0  0  0  0
  188.6590  175.6570  144.7550 C   0  0  1  0  0  3  0  0  0  0  0  0
  192.8160  176.7960  146.8580 N   0  0  0  0  0  0  0  0  0  0  0  0
  190.7790  175.9850  145.8040 N   0  0  0  0  0  0  0  0  0  0  0  0
  187.2550  177.1200  143.6640 O   0  0  0  0  0  0  0  0  0  0  0  0
  187.2970  178.0550  142.6250 C   0  0  0  0  0  2  0  0  0  0  0  0
  184.1010  177.9180  143.1580 O   0  0  0  0  0  0  0  0  0  0  0  0
  185.7830  179.1950  144.2130 C   0  0  0  0  0  2  0  0  0  0  0  0
  186.1490  179.0400  142.7650 C   0  0  2  0  0  3  0  0  0  0  0  0
  184.3520  178.7190  144.2800 C   0  0  0  0  0  2  0  0  0  0  0  0
  184.9050  178.4510  142.1400 C   0  0  0  0  0  2  0  0  0  0  0  0
  1 26  1  0  0  0  0
  3  7  1  1  0  0  0
  3 19  1  0  0  0  0
  3 16  1  0  0  0  0
  4 23  2  0  0  0  0
  5 11  1  6  0  0  0
  5 15  1  0  0  0  0
  8 12  1  0  0  0  0
  9 27  1  1  0  0  0
 10 17  1  0  0  0  0
 13 24  1  6  0  0  0
 13 20  1  0  0  0  0
 13  9  1  0  0  0  0
 14  2  1  0  0  0  0
 15 12  1  1  0  0  0
 15  4  1  0  0  0  0
 16  8  1  0  0  0  0
 17 28  1  0  0  0  0
 17 25  1  0  0  0  0
 18  4  1  0  0  0  0
 18  1  2  0  0  0  0
 19  6  1  1  0  0  0
 19  5  1  0  0  0  0
 20 11  1  6  0  0  0
 20 18  1  0  0  0  0
 22 24  1  0  0  0  0
 22 10  1  0  0  0  0
 23 21  1  0  0  0  0
 25  9  1  0  0  0  0
 25 14  1  1  0  0  0
 26 21  2  0  0  0  0
 27  1  1  0  0  0  0
 27  2  1  0  0  0  0
 29 28  1  0  0  0  0
 30 33  1  0  0  0  0
 31 33  1  0  0  0  0
 32 29  1  1  0  0  0
 32 31  1  0  0  0  0
 34 32  1  0  0  0  0
 34 30  1  0  0  0  0
M  END
>  <MODEL>
6

>  <REMARK>
 VINA RESULT:      -7.7      2.183      4.146
  Name = 
  3 active torsions:
  status: ('A' for Active; 'I' for Inactive)
    1  A    between atoms: N_17  and  O_28
    2  A    between atoms: O_28  and  C_29
    3  A    between atoms: C_29  and  C_32
                            x       y       z     vdW  Elec       q    Type
                         _______ _______ _______ _____ _____    ______ ____

>  <TORSDO>
F 3

$$$$
=
 OpenBabel11112417463D

 34 40  0  0  1  0  0  0  0  0999 V2000
  188.0380  175.6130  141.2420 C   0  0  0  0  0  0  0  0  0  0  0  0
  188.1950  174.4640  138.9910 C   0  0  0  0  0  2  0  0  0  0  0  0
  190.6530  176.3360  147.1600 C   0  0  1  0  0  3  0  0  0  0  0  0
  188.3580  176.7310  143.3490 C   0  0  0  0  0  0  0  0  0  0  0  0
  189.1710  175.2740  145.2240 C   0  0  2  0  0  3  0  0  0  0  0  0
  188.9460  174.5200  147.6130 C   0  0  0  0  0  1  0  0  0  0  0  0
  192.0310  176.4140  146.5350 C   0  0  0  0  0  1  0  0  0  0  0  0
  188.5440  177.5510  147.1300 C   0  0  0  0  0  2  0  0  0  0  0  0
  188.5360  173.1490  141.0020 C   0  0  2  0  0  3  0  0  0  0  0  0
  190.7080  170.9220  140.6950 C   0  0  0  0  0  2  0  0  0  0  0  0
  189.8710  174.5680  144.2260 O   0  0  0  0  0  0  0  0  0  0  0  0
  187.9560  177.4620  145.7210 C   0  0  0  0  0  2  0  0  0  0  0  0
  189.5390  173.3440  142.1600 C   0  0  1  0  0  3  0  0  0  0  0  0
  188.5540  173.0530  138.5600 C   0  0  0  0  0  2  0  0  0  0  0  0
  188.8890  176.7210  144.7600 C   0  0  2  0  0  3  0  0  0  0  0  0
  189.9990  177.6530  147.0650 N   0  0  0  0  0  2  0  0  0  0  0  0
  190.4660  172.0700  139.8280 N   0  0  0  0  0  0  0  0  0  0  0  0
  188.4460  175.5680  142.5770 C   0  0  0  0  0  0  0  0  0  0  0  0
  189.8800  175.1240  146.5810 C   0  0  2  0  0  3  0  0  0  0  0  0
  188.9320  174.2830  143.2120 C   0  0  2  0  0  3  0  0  0  0  0  0
  187.5280  177.9100  141.4730 C   0  0  0  0  0  3  0  0  0  0  0  0
  191.0790  171.3800  142.0970 C   0  0  0  0  0  2  0  0  0  0  0  0
  187.9160  177.8820  142.7760 N   0  0  0  0  0  0  0  0  0  0  0  0
  189.8880  172.0090  142.8020 C   0  0  0  0  0  2  0  0  0  0  0  0
  189.0110  172.2910  139.8140 C   0  0  1  0  0  3  0  0  0  0  0  0
  187.5920  176.7830  140.7140 N   0  0  0  0  0  0  0  0  0  0  0  0
  188.1600  174.4340  140.4360 N   0  0  0  0  0  0  0  0  0  0  0  0
  190.8620  171.6820  138.5870 O   0  0  0  0  0  0  0  0  0  0  0  0
  190.8740  170.2840  138.6360 C   0  0  0  0  0  2  0  0  0  0  0  0
  191.3780  170.5990  135.4470 O   0  0  0  0  0  0  0  0  0  0  0  0
  191.2080  168.6680  136.7950 C   0  0  0  0  0  2  0  0  0  0  0  0
  190.2890  169.7150  137.3550 C   0  0  2  0  0  3  0  0  0  0  0  0
  191.6050  169.2160  135.4450 C   0  0  0  0  0  2  0  0  0  0  0  0
  190.2730  170.7880  136.2910 C   0  0  0  0  0  2  0  0  0  0  0  0
  1 18  1  0  0  0  0
  2 27  1  0  0  0  0
  3  7  1  6  0  0  0
  4 15  1  0  0  0  0
  5 11  1  6  0  0  0
  5 19  1  0  0  0  0
  9 27  1  6  0  0  0
  9 13  1  0  0  0  0
 10 22  1  0  0  0  0
 12  8  1  0  0  0  0
 13 24  1  1  0  0  0
 13 20  1  0  0  0  0
 14  2  1  0  0  0  0
 15  5  1  0  0  0  0
 15 12  1  1  0  0  0
 16  8  1  0  0  0  0
 16  3  1  0  0  0  0
 17 10  1  0  0  0  0
 18  4  2  0  0  0  0
 19  3  1  0  0  0  0
 19  6  1  1  0  0  0
 20 18  1  6  0  0  0
 20 11  1  0  0  0  0
 21 23  2  0  0  0  0
 22 24  1  0  0  0  0
 23  4  1  0  0  0  0
 25 14  1  6  0  0  0
 25 17  1  0  0  0  0
 25  9  1  0  0  0  0
 26  1  2  0  0  0  0
 26 21  1  0  0  0  0
 27  1  1  0  0  0  0
 28 29  1  0  0  0  0
 28 17  1  0  0  0  0
 30 34  1  0  0  0  0
 31 32  1  0  0  0  0
 32 29  1  1  0  0  0
 33 30  1  0  0  0  0
 33 31  1  0  0  0  0
 34 32  1  0  0  0  0
M  END
>  <MODEL>
7

>  <REMARK>
 VINA RESULT:      -7.6      3.414      8.203
  Name = 
  3 active torsions:
  status: ('A' for Active; 'I' for Inactive)
    1  A    between atoms: N_17  and  O_28
    2  A    between atoms: O_28  and  C_29
    3  A    between atoms: C_29  and  C_32
                            x       y       z     vdW  Elec       q    Type
                         _______ _______ _______ _____ _____    ______ ____

>  <TORSDO>
F 3

$$$$
=
 OpenBabel11112417463D

 34 40  0  0  1  0  0  0  0  0999 V2000
  192.0690  175.8980  145.7380 C   0  0  0  0  0  0  0  0  0  0  0  0
  190.1590  177.5540  145.5880 C   0  0  0  0  0  2  0  0  0  0  0  0
  195.2180  170.9740  142.8720 C   0  0  1  0  0  3  0  0  0  0  0  0
  193.9320  174.4090  145.4190 C   0  0  0  0  0  0  0  0  0  0  0  0
  193.3790  172.2120  144.3400 C   0  0  2  0  0  3  0  0  0  0  0  0
  193.5870  169.7060  144.3370 C   0  0  0  0  0  1  0  0  0  0  0  0
  195.1600  171.7130  141.5510 C   0  0  0  0  0  1  0  0  0  0  0  0
  196.1550  171.2540  145.1010 C   0  0  0  0  0  2  0  0  0  0  0  0
  189.7500  175.2390  144.9840 C   0  0  2  0  0  3  0  0  0  0  0  0
  187.7580  174.8950  142.6000 C   0  0  0  0  0  2  0  0  0  0  0  0
  192.4020  172.9340  143.6260 O   0  0  0  0  0  0  0  0  0  0  0  0
  195.4850  172.4610  145.7590 C   0  0  0  0  0  2  0  0  0  0  0  0
  190.4550  174.3440  143.9420 C   0  0  1  0  0  3  0  0  0  0  0  0
  188.7240  177.4540  145.1010 C   0  0  0  0  0  2  0  0  0  0  0  0
  194.5090  173.1580  144.8080 C   0  0  2  0  0  3  0  0  0  0  0  0
  196.3410  171.4930  143.6730 N   0  0  0  0  0  2  0  0  0  0  0  0
  188.4610  176.1020  143.0200 N   0  0  0  0  0  0  0  0  0  0  0  0
  192.5740  174.6910  145.2490 C   0  0  0  0  0  0  0  0  0  0  0  0
  193.8200  170.9750  143.5380 C   0  0  2  0  0  3  0  0  0  0  0  0
  191.6750  173.6700  144.5870 C   0  0  2  0  0  3  0  0  0  0  0  0
  194.2290  176.5010  146.4860 C   0  0  0  0  0  3  0  0  0  0  0  0
  188.7480  173.8120  142.1990 C   0  0  0  0  0  2  0  0  0  0  0  0
  194.7360  175.3270  146.0200 N   0  0  0  0  0  0  0  0  0  0  0  0
  189.5030  173.2830  143.4090 C   0  0  0  0  0  2  0  0  0  0  0  0
  188.5430  176.0560  144.4890 C   0  0  1  0  0  3  0  0  0  0  0  0
  192.9060  176.7820  146.3420 N   0  0  0  0  0  0  0  0  0  0  0  0
  190.6850  176.2080  145.5340 N   0  0  0  0  0  0  0  0  0  0  0  0
  187.6590  177.1380  142.6580 O   0  0  0  0  0  0  0  0  0  0  0  0
  186.3600  176.6220  142.7170 C   0  0  0  0  0  2  0  0  0  0  0  0
  185.4940  178.7850  144.9740 O   0  0  0  0  0  0  0  0  0  0  0  0
  186.0560  179.0760  142.7000 C   0  0  0  0  0  2  0  0  0  0  0  0
  185.3570  177.7560  142.8460 C   0  0  2  0  0  3  0  0  0  0  0  0
  185.8200  179.7620  144.0240 C   0  0  0  0  0  2  0  0  0  0  0  0
  184.8160  177.7880  144.2560 C   0  0  0  0  0  2  0  0  0  0  0  0
  1 26  1  0  0  0  0
  3  7  1  6  0  0  0
  3 19  1  0  0  0  0
  3 16  1  0  0  0  0
  4 23  2  0  0  0  0
  5 11  1  6  0  0  0
  5 15  1  0  0  0  0
  8 12  1  0  0  0  0
  9 27  1  6  0  0  0
 10 17  1  0  0  0  0
 13 24  1  1  0  0  0
 13 20  1  0  0  0  0
 13  9  1  0  0  0  0
 14  2  1  0  0  0  0
 15  4  1  0  0  0  0
 15 12  1  1  0  0  0
 16  8  1  0  0  0  0
 17 25  1  0  0  0  0
 18  4  1  0  0  0  0
 18  1  2  0  0  0  0
 19  6  1  1  0  0  0
 19  5  1  0  0  0  0
 20 11  1  6  0  0  0
 20 18  1  0  0  0  0
 22 10  1  0  0  0  0
 22 24  1  0  0  0  0
 23 21  1  0  0  0  0
 25  9  1  0  0  0  0
 25 14  1  6  0  0  0
 26 21  2  0  0  0  0
 27  2  1  0  0  0  0
 27  1  1  0  0  0  0
 28 29  1  0  0  0  0
 28 17  1  0  0  0  0
 31 32  1  0  0  0  0
 31 33  1  0  0  0  0
 32 29  1  1  0  0  0
 32 34  1  0  0  0  0
 33 30  1  0  0  0  0
 34 30  1  0  0  0  0
M  END
>  <MODEL>
8

>  <REMARK>
 VINA RESULT:      -7.6      2.266      4.192
  Name = 
  3 active torsions:
  status: ('A' for Active; 'I' for Inactive)
    1  A    between atoms: N_17  and  O_28
    2  A    between atoms: O_28  and  C_29
    3  A    between atoms: C_29  and  C_32
                            x       y       z     vdW  Elec       q    Type
                         _______ _______ _______ _____ _____    ______ ____

>  <TORSDO>
F 3

$$$$
=
 OpenBabel11112417463D

 34 40  0  0  1  0  0  0  0  0999 V2000
  189.5970  176.7490  143.0070 C   0  0  0  0  0  0  0  0  0  0  0  0
  191.9710  176.1230  142.3880 C   0  0  0  0  0  2  0  0  0  0  0  0
  185.6050  178.9630  147.6480 C   0  0  1  0  0  3  0  0  0  0  0  0
  187.5450  177.7000  143.8290 C   0  0  0  0  0  0  0  0  0  0  0  0
  187.0260  177.2140  146.2360 C   0  0  2  0  0  3  0  0  0  0  0  0
  185.3640  176.4620  147.9670 C   0  0  0  0  0  1  0  0  0  0  0  0
  186.6250  180.0220  148.0130 C   0  0  0  0  0  1  0  0  0  0  0  0
  184.2350  178.3010  145.7480 C   0  0  0  0  0  2  0  0  0  0  0  0
  191.0890  175.3940  144.5280 C   0  0  2  0  0  3  0  0  0  0  0  0
  193.2060  175.4050  146.8290 C   0  0  0  0  0  2  0  0  0  0  0  0
  188.4200  177.2510  146.4300 O   0  0  0  0  0  0  0  0  0  0  0  0
  185.1620  177.8560  144.6160 C   0  0  0  0  0  2  0  0  0  0  0  0
  190.4830  176.2170  145.6860 C   0  0  1  0  0  3  0  0  0  0  0  0
  193.0890  175.4070  143.1240 C   0  0  0  0  0  2  0  0  0  0  0  0
  186.6370  178.0340  144.9850 C   0  0  2  0  0  3  0  0  0  0  0  0
  184.8280  179.4160  146.4800 N   0  0  0  0  0  2  0  0  0  0  0  0
  193.2880  176.0560  145.5260 N   0  0  0  0  0  0  0  0  0  0  0  0
  188.7160  176.9740  144.0670 C   0  0  0  0  0  0  0  0  0  0  0  0
  186.2950  177.5810  147.5400 C   0  0  2  0  0  3  0  0  0  0  0  0
  188.9780  176.4080  145.4460 C   0  0  2  0  0  3  0  0  0  0  0  0
  188.1820  177.9790  141.5670 C   0  0  0  0  0  3  0  0  0  0  0  0
  192.0320  175.9520  147.6260 C   0  0  0  0  0  2  0  0  0  0  0  0
  187.3100  178.2020  142.5870 N   0  0  0  0  0  0  0  0  0  0  0  0
  190.7070  175.5180  147.0200 C   0  0  0  0  0  2  0  0  0  0  0  0
  192.6130  175.1690  144.5650 C   0  0  1  0  0  3  0  0  0  0  0  0
  189.3170  177.2610  141.7790 N   0  0  0  0  0  0  0  0  0  0  0  0
  190.8160  176.0370  143.2530 N   0  0  0  0  0  0  0  0  0  0  0  0
  194.6120  176.1030  145.2230 O   0  0  0  0  0  0  0  0  0  0  0  0
  195.2070  175.1620  146.0690 C   0  0  0  0  0  2  0  0  0  0  0  0
  195.7560  173.0580  143.6620 O   0  0  0  0  0  0  0  0  0  0  0  0
  196.6510  175.2050  144.0620 C   0  0  0  0  0  2  0  0  0  0  0  0
  196.4140  174.5410  145.3870 C   0  0  2  0  0  3  0  0  0  0  0  0
  196.4910  174.0880  143.0600 C   0  0  0  0  0  2  0  0  0  0  0  0
  196.1000  173.1080  145.0210 C   0  0  0  0  0  2  0  0  0  0  0  0
  1 27  1  0  0  0  0
  1 18  1  0  0  0  0
  2 14  1  0  0  0  0
  2 27  1  0  0  0  0
  3  7  1  6  0  0  0
  4 18  2  0  0  0  0
  4 15  1  0  0  0  0
  5 11  1  1  0  0  0
  5 19  1  0  0  0  0
  8 16  1  0  0  0  0
  9 27  1  6  0  0  0
  9 25  1  0  0  0  0
  9 13  1  0  0  0  0
 10 22  1  0  0  0  0
 12  8  1  0  0  0  0
 13 24  1  1  0  0  0
 15 12  1  6  0  0  0
 15  5  1  0  0  0  0
 16  3  1  0  0  0  0
 17 10  1  0  0  0  0
 19  3  1  0  0  0  0
 19  6  1  6  0  0  0
 20 18  1  6  0  0  0
 20 13  1  0  0  0  0
 20 11  1  0  0  0  0
 21 26  1  0  0  0  0
 21 23  2  0  0  0  0
 23  4  1  0  0  0  0
 24 22  1  0  0  0  0
 25 14  1  6  0  0  0
 25 17  1  0  0  0  0
 26  1  2  0  0  0  0
 28 17  1  0  0  0  0
 28 29  1  0  0  0  0
 30 34  1  0  0  0  0
 31 32  1  0  0  0  0
 32 29  1  6  0  0  0
 33 30  1  0  0  0  0
 33 31  1  0  0  0  0
 34 32  1  0  0  0  0
M  END
>  <MODEL>
9

>  <REMARK>
 VINA RESULT:      -7.4      2.145      8.277
  Name = 
  3 active torsions:
  status: ('A' for Active; 'I' for Inactive)
    1  A    between atoms: N_17  and  O_28
    2  A    between atoms: O_28  and  C_29
    3  A    between atoms: C_29  and  C_32
                            x       y       z     vdW  Elec       q    Type
                         _______ _______ _______ _____ _____    ______ ____

>  <TORSDO>
F 3

$$$$
