=
 OpenBabel11112416383D

 32 37  0  0  1  0  0  0  0  0999 V2000
  188.3140  176.2250  144.5020 C   0  0  0  0  0  0  0  0  0  0  0  0
  186.0050  178.4000  148.0730 C   0  0  0  0  0  3  0  0  0  0  0  0
  184.8250  178.6690  147.2140 C   0  0  0  0  0  3  0  0  0  0  0  0
  187.6140  176.6480  142.2030 C   0  0  0  0  0  0  0  0  0  0  0  0
  186.6590  177.2170  141.3590 C   0  0  0  0  0  0  0  0  0  0  0  0
  190.2910  174.6770  144.9090 C   0  0  2  0  0  3  0  0  0  0  0  0
  188.6230  175.1300  146.7290 C   0  0  0  0  0  2  0  0  0  0  0  0
  184.7800  178.3330  140.6420 C   0  0  1  0  0  3  0  0  0  0  0  0
  186.9470  177.5280  147.6960 C   0  0  0  0  0  3  0  0  0  0  0  0
  188.0270  176.1910  145.9190 N   0  0  0  0  0  0  0  0  0  0  0  0
  186.7620  176.7120  146.4390 C   0  0  0  0  0  0  0  0  0  0  0  0
  186.2020  177.3530  144.1010 C   0  0  0  0  0  0  0  0  0  0  0  0
  185.5180  177.8520  139.4490 N   0  0  0  0  0  0  0  0  0  0  0  0
  190.1090  174.9330  146.4150 C   0  0  2  0  0  3  0  0  0  0  0  0
  186.6700  177.2160  139.9500 N   0  0  0  0  0  0  0  0  0  0  0  0
  184.7880  178.2340  145.9510 C   0  0  0  0  0  2  0  0  0  0  0  0
  185.9310  177.4440  145.4160 C   0  0  0  0  0  0  0  0  0  0  0  0
  185.2970  177.9340  143.1760 C   0  0  0  0  0  3  0  0  0  0  0  0
  189.7130  175.8270  144.0790 C   0  0  0  0  0  2  0  0  0  0  0  0
  188.7050  176.0050  141.6250 O   0  0  0  0  0  1  0  0  0  0  0  0
  183.3670  177.7810  140.6510 C   0  0  0  0  0  1  0  0  0  0  0  0
  187.3970  176.7100  143.6160 C   0  0  0  0  0  0  0  0  0  0  0  0
  185.5630  177.8410  141.8170 C   0  0  0  0  0  0  0  0  0  0  0  0
  191.3910  176.0020  148.1880 O   0  0  0  0  0  0  0  0  0  0  0  0
  190.9470  176.1340  146.8560 C   0  0  1  0  0  3  0  0  0  0  0  0
  192.3100  175.6730  147.1770 C   0  0  1  0  0  3  0  0  0  0  0  0
  193.2400  176.7790  146.9450 N   0  0  0  0  0  2  0  0  0  0  0  0
  194.0630  176.8610  145.7810 C   0  0  0  0  0  0  0  0  0  0  0  0
  193.9190  175.9020  144.6480 C   0  0  0  0  0  1  0  0  0  0  0  0
  194.9310  177.7700  145.7010 O   0  0  0  0  0  0  0  0  0  0  0  0
  190.0440  173.0620  143.0050 C   0  0  0  0  0  1  0  0  0  0  0  0
  189.6700  173.3570  144.4490 C   0  0  0  0  0  2  0  0  0  0  0  0
  1 10  1  0  0  0  0
  3  2  2  0  0  0  0
  4 22  1  0  0  0  0
  5 23  1  0  0  0  0
  5  4  2  0  0  0  0
  6 32  1  6  0  0  0
  6 14  1  0  0  0  0
  8 21  1  1  0  0  0
  8 23  1  0  0  0  0
  9  2  1  0  0  0  0
 10 11  1  0  0  0  0
 10  7  1  0  0  0  0
 11  9  2  0  0  0  0
 12 17  2  0  0  0  0
 13 15  2  0  0  0  0
 13  8  1  0  0  0  0
 14  7  1  6  0  0  0
 14 25  1  0  0  0  0
 15  5  1  0  0  0  0
 16  3  1  0  0  0  0
 17 16  1  0  0  0  0
 17 11  1  0  0  0  0
 18 12  1  0  0  0  0
 19  1  1  0  0  0  0
 19  6  1  0  0  0  0
 20  4  1  0  0  0  0
 22 12  1  0  0  0  0
 22  1  2  0  0  0  0
 23 18  2  0  0  0  0
 25 26  1  0  0  0  0
 25 24  1  1  0  0  0
 26 27  1  6  0  0  0
 26 24  1  0  0  0  0
 28 27  1  0  0  0  0
 29 28  1  0  0  0  0
 30 28  2  0  0  0  0
 31 32  1  0  0  0  0
M  END
>  <MODEL>
1

>  <REMARK>
 VINA RESULT:      -9.1      0.000      0.000
  Name = 
  3 active torsions:
  status: ('A' for Active; 'I' for Inactive)
    1  A    between atoms: C_7  and  C_19
    2  A    between atoms: C_10  and  C_17
    3  A    between atoms: C_20  and  N_29
                            x       y       z     vdW  Elec       q    Type
                         _______ _______ _______ _____ _____    ______ ____

>  <TORSDO>
F 3

$$$$
=
 OpenBabel11112416383D

 32 37  0  0  1  0  0  0  0  0999 V2000
  190.4030  175.2560  144.9530 C   0  0  0  0  0  0  0  0  0  0  0  0
  189.6490  173.8080  140.4630 C   0  0  0  0  0  3  0  0  0  0  0  0
  188.4470  174.6680  140.3340 C   0  0  0  0  0  3  0  0  0  0  0  0
  188.5630  176.2600  146.2020 C   0  0  0  0  0  0  0  0  0  0  0  0
  187.2630  176.7690  146.1610 C   0  0  0  0  0  0  0  0  0  0  0  0
  192.6490  174.9670  146.1130 C   0  0  2  0  0  3  0  0  0  0  0  0
  192.4930  174.9850  143.6070 C   0  0  0  0  0  2  0  0  0  0  0  0
  185.2060  177.4150  145.3600 C   0  0  1  0  0  3  0  0  0  0  0  0
  190.5140  173.9800  141.4700 C   0  0  0  0  0  3  0  0  0  0  0  0
  191.0360  174.9200  143.6970 N   0  0  0  0  0  0  0  0  0  0  0  0
  190.3400  175.1350  142.4260 C   0  0  0  0  0  0  0  0  0  0  0  0
  188.3930  175.9170  143.7630 C   0  0  0  0  0  0  0  0  0  0  0  0
  185.2690  177.7480  146.8040 N   0  0  0  0  0  0  0  0  0  0  0  0
  193.1730  174.3310  144.8140 C   0  0  2  0  0  3  0  0  0  0  0  0
  186.5290  177.2950  147.2410 N   0  0  0  0  0  0  0  0  0  0  0  0
  188.0720  175.4710  141.3360 C   0  0  0  0  0  2  0  0  0  0  0  0
  188.8910  175.5230  142.5770 C   0  0  0  0  0  0  0  0  0  0  0  0
  187.0660  176.4180  143.8130 C   0  0  0  0  0  3  0  0  0  0  0  0
  191.1260  174.8370  146.2160 C   0  0  0  0  0  2  0  0  0  0  0  0
  189.2310  176.2580  147.4230 O   0  0  0  0  0  1  0  0  0  0  0  0
  184.9290  178.6590  144.5390 C   0  0  0  0  0  1  0  0  0  0  0  0
  189.1590  175.8150  144.9800 C   0  0  0  0  0  0  0  0  0  0  0  0
  186.5430  176.8330  145.0300 C   0  0  0  0  0  0  0  0  0  0  0  0
  193.4200  172.2040  143.6550 O   0  0  0  0  0  0  0  0  0  0  0  0
  192.9570  172.8180  144.8370 C   0  0  1  0  0  3  0  0  0  0  0  0
  194.2670  172.1460  144.7740 C   0  0  1  0  0  3  0  0  0  0  0  0
  194.1560  170.8480  145.4400 N   0  0  0  0  0  2  0  0  0  0  0  0
  195.2810  170.1730  146.0040 C   0  0  0  0  0  0  0  0  0  0  0  0
  196.6220  170.8190  146.0880 C   0  0  0  0  0  1  0  0  0  0  0  0
  195.1400  169.0040  146.4500 O   0  0  0  0  0  0  0  0  0  0  0  0
  194.5550  176.5930  146.2270 C   0  0  0  0  0  1  0  0  0  0  0  0
  193.0430  176.4380  146.2580 C   0  0  0  0  0  2  0  0  0  0  0  0
  1 22  2  0  0  0  0
  1 19  1  0  0  0  0
  2  9  1  0  0  0  0
  3  2  2  0  0  0  0
  3 16  1  0  0  0  0
  4 20  1  0  0  0  0
  5  4  2  0  0  0  0
  5 15  1  0  0  0  0
  6 19  1  0  0  0  0
  6 32  1  6  0  0  0
  7 10  1  0  0  0  0
  8 21  1  6  0  0  0
  8 13  1  0  0  0  0
  9 11  2  0  0  0  0
 10  1  1  0  0  0  0
 11 17  1  0  0  0  0
 11 10  1  0  0  0  0
 12 18  1  0  0  0  0
 12 22  1  0  0  0  0
 13 15  2  0  0  0  0
 14  7  1  6  0  0  0
 14 25  1  0  0  0  0
 14  6  1  0  0  0  0
 16 17  1  0  0  0  0
 17 12  2  0  0  0  0
 18 23  2  0  0  0  0
 22  4  1  0  0  0  0
 23  8  1  0  0  0  0
 23  5  1  0  0  0  0
 24 26  1  0  0  0  0
 25 24  1  6  0  0  0
 26 25  1  0  0  0  0
 26 27  1  1  0  0  0
 27 28  1  0  0  0  0
 28 29  1  0  0  0  0
 28 30  2  0  0  0  0
 31 32  1  0  0  0  0
M  END
>  <MODEL>
2

>  <REMARK>
 VINA RESULT:      -8.3      3.174      5.580
  Name = 
  3 active torsions:
  status: ('A' for Active; 'I' for Inactive)
    1  A    between atoms: C_7  and  C_19
    2  A    between atoms: C_10  and  C_17
    3  A    between atoms: C_20  and  N_29
                            x       y       z     vdW  Elec       q    Type
                         _______ _______ _______ _____ _____    ______ ____

>  <TORSDO>
F 3

$$$$
=
 OpenBabel11112416383D

 32 37  0  0  1  0  0  0  0  0999 V2000
  189.1030  175.2140  142.9840 C   0  0  0  0  0  0  0  0  0  0  0  0
  191.9040  175.0890  146.8520 C   0  0  0  0  0  3  0  0  0  0  0  0
  190.7990  175.5500  147.7290 C   0  0  0  0  0  3  0  0  0  0  0  0
  187.0660  176.5550  143.0350 C   0  0  0  0  0  0  0  0  0  0  0  0
  186.1790  177.3040  143.8120 C   0  0  0  0  0  0  0  0  0  0  0  0
  189.6900  173.9700  140.8440 C   0  0  2  0  0  3  0  0  0  0  0  0
  190.6660  173.2620  143.0460 C   0  0  0  0  0  2  0  0  0  0  0  0
  185.2170  178.3310  145.6300 C   0  0  1  0  0  3  0  0  0  0  0  0
  191.6610  174.6470  145.6130 C   0  0  0  0  0  3  0  0  0  0  0  0
  190.1430  174.4770  143.6690 N   0  0  0  0  0  0  0  0  0  0  0  0
  190.2380  174.4980  145.1290 C   0  0  2  0  0  3  0  0  0  0  0  0
  188.3080  176.0690  145.1120 C   0  0  0  0  0  0  0  0  0  0  0  0
  184.3590  178.5820  144.4470 N   0  0  0  0  0  0  0  0  0  0  0  0
  190.9550  173.4600  141.5550 C   0  0  2  0  0  3  0  0  0  0  0  0
  185.0190  177.9650  143.3660 N   0  0  0  0  0  0  0  0  0  0  0  0
  189.5750  175.7580  147.2320 C   0  0  0  0  0  3  0  0  0  0  0  0
  189.3160  175.4910  145.7910 C   0  0  0  0  0  0  0  0  0  0  0  0
  187.3800  176.8730  145.8230 C   0  0  0  0  0  3  0  0  0  0  0  0
  189.1900  175.2740  141.4730 C   0  0  0  0  0  2  0  0  0  0  0  0
  186.8040  176.4290  141.6750 O   0  0  0  0  0  1  0  0  0  0  0  0
  184.4260  177.6370  146.7220 C   0  0  0  0  0  1  0  0  0  0  0  0
  188.1670  175.9150  143.6860 C   0  0  0  0  0  0  0  0  0  0  0  0
  186.3330  177.4690  145.1350 C   0  0  0  0  0  0  0  0  0  0  0  0
  193.2590  174.0570  142.0710 O   0  0  0  0  0  0  0  0  0  0  0  0
  192.1200  174.4230  141.3240 C   0  0  1  0  0  3  0  0  0  0  0  0
  193.2400  173.6820  140.7160 C   0  0  1  0  0  3  0  0  0  0  0  0
  194.0310  174.6150  139.9130 N   0  0  0  0  0  2  0  0  0  0  0  0
  195.4320  174.4450  139.6940 C   0  0  0  0  0  0  0  0  0  0  0  0
  196.1540  173.2210  140.1450 C   0  0  0  0  0  1  0  0  0  0  0  0
  196.0780  175.3490  139.0990 O   0  0  0  0  0  0  0  0  0  0  0  0
  188.1620  172.5900  139.4100 C   0  0  0  0  0  1  0  0  0  0  0  0
  188.5560  172.9430  140.8360 C   0  0  0  0  0  2  0  0  0  0  0  0
  1 10  1  0  0  0  0
  1 22  2  0  0  0  0
  2  3  1  0  0  0  0
  4 22  1  0  0  0  0
  4  5  2  0  0  0  0
  5 23  1  0  0  0  0
  6 32  1  1  0  0  0
  6 19  1  0  0  0  0
  6 14  1  0  0  0  0
  7 10  1  0  0  0  0
  8 21  1  1  0  0  0
  9  2  2  0  0  0  0
 10 11  1  0  0  0  0
 11  9  1  6  0  0  0
 11 17  1  0  0  0  0
 12 17  2  0  0  0  0
 12 18  1  0  0  0  0
 13  8  1  0  0  0  0
 14  7  1  1  0  0  0
 15  5  1  0  0  0  0
 15 13  2  0  0  0  0
 16  3  2  0  0  0  0
 17 16  1  0  0  0  0
 19  1  1  0  0  0  0
 20  4  1  0  0  0  0
 22 12  1  0  0  0  0
 23  8  1  0  0  0  0
 23 18  2  0  0  0  0
 25 14  1  0  0  0  0
 25 24  1  1  0  0  0
 26 27  1  6  0  0  0
 26 25  1  0  0  0  0
 26 24  1  0  0  0  0
 28 27  1  0  0  0  0
 28 29  1  0  0  0  0
 30 28  2  0  0  0  0
 31 32  1  0  0  0  0
M  END
>  <MODEL>
3

>  <REMARK>
 VINA RESULT:      -7.9      3.162      4.906
  Name = 
  3 active torsions:
  status: ('A' for Active; 'I' for Inactive)
    1  A    between atoms: C_7  and  C_19
    2  A    between atoms: C_10  and  C_17
    3  A    between atoms: C_20  and  N_29
                            x       y       z     vdW  Elec       q    Type
                         _______ _______ _______ _____ _____    ______ ____

>  <TORSDO>
F 3

$$$$
=
 OpenBabel11112416383D

 32 37  0  0  1  0  0  0  0  0999 V2000
  191.5690  175.5010  145.0200 C   0  0  0  0  0  0  0  0  0  0  0  0
  189.4020  171.9680  142.6450 C   0  0  0  0  0  3  0  0  0  0  0  0
  190.7010  171.3810  142.2310 C   0  0  0  0  0  3  0  0  0  0  0  0
  193.8880  176.0420  144.4880 C   0  0  0  0  0  0  0  0  0  0  0  0
  195.0460  175.6720  143.8030 C   0  0  0  0  0  0  0  0  0  0  0  0
  190.3700  176.8810  146.7890 C   0  0  2  0  0  3  0  0  0  0  0  0
  189.5450  174.5910  146.1730 C   0  0  0  0  0  2  0  0  0  0  0  0
  196.4980  174.4870  142.4700 C   0  0  1  0  0  3  0  0  0  0  0  0
  189.3390  172.8890  143.6130 C   0  0  0  0  0  3  0  0  0  0  0  0
  190.4680  174.5630  145.0410 N   0  0  0  0  0  0  0  0  0  0  0  0
  190.5830  173.2590  144.3850 C   0  0  0  0  0  0  0  0  0  0  0  0
  192.8550  173.9620  143.6530 C   0  0  0  0  0  0  0  0  0  0  0  0
  197.2210  175.6610  143.0150 N   0  0  0  0  0  0  0  0  0  0  0  0
  189.1210  176.0190  146.5340 C   0  0  2  0  0  3  0  0  0  0  0  0
  196.2730  176.3620  143.7850 N   0  0  0  0  0  0  0  0  0  0  0  0
  191.8540  171.9190  142.6420 C   0  0  0  0  0  2  0  0  0  0  0  0
  191.8280  173.0980  143.5500 C   0  0  0  0  0  0  0  0  0  0  0  0
  194.0590  173.6750  142.9600 C   0  0  0  0  0  3  0  0  0  0  0  0
  191.2960  176.8860  145.5690 C   0  0  0  0  0  2  0  0  0  0  0  0
  193.9140  177.2110  145.2430 O   0  0  0  0  0  1  0  0  0  0  0  0
  197.2030  173.2010  142.8570 C   0  0  0  0  0  1  0  0  0  0  0  0
  192.7500  175.1770  144.4210 C   0  0  0  0  0  0  0  0  0  0  0  0
  195.1270  174.5540  143.0640 C   0  0  0  0  0  0  0  0  0  0  0  0
  186.9320  176.1580  145.4790 O   0  0  0  0  0  0  0  0  0  0  0  0
  188.2540  176.6470  145.4430 C   0  0  1  0  0  3  0  0  0  0  0  0
  187.1620  177.4070  146.0790 C   0  0  1  0  0  3  0  0  0  0  0  0
  186.7680  178.4920  145.1800 N   0  0  0  0  0  2  0  0  0  0  0  0
  185.4440  179.0270  145.1550 C   0  0  0  0  0  0  0  0  0  0  0  0
  184.4130  178.6180  146.1510 C   0  0  0  0  0  1  0  0  0  0  0  0
  185.1360  179.8720  144.2720 O   0  0  0  0  0  0  0  0  0  0  0  0
  191.4660  177.6310  148.9170 C   0  0  0  0  0  1  0  0  0  0  0  0
  191.1580  176.4400  148.0230 C   0  0  0  0  0  2  0  0  0  0  0  0
  1 10  1  0  0  0  0
  1 19  1  0  0  0  0
  2  9  1  0  0  0  0
  3 16  1  0  0  0  0
  3  2  2  0  0  0  0
  4 20  1  0  0  0  0
  5  4  2  0  0  0  0
  6 32  1  1  0  0  0
  8 21  1  1  0  0  0
  8 13  1  0  0  0  0
  8 23  1  0  0  0  0
  9 11  2  0  0  0  0
 10  7  1  0  0  0  0
 11 10  1  0  0  0  0
 12 22  1  0  0  0  0
 13 15  2  0  0  0  0
 14  7  1  6  0  0  0
 14  6  1  0  0  0  0
 15  5  1  0  0  0  0
 16 17  1  0  0  0  0
 17 12  2  0  0  0  0
 17 11  1  0  0  0  0
 18 23  2  0  0  0  0
 18 12  1  0  0  0  0
 19  6  1  0  0  0  0
 22  4  1  0  0  0  0
 22  1  2  0  0  0  0
 23  5  1  0  0  0  0
 24 26  1  0  0  0  0
 25 24  1  6  0  0  0
 25 26  1  0  0  0  0
 25 14  1  0  0  0  0
 26 27  1  6  0  0  0
 28 27  1  0  0  0  0
 28 29  1  0  0  0  0
 30 28  2  0  0  0  0
 32 31  1  0  0  0  0
M  END
>  <MODEL>
4

>  <REMARK>
 VINA RESULT:      -7.8      2.837      7.969
  Name = 
  3 active torsions:
  status: ('A' for Active; 'I' for Inactive)
    1  A    between atoms: C_7  and  C_19
    2  A    between atoms: C_10  and  C_17
    3  A    between atoms: C_20  and  N_29
                            x       y       z     vdW  Elec       q    Type
                         _______ _______ _______ _____ _____    ______ ____

>  <TORSDO>
F 3

$$$$
=
 OpenBabel11112416383D

 32 37  0  0  1  0  0  0  0  0999 V2000
  189.8800  174.9980  143.1890 C   0  0  0  0  0  0  0  0  0  0  0  0
  190.6530  176.9610  147.4740 C   0  0  0  0  0  3  0  0  0  0  0  0
  189.3320  177.6370  147.4590 C   0  0  0  0  0  3  0  0  0  0  0  0
  188.1880  175.9710  141.7240 C   0  0  0  0  0  0  0  0  0  0  0  0
  187.1370  176.8810  141.5960 C   0  0  0  0  0  0  0  0  0  0  0  0
  191.2130  172.9990  142.3520 C   0  0  2  0  0  3  0  0  0  0  0  0
  191.0330  173.4820  144.8090 C   0  0  0  0  0  2  0  0  0  0  0  0
  185.5880  178.4990  142.1160 C   0  0  1  0  0  3  0  0  0  0  0  0
  190.9360  175.9820  146.6070 C   0  0  0  0  0  3  0  0  0  0  0  0
  190.4240  174.7760  144.5100 N   0  0  0  0  0  0  0  0  0  0  0  0
  189.8660  175.4670  145.6750 C   0  0  2  0  0  3  0  0  0  0  0  0
  188.3250  176.6230  144.1010 C   0  0  0  0  0  0  0  0  0  0  0  0
  185.3740  178.0870  140.7080 N   0  0  0  0  0  0  0  0  0  0  0  0
  191.9710  173.0160  143.6910 C   0  0  2  0  0  3  0  0  0  0  0  0
  186.3720  177.1290  140.4410 N   0  0  0  0  0  0  0  0  0  0  0  0
  188.4840  177.4540  146.4420 C   0  0  0  0  0  3  0  0  0  0  0  0
  188.8610  176.5370  145.3320 C   0  0  0  0  0  0  0  0  0  0  0  0
  187.2720  177.5480  143.8790 C   0  0  0  0  0  3  0  0  0  0  0  0
  190.6310  174.3790  142.0280 C   0  0  0  0  0  2  0  0  0  0  0  0
  188.5430  175.2140  140.6110 O   0  0  0  0  0  1  0  0  0  0  0  0
  184.3270  178.2860  142.9300 C   0  0  0  0  0  1  0  0  0  0  0  0
  188.8130  175.8260  143.0030 C   0  0  0  0  0  0  0  0  0  0  0  0
  186.7080  177.6420  142.6150 C   0  0  0  0  0  0  0  0  0  0  0  0
  193.6430  174.3520  144.8520 O   0  0  0  0  0  0  0  0  0  0  0  0
  193.2140  173.9000  143.5870 C   0  0  1  0  0  3  0  0  0  0  0  0
  194.3240  173.2500  144.3080 C   0  0  1  0  0  3  0  0  0  0  0  0
  195.5850  173.6730  143.6970 N   0  0  0  0  0  2  0  0  0  0  0  0
  196.7810  173.8600  144.4530 C   0  0  0  0  0  0  0  0  0  0  0  0
  196.8640  173.4900  145.8960 C   0  0  0  0  0  1  0  0  0  0  0  0
  197.7980  174.3460  143.8910 O   0  0  0  0  0  0  0  0  0  0  0  0
  190.5850  170.6690  141.6680 C   0  0  0  0  0  1  0  0  0  0  0  0
  190.0950  171.9560  142.3130 C   0  0  0  0  0  2  0  0  0  0  0  0
  1 10  1  0  0  0  0
  3  2  1  0  0  0  0
  4 22  1  0  0  0  0
  5  4  2  0  0  0  0
  5 23  1  0  0  0  0
  6 32  1  1  0  0  0
  6 14  1  0  0  0  0
  8 23  1  0  0  0  0
  8 21  1  1  0  0  0
  9  2  2  0  0  0  0
 10  7  1  0  0  0  0
 10 11  1  0  0  0  0
 11  9  1  6  0  0  0
 12 17  2  0  0  0  0
 13  8  1  0  0  0  0
 14  7  1  1  0  0  0
 15 13  2  0  0  0  0
 15  5  1  0  0  0  0
 16  3  2  0  0  0  0
 17 11  1  0  0  0  0
 17 16  1  0  0  0  0
 18 12  1  0  0  0  0
 19  6  1  0  0  0  0
 19  1  1  0  0  0  0
 20  4  1  0  0  0  0
 22  1  2  0  0  0  0
 22 12  1  0  0  0  0
 23 18  2  0  0  0  0
 25 14  1  0  0  0  0
 25 26  1  0  0  0  0
 25 24  1  1  0  0  0
 26 27  1  6  0  0  0
 26 24  1  0  0  0  0
 27 28  1  0  0  0  0
 28 29  1  0  0  0  0
 30 28  2  0  0  0  0
 31 32  1  0  0  0  0
M  END
>  <MODEL>
5

>  <REMARK>
 VINA RESULT:      -7.7      2.234      3.282
  Name = 
  3 active torsions:
  status: ('A' for Active; 'I' for Inactive)
    1  A    between atoms: C_7  and  C_19
    2  A    between atoms: C_10  and  C_17
    3  A    between atoms: C_20  and  N_29
                            x       y       z     vdW  Elec       q    Type
                         _______ _______ _______ _____ _____    ______ ____

>  <TORSDO>
F 3

$$$$
=
 OpenBabel11112416383D

 32 37  0  0  1  0  0  0  0  0999 V2000
  191.5130  175.7700  143.8950 C   0  0  0  0  0  0  0  0  0  0  0  0
  189.8360  173.5780  139.9970 C   0  0  0  0  0  3  0  0  0  0  0  0
  191.1940  173.1310  139.6020 C   0  0  0  0  0  3  0  0  0  0  0  0
  193.8810  176.3500  144.0060 C   0  0  0  0  0  0  0  0  0  0  0  0
  195.1450  176.2160  143.4280 C   0  0  0  0  0  0  0  0  0  0  0  0
  190.0100  176.4080  145.8460 C   0  0  2  0  0  3  0  0  0  0  0  0
  189.3350  174.5930  144.2480 C   0  0  0  0  0  2  0  0  0  0  0  0
  196.8200  175.5720  141.9900 C   0  0  1  0  0  3  0  0  0  0  0  0
  189.5950  174.0470  141.2270 C   0  0  0  0  0  3  0  0  0  0  0  0
  190.4390  174.9610  143.3630 N   0  0  0  0  0  0  0  0  0  0  0  0
  190.6830  174.0150  142.2730 C   0  0  0  0  0  0  0  0  0  0  0  0
  193.0360  174.8240  142.2590 C   0  0  0  0  0  0  0  0  0  0  0  0
  197.4220  176.3960  143.0650 N   0  0  0  0  0  0  0  0  0  0  0  0
  188.8360  175.7850  145.0710 C   0  0  2  0  0  3  0  0  0  0  0  0
  196.3470  176.7900  143.8850 N   0  0  0  0  0  0  0  0  0  0  0  0
  192.2520  173.4010  140.3740 C   0  0  0  0  0  2  0  0  0  0  0  0
  192.0550  174.1280  141.6570 C   0  0  0  0  0  0  0  0  0  0  0  0
  194.3450  174.7670  141.7150 C   0  0  0  0  0  3  0  0  0  0  0  0
  191.1310  176.8410  144.8960 C   0  0  0  0  0  2  0  0  0  0  0  0
  193.7610  177.1250  145.1560 O   0  0  0  0  0  1  0  0  0  0  0  0
  197.4670  174.2010  141.9450 C   0  0  0  0  0  1  0  0  0  0  0  0
  192.7850  175.6430  143.4180 C   0  0  0  0  0  0  0  0  0  0  0  0
  195.3670  175.4750  142.3310 C   0  0  0  0  0  0  0  0  0  0  0  0
  186.8860  176.4150  143.7570 O   0  0  0  0  0  0  0  0  0  0  0  0
  188.1580  176.8370  144.1930 C   0  0  1  0  0  3  0  0  0  0  0  0
  186.9220  177.2890  144.8570 C   0  0  1  0  0  3  0  0  0  0  0  0
  186.6440  178.6620  144.4340 N   0  0  0  0  0  2  0  0  0  0  0  0
  185.4290  179.3370  144.7610 C   0  0  0  0  0  0  0  0  0  0  0  0
  184.4230  178.7390  145.6870 C   0  0  0  0  0  1  0  0  0  0  0  0
  185.1970  180.4700  144.2620 O   0  0  0  0  0  0  0  0  0  0  0  0
  191.5310  176.2300  147.8330 C   0  0  0  0  0  1  0  0  0  0  0  0
  190.5820  175.4750  146.9140 C   0  0  0  0  0  2  0  0  0  0  0  0
  1 19  1  0  0  0  0
  2  9  1  0  0  0  0
  3  2  2  0  0  0  0
  3 16  1  0  0  0  0
  4 20  1  0  0  0  0
  5 15  1  0  0  0  0
  5  4  2  0  0  0  0
  6 32  1  1  0  0  0
  8 21  1  1  0  0  0
  8 23  1  0  0  0  0
  8 13  1  0  0  0  0
  9 11  2  0  0  0  0
 10  1  1  0  0  0  0
 10  7  1  0  0  0  0
 11 10  1  0  0  0  0
 12 22  1  0  0  0  0
 13 15  2  0  0  0  0
 14  7  1  6  0  0  0
 14  6  1  0  0  0  0
 16 17  1  0  0  0  0
 17 12  2  0  0  0  0
 17 11  1  0  0  0  0
 18 12  1  0  0  0  0
 18 23  2  0  0  0  0
 19  6  1  0  0  0  0
 22  1  2  0  0  0  0
 22  4  1  0  0  0  0
 23  5  1  0  0  0  0
 24 26  1  0  0  0  0
 25 24  1  6  0  0  0
 25 26  1  0  0  0  0
 25 14  1  0  0  0  0
 26 27  1  6  0  0  0
 27 28  1  0  0  0  0
 28 29  1  0  0  0  0
 30 28  2  0  0  0  0
 32 31  1  0  0  0  0
M  END
>  <MODEL>
6

>  <REMARK>
 VINA RESULT:      -7.7      2.855      8.107
  Name = 
  3 active torsions:
  status: ('A' for Active; 'I' for Inactive)
    1  A    between atoms: C_7  and  C_19
    2  A    between atoms: C_10  and  C_17
    3  A    between atoms: C_20  and  N_29
                            x       y       z     vdW  Elec       q    Type
                         _______ _______ _______ _____ _____    ______ ____

>  <TORSDO>
F 3

$$$$
=
 OpenBabel11112416383D

 32 37  0  0  1  0  0  0  0  0999 V2000
  190.7710  173.8860  143.8170 C   0  0  0  0  0  0  0  0  0  0  0  0
  193.3920  176.7910  146.5570 C   0  0  0  0  0  3  0  0  0  0  0  0
  194.5560  175.8720  146.5050 C   0  0  0  0  0  3  0  0  0  0  0  0
  191.4150  171.5410  143.6150 C   0  0  0  0  0  0  0  0  0  0  0  0
  192.3820  170.5690  143.8780 C   0  0  0  0  0  0  0  0  0  0  0  0
  188.6860  174.6860  142.5970 C   0  0  2  0  0  3  0  0  0  0  0  0
  190.4560  176.3160  143.3160 C   0  0  0  0  0  2  0  0  0  0  0  0
  194.3200  169.5740  144.6140 C   0  0  1  0  0  3  0  0  0  0  0  0
  192.3650  176.6500  145.7110 C   0  0  0  0  0  3  0  0  0  0  0  0
  191.1080  175.2650  144.0940 N   0  0  0  0  0  0  0  0  0  0  0  0
  192.4320  175.6230  144.6060 C   0  0  2  0  0  3  0  0  0  0  0  0
  192.9530  173.1900  144.6190 C   0  0  0  0  0  0  0  0  0  0  0  0
  193.4990  168.5440  143.9340 N   0  0  0  0  0  0  0  0  0  0  0  0
  188.9470  176.0830  143.1870 C   0  0  2  0  0  3  0  0  0  0  0  0
  192.3170  169.2020  143.5430 N   0  0  0  0  0  0  0  0  0  0  0  0
  194.5070  174.7500  145.7800 C   0  0  0  0  0  3  0  0  0  0  0  0
  193.2820  174.4400  144.9940 C   0  0  0  0  0  0  0  0  0  0  0  0
  193.8690  172.1370  144.8780 C   0  0  0  0  0  3  0  0  0  0  0  0
  189.3280  173.5940  143.4600 C   0  0  0  0  0  2  0  0  0  0  0  0
  190.2520  171.1530  142.9570 O   0  0  0  0  0  1  0  0  0  0  0  0
  195.6800  169.6910  143.9540 C   0  0  0  0  0  1  0  0  0  0  0  0
  191.6900  172.8940  143.9910 C   0  0  0  0  0  0  0  0  0  0  0  0
  193.5440  170.8460  144.4900 C   0  0  0  0  0  0  0  0  0  0  0  0
  188.4990  177.4860  145.1250 O   0  0  0  0  0  0  0  0  0  0  0  0
  188.2320  176.2370  144.5290 C   0  0  1  0  0  3  0  0  0  0  0  0
  187.2800  177.3590  144.4380 C   0  0  1  0  0  3  0  0  0  0  0  0
  186.1830  177.1140  145.3750 N   0  0  0  0  0  2  0  0  0  0  0  0
  185.1400  178.0630  145.6030 C   0  0  0  0  0  0  0  0  0  0  0  0
  185.0180  179.3060  144.7890 C   0  0  0  0  0  1  0  0  0  0  0  0
  184.2960  177.8460  146.5130 O   0  0  0  0  0  0  0  0  0  0  0  0
  188.6720  173.2480  140.5420 C   0  0  0  0  0  1  0  0  0  0  0  0
  189.1740  174.5460  141.1550 C   0  0  0  0  0  2  0  0  0  0  0  0
  1 22  2  0  0  0  0
  1 10  1  0  0  0  0
  3  2  1  0  0  0  0
  4  5  2  0  0  0  0
  4 22  1  0  0  0  0
  5 23  1  0  0  0  0
  6 32  1  6  0  0  0
  6 14  1  0  0  0  0
  6 19  1  0  0  0  0
  7 10  1  0  0  0  0
  8 21  1  6  0  0  0
  9  2  2  0  0  0  0
 10 11  1  0  0  0  0
 11 17  1  0  0  0  0
 11  9  1  1  0  0  0
 12 18  1  0  0  0  0
 12 17  2  0  0  0  0
 13  8  1  0  0  0  0
 14  7  1  1  0  0  0
 14 25  1  0  0  0  0
 15  5  1  0  0  0  0
 15 13  2  0  0  0  0
 16  3  2  0  0  0  0
 17 16  1  0  0  0  0
 19  1  1  0  0  0  0
 20  4  1  0  0  0  0
 22 12  1  0  0  0  0
 23  8  1  0  0  0  0
 23 18  2  0  0  0  0
 25 24  1  1  0  0  0
 26 25  1  0  0  0  0
 26 24  1  0  0  0  0
 26 27  1  1  0  0  0
 27 28  1  0  0  0  0
 28 30  2  0  0  0  0
 29 28  1  0  0  0  0
 31 32  1  0  0  0  0
M  END
>  <MODEL>
7

>  <REMARK>
 VINA RESULT:      -7.4      3.682      8.041
  Name = 
  3 active torsions:
  status: ('A' for Active; 'I' for Inactive)
    1  A    between atoms: C_7  and  C_19
    2  A    between atoms: C_10  and  C_17
    3  A    between atoms: C_20  and  N_29
                            x       y       z     vdW  Elec       q    Type
                         _______ _______ _______ _____ _____    ______ ____

>  <TORSDO>
F 3

$$$$
=
 OpenBabel11112416383D

 32 37  0  0  1  0  0  0  0  0999 V2000
  191.7830  175.4320  143.6550 C   0  0  0  0  0  0  0  0  0  0  0  0
  188.1460  173.4640  141.2630 C   0  0  0  0  0  3  0  0  0  0  0  0
  189.0540  172.9410  140.2130 C   0  0  0  0  0  3  0  0  0  0  0  0
  193.8850  175.8510  142.4880 C   0  0  0  0  0  0  0  0  0  0  0  0
  194.6370  175.6510  141.3300 C   0  0  0  0  0  0  0  0  0  0  0  0
  191.5900  176.1120  146.0990 C   0  0  2  0  0  3  0  0  0  0  0  0
  190.0460  174.3900  145.1220 C   0  0  0  0  0  2  0  0  0  0  0  0
  195.2470  174.9390  139.2300 C   0  0  1  0  0  3  0  0  0  0  0  0
  188.6270  173.9130  142.4290 C   0  0  0  0  0  3  0  0  0  0  0  0
  190.5360  174.7100  143.7830 N   0  0  0  0  0  0  0  0  0  0  0  0
  190.0990  173.7810  142.7390 C   0  0  0  0  0  0  0  0  0  0  0  0
  192.1380  174.4340  141.4720 C   0  0  0  0  0  0  0  0  0  0  0  0
  196.3830  175.6910  139.8130 N   0  0  0  0  0  0  0  0  0  0  0  0
  190.1430  175.5890  146.0710 C   0  0  2  0  0  3  0  0  0  0  0  0
  195.9360  176.1310  141.0740 N   0  0  0  0  0  0  0  0  0  0  0  0
  190.3770  173.1180  140.3040 C   0  0  0  0  0  2  0  0  0  0  0  0
  190.9400  173.8210  141.4880 C   0  0  0  0  0  0  0  0  0  0  0  0
  192.9530  174.3060  140.3170 C   0  0  0  0  0  3  0  0  0  0  0  0
  192.0650  176.4970  144.6950 C   0  0  0  0  0  2  0  0  0  0  0  0
  194.4470  176.5990  143.5180 O   0  0  0  0  0  1  0  0  0  0  0  0
  195.6740  173.5300  138.8630 C   0  0  0  0  0  1  0  0  0  0  0  0
  192.5960  175.2350  142.5780 C   0  0  0  0  0  0  0  0  0  0  0  0
  194.1920  174.9280  140.2900 C   0  0  0  0  0  0  0  0  0  0  0  0
  187.9790  176.2000  145.1370 O   0  0  0  0  0  0  0  0  0  0  0  0
  189.1800  176.7080  145.6750 C   0  0  1  0  0  3  0  0  0  0  0  0
  187.9540  176.5940  146.4860 C   0  0  1  0  0  3  0  0  0  0  0  0
  187.3640  177.9250  146.6240 N   0  0  0  0  0  2  0  0  0  0  0  0
  185.9550  178.1520  146.5630 C   0  0  0  0  0  0  0  0  0  0  0  0
  184.9800  177.0250  146.5090 C   0  0  0  0  0  1  0  0  0  0  0  0
  185.5190  179.3340  146.5630 O   0  0  0  0  0  0  0  0  0  0  0  0
  194.0030  175.6090  146.5640 C   0  0  0  0  0  1  0  0  0  0  0  0
  192.5730  175.1140  146.7120 C   0  0  0  0  0  2  0  0  0  0  0  0
  1 10  1  0  0  0  0
  1 19  1  0  0  0  0
  2  9  1  0  0  0  0
  3 16  1  0  0  0  0
  3  2  2  0  0  0  0
  4 22  1  0  0  0  0
  4 20  1  0  0  0  0
  5  4  2  0  0  0  0
  6 32  1  6  0  0  0
  8 21  1  1  0  0  0
  8 13  1  0  0  0  0
  8 23  1  0  0  0  0
  9 11  2  0  0  0  0
 10  7  1  0  0  0  0
 11 10  1  0  0  0  0
 12 17  2  0  0  0  0
 12 22  1  0  0  0  0
 13 15  2  0  0  0  0
 14  7  1  6  0  0  0
 14  6  1  0  0  0  0
 15  5  1  0  0  0  0
 16 17  1  0  0  0  0
 17 11  1  0  0  0  0
 18 12  1  0  0  0  0
 19  6  1  0  0  0  0
 22  1  2  0  0  0  0
 23 18  2  0  0  0  0
 23  5  1  0  0  0  0
 24 26  1  0  0  0  0
 25 24  1  6  0  0  0
 25 14  1  0  0  0  0
 25 26  1  0  0  0  0
 26 27  1  6  0  0  0
 28 30  2  0  0  0  0
 28 27  1  0  0  0  0
 29 28  1  0  0  0  0
 31 32  1  0  0  0  0
M  END
>  <MODEL>
8

>  <REMARK>
 VINA RESULT:      -7.2      3.442      7.316
  Name = 
  3 active torsions:
  status: ('A' for Active; 'I' for Inactive)
    1  A    between atoms: C_7  and  C_19
    2  A    between atoms: C_10  and  C_17
    3  A    between atoms: C_20  and  N_29
                            x       y       z     vdW  Elec       q    Type
                         _______ _______ _______ _____ _____    ______ ____

>  <TORSDO>
F 3

$$$$
=
 OpenBabel11112416383D

 32 37  0  0  1  0  0  0  0  0999 V2000
  186.8100  176.9150  143.2500 C   0  0  0  0  0  0  0  0  0  0  0  0
  185.5910  179.1100  147.3150 C   0  0  0  0  0  3  0  0  0  0  0  0
  186.8420  178.6750  147.9830 C   0  0  0  0  0  3  0  0  0  0  0  0
  188.4930  175.1490  143.3120 C   0  0  0  0  0  0  0  0  0  0  0  0
  189.4610  174.4840  144.0670 C   0  0  0  0  0  0  0  0  0  0  0  0
  185.7230  177.4850  141.0220 C   0  0  2  0  0  3  0  0  0  0  0  0
  185.7020  179.1330  142.9170 C   0  0  0  0  0  2  0  0  0  0  0  0
  190.8180  173.8950  145.8270 C   0  0  1  0  0  3  0  0  0  0  0  0
  185.4550  179.0250  145.9860 C   0  0  0  0  0  3  0  0  0  0  0  0
  186.2070  178.1000  143.8200 N   0  0  0  0  0  0  0  0  0  0  0  0
  186.6240  178.5950  145.1330 C   0  0  2  0  0  3  0  0  0  0  0  0
  188.1470  176.6310  145.2560 C   0  0  0  0  0  0  0  0  0  0  0  0
  191.1570  173.0320  144.6700 N   0  0  0  0  0  0  0  0  0  0  0  0
  184.8840  178.5390  141.7660 C   0  0  2  0  0  3  0  0  0  0  0  0
  190.2710  173.4130  143.6440 N   0  0  0  0  0  0  0  0  0  0  0  0
  187.7660  177.9760  147.3150 C   0  0  0  0  0  3  0  0  0  0  0  0
  187.5460  177.6620  145.8770 C   0  0  0  0  0  0  0  0  0  0  0  0
  189.1220  175.8820  145.9650 C   0  0  0  0  0  3  0  0  0  0  0  0
  186.1930  176.3810  141.9740 C   0  0  0  0  0  2  0  0  0  0  0  0
  188.2800  174.7350  142.0010 O   0  0  0  0  0  1  0  0  0  0  0  0
  192.0400  174.6600  146.2960 C   0  0  0  0  0  1  0  0  0  0  0  0
  187.8050  176.2540  143.9070 C   0  0  0  0  0  0  0  0  0  0  0  0
  189.7530  174.8210  145.3330 C   0  0  0  0  0  0  0  0  0  0  0  0
  182.8650  178.8070  143.1000 O   0  0  0  0  0  0  0  0  0  0  0  0
  183.5730  177.9250  142.2580 C   0  0  1  0  0  3  0  0  0  0  0  0
  182.4480  178.7370  141.7600 C   0  0  1  0  0  3  0  0  0  0  0  0
  181.2740  177.8730  141.6290 N   0  0  0  0  0  2  0  0  0  0  0  0
  180.0150  178.3520  141.1550 C   0  0  0  0  0  0  0  0  0  0  0  0
  179.8530  179.7340  140.6170 C   0  0  0  0  0  1  0  0  0  0  0  0
  179.0130  177.5900  141.1850 O   0  0  0  0  0  0  0  0  0  0  0  0
  187.1250  177.4340  138.9430 C   0  0  0  0  0  1  0  0  0  0  0  0
  186.9320  178.0850  140.3030 C   0  0  0  0  0  2  0  0  0  0  0  0
  1 10  1  0  0  0  0
  1 22  2  0  0  0  0
  2  3  1  0  0  0  0
  4 22  1  0  0  0  0
  4  5  2  0  0  0  0
  5 23  1  0  0  0  0
  6 32  1  1  0  0  0
  6 14  1  0  0  0  0
  6 19  1  0  0  0  0
  7 10  1  0  0  0  0
  8 21  1  6  0  0  0
  9  2  2  0  0  0  0
 10 11  1  0  0  0  0
 11 17  1  0  0  0  0
 11  9  1  1  0  0  0
 12 17  2  0  0  0  0
 12 18  1  0  0  0  0
 13  8  1  0  0  0  0
 14 25  1  0  0  0  0
 14  7  1  1  0  0  0
 15  5  1  0  0  0  0
 15 13  2  0  0  0  0
 16  3  2  0  0  0  0
 17 16  1  0  0  0  0
 19  1  1  0  0  0  0
 20  4  1  0  0  0  0
 22 12  1  0  0  0  0
 23  8  1  0  0  0  0
 23 18  2  0  0  0  0
 25 24  1  1  0  0  0
 26 27  1  1  0  0  0
 26 25  1  0  0  0  0
 26 24  1  0  0  0  0
 28 30  2  0  0  0  0
 28 27  1  0  0  0  0
 29 28  1  0  0  0  0
 31 32  1  0  0  0  0
M  END
>  <MODEL>
9

>  <REMARK>
 VINA RESULT:      -7.2      2.963      7.791
  Name = 
  3 active torsions:
  status: ('A' for Active; 'I' for Inactive)
    1  A    between atoms: C_7  and  C_19
    2  A    between atoms: C_10  and  C_17
    3  A    between atoms: C_20  and  N_29
                            x       y       z     vdW  Elec       q    Type
                         _______ _______ _______ _____ _____    ______ ____

>  <TORSDO>
F 3

$$$$
