=
 OpenBabel11112417393D

 28 32  0  0  1  0  0  0  0  0999 V2000
  191.0070  174.3740  143.1140 C   0  0  0  0  0  0  0  0  0  0  0  0
  187.8030  178.1720  143.9260 F   0  0  0  0  0  0  0  0  0  0  0  0
  192.9980  175.8580  146.9640 O   0  0  0  0  0  0  0  0  0  0  0  0
  190.1300  172.2380  144.6950 C   0  0  0  0  0  3  0  0  0  0  0  0
  190.6920  176.4300  147.3670 C   0  0  2  0  0  3  0  0  0  0  0  0
  191.4700  175.4610  142.3720 O   0  0  0  0  0  0  0  0  0  0  0  0
  186.3710  176.4780  143.1300 C   0  0  0  0  0  1  0  0  0  0  0  0
  187.0990  177.0480  144.3310 C   0  0  1  0  0  0  0  0  0  0  0  0
  186.7970  177.8330  146.6520 C   0  0  1  0  0  3  0  0  0  0  0  0
  188.0410  175.9660  144.9090 C   0  0  2  0  0  3  0  0  0  0  0  0
  194.0090  174.9350  144.3000 C   0  0  0  0  0  1  0  0  0  0  0  0
  190.2800  176.9550  144.9950 C   0  0  1  0  0  3  0  0  0  0  0  0
  187.3730  176.6770  147.2110 O   0  0  0  0  0  0  0  0  0  0  0  0
  186.0700  177.4720  145.3650 C   0  0  0  0  0  2  0  0  0  0  0  0
  193.5260  176.1360  143.5040 C   0  0  2  0  0  3  0  0  0  0  0  0
  189.9710  174.5740  144.0370 C   0  0  0  0  0  0  0  0  0  0  0  0
  191.8830  176.2290  146.5130 C   0  0  0  0  0  0  0  0  0  0  0  0
  185.8120  178.4280  147.6350 C   0  0  0  0  0  1  0  0  0  0  0  0
  192.7260  177.1500  144.3390 C   0  0  0  0  0  2  0  0  0  0  0  0
  189.5470  173.4990  144.8370 C   0  0  0  0  0  3  0  0  0  0  0  0
  191.5910  173.1050  142.9760 C   0  0  0  0  0  3  0  0  0  0  0  0
  191.1490  172.0400  143.7620 C   0  0  0  0  0  3  0  0  0  0  0  0
  192.8550  175.7240  142.1920 C   0  0  0  0  0  2  0  0  0  0  0  0
  189.6790  177.0510  146.4090 C   0  0  1  0  0  3  0  0  0  0  0  0
  191.6690  176.5360  145.1460 N   0  0  0  0  0  0  0  0  0  0  0  0
  188.4160  176.2070  146.3770 C   0  0  2  0  0  3  0  0  0  0  0  0
  190.9860  177.3400  148.3820 O   0  0  0  0  0  1  0  0  0  0  0  0
  189.3930  175.9670  144.1970 C   0  0  1  0  0  3  0  0  0  0  0  0
  1 16  1  0  0  0  0
  2  8  1  0  0  0  0
  4 20  1  0  0  0  0
  5 27  1  1  0  0  0
  6  1  1  0  0  0  0
  8  7  1  6  0  0  0
  8 10  1  0  0  0  0
  8 14  1  0  0  0  0
  9 13  1  0  0  0  0
  9 18  1  1  0  0  0
 10 26  1  0  0  0  0
 12 25  1  0  0  0  0
 12 24  1  0  0  0  0
 14  9  1  0  0  0  0
 15 11  1  0  0  0  0
 15 19  1  0  0  0  0
 16 28  1  0  0  0  0
 16 20  2  0  0  0  0
 17  3  2  0  0  0  0
 17  5  1  0  0  0  0
 19 25  1  0  0  0  0
 21  1  2  0  0  0  0
 21 22  1  0  0  0  0
 22  4  2  0  0  0  0
 23  6  1  0  0  0  0
 23 15  1  0  0  0  0
 24  5  1  0  0  0  0
 25 17  1  0  0  0  0
 26 24  1  0  0  0  0
 26 13  1  0  0  0  0
 28 10  1  0  0  0  0
 28 12  1  0  0  0  0
M  END
>  <MODEL>
1

>  <REMARK>
 VINA RESULT:      -8.6      0.000      0.000
  Name = 
  0 active torsions:
  status: ('A' for Active; 'I' for Inactive)
                            x       y       z     vdW  Elec       q    Type
                         _______ _______ _______ _____ _____    ______ ____

>  <TORSDO>
F 0

$$$$
=
 OpenBabel11112417393D

 28 32  0  0  1  0  0  0  0  0999 V2000
  191.6520  174.1500  143.3220 C   0  0  0  0  0  0  0  0  0  0  0  0
  188.8870  178.2170  142.2430 F   0  0  0  0  0  0  0  0  0  0  0  0
  192.0860  176.1230  147.4350 O   0  0  0  0  0  0  0  0  0  0  0  0
  189.9560  172.3600  144.6450 C   0  0  0  0  0  3  0  0  0  0  0  0
  189.9030  176.8920  146.7630 C   0  0  2  0  0  3  0  0  0  0  0  0
  192.5050  175.0700  142.7120 O   0  0  0  0  0  0  0  0  0  0  0  0
  187.7010  176.5050  141.1390 C   0  0  0  0  0  1  0  0  0  0  0  0
  187.9470  177.2190  142.4530 C   0  0  1  0  0  0  0  0  0  0  0  0
  186.8330  178.3920  144.3190 C   0  0  1  0  0  3  0  0  0  0  0  0
  188.4340  176.1920  143.5020 C   0  0  2  0  0  3  0  0  0  0  0  0
  193.9650  174.7160  145.5730 C   0  0  0  0  0  1  0  0  0  0  0  0
  190.5510  177.0440  144.3900 C   0  0  1  0  0  3  0  0  0  0  0  0
  186.9870  177.3110  145.2060 O   0  0  0  0  0  0  0  0  0  0  0  0
  186.6480  177.8690  142.9020 C   0  0  0  0  0  2  0  0  0  0  0  0
  193.9950  175.7970  144.5060 C   0  0  2  0  0  3  0  0  0  0  0  0
  190.3640  174.5610  143.6950 C   0  0  0  0  0  0  0  0  0  0  0  0
  191.3030  176.4820  146.5170 C   0  0  0  0  0  0  0  0  0  0  0  0
  185.6170  179.1990  144.7190 C   0  0  0  0  0  1  0  0  0  0  0  0
  193.0580  176.9800  144.7970 C   0  0  0  0  0  2  0  0  0  0  0  0
  189.5250  173.6600  144.3720 C   0  0  0  0  0  3  0  0  0  0  0  0
  192.0810  172.8430  143.5990 C   0  0  0  0  0  3  0  0  0  0  0  0
  191.2320  171.9500  144.2550 C   0  0  0  0  0  3  0  0  0  0  0  0
  193.8660  175.2160  143.0950 C   0  0  0  0  0  2  0  0  0  0  0  0
  189.4480  177.4080  145.4010 C   0  0  1  0  0  3  0  0  0  0  0  0
  191.6980  176.5720  145.1580 N   0  0  0  0  0  0  0  0  0  0  0  0
  188.2120  176.6480  144.9500 C   0  0  2  0  0  3  0  0  0  0  0  0
  189.8720  177.9370  147.6860 O   0  0  0  0  0  1  0  0  0  0  0  0
  189.9470  175.9950  143.4250 C   0  0  1  0  0  3  0  0  0  0  0  0
  1 21  2  0  0  0  0
  1 16  1  0  0  0  0
  2  8  1  0  0  0  0
  5 27  1  1  0  0  0
  6 23  1  0  0  0  0
  6  1  1  0  0  0  0
  8  7  1  6  0  0  0
  8 14  1  0  0  0  0
  8 10  1  0  0  0  0
  9 18  1  1  0  0  0
  9 13  1  0  0  0  0
 10 26  1  0  0  0  0
 12 25  1  0  0  0  0
 12 24  1  0  0  0  0
 14  9  1  0  0  0  0
 15 19  1  0  0  0  0
 15 11  1  0  0  0  0
 16 20  2  0  0  0  0
 17  5  1  0  0  0  0
 17  3  2  0  0  0  0
 19 25  1  0  0  0  0
 20  4  1  0  0  0  0
 21 22  1  0  0  0  0
 22  4  2  0  0  0  0
 23 15  1  0  0  0  0
 24  5  1  0  0  0  0
 25 17  1  0  0  0  0
 26 13  1  0  0  0  0
 26 24  1  0  0  0  0
 28 10  1  0  0  0  0
 28 16  1  0  0  0  0
 28 12  1  0  0  0  0
M  END
>  <MODEL>
2

>  <REMARK>
 VINA RESULT:      -8.4      1.290      1.472
  Name = 
  0 active torsions:
  status: ('A' for Active; 'I' for Inactive)
                            x       y       z     vdW  Elec       q    Type
                         _______ _______ _______ _____ _____    ______ ____

>  <TORSDO>
F 0

$$$$
=
 OpenBabel11112417393D

 28 32  0  0  1  0  0  0  0  0999 V2000
  190.1790  175.4900  144.0920 C   0  0  0  0  0  0  0  0  0  0  0  0
  185.5010  176.2570  145.7870 F   0  0  0  0  0  0  0  0  0  0  0  0
  188.2100  175.7200  139.9610 O   0  0  0  0  0  0  0  0  0  0  0  0
  191.2200  178.0080  143.4520 C   0  0  0  0  0  3  0  0  0  0  0  0
  186.8040  177.1970  141.2440 C   0  0  2  0  0  3  0  0  0  0  0  0
  189.6340  174.2340  144.3590 O   0  0  0  0  0  0  0  0  0  0  0  0
  186.7880  177.5420  147.2860 C   0  0  0  0  0  1  0  0  0  0  0  0
  186.1150  177.4920  145.9290 C   0  0  1  0  0  0  0  0  0  0  0  0
  184.5260  178.6710  144.4520 C   0  0  1  0  0  3  0  0  0  0  0  0
  187.1790  177.7270  144.8310 C   0  0  2  0  0  3  0  0  0  0  0  0
  190.2740  173.9410  141.2060 C   0  0  0  0  0  1  0  0  0  0  0  0
  187.0230  175.8340  143.2850 C   0  0  1  0  0  3  0  0  0  0  0  0
  185.5390  179.1700  143.6130 O   0  0  0  0  0  0  0  0  0  0  0  0
  185.0450  178.5700  145.8790 C   0  0  0  0  0  2  0  0  0  0  0  0
  189.3330  173.2210  142.1570 C   0  0  2  0  0  3  0  0  0  0  0  0
  189.3420  176.6140  144.1210 C   0  0  0  0  0  0  0  0  0  0  0  0
  187.6690  176.0120  141.0590 C   0  0  0  0  0  0  0  0  0  0  0  0
  183.3380  179.6070  144.4150 C   0  0  0  0  0  1  0  0  0  0  0  0
  187.8890  173.7500  142.1180 C   0  0  0  0  0  2  0  0  0  0  0  0
  189.8700  177.8720  143.7840 C   0  0  0  0  0  3  0  0  0  0  0  0
  191.5350  175.6300  143.7560 C   0  0  0  0  0  3  0  0  0  0  0  0
  192.0530  176.8880  143.4430 C   0  0  0  0  0  3  0  0  0  0  0  0
  189.9240  173.0930  143.5630 C   0  0  0  0  0  2  0  0  0  0  0  0
  186.2520  177.0070  142.6540 C   0  0  1  0  0  3  0  0  0  0  0  0
  187.8000  175.2090  142.2200 N   0  0  0  0  0  0  0  0  0  0  0  0
  186.5860  178.2220  143.5050 C   0  0  2  0  0  3  0  0  0  0  0  0
  185.7530  177.1620  140.3290 O   0  0  0  0  0  1  0  0  0  0  0  0
  187.8710  176.4220  144.4400 C   0  0  1  0  0  3  0  0  0  0  0  0
  1 16  1  0  0  0  0
  1  6  1  0  0  0  0
  2  8  1  0  0  0  0
  3 17  2  0  0  0  0
  4 20  1  0  0  0  0
  5 27  1  6  0  0  0
  5 24  1  0  0  0  0
  8  7  1  1  0  0  0
  9 18  1  1  0  0  0
  9 14  1  0  0  0  0
 10  8  1  0  0  0  0
 11 15  1  0  0  0  0
 12 28  1  0  0  0  0
 13  9  1  0  0  0  0
 14  8  1  0  0  0  0
 15 23  1  0  0  0  0
 16 28  1  0  0  0  0
 17  5  1  0  0  0  0
 17 25  1  0  0  0  0
 19 15  1  0  0  0  0
 19 25  1  0  0  0  0
 20 16  2  0  0  0  0
 21  1  2  0  0  0  0
 22  4  2  0  0  0  0
 22 21  1  0  0  0  0
 23  6  1  0  0  0  0
 24 12  1  0  0  0  0
 24 26  1  0  0  0  0
 25 12  1  0  0  0  0
 26 13  1  0  0  0  0
 26 10  1  0  0  0  0
 28 10  1  0  0  0  0
M  END
>  <MODEL>
3

>  <REMARK>
 VINA RESULT:      -8.1      2.624      4.837
  Name = 
  0 active torsions:
  status: ('A' for Active; 'I' for Inactive)
                            x       y       z     vdW  Elec       q    Type
                         _______ _______ _______ _____ _____    ______ ____

>  <TORSDO>
F 0

$$$$
=
 OpenBabel11112417393D

 28 32  0  0  1  0  0  0  0  0999 V2000
  189.3030  176.8810  145.1190 C   0  0  0  0  0  0  0  0  0  0  0  0
  194.2400  176.3160  144.3040 F   0  0  0  0  0  0  0  0  0  0  0  0
  188.9490  172.9760  142.7460 O   0  0  0  0  0  0  0  0  0  0  0  0
  188.6730  175.2910  147.3340 C   0  0  0  0  0  3  0  0  0  0  0  0
  191.0950  172.6990  143.8060 C   0  0  2  0  0  3  0  0  0  0  0  0
  189.6150  177.6260  143.9810 O   0  0  0  0  0  0  0  0  0  0  0  0
  194.1930  177.1380  146.5130 C   0  0  0  0  0  1  0  0  0  0  0  0
  194.0700  175.9180  145.6220 C   0  0  1  0  0  0  0  0  0  0  0  0
  194.9290  173.6330  145.2480 C   0  0  1  0  0  3  0  0  0  0  0  0
  192.6840  175.2690  145.8450 C   0  0  2  0  0  3  0  0  0  0  0  0
  187.4430  175.5660  142.7630 C   0  0  0  0  0  1  0  0  0  0  0  0
  191.6240  175.1000  143.6440 C   0  0  1  0  0  3  0  0  0  0  0  0
  193.7730  173.0190  145.7630 O   0  0  0  0  0  0  0  0  0  0  0  0
  195.1820  174.9440  145.9770 C   0  0  0  0  0  2  0  0  0  0  0  0
  188.5460  176.4130  142.1500 C   0  0  2  0  0  3  0  0  0  0  0  0
  190.2700  176.0130  145.6470 C   0  0  0  0  0  0  0  0  0  0  0  0
  190.0140  173.4900  143.1790 C   0  0  0  0  0  0  0  0  0  0  0  0
  196.1150  172.7130  145.4420 C   0  0  0  0  0  1  0  0  0  0  0  0
  189.8540  175.6430  141.9050 C   0  0  0  0  0  2  0  0  0  0  0  0
  189.9390  175.2080  146.7510 C   0  0  0  0  0  3  0  0  0  0  0  0
  188.0310  176.9590  145.7060 C   0  0  0  0  0  3  0  0  0  0  0  0
  187.7210  176.1700  146.8140 C   0  0  0  0  0  3  0  0  0  0  0  0
  188.7210  177.7460  142.8820 C   0  0  0  0  0  2  0  0  0  0  0  0
  192.2170  173.7190  143.9760 C   0  0  1  0  0  3  0  0  0  0  0  0
  190.3040  174.8730  143.0670 N   0  0  0  0  0  0  0  0  0  0  0  0
  192.6310  173.7910  145.4360 C   0  0  2  0  0  3  0  0  0  0  0  0
  191.5130  171.6940  142.9350 O   0  0  0  0  0  1  0  0  0  0  0  0
  191.6190  175.9150  144.9610 C   0  0  1  0  0  3  0  0  0  0  0  0
  1 16  2  0  0  0  0
  1 21  1  0  0  0  0
  2  8  1  0  0  0  0
  3 17  2  0  0  0  0
  5 27  1  6  0  0  0
  5 24  1  0  0  0  0
  6  1  1  0  0  0  0
  8 10  1  0  0  0  0
  8 14  1  0  0  0  0
  8  7  1  1  0  0  0
  9 18  1  1  0  0  0
  9 13  1  0  0  0  0
  9 14  1  0  0  0  0
 12 24  1  0  0  0  0
 12 28  1  0  0  0  0
 15 11  1  0  0  0  0
 15 23  1  0  0  0  0
 16 20  1  0  0  0  0
 17  5  1  0  0  0  0
 19 15  1  0  0  0  0
 19 25  1  0  0  0  0
 20  4  2  0  0  0  0
 21 22  2  0  0  0  0
 22  4  1  0  0  0  0
 23  6  1  0  0  0  0
 24 26  1  0  0  0  0
 25 17  1  0  0  0  0
 25 12  1  0  0  0  0
 26 13  1  0  0  0  0
 26 10  1  0  0  0  0
 28 16  1  0  0  0  0
 28 10  1  0  0  0  0
M  END
>  <MODEL>
4

>  <REMARK>
 VINA RESULT:      -8.1      2.461      6.061
  Name = 
  0 active torsions:
  status: ('A' for Active; 'I' for Inactive)
                            x       y       z     vdW  Elec       q    Type
                         _______ _______ _______ _____ _____    ______ ____

>  <TORSDO>
F 0

$$$$
=
 OpenBabel11112417393D

 28 32  0  0  1  0  0  0  0  0999 V2000
  190.2670  176.1430  144.9650 C   0  0  0  0  0  0  0  0  0  0  0  0
  185.3350  176.7400  144.1470 F   0  0  0  0  0  0  0  0  0  0  0  0
  190.1690  173.8760  140.9840 O   0  0  0  0  0  0  0  0  0  0  0  0
  191.5670  178.1420  143.4990 C   0  0  0  0  0  3  0  0  0  0  0  0
  188.4140  175.4950  140.6560 C   0  0  2  0  0  3  0  0  0  0  0  0
  189.6150  175.1160  145.6470 O   0  0  0  0  0  0  0  0  0  0  0  0
  185.9410  178.8260  145.0620 C   0  0  0  0  0  1  0  0  0  0  0  0
  185.8810  177.9710  143.8120 C   0  0  1  0  0  0  0  0  0  0  0  0
  185.0780  177.9120  141.4780 C   0  0  1  0  0  3  0  0  0  0  0  0
  187.3090  177.8200  143.2360 C   0  0  2  0  0  3  0  0  0  0  0  0
  191.4780  173.4030  143.6370 C   0  0  0  0  0  1  0  0  0  0  0  0
  187.7310  175.4170  143.0220 C   0  0  1  0  0  3  0  0  0  0  0  0
  186.3630  178.1050  140.9380 O   0  0  0  0  0  0  0  0  0  0  0  0
  184.9640  178.6460  142.8060 C   0  0  0  0  0  2  0  0  0  0  0  0
  190.2050  173.0960  144.4070 C   0  0  2  0  0  3  0  0  0  0  0  0
  189.5310  176.9430  144.0780 C   0  0  0  0  0  0  0  0  0  0  0  0
  189.2370  174.5710  141.4670 C   0  0  0  0  0  0  0  0  0  0  0  0
  184.0430  178.4530  140.5150 C   0  0  0  0  0  1  0  0  0  0  0  0
  188.9240  173.2430  143.5700 C   0  0  0  0  0  2  0  0  0  0  0  0
  190.1950  177.9340  143.3360 C   0  0  0  0  0  3  0  0  0  0  0  0
  191.6450  176.3540  145.1250 C   0  0  0  0  0  3  0  0  0  0  0  0
  192.2900  177.3550  144.3970 C   0  0  0  0  0  3  0  0  0  0  0  0
  190.1650  173.8100  145.7610 C   0  0  0  0  0  2  0  0  0  0  0  0
  187.3280  175.9390  141.6310 C   0  0  1  0  0  3  0  0  0  0  0  0
  188.8530  174.5050  142.8300 N   0  0  0  0  0  0  0  0  0  0  0  0
  187.3280  177.4540  141.7460 C   0  0  2  0  0  3  0  0  0  0  0  0
  187.8290  174.8010  139.5970 O   0  0  0  0  0  1  0  0  0  0  0  0
  188.0530  176.6580  143.8910 C   0  0  1  0  0  3  0  0  0  0  0  0
  1 21  1  0  0  0  0
  1  6  1  0  0  0  0
  3 17  2  0  0  0  0
  4 22  1  0  0  0  0
  5 27  1  6  0  0  0
  5 17  1  0  0  0  0
  5 24  1  0  0  0  0
  6 23  1  0  0  0  0
  8  2  1  0  0  0  0
  8  7  1  1  0  0  0
  9 18  1  6  0  0  0
  9 14  1  0  0  0  0
 10  8  1  0  0  0  0
 10 28  1  0  0  0  0
 11 15  1  0  0  0  0
 12 28  1  0  0  0  0
 13  9  1  0  0  0  0
 13 26  1  0  0  0  0
 14  8  1  0  0  0  0
 15 23  1  0  0  0  0
 16  1  2  0  0  0  0
 17 25  1  0  0  0  0
 19 15  1  0  0  0  0
 20  4  2  0  0  0  0
 20 16  1  0  0  0  0
 22 21  2  0  0  0  0
 24 26  1  0  0  0  0
 24 12  1  0  0  0  0
 25 12  1  0  0  0  0
 25 19  1  0  0  0  0
 26 10  1  0  0  0  0
 28 16  1  0  0  0  0
M  END
>  <MODEL>
5

>  <REMARK>
 VINA RESULT:      -8.0      2.521      4.976
  Name = 
  0 active torsions:
  status: ('A' for Active; 'I' for Inactive)
                            x       y       z     vdW  Elec       q    Type
                         _______ _______ _______ _____ _____    ______ ____

>  <TORSDO>
F 0

$$$$
=
 OpenBabel11112417393D

 28 32  0  0  1  0  0  0  0  0999 V2000
  187.0820  176.7390  143.7990 C   0  0  0  0  0  0  0  0  0  0  0  0
  189.3160  172.3490  144.8430 F   0  0  0  0  0  0  0  0  0  0  0  0
  189.5470  178.2910  147.3360 O   0  0  0  0  0  0  0  0  0  0  0  0
  188.8850  178.2000  142.2340 C   0  0  0  0  0  3  0  0  0  0  0  0
  190.9880  176.5660  146.4690 C   0  0  2  0  0  3  0  0  0  0  0  0
  186.2130  176.0280  144.6260 O   0  0  0  0  0  0  0  0  0  0  0  0
  189.2840  172.3400  142.4860 C   0  0  0  0  0  1  0  0  0  0  0  0
  190.0020  172.8180  143.7320 C   0  0  1  0  0  0  0  0  0  0  0  0
  192.1950  172.8740  144.8660 C   0  0  1  0  0  3  0  0  0  0  0  0
  190.0660  174.3630  143.7150 C   0  0  2  0  0  3  0  0  0  0  0  0
  186.7170  178.6640  146.4260 C   0  0  0  0  0  1  0  0  0  0  0  0
  189.0910  175.1310  145.8260 C   0  0  1  0  0  3  0  0  0  0  0  0
  192.4140  174.2310  144.5660 O   0  0  0  0  0  0  0  0  0  0  0  0
  191.4000  172.2230  143.7440 C   0  0  0  0  0  2  0  0  0  0  0  0
  186.2460  177.2530  146.7380 C   0  0  2  0  0  3  0  0  0  0  0  0
  188.3850  176.2560  143.6090 C   0  0  0  0  0  0  0  0  0  0  0  0
  189.6740  177.1710  146.7760 C   0  0  0  0  0  0  0  0  0  0  0  0
  193.5270  172.1710  145.0120 C   0  0  0  0  0  1  0  0  0  0  0  0
  187.3610  176.3270  147.2510 C   0  0  0  0  0  2  0  0  0  0  0  0
  189.2880  177.0040  142.8330 C   0  0  0  0  0  3  0  0  0  0  0  0
  186.6820  177.9410  143.1970 C   0  0  0  0  0  3  0  0  0  0  0  0
  187.5810  178.6660  142.4120 C   0  0  0  0  0  3  0  0  0  0  0  0
  185.4020  176.6640  145.6050 C   0  0  0  0  0  2  0  0  0  0  0  0
  190.6210  175.1650  145.9870 C   0  0  1  0  0  3  0  0  0  0  0  0
  188.5690  176.3560  146.4230 N   0  0  0  0  0  0  0  0  0  0  0  0
  191.1860  174.9360  144.5950 C   0  0  2  0  0  3  0  0  0  0  0  0
  191.7480  176.4680  147.6350 O   0  0  0  0  0  1  0  0  0  0  0  0
  188.8020  174.9790  144.3130 C   0  0  1  0  0  3  0  0  0  0  0  0
  1  6  1  0  0  0  0
  4 22  2  0  0  0  0
  4 20  1  0  0  0  0
  5 17  1  0  0  0  0
  5 27  1  1  0  0  0
  6 23  1  0  0  0  0
  8  7  1  6  0  0  0
  8 14  1  0  0  0  0
  8  2  1  0  0  0  0
  9 18  1  6  0  0  0
 10  8  1  0  0  0  0
 10 28  1  0  0  0  0
 10 26  1  0  0  0  0
 11 15  1  0  0  0  0
 12 24  1  0  0  0  0
 12 25  1  0  0  0  0
 13 26  1  0  0  0  0
 13  9  1  0  0  0  0
 14  9  1  0  0  0  0
 15 19  1  0  0  0  0
 16  1  1  0  0  0  0
 16 28  1  0  0  0  0
 17  3  2  0  0  0  0
 20 16  2  0  0  0  0
 21  1  2  0  0  0  0
 22 21  1  0  0  0  0
 23 15  1  0  0  0  0
 24  5  1  0  0  0  0
 25 17  1  0  0  0  0
 25 19  1  0  0  0  0
 26 24  1  0  0  0  0
 28 12  1  0  0  0  0
M  END
>  <MODEL>
6

>  <REMARK>
 VINA RESULT:      -7.4      2.096      5.628
  Name = 
  0 active torsions:
  status: ('A' for Active; 'I' for Inactive)
                            x       y       z     vdW  Elec       q    Type
                         _______ _______ _______ _____ _____    ______ ____

>  <TORSDO>
F 0

$$$$
=
 OpenBabel11112417393D

 28 32  0  0  1  0  0  0  0  0999 V2000
  194.4180  174.0810  145.3250 C   0  0  0  0  0  0  0  0  0  0  0  0
  189.8590  175.0570  147.2280 F   0  0  0  0  0  0  0  0  0  0  0  0
  192.1040  173.2700  141.4540 O   0  0  0  0  0  0  0  0  0  0  0  0
  195.2580  176.4160  144.0300 C   0  0  0  0  0  3  0  0  0  0  0  0
  190.7280  174.9550  142.4890 C   0  0  2  0  0  3  0  0  0  0  0  0
  193.9670  172.9050  145.9240 O   0  0  0  0  0  0  0  0  0  0  0  0
  191.1910  176.7020  148.2650 C   0  0  0  0  0  1  0  0  0  0  0  0
  190.4130  176.3130  147.0240 C   0  0  1  0  0  0  0  0  0  0  0  0
  188.6430  177.0570  145.4710 C   0  0  1  0  0  3  0  0  0  0  0  0
  191.3670  176.3220  145.8070 C   0  0  2  0  0  3  0  0  0  0  0  0
  194.3600  171.9050  142.8770 C   0  0  0  0  0  1  0  0  0  0  0  0
  191.1910  174.1150  144.7590 C   0  0  1  0  0  3  0  0  0  0  0  0
  189.5540  177.3810  144.4490 O   0  0  0  0  0  0  0  0  0  0  0  0
  189.2830  177.3110  146.8280 C   0  0  0  0  0  2  0  0  0  0  0  0
  193.5420  171.3950  144.0520 C   0  0  2  0  0  3  0  0  0  0  0  0
  193.5230  175.1510  145.1730 C   0  0  0  0  0  0  0  0  0  0  0  0
  191.6400  173.7910  142.5020 C   0  0  0  0  0  0  0  0  0  0  0  0
  187.4060  177.9160  145.3310 C   0  0  0  0  0  1  0  0  0  0  0  0
  192.0740  171.8490  144.0270 C   0  0  0  0  0  2  0  0  0  0  0  0
  193.9500  176.3130  144.5090 C   0  0  0  0  0  3  0  0  0  0  0  0
  195.7300  174.1880  144.8420 C   0  0  0  0  0  3  0  0  0  0  0  0
  196.1490  175.3540  144.2010 C   0  0  0  0  0  3  0  0  0  0  0  0
  194.2540  171.6200  145.3880 C   0  0  0  0  0  2  0  0  0  0  0  0
  190.3060  175.0810  143.9510 C   0  0  1  0  0  3  0  0  0  0  0  0
  191.9110  173.2870  143.7990 N   0  0  0  0  0  0  0  0  0  0  0  0
  190.6400  176.4710  144.4650 C   0  0  2  0  0  3  0  0  0  0  0  0
  189.6080  174.6700  141.7090 O   0  0  0  0  0  1  0  0  0  0  0  0
  192.0970  174.9870  145.6640 C   0  0  1  0  0  3  0  0  0  0  0  0
  1  6  1  0  0  0  0
  3 17  2  0  0  0  0
  4 22  2  0  0  0  0
  4 20  1  0  0  0  0
  5 27  1  6  0  0  0
  5 17  1  0  0  0  0
  5 24  1  0  0  0  0
  8  2  1  0  0  0  0
  8  7  1  1  0  0  0
  9 18  1  6  0  0  0
  9 14  1  0  0  0  0
 10  8  1  0  0  0  0
 11 15  1  0  0  0  0
 12 28  1  0  0  0  0
 13 26  1  0  0  0  0
 13  9  1  0  0  0  0
 14  8  1  0  0  0  0
 15 23  1  0  0  0  0
 16  1  1  0  0  0  0
 16 28  1  0  0  0  0
 17 25  1  0  0  0  0
 19 15  1  0  0  0  0
 20 16  2  0  0  0  0
 21  1  2  0  0  0  0
 22 21  1  0  0  0  0
 23  6  1  0  0  0  0
 24 26  1  0  0  0  0
 24 12  1  0  0  0  0
 25 19  1  0  0  0  0
 25 12  1  0  0  0  0
 26 10  1  0  0  0  0
 28 10  1  0  0  0  0
M  END
>  <MODEL>
7

>  <REMARK>
 VINA RESULT:      -7.3      2.172      4.675
  Name = 
  0 active torsions:
  status: ('A' for Active; 'I' for Inactive)
                            x       y       z     vdW  Elec       q    Type
                         _______ _______ _______ _____ _____    ______ ____

>  <TORSDO>
F 0

$$$$
=
 OpenBabel11112417393D

 28 32  0  0  1  0  0  0  0  0999 V2000
  192.2590  174.8650  142.0550 C   0  0  0  0  0  0  0  0  0  0  0  0
  189.4550  178.5650  144.0060 F   0  0  0  0  0  0  0  0  0  0  0  0
  193.4730  174.1330  146.4120 O   0  0  0  0  0  0  0  0  0  0  0  0
  190.7790  172.5070  142.3400 C   0  0  0  0  0  3  0  0  0  0  0  0
  191.2270  174.9650  146.6750 C   0  0  2  0  0  3  0  0  0  0  0  0
  193.0130  176.0360  141.9680 O   0  0  0  0  0  0  0  0  0  0  0  0
  188.0460  177.7120  142.3200 C   0  0  0  0  0  1  0  0  0  0  0  0
  188.5410  177.5550  143.7440 C   0  0  1  0  0  0  0  0  0  0  0  0
  187.8100  177.3390  146.0920 C   0  0  1  0  0  3  0  0  0  0  0  0
  189.1810  176.1550  143.9030 C   0  0  2  0  0  3  0  0  0  0  0  0
  194.9510  174.2180  143.8070 C   0  0  0  0  0  1  0  0  0  0  0  0
  191.4440  176.5110  144.7680 C   0  0  1  0  0  3  0  0  0  0  0  0
  188.0920  175.9620  146.1460 O   0  0  0  0  0  0  0  0  0  0  0  0
  187.3610  177.7160  144.6880 C   0  0  0  0  0  2  0  0  0  0  0  0
  194.8180  175.7150  143.5810 C   0  0  2  0  0  3  0  0  0  0  0  0
  191.0700  174.8780  142.7990 C   0  0  0  0  0  0  0  0  0  0  0  0
  192.5480  174.8890  146.0150 C   0  0  0  0  0  0  0  0  0  0  0  0
  186.7070  177.6640  147.0760 C   0  0  0  0  0  1  0  0  0  0  0  0
  193.9800  176.4320  144.6520 C   0  0  0  0  0  2  0  0  0  0  0  0
  190.3420  173.6860  142.9490 C   0  0  0  0  0  3  0  0  0  0  0  0
  192.6960  173.6790  141.4460 C   0  0  0  0  0  3  0  0  0  0  0  0
  191.9530  172.5050  141.5850 C   0  0  0  0  0  3  0  0  0  0  0  0
  194.4240  176.0460  142.1390 C   0  0  0  0  0  2  0  0  0  0  0  0
  190.5490  176.1320  145.9620 C   0  0  1  0  0  3  0  0  0  0  0  0
  192.6970  175.7790  144.9210 N   0  0  0  0  0  0  0  0  0  0  0  0
  189.2330  175.6720  145.3590 C   0  0  2  0  0  3  0  0  0  0  0  0
  191.3890  175.2790  148.0230 O   0  0  0  0  0  1  0  0  0  0  0  0
  190.6500  176.1640  143.4840 C   0  0  1  0  0  3  0  0  0  0  0  0
  1 16  1  0  0  0  0
  4 20  1  0  0  0  0
  5 27  1  1  0  0  0
  6  1  1  0  0  0  0
  6 23  1  0  0  0  0
  8  7  1  6  0  0  0
  8 10  1  0  0  0  0
  8  2  1  0  0  0  0
  8 14  1  0  0  0  0
  9 13  1  0  0  0  0
  9 18  1  1  0  0  0
 10 26  1  0  0  0  0
 12 25  1  0  0  0  0
 12 24  1  0  0  0  0
 14  9  1  0  0  0  0
 15 11  1  0  0  0  0
 15 19  1  0  0  0  0
 16 20  2  0  0  0  0
 16 28  1  0  0  0  0
 17  3  2  0  0  0  0
 17  5  1  0  0  0  0
 19 25  1  0  0  0  0
 21 22  1  0  0  0  0
 21  1  2  0  0  0  0
 22  4  2  0  0  0  0
 23 15  1  0  0  0  0
 24  5  1  0  0  0  0
 25 17  1  0  0  0  0
 26 24  1  0  0  0  0
 26 13  1  0  0  0  0
 28 10  1  0  0  0  0
 28 12  1  0  0  0  0
M  END
>  <MODEL>
8

>  <REMARK>
 VINA RESULT:      -7.2      1.473      1.689
  Name = 
  0 active torsions:
  status: ('A' for Active; 'I' for Inactive)
                            x       y       z     vdW  Elec       q    Type
                         _______ _______ _______ _____ _____    ______ ____

>  <TORSDO>
F 0

$$$$
=
 OpenBabel11112417393D

 28 32  0  0  1  0  0  0  0  0999 V2000
  192.9310  173.6520  144.0680 C   0  0  0  0  0  0  0  0  0  0  0  0
  188.8420  174.9400  146.7090 F   0  0  0  0  0  0  0  0  0  0  0  0
  190.0300  173.5650  140.5230 O   0  0  0  0  0  0  0  0  0  0  0  0
  193.8940  176.0020  142.8910 C   0  0  0  0  0  3  0  0  0  0  0  0
  189.0430  175.2740  141.9060 C   0  0  2  0  0  3  0  0  0  0  0  0
  192.4120  172.4770  144.6120 O   0  0  0  0  0  0  0  0  0  0  0  0
  190.5100  176.2870  147.6900 C   0  0  0  0  0  1  0  0  0  0  0  0
  189.5260  176.1360  146.5460 C   0  0  1  0  0  0  0  0  0  0  0  0
  187.6790  177.2560  145.3500 C   0  0  1  0  0  3  0  0  0  0  0  0
  190.3000  176.1700  145.2080 C   0  0  2  0  0  3  0  0  0  0  0  0
  192.2540  171.7900  141.4590 C   0  0  0  0  0  1  0  0  0  0  0  0
  189.6910  174.1330  143.9920 C   0  0  1  0  0  3  0  0  0  0  0  0
  188.4790  177.5840  144.2410 O   0  0  0  0  0  0  0  0  0  0  0  0
  188.5240  177.2770  146.6150 C   0  0  0  0  0  2  0  0  0  0  0  0
  191.5410  171.2510  142.6880 C   0  0  2  0  0  3  0  0  0  0  0  0
  192.1750  174.8300  144.1530 C   0  0  0  0  0  0  0  0  0  0  0  0
  189.7850  174.0160  141.6720 C   0  0  0  0  0  0  0  0  0  0  0  0
  186.5600  178.2660  145.4770 C   0  0  0  0  0  1  0  0  0  0  0  0
  190.1560  171.8760  142.9240 C   0  0  0  0  0  2  0  0  0  0  0  0
  192.6600  176.0020  143.5460 C   0  0  0  0  0  3  0  0  0  0  0  0
  194.1690  173.6560  143.4080 C   0  0  0  0  0  3  0  0  0  0  0  0
  194.6500  174.8300  142.8260 C   0  0  0  0  0  3  0  0  0  0  0  0
  192.4500  171.2360  143.9190 C   0  0  0  0  0  2  0  0  0  0  0  0
  188.8430  175.2820  143.4190 C   0  0  1  0  0  3  0  0  0  0  0  0
  190.1580  173.3390  142.8610 N   0  0  0  0  0  0  0  0  0  0  0  0
  189.4250  176.5560  144.0080 C   0  0  2  0  0  3  0  0  0  0  0  0
  187.8000  175.2140  141.2760 O   0  0  0  0  0  1  0  0  0  0  0  0
  190.8190  174.7830  144.8310 C   0  0  1  0  0  3  0  0  0  0  0  0
  1 16  1  0  0  0  0
  1  6  1  0  0  0  0
  3 17  2  0  0  0  0
  4 20  1  0  0  0  0
  5 27  1  6  0  0  0
  5 24  1  0  0  0  0
  8 14  1  0  0  0  0
  8  2  1  0  0  0  0
  8  7  1  1  0  0  0
  9 18  1  1  0  0  0
  9 14  1  0  0  0  0
 10  8  1  0  0  0  0
 11 15  1  0  0  0  0
 12 28  1  0  0  0  0
 13  9  1  0  0  0  0
 15 19  1  0  0  0  0
 15 23  1  0  0  0  0
 16 28  1  0  0  0  0
 17  5  1  0  0  0  0
 17 25  1  0  0  0  0
 20 16  2  0  0  0  0
 21  1  2  0  0  0  0
 22  4  2  0  0  0  0
 22 21  1  0  0  0  0
 23  6  1  0  0  0  0
 24 12  1  0  0  0  0
 24 26  1  0  0  0  0
 25 19  1  0  0  0  0
 25 12  1  0  0  0  0
 26 13  1  0  0  0  0
 26 10  1  0  0  0  0
 28 10  1  0  0  0  0
M  END
>  <MODEL>
9

>  <REMARK>
 VINA RESULT:      -7.2      2.248      4.431
  Name = 
  0 active torsions:
  status: ('A' for Active; 'I' for Inactive)
                            x       y       z     vdW  Elec       q    Type
                         _______ _______ _______ _____ _____    ______ ____

>  <TORSDO>
F 0

$$$$
