=
 OpenBabel11112417053D

 31 35  0  0  1  0  0  0  0  0999 V2000
  193.7950  174.9160  145.2730 C   0  0  0  0  0  0  0  0  0  0  0  0
  190.9300  176.2690  143.1580 C   0  0  2  0  0  3  0  0  0  0  0  0
  190.0190  175.1120  142.8040 C   0  0  0  0  0  0  0  0  0  0  0  0
  189.5190  172.7250  142.5980 C   0  0  0  0  0  0  0  0  0  0  0  0
  191.8400  176.0110  144.3400 C   0  0  0  0  0  0  0  0  0  0  0  0
  193.5600  175.5350  146.5030 C   0  0  0  0  0  3  0  0  0  0  0  0
  190.4070  173.8390  142.9730 C   0  0  0  0  0  3  0  0  0  0  0  0
  189.5360  177.7200  144.7600 C   0  0  1  0  0  3  0  0  0  0  0  0
  194.9550  174.0010  145.1110 C   0  0  0  0  0  1  0  0  0  0  0  0
  188.2980  176.6110  141.9660 N   0  0  0  0  0  0  0  0  0  0  0  0
  189.8910  171.5360  142.7720 O   0  0  0  0  0  0  0  0  0  0  0  0
  190.5580  177.5500  145.7410 O   0  0  0  0  0  0  0  0  0  0  0  0
  190.1310  177.5740  143.3470 C   0  0  2  0  0  3  0  0  0  0  0  0
  192.9410  175.1580  144.1940 C   0  0  0  0  0  3  0  0  0  0  0  0
  188.1940  173.0090  142.0230 C   0  0  0  0  0  3  0  0  0  0  0  0
  191.6140  176.6450  145.5800 C   0  0  0  0  0  0  0  0  0  0  0  0
  192.4740  176.4010  146.6550 C   0  0  0  0  0  3  0  0  0  0  0  0
  189.1230  177.7960  142.2160 C   0  0  0  0  0  2  0  0  0  0  0  0
  188.6990  175.3920  142.1730 C   0  0  0  0  0  0  0  0  0  0  0  0
  187.8080  174.2710  141.8230 C   0  0  0  0  0  3  0  0  0  0  0  0
  188.3870  176.7530  145.0310 C   0  0  0  0  0  2  0  0  0  0  0  0
  188.4690  175.3240  147.0850 C   0  0  0  0  0  1  0  0  0  0  0  0
  188.0720  176.6770  146.5210 C   0  0  2  0  0  3  0  0  0  0  0  0
  185.1100  178.6450  145.1300 C   0  0  0  0  0  0  0  0  0  0  0  0
  185.6800  176.4310  145.8990 O   0  0  0  0  0  0  0  0  0  0  0  0
  186.7580  178.9820  148.2650 C   0  0  0  0  0  2  0  0  0  0  0  0
  184.3230  179.4010  144.2180 N   0  0  0  0  0  1  0  0  0  0  0  0
  185.5710  177.2630  144.7580 C   0  0  0  0  0  2  0  0  0  0  0  0
  186.3210  178.4290  147.1430 C   0  0  0  0  0  0  0  0  0  0  0  0
  186.6000  176.9790  146.8360 C   0  0  2  0  0  3  0  0  0  0  0  0
  185.5160  179.1840  146.2370 N   0  0  0  0  0  0  0  0  0  0  0  0
  1  6  1  0  0  0  0
  2  3  1  1  0  0  0
  2 13  1  0  0  0  0
  2  5  1  0  0  0  0
  3  7  2  0  0  0  0
  4 11  2  0  0  0  0
  4  7  1  0  0  0  0
  5 16  2  0  0  0  0
  6 17  2  0  0  0  0
  8 21  1  1  0  0  0
  8 12  1  0  0  0  0
  9  1  1  0  0  0  0
 10 19  2  0  0  0  0
 10 18  1  0  0  0  0
 13 18  1  6  0  0  0
 13  8  1  0  0  0  0
 14  5  1  0  0  0  0
 14  1  2  0  0  0  0
 15  4  1  0  0  0  0
 16 12  1  0  0  0  0
 16 17  1  0  0  0  0
 19  3  1  0  0  0  0
 20 15  2  0  0  0  0
 20 19  1  0  0  0  0
 21 23  1  0  0  0  0
 23 22  1  6  0  0  0
 24 31  2  0  0  0  0
 25 30  1  0  0  0  0
 27 24  1  0  0  0  0
 28 24  1  0  0  0  0
 28 25  1  0  0  0  0
 29 26  2  0  0  0  0
 30 23  1  6  0  0  0
 30 29  1  0  0  0  0
 31 29  1  0  0  0  0
M  END
>  <MODEL>
1

>  <REMARK>
 VINA RESULT:      -8.8      0.000      0.000
  Name = 
  3 active torsions:
  status: ('A' for Active; 'I' for Inactive)
    1  A    between atoms: C_5  and  C_16
    2  A    between atoms: C_5  and  C_30
    3  A    between atoms: C_10  and  C_16
                            x       y       z     vdW  Elec       q    Type
                         _______ _______ _______ _____ _____    ______ ____

>  <TORSDO>
F 3

$$$$
=
 OpenBabel11112417053D

 31 35  0  0  1  0  0  0  0  0999 V2000
  186.4440  177.3810  146.5930 C   0  0  0  0  0  0  0  0  0  0  0  0
  189.7860  177.7770  144.8090 C   0  0  2  0  0  3  0  0  0  0  0  0
  190.8020  176.9000  145.5110 C   0  0  0  0  0  0  0  0  0  0  0  0
  191.5640  175.5460  147.4010 C   0  0  0  0  0  0  0  0  0  0  0  0
  188.3430  177.4080  145.0820 C   0  0  0  0  0  0  0  0  0  0  0  0
  185.6670  176.7630  145.6110 C   0  0  0  0  0  3  0  0  0  0  0  0
  190.5550  176.3750  146.7200 C   0  0  0  0  0  3  0  0  0  0  0  0
  189.4590  176.6710  142.5100 C   0  0  1  0  0  3  0  0  0  0  0  0
  185.8530  177.6920  147.9210 C   0  0  0  0  0  1  0  0  0  0  0  0
  192.4260  177.2040  143.7280 N   0  0  0  0  0  0  0  0  0  0  0  0
  191.3150  175.0500  148.5300 O   0  0  0  0  0  0  0  0  0  0  0  0
  188.0710  176.5400  142.8140 O   0  0  0  0  0  0  0  0  0  0  0  0
  190.0610  177.8510  143.2940 C   0  0  2  0  0  3  0  0  0  0  0  0
  187.7760  177.7070  146.3270 C   0  0  0  0  0  3  0  0  0  0  0  0
  192.8630  175.2980  146.7540 C   0  0  0  0  0  3  0  0  0  0  0  0
  187.5510  176.7960  144.0890 C   0  0  0  0  0  0  0  0  0  0  0  0
  186.2170  176.4750  144.3590 C   0  0  0  0  0  3  0  0  0  0  0  0
  191.5410  178.1130  142.9940 C   0  0  0  0  0  2  0  0  0  0  0  0
  192.1370  176.6890  144.8860 C   0  0  0  0  0  0  0  0  0  0  0  0
  193.1320  175.8390  145.5640 C   0  0  0  0  0  3  0  0  0  0  0  0
  190.1760  175.3480  142.7690 C   0  0  0  0  0  2  0  0  0  0  0  0
  189.4060  173.6460  144.4350 C   0  0  0  0  0  1  0  0  0  0  0  0
  189.1800  174.2290  143.0510 C   0  0  2  0  0  3  0  0  0  0  0  0
  191.5580  172.6600  140.5080 C   0  0  0  0  0  0  0  0  0  0  0  0
  190.0770  172.0360  142.3070 O   0  0  0  0  0  0  0  0  0  0  0  0
  188.4450  174.2960  139.9630 C   0  0  0  0  0  2  0  0  0  0  0  0
  192.7690  172.3530  139.8290 N   0  0  0  0  0  1  0  0  0  0  0  0
  191.4180  172.3490  141.9730 C   0  0  0  0  0  2  0  0  0  0  0  0
  189.4040  173.6220  140.5810 C   0  0  0  0  0  0  0  0  0  0  0  0
  189.2120  173.1200  141.9900 C   0  0  2  0  0  3  0  0  0  0  0  0
  190.6130  173.2990  139.8920 N   0  0  0  0  0  0  0  0  0  0  0  0
  1  9  1  0  0  0  0
  2  5  1  6  0  0  0
  2  3  1  0  0  0  0
  3  7  2  0  0  0  0
  4 11  2  0  0  0  0
  5 14  2  0  0  0  0
  6  1  2  0  0  0  0
  7  4  1  0  0  0  0
  8 21  1  1  0  0  0
  8 12  1  0  0  0  0
  8 13  1  0  0  0  0
 10 19  2  0  0  0  0
 12 16  1  0  0  0  0
 13 18  1  1  0  0  0
 13  2  1  0  0  0  0
 14  1  1  0  0  0  0
 15  4  1  0  0  0  0
 16 17  2  0  0  0  0
 16  5  1  0  0  0  0
 17  6  1  0  0  0  0
 18 10  1  0  0  0  0
 19  3  1  0  0  0  0
 19 20  1  0  0  0  0
 20 15  2  0  0  0  0
 21 23  1  0  0  0  0
 23 22  1  1  0  0  0
 24 28  1  0  0  0  0
 26 29  2  0  0  0  0
 27 24  1  0  0  0  0
 28 25  1  0  0  0  0
 29 30  1  0  0  0  0
 30 25  1  0  0  0  0
 30 23  1  1  0  0  0
 31 24  2  0  0  0  0
 31 29  1  0  0  0  0
M  END
>  <MODEL>
2

>  <REMARK>
 VINA RESULT:      -8.3      2.679      6.584
  Name = 
  3 active torsions:
  status: ('A' for Active; 'I' for Inactive)
    1  A    between atoms: C_5  and  C_16
    2  A    between atoms: C_5  and  C_30
    3  A    between atoms: C_10  and  C_16
                            x       y       z     vdW  Elec       q    Type
                         _______ _______ _______ _____ _____    ______ ____

>  <TORSDO>
F 3

$$$$
=
 OpenBabel11112417053D

 31 35  0  0  1  0  0  0  0  0999 V2000
  186.3590  177.6340  146.5980 C   0  0  0  0  0  0  0  0  0  0  0  0
  189.6660  177.7140  144.7100 C   0  0  2  0  0  3  0  0  0  0  0  0
  190.6550  176.8400  145.4550 C   0  0  0  0  0  0  0  0  0  0  0  0
  191.3990  175.5960  147.4260 C   0  0  0  0  0  0  0  0  0  0  0  0
  188.2150  177.4450  145.0460 C   0  0  0  0  0  0  0  0  0  0  0  0
  185.5240  176.9850  145.6850 C   0  0  0  0  0  3  0  0  0  0  0  0
  190.4150  176.4220  146.7060 C   0  0  0  0  0  3  0  0  0  0  0  0
  189.2190  176.4540  142.5130 C   0  0  1  0  0  3  0  0  0  0  0  0
  185.8220  178.0770  147.9110 C   0  0  0  0  0  1  0  0  0  0  0  0
  192.2430  176.9200  143.6150 N   0  0  0  0  0  0  0  0  0  0  0  0
  191.1560  175.2010  148.5960 O   0  0  0  0  0  0  0  0  0  0  0  0
  187.8360  176.4210  142.8580 O   0  0  0  0  0  0  0  0  0  0  0  0
  189.9030  177.6580  143.1890 C   0  0  2  0  0  3  0  0  0  0  0  0
  187.6980  177.8680  146.2770 C   0  0  0  0  0  3  0  0  0  0  0  0
  192.6640  175.2300  146.7690 C   0  0  0  0  0  3  0  0  0  0  0  0
  187.3650  176.8020  144.1210 C   0  0  0  0  0  0  0  0  0  0  0  0
  186.0250  176.5740  144.4480 C   0  0  0  0  0  3  0  0  0  0  0  0
  191.3850  177.8160  142.8350 C   0  0  0  0  0  2  0  0  0  0  0  0
  191.9600  176.5110  144.8160 C   0  0  0  0  0  0  0  0  0  0  0  0
  192.9280  175.6630  145.5350 C   0  0  0  0  0  3  0  0  0  0  0  0
  189.8740  175.1190  142.8570 C   0  0  0  0  0  2  0  0  0  0  0  0
  188.3020  173.3670  142.0070 C   0  0  0  0  0  1  0  0  0  0  0  0
  189.6190  174.0850  141.7670 C   0  0  2  0  0  3  0  0  0  0  0  0
  192.4000  172.4810  143.8350 C   0  0  0  0  0  0  0  0  0  0  0  0
  190.5790  171.8750  142.3730 O   0  0  0  0  0  0  0  0  0  0  0  0
  192.6490  174.4900  140.9100 C   0  0  0  0  0  2  0  0  0  0  0  0
  193.1640  172.1000  144.9720 N   0  0  0  0  0  1  0  0  0  0  0  0
  190.9580  172.0650  143.7250 C   0  0  0  0  0  2  0  0  0  0  0  0
  192.1370  173.6650  141.8110 C   0  0  0  0  0  0  0  0  0  0  0  0
  190.7640  173.0710  141.6250 C   0  0  2  0  0  3  0  0  0  0  0  0
  192.9130  173.2700  142.9440 N   0  0  0  0  0  0  0  0  0  0  0  0
  1  9  1  0  0  0  0
  2  5  1  6  0  0  0
  2  3  1  0  0  0  0
  3  7  2  0  0  0  0
  4 11  2  0  0  0  0
  5 14  2  0  0  0  0
  6  1  2  0  0  0  0
  7  4  1  0  0  0  0
  8 21  1  1  0  0  0
  8 12  1  0  0  0  0
  8 13  1  0  0  0  0
 10 19  2  0  0  0  0
 12 16  1  0  0  0  0
 13 18  1  1  0  0  0
 13  2  1  0  0  0  0
 14  1  1  0  0  0  0
 15  4  1  0  0  0  0
 16 17  2  0  0  0  0
 16  5  1  0  0  0  0
 17  6  1  0  0  0  0
 18 10  1  0  0  0  0
 19  3  1  0  0  0  0
 19 20  1  0  0  0  0
 20 15  2  0  0  0  0
 23 22  1  1  0  0  0
 23 21  1  0  0  0  0
 24 27  1  0  0  0  0
 25 28  1  0  0  0  0
 26 29  2  0  0  0  0
 28 24  1  0  0  0  0
 29 31  1  0  0  0  0
 30 23  1  1  0  0  0
 30 29  1  0  0  0  0
 30 25  1  0  0  0  0
 31 24  2  0  0  0  0
M  END
>  <MODEL>
3

>  <REMARK>
 VINA RESULT:      -8.2      2.623      6.727
  Name = 
  3 active torsions:
  status: ('A' for Active; 'I' for Inactive)
    1  A    between atoms: C_5  and  C_16
    2  A    between atoms: C_5  and  C_30
    3  A    between atoms: C_10  and  C_16
                            x       y       z     vdW  Elec       q    Type
                         _______ _______ _______ _____ _____    ______ ____

>  <TORSDO>
F 3

$$$$
=
 OpenBabel11112417053D

 31 35  0  0  1  0  0  0  0  0999 V2000
  186.3590  177.7130  146.6980 C   0  0  0  0  0  0  0  0  0  0  0  0
  189.6000  177.6850  144.6980 C   0  0  2  0  0  3  0  0  0  0  0  0
  190.6030  176.8250  145.4390 C   0  0  0  0  0  0  0  0  0  0  0  0
  191.3990  175.6390  147.4260 C   0  0  0  0  0  0  0  0  0  0  0  0
  188.1580  177.4460  145.0920 C   0  0  0  0  0  0  0  0  0  0  0  0
  185.4860  177.0450  145.8370 C   0  0  0  0  0  3  0  0  0  0  0  0
  190.4010  176.4530  146.7110 C   0  0  0  0  0  3  0  0  0  0  0  0
  189.0630  176.3560  142.5620 C   0  0  1  0  0  3  0  0  0  0  0  0
  185.8730  178.2090  148.0120 C   0  0  0  0  0  1  0  0  0  0  0  0
  192.1280  176.8200  143.5450 N   0  0  0  0  0  0  0  0  0  0  0  0
  191.1920  175.2880  148.6160 O   0  0  0  0  0  0  0  0  0  0  0  0
  187.6920  176.3540  142.9550 O   0  0  0  0  0  0  0  0  0  0  0  0
  189.7850  177.5730  143.1720 C   0  0  2  0  0  3  0  0  0  0  0  0
  187.6890  177.9180  146.3240 C   0  0  0  0  0  3  0  0  0  0  0  0
  192.6370  175.2340  146.7400 C   0  0  0  0  0  3  0  0  0  0  0  0
  187.2690  176.7830  144.2190 C   0  0  0  0  0  0  0  0  0  0  0  0
  185.9380  176.5840  144.5990 C   0  0  0  0  0  3  0  0  0  0  0  0
  191.2550  177.7000  142.7630 C   0  0  0  0  0  2  0  0  0  0  0  0
  191.8810  176.4560  144.7680 C   0  0  0  0  0  0  0  0  0  0  0  0
  192.8630  175.6210  145.4830 C   0  0  0  0  0  3  0  0  0  0  0  0
  189.7140  175.0250  142.9300 C   0  0  0  0  0  2  0  0  0  0  0  0
  189.2760  172.5680  142.7400 C   0  0  0  0  0  1  0  0  0  0  0  0
  189.2240  173.9050  142.0200 C   0  0  2  0  0  3  0  0  0  0  0  0
  189.8450  171.5170  139.1060 C   0  0  0  0  0  0  0  0  0  0  0  0
  189.1680  173.7910  139.5400 O   0  0  0  0  0  0  0  0  0  0  0  0
  192.1780  172.9200  141.3970 C   0  0  0  0  0  2  0  0  0  0  0  0
  189.6910  170.3930  138.2480 N   0  0  0  0  0  1  0  0  0  0  0  0
  188.7020  172.4740  139.3020 C   0  0  0  0  0  2  0  0  0  0  0  0
  191.0780  172.7800  140.6710 C   0  0  0  0  0  0  0  0  0  0  0  0
  189.9970  173.8310  140.6950 C   0  0  2  0  0  3  0  0  0  0  0  0
  190.9330  171.6600  139.7960 N   0  0  0  0  0  0  0  0  0  0  0  0
  1  9  1  0  0  0  0
  2  5  1  6  0  0  0
  2  3  1  0  0  0  0
  3  7  2  0  0  0  0
  4 11  2  0  0  0  0
  5 14  2  0  0  0  0
  6  1  2  0  0  0  0
  7  4  1  0  0  0  0
  8 21  1  1  0  0  0
  8 12  1  0  0  0  0
  8 13  1  0  0  0  0
 10 19  2  0  0  0  0
 12 16  1  0  0  0  0
 13 18  1  1  0  0  0
 13  2  1  0  0  0  0
 14  1  1  0  0  0  0
 15  4  1  0  0  0  0
 16 17  2  0  0  0  0
 16  5  1  0  0  0  0
 17  6  1  0  0  0  0
 18 10  1  0  0  0  0
 19  3  1  0  0  0  0
 19 20  1  0  0  0  0
 20 15  2  0  0  0  0
 23 22  1  1  0  0  0
 23 21  1  0  0  0  0
 24 28  1  0  0  0  0
 24 31  2  0  0  0  0
 25 30  1  0  0  0  0
 27 24  1  0  0  0  0
 28 25  1  0  0  0  0
 29 30  1  0  0  0  0
 29 26  2  0  0  0  0
 30 23  1  1  0  0  0
 31 29  1  0  0  0  0
M  END
>  <MODEL>
4

>  <REMARK>
 VINA RESULT:      -8.1      2.686      6.907
  Name = 
  3 active torsions:
  status: ('A' for Active; 'I' for Inactive)
    1  A    between atoms: C_5  and  C_16
    2  A    between atoms: C_5  and  C_30
    3  A    between atoms: C_10  and  C_16
                            x       y       z     vdW  Elec       q    Type
                         _______ _______ _______ _____ _____    ______ ____

>  <TORSDO>
F 3

$$$$
=
 OpenBabel11112417053D

 31 35  0  0  1  0  0  0  0  0999 V2000
  185.2660  178.0060  144.8710 C   0  0  0  0  0  0  0  0  0  0  0  0
  189.0420  177.7710  144.4320 C   0  0  2  0  0  3  0  0  0  0  0  0
  189.5490  176.6480  145.3140 C   0  0  0  0  0  0  0  0  0  0  0  0
  189.3010  175.0400  147.1410 C   0  0  0  0  0  0  0  0  0  0  0  0
  187.5600  177.7120  144.1340 C   0  0  0  0  0  0  0  0  0  0  0  0
  184.8070  177.6400  143.6040 C   0  0  0  0  0  3  0  0  0  0  0  0
  188.7840  176.1130  146.2750 C   0  0  0  0  0  3  0  0  0  0  0  0
  189.3900  176.9150  142.0320 C   0  0  1  0  0  3  0  0  0  0  0  0
  184.2950  178.3540  145.9410 C   0  0  0  0  0  1  0  0  0  0  0  0
  191.7430  176.7010  144.2660 N   0  0  0  0  0  0  0  0  0  0  0  0
  188.5680  174.5390  148.0320 O   0  0  0  0  0  0  0  0  0  0  0  0
  187.9900  177.0740  141.8140 O   0  0  0  0  0  0  0  0  0  0  0  0
  189.8660  177.8800  143.1340 C   0  0  2  0  0  3  0  0  0  0  0  0
  186.6380  178.0480  145.1330 C   0  0  0  0  0  3  0  0  0  0  0  0
  190.6790  174.5540  146.9570 C   0  0  0  0  0  3  0  0  0  0  0  0
  187.0920  177.3550  142.8510 C   0  0  0  0  0  0  0  0  0  0  0  0
  185.7180  177.3190  142.5940 C   0  0  0  0  0  3  0  0  0  0  0  0
  191.3720  177.8280  143.4060 C   0  0  0  0  0  2  0  0  0  0  0  0
  190.9590  176.1880  145.1670 C   0  0  0  0  0  0  0  0  0  0  0  0
  191.4610  175.0980  146.0220 C   0  0  0  0  0  3  0  0  0  0  0  0
  189.7080  175.4530  142.3360 C   0  0  0  0  0  2  0  0  0  0  0  0
  188.1920  173.5780  141.6630 C   0  0  0  0  0  1  0  0  0  0  0  0
  189.2640  174.5460  141.1940 C   0  0  2  0  0  3  0  0  0  0  0  0
  189.9400  171.4270  139.0960 C   0  0  0  0  0  0  0  0  0  0  0  0
  190.4180  173.7910  139.1280 O   0  0  0  0  0  0  0  0  0  0  0  0
  191.1240  172.2460  142.3500 C   0  0  0  0  0  2  0  0  0  0  0  0
  189.6890  170.2940  138.2740 N   0  0  0  0  0  1  0  0  0  0  0  0
  189.5390  172.7990  138.6290 C   0  0  0  0  0  2  0  0  0  0  0  0
  190.6550  172.4050  141.1210 C   0  0  0  0  0  0  0  0  0  0  0  0
  190.4320  173.7830  140.5500 C   0  0  2  0  0  3  0  0  0  0  0  0
  190.4200  171.2670  140.2900 N   0  0  0  0  0  0  0  0  0  0  0  0
  1 14  1  0  0  0  0
  1  9  1  0  0  0  0
  2  5  1  6  0  0  0
  2  3  1  0  0  0  0
  3  7  2  0  0  0  0
  4 11  2  0  0  0  0
  5 14  2  0  0  0  0
  6  1  2  0  0  0  0
  7  4  1  0  0  0  0
  8 21  1  1  0  0  0
  8 13  1  0  0  0  0
 10 19  2  0  0  0  0
 12  8  1  0  0  0  0
 12 16  1  0  0  0  0
 13 18  1  1  0  0  0
 13  2  1  0  0  0  0
 15  4  1  0  0  0  0
 16  5  1  0  0  0  0
 17 16  2  0  0  0  0
 17  6  1  0  0  0  0
 18 10  1  0  0  0  0
 19  3  1  0  0  0  0
 19 20  1  0  0  0  0
 20 15  2  0  0  0  0
 23 22  1  1  0  0  0
 23 21  1  0  0  0  0
 24 31  2  0  0  0  0
 25 30  1  0  0  0  0
 27 24  1  0  0  0  0
 28 24  1  0  0  0  0
 28 25  1  0  0  0  0
 29 26  2  0  0  0  0
 30 29  1  0  0  0  0
 30 23  1  1  0  0  0
 31 29  1  0  0  0  0
M  END
>  <MODEL>
5

>  <REMARK>
 VINA RESULT:      -8.0      2.863      7.098
  Name = 
  3 active torsions:
  status: ('A' for Active; 'I' for Inactive)
    1  A    between atoms: C_5  and  C_16
    2  A    between atoms: C_5  and  C_30
    3  A    between atoms: C_10  and  C_16
                            x       y       z     vdW  Elec       q    Type
                         _______ _______ _______ _____ _____    ______ ____

>  <TORSDO>
F 3

$$$$
=
 OpenBabel11112417053D

 31 35  0  0  1  0  0  0  0  0999 V2000
  184.9730  178.3450  144.8500 C   0  0  0  0  0  0  0  0  0  0  0  0
  188.7090  177.8950  144.2610 C   0  0  2  0  0  3  0  0  0  0  0  0
  189.1970  176.7790  145.1620 C   0  0  0  0  0  0  0  0  0  0  0  0
  188.9470  175.2500  147.0560 C   0  0  0  0  0  0  0  0  0  0  0  0
  187.2140  177.9050  144.0280 C   0  0  0  0  0  0  0  0  0  0  0  0
  184.4410  177.9590  143.6180 C   0  0  0  0  0  3  0  0  0  0  0  0
  188.4470  176.3180  146.1740 C   0  0  0  0  0  3  0  0  0  0  0  0
  188.9070  176.9390  141.8820 C   0  0  1  0  0  3  0  0  0  0  0  0
  184.0690  178.7810  145.9460 C   0  0  0  0  0  1  0  0  0  0  0  0
  191.3420  176.6790  144.0210 N   0  0  0  0  0  0  0  0  0  0  0  0
  188.2290  174.8200  147.9950 O   0  0  0  0  0  0  0  0  0  0  0  0
  187.5080  177.1640  141.7170 O   0  0  0  0  0  0  0  0  0  0  0  0
  189.4790  177.9160  142.9260 C   0  0  2  0  0  3  0  0  0  0  0  0
  186.3550  178.3230  145.0520 C   0  0  0  0  0  3  0  0  0  0  0  0
  190.2880  174.6860  146.8320 C   0  0  0  0  0  3  0  0  0  0  0  0
  186.6730  177.5290  142.7810 C   0  0  0  0  0  0  0  0  0  0  0  0
  185.2890  177.5560  142.5830 C   0  0  0  0  0  3  0  0  0  0  0  0
  190.9920  177.7940  143.1370 C   0  0  0  0  0  2  0  0  0  0  0  0
  190.5730  176.2400  144.9730 C   0  0  0  0  0  0  0  0  0  0  0  0
  191.0560  175.1550  145.8460 C   0  0  0  0  0  3  0  0  0  0  0  0
  189.1620  175.4740  142.2260 C   0  0  0  0  0  2  0  0  0  0  0  0
  188.3860  174.5410  140.0370 C   0  0  0  0  0  1  0  0  0  0  0  0
  189.5620  174.6800  140.9870 C   0  0  2  0  0  3  0  0  0  0  0  0
  189.6950  172.1660  143.8590 C   0  0  0  0  0  0  0  0  0  0  0  0
  189.1660  172.2840  141.5080 O   0  0  0  0  0  0  0  0  0  0  0  0
  192.3660  173.8650  142.2350 C   0  0  0  0  0  2  0  0  0  0  0  0
  189.3850  171.5410  145.0980 N   0  0  0  0  0  1  0  0  0  0  0  0
  188.6250  172.3380  142.8160 C   0  0  0  0  0  2  0  0  0  0  0  0
  191.1740  173.3200  142.4280 C   0  0  0  0  0  0  0  0  0  0  0  0
  190.1450  173.3000  141.3260 C   0  0  2  0  0  3  0  0  0  0  0  0
  190.8700  172.6770  143.6670 N   0  0  0  0  0  0  0  0  0  0  0  0
  1 14  1  0  0  0  0
  1  9  1  0  0  0  0
  2  5  1  6  0  0  0
  2  3  1  0  0  0  0
  3  7  2  0  0  0  0
  4 11  2  0  0  0  0
  5 14  2  0  0  0  0
  6  1  2  0  0  0  0
  7  4  1  0  0  0  0
  8 21  1  1  0  0  0
  8 13  1  0  0  0  0
 10 19  2  0  0  0  0
 12  8  1  0  0  0  0
 12 16  1  0  0  0  0
 13 18  1  1  0  0  0
 13  2  1  0  0  0  0
 15  4  1  0  0  0  0
 16  5  1  0  0  0  0
 17 16  2  0  0  0  0
 17  6  1  0  0  0  0
 18 10  1  0  0  0  0
 19  3  1  0  0  0  0
 19 20  1  0  0  0  0
 20 15  2  0  0  0  0
 23 22  1  6  0  0  0
 23 21  1  0  0  0  0
 24 27  1  0  0  0  0
 25 28  1  0  0  0  0
 26 29  2  0  0  0  0
 28 24  1  0  0  0  0
 29 31  1  0  0  0  0
 30 23  1  1  0  0  0
 30 25  1  0  0  0  0
 30 29  1  0  0  0  0
 31 24  2  0  0  0  0
M  END
>  <MODEL>
6

>  <REMARK>
 VINA RESULT:      -8.0      2.715      6.662
  Name = 
  3 active torsions:
  status: ('A' for Active; 'I' for Inactive)
    1  A    between atoms: C_5  and  C_16
    2  A    between atoms: C_5  and  C_30
    3  A    between atoms: C_10  and  C_16
                            x       y       z     vdW  Elec       q    Type
                         _______ _______ _______ _____ _____    ______ ____

>  <TORSDO>
F 3

$$$$
=
 OpenBabel11112417053D

 31 35  0  0  1  0  0  0  0  0999 V2000
  185.4220  178.8290  143.6090 C   0  0  0  0  0  0  0  0  0  0  0  0
  188.9800  177.4850  143.8060 C   0  0  2  0  0  3  0  0  0  0  0  0
  189.0710  176.5680  145.0080 C   0  0  0  0  0  0  0  0  0  0  0  0
  188.2350  175.6740  147.1270 C   0  0  0  0  0  0  0  0  0  0  0  0
  187.5700  177.7390  143.3170 C   0  0  0  0  0  0  0  0  0  0  0  0
  184.9630  178.2510  142.4230 C   0  0  0  0  0  3  0  0  0  0  0  0
  188.1180  176.5520  145.9500 C   0  0  0  0  0  3  0  0  0  0  0  0
  189.2230  175.9190  141.7800 C   0  0  1  0  0  3  0  0  0  0  0  0
  184.5260  179.7120  144.4010 C   0  0  0  0  0  1  0  0  0  0  0  0
  191.2490  175.7360  144.3160 N   0  0  0  0  0  0  0  0  0  0  0  0
  187.3270  175.6610  147.9970 O   0  0  0  0  0  0  0  0  0  0  0  0
  187.9500  176.3750  141.3240 O   0  0  0  0  0  0  0  0  0  0  0  0
  189.8860  176.9970  142.6580 C   0  0  2  0  0  3  0  0  0  0  0  0
  186.7230  178.5780  144.0510 C   0  0  0  0  0  3  0  0  0  0  0  0
  189.4160  174.8090  147.2770 C   0  0  0  0  0  3  0  0  0  0  0  0
  187.1070  177.1680  142.1130 C   0  0  0  0  0  0  0  0  0  0  0  0
  185.8050  177.4260  141.6740 C   0  0  0  0  0  3  0  0  0  0  0  0
  191.2870  176.6280  143.1540 C   0  0  0  0  0  2  0  0  0  0  0  0
  190.2890  175.7290  145.1930 C   0  0  0  0  0  0  0  0  0  0  0  0
  190.3860  174.8360  146.3610 C   0  0  0  0  0  3  0  0  0  0  0  0
  189.0730  174.5760  142.4880 C   0  0  0  0  0  2  0  0  0  0  0  0
  187.5150  172.7700  141.7290 C   0  0  0  0  0  1  0  0  0  0  0  0
  188.8510  173.4480  141.4860 C   0  0  2  0  0  3  0  0  0  0  0  0
  191.8420  172.3730  143.6030 C   0  0  0  0  0  0  0  0  0  0  0  0
  189.8900  171.4480  142.5300 O   0  0  0  0  0  0  0  0  0  0  0  0
  191.7760  173.5780  140.2560 C   0  0  0  0  0  2  0  0  0  0  0  0
  192.7210  172.2790  144.7170 N   0  0  0  0  0  1  0  0  0  0  0  0
  190.4020  171.9650  143.7450 C   0  0  0  0  0  2  0  0  0  0  0  0
  191.3660  173.0150  141.3830 C   0  0  0  0  0  0  0  0  0  0  0  0
  189.9870  172.4140  141.4910 C   0  0  2  0  0  3  0  0  0  0  0  0
  192.2560  172.9050  142.4960 N   0  0  0  0  0  0  0  0  0  0  0  0
  1 14  1  0  0  0  0
  1  9  1  0  0  0  0
  2  5  1  6  0  0  0
  2  3  1  0  0  0  0
  3 19  1  0  0  0  0
  3  7  2  0  0  0  0
  4 15  1  0  0  0  0
  4 11  2  0  0  0  0
  5 14  2  0  0  0  0
  6  1  2  0  0  0  0
  7  4  1  0  0  0  0
  8 21  1  1  0  0  0
  8 13  1  0  0  0  0
 10 19  2  0  0  0  0
 12  8  1  0  0  0  0
 12 16  1  0  0  0  0
 13 18  1  1  0  0  0
 13  2  1  0  0  0  0
 16  5  1  0  0  0  0
 17 16  2  0  0  0  0
 17  6  1  0  0  0  0
 18 10  1  0  0  0  0
 19 20  1  0  0  0  0
 20 15  2  0  0  0  0
 23 22  1  1  0  0  0
 23 21  1  0  0  0  0
 24 28  1  0  0  0  0
 24 27  1  0  0  0  0
 25 28  1  0  0  0  0
 26 29  2  0  0  0  0
 29 30  1  0  0  0  0
 29 31  1  0  0  0  0
 30 23  1  1  0  0  0
 30 25  1  0  0  0  0
 31 24  2  0  0  0  0
M  END
>  <MODEL>
7

>  <REMARK>
 VINA RESULT:      -7.9      2.845      7.002
  Name = 
  3 active torsions:
  status: ('A' for Active; 'I' for Inactive)
    1  A    between atoms: C_5  and  C_16
    2  A    between atoms: C_5  and  C_30
    3  A    between atoms: C_10  and  C_16
                            x       y       z     vdW  Elec       q    Type
                         _______ _______ _______ _____ _____    ______ ____

>  <TORSDO>
F 3

$$$$
=
 OpenBabel11112417053D

 31 35  0  0  1  0  0  0  0  0999 V2000
  185.5020  178.0960  140.7790 C   0  0  0  0  0  0  0  0  0  0  0  0
  188.1770  178.1410  143.4900 C   0  0  2  0  0  3  0  0  0  0  0  0
  187.5440  177.6720  144.7840 C   0  0  0  0  0  0  0  0  0  0  0  0
  185.6130  177.1590  146.1960 C   0  0  0  0  0  0  0  0  0  0  0  0
  187.4080  177.7610  142.2430 C   0  0  0  0  0  0  0  0  0  0  0  0
  185.9760  177.0980  139.9250 C   0  0  0  0  0  3  0  0  0  0  0  0
  186.2130  177.5920  144.9230 C   0  0  0  0  0  3  0  0  0  0  0  0
  189.8140  176.2620  142.8540 C   0  0  1  0  0  3  0  0  0  0  0  0
  184.2340  178.8040  140.4620 C   0  0  0  0  0  1  0  0  0  0  0  0
  189.7100  177.4700  145.8700 N   0  0  0  0  0  0  0  0  0  0  0  0
  184.3630  177.0780  146.3090 O   0  0  0  0  0  0  0  0  0  0  0  0
  189.1090  176.1190  141.6210 O   0  0  0  0  0  0  0  0  0  0  0  0
  189.6490  177.6960  143.3920 C   0  0  2  0  0  3  0  0  0  0  0  0
  186.2180  178.4300  141.9310 C   0  0  0  0  0  3  0  0  0  0  0  0
  186.4830  176.8200  147.3350 C   0  0  0  0  0  3  0  0  0  0  0  0
  187.8910  176.7630  141.3700 C   0  0  0  0  0  0  0  0  0  0  0  0
  187.1710  176.4360  140.2170 C   0  0  0  0  0  3  0  0  0  0  0  0
  190.4170  177.9710  144.6880 C   0  0  0  0  0  2  0  0  0  0  0  0
  188.4160  177.3780  145.9550 C   0  0  0  0  0  0  0  0  0  0  0  0
  187.8080  176.9230  147.2180 C   0  0  0  0  0  3  0  0  0  0  0  0
  189.3570  175.1930  143.8420 C   0  0  0  0  0  2  0  0  0  0  0  0
  189.9830  173.0710  145.0150 C   0  0  0  0  0  1  0  0  0  0  0  0
  190.3550  174.0420  143.9080 C   0  0  2  0  0  3  0  0  0  0  0  0
  193.8560  172.6510  144.5360 C   0  0  0  0  0  0  0  0  0  0  0  0
  192.6760  174.1180  143.0270 O   0  0  0  0  0  0  0  0  0  0  0  0
  191.9550  174.9260  146.5040 C   0  0  0  0  0  2  0  0  0  0  0  0
  194.9110  171.7070  144.6650 N   0  0  0  0  0  1  0  0  0  0  0  0
  193.1260  172.7890  143.2290 C   0  0  0  0  0  2  0  0  0  0  0  0
  192.3840  174.2560  145.4440 C   0  0  0  0  0  0  0  0  0  0  0  0
  191.8050  174.5200  144.0770 C   0  0  2  0  0  3  0  0  0  0  0  0
  193.4550  173.3200  145.5720 N   0  0  0  0  0  0  0  0  0  0  0  0
  1 14  1  0  0  0  0
  2  5  1  6  0  0  0
  2  3  1  0  0  0  0
  3  7  2  0  0  0  0
  3 19  1  0  0  0  0
  4 11  2  0  0  0  0
  4 15  1  0  0  0  0
  6 17  1  0  0  0  0
  6  1  2  0  0  0  0
  7  4  1  0  0  0  0
  8 13  1  0  0  0  0
  8 21  1  1  0  0  0
  9  1  1  0  0  0  0
 10 19  2  0  0  0  0
 12  8  1  0  0  0  0
 13  2  1  0  0  0  0
 13 18  1  1  0  0  0
 14  5  2  0  0  0  0
 16 12  1  0  0  0  0
 16  5  1  0  0  0  0
 17 16  2  0  0  0  0
 18 10  1  0  0  0  0
 19 20  1  0  0  0  0
 20 15  2  0  0  0  0
 21 23  1  0  0  0  0
 23 22  1  1  0  0  0
 24 27  1  0  0  0  0
 24 31  2  0  0  0  0
 25 28  1  0  0  0  0
 25 30  1  0  0  0  0
 28 24  1  0  0  0  0
 29 31  1  0  0  0  0
 29 26  2  0  0  0  0
 30 23  1  1  0  0  0
 30 29  1  0  0  0  0
M  END
>  <MODEL>
8

>  <REMARK>
 VINA RESULT:      -7.7      3.063      7.169
  Name = 
  3 active torsions:
  status: ('A' for Active; 'I' for Inactive)
    1  A    between atoms: C_5  and  C_16
    2  A    between atoms: C_5  and  C_30
    3  A    between atoms: C_10  and  C_16
                            x       y       z     vdW  Elec       q    Type
                         _______ _______ _______ _____ _____    ______ ____

>  <TORSDO>
F 3

$$$$
=
 OpenBabel11112417053D

 31 35  0  0  1  0  0  0  0  0999 V2000
  188.0680  177.1770  146.6890 C   0  0  0  0  0  0  0  0  0  0  0  0
  189.3190  174.0720  144.8730 C   0  0  2  0  0  3  0  0  0  0  0  0
  189.1400  174.2920  143.3850 C   0  0  0  0  0  0  0  0  0  0  0  0
  188.1920  175.4720  141.4630 C   0  0  0  0  0  0  0  0  0  0  0  0
  189.3060  175.3390  145.7010 C   0  0  0  0  0  0  0  0  0  0  0  0
  189.2460  177.6740  147.2510 C   0  0  0  0  0  3  0  0  0  0  0  0
  188.3770  175.2880  142.9120 C   0  0  0  0  0  3  0  0  0  0  0  0
  191.8670  174.0670  145.2230 C   0  0  1  0  0  3  0  0  0  0  0  0
  186.7820  177.8890  146.9090 C   0  0  0  0  0  1  0  0  0  0  0  0
  190.4790  172.3350  142.8470 N   0  0  0  0  0  0  0  0  0  0  0  0
  187.4820  176.4180  141.0330 O   0  0  0  0  0  0  0  0  0  0  0  0
  191.7060  175.1550  146.1310 O   0  0  0  0  0  0  0  0  0  0  0  0
  190.5750  173.2290  145.1680 C   0  0  2  0  0  3  0  0  0  0  0  0
  188.0980  176.0110  145.9210 C   0  0  0  0  0  3  0  0  0  0  0  0
  188.8440  174.5490  140.5210 C   0  0  0  0  0  3  0  0  0  0  0  0
  190.4920  175.8370  146.2820 C   0  0  0  0  0  0  0  0  0  0  0  0
  190.4550  177.0030  147.0520 C   0  0  0  0  0  3  0  0  0  0  0  0
  190.6640  171.9980  144.2610 C   0  0  0  0  0  2  0  0  0  0  0  0
  189.7540  173.3300  142.4280 C   0  0  0  0  0  0  0  0  0  0  0  0
  189.5830  173.5360  140.9790 C   0  0  0  0  0  3  0  0  0  0  0  0
  192.3040  174.5880  143.8570 C   0  0  0  0  0  2  0  0  0  0  0  0
  191.8320  176.8060  142.7970 C   0  0  0  0  0  1  0  0  0  0  0  0
  192.5830  176.0860  143.9030 C   0  0  2  0  0  3  0  0  0  0  0  0
  195.9860  174.4180  144.3770 C   0  0  0  0  0  0  0  0  0  0  0  0
  194.7760  175.7630  142.7810 O   0  0  0  0  0  0  0  0  0  0  0  0
  194.5660  177.1650  146.1370 C   0  0  0  0  0  2  0  0  0  0  0  0
  196.9540  173.3900  144.5460 N   0  0  0  0  0  1  0  0  0  0  0  0
  195.1180  174.4380  143.1490 C   0  0  0  0  0  2  0  0  0  0  0  0
  194.7960  176.2980  145.1610 C   0  0  0  0  0  0  0  0  0  0  0  0
  194.0820  176.4160  143.8380 C   0  0  2  0  0  3  0  0  0  0  0  0
  195.7810  175.2770  145.3250 N   0  0  0  0  0  0  0  0  0  0  0  0
  1  9  1  0  0  0  0
  1  6  1  0  0  0  0
  2  3  1  6  0  0  0
  2 13  1  0  0  0  0
  2  5  1  0  0  0  0
  4  7  1  0  0  0  0
  5 14  1  0  0  0  0
  5 16  2  0  0  0  0
  7  3  2  0  0  0  0
  8 21  1  6  0  0  0
  8 12  1  0  0  0  0
 10 18  1  0  0  0  0
 11  4  2  0  0  0  0
 12 16  1  0  0  0  0
 13 18  1  6  0  0  0
 13  8  1  0  0  0  0
 14  1  2  0  0  0  0
 15 20  2  0  0  0  0
 15  4  1  0  0  0  0
 16 17  1  0  0  0  0
 17  6  2  0  0  0  0
 19 10  2  0  0  0  0
 19  3  1  0  0  0  0
 20 19  1  0  0  0  0
 21 23  1  0  0  0  0
 23 22  1  6  0  0  0
 24 27  1  0  0  0  0
 24 31  2  0  0  0  0
 25 28  1  0  0  0  0
 25 30  1  0  0  0  0
 28 24  1  0  0  0  0
 29 31  1  0  0  0  0
 29 26  2  0  0  0  0
 30 23  1  1  0  0  0
 30 29  1  0  0  0  0
M  END
>  <MODEL>
9

>  <REMARK>
 VINA RESULT:      -7.6      3.226      6.537
  Name = 
  3 active torsions:
  status: ('A' for Active; 'I' for Inactive)
    1  A    between atoms: C_5  and  C_16
    2  A    between atoms: C_5  and  C_30
    3  A    between atoms: C_10  and  C_16
                            x       y       z     vdW  Elec       q    Type
                         _______ _______ _______ _____ _____    ______ ____

>  <TORSDO>
F 3

$$$$
