=
 OpenBabel11112417343D

 28 32  0  0  1  0  0  0  0  0999 V2000
  187.7420  176.3330  146.3160 C   0  0  0  0  0  0  0  0  0  0  0  0
  186.0860  177.1280  141.9290 O   0  0  0  0  0  0  0  0  0  0  0  0
  193.4000  175.9940  143.8150 O   0  0  0  0  0  0  0  0  0  0  0  0
  186.1040  178.4590  145.4960 C   0  0  0  0  0  3  0  0  0  0  0  0
  191.6450  174.7310  142.8950 N   0  0  0  0  0  0  0  0  0  0  0  0
  188.6480  175.3010  146.9090 C   0  0  0  0  0  2  0  0  0  0  0  0
  188.3020  178.0890  141.4300 O   0  0  0  0  0  0  0  0  0  0  0  0
  187.5080  176.8190  141.5550 S   0  0  0  0  0  0  0  0  0  0  0  0
  188.1990  174.6820  139.9250 C   0  0  0  0  0  0  0  0  0  0  0  0
  188.2390  175.7390  142.7640 C   0  0  1  0  0  3  0  0  0  0  0  0
  191.7160  176.9590  148.0270 O   0  0  0  0  0  0  0  0  0  0  0  0
  189.9280  175.3770  144.4100 C   0  0  1  0  0  3  0  0  0  0  0  0
  188.8640  174.0060  141.0970 C   0  0  0  0  0  2  0  0  0  0  0  0
  187.5390  175.9510  140.0550 N   0  0  0  0  0  2  0  0  0  0  0  0
  191.0040  176.1630  147.3630 C   0  0  0  0  0  0  0  0  0  0  0  0
  187.9020  176.8800  145.0090 C   0  0  0  0  0  0  0  0  0  0  0  0
  192.1990  175.6130  143.8480 C   0  0  0  0  0  0  0  0  0  0  0  0
  188.1900  174.0960  138.8120 O   0  0  0  0  0  0  0  0  0  0  0  0
  191.6200  175.4290  146.2160 C   0  0  0  0  0  2  0  0  0  0  0  0
  187.0820  177.9560  144.6380 C   0  0  0  0  0  3  0  0  0  0  0  0
  186.7550  176.8480  147.1660 C   0  0  0  0  0  3  0  0  0  0  0  0
  185.9350  177.8990  146.7580 C   0  0  0  0  0  3  0  0  0  0  0  0
  189.6400  175.9610  147.7470 N   0  0  0  0  0  2  0  0  0  0  0  0
  190.2470  174.4900  143.1880 C   0  0  1  0  0  3  0  0  0  0  0  0
  191.2260  176.0400  144.8790 C   0  0  2  0  0  3  0  0  0  0  0  0
  189.3820  175.0450  142.0770 C   0  0  2  0  0  3  0  0  0  0  0  0
  192.4020  174.0370  141.8670 C   0  0  0  0  0  1  0  0  0  0  0  0
  188.8990  176.4120  143.9570 C   0  0  2  0  0  3  0  0  0  0  0  0
  1  6  1  0  0  0  0
  1 21  1  0  0  0  0
  3 17  2  0  0  0  0
  4 22  1  0  0  0  0
  5 24  1  0  0  0  0
  5 17  1  0  0  0  0
  6 23  1  0  0  0  0
  7  8  2  0  0  0  0
  8  2  2  0  0  0  0
  9 14  1  0  0  0  0
  9 13  1  0  0  0  0
 10  8  1  6  0  0  0
 10 28  1  0  0  0  0
 12 25  1  0  0  0  0
 13 26  1  0  0  0  0
 14  8  1  0  0  0  0
 15 23  1  0  0  0  0
 15 11  2  0  0  0  0
 16  1  2  0  0  0  0
 17 25  1  0  0  0  0
 18  9  2  0  0  0  0
 19 15  1  0  0  0  0
 20 16  1  0  0  0  0
 20  4  2  0  0  0  0
 22 21  2  0  0  0  0
 24 12  1  0  0  0  0
 25 19  1  0  0  0  0
 26 10  1  0  0  0  0
 26 24  1  0  0  0  0
 27  5  1  0  0  0  0
 28 12  1  0  0  0  0
 28 16  1  0  0  0  0
M  END
>  <MODEL>
1

>  <REMARK>
 VINA RESULT:      -8.6      0.000      0.000
  Name = 
  0 active torsions:
  status: ('A' for Active; 'I' for Inactive)
                            x       y       z     vdW  Elec       q    Type
                         _______ _______ _______ _____ _____    ______ ____

>  <TORSDO>
F 0

$$$$
=
 OpenBabel11112417343D

 28 32  0  0  1  0  0  0  0  0999 V2000
  185.4600  177.5310  144.4200 C   0  0  0  0  0  0  0  0  0  0  0  0
  188.5370  175.7940  141.2350 O   0  0  0  0  0  0  0  0  0  0  0  0
  190.2520  178.1330  148.3010 O   0  0  0  0  0  0  0  0  0  0  0  0
  185.8300  178.4150  141.7830 C   0  0  0  0  0  3  0  0  0  0  0  0
  189.8930  176.0850  147.2070 N   0  0  0  0  0  0  0  0  0  0  0  0
  185.1710  177.2220  145.8540 C   0  0  0  0  0  2  0  0  0  0  0  0
  190.2510  177.1510  142.3760 O   0  0  0  0  0  0  0  0  0  0  0  0
  189.4760  175.8640  142.4060 S   0  0  0  0  0  0  0  0  0  0  0  0
  190.7120  173.6190  143.4720 C   0  0  0  0  0  0  0  0  0  0  0  0
  188.5700  175.7120  143.9290 C   0  0  1  0  0  3  0  0  0  0  0  0
  186.0900  180.1350  147.8750 O   0  0  0  0  0  0  0  0  0  0  0  0
  187.9210  176.6760  146.0130 C   0  0  1  0  0  3  0  0  0  0  0  0
  189.8960  173.7700  144.7300 C   0  0  0  0  0  2  0  0  0  0  0  0
  190.5640  174.5160  142.3590 N   0  0  0  0  0  2  0  0  0  0  0  0
  186.1260  178.9430  147.4740 C   0  0  0  0  0  0  0  0  0  0  0  0
  186.7650  177.4980  143.8440 C   0  0  0  0  0  0  0  0  0  0  0  0
  189.5540  177.4160  147.5340 C   0  0  0  0  0  0  0  0  0  0  0  0
  191.5170  172.6570  143.3830 O   0  0  0  0  0  0  0  0  0  0  0  0
  187.2320  178.0550  147.9490 C   0  0  0  0  0  2  0  0  0  0  0  0
  186.9190  177.9670  142.5300 C   0  0  0  0  0  3  0  0  0  0  0  0
  184.3770  177.9840  143.6560 C   0  0  0  0  0  3  0  0  0  0  0  0
  184.5570  178.4160  142.3430 C   0  0  0  0  0  3  0  0  0  0  0  0
  185.0940  178.4680  146.6060 N   0  0  0  0  0  2  0  0  0  0  0  0
  188.9110  175.5270  146.2990 C   0  0  1  0  0  3  0  0  0  0  0  0
  188.3050  177.8750  146.8860 C   0  0  2  0  0  3  0  0  0  0  0  0
  189.5520  175.2320  144.9610 C   0  0  2  0  0  3  0  0  0  0  0  0
  190.9750  175.3290  147.8140 C   0  0  0  0  0  1  0  0  0  0  0  0
  188.0330  177.0050  144.5250 C   0  0  2  0  0  3  0  0  0  0  0  0
  1  6  1  0  0  0  0
  2  8  2  0  0  0  0
  4 22  2  0  0  0  0
  4 20  1  0  0  0  0
  5 17  1  0  0  0  0
  5 27  1  0  0  0  0
  6 23  1  0  0  0  0
  7  8  2  0  0  0  0
  9 13  1  0  0  0  0
 10  8  1  6  0  0  0
 10 28  1  0  0  0  0
 10 26  1  0  0  0  0
 12 24  1  0  0  0  0
 12 25  1  0  0  0  0
 13 26  1  0  0  0  0
 14  8  1  0  0  0  0
 14  9  1  0  0  0  0
 15 11  2  0  0  0  0
 15 19  1  0  0  0  0
 16  1  1  0  0  0  0
 16 28  1  0  0  0  0
 17  3  2  0  0  0  0
 18  9  2  0  0  0  0
 20 16  2  0  0  0  0
 21  1  2  0  0  0  0
 22 21  1  0  0  0  0
 23 15  1  0  0  0  0
 24  5  1  0  0  0  0
 25 17  1  0  0  0  0
 25 19  1  0  0  0  0
 26 24  1  0  0  0  0
 28 12  1  0  0  0  0
M  END
>  <MODEL>
2

>  <REMARK>
 VINA RESULT:      -8.4      2.407      4.198
  Name = 
  0 active torsions:
  status: ('A' for Active; 'I' for Inactive)
                            x       y       z     vdW  Elec       q    Type
                         _______ _______ _______ _____ _____    ______ ____

>  <TORSDO>
F 0

$$$$
=
 OpenBabel11112417343D

 28 32  0  0  1  0  0  0  0  0999 V2000
  189.7490  173.1180  143.3710 C   0  0  0  0  0  0  0  0  0  0  0  0
  189.6540  176.0680  147.1020 O   0  0  0  0  0  0  0  0  0  0  0  0
  187.1920  177.6830  140.0540 O   0  0  0  0  0  0  0  0  0  0  0  0
  191.9050  173.7970  145.0350 C   0  0  0  0  0  3  0  0  0  0  0  0
  186.2370  177.0650  142.1100 N   0  0  0  0  0  0  0  0  0  0  0  0
  188.7300  172.6900  142.3650 C   0  0  0  0  0  2  0  0  0  0  0  0
  189.7970  177.9050  145.4600 O   0  0  0  0  0  0  0  0  0  0  0  0
  188.8800  176.9290  146.1430 S   0  0  0  0  0  0  0  0  0  0  0  0
  186.2580  177.7090  146.6140 C   0  0  0  0  0  0  0  0  0  0  0  0
  188.0410  175.9140  144.9480 C   0  0  1  0  0  3  0  0  0  0  0  0
  189.7510  173.9410  139.0780 O   0  0  0  0  0  0  0  0  0  0  0  0
  187.7310  175.2980  142.6640 C   0  0  1  0  0  3  0  0  0  0  0  0
  185.7980  176.8500  145.4650 C   0  0  0  0  0  2  0  0  0  0  0  0
  187.6400  177.7830  147.0020 N   0  0  0  0  0  2  0  0  0  0  0  0
  189.0190  173.8070  140.0920 C   0  0  0  0  0  0  0  0  0  0  0  0
  189.8300  174.4340  143.9160 C   0  0  0  0  0  0  0  0  0  0  0  0
  187.1750  176.9280  141.0630 C   0  0  0  0  0  0  0  0  0  0  0  0
  185.4000  178.3510  147.2730 O   0  0  0  0  0  0  0  0  0  0  0  0
  187.8470  174.7200  140.2600 C   0  0  0  0  0  2  0  0  0  0  0  0
  190.9320  174.7470  144.7270 C   0  0  0  0  0  3  0  0  0  0  0  0
  190.7350  172.1750  143.6910 C   0  0  0  0  0  3  0  0  0  0  0  0
  191.8020  172.5080  144.5230 C   0  0  0  0  0  3  0  0  0  0  0  0
  189.3120  172.7690  141.0310 N   0  0  0  0  0  2  0  0  0  0  0  0
  186.4770  176.0660  143.1310 C   0  0  1  0  0  3  0  0  0  0  0  0
  188.1270  175.8150  141.2770 C   0  0  2  0  0  3  0  0  0  0  0  0
  186.8970  176.7350  144.4220 C   0  0  2  0  0  3  0  0  0  0  0  0
  185.0990  177.9670  142.0930 C   0  0  0  0  0  1  0  0  0  0  0  0
  188.8280  175.5580  143.6960 C   0  0  2  0  0  3  0  0  0  0  0  0
  1 21  2  0  0  0  0
  1 16  1  0  0  0  0
  3 17  2  0  0  0  0
  5 24  1  0  0  0  0
  6  1  1  0  0  0  0
  7  8  2  0  0  0  0
  8 14  1  0  0  0  0
  8  2  2  0  0  0  0
  9 14  1  0  0  0  0
  9 18  2  0  0  0  0
 10  8  1  1  0  0  0
 11 15  2  0  0  0  0
 12 24  1  0  0  0  0
 12 28  1  0  0  0  0
 13  9  1  0  0  0  0
 15 19  1  0  0  0  0
 15 23  1  0  0  0  0
 16 20  2  0  0  0  0
 17 25  1  0  0  0  0
 17  5  1  0  0  0  0
 19 25  1  0  0  0  0
 20  4  1  0  0  0  0
 21 22  1  0  0  0  0
 22  4  2  0  0  0  0
 23  6  1  0  0  0  0
 24 26  1  0  0  0  0
 25 12  1  0  0  0  0
 26 10  1  0  0  0  0
 26 13  1  0  0  0  0
 27  5  1  0  0  0  0
 28 16  1  0  0  0  0
 28 10  1  0  0  0  0
M  END
>  <MODEL>
3

>  <REMARK>
 VINA RESULT:      -8.3      2.384      6.292
  Name = 
  0 active torsions:
  status: ('A' for Active; 'I' for Inactive)
                            x       y       z     vdW  Elec       q    Type
                         _______ _______ _______ _____ _____    ______ ____

>  <TORSDO>
F 0

$$$$
=
 OpenBabel11112417343D

 28 32  0  0  1  0  0  0  0  0999 V2000
  192.2950  175.4460  144.2960 C   0  0  0  0  0  0  0  0  0  0  0  0
  189.6720  174.3830  140.4730 O   0  0  0  0  0  0  0  0  0  0  0  0
  186.9950  176.8040  147.2040 O   0  0  0  0  0  0  0  0  0  0  0  0
  192.3680  173.0640  142.8150 C   0  0  0  0  0  3  0  0  0  0  0  0
  187.4330  177.7350  145.0920 N   0  0  0  0  0  0  0  0  0  0  0  0
  192.3490  176.6210  145.2200 C   0  0  0  0  0  2  0  0  0  0  0  0
  187.8610  173.8360  142.0550 O   0  0  0  0  0  0  0  0  0  0  0  0
  188.5690  174.9430  141.3250 S   0  0  0  0  0  0  0  0  0  0  0  0
  187.0940  177.1760  140.5890 C   0  0  0  0  0  0  0  0  0  0  0  0
  189.2250  176.1330  142.4730 C   0  0  1  0  0  3  0  0  0  0  0  0
  191.2510  175.5370  148.5410 O   0  0  0  0  0  0  0  0  0  0  0  0
  189.5870  176.7860  144.7390 C   0  0  1  0  0  3  0  0  0  0  0  0
  187.7140  177.9560  141.7200 C   0  0  0  0  0  2  0  0  0  0  0  0
  187.4460  175.8080  140.3270 N   0  0  0  0  0  2  0  0  0  0  0  0
  191.2280  176.1940  147.4690 C   0  0  0  0  0  0  0  0  0  0  0  0
  191.0930  174.9420  143.7160 C   0  0  0  0  0  0  0  0  0  0  0  0
  187.7720  176.9630  146.2240 C   0  0  0  0  0  0  0  0  0  0  0  0
  186.2730  177.7550  139.8320 O   0  0  0  0  0  0  0  0  0  0  0  0
  190.0280  177.0320  147.1620 C   0  0  0  0  0  2  0  0  0  0  0  0
  191.1610  173.7370  142.9990 C   0  0  0  0  0  3  0  0  0  0  0  0
  193.5000  174.7580  144.1020 C   0  0  0  0  0  3  0  0  0  0  0  0
  193.5400  173.5790  143.3600 C   0  0  0  0  0  3  0  0  0  0  0  0
  192.3610  176.1470  146.5970 N   0  0  0  0  0  2  0  0  0  0  0  0
  188.5190  177.7200  144.1320 C   0  0  1  0  0  3  0  0  0  0  0  0
  189.1230  176.3640  146.1370 C   0  0  2  0  0  3  0  0  0  0  0  0
  188.0780  177.0230  142.8630 C   0  0  2  0  0  3  0  0  0  0  0  0
  186.2410  178.5570  144.9730 C   0  0  0  0  0  1  0  0  0  0  0  0
  189.7170  175.5840  143.8040 C   0  0  2  0  0  3  0  0  0  0  0  0
  1  6  1  0  0  0  0
  2  8  2  0  0  0  0
  4 20  2  0  0  0  0
  4 22  1  0  0  0  0
  5 17  1  0  0  0  0
  6 23  1  0  0  0  0
  8  7  2  0  0  0  0
  9 13  1  0  0  0  0
 10  8  1  6  0  0  0
 10 26  1  0  0  0  0
 10 28  1  0  0  0  0
 12 25  1  0  0  0  0
 13 26  1  0  0  0  0
 14  9  1  0  0  0  0
 14  8  1  0  0  0  0
 15 11  2  0  0  0  0
 16 28  1  0  0  0  0
 16  1  2  0  0  0  0
 17  3  2  0  0  0  0
 18  9  2  0  0  0  0
 19 15  1  0  0  0  0
 20 16  1  0  0  0  0
 21  1  1  0  0  0  0
 22 21  2  0  0  0  0
 23 15  1  0  0  0  0
 24 12  1  0  0  0  0
 24  5  1  0  0  0  0
 25 17  1  0  0  0  0
 25 19  1  0  0  0  0
 26 24  1  0  0  0  0
 27  5  1  0  0  0  0
 28 12  1  0  0  0  0
M  END
>  <MODEL>
4

>  <REMARK>
 VINA RESULT:      -8.1      2.010      4.771
  Name = 
  0 active torsions:
  status: ('A' for Active; 'I' for Inactive)
                            x       y       z     vdW  Elec       q    Type
                         _______ _______ _______ _____ _____    ______ ____

>  <TORSDO>
F 0

$$$$
=
 OpenBabel11112417343D

 28 32  0  0  1  0  0  0  0  0999 V2000
  187.5540  176.4320  144.0750 C   0  0  0  0  0  0  0  0  0  0  0  0
  190.2840  177.5410  147.8100 O   0  0  0  0  0  0  0  0  0  0  0  0
  191.5140  171.8130  142.9090 O   0  0  0  0  0  0  0  0  0  0  0  0
  186.7160  176.7610  146.7330 C   0  0  0  0  0  3  0  0  0  0  0  0
  192.3350  173.9870  143.2540 N   0  0  0  0  0  0  0  0  0  0  0  0
  187.8350  176.1730  142.6290 C   0  0  0  0  0  2  0  0  0  0  0  0
  190.9180  175.1570  147.8610 O   0  0  0  0  0  0  0  0  0  0  0  0
  191.1750  176.4890  147.2130 S   0  0  0  0  0  0  0  0  0  0  0  0
  193.7480  177.0330  146.3250 C   0  0  0  0  0  0  0  0  0  0  0  0
  190.9180  176.3910  145.4560 C   0  0  1  0  0  3  0  0  0  0  0  0
  187.0660  172.6660  141.9110 O   0  0  0  0  0  0  0  0  0  0  0  0
  190.2510  175.0940  143.5680 C   0  0  1  0  0  3  0  0  0  0  0  0
  193.3080  176.7840  144.9050 C   0  0  0  0  0  2  0  0  0  0  0  0
  192.8340  176.9420  147.4300 N   0  0  0  0  0  2  0  0  0  0  0  0
  187.7740  173.7010  142.0130 C   0  0  0  0  0  0  0  0  0  0  0  0
  188.4210  176.0430  145.1390 C   0  0  0  0  0  0  0  0  0  0  0  0
  191.2990  173.0370  143.1160 C   0  0  0  0  0  0  0  0  0  0  0  0
  194.9410  177.3660  146.5400 O   0  0  0  0  0  0  0  0  0  0  0  0
  189.2580  173.5760  141.8840 C   0  0  0  0  0  2  0  0  0  0  0  0
  187.9630  176.2000  146.4560 C   0  0  0  0  0  3  0  0  0  0  0  0
  186.3050  176.9940  144.3700 C   0  0  0  0  0  3  0  0  0  0  0  0
  185.8900  177.1650  145.6900 C   0  0  0  0  0  3  0  0  0  0  0  0
  187.1350  174.9650  142.2160 N   0  0  0  0  0  2  0  0  0  0  0  0
  191.7780  175.3030  143.4950 C   0  0  1  0  0  3  0  0  0  0  0  0
  189.9480  173.6280  143.2390 C   0  0  2  0  0  3  0  0  0  0  0  0
  192.1650  175.7840  144.8770 C   0  0  2  0  0  3  0  0  0  0  0  0
  193.7440  173.7190  143.0280 C   0  0  0  0  0  1  0  0  0  0  0  0
  189.8160  175.4530  144.9880 C   0  0  2  0  0  3  0  0  0  0  0  0
  1 21  2  0  0  0  0
  1 16  1  0  0  0  0
  3 17  2  0  0  0  0
  5 24  1  0  0  0  0
  6  1  1  0  0  0  0
  8 14  1  0  0  0  0
  8  2  2  0  0  0  0
  8  7  2  0  0  0  0
  9 18  2  0  0  0  0
  9 14  1  0  0  0  0
 10  8  1  1  0  0  0
 11 15  2  0  0  0  0
 12 28  1  0  0  0  0
 13  9  1  0  0  0  0
 15 23  1  0  0  0  0
 16 20  2  0  0  0  0
 17 25  1  0  0  0  0
 17  5  1  0  0  0  0
 19 15  1  0  0  0  0
 19 25  1  0  0  0  0
 20  4  1  0  0  0  0
 21 22  1  0  0  0  0
 22  4  2  0  0  0  0
 23  6  1  0  0  0  0
 24 12  1  0  0  0  0
 24 26  1  0  0  0  0
 25 12  1  0  0  0  0
 26 13  1  0  0  0  0
 26 10  1  0  0  0  0
 27  5  1  0  0  0  0
 28 16  1  0  0  0  0
 28 10  1  0  0  0  0
M  END
>  <MODEL>
5

>  <REMARK>
 VINA RESULT:      -8.0      2.480      5.316
  Name = 
  0 active torsions:
  status: ('A' for Active; 'I' for Inactive)
                            x       y       z     vdW  Elec       q    Type
                         _______ _______ _______ _____ _____    ______ ____

>  <TORSDO>
F 0

$$$$
=
 OpenBabel11112417343D

 28 32  0  0  1  0  0  0  0  0999 V2000
  188.7190  175.5460  146.5800 C   0  0  0  0  0  0  0  0  0  0  0  0
  186.5260  175.9660  142.3790 O   0  0  0  0  0  0  0  0  0  0  0  0
  194.0720  176.2100  143.5340 O   0  0  0  0  0  0  0  0  0  0  0  0
  186.6480  177.3270  145.9330 C   0  0  0  0  0  3  0  0  0  0  0  0
  192.4970  174.6360  142.7860 N   0  0  0  0  0  0  0  0  0  0  0  0
  189.8510  174.7060  147.0770 C   0  0  0  0  0  2  0  0  0  0  0  0
  188.4710  177.3080  141.6700 O   0  0  0  0  0  0  0  0  0  0  0  0
  187.9380  175.9170  141.8670 S   0  0  0  0  0  0  0  0  0  0  0  0
  188.8460  173.9180  140.1680 C   0  0  0  0  0  0  0  0  0  0  0  0
  188.9680  175.0040  142.9930 C   0  0  1  0  0  3  0  0  0  0  0  0
  192.6580  176.9100  147.8950 O   0  0  0  0  0  0  0  0  0  0  0  0
  190.8460  174.9780  144.4650 C   0  0  1  0  0  3  0  0  0  0  0  0
  189.7340  173.3910  141.2660 C   0  0  0  0  0  2  0  0  0  0  0  0
  187.9810  175.0480  140.3670 N   0  0  0  0  0  2  0  0  0  0  0  0
  192.0420  175.9880  147.3010 C   0  0  0  0  0  0  0  0  0  0  0  0
  188.6480  176.0950  145.2650 C   0  0  0  0  0  0  0  0  0  0  0  0
  192.9700  175.6170  143.6840 C   0  0  0  0  0  0  0  0  0  0  0  0
  188.8360  173.3260  139.0590 O   0  0  0  0  0  0  0  0  0  0  0  0
  192.6680  175.3630  146.0960 C   0  0  0  0  0  2  0  0  0  0  0  0
  187.6130  176.9990  144.9810 C   0  0  0  0  0  3  0  0  0  0  0  0
  187.7410  175.8850  147.5250 C   0  0  0  0  0  3  0  0  0  0  0  0
  186.7080  176.7630  147.2030 C   0  0  0  0  0  3  0  0  0  0  0  0
  190.7830  175.5470  147.8160 N   0  0  0  0  0  2  0  0  0  0  0  0
  191.2010  174.1480  143.2130 C   0  0  1  0  0  3  0  0  0  0  0  0
  192.0410  175.8740  144.8070 C   0  0  2  0  0  3  0  0  0  0  0  0
  190.1470  174.5210  142.1950 C   0  0  2  0  0  3  0  0  0  0  0  0
  193.2640  174.0770  141.6860 C   0  0  0  0  0  1  0  0  0  0  0  0
  189.6060  175.8030  144.1190 C   0  0  2  0  0  3  0  0  0  0  0  0
  1  6  1  0  0  0  0
  1 21  1  0  0  0  0
  3 17  2  0  0  0  0
  4 22  1  0  0  0  0
  5 24  1  0  0  0  0
  5 17  1  0  0  0  0
  6 23  1  0  0  0  0
  7  8  2  0  0  0  0
  8  2  2  0  0  0  0
  9 14  1  0  0  0  0
  9 13  1  0  0  0  0
 10  8  1  6  0  0  0
 10 28  1  0  0  0  0
 12 25  1  0  0  0  0
 13 26  1  0  0  0  0
 14  8  1  0  0  0  0
 15 23  1  0  0  0  0
 15 11  2  0  0  0  0
 16  1  2  0  0  0  0
 17 25  1  0  0  0  0
 18  9  2  0  0  0  0
 19 15  1  0  0  0  0
 20 16  1  0  0  0  0
 20  4  2  0  0  0  0
 22 21  2  0  0  0  0
 24 12  1  0  0  0  0
 25 19  1  0  0  0  0
 26 10  1  0  0  0  0
 26 24  1  0  0  0  0
 27  5  1  0  0  0  0
 28 12  1  0  0  0  0
 28 16  1  0  0  0  0
M  END
>  <MODEL>
6

>  <REMARK>
 VINA RESULT:      -7.9      0.973      1.083
  Name = 
  0 active torsions:
  status: ('A' for Active; 'I' for Inactive)
                            x       y       z     vdW  Elec       q    Type
                         _______ _______ _______ _____ _____    ______ ____

>  <TORSDO>
F 0

$$$$
=
 OpenBabel11112417343D

 28 32  0  0  1  0  0  0  0  0999 V2000
  185.3550  177.7550  145.4430 C   0  0  0  0  0  0  0  0  0  0  0  0
  185.5730  177.4690  140.7000 O   0  0  0  0  0  0  0  0  0  0  0  0
  191.5020  176.9800  145.4900 O   0  0  0  0  0  0  0  0  0  0  0  0
  184.3110  179.5930  143.5970 C   0  0  0  0  0  3  0  0  0  0  0  0
  190.1530  175.4960  144.2660 N   0  0  0  0  0  0  0  0  0  0  0  0
  185.8900  176.9120  146.5560 C   0  0  0  0  0  2  0  0  0  0  0  0
  187.8710  178.3410  140.9040 O   0  0  0  0  0  0  0  0  0  0  0  0
  187.0040  177.1160  140.9900 S   0  0  0  0  0  0  0  0  0  0  0  0
  188.1190  174.6760  140.2800 C   0  0  0  0  0  0  0  0  0  0  0  0
  187.1380  176.3640  142.5950 C   0  0  1  0  0  3  0  0  0  0  0  0
  188.3990  178.8570  148.3810 O   0  0  0  0  0  0  0  0  0  0  0  0
  188.0340  176.4350  144.8060 C   0  0  1  0  0  3  0  0  0  0  0  0
  188.2340  174.3070  141.7360 C   0  0  0  0  0  2  0  0  0  0  0  0
  187.5500  175.9240  139.8550 N   0  0  0  0  0  2  0  0  0  0  0  0
  187.9440  177.9120  147.6880 C   0  0  0  0  0  0  0  0  0  0  0  0
  186.0440  177.9870  144.2150 C   0  0  0  0  0  0  0  0  0  0  0  0
  190.3570  176.5890  145.1360 C   0  0  0  0  0  0  0  0  0  0  0  0
  188.4990  173.8470  139.4130 O   0  0  0  0  0  0  0  0  0  0  0  0
  188.9010  176.9460  147.0670 C   0  0  0  0  0  2  0  0  0  0  0  0
  185.5060  178.9280  143.3240 C   0  0  0  0  0  3  0  0  0  0  0  0
  184.1560  178.4310  145.7030 C   0  0  0  0  0  3  0  0  0  0  0  0
  183.6310  179.3380  144.7840 C   0  0  0  0  0  3  0  0  0  0  0  0
  186.5270  177.7720  147.5440 N   0  0  0  0  0  2  0  0  0  0  0  0
  188.7360  175.2970  144.0360 C   0  0  1  0  0  3  0  0  0  0  0  0
  189.0950  177.2210  145.5830 C   0  0  2  0  0  3  0  0  0  0  0  0
  188.4060  175.5570  142.5820 C   0  0  2  0  0  3  0  0  0  0  0  0
  191.1960  174.6010  143.7970 C   0  0  0  0  0  1  0  0  0  0  0  0
  187.3330  177.3120  143.7690 C   0  0  2  0  0  3  0  0  0  0  0  0
  1 21  1  0  0  0  0
  1  6  1  0  0  0  0
  2  8  2  0  0  0  0
  4 22  1  0  0  0  0
  5 17  1  0  0  0  0
  6 23  1  0  0  0  0
  7  8  2  0  0  0  0
  9 13  1  0  0  0  0
 10  8  1  6  0  0  0
 10 28  1  0  0  0  0
 12 25  1  0  0  0  0
 13 26  1  0  0  0  0
 14  9  1  0  0  0  0
 14  8  1  0  0  0  0
 15 11  2  0  0  0  0
 16  1  2  0  0  0  0
 17  3  2  0  0  0  0
 17 25  1  0  0  0  0
 18  9  2  0  0  0  0
 19 15  1  0  0  0  0
 20  4  2  0  0  0  0
 20 16  1  0  0  0  0
 22 21  2  0  0  0  0
 23 15  1  0  0  0  0
 24  5  1  0  0  0  0
 24 12  1  0  0  0  0
 25 19  1  0  0  0  0
 26 10  1  0  0  0  0
 26 24  1  0  0  0  0
 27  5  1  0  0  0  0
 28 16  1  0  0  0  0
 28 12  1  0  0  0  0
M  END
>  <MODEL>
7

>  <REMARK>
 VINA RESULT:      -7.8      1.745      2.393
  Name = 
  0 active torsions:
  status: ('A' for Active; 'I' for Inactive)
                            x       y       z     vdW  Elec       q    Type
                         _______ _______ _______ _____ _____    ______ ____

>  <TORSDO>
F 0

$$$$
=
 OpenBabel11112417343D

 28 32  0  0  1  0  0  0  0  0999 V2000
  186.4300  177.7930  141.6400 C   0  0  0  0  0  0  0  0  0  0  0  0
  184.2280  179.0780  145.6570 O   0  0  0  0  0  0  0  0  0  0  0  0
  189.4310  173.5260  144.9810 O   0  0  0  0  0  0  0  0  0  0  0  0
  183.6620  178.0220  142.0430 C   0  0  0  0  0  3  0  0  0  0  0  0
  189.3810  175.7560  145.7190 N   0  0  0  0  0  0  0  0  0  0  0  0
  187.8620  177.5750  141.2690 C   0  0  0  0  0  2  0  0  0  0  0  0
  184.5710  176.7530  146.4090 O   0  0  0  0  0  0  0  0  0  0  0  0
  185.2050  178.1090  146.2620 S   0  0  0  0  0  0  0  0  0  0  0  0
  187.1070  178.8710  148.1330 C   0  0  0  0  0  0  0  0  0  0  0  0
  186.6720  178.0100  145.2610 C   0  0  1  0  0  3  0  0  0  0  0  0
  188.3310  174.0250  140.5030 O   0  0  0  0  0  0  0  0  0  0  0  0
  188.1320  176.6850  143.9190 C   0  0  1  0  0  3  0  0  0  0  0  0
  188.1990  178.6040  147.1290 C   0  0  0  0  0  2  0  0  0  0  0  0
  185.7190  178.6930  147.8110 N   0  0  0  0  0  2  0  0  0  0  0  0
  188.5020  175.1130  141.1110 C   0  0  0  0  0  0  0  0  0  0  0  0
  185.8750  177.4640  142.9120 C   0  0  0  0  0  0  0  0  0  0  0  0
  189.0940  174.7260  144.7960 C   0  0  0  0  0  0  0  0  0  0  0  0
  187.4230  179.2980  149.2730 O   0  0  0  0  0  0  0  0  0  0  0  0
  189.2770  175.1110  142.3900 C   0  0  0  0  0  2  0  0  0  0  0  0
  184.4850  177.5680  143.0740 C   0  0  0  0  0  3  0  0  0  0  0  0
  185.5900  178.2480  140.6150 C   0  0  0  0  0  3  0  0  0  0  0  0
  184.2160  178.3700  140.8150 C   0  0  0  0  0  3  0  0  0  0  0  0
  187.9810  176.3180  140.5430 N   0  0  0  0  0  2  0  0  0  0  0  0
  188.8590  177.0190  145.2390 C   0  0  1  0  0  3  0  0  0  0  0  0
  188.3620  175.2030  143.6020 C   0  0  2  0  0  3  0  0  0  0  0  0
  187.7680  177.5130  146.1620 C   0  0  2  0  0  3  0  0  0  0  0  0
  190.2160  175.6050  146.8990 C   0  0  0  0  0  1  0  0  0  0  0  0
  186.6500  176.9910  144.1330 C   0  0  2  0  0  3  0  0  0  0  0  0
  1 16  1  0  0  0  0
  2  8  2  0  0  0  0
  4 20  1  0  0  0  0
  5 27  1  0  0  0  0
  6  1  1  0  0  0  0
  8  7  2  0  0  0  0
  8 14  1  0  0  0  0
  9 18  2  0  0  0  0
 10 26  1  0  0  0  0
 10  8  1  1  0  0  0
 11 15  2  0  0  0  0
 12 28  1  0  0  0  0
 12 24  1  0  0  0  0
 13  9  1  0  0  0  0
 14  9  1  0  0  0  0
 15 19  1  0  0  0  0
 16 20  2  0  0  0  0
 16 28  1  0  0  0  0
 17  3  2  0  0  0  0
 17  5  1  0  0  0  0
 19 25  1  0  0  0  0
 21 22  1  0  0  0  0
 21  1  2  0  0  0  0
 22  4  2  0  0  0  0
 23 15  1  0  0  0  0
 23  6  1  0  0  0  0
 24  5  1  0  0  0  0
 24 26  1  0  0  0  0
 25 12  1  0  0  0  0
 25 17  1  0  0  0  0
 26 13  1  0  0  0  0
 28 10  1  0  0  0  0
M  END
>  <MODEL>
8

>  <REMARK>
 VINA RESULT:      -7.4      3.040      5.915
  Name = 
  0 active torsions:
  status: ('A' for Active; 'I' for Inactive)
                            x       y       z     vdW  Elec       q    Type
                         _______ _______ _______ _____ _____    ______ ____

>  <TORSDO>
F 0

$$$$
=
 OpenBabel11112417343D

 28 32  0  0  1  0  0  0  0  0999 V2000
  189.2040  175.7060  144.5540 C   0  0  0  0  0  0  0  0  0  0  0  0
  193.4130  175.6660  146.7690 O   0  0  0  0  0  0  0  0  0  0  0  0
  191.7190  171.9620  140.3080 O   0  0  0  0  0  0  0  0  0  0  0  0
  189.6800  175.0890  147.2500 C   0  0  0  0  0  3  0  0  0  0  0  0
  192.8290  173.9410  140.9150 N   0  0  0  0  0  0  0  0  0  0  0  0
  188.7800  175.9570  143.1420 C   0  0  0  0  0  2  0  0  0  0  0  0
  193.7500  173.4390  145.7630 O   0  0  0  0  0  0  0  0  0  0  0  0
  193.8280  174.9220  145.5310 S   0  0  0  0  0  0  0  0  0  0  0  0
  195.7740  175.8720  143.7950 C   0  0  0  0  0  0  0  0  0  0  0  0
  192.8050  175.3970  144.1570 C   0  0  1  0  0  3  0  0  0  0  0  0
  187.4090  172.8480  141.7750 O   0  0  0  0  0  0  0  0  0  0  0  0
  191.2340  174.7630  142.4770 C   0  0  1  0  0  3  0  0  0  0  0  0
  194.7230  176.0840  142.7360 C   0  0  0  0  0  2  0  0  0  0  0  0
  195.4470  175.3700  145.1010 N   0  0  0  0  0  2  0  0  0  0  0  0
  188.1920  173.8280  141.8690 C   0  0  0  0  0  0  0  0  0  0  0  0
  190.4080  175.0350  144.9190 C   0  0  0  0  0  0  0  0  0  0  0  0
  191.7470  173.0350  140.9680 C   0  0  0  0  0  0  0  0  0  0  0  0
  196.9660  176.1810  143.5370 O   0  0  0  0  0  0  0  0  0  0  0  0
  189.4400  173.8360  141.0450 C   0  0  0  0  0  2  0  0  0  0  0  0
  190.6060  174.7220  146.2730 C   0  0  0  0  0  3  0  0  0  0  0  0
  188.2840  176.0680  145.5480 C   0  0  0  0  0  3  0  0  0  0  0  0
  188.5230  175.7700  146.8880 C   0  0  0  0  0  3  0  0  0  0  0  0
  187.8470  174.9160  142.7310 N   0  0  0  0  0  2  0  0  0  0  0  0
  192.5800  175.0700  141.7880 C   0  0  1  0  0  3  0  0  0  0  0  0
  190.6630  173.4750  141.8740 C   0  0  2  0  0  3  0  0  0  0  0  0
  193.5910  175.0870  142.9140 C   0  0  2  0  0  3  0  0  0  0  0  0
  193.9530  173.8410  140.0000 C   0  0  0  0  0  1  0  0  0  0  0  0
  191.5180  174.6070  143.9710 C   0  0  2  0  0  3  0  0  0  0  0  0
  1 16  2  0  0  0  0
  1 21  1  0  0  0  0
  3 17  2  0  0  0  0
  5 17  1  0  0  0  0
  5 24  1  0  0  0  0
  6  1  1  0  0  0  0
  8  7  2  0  0  0  0
  8  2  2  0  0  0  0
  9 14  1  0  0  0  0
 10  8  1  1  0  0  0
 11 15  2  0  0  0  0
 12 28  1  0  0  0  0
 13 26  1  0  0  0  0
 13  9  1  0  0  0  0
 14  8  1  0  0  0  0
 15 23  1  0  0  0  0
 16 20  1  0  0  0  0
 17 25  1  0  0  0  0
 18  9  2  0  0  0  0
 19 15  1  0  0  0  0
 19 25  1  0  0  0  0
 20  4  2  0  0  0  0
 21 22  2  0  0  0  0
 22  4  1  0  0  0  0
 23  6  1  0  0  0  0
 24 12  1  0  0  0  0
 24 26  1  0  0  0  0
 25 12  1  0  0  0  0
 26 10  1  0  0  0  0
 27  5  1  0  0  0  0
 28 10  1  0  0  0  0
 28 16  1  0  0  0  0
M  END
>  <MODEL>
9

>  <REMARK>
 VINA RESULT:      -7.3      2.855      5.783
  Name = 
  0 active torsions:
  status: ('A' for Active; 'I' for Inactive)
                            x       y       z     vdW  Elec       q    Type
                         _______ _______ _______ _____ _____    ______ ____

>  <TORSDO>
F 0

$$$$
