=
 OpenBabel11112418063D

 34 40  0  0  1  0  0  0  0  0999 V2000
  192.6320  175.9340  146.1750 C   0  0  1  0  0  3  0  0  0  0  0  0
  194.8410  174.9140  146.1300 C   0  0  0  0  0  2  0  0  0  0  0  0
  187.0240  176.6980  143.0000 C   0  0  1  0  0  3  0  0  0  0  0  0
  190.2940  176.8420  146.0920 C   0  0  2  0  0  3  0  0  0  0  0  0
  189.3840  177.5300  143.8390 C   0  0  2  0  0  3  0  0  0  0  0  0
  188.5080  178.1580  141.5090 C   0  0  0  0  0  1  0  0  0  0  0  0
  187.4450  175.3820  142.3650 C   0  0  0  0  0  1  0  0  0  0  0  0
  186.5760  177.6420  145.1940 C   0  0  0  0  0  2  0  0  0  0  0  0
  193.9380  175.7980  144.2560 C   0  0  2  0  0  3  0  0  0  0  0  0
  194.3460  174.4640  141.4040 C   0  0  0  0  0  2  0  0  0  0  0  0
  190.4510  176.6400  143.1980 C   0  0  0  0  0  2  0  0  0  0  0  0
  187.9170  177.7230  145.9400 C   0  0  0  0  0  2  0  0  0  0  0  0
  192.7310  175.9310  143.3130 C   0  0  1  0  0  3  0  0  0  0  0  0
  195.8630  174.6390  145.0280 C   0  0  0  0  0  2  0  0  0  0  0  0
  189.0400  176.9600  145.2260 C   0  0  2  0  0  3  0  0  0  0  0  0
  186.5100  176.4420  144.3560 N   0  0  0  0  0  2  0  0  0  0  0  0
  194.9740  174.0100  142.7350 C   0  0  1  0  0  3  0  0  0  0  0  0
  191.3670  176.0580  145.3110 C   0  0  1  0  0  3  0  0  0  0  0  0
  188.1560  177.7510  142.9320 C   0  0  1  0  0  3  0  0  0  0  0  0
  191.6710  176.6910  144.0080 N   0  0  2  0  0  0  0  0  0  0  0  0
  191.1160  176.2040  148.1160 C   0  0  0  0  0  2  0  0  0  0  0  0
  194.2830  175.9840  141.2330 C   0  0  0  0  0  2  0  0  0  0  0  0
  189.9840  176.1440  147.2790 O   0  0  0  0  0  0  0  0  0  0  0  0
  193.1170  176.6290  141.9950 C   0  0  0  0  0  2  0  0  0  0  0  0
  195.2140  175.1490  143.7490 C   0  0  1  0  0  3  0  0  0  0  0  0
  192.2470  175.3520  147.5340 C   0  0  0  0  0  2  0  0  0  0  0  0
  193.5620  175.0710  145.4540 N   0  0  2  0  0  0  0  0  0  0  0  0
  194.1920  172.9900  143.2920 O   0  0  0  0  0  0  0  0  0  0  0  0
  193.4840  172.5150  142.2860 O   0  0  0  0  0  0  0  0  0  0  0  0
  191.2850  172.6510  144.7050 O   0  0  0  0  0  0  0  0  0  0  0  0
  191.1370  172.3910  142.5020 C   0  0  0  0  0  3  0  0  0  0  0  0
  192.4490  171.7930  142.8860 C   0  0  2  0  0  3  0  0  0  0  0  0
  190.5240  172.8610  143.5700 C   0  0  0  0  0  3  0  0  0  0  0  0
  192.4990  171.9910  144.3980 C   0  0  0  0  0  2  0  0  0  0  0  0
  1 26  1  1  0  0  0
  3  7  1  1  0  0  0
  3 16  1  0  0  0  0
  4 23  1  1  0  0  0
  5 11  1  6  0  0  0
  5 15  1  0  0  0  0
  6 19  1  0  0  0  0
  8 12  1  0  0  0  0
  9 27  1  0  0  0  0
 10 17  1  0  0  0  0
 11 20  1  0  0  0  0
 13 20  1  0  0  0  0
 13  9  1  0  0  0  0
 14  2  1  0  0  0  0
 15 12  1  0  0  0  0
 15  4  1  0  0  0  0
 16  8  1  0  0  0  0
 17 28  1  0  0  0  0
 17 25  1  0  0  0  0
 18  4  1  0  0  0  0
 18  1  1  0  0  0  0
 19  3  1  0  0  0  0
 19  5  1  0  0  0  0
 20 18  1  0  0  0  0
 22 10  1  0  0  0  0
 22 24  1  0  0  0  0
 23 21  1  0  0  0  0
 24 13  1  0  0  0  0
 25  9  1  0  0  0  0
 25 14  1  0  0  0  0
 26 21  1  0  0  0  0
 27  2  1  0  0  0  0
 27  1  1  0  0  0  0
 29 32  1  0  0  0  0
 29 28  1  0  0  0  0
 31 32  1  0  0  0  0
 31 33  2  0  0  0  0
 32 34  1  0  0  0  0
 33 30  1  0  0  0  0
 34 30  1  0  0  0  0
M  END
>  <MODEL>
1

>  <REMARK>
 VINA RESULT:      -6.9      0.000      0.000
  Name = 
  3 active torsions:
  status: ('A' for Active; 'I' for Inactive)
    1  A    between atoms: C_17  and  O_28
    2  A    between atoms: O_28  and  O_29
    3  A    between atoms: O_29  and  C_32
                            x       y       z     vdW  Elec       q    Type
                         _______ _______ _______ _____ _____    ______ ____

>  <TORSDO>
F 3

$$$$
=
 OpenBabel11112418063D

 34 40  0  0  1  0  0  0  0  0999 V2000
  190.6530  173.5680  141.8360 C   0  0  1  0  0  3  0  0  0  0  0  0
  188.2990  174.1570  142.0040 C   0  0  0  0  0  2  0  0  0  0  0  0
  196.5410  174.2400  144.4830 C   0  0  1  0  0  3  0  0  0  0  0  0
  193.0970  172.9960  141.8620 C   0  0  2  0  0  3  0  0  0  0  0  0
  194.7070  174.7710  142.6610 C   0  0  2  0  0  3  0  0  0  0  0  0
  196.2780  176.6050  143.5350 C   0  0  0  0  0  1  0  0  0  0  0  0
  195.7190  174.5020  145.7340 C   0  0  0  0  0  1  0  0  0  0  0  0
  196.8610  172.5180  142.7980 C   0  0  0  0  0  2  0  0  0  0  0  0
  189.9070  175.6800  142.4580 C   0  0  2  0  0  3  0  0  0  0  0  0
  189.5900  177.8110  144.7900 C   0  0  0  0  0  2  0  0  0  0  0  0
  193.5280  175.4460  143.3640 C   0  0  0  0  0  2  0  0  0  0  0  0
  195.5780  172.4580  141.9550 C   0  0  0  0  0  2  0  0  0  0  0  0
  191.2180  176.0340  143.1780 C   0  0  1  0  0  3  0  0  0  0  0  0
  187.5450  175.4130  142.4370 C   0  0  0  0  0  2  0  0  0  0  0  0
  194.4250  173.2610  142.5720 C   0  0  2  0  0  3  0  0  0  0  0  0
  196.5560  172.7940  144.2040 N   0  0  0  0  0  2  0  0  0  0  0  0
  188.5410  176.7830  144.3290 C   0  0  1  0  0  3  0  0  0  0  0  0
  191.9930  173.8290  142.5430 C   0  0  1  0  0  3  0  0  0  0  0  0
  196.0690  175.1160  143.2970 C   0  0  1  0  0  3  0  0  0  0  0  0
  192.3200  175.2720  142.5530 N   0  0  2  0  0  0  0  0  0  0  0  0
  191.6380  171.3980  141.1590 C   0  0  0  0  0  2  0  0  0  0  0  0
  190.3820  178.4470  143.6450 C   0  0  0  0  0  2  0  0  0  0  0  0
  192.7730  171.6270  141.9640 O   0  0  0  0  0  0  0  0  0  0  0  0
  191.5070  177.5460  143.1160 C   0  0  0  0  0  2  0  0  0  0  0  0
  188.6270  176.4080  142.8340 C   0  0  1  0  0  3  0  0  0  0  0  0
  190.4080  172.0610  141.7830 C   0  0  0  0  0  2  0  0  0  0  0  0
  189.6230  174.2640  142.5980 N   0  0  2  0  0  0  0  0  0  0  0  0
  188.6160  175.6460  145.1440 O   0  0  0  0  0  0  0  0  0  0  0  0
  188.7710  176.1130  146.3670 O   0  0  0  0  0  0  0  0  0  0  0  0
  191.4620  174.2790  146.0490 O   0  0  0  0  0  0  0  0  0  0  0  0
  190.7890  175.7780  147.5460 C   0  0  0  0  0  3  0  0  0  0  0  0
  189.5400  175.1490  147.0240 C   0  0  2  0  0  3  0  0  0  0  0  0
  191.8420  175.2480  146.9580 C   0  0  0  0  0  3  0  0  0  0  0  0
  190.0550  174.1300  146.0110 C   0  0  0  0  0  2  0  0  0  0  0  0
  1 26  1  1  0  0  0
  1 18  1  0  0  0  0
  1 27  1  0  0  0  0
  2 14  1  0  0  0  0
  2 27  1  0  0  0  0
  3  7  1  1  0  0  0
  4 23  1  1  0  0  0
  4 18  1  0  0  0  0
  4 15  1  0  0  0  0
  5 19  1  0  0  0  0
  5 11  1  1  0  0  0
  8 16  1  0  0  0  0
  9 27  1  0  0  0  0
  9 25  1  0  0  0  0
  9 13  1  0  0  0  0
 12 15  1  0  0  0  0
 12  8  1  0  0  0  0
 14 25  1  0  0  0  0
 15  5  1  0  0  0  0
 16  3  1  0  0  0  0
 17 10  1  0  0  0  0
 17 28  1  0  0  0  0
 18 20  1  0  0  0  0
 19  6  1  0  0  0  0
 19  3  1  0  0  0  0
 20 13  1  0  0  0  0
 20 11  1  0  0  0  0
 21 26  1  0  0  0  0
 21 23  1  0  0  0  0
 22 10  1  0  0  0  0
 24 13  1  0  0  0  0
 24 22  1  0  0  0  0
 25 17  1  0  0  0  0
 28 29  1  0  0  0  0
 29 32  1  0  0  0  0
 30 33  1  0  0  0  0
 32 31  1  0  0  0  0
 33 31  2  0  0  0  0
 34 30  1  0  0  0  0
 34 32  1  0  0  0  0
M  END
>  <MODEL>
2

>  <REMARK>
 VINA RESULT:      -6.8      1.763      6.842
  Name = 
  3 active torsions:
  status: ('A' for Active; 'I' for Inactive)
    1  A    between atoms: C_17  and  O_28
    2  A    between atoms: O_28  and  O_29
    3  A    between atoms: O_29  and  C_32
                            x       y       z     vdW  Elec       q    Type
                         _______ _______ _______ _____ _____    ______ ____

>  <TORSDO>
F 3

$$$$
=
 OpenBabel11112418063D

 34 40  0  0  1  0  0  0  0  0999 V2000
  192.4010  176.4050  146.2920 C   0  0  1  0  0  3  0  0  0  0  0  0
  194.6360  175.4530  146.4160 C   0  0  0  0  0  2  0  0  0  0  0  0
  186.8320  176.5720  142.9640 C   0  0  1  0  0  3  0  0  0  0  0  0
  190.0410  177.2260  146.0540 C   0  0  2  0  0  3  0  0  0  0  0  0
  189.1530  177.5770  143.7160 C   0  0  2  0  0  3  0  0  0  0  0  0
  188.3020  177.8610  141.3100 C   0  0  0  0  0  1  0  0  0  0  0  0
  187.2990  175.1960  142.5180 C   0  0  0  0  0  1  0  0  0  0  0  0
  186.3200  177.7890  145.0040 C   0  0  0  0  0  2  0  0  0  0  0  0
  193.7440  176.0510  144.4280 C   0  0  2  0  0  3  0  0  0  0  0  0
  194.2390  174.3570  141.7880 C   0  0  0  0  0  2  0  0  0  0  0  0
  190.2550  176.6410  143.2160 C   0  0  0  0  0  2  0  0  0  0  0  0
  187.6440  178.0090  145.7510 C   0  0  0  0  0  2  0  0  0  0  0  0
  192.5510  176.0200  143.4580 C   0  0  1  0  0  3  0  0  0  0  0  0
  195.6850  175.0620  145.3770 C   0  0  0  0  0  2  0  0  0  0  0  0
  188.8000  177.1900  145.1620 C   0  0  2  0  0  3  0  0  0  0  0  0
  186.3010  176.4860  144.3350 N   0  0  0  0  0  2  0  0  0  0  0  0
  194.8540  174.1050  143.1770 C   0  0  1  0  0  3  0  0  0  0  0  0
  191.1480  176.3750  145.4010 C   0  0  1  0  0  3  0  0  0  0  0  0
  187.9370  177.6390  142.7700 C   0  0  1  0  0  3  0  0  0  0  0  0
  191.4580  176.8350  144.0290 N   0  0  2  0  0  0  0  0  0  0  0  0
  190.8440  176.8900  148.1560 C   0  0  0  0  0  2  0  0  0  0  0  0
  194.1380  175.8370  141.4120 C   0  0  0  0  0  2  0  0  0  0  0  0
  189.7280  176.6850  147.3190 O   0  0  0  0  0  0  0  0  0  0  0  0
  192.9420  176.5450  142.0630 C   0  0  0  0  0  2  0  0  0  0  0  0
  195.0460  175.3760  144.0310 C   0  0  1  0  0  3  0  0  0  0  0  0
  192.0070  176.0010  147.7120 C   0  0  0  0  0  2  0  0  0  0  0  0
  193.3660  175.4810  145.7070 N   0  0  2  0  0  0  0  0  0  0  0  0
  194.0910  173.1460  143.8550 O   0  0  0  0  0  0  0  0  0  0  0  0
  194.8380  172.0600  143.8660 O   0  0  0  0  0  0  0  0  0  0  0  0
  195.3100  169.3820  145.6860 O   0  0  0  0  0  0  0  0  0  0  0  0
  196.1210  171.4500  145.7520 C   0  0  0  0  0  3  0  0  0  0  0  0
  194.7500  171.5790  145.1750 C   0  0  2  0  0  3  0  0  0  0  0  0
  196.3820  170.1860  146.0190 C   0  0  0  0  0  3  0  0  0  0  0  0
  194.2390  170.1410  145.1570 C   0  0  0  0  0  2  0  0  0  0  0  0
  1 26  1  1  0  0  0
  3  7  1  1  0  0  0
  3 16  1  0  0  0  0
  4 23  1  1  0  0  0
  5 11  1  6  0  0  0
  5 15  1  0  0  0  0
  6 19  1  0  0  0  0
  8 12  1  0  0  0  0
  9 27  1  0  0  0  0
 10 17  1  0  0  0  0
 11 20  1  0  0  0  0
 13 20  1  0  0  0  0
 13  9  1  0  0  0  0
 14  2  1  0  0  0  0
 15 12  1  0  0  0  0
 15  4  1  0  0  0  0
 16  8  1  0  0  0  0
 17 28  1  0  0  0  0
 17 25  1  0  0  0  0
 18  4  1  0  0  0  0
 18  1  1  0  0  0  0
 19  3  1  0  0  0  0
 19  5  1  0  0  0  0
 20 18  1  0  0  0  0
 22 10  1  0  0  0  0
 22 24  1  0  0  0  0
 23 21  1  0  0  0  0
 24 13  1  0  0  0  0
 25  9  1  0  0  0  0
 25 14  1  0  0  0  0
 26 21  1  0  0  0  0
 27  1  1  0  0  0  0
 27  2  1  0  0  0  0
 28 29  1  0  0  0  0
 29 32  1  0  0  0  0
 30 33  1  0  0  0  0
 31 33  2  0  0  0  0
 32 31  1  0  0  0  0
 34 32  1  0  0  0  0
 34 30  1  0  0  0  0
M  END
>  <MODEL>
3

>  <REMARK>
 VINA RESULT:      -6.6      1.451      2.023
  Name = 
  3 active torsions:
  status: ('A' for Active; 'I' for Inactive)
    1  A    between atoms: C_17  and  O_28
    2  A    between atoms: O_28  and  O_29
    3  A    between atoms: O_29  and  C_32
                            x       y       z     vdW  Elec       q    Type
                         _______ _______ _______ _____ _____    ______ ____

>  <TORSDO>
F 3

$$$$
=
 OpenBabel11112418063D

 34 40  0  0  1  0  0  0  0  0999 V2000
  189.1910  174.4770  140.9460 C   0  0  1  0  0  3  0  0  0  0  0  0
  187.4620  176.1660  141.2240 C   0  0  0  0  0  2  0  0  0  0  0  0
  194.1800  171.4130  143.7440 C   0  0  1  0  0  3  0  0  0  0  0  0
  190.9780  172.7170  140.8600 C   0  0  2  0  0  3  0  0  0  0  0  0
  193.1370  173.1800  142.0850 C   0  0  2  0  0  3  0  0  0  0  0  0
  195.2830  173.6980  143.3970 C   0  0  0  0  0  1  0  0  0  0  0  0
  193.4410  171.8090  145.0130 C   0  0  0  0  0  1  0  0  0  0  0  0
  193.8120  170.1600  141.6950 C   0  0  0  0  0  2  0  0  0  0  0  0
  189.5390  176.4910  142.0540 C   0  0  2  0  0  3  0  0  0  0  0  0
  190.0280  177.9500  144.8310 C   0  0  0  0  0  2  0  0  0  0  0  0
  192.3790  174.2160  142.9170 C   0  0  0  0  0  2  0  0  0  0  0  0
  192.8050  170.9530  140.8480 C   0  0  0  0  0  2  0  0  0  0  0  0
  190.7360  175.9510  142.8540 C   0  0  1  0  0  3  0  0  0  0  0  0
  187.3960  177.5130  141.9420 C   0  0  0  0  0  2  0  0  0  0  0  0
  192.1450  172.0970  141.6280 C   0  0  2  0  0  3  0  0  0  0  0  0
  193.4990  170.2640  143.1220 N   0  0  0  0  0  2  0  0  0  0  0  0
  188.6780  177.7430  144.1220 C   0  0  1  0  0  3  0  0  0  0  0  0
  190.3660  173.8480  141.7110 C   0  0  1  0  0  3  0  0  0  0  0  0
  194.3840  172.6240  142.8020 C   0  0  1  0  0  3  0  0  0  0  0  0
  191.3730  174.8690  142.0750 N   0  0  2  0  0  0  0  0  0  0  0  0
  189.0230  172.3020  139.7730 C   0  0  0  0  0  2  0  0  0  0  0  0
  191.1820  178.2920  143.8850 C   0  0  0  0  0  2  0  0  0  0  0  0
  189.9950  171.7340  140.6210 O   0  0  0  0  0  0  0  0  0  0  0  0
  191.7560  177.0630  143.1650 C   0  0  0  0  0  2  0  0  0  0  0  0
  188.7670  177.6880  142.5810 C   0  0  1  0  0  3  0  0  0  0  0  0
  188.2260  173.3700  140.5240 C   0  0  0  0  0  2  0  0  0  0  0  0
  188.5610  175.4400  141.8420 N   0  0  2  0  0  0  0  0  0  0  0  0
  188.0540  176.5990  144.6360 O   0  0  0  0  0  0  0  0  0  0  0  0
  187.4370  177.0080  145.7270 O   0  0  0  0  0  0  0  0  0  0  0  0
  184.5170  177.9900  146.8300 O   0  0  0  0  0  0  0  0  0  0  0  0
  185.8060  178.6070  145.1280 C   0  0  0  0  0  3  0  0  0  0  0  0
  186.1010  177.1610  145.3460 C   0  0  2  0  0  3  0  0  0  0  0  0
  184.9050  179.0210  145.9960 C   0  0  0  0  0  3  0  0  0  0  0  0
  185.1920  176.7870  146.5130 C   0  0  0  0  0  2  0  0  0  0  0  0
  1 26  1  1  0  0  0
  1 18  1  0  0  0  0
  1 27  1  0  0  0  0
  2 27  1  0  0  0  0
  2 14  1  0  0  0  0
  3  7  1  1  0  0  0
  4 23  1  1  0  0  0
  4 15  1  0  0  0  0
  4 18  1  0  0  0  0
  5 19  1  0  0  0  0
  5 11  1  1  0  0  0
  8 16  1  0  0  0  0
  9 25  1  0  0  0  0
  9 13  1  0  0  0  0
 12 15  1  0  0  0  0
 12  8  1  0  0  0  0
 13 24  1  0  0  0  0
 14 25  1  0  0  0  0
 15  5  1  0  0  0  0
 16  3  1  0  0  0  0
 17 28  1  0  0  0  0
 17 10  1  0  0  0  0
 18 20  1  0  0  0  0
 19  6  1  0  0  0  0
 19  3  1  0  0  0  0
 20 13  1  0  0  0  0
 20 11  1  0  0  0  0
 21 26  1  0  0  0  0
 21 23  1  0  0  0  0
 22 10  1  0  0  0  0
 24 22  1  0  0  0  0
 25 17  1  0  0  0  0
 27  9  1  0  0  0  0
 28 29  1  0  0  0  0
 31 32  1  0  0  0  0
 31 33  2  0  0  0  0
 32 29  1  0  0  0  0
 32 34  1  0  0  0  0
 33 30  1  0  0  0  0
 34 30  1  0  0  0  0
M  END
>  <MODEL>
4

>  <REMARK>
 VINA RESULT:      -6.5      2.564      7.506
  Name = 
  3 active torsions:
  status: ('A' for Active; 'I' for Inactive)
    1  A    between atoms: C_17  and  O_28
    2  A    between atoms: O_28  and  O_29
    3  A    between atoms: O_29  and  C_32
                            x       y       z     vdW  Elec       q    Type
                         _______ _______ _______ _____ _____    ______ ____

>  <TORSDO>
F 3

$$$$
=
 OpenBabel11112418063D

 34 40  0  0  1  0  0  0  0  0999 V2000
  192.9600  175.5780  144.9300 C   0  0  1  0  0  3  0  0  0  0  0  0
  190.7870  175.8140  145.9980 C   0  0  0  0  0  2  0  0  0  0  0  0
  196.0940  174.5420  139.3420 C   0  0  1  0  0  3  0  0  0  0  0  0
  195.1130  175.3900  143.6550 C   0  0  2  0  0  3  0  0  0  0  0  0
  195.1810  173.7900  141.7020 C   0  0  2  0  0  3  0  0  0  0  0  0
  195.1600  172.1840  139.6980 C   0  0  0  0  0  1  0  0  0  0  0  0
  194.8100  175.1100  138.7580 C   0  0  0  0  0  1  0  0  0  0  0  0
  197.8640  175.1590  140.8890 C   0  0  0  0  0  2  0  0  0  0  0  0
  191.1170  174.2730  144.3770 C   0  0  2  0  0  3  0  0  0  0  0  0
  188.8850  173.5970  142.2230 C   0  0  0  0  0  2  0  0  0  0  0  0
  193.6540  173.8620  141.6600 C   0  0  0  0  0  2  0  0  0  0  0  0
  197.2510  175.1930  142.2970 C   0  0  0  0  0  2  0  0  0  0  0  0
  191.6640  173.9270  142.9820 C   0  0  1  0  0  3  0  0  0  0  0  0
  189.4240  175.1530  145.7940 C   0  0  0  0  0  2  0  0  0  0  0  0
  195.7190  175.1110  142.2790 C   0  0  2  0  0  3  0  0  0  0  0  0
  196.9100  175.6410  139.8860 N   0  0  0  0  0  2  0  0  0  0  0  0
  188.7540  174.5580  143.4180 C   0  0  1  0  0  3  0  0  0  0  0  0
  193.5780  175.2980  143.5500 C   0  0  1  0  0  3  0  0  0  0  0  0
  195.8060  173.4000  140.3470 C   0  0  1  0  0  3  0  0  0  0  0  0
  193.1400  173.9860  143.0260 N   0  0  2  0  0  0  0  0  0  0  0  0
  195.0370  176.8420  145.4050 C   0  0  0  0  0  2  0  0  0  0  0  0
  189.6730  172.3220  142.5320 C   0  0  0  0  0  2  0  0  0  0  0  0
  195.4710  176.6890  144.0720 O   0  0  0  0  0  0  0  0  0  0  0  0
  191.1940  172.5340  142.5200 C   0  0  0  0  0  2  0  0  0  0  0  0
  189.6230  174.1820  144.6380 C   0  0  1  0  0  3  0  0  0  0  0  0
  193.5090  176.9030  145.4570 C   0  0  0  0  0  2  0  0  0  0  0  0
  191.5120  175.6180  144.7520 N   0  0  2  0  0  0  0  0  0  0  0  0
  189.0130  175.8670  142.9930 O   0  0  0  0  0  0  0  0  0  0  0  0
  187.8340  176.3600  142.6680 O   0  0  0  0  0  0  0  0  0  0  0  0
  185.9800  178.9990  143.2190 O   0  0  0  0  0  0  0  0  0  0  0  0
  187.4740  177.8870  144.4320 C   0  0  0  0  0  3  0  0  0  0  0  0
  187.9040  177.7120  143.0140 C   0  0  2  0  0  3  0  0  0  0  0  0
  186.3810  178.6210  144.4860 C   0  0  0  0  0  3  0  0  0  0  0  0
  186.8560  178.4940  142.2280 C   0  0  0  0  0  2  0  0  0  0  0  0
  1 26  1  6  0  0  0
  3  7  1  1  0  0  0
  3 16  1  0  0  0  0
  3 19  1  0  0  0  0
  4 23  1  6  0  0  0
  5 11  1  6  0  0  0
  5 15  1  0  0  0  0
  6 19  1  0  0  0  0
  8 12  1  0  0  0  0
  9 25  1  0  0  0  0
  9 27  1  0  0  0  0
 10 22  1  0  0  0  0
 10 17  1  0  0  0  0
 11 20  1  0  0  0  0
 13 20  1  0  0  0  0
 13  9  1  0  0  0  0
 14  2  1  0  0  0  0
 15 12  1  0  0  0  0
 15  4  1  0  0  0  0
 16  8  1  0  0  0  0
 17 25  1  0  0  0  0
 18  4  1  0  0  0  0
 18  1  1  0  0  0  0
 19  5  1  0  0  0  0
 20 18  1  0  0  0  0
 21 26  1  0  0  0  0
 23 21  1  0  0  0  0
 24 22  1  0  0  0  0
 24 13  1  0  0  0  0
 25 14  1  0  0  0  0
 27  1  1  0  0  0  0
 27  2  1  0  0  0  0
 28 17  1  0  0  0  0
 29 28  1  0  0  0  0
 29 32  1  0  0  0  0
 30 33  1  0  0  0  0
 31 33  2  0  0  0  0
 32 31  1  0  0  0  0
 34 32  1  0  0  0  0
 34 30  1  0  0  0  0
M  END
>  <MODEL>
5

>  <REMARK>
 VINA RESULT:      -6.3      2.669      6.866
  Name = 
  3 active torsions:
  status: ('A' for Active; 'I' for Inactive)
    1  A    between atoms: C_17  and  O_28
    2  A    between atoms: O_28  and  O_29
    3  A    between atoms: O_29  and  C_32
                            x       y       z     vdW  Elec       q    Type
                         _______ _______ _______ _____ _____    ______ ____

>  <TORSDO>
F 3

$$$$
=
 OpenBabel11112418063D

 34 40  0  0  1  0  0  0  0  0999 V2000
  190.4490  172.8640  140.7700 C   0  0  1  0  0  3  0  0  0  0  0  0
  192.2780  171.5380  139.8680 C   0  0  0  0  0  2  0  0  0  0  0  0
  188.7400  177.3720  145.1130 C   0  0  1  0  0  3  0  0  0  0  0  0
  188.7000  174.3650  141.7610 C   0  0  2  0  0  3  0  0  0  0  0  0
  188.8680  174.8900  144.2260 C   0  0  2  0  0  3  0  0  0  0  0  0
  189.1330  175.4210  146.7250 C   0  0  0  0  0  1  0  0  0  0  0  0
  190.2080  177.7470  144.9910 C   0  0  0  0  0  1  0  0  0  0  0  0
  186.7620  177.1350  143.7220 C   0  0  0  0  0  2  0  0  0  0  0  0
  192.1220  171.9320  142.0880 C   0  0  2  0  0  3  0  0  0  0  0  0
  194.6860  172.4440  143.8880 C   0  0  0  0  0  2  0  0  0  0  0  0
  190.3430  174.4920  144.1540 C   0  0  0  0  0  2  0  0  0  0  0  0
  186.9860  175.9180  142.8110 C   0  0  0  0  0  2  0  0  0  0  0  0
  191.9040  172.9330  143.2350 C   0  0  1  0  0  3  0  0  0  0  0  0
  193.5140  170.8770  140.4770 C   0  0  0  0  0  2  0  0  0  0  0  0
  188.4330  175.4100  142.8460 C   0  0  2  0  0  3  0  0  0  0  0  0
  188.0100  177.8720  143.9350 N   0  0  0  0  0  2  0  0  0  0  0  0
  194.6650  172.0830  142.3910 C   0  0  1  0  0  3  0  0  0  0  0  0
  190.1710  173.9140  141.8570 C   0  0  1  0  0  3  0  0  0  0  0  0
  188.5590  175.8590  145.3850 C   0  0  1  0  0  3  0  0  0  0  0  0
  190.5000  173.3910  143.2010 N   0  0  2  0  0  0  0  0  0  0  0  0
  188.5660  173.9010  139.5380 C   0  0  0  0  0  2  0  0  0  0  0  0
  193.6400  171.7010  144.7220 C   0  0  0  0  0  2  0  0  0  0  0  0
  188.4720  174.9360  140.4910 O   0  0  0  0  0  0  0  0  0  0  0  0
  192.2340  172.3050  144.6030 C   0  0  0  0  0  2  0  0  0  0  0  0
  193.4590  171.2220  141.9580 C   0  0  1  0  0  3  0  0  0  0  0  0
  190.0160  173.4260  139.4160 C   0  0  0  0  0  2  0  0  0  0  0  0
  191.8780  172.5720  140.8090 N   0  0  2  0  0  0  0  0  0  0  0  0
  194.7520  173.2560  141.6300 O   0  0  0  0  0  0  0  0  0  0  0  0
  195.6460  174.0000  142.2520 O   0  0  0  0  0  0  0  0  0  0  0  0
  193.0120  175.9260  142.0030 O   0  0  0  0  0  0  0  0  0  0  0  0
  194.8360  175.9690  143.2720 C   0  0  0  0  0  3  0  0  0  0  0  0
  195.2540  175.3170  141.9970 C   0  0  2  0  0  3  0  0  0  0  0  0
  193.5590  176.2900  143.2180 C   0  0  0  0  0  3  0  0  0  0  0  0
  193.9760  175.3180  141.1630 C   0  0  0  0  0  2  0  0  0  0  0  0
  1 26  1  6  0  0  0
  1 27  1  0  0  0  0
  1 18  1  0  0  0  0
  2 14  1  0  0  0  0
  2 27  1  0  0  0  0
  3  7  1  6  0  0  0
  3 19  1  0  0  0  0
  4 23  1  6  0  0  0
  4 18  1  0  0  0  0
  4 15  1  0  0  0  0
  5 11  1  6  0  0  0
  5 19  1  0  0  0  0
  8 16  1  0  0  0  0
  9 13  1  0  0  0  0
 10 22  1  0  0  0  0
 12 15  1  0  0  0  0
 12  8  1  0  0  0  0
 13 24  1  0  0  0  0
 14 25  1  0  0  0  0
 15  5  1  0  0  0  0
 16  3  1  0  0  0  0
 17 10  1  0  0  0  0
 18 20  1  0  0  0  0
 19  6  1  0  0  0  0
 20 13  1  0  0  0  0
 20 11  1  0  0  0  0
 21 23  1  0  0  0  0
 24 22  1  0  0  0  0
 25  9  1  0  0  0  0
 25 17  1  0  0  0  0
 26 21  1  0  0  0  0
 27  9  1  0  0  0  0
 28 29  1  0  0  0  0
 28 17  1  0  0  0  0
 30 33  1  0  0  0  0
 32 29  1  0  0  0  0
 32 31  1  0  0  0  0
 33 31  2  0  0  0  0
 34 32  1  0  0  0  0
 34 30  1  0  0  0  0
M  END
>  <MODEL>
6

>  <REMARK>
 VINA RESULT:      -6.3      2.326      4.865
  Name = 
  3 active torsions:
  status: ('A' for Active; 'I' for Inactive)
    1  A    between atoms: C_17  and  O_28
    2  A    between atoms: O_28  and  O_29
    3  A    between atoms: O_29  and  C_32
                            x       y       z     vdW  Elec       q    Type
                         _______ _______ _______ _____ _____    ______ ____

>  <TORSDO>
F 3

$$$$
=
 OpenBabel11112418063D

 34 40  0  0  1  0  0  0  0  0999 V2000
  192.3770  172.4250  143.0010 C   0  0  1  0  0  3  0  0  0  0  0  0
  194.6750  171.6850  143.3050 C   0  0  0  0  0  2  0  0  0  0  0  0
  188.3870  177.5380  142.7680 C   0  0  1  0  0  3  0  0  0  0  0  0
  190.0810  173.3680  142.6310 C   0  0  2  0  0  3  0  0  0  0  0  0
  189.4320  175.4220  143.9500 C   0  0  2  0  0  3  0  0  0  0  0  0
  188.8620  177.5400  145.2850 C   0  0  0  0  0  1  0  0  0  0  0  0
  189.6710  178.2580  142.3870 C   0  0  0  0  0  1  0  0  0  0  0  0
  187.0000  175.6900  142.0150 C   0  0  0  0  0  2  0  0  0  0  0  0
  193.8270  173.3660  144.5550 C   0  0  2  0  0  3  0  0  0  0  0  0
  195.5710  175.8880  145.3810 C   0  0  0  0  0  2  0  0  0  0  0  0
  190.9230  175.6900  144.1610 C   0  0  0  0  0  2  0  0  0  0  0  0
  187.7880  174.3950  142.2630 C   0  0  0  0  0  2  0  0  0  0  0  0
  193.0420  174.6870  144.6270 C   0  0  1  0  0  3  0  0  0  0  0  0
  195.8360  172.1520  144.1820 C   0  0  0  0  0  2  0  0  0  0  0  0
  189.2550  174.6540  142.6280 C   0  0  2  0  0  3  0  0  0  0  0  0
  187.8900  176.7800  141.6070 N   0  0  0  0  0  2  0  0  0  0  0  0
  196.0510  174.6450  144.6090 C   0  0  1  0  0  3  0  0  0  0  0  0
  191.5380  173.7130  142.9970 C   0  0  1  0  0  3  0  0  0  0  0  0
  188.5680  176.6950  144.0540 C   0  0  1  0  0  3  0  0  0  0  0  0
  191.6280  174.4130  144.2970 N   0  0  2  0  0  0  0  0  0  0  0  0
  190.6800  171.5280  141.4350 C   0  0  0  0  0  2  0  0  0  0  0  0
  194.5890  175.5760  146.5130 C   0  0  0  0  0  2  0  0  0  0  0  0
  190.0520  172.7860  141.3460 O   0  0  0  0  0  0  0  0  0  0  0  0
  193.1550  175.3370  146.0190 C   0  0  0  0  0  2  0  0  0  0  0  0
  195.2930  173.3460  144.9550 C   0  0  1  0  0  3  0  0  0  0  0  0
  192.1830  171.7040  141.6680 C   0  0  0  0  0  2  0  0  0  0  0  0
  193.7660  172.8170  143.2140 N   0  0  2  0  0  0  0  0  0  0  0  0
  196.0090  174.9080  143.2340 O   0  0  0  0  0  0  0  0  0  0  0  0
  195.7700  176.2020  143.1420 O   0  0  0  0  0  0  0  0  0  0  0  0
  195.5070  174.6770  140.2580 O   0  0  0  0  0  0  0  0  0  0  0  0
  194.1920  176.0650  141.3910 C   0  0  0  0  0  3  0  0  0  0  0  0
  195.5850  176.4350  141.7760 C   0  0  2  0  0  3  0  0  0  0  0  0
  194.2100  175.0650  140.5330 C   0  0  0  0  0  3  0  0  0  0  0  0
  196.4440  175.4630  140.9720 C   0  0  0  0  0  2  0  0  0  0  0  0
  1 26  1  6  0  0  0
  1 27  1  0  0  0  0
  2 14  1  0  0  0  0
  3  7  1  6  0  0  0
  3 19  1  0  0  0  0
  4 23  1  6  0  0  0
  4 18  1  0  0  0  0
  5 19  1  0  0  0  0
  5 11  1  6  0  0  0
  8 12  1  0  0  0  0
  9 13  1  0  0  0  0
  9 25  1  0  0  0  0
 10 22  1  0  0  0  0
 11 20  1  0  0  0  0
 12 15  1  0  0  0  0
 13 24  1  0  0  0  0
 14 25  1  0  0  0  0
 15  4  1  0  0  0  0
 15  5  1  0  0  0  0
 16  8  1  0  0  0  0
 16  3  1  0  0  0  0
 17 25  1  0  0  0  0
 17 10  1  0  0  0  0
 18  1  1  0  0  0  0
 18 20  1  0  0  0  0
 19  6  1  0  0  0  0
 20 13  1  0  0  0  0
 21 26  1  0  0  0  0
 23 21  1  0  0  0  0
 24 22  1  0  0  0  0
 27  2  1  0  0  0  0
 27  9  1  0  0  0  0
 28 17  1  0  0  0  0
 29 28  1  0  0  0  0
 30 33  1  0  0  0  0
 30 34  1  0  0  0  0
 31 32  1  0  0  0  0
 32 29  1  0  0  0  0
 33 31  2  0  0  0  0
 34 32  1  0  0  0  0
M  END
>  <MODEL>
7

>  <REMARK>
 VINA RESULT:      -6.2      2.129      4.324
  Name = 
  3 active torsions:
  status: ('A' for Active; 'I' for Inactive)
    1  A    between atoms: C_17  and  O_28
    2  A    between atoms: O_28  and  O_29
    3  A    between atoms: O_29  and  C_32
                            x       y       z     vdW  Elec       q    Type
                         _______ _______ _______ _____ _____    ______ ____

>  <TORSDO>
F 3

$$$$
=
 OpenBabel11112418063D

 34 40  0  0  1  0  0  0  0  0999 V2000
  193.0100  172.5110  141.9200 C   0  0  1  0  0  3  0  0  0  0  0  0
  195.2070  171.5330  141.5490 C   0  0  0  0  0  2  0  0  0  0  0  0
  189.7510  177.6920  144.0760 C   0  0  1  0  0  3  0  0  0  0  0  0
  190.8320  173.7000  142.2950 C   0  0  2  0  0  3  0  0  0  0  0  0
  190.6610  175.2250  144.3010 C   0  0  2  0  0  3  0  0  0  0  0  0
  190.5780  176.7980  146.3290 C   0  0  0  0  0  1  0  0  0  0  0  0
  191.0520  178.3960  143.7230 C   0  0  0  0  0  1  0  0  0  0  0  0
  188.0350  176.3280  143.0290 C   0  0  0  0  0  2  0  0  0  0  0  0
  194.7810  172.7490  143.4070 C   0  0  2  0  0  3  0  0  0  0  0  0
  196.9480  174.6920  144.6750 C   0  0  0  0  0  2  0  0  0  0  0  0
  192.1890  175.2870  144.3150 C   0  0  0  0  0  2  0  0  0  0  0  0
  188.6690  174.9680  142.6990 C   0  0  0  0  0  2  0  0  0  0  0  0
  194.1990  174.0220  144.0420 C   0  0  1  0  0  3  0  0  0  0  0  0
  196.5340  171.5810  142.3050 C   0  0  0  0  0  2  0  0  0  0  0  0
  190.1950  174.9710  142.8580 C   0  0  2  0  0  3  0  0  0  0  0  0
  188.9950  177.4180  142.8430 N   0  0  0  0  0  2  0  0  0  0  0  0
  197.1410  173.7540  143.4700 C   0  0  1  0  0  3  0  0  0  0  0  0
  192.3600  173.7840  142.4840 C   0  0  1  0  0  3  0  0  0  0  0  0
  189.9990  176.4490  144.9660 C   0  0  1  0  0  3  0  0  0  0  0  0
  192.7290  173.9890  143.9020 N   0  0  2  0  0  0  0  0  0  0  0  0
  191.0010  172.3380  140.4810 C   0  0  0  0  0  2  0  0  0  0  0  0
  196.1060  174.0900  145.8030 C   0  0  0  0  0  2  0  0  0  0  0  0
  190.5410  173.5960  140.9180 O   0  0  0  0  0  0  0  0  0  0  0  0
  194.5970  174.1480  145.5250 C   0  0  0  0  0  2  0  0  0  0  0  0
  196.2730  172.4780  143.5080 C   0  0  1  0  0  3  0  0  0  0  0  0
  192.5310  172.3050  140.4840 C   0  0  0  0  0  2  0  0  0  0  0  0
  194.4550  172.6970  141.9940 N   0  0  2  0  0  0  0  0  0  0  0  0
  196.9380  174.4730  142.2850 O   0  0  0  0  0  0  0  0  0  0  0  0
  196.7600  175.7210  142.6700 O   0  0  0  0  0  0  0  0  0  0  0  0
  195.7880  175.2670  139.5790 O   0  0  0  0  0  0  0  0  0  0  0  0
  194.9300  176.3520  141.3190 C   0  0  0  0  0  3  0  0  0  0  0  0
  196.4090  176.4090  141.5050 C   0  0  2  0  0  3  0  0  0  0  0  0
  194.6380  175.6940  140.2150 C   0  0  0  0  0  3  0  0  0  0  0  0
  196.9470  175.6600  140.2890 C   0  0  0  0  0  2  0  0  0  0  0  0
  1 26  1  6  0  0  0
  1 27  1  0  0  0  0
  1 18  1  0  0  0  0
  2 27  1  0  0  0  0
  2 14  1  0  0  0  0
  3  7  1  6  0  0  0
  3 19  1  0  0  0  0
  4 23  1  6  0  0  0
  4 18  1  0  0  0  0
  4 15  1  0  0  0  0
  5 11  1  6  0  0  0
  5 19  1  0  0  0  0
  9 25  1  0  0  0  0
  9 13  1  0  0  0  0
 10 22  1  0  0  0  0
 12 15  1  0  0  0  0
 12  8  1  0  0  0  0
 13 24  1  0  0  0  0
 14 25  1  0  0  0  0
 15  5  1  0  0  0  0
 16  8  1  0  0  0  0
 16  3  1  0  0  0  0
 17 25  1  0  0  0  0
 17 10  1  0  0  0  0
 18 20  1  0  0  0  0
 19  6  1  0  0  0  0
 20 13  1  0  0  0  0
 20 11  1  0  0  0  0
 21 26  1  0  0  0  0
 21 23  1  0  0  0  0
 24 22  1  0  0  0  0
 27  9  1  0  0  0  0
 28 29  1  0  0  0  0
 28 17  1  0  0  0  0
 30 33  1  0  0  0  0
 30 34  1  0  0  0  0
 31 32  1  0  0  0  0
 32 29  1  0  0  0  0
 33 31  2  0  0  0  0
 34 32  1  0  0  0  0
M  END
>  <MODEL>
8

>  <REMARK>
 VINA RESULT:      -6.2      2.337      4.840
  Name = 
  3 active torsions:
  status: ('A' for Active; 'I' for Inactive)
    1  A    between atoms: C_17  and  O_28
    2  A    between atoms: O_28  and  O_29
    3  A    between atoms: O_29  and  C_32
                            x       y       z     vdW  Elec       q    Type
                         _______ _______ _______ _____ _____    ______ ____

>  <TORSDO>
F 3

$$$$
=
 OpenBabel11112418063D

 34 40  0  0  1  0  0  0  0  0999 V2000
  189.3060  174.7620  142.9200 C   0  0  1  0  0  3  0  0  0  0  0  0
  191.5050  173.7890  143.2890 C   0  0  0  0  0  2  0  0  0  0  0  0
  185.0050  179.1860  144.9330 C   0  0  1  0  0  3  0  0  0  0  0  0
  187.1050  175.9330  142.6330 C   0  0  2  0  0  3  0  0  0  0  0  0
  185.9160  176.7190  144.7190 C   0  0  2  0  0  3  0  0  0  0  0  0
  184.7910  177.5350  146.8780 C   0  0  0  0  0  1  0  0  0  0  0  0
  186.2610  179.8600  145.4630 C   0  0  0  0  0  1  0  0  0  0  0  0
  184.0710  178.3870  142.8370 C   0  0  0  0  0  2  0  0  0  0  0  0
  190.1830  174.3530  145.0340 C   0  0  2  0  0  3  0  0  0  0  0  0
  191.3690  175.5870  147.7080 C   0  0  0  0  0  2  0  0  0  0  0  0
  187.2600  176.6490  145.4450 C   0  0  0  0  0  2  0  0  0  0  0  0
  184.8970  177.1670  142.4030 C   0  0  0  0  0  2  0  0  0  0  0  0
  189.2730  175.3880  145.7150 C   0  0  1  0  0  3  0  0  0  0  0  0
  192.3350  173.4770  144.5330 C   0  0  0  0  0  2  0  0  0  0  0  0
  186.1780  176.9940  143.2280 C   0  0  2  0  0  3  0  0  0  0  0  0
  184.9170  179.3970  143.4770 N   0  0  0  0  0  2  0  0  0  0  0  0
  192.1650  175.0870  146.4890 C   0  0  1  0  0  3  0  0  0  0  0  0
  188.3670  175.8270  143.5110 C   0  0  1  0  0  3  0  0  0  0  0  0
  184.9250  177.7040  145.3720 C   0  0  1  0  0  3  0  0  0  0  0  0
  188.0340  175.5210  144.9200 N   0  0  2  0  0  0  0  0  0  0  0  0
  188.1910  175.2370  140.7600 C   0  0  0  0  0  2  0  0  0  0  0  0
  190.1600  174.7170  148.0610 C   0  0  0  0  0  2  0  0  0  0  0  0
  187.4800  176.3130  141.3280 O   0  0  0  0  0  0  0  0  0  0  0  0
  188.9420  174.9840  147.1640 C   0  0  0  0  0  2  0  0  0  0  0  0
  191.4830  173.9440  145.7050 C   0  0  1  0  0  3  0  0  0  0  0  0
  189.5500  175.0820  141.4460 C   0  0  0  0  0  2  0  0  0  0  0  0
  190.5390  174.7960  143.6990 N   0  0  2  0  0  0  0  0  0  0  0  0
  192.4620  176.1710  145.6530 O   0  0  0  0  0  0  0  0  0  0  0  0
  193.7150  176.4770  145.9240 O   0  0  0  0  0  0  0  0  0  0  0  0
  195.7720  176.2280  143.3900 O   0  0  0  0  0  0  0  0  0  0  0  0
  193.5790  176.5450  143.5680 C   0  0  0  0  0  3  0  0  0  0  0  0
  194.1700  177.1600  144.7930 C   0  0  2  0  0  3  0  0  0  0  0  0
  194.5310  176.0330  142.8140 C   0  0  0  0  0  3  0  0  0  0  0  0
  195.6670  176.9220  144.6200 C   0  0  0  0  0  2  0  0  0  0  0  0
  1 26  1  6  0  0  0
  1 18  1  0  0  0  0
  1 27  1  0  0  0  0
  2 27  1  0  0  0  0
  2 14  1  0  0  0  0
  3 19  1  0  0  0  0
  3  7  1  6  0  0  0
  4 23  1  6  0  0  0
  4 15  1  0  0  0  0
  4 18  1  0  0  0  0
  5 19  1  0  0  0  0
  5 11  1  1  0  0  0
  8 16  1  0  0  0  0
  9 25  1  0  0  0  0
  9 13  1  0  0  0  0
 10 22  1  0  0  0  0
 12  8  1  0  0  0  0
 12 15  1  0  0  0  0
 13 24  1  0  0  0  0
 14 25  1  0  0  0  0
 15  5  1  0  0  0  0
 16  3  1  0  0  0  0
 17 10  1  0  0  0  0
 18 20  1  0  0  0  0
 19  6  1  0  0  0  0
 20 11  1  0  0  0  0
 20 13  1  0  0  0  0
 21 23  1  0  0  0  0
 21 26  1  0  0  0  0
 24 22  1  0  0  0  0
 25 17  1  0  0  0  0
 27  9  1  0  0  0  0
 28 29  1  0  0  0  0
 28 17  1  0  0  0  0
 30 34  1  0  0  0  0
 31 32  1  0  0  0  0
 32 29  1  0  0  0  0
 33 30  1  0  0  0  0
 33 31  2  0  0  0  0
 34 32  1  0  0  0  0
M  END
>  <MODEL>
9

>  <REMARK>
 VINA RESULT:      -6.1      2.358      5.157
  Name = 
  3 active torsions:
  status: ('A' for Active; 'I' for Inactive)
    1  A    between atoms: C_17  and  O_28
    2  A    between atoms: O_28  and  O_29
    3  A    between atoms: O_29  and  C_32
                            x       y       z     vdW  Elec       q    Type
                         _______ _______ _______ _____ _____    ______ ____

>  <TORSDO>
F 3

$$$$
