=
 OpenBabel11112418103D

 34 37  0  0  1  0  0  0  0  0999 V2000
  189.5150  174.0350  142.0520 C   0  0  2  0  0  3  0  0  0  0  0  0
  189.1300  176.4100  141.8400 O   0  0  0  0  0  0  0  0  0  0  0  0
  190.0700  171.6040  142.2790 C   0  0  0  0  0  2  0  0  0  0  0  0
  189.9650  175.6730  143.9690 C   0  0  2  0  0  3  0  0  0  0  0  0
  188.6820  176.6100  146.5280 C   0  0  0  0  0  2  0  0  0  0  0  0
  189.7610  174.3790  144.8010 C   0  0  1  0  0  3  0  0  0  0  0  0
  188.2230  176.8180  142.8280 C   0  0  0  0  0  2  0  0  0  0  0  0
  187.9670  176.5090  145.2630 N   0  0  0  0  0  0  0  0  0  0  0  0
  190.4590  173.0180  142.6900 C   0  0  2  0  0  3  0  0  0  0  0  0
  190.5210  173.1590  144.2200 C   0  0  1  0  0  3  0  0  0  0  0  0
  189.0870  172.4860  140.2070 N   0  0  0  0  0  2  0  0  0  0  0  0
  188.9850  175.2180  147.0500 C   0  0  0  0  0  2  0  0  0  0  0  0
  190.0400  171.5190  140.7530 C   0  0  0  0  0  2  0  0  0  0  0  0
  190.1260  174.5900  146.2690 C   0  0  0  0  0  2  0  0  0  0  0  0
  188.9220  176.7690  144.1740 C   0  0  1  0  0  3  0  0  0  0  0  0
  189.5400  173.8390  140.5360 C   0  0  0  0  0  2  0  0  0  0  0  0
  189.9570  175.4470  142.4460 C   0  0  1  0  0  3  0  0  0  0  0  0
  191.8260  172.9700  144.7340 O   0  0  0  0  0  0  0  0  0  0  0  0
  192.7580  173.2330  143.7150 C   0  0  0  0  0  2  0  0  0  0  0  0
  193.5960  175.3600  142.7090 C   0  0  0  0  0  1  0  0  0  0  0  0
  193.4770  174.5420  143.9890 C   0  0  2  0  0  3  0  0  0  0  0  0
  194.8450  174.2670  144.6180 C   0  0  1  0  0  3  0  0  0  0  0  0
  195.8730  174.7430  143.8010 O   0  0  0  0  0  1  0  0  0  0  0  0
  194.9630  174.8840  146.0060 C   0  0  0  0  0  2  0  0  0  0  0  0
  193.7750  175.7810  146.3120 C   0  0  0  0  0  2  0  0  0  0  0  0
  194.2100  176.9890  146.8600 O   0  0  0  0  0  0  0  0  0  0  0  0
  194.7350  177.6940  145.7790 C   0  0  0  0  0  1  0  0  0  0  0  0
  186.9880  177.5910  145.2930 C   0  0  0  0  0  2  0  0  0  0  0  0
  185.6510  177.0350  145.4170 N   0  0  0  0  0  2  0  0  0  0  0  0
  184.7240  178.0210  144.8790 C   0  0  1  0  0  3  0  0  0  0  0  0
  184.4210  178.3320  147.2510 O   0  0  0  0  0  1  0  0  0  0  0  0
  183.9540  178.7210  145.9950 C   0  0  0  0  0  2  0  0  0  0  0  0
  185.5600  179.2070  143.7590 S   0  0  0  0  0  0  0  0  0  0  0  0
  184.9560  178.4750  142.2070 C   0  0  0  0  0  1  0  0  0  0  0  0
  1 16  1  6  0  0  0
  1 17  1  0  0  0  0
  1  9  1  0  0  0  0
  2 17  1  0  0  0  0
  2  7  1  0  0  0  0
  3  9  1  0  0  0  0
  4 15  1  0  0  0  0
  4  6  1  0  0  0  0
  5 12  1  0  0  0  0
  6 14  1  0  0  0  0
  7 15  1  0  0  0  0
  8 28  1  0  0  0  0
  8  5  1  0  0  0  0
  9 10  1  0  0  0  0
 10 18  1  0  0  0  0
 10  6  1  0  0  0  0
 11 16  1  0  0  0  0
 11 13  1  0  0  0  0
 13  3  1  0  0  0  0
 14 12  1  0  0  0  0
 15  8  1  0  0  0  0
 17  4  1  0  0  0  0
 19 21  1  0  0  0  0
 19 18  1  0  0  0  0
 20 21  1  0  0  0  0
 21 22  1  0  0  0  0
 22 24  1  0  0  0  0
 23 22  1  0  0  0  0
 24 25  1  0  0  0  0
 25 26  1  0  0  0  0
 27 26  1  0  0  0  0
 28 29  1  0  0  0  0
 30 29  1  0  0  0  0
 30 32  1  0  0  0  0
 32 31  1  0  0  0  0
 33 30  1  0  0  0  0
 34 33  1  0  0  0  0
M  END
>  <MODEL>
1

>  <REMARK>
 VINA RESULT:      -6.4      0.000      0.000
  Name = 
  12 active torsions:
  status: ('A' for Active; 'I' for Inactive)
    1  A    between atoms: C_3  and  C_16
    2  A    between atoms: C_3  and  C_19
    3  A    between atoms: C_5  and  O_11
    4  A    between atoms: C_5  and  C_19
    5  A    between atoms: C_8  and  O_12
    6  A    between atoms: C_8  and  C_16
    7  A    between atoms: O_11  and  C_20
    8  A    between atoms: N_17  and  C_28
    9  A    between atoms: C_28  and  N_29
   10  A    between atoms: N_29  and  C_32
   11  A    between atoms: S_31  and  C_32
   12  A    between atoms: C_32  and  C_34
                            x       y       z     vdW  Elec       q    Type
                         _______ _______ _______ _____ _____    ______ ____

>  <TORSDO>
F 12

$$$$
=
 OpenBabel11112418103D

 34 37  0  0  1  0  0  0  0  0999 V2000
  189.6890  173.4450  142.2340 C   0  0  2  0  0  3  0  0  0  0  0  0
  190.8660  172.4200  144.0770 O   0  0  0  0  0  0  0  0  0  0  0  0
  188.3320  174.4670  140.3950 C   0  0  0  0  0  2  0  0  0  0  0  0
  189.6330  174.4130  144.6050 C   0  0  2  0  0  3  0  0  0  0  0  0
  190.9060  176.6260  146.2040 C   0  0  0  0  0  2  0  0  0  0  0  0
  189.3120  175.7060  143.8090 C   0  0  1  0  0  3  0  0  0  0  0  0
  191.7580  173.3500  144.6270 C   0  0  0  0  0  2  0  0  0  0  0  0
  191.6630  175.7010  145.3720 N   0  0  0  0  0  0  0  0  0  0  0  0
  188.4020  174.1930  141.8910 C   0  0  2  0  0  3  0  0  0  0  0  0
  188.2450  175.4890  142.7050 C   0  0  1  0  0  3  0  0  0  0  0  0
  189.7470  172.5010  139.9780 N   0  0  0  0  0  2  0  0  0  0  0  0
  190.1050  177.5640  145.3210 C   0  0  0  0  0  2  0  0  0  0  0  0
  188.4770  173.1460  139.6390 C   0  0  0  0  0  2  0  0  0  0  0  0
  188.9000  176.8490  144.7360 C   0  0  0  0  0  2  0  0  0  0  0  0
  190.9590  174.4090  145.3630 C   0  0  1  0  0  3  0  0  0  0  0  0
  189.7440  172.1640  141.4020 C   0  0  0  0  0  2  0  0  0  0  0  0
  189.7100  173.1450  143.7360 C   0  0  1  0  0  3  0  0  0  0  0  0
  186.9100  175.7200  143.1120 O   0  0  0  0  0  0  0  0  0  0  0  0
  186.4150  176.8450  142.4280 C   0  0  0  0  0  2  0  0  0  0  0  0
  184.2260  178.0430  142.3390 C   0  0  0  0  0  1  0  0  0  0  0  0
  185.3310  177.5200  143.2490 C   0  0  2  0  0  3  0  0  0  0  0  0
  185.9380  178.6340  144.1050 C   0  0  1  0  0  3  0  0  0  0  0  0
  185.5620  179.8910  143.6250 O   0  0  0  0  0  1  0  0  0  0  0  0
  185.5400  178.5020  145.5700 C   0  0  0  0  0  2  0  0  0  0  0  0
  185.3960  177.0430  145.9710 C   0  0  0  0  0  2  0  0  0  0  0  0
  185.7840  176.8680  147.3000 O   0  0  0  0  0  0  0  0  0  0  0  0
  186.5550  177.9920  147.5910 C   0  0  0  0  0  1  0  0  0  0  0  0
  192.9400  175.5320  146.0570 C   0  0  0  0  0  2  0  0  0  0  0  0
  193.8510  176.5930  145.6600 N   0  0  0  0  0  2  0  0  0  0  0  0
  195.1430  175.9750  145.3990 C   0  0  1  0  0  3  0  0  0  0  0  0
  196.4080  174.0540  146.1220 O   0  0  0  0  0  1  0  0  0  0  0  0
  195.1320  174.4940  145.7660 C   0  0  0  0  0  2  0  0  0  0  0  0
  195.7040  176.2610  143.6770 S   0  0  0  0  0  0  0  0  0  0  0  0
  194.8800  174.8090  142.9540 C   0  0  0  0  0  1  0  0  0  0  0  0
  1 16  1  6  0  0  0
  1 17  1  0  0  0  0
  2  7  1  0  0  0  0
  3  9  1  0  0  0  0
  4 15  1  0  0  0  0
  6  4  1  0  0  0  0
  6 14  1  0  0  0  0
  7 15  1  0  0  0  0
  8 28  1  0  0  0  0
  8  5  1  0  0  0  0
  9  1  1  0  0  0  0
  9 10  1  0  0  0  0
 10 18  1  0  0  0  0
 10  6  1  0  0  0  0
 11 16  1  0  0  0  0
 12  5  1  0  0  0  0
 13 11  1  0  0  0  0
 13  3  1  0  0  0  0
 14 12  1  0  0  0  0
 15  8  1  0  0  0  0
 17  2  1  0  0  0  0
 17  4  1  0  0  0  0
 19 18  1  0  0  0  0
 19 21  1  0  0  0  0
 20 21  1  0  0  0  0
 21 22  1  0  0  0  0
 22 24  1  0  0  0  0
 23 22  1  0  0  0  0
 24 25  1  0  0  0  0
 25 26  1  0  0  0  0
 26 27  1  0  0  0  0
 29 28  1  0  0  0  0
 30 29  1  0  0  0  0
 30 32  1  0  0  0  0
 32 31  1  0  0  0  0
 33 30  1  0  0  0  0
 34 33  1  0  0  0  0
M  END
>  <MODEL>
2

>  <REMARK>
 VINA RESULT:      -6.4      2.666      7.104
  Name = 
  12 active torsions:
  status: ('A' for Active; 'I' for Inactive)
    1  A    between atoms: C_3  and  C_16
    2  A    between atoms: C_3  and  C_19
    3  A    between atoms: C_5  and  O_11
    4  A    between atoms: C_5  and  C_19
    5  A    between atoms: C_8  and  O_12
    6  A    between atoms: C_8  and  C_16
    7  A    between atoms: O_11  and  C_20
    8  A    between atoms: N_17  and  C_28
    9  A    between atoms: C_28  and  N_29
   10  A    between atoms: N_29  and  C_32
   11  A    between atoms: S_31  and  C_32
   12  A    between atoms: C_32  and  C_34
                            x       y       z     vdW  Elec       q    Type
                         _______ _______ _______ _____ _____    ______ ____

>  <TORSDO>
F 12

$$$$
=
 OpenBabel11112418103D

 34 37  0  0  1  0  0  0  0  0999 V2000
  189.1940  175.2400  142.5340 C   0  0  2  0  0  3  0  0  0  0  0  0
  189.7750  172.9920  143.1970 O   0  0  0  0  0  0  0  0  0  0  0  0
  188.4920  177.5770  141.9700 C   0  0  0  0  0  2  0  0  0  0  0  0
  190.4940  174.7370  144.6830 C   0  0  2  0  0  3  0  0  0  0  0  0
  193.3230  174.8060  145.7150 C   0  0  0  0  0  2  0  0  0  0  0  0
  190.9580  176.2020  144.4570 C   0  0  1  0  0  3  0  0  0  0  0  0
  191.1670  172.8990  143.3360 C   0  0  0  0  0  2  0  0  0  0  0  0
  192.9480  174.1980  144.4460 N   0  0  0  0  0  0  0  0  0  0  0  0
  188.7670  176.5930  143.1000 C   0  0  2  0  0  3  0  0  0  0  0  0
  189.7920  177.1580  144.0970 C   0  0  1  0  0  3  0  0  0  0  0  0
  187.9450  175.7000  140.4810 N   0  0  0  0  0  2  0  0  0  0  0  0
  193.1980  176.3140  145.6120 C   0  0  0  0  0  2  0  0  0  0  0  0
  187.4580  176.9700  141.0220 C   0  0  0  0  0  2  0  0  0  0  0  0
  191.7390  176.7350  145.6560 C   0  0  0  0  0  2  0  0  0  0  0  0
  191.5800  173.6700  144.5760 C   0  0  1  0  0  3  0  0  0  0  0  0
  188.1070  174.7460  141.5800 C   0  0  0  0  0  2  0  0  0  0  0  0
  189.4200  174.2600  143.6890 C   0  0  1  0  0  3  0  0  0  0  0  0
  189.1830  177.7980  145.2020 O   0  0  0  0  0  0  0  0  0  0  0  0
  187.9130  177.2330  145.4120 C   0  0  0  0  0  2  0  0  0  0  0  0
  188.3850  175.4870  147.1340 C   0  0  0  0  0  1  0  0  0  0  0  0
  187.7470  176.8460  146.8700 C   0  0  2  0  0  3  0  0  0  0  0  0
  186.2650  176.8630  147.2520 C   0  0  1  0  0  3  0  0  0  0  0  0
  185.9930  177.9060  148.1420 O   0  0  0  0  0  1  0  0  0  0  0  0
  185.3670  176.9840  146.0270 C   0  0  0  0  0  2  0  0  0  0  0  0
  184.3310  178.0810  146.2130 C   0  0  0  0  0  2  0  0  0  0  0  0
  184.5310  179.0980  145.2790 O   0  0  0  0  0  0  0  0  0  0  0  0
  184.4730  178.4570  144.0440 C   0  0  0  0  0  1  0  0  0  0  0  0
  193.8660  173.0780  144.2740 C   0  0  0  0  0  2  0  0  0  0  0  0
  194.9610  173.4740  143.4030 N   0  0  0  0  0  2  0  0  0  0  0  0
  196.1990  173.1960  144.1160 C   0  0  1  0  0  3  0  0  0  0  0  0
  196.5090  175.5700  143.8240 O   0  0  0  0  0  1  0  0  0  0  0  0
  196.8410  174.4800  144.6320 C   0  0  0  0  0  2  0  0  0  0  0  0
  195.9620  171.9540  145.4430 S   0  0  0  0  0  0  0  0  0  0  0  0
  197.4560  170.9820  145.0760 C   0  0  0  0  0  1  0  0  0  0  0  0
  1 16  1  6  0  0  0
  1  9  1  0  0  0  0
  1 17  1  0  0  0  0
  2  7  1  0  0  0  0
  2 17  1  0  0  0  0
  3  9  1  0  0  0  0
  6  4  1  0  0  0  0
  6 14  1  0  0  0  0
  7 15  1  0  0  0  0
  8 15  1  0  0  0  0
  8  5  1  0  0  0  0
  9 10  1  0  0  0  0
 10  6  1  0  0  0  0
 10 18  1  0  0  0  0
 11 13  1  0  0  0  0
 11 16  1  0  0  0  0
 12 14  1  0  0  0  0
 12  5  1  0  0  0  0
 13  3  1  0  0  0  0
 15  4  1  0  0  0  0
 17  4  1  0  0  0  0
 18 19  1  0  0  0  0
 19 21  1  0  0  0  0
 21 20  1  0  0  0  0
 21 22  1  0  0  0  0
 22 23  1  0  0  0  0
 24 25  1  0  0  0  0
 24 22  1  0  0  0  0
 26 25  1  0  0  0  0
 27 26  1  0  0  0  0
 28  8  1  0  0  0  0
 29 30  1  0  0  0  0
 29 28  1  0  0  0  0
 30 32  1  0  0  0  0
 30 33  1  0  0  0  0
 31 32  1  0  0  0  0
 34 33  1  0  0  0  0
M  END
>  <MODEL>
3

>  <REMARK>
 VINA RESULT:      -6.3      3.177      7.893
  Name = 
  12 active torsions:
  status: ('A' for Active; 'I' for Inactive)
    1  A    between atoms: C_3  and  C_16
    2  A    between atoms: C_3  and  C_19
    3  A    between atoms: C_5  and  O_11
    4  A    between atoms: C_5  and  C_19
    5  A    between atoms: C_8  and  O_12
    6  A    between atoms: C_8  and  C_16
    7  A    between atoms: O_11  and  C_20
    8  A    between atoms: N_17  and  C_28
    9  A    between atoms: C_28  and  N_29
   10  A    between atoms: N_29  and  C_32
   11  A    between atoms: S_31  and  C_32
   12  A    between atoms: C_32  and  C_34
                            x       y       z     vdW  Elec       q    Type
                         _______ _______ _______ _____ _____    ______ ____

>  <TORSDO>
F 12

$$$$
=
 OpenBabel11112418103D

 34 37  0  0  1  0  0  0  0  0999 V2000
  189.0510  175.5140  142.3870 C   0  0  2  0  0  3  0  0  0  0  0  0
  189.6660  173.2170  142.8070 O   0  0  0  0  0  0  0  0  0  0  0  0
  188.3250  177.8910  142.0830 C   0  0  0  0  0  2  0  0  0  0  0  0
  190.5080  174.8270  144.3780 C   0  0  2  0  0  3  0  0  0  0  0  0
  193.4080  174.8050  145.1920 C   0  0  0  0  0  2  0  0  0  0  0  0
  190.9640  176.3050  144.2440 C   0  0  1  0  0  3  0  0  0  0  0  0
  191.0630  173.1120  142.8300 C   0  0  0  0  0  2  0  0  0  0  0  0
  192.9330  174.3100  143.9070 N   0  0  0  0  0  0  0  0  0  0  0  0
  188.6780  176.8130  143.0990 C   0  0  2  0  0  3  0  0  0  0  0  0
  189.7810  177.2900  144.0590 C   0  0  1  0  0  3  0  0  0  0  0  0
  187.6510  176.1500  140.4840 N   0  0  0  0  0  2  0  0  0  0  0  0
  193.2870  176.3170  145.2290 C   0  0  0  0  0  2  0  0  0  0  0  0
  187.2160  177.3700  141.1680 C   0  0  0  0  0  2  0  0  0  0  0  0
  191.8390  176.7320  145.4210 C   0  0  0  0  0  2  0  0  0  0  0  0
  191.5760  173.7730  144.0960 C   0  0  1  0  0  3  0  0  0  0  0  0
  187.8910  175.1060  141.4800 C   0  0  0  0  0  2  0  0  0  0  0  0
  189.3580  174.4390  143.4330 C   0  0  1  0  0  3  0  0  0  0  0  0
  189.2630  177.8320  145.2590 O   0  0  0  0  0  0  0  0  0  0  0  0
  187.9730  177.3150  145.4720 C   0  0  0  0  0  2  0  0  0  0  0  0
  188.4120  175.4640  147.0910 C   0  0  0  0  0  1  0  0  0  0  0  0
  187.8240  176.8590  146.9130 C   0  0  2  0  0  3  0  0  0  0  0  0
  186.3530  176.9140  147.3310 C   0  0  1  0  0  3  0  0  0  0  0  0
  186.1070  178.0260  148.1400 O   0  0  0  0  0  1  0  0  0  0  0  0
  185.4230  176.9410  146.1240 C   0  0  0  0  0  2  0  0  0  0  0  0
  184.3630  178.0200  146.2720 C   0  0  0  0  0  2  0  0  0  0  0  0
  184.5580  179.0220  145.3190 O   0  0  0  0  0  0  0  0  0  0  0  0
  184.5200  178.3540  144.0970 C   0  0  0  0  0  1  0  0  0  0  0  0
  193.8280  173.2090  143.5700 C   0  0  0  0  0  2  0  0  0  0  0  0
  195.1010  173.7380  143.1110 N   0  0  0  0  0  2  0  0  0  0  0  0
  194.8330  174.5260  141.9160 C   0  0  1  0  0  3  0  0  0  0  0  0
  195.3120  176.7710  141.1790 O   0  0  0  0  0  1  0  0  0  0  0  0
  195.8800  175.6200  141.7280 C   0  0  0  0  0  2  0  0  0  0  0  0
  194.6520  173.4710  140.4260 S   0  0  0  0  0  0  0  0  0  0  0  0
  193.0890  174.2040  139.8510 C   0  0  0  0  0  1  0  0  0  0  0  0
  1 16  1  6  0  0  0
  1  9  1  0  0  0  0
  1 17  1  0  0  0  0
  2  7  1  0  0  0  0
  2 17  1  0  0  0  0
  3  9  1  0  0  0  0
  5 12  1  0  0  0  0
  6  4  1  0  0  0  0
  6 14  1  0  0  0  0
  7 15  1  0  0  0  0
  8 15  1  0  0  0  0
  8  5  1  0  0  0  0
  9 10  1  0  0  0  0
 10  6  1  0  0  0  0
 10 18  1  0  0  0  0
 11 13  1  0  0  0  0
 11 16  1  0  0  0  0
 12 14  1  0  0  0  0
 13  3  1  0  0  0  0
 15  4  1  0  0  0  0
 17  4  1  0  0  0  0
 18 19  1  0  0  0  0
 19 21  1  0  0  0  0
 21 20  1  0  0  0  0
 21 22  1  0  0  0  0
 22 23  1  0  0  0  0
 24 25  1  0  0  0  0
 24 22  1  0  0  0  0
 26 25  1  0  0  0  0
 27 26  1  0  0  0  0
 28  8  1  0  0  0  0
 29 28  1  0  0  0  0
 30 29  1  0  0  0  0
 31 32  1  0  0  0  0
 32 30  1  0  0  0  0
 33 30  1  0  0  0  0
 34 33  1  0  0  0  0
M  END
>  <MODEL>
4

>  <REMARK>
 VINA RESULT:      -6.3      3.070      7.489
  Name = 
  12 active torsions:
  status: ('A' for Active; 'I' for Inactive)
    1  A    between atoms: C_3  and  C_16
    2  A    between atoms: C_3  and  C_19
    3  A    between atoms: C_5  and  O_11
    4  A    between atoms: C_5  and  C_19
    5  A    between atoms: C_8  and  O_12
    6  A    between atoms: C_8  and  C_16
    7  A    between atoms: O_11  and  C_20
    8  A    between atoms: N_17  and  C_28
    9  A    between atoms: C_28  and  N_29
   10  A    between atoms: N_29  and  C_32
   11  A    between atoms: S_31  and  C_32
   12  A    between atoms: C_32  and  C_34
                            x       y       z     vdW  Elec       q    Type
                         _______ _______ _______ _____ _____    ______ ____

>  <TORSDO>
F 12

$$$$
=
 OpenBabel11112418103D

 34 37  0  0  1  0  0  0  0  0999 V2000
  187.7900  177.0370  146.2740 C   0  0  2  0  0  3  0  0  0  0  0  0
  190.0990  177.5920  146.7180 O   0  0  0  0  0  0  0  0  0  0  0  0
  185.3930  176.5820  145.7120 C   0  0  0  0  0  2  0  0  0  0  0  0
  189.6350  176.7340  144.5230 C   0  0  2  0  0  3  0  0  0  0  0  0
  191.3320  174.5440  143.3420 C   0  0  0  0  0  2  0  0  0  0  0  0
  188.6140  175.6980  143.9800 C   0  0  1  0  0  3  0  0  0  0  0  0
  190.8920  176.4540  146.5200 C   0  0  0  0  0  2  0  0  0  0  0  0
  191.1440  174.7280  144.7740 N   0  0  0  0  0  0  0  0  0  0  0  0
  186.7350  177.0570  145.1700 C   0  0  2  0  0  3  0  0  0  0  0  0
  187.1630  176.2410  143.9390 C   0  0  1  0  0  3  0  0  0  0  0  0
  186.0410  177.3410  147.9580 N   0  0  0  0  0  2  0  0  0  0  0  0
  190.0420  174.0410  142.7220 C   0  0  0  0  0  2  0  0  0  0  0  0
  185.0130  177.4370  146.9200 C   0  0  0  0  0  2  0  0  0  0  0  0
  189.0280  175.1660  142.6090 C   0  0  0  0  0  2  0  0  0  0  0  0
  190.9570  176.1650  145.0320 C   0  0  1  0  0  3  0  0  0  0  0  0
  187.2940  177.8930  147.4390 C   0  0  0  0  0  2  0  0  0  0  0  0
  189.1150  177.5610  145.7130 C   0  0  1  0  0  3  0  0  0  0  0  0
  186.7910  176.8550  142.7200 O   0  0  0  0  0  0  0  0  0  0  0  0
  187.1030  178.2230  142.7860 C   0  0  0  0  0  2  0  0  0  0  0  0
  185.5530  179.8720  143.8440 C   0  0  0  0  0  1  0  0  0  0  0  0
  185.8490  179.0560  142.5910 C   0  0  2  0  0  3  0  0  0  0  0  0
  184.6730  178.1530  142.2090 C   0  0  1  0  0  3  0  0  0  0  0  0
  183.6230  178.2910  143.1210 O   0  0  0  0  0  1  0  0  0  0  0  0
  184.1720  178.4430  140.8000 C   0  0  0  0  0  2  0  0  0  0  0  0
  182.7590  177.9170  140.6010 C   0  0  0  0  0  2  0  0  0  0  0  0
  181.8370  178.9590  140.7090 O   0  0  0  0  0  0  0  0  0  0  0  0
  180.5940  178.3390  140.5930 C   0  0  0  0  0  1  0  0  0  0  0  0
  192.4030  174.3060  145.3790 C   0  0  0  0  0  2  0  0  0  0  0  0
  193.4770  174.4310  144.4080 N   0  0  0  0  0  2  0  0  0  0  0  0
  194.3580  175.4910  144.8770 C   0  0  1  0  0  3  0  0  0  0  0  0
  195.9860  174.0290  145.8900 O   0  0  0  0  0  1  0  0  0  0  0  0
  195.0980  175.0750  146.1450 C   0  0  0  0  0  2  0  0  0  0  0  0
  195.4990  176.0670  143.5620 S   0  0  0  0  0  0  0  0  0  0  0  0
  194.9370  174.8980  142.2850 C   0  0  0  0  0  1  0  0  0  0  0  0
  1 16  1  1  0  0  0
  3 13  1  0  0  0  0
  4 15  1  0  0  0  0
  4 17  1  0  0  0  0
  5  8  1  0  0  0  0
  6  4  1  0  0  0  0
  7  2  1  0  0  0  0
  8 15  1  0  0  0  0
  8 28  1  0  0  0  0
  9  3  1  0  0  0  0
  9  1  1  0  0  0  0
 10  6  1  0  0  0  0
 10  9  1  0  0  0  0
 12  5  1  0  0  0  0
 13 11  1  0  0  0  0
 14 12  1  0  0  0  0
 14  6  1  0  0  0  0
 15  7  1  0  0  0  0
 16 11  1  0  0  0  0
 17  1  1  0  0  0  0
 17  2  1  0  0  0  0
 18 19  1  0  0  0  0
 18 10  1  0  0  0  0
 21 19  1  0  0  0  0
 21 20  1  0  0  0  0
 22 21  1  0  0  0  0
 22 23  1  0  0  0  0
 24 22  1  0  0  0  0
 25 26  1  0  0  0  0
 25 24  1  0  0  0  0
 27 26  1  0  0  0  0
 29 30  1  0  0  0  0
 29 28  1  0  0  0  0
 30 32  1  0  0  0  0
 31 32  1  0  0  0  0
 33 30  1  0  0  0  0
 34 33  1  0  0  0  0
M  END
>  <MODEL>
5

>  <REMARK>
 VINA RESULT:      -6.2      3.162      8.685
  Name = 
  12 active torsions:
  status: ('A' for Active; 'I' for Inactive)
    1  A    between atoms: C_3  and  C_16
    2  A    between atoms: C_3  and  C_19
    3  A    between atoms: C_5  and  O_11
    4  A    between atoms: C_5  and  C_19
    5  A    between atoms: C_8  and  O_12
    6  A    between atoms: C_8  and  C_16
    7  A    between atoms: O_11  and  C_20
    8  A    between atoms: N_17  and  C_28
    9  A    between atoms: C_28  and  N_29
   10  A    between atoms: N_29  and  C_32
   11  A    between atoms: S_31  and  C_32
   12  A    between atoms: C_32  and  C_34
                            x       y       z     vdW  Elec       q    Type
                         _______ _______ _______ _____ _____    ______ ____

>  <TORSDO>
F 12

$$$$
=
 OpenBabel11112418103D

 34 37  0  0  1  0  0  0  0  0999 V2000
  190.7520  173.4330  143.1410 C   0  0  2  0  0  3  0  0  0  0  0  0
  191.9740  171.9840  144.6380 O   0  0  0  0  0  0  0  0  0  0  0  0
  189.3810  174.9590  141.7040 C   0  0  0  0  0  2  0  0  0  0  0  0
  191.9610  174.3150  145.2200 C   0  0  2  0  0  3  0  0  0  0  0  0
  194.5180  175.7270  145.9540 C   0  0  0  0  0  2  0  0  0  0  0  0
  191.9430  175.6200  144.3790 C   0  0  1  0  0  3  0  0  0  0  0  0
  193.3030  172.4190  144.7160 C   0  0  0  0  0  2  0  0  0  0  0  0
  194.4680  174.5660  145.0750 N   0  0  0  0  0  0  0  0  0  0  0  0
  189.8640  174.6750  143.1210 C   0  0  2  0  0  3  0  0  0  0  0  0
  190.5640  175.9020  143.7290 C   0  0  1  0  0  3  0  0  0  0  0  0
  189.5980  172.5710  141.1630 N   0  0  0  0  0  2  0  0  0  0  0  0
  193.9210  176.9270  145.2430 C   0  0  0  0  0  2  0  0  0  0  0  0
  188.6820  173.7140  141.1590 C   0  0  0  0  0  2  0  0  0  0  0  0
  192.4060  176.8230  145.1990 C   0  0  0  0  0  2  0  0  0  0  0  0
  193.3390  173.7200  145.4970 C   0  0  1  0  0  3  0  0  0  0  0  0
  189.9680  172.2640  142.5460 C   0  0  0  0  0  2  0  0  0  0  0  0
  191.1860  173.1480  144.5810 C   0  0  1  0  0  3  0  0  0  0  0  0
  189.6910  176.7000  144.5050 O   0  0  0  0  0  0  0  0  0  0  0  0
  188.6690  175.8850  145.0220 C   0  0  0  0  0  2  0  0  0  0  0  0
  188.8630  174.9160  147.3150 C   0  0  0  0  0  1  0  0  0  0  0  0
  188.4870  176.1510  146.5050 C   0  0  2  0  0  3  0  0  0  0  0  0
  187.0500  176.6000  146.7850 C   0  0  1  0  0  3  0  0  0  0  0  0
  187.0350  177.8070  147.4890 O   0  0  0  0  0  1  0  0  0  0  0  0
  186.2420  176.7430  145.5020 C   0  0  0  0  0  2  0  0  0  0  0  0
  185.6690  178.1440  145.3660 C   0  0  0  0  0  2  0  0  0  0  0  0
  184.8090  178.2110  144.2690 O   0  0  0  0  0  0  0  0  0  0  0  0
  185.4820  179.0070  143.3450 C   0  0  0  0  0  1  0  0  0  0  0  0
  195.7110  173.8450  145.3270 C   0  0  0  0  0  2  0  0  0  0  0  0
  196.8090  174.5160  144.6500 N   0  0  0  0  0  2  0  0  0  0  0  0
  196.4350  174.6450  143.2490 C   0  0  1  0  0  3  0  0  0  0  0  0
  196.9170  177.0060  143.3290 O   0  0  0  0  0  1  0  0  0  0  0  0
  197.1320  175.8360  142.5980 C   0  0  0  0  0  2  0  0  0  0  0  0
  196.7080  173.0870  142.3210 S   0  0  0  0  0  0  0  0  0  0  0  0
  195.0850  173.0580  141.4990 C   0  0  0  0  0  1  0  0  0  0  0  0
  1 16  1  1  0  0  0
  1 17  1  0  0  0  0
  2  7  1  0  0  0  0
  3  9  1  0  0  0  0
  4 15  1  0  0  0  0
  6 14  1  0  0  0  0
  6  4  1  0  0  0  0
  7 15  1  0  0  0  0
  8 28  1  0  0  0  0
  8 15  1  0  0  0  0
  8  5  1  0  0  0  0
  9  1  1  0  0  0  0
  9 10  1  0  0  0  0
 10  6  1  0  0  0  0
 10 18  1  0  0  0  0
 11 16  1  0  0  0  0
 12  5  1  0  0  0  0
 13 11  1  0  0  0  0
 13  3  1  0  0  0  0
 14 12  1  0  0  0  0
 17  2  1  0  0  0  0
 17  4  1  0  0  0  0
 18 19  1  0  0  0  0
 19 21  1  0  0  0  0
 21 22  1  0  0  0  0
 21 20  1  0  0  0  0
 22 23  1  0  0  0  0
 24 22  1  0  0  0  0
 25 24  1  0  0  0  0
 26 25  1  0  0  0  0
 27 26  1  0  0  0  0
 29 28  1  0  0  0  0
 30 29  1  0  0  0  0
 32 30  1  0  0  0  0
 32 31  1  0  0  0  0
 33 30  1  0  0  0  0
 34 33  1  0  0  0  0
M  END
>  <MODEL>
6

>  <REMARK>
 VINA RESULT:      -6.1      3.363      7.622
  Name = 
  12 active torsions:
  status: ('A' for Active; 'I' for Inactive)
    1  A    between atoms: C_3  and  C_16
    2  A    between atoms: C_3  and  C_19
    3  A    between atoms: C_5  and  O_11
    4  A    between atoms: C_5  and  C_19
    5  A    between atoms: C_8  and  O_12
    6  A    between atoms: C_8  and  C_16
    7  A    between atoms: O_11  and  C_20
    8  A    between atoms: N_17  and  C_28
    9  A    between atoms: C_28  and  N_29
   10  A    between atoms: N_29  and  C_32
   11  A    between atoms: S_31  and  C_32
   12  A    between atoms: C_32  and  C_34
                            x       y       z     vdW  Elec       q    Type
                         _______ _______ _______ _____ _____    ______ ____

>  <TORSDO>
F 12

$$$$
=
 OpenBabel11112418103D

 34 37  0  0  1  0  0  0  0  0999 V2000
  189.5130  174.1530  142.1300 C   0  0  2  0  0  3  0  0  0  0  0  0
  189.0160  176.5140  142.0280 O   0  0  0  0  0  0  0  0  0  0  0  0
  190.1810  171.7420  142.2450 C   0  0  0  0  0  2  0  0  0  0  0  0
  189.8960  175.7220  144.1180 C   0  0  2  0  0  3  0  0  0  0  0  0
  188.5840  176.4810  146.7210 C   0  0  0  0  0  2  0  0  0  0  0  0
  189.7560  174.3830  144.8910 C   0  0  1  0  0  3  0  0  0  0  0  0
  188.0970  176.8350  143.0360 C   0  0  0  0  0  2  0  0  0  0  0  0
  187.8680  176.4050  145.4550 N   0  0  0  0  0  0  0  0  0  0  0  0
  190.5060  173.1530  142.7180 C   0  0  2  0  0  3  0  0  0  0  0  0
  190.5690  173.2270  144.2530 C   0  0  1  0  0  3  0  0  0  0  0  0
  189.1470  172.6710  140.2180 N   0  0  0  0  0  2  0  0  0  0  0  0
  188.9550  175.0830  147.1790 C   0  0  0  0  0  2  0  0  0  0  0  0
  190.1470  171.7250  140.7170 C   0  0  0  0  0  2  0  0  0  0  0  0
  190.1190  174.5450  146.3660 C   0  0  0  0  0  2  0  0  0  0  0  0
  188.8040  176.7570  144.3760 C   0  0  1  0  0  3  0  0  0  0  0  0
  189.5380  174.0270  140.6070 C   0  0  0  0  0  2  0  0  0  0  0  0
  189.8900  175.5650  142.5870 C   0  0  1  0  0  3  0  0  0  0  0  0
  191.8840  173.0760  144.7530 O   0  0  0  0  0  0  0  0  0  0  0  0
  192.7880  173.6300  143.8300 C   0  0  0  0  0  2  0  0  0  0  0  0
  193.7120  174.2440  146.0680 C   0  0  0  0  0  1  0  0  0  0  0  0
  193.8830  174.3880  144.5610 C   0  0  2  0  0  3  0  0  0  0  0  0
  193.8840  175.8550  144.1250 C   0  0  1  0  0  3  0  0  0  0  0  0
  193.0730  176.6240  144.9640 O   0  0  0  0  0  1  0  0  0  0  0  0
  195.2930  176.4360  144.1000 C   0  0  0  0  0  2  0  0  0  0  0  0
  196.1230  175.8150  142.9880 C   0  0  0  0  0  2  0  0  0  0  0  0
  195.9870  176.5550  141.8120 O   0  0  0  0  0  0  0  0  0  0  0  0
  196.0500  175.6080  140.7920 C   0  0  0  0  0  1  0  0  0  0  0  0
  186.8400  177.4370  145.5380 C   0  0  0  0  0  2  0  0  0  0  0  0
  185.5470  176.8190  145.7790 N   0  0  0  0  0  2  0  0  0  0  0  0
  184.5620  177.8900  145.8330 C   0  0  1  0  0  3  0  0  0  0  0  0
  185.4830  179.4080  147.4650 O   0  0  0  0  0  1  0  0  0  0  0  0
  184.4650  178.4810  147.2360 C   0  0  0  0  0  2  0  0  0  0  0  0
  184.8720  179.1710  144.5580 S   0  0  0  0  0  0  0  0  0  0  0  0
  184.0670  178.2870  143.1870 C   0  0  0  0  0  1  0  0  0  0  0  0
  1 16  1  6  0  0  0
  1 17  1  0  0  0  0
  1  9  1  0  0  0  0
  2 17  1  0  0  0  0
  2  7  1  0  0  0  0
  3  9  1  0  0  0  0
  4 15  1  0  0  0  0
  4  6  1  0  0  0  0
  5 12  1  0  0  0  0
  6 14  1  0  0  0  0
  7 15  1  0  0  0  0
  8 28  1  0  0  0  0
  8  5  1  0  0  0  0
  9 10  1  0  0  0  0
 10 18  1  0  0  0  0
 10  6  1  0  0  0  0
 11 16  1  0  0  0  0
 11 13  1  0  0  0  0
 13  3  1  0  0  0  0
 14 12  1  0  0  0  0
 15  8  1  0  0  0  0
 17  4  1  0  0  0  0
 19 21  1  0  0  0  0
 19 18  1  0  0  0  0
 21 20  1  0  0  0  0
 22 21  1  0  0  0  0
 22 23  1  0  0  0  0
 24 22  1  0  0  0  0
 25 24  1  0  0  0  0
 26 25  1  0  0  0  0
 27 26  1  0  0  0  0
 28 29  1  0  0  0  0
 29 30  1  0  0  0  0
 30 32  1  0  0  0  0
 32 31  1  0  0  0  0
 33 30  1  0  0  0  0
 34 33  1  0  0  0  0
M  END
>  <MODEL>
7

>  <REMARK>
 VINA RESULT:      -6.0      1.175      1.887
  Name = 
  12 active torsions:
  status: ('A' for Active; 'I' for Inactive)
    1  A    between atoms: C_3  and  C_16
    2  A    between atoms: C_3  and  C_19
    3  A    between atoms: C_5  and  O_11
    4  A    between atoms: C_5  and  C_19
    5  A    between atoms: C_8  and  O_12
    6  A    between atoms: C_8  and  C_16
    7  A    between atoms: O_11  and  C_20
    8  A    between atoms: N_17  and  C_28
    9  A    between atoms: C_28  and  N_29
   10  A    between atoms: N_29  and  C_32
   11  A    between atoms: S_31  and  C_32
   12  A    between atoms: C_32  and  C_34
                            x       y       z     vdW  Elec       q    Type
                         _______ _______ _______ _____ _____    ______ ____

>  <TORSDO>
F 12

$$$$
=
 OpenBabel11112418103D

 34 37  0  0  1  0  0  0  0  0999 V2000
  190.2000  173.7390  142.5320 C   0  0  2  0  0  3  0  0  0  0  0  0
  189.2670  175.8900  141.9530 O   0  0  0  0  0  0  0  0  0  0  0  0
  191.3070  171.5790  143.1480 C   0  0  0  0  0  2  0  0  0  0  0  0
  190.0170  175.6540  144.2230 C   0  0  2  0  0  3  0  0  0  0  0  0
  188.2680  176.5240  146.5150 C   0  0  0  0  0  2  0  0  0  0  0  0
  190.0470  174.4590  145.2140 C   0  0  1  0  0  3  0  0  0  0  0  0
  188.1840  176.1650  142.7990 C   0  0  0  0  0  2  0  0  0  0  0  0
  187.7440  176.0920  145.2270 N   0  0  0  0  0  0  0  0  0  0  0  0
  191.2880  173.0840  143.3800 C   0  0  2  0  0  3  0  0  0  0  0  0
  191.1440  173.4170  144.8740 C   0  0  1  0  0  3  0  0  0  0  0  0
  190.3720  171.9240  140.9010 N   0  0  0  0  0  2  0  0  0  0  0  0
  188.8450  175.3310  147.2540 C   0  0  0  0  0  2  0  0  0  0  0  0
  191.4690  171.3080  141.6520 C   0  0  0  0  0  2  0  0  0  0  0  0
  190.1850  174.9320  146.6600 C   0  0  0  0  0  2  0  0  0  0  0  0
  188.7200  176.4590  144.1880 C   0  0  1  0  0  3  0  0  0  0  0  0
  190.4390  173.3760  141.0670 C   0  0  0  0  0  2  0  0  0  0  0  0
  190.2340  175.2530  142.7530 C   0  0  1  0  0  3  0  0  0  0  0  0
  192.3900  173.6350  145.5080 O   0  0  0  0  0  0  0  0  0  0  0  0
  193.2400  174.3150  144.6190 C   0  0  0  0  0  2  0  0  0  0  0  0
  193.2850  176.7870  144.9730 C   0  0  0  0  0  1  0  0  0  0  0  0
  193.9380  175.4590  145.3340 C   0  0  2  0  0  3  0  0  0  0  0  0
  195.4320  175.4500  145.0020 C   0  0  1  0  0  3  0  0  0  0  0  0
  196.0460  174.2970  145.4980 O   0  0  0  0  0  1  0  0  0  0  0  0
  195.6790  175.5580  143.5020 C   0  0  0  0  0  2  0  0  0  0  0  0
  196.6860  176.6530  143.1880 C   0  0  0  0  0  2  0  0  0  0  0  0
  196.8170  176.8080  141.8080 O   0  0  0  0  0  0  0  0  0  0  0  0
  195.5530  176.5090  141.3010 C   0  0  0  0  0  1  0  0  0  0  0  0
  186.5320  176.8790  145.0270 C   0  0  0  0  0  2  0  0  0  0  0  0
  186.7780  178.2600  145.4090 N   0  0  0  0  0  2  0  0  0  0  0  0
  185.6910  179.0580  144.8610 C   0  0  1  0  0  3  0  0  0  0  0  0
  184.3070  178.6770  142.9240 O   0  0  0  0  0  1  0  0  0  0  0  0
  185.6150  178.9220  143.3440 C   0  0  0  0  0  2  0  0  0  0  0  0
  184.0900  178.6840  145.6740 S   0  0  0  0  0  0  0  0  0  0  0  0
  184.7500  178.5550  147.3650 C   0  0  0  0  0  1  0  0  0  0  0  0
  1 16  1  6  0  0  0
  1 17  1  0  0  0  0
  1  9  1  0  0  0  0
  2 17  1  0  0  0  0
  2  7  1  0  0  0  0
  3  9  1  0  0  0  0
  4  6  1  0  0  0  0
  5 12  1  0  0  0  0
  6 14  1  0  0  0  0
  7 15  1  0  0  0  0
  8  5  1  0  0  0  0
  9 10  1  0  0  0  0
 10  6  1  0  0  0  0
 10 18  1  0  0  0  0
 11 16  1  0  0  0  0
 11 13  1  0  0  0  0
 13  3  1  0  0  0  0
 14 12  1  0  0  0  0
 15  4  1  0  0  0  0
 15  8  1  0  0  0  0
 17  4  1  0  0  0  0
 19 21  1  0  0  0  0
 19 18  1  0  0  0  0
 20 21  1  0  0  0  0
 22 21  1  0  0  0  0
 22 23  1  0  0  0  0
 24 22  1  0  0  0  0
 25 24  1  0  0  0  0
 26 25  1  0  0  0  0
 27 26  1  0  0  0  0
 28  8  1  0  0  0  0
 28 29  1  0  0  0  0
 30 29  1  0  0  0  0
 30 33  1  0  0  0  0
 31 32  1  0  0  0  0
 32 30  1  0  0  0  0
 33 34  1  0  0  0  0
M  END
>  <MODEL>
8

>  <REMARK>
 VINA RESULT:      -6.0      1.626      2.303
  Name = 
  12 active torsions:
  status: ('A' for Active; 'I' for Inactive)
    1  A    between atoms: C_3  and  C_16
    2  A    between atoms: C_3  and  C_19
    3  A    between atoms: C_5  and  O_11
    4  A    between atoms: C_5  and  C_19
    5  A    between atoms: C_8  and  O_12
    6  A    between atoms: C_8  and  C_16
    7  A    between atoms: O_11  and  C_20
    8  A    between atoms: N_17  and  C_28
    9  A    between atoms: C_28  and  N_29
   10  A    between atoms: N_29  and  C_32
   11  A    between atoms: S_31  and  C_32
   12  A    between atoms: C_32  and  C_34
                            x       y       z     vdW  Elec       q    Type
                         _______ _______ _______ _____ _____    ______ ____

>  <TORSDO>
F 12

$$$$
=
 OpenBabel11112418103D

 34 37  0  0  1  0  0  0  0  0999 V2000
  191.0240  173.5930  143.1640 C   0  0  2  0  0  3  0  0  0  0  0  0
  190.0970  175.6530  142.3090 O   0  0  0  0  0  0  0  0  0  0  0  0
  192.1280  171.5200  144.0330 C   0  0  0  0  0  2  0  0  0  0  0  0
  191.1630  175.8000  144.4570 C   0  0  2  0  0  3  0  0  0  0  0  0
  189.8030  177.1980  146.7510 C   0  0  0  0  0  2  0  0  0  0  0  0
  191.2930  174.8140  145.6490 C   0  0  1  0  0  3  0  0  0  0  0  0
  189.1620  176.1510  143.2250 C   0  0  0  0  0  2  0  0  0  0  0  0
  189.0800  176.5660  145.6560 N   0  0  0  0  0  0  0  0  0  0  0  0
  192.2000  173.0400  143.9670 C   0  0  2  0  0  3  0  0  0  0  0  0
  192.2890  173.6570  145.3720 C   0  0  1  0  0  3  0  0  0  0  0  0
  190.8870  171.4960  141.9120 N   0  0  0  0  0  2  0  0  0  0  0  0
  190.4370  176.1310  147.6230 C   0  0  0  0  0  2  0  0  0  0  0  0
  192.0580  170.9620  142.6120 C   0  0  0  0  0  2  0  0  0  0  0  0
  191.6590  175.5400  146.9410 C   0  0  0  0  0  2  0  0  0  0  0  0
  189.9060  176.6660  144.4430 C   0  0  1  0  0  3  0  0  0  0  0  0
  191.0320  172.9460  141.7800 C   0  0  0  0  0  2  0  0  0  0  0  0
  191.1460  175.1170  143.0780 C   0  0  1  0  0  3  0  0  0  0  0  0
  193.6220  173.9100  145.7750 O   0  0  0  0  0  0  0  0  0  0  0  0
  194.3590  174.3450  144.6600 C   0  0  0  0  0  2  0  0  0  0  0  0
  194.7590  176.7870  144.9990 C   0  0  0  0  0  1  0  0  0  0  0  0
  195.3720  175.3940  145.0800 C   0  0  2  0  0  3  0  0  0  0  0  0
  196.6340  175.2770  144.2220 C   0  0  1  0  0  3  0  0  0  0  0  0
  196.6120  174.1050  143.4610 O   0  0  0  0  0  1  0  0  0  0  0  0
  196.8090  176.4820  143.3060 C   0  0  0  0  0  2  0  0  0  0  0  0
  196.6450  176.0910  141.8470 C   0  0  0  0  0  2  0  0  0  0  0  0
  195.5960  176.8080  141.2700 O   0  0  0  0  0  0  0  0  0  0  0  0
  194.5520  175.8900  141.1800 C   0  0  0  0  0  1  0  0  0  0  0  0
  187.8820  177.3780  145.4740 C   0  0  0  0  0  2  0  0  0  0  0  0
  186.8840  177.0050  146.4620 N   0  0  0  0  0  2  0  0  0  0  0  0
  185.5880  177.0380  145.7990 C   0  0  1  0  0  3  0  0  0  0  0  0
  185.2160  178.5790  147.6160 O   0  0  0  0  0  1  0  0  0  0  0  0
  184.5880  177.8840  146.5810 C   0  0  0  0  0  2  0  0  0  0  0  0
  185.7280  177.5650  144.0480 S   0  0  0  0  0  0  0  0  0  0  0  0
  184.4470  178.8550  144.1250 C   0  0  0  0  0  1  0  0  0  0  0  0
  1 16  1  6  0  0  0
  1  9  1  0  0  0  0
  2 17  1  0  0  0  0
  2  7  1  0  0  0  0
  4  6  1  0  0  0  0
  5 12  1  0  0  0  0
  6 14  1  0  0  0  0
  7 15  1  0  0  0  0
  8  5  1  0  0  0  0
  9  3  1  0  0  0  0
  9 10  1  0  0  0  0
 10  6  1  0  0  0  0
 10 18  1  0  0  0  0
 11 13  1  0  0  0  0
 13  3  1  0  0  0  0
 14 12  1  0  0  0  0
 15  4  1  0  0  0  0
 15  8  1  0  0  0  0
 16 11  1  0  0  0  0
 17  1  1  0  0  0  0
 17  4  1  0  0  0  0
 19 21  1  0  0  0  0
 19 18  1  0  0  0  0
 20 21  1  0  0  0  0
 22 21  1  0  0  0  0
 23 22  1  0  0  0  0
 24 22  1  0  0  0  0
 25 24  1  0  0  0  0
 26 25  1  0  0  0  0
 27 26  1  0  0  0  0
 28  8  1  0  0  0  0
 28 29  1  0  0  0  0
 30 29  1  0  0  0  0
 30 32  1  0  0  0  0
 32 31  1  0  0  0  0
 33 34  1  0  0  0  0
 33 30  1  0  0  0  0
M  END
>  <MODEL>
9

>  <REMARK>
 VINA RESULT:      -5.9      1.728      2.455
  Name = 
  12 active torsions:
  status: ('A' for Active; 'I' for Inactive)
    1  A    between atoms: C_3  and  C_16
    2  A    between atoms: C_3  and  C_19
    3  A    between atoms: C_5  and  O_11
    4  A    between atoms: C_5  and  C_19
    5  A    between atoms: C_8  and  O_12
    6  A    between atoms: C_8  and  C_16
    7  A    between atoms: O_11  and  C_20
    8  A    between atoms: N_17  and  C_28
    9  A    between atoms: C_28  and  N_29
   10  A    between atoms: N_29  and  C_32
   11  A    between atoms: S_31  and  C_32
   12  A    between atoms: C_32  and  C_34
                            x       y       z     vdW  Elec       q    Type
                         _______ _______ _______ _____ _____    ______ ____

>  <TORSDO>
F 12

$$$$
