=
 OpenBabel11112417443D

 34 40  0  0  1  0  0  0  0  0999 V2000
  189.5630  177.1440  142.9520 C   0  0  0  0  0  0  0  0  0  0  0  0
  192.0670  176.9060  142.6350 C   0  0  0  0  0  2  0  0  0  0  0  0
  185.5000  179.0160  146.7180 C   0  0  0  0  0  0  0  0  0  0  0  0
  187.2860  177.6320  143.5680 C   0  0  0  0  0  0  0  0  0  0  0  0
  186.3200  176.8180  145.7750 C   0  0  2  0  0  3  0  0  0  0  0  0
  184.2600  176.9580  147.1060 N   0  0  0  0  0  1  0  0  0  0  0  0
  186.0880  179.7820  147.5240 O   0  0  0  0  0  0  0  0  0  0  0  0
  183.9910  178.7360  144.7180 C   0  0  0  0  0  2  0  0  0  0  0  0
  190.9570  175.5280  144.2940 C   0  0  2  0  0  3  0  0  0  0  0  0
  192.6630  175.0140  146.9980 C   0  0  0  0  0  2  0  0  0  0  0  0
  187.7890  176.6870  146.1890 C   0  0  0  0  0  2  0  0  0  0  0  0
  184.8320  177.7440  143.9060 C   0  0  0  0  0  2  0  0  0  0  0  0
  190.0870  175.9290  145.5010 C   0  0  1  0  0  3  0  0  0  0  0  0
  193.1360  176.0860  143.3340 C   0  0  0  0  0  2  0  0  0  0  0  0
  186.1660  177.4940  144.4650 N   0  0  0  0  0  0  0  0  0  0  0  0
  184.7960  179.5700  145.6030 N   0  0  0  0  0  2  0  0  0  0  0  0
  192.9680  175.9890  145.8660 C   0  0  2  0  0  3  0  0  0  0  0  0
  188.4990  176.9890  143.8490 C   0  0  0  0  0  0  0  0  0  0  0  0
  185.5820  177.5310  146.9150 C   0  0  2  0  0  3  0  0  0  0  0  0
  188.6230  176.0980  145.0590 C   0  0  2  0  0  3  0  0  0  0  0  0
  188.2340  178.5540  141.5990 C   0  0  0  0  0  3  0  0  0  0  0  0
  191.2770  175.2460  147.5810 C   0  0  0  0  0  2  0  0  0  0  0  0
  187.1840  178.4010  142.4480 N   0  0  0  0  0  0  0  0  0  0  0  0
  190.1830  174.8730  146.5940 C   0  0  0  0  0  2  0  0  0  0  0  0
  192.4720  175.4000  144.5330 C   0  0  1  0  0  3  0  0  0  0  0  0
  189.4140  177.9310  141.8540 N   0  0  0  0  0  0  0  0  0  0  0  0
  190.8110  176.4990  143.2260 N   0  0  0  0  0  0  0  0  0  0  0  0
  194.3500  176.1980  145.8260 O   0  0  0  0  0  0  0  0  0  0  0  0
  194.9020  175.0370  146.3730 C   0  0  0  0  0  2  0  0  0  0  0  0
  196.8610  172.4270  146.2020 O   0  0  0  0  0  0  0  0  0  0  0  0
  195.4580  173.4210  144.5860 C   0  0  0  0  0  2  0  0  0  0  0  0
  196.0000  174.5100  145.4660 C   0  0  2  0  0  3  0  0  0  0  0  0
  196.3070  172.2220  144.9310 C   0  0  0  0  0  2  0  0  0  0  0  0
  197.0520  173.8150  146.3000 C   0  0  0  0  0  2  0  0  0  0  0  0
  1 27  1  0  0  0  0
  1 18  1  0  0  0  0
  2 27  1  0  0  0  0
  2 14  1  0  0  0  0
  3 19  1  0  0  0  0
  3  7  2  0  0  0  0
  4 18  2  0  0  0  0
  4 15  1  0  0  0  0
  5 11  1  1  0  0  0
  5 19  1  0  0  0  0
  8 16  1  0  0  0  0
  9 27  1  6  0  0  0
  9 25  1  0  0  0  0
  9 13  1  0  0  0  0
 10 22  1  0  0  0  0
 12 15  1  0  0  0  0
 12  8  1  0  0  0  0
 13 24  1  1  0  0  0
 15  5  1  0  0  0  0
 16  3  1  0  0  0  0
 17 28  1  6  0  0  0
 17 10  1  0  0  0  0
 18 20  1  0  0  0  0
 19  6  1  6  0  0  0
 20 13  1  0  0  0  0
 20 11  1  1  0  0  0
 21 26  1  0  0  0  0
 21 23  2  0  0  0  0
 23  4  1  0  0  0  0
 24 22  1  0  0  0  0
 25 14  1  6  0  0  0
 25 17  1  0  0  0  0
 26  1  2  0  0  0  0
 28 29  1  0  0  0  0
 30 34  1  0  0  0  0
 31 33  1  0  0  0  0
 31 32  1  0  0  0  0
 32 34  1  0  0  0  0
 32 29  1  1  0  0  0
 33 30  1  0  0  0  0
M  END
>  <MODEL>
1

>  <REMARK>
 VINA RESULT:      -8.3      0.000      0.000
  Name = 
  3 active torsions:
  status: ('A' for Active; 'I' for Inactive)
    1  A    between atoms: C_17  and  O_28
    2  A    between atoms: O_28  and  C_29
    3  A    between atoms: C_29  and  C_32
                            x       y       z     vdW  Elec       q    Type
                         _______ _______ _______ _____ _____    ______ ____

>  <TORSDO>
F 3

$$$$
=
 OpenBabel11112417443D

 34 40  0  0  1  0  0  0  0  0999 V2000
  192.9510  176.2930  143.2480 C   0  0  0  0  0  0  0  0  0  0  0  0
  190.8370  177.6680  142.9880 C   0  0  0  0  0  2  0  0  0  0  0  0
  194.8860  170.8610  144.2180 C   0  0  0  0  0  0  0  0  0  0  0  0
  194.7050  174.6540  143.4370 C   0  0  0  0  0  0  0  0  0  0  0  0
  194.8200  173.0790  145.4310 C   0  0  2  0  0  3  0  0  0  0  0  0
  196.1420  171.1890  146.2770 N   0  0  0  0  0  1  0  0  0  0  0  0
  193.9270  170.0890  143.9580 O   0  0  0  0  0  0  0  0  0  0  0  0
  197.0870  171.8760  143.5240 C   0  0  0  0  0  2  0  0  0  0  0  0
  191.3770  176.7440  145.1650 C   0  0  2  0  0  3  0  0  0  0  0  0
  188.8290  175.7200  146.8790 C   0  0  0  0  0  2  0  0  0  0  0  0
  193.3410  173.4380  145.6000 C   0  0  0  0  0  2  0  0  0  0  0  0
  196.7830  173.3520  143.8070 C   0  0  0  0  0  2  0  0  0  0  0  0
  191.6330  175.2860  145.5920 C   0  0  1  0  0  3  0  0  0  0  0  0
  189.7030  178.0290  143.9310 C   0  0  0  0  0  2  0  0  0  0  0  0
  195.3860  173.6150  144.1690 N   0  0  0  0  0  0  0  0  0  0  0  0
  195.8900  171.0980  143.2270 N   0  0  0  0  0  2  0  0  0  0  0  0
  188.8650  176.1490  145.4170 C   0  0  2  0  0  3  0  0  0  0  0  0
  193.5820  175.2860  143.9880 C   0  0  0  0  0  0  0  0  0  0  0  0
  194.9390  171.5540  145.5470 C   0  0  2  0  0  3  0  0  0  0  0  0
  193.1130  174.9280  145.3750 C   0  0  2  0  0  3  0  0  0  0  0  0
  194.4980  175.9880  141.4870 C   0  0  0  0  0  3  0  0  0  0  0  0
  189.8230  174.6040  147.1630 C   0  0  0  0  0  2  0  0  0  0  0  0
  195.1360  175.0200  142.1980 N   0  0  0  0  0  0  0  0  0  0  0  0
  191.2580  175.0910  147.0550 C   0  0  0  0  0  2  0  0  0  0  0  0
  189.9250  177.2500  145.2310 C   0  0  1  0  0  3  0  0  0  0  0  0
  193.4130  176.6150  142.0100 N   0  0  0  0  0  0  0  0  0  0  0  0
  191.7990  176.9460  143.7910 N   0  0  0  0  0  0  0  0  0  0  0  0
  187.5980  176.6240  145.0660 O   0  0  0  0  0  0  0  0  0  0  0  0
  186.9750  176.9110  146.2830 C   0  0  0  0  0  2  0  0  0  0  0  0
  184.6010  178.4140  144.6150 O   0  0  0  0  0  0  0  0  0  0  0  0
  185.0140  178.2690  146.9340 C   0  0  0  0  0  2  0  0  0  0  0  0
  186.3370  178.2870  146.2250 C   0  0  2  0  0  3  0  0  0  0  0  0
  184.0270  178.6750  145.8670 C   0  0  0  0  0  2  0  0  0  0  0  0
  185.9790  178.6170  144.7940 C   0  0  0  0  0  2  0  0  0  0  0  0
  1 27  1  0  0  0  0
  1 18  1  0  0  0  0
  2 27  1  0  0  0  0
  2 14  1  0  0  0  0
  3 19  1  0  0  0  0
  4 18  2  0  0  0  0
  4 15  1  0  0  0  0
  5 19  1  0  0  0  0
  5 11  1  6  0  0  0
  7  3  2  0  0  0  0
  8 12  1  0  0  0  0
  9 27  1  6  0  0  0
  9 25  1  0  0  0  0
  9 13  1  0  0  0  0
 10 22  1  0  0  0  0
 12 15  1  0  0  0  0
 13 24  1  1  0  0  0
 15  5  1  0  0  0  0
 16  8  1  0  0  0  0
 16  3  1  0  0  0  0
 17 28  1  1  0  0  0
 17 10  1  0  0  0  0
 18 20  1  0  0  0  0
 19  6  1  6  0  0  0
 20 13  1  0  0  0  0
 20 11  1  6  0  0  0
 21 26  1  0  0  0  0
 21 23  2  0  0  0  0
 23  4  1  0  0  0  0
 24 22  1  0  0  0  0
 25 14  1  6  0  0  0
 25 17  1  0  0  0  0
 26  1  2  0  0  0  0
 28 29  1  0  0  0  0
 30 34  1  0  0  0  0
 30 33  1  0  0  0  0
 32 29  1  6  0  0  0
 32 31  1  0  0  0  0
 33 31  1  0  0  0  0
 34 32  1  0  0  0  0
M  END
>  <MODEL>
2

>  <REMARK>
 VINA RESULT:      -8.2      3.077      8.854
  Name = 
  3 active torsions:
  status: ('A' for Active; 'I' for Inactive)
    1  A    between atoms: C_17  and  O_28
    2  A    between atoms: O_28  and  C_29
    3  A    between atoms: C_29  and  C_32
                            x       y       z     vdW  Elec       q    Type
                         _______ _______ _______ _____ _____    ______ ____

>  <TORSDO>
F 3

$$$$
=
 OpenBabel11112417443D

 34 40  0  0  1  0  0  0  0  0999 V2000
  192.1430  175.8460  145.7750 C   0  0  0  0  0  0  0  0  0  0  0  0
  190.2030  177.1920  146.6990 C   0  0  0  0  0  2  0  0  0  0  0  0
  195.1420  174.7520  140.8760 C   0  0  0  0  0  0  0  0  0  0  0  0
  193.9610  174.8280  144.5680 C   0  0  0  0  0  0  0  0  0  0  0  0
  193.5480  173.5360  142.4170 C   0  0  2  0  0  3  0  0  0  0  0  0
  194.7820  172.3560  140.6500 N   0  0  0  0  0  1  0  0  0  0  0  0
  194.8870  175.6970  140.0850 O   0  0  0  0  0  0  0  0  0  0  0  0
  196.7420  173.6630  142.4910 C   0  0  0  0  0  2  0  0  0  0  0  0
  189.7440  175.3800  145.1530 C   0  0  2  0  0  3  0  0  0  0  0  0
  187.3230  175.9420  143.0790 C   0  0  0  0  0  2  0  0  0  0  0  0
  192.2310  174.3160  142.3860 C   0  0  0  0  0  2  0  0  0  0  0  0
  195.7840  173.4110  143.6620 C   0  0  0  0  0  2  0  0  0  0  0  0
  190.2630  175.1350  143.7240 C   0  0  1  0  0  3  0  0  0  0  0  0
  188.7060  177.1760  146.4480 C   0  0  0  0  0  2  0  0  0  0  0  0
  194.4560  174.0120  143.4880 N   0  0  0  0  0  0  0  0  0  0  0  0
  196.3370  174.7910  141.6610 N   0  0  0  0  0  2  0  0  0  0  0  0
  187.9990  176.9300  144.0220 C   0  0  2  0  0  3  0  0  0  0  0  0
  192.5850  175.0500  144.7120 C   0  0  0  0  0  0  0  0  0  0  0  0
  194.1660  173.6200  141.0160 C   0  0  2  0  0  3  0  0  0  0  0  0
  191.6070  174.3880  143.7740 C   0  0  2  0  0  3  0  0  0  0  0  0
  194.3760  176.1880  146.4660 C   0  0  0  0  0  3  0  0  0  0  0  0
  188.3290  175.2650  142.1590 C   0  0  0  0  0  2  0  0  0  0  0  0
  194.8250  175.4040  145.4500 N   0  0  0  0  0  0  0  0  0  0  0  0
  189.2480  174.3290  142.9250 C   0  0  0  0  0  2  0  0  0  0  0  0
  188.4470  176.1960  145.2990 C   0  0  1  0  0  3  0  0  0  0  0  0
  193.0450  176.4070  146.6230 N   0  0  0  0  0  0  0  0  0  0  0  0
  190.7410  176.0880  145.9350 N   0  0  0  0  0  0  0  0  0  0  0  0
  187.0820  177.9390  144.3330 O   0  0  0  0  0  0  0  0  0  0  0  0
  185.8320  177.3180  144.2650 C   0  0  0  0  0  2  0  0  0  0  0  0
  185.6050  177.6360  147.5090 O   0  0  0  0  0  0  0  0  0  0  0  0
  185.4670  179.2370  145.7810 C   0  0  0  0  0  2  0  0  0  0  0  0
  184.8870  177.9500  145.2710 C   0  0  2  0  0  3  0  0  0  0  0  0
  185.5820  179.0170  147.2700 C   0  0  0  0  0  2  0  0  0  0  0  0
  184.8040  177.0760  146.5020 C   0  0  0  0  0  2  0  0  0  0  0  0
  1 27  1  0  0  0  0
  1 26  1  0  0  0  0
  3 19  1  0  0  0  0
  3 16  1  0  0  0  0
  4 18  1  0  0  0  0
  4 23  2  0  0  0  0
  5 11  1  6  0  0  0
  5 15  1  0  0  0  0
  7  3  2  0  0  0  0
  8 12  1  0  0  0  0
  9 25  1  0  0  0  0
  9 27  1  1  0  0  0
 10 17  1  0  0  0  0
 13 24  1  6  0  0  0
 13 20  1  0  0  0  0
 13  9  1  0  0  0  0
 14  2  1  0  0  0  0
 15 12  1  0  0  0  0
 15  4  1  0  0  0  0
 16  8  1  0  0  0  0
 17 28  1  1  0  0  0
 17 25  1  0  0  0  0
 18  1  2  0  0  0  0
 19  6  1  1  0  0  0
 19  5  1  0  0  0  0
 20 11  1  6  0  0  0
 20 18  1  0  0  0  0
 21 26  2  0  0  0  0
 22 24  1  0  0  0  0
 22 10  1  0  0  0  0
 23 21  1  0  0  0  0
 25 14  1  1  0  0  0
 27  2  1  0  0  0  0
 29 28  1  0  0  0  0
 31 33  1  0  0  0  0
 32 29  1  6  0  0  0
 32 31  1  0  0  0  0
 32 34  1  0  0  0  0
 33 30  1  0  0  0  0
 34 30  1  0  0  0  0
M  END
>  <MODEL>
3

>  <REMARK>
 VINA RESULT:      -8.2      3.113      8.893
  Name = 
  3 active torsions:
  status: ('A' for Active; 'I' for Inactive)
    1  A    between atoms: C_17  and  O_28
    2  A    between atoms: O_28  and  C_29
    3  A    between atoms: C_29  and  C_32
                            x       y       z     vdW  Elec       q    Type
                         _______ _______ _______ _____ _____    ______ ____

>  <TORSDO>
F 3

$$$$
=
 OpenBabel11112417443D

 34 40  0  0  1  0  0  0  0  0999 V2000
  189.5310  174.9490  141.9490 C   0  0  0  0  0  0  0  0  0  0  0  0
  187.1700  175.6290  142.5760 C   0  0  0  0  0  2  0  0  0  0  0  0
  194.2550  172.1370  143.9430 C   0  0  0  0  0  0  0  0  0  0  0  0
  191.7450  174.0390  141.6810 C   0  0  0  0  0  0  0  0  0  0  0  0
  193.5720  174.5080  143.3870 C   0  0  2  0  0  3  0  0  0  0  0  0
  195.9080  173.9220  143.8680 N   0  0  0  0  0  1  0  0  0  0  0  0
  193.8640  171.4220  144.9010 O   0  0  0  0  0  0  0  0  0  0  0  0
  194.9680  172.3110  141.5310 C   0  0  0  0  0  2  0  0  0  0  0  0
  189.0360  176.6700  143.7240 C   0  0  2  0  0  3  0  0  0  0  0  0
  188.5420  177.2550  146.8700 C   0  0  0  0  0  2  0  0  0  0  0  0
  192.4010  174.8530  144.3130 C   0  0  0  0  0  2  0  0  0  0  0  0
  194.0900  173.4900  141.0940 C   0  0  0  0  0  2  0  0  0  0  0  0
  190.1910  176.0370  144.5230 C   0  0  1  0  0  3  0  0  0  0  0  0
  186.5950  176.5620  143.6260 C   0  0  0  0  0  2  0  0  0  0  0  0
  193.1170  173.9170  142.1050 N   0  0  0  0  0  0  0  0  0  0  0  0
  194.3950  171.5600  142.6420 N   0  0  0  0  0  2  0  0  0  0  0  0
  187.6760  176.4350  145.9200 C   0  0  2  0  0  3  0  0  0  0  0  0
  190.8550  174.8540  142.3940 C   0  0  0  0  0  0  0  0  0  0  0  0
  194.5240  173.5960  144.1690 C   0  0  2  0  0  3  0  0  0  0  0  0
  191.3400  175.6590  143.5730 C   0  0  2  0  0  3  0  0  0  0  0  0
  190.0000  173.4430  140.1900 C   0  0  0  0  0  3  0  0  0  0  0  0
  189.9770  176.7490  146.9020 C   0  0  0  0  0  2  0  0  0  0  0  0
  191.2940  173.3510  140.5950 N   0  0  0  0  0  0  0  0  0  0  0  0
  190.6910  177.0080  145.5850 C   0  0  0  0  0  2  0  0  0  0  0  0
  187.7590  177.0320  144.5040 C   0  0  1  0  0  3  0  0  0  0  0  0
  189.1270  174.2350  140.8650 N   0  0  0  0  0  0  0  0  0  0  0  0
  188.6070  175.7730  142.6680 N   0  0  0  0  0  0  0  0  0  0  0  0
  186.3590  176.4660  146.3890 O   0  0  0  0  0  0  0  0  0  0  0  0
  186.3830  177.3600  147.4630 C   0  0  0  0  0  2  0  0  0  0  0  0
  185.3560  179.5180  145.2350 O   0  0  0  0  0  0  0  0  0  0  0  0
  184.1960  177.8340  146.4120 C   0  0  0  0  0  2  0  0  0  0  0  0
  185.2680  178.3780  147.3120 C   0  0  2  0  0  3  0  0  0  0  0  0
  184.1360  178.8290  145.2790 C   0  0  0  0  0  2  0  0  0  0  0  0
  185.7870  179.5880  146.5690 C   0  0  0  0  0  2  0  0  0  0  0  0
  1 18  1  0  0  0  0
  1 27  1  0  0  0  0
  2 27  1  0  0  0  0
  2 14  1  0  0  0  0
  3 19  1  0  0  0  0
  3  7  2  0  0  0  0
  4 15  1  0  0  0  0
  4 18  2  0  0  0  0
  5 19  1  0  0  0  0
  5 11  1  1  0  0  0
  8 16  1  0  0  0  0
  9 27  1  6  0  0  0
  9 25  1  0  0  0  0
  9 13  1  0  0  0  0
 10 22  1  0  0  0  0
 12  8  1  0  0  0  0
 12 15  1  0  0  0  0
 13 24  1  1  0  0  0
 15  5  1  0  0  0  0
 16  3  1  0  0  0  0
 17 28  1  1  0  0  0
 17 10  1  0  0  0  0
 18 20  1  0  0  0  0
 19  6  1  6  0  0  0
 20 11  1  1  0  0  0
 20 13  1  0  0  0  0
 21 23  2  0  0  0  0
 21 26  1  0  0  0  0
 23  4  1  0  0  0  0
 24 22  1  0  0  0  0
 25 14  1  6  0  0  0
 25 17  1  0  0  0  0
 26  1  2  0  0  0  0
 28 29  1  0  0  0  0
 30 33  1  0  0  0  0
 30 34  1  0  0  0  0
 31 32  1  0  0  0  0
 32 29  1  6  0  0  0
 33 31  1  0  0  0  0
 34 32  1  0  0  0  0
M  END
>  <MODEL>
4

>  <REMARK>
 VINA RESULT:      -8.1      2.665      8.434
  Name = 
  3 active torsions:
  status: ('A' for Active; 'I' for Inactive)
    1  A    between atoms: C_17  and  O_28
    2  A    between atoms: O_28  and  C_29
    3  A    between atoms: C_29  and  C_32
                            x       y       z     vdW  Elec       q    Type
                         _______ _______ _______ _____ _____    ______ ____

>  <TORSDO>
F 3

$$$$
=
 OpenBabel11112417443D

 34 40  0  0  1  0  0  0  0  0999 V2000
  191.0030  174.1040  141.6900 C   0  0  0  0  0  0  0  0  0  0  0  0
  188.4920  174.0260  142.0330 C   0  0  0  0  0  2  0  0  0  0  0  0
  196.0780  174.6990  144.5330 C   0  0  0  0  0  0  0  0  0  0  0  0
  193.4100  174.1190  141.7810 C   0  0  0  0  0  0  0  0  0  0  0  0
  194.6690  176.0230  142.9030 C   0  0  2  0  0  3  0  0  0  0  0  0
  196.9610  176.7020  143.4680 N   0  0  0  0  0  1  0  0  0  0  0  0
  195.8390  174.4530  145.7430 O   0  0  0  0  0  0  0  0  0  0  0  0
  197.0250  173.9410  142.3230 C   0  0  0  0  0  2  0  0  0  0  0  0
  189.6610  176.1230  142.3840 C   0  0  2  0  0  3  0  0  0  0  0  0
  188.5320  177.9170  144.8300 C   0  0  0  0  0  2  0  0  0  0  0  0
  193.3310  176.2880  143.5990 C   0  0  0  0  0  2  0  0  0  0  0  0
  195.8530  174.3120  141.4070 C   0  0  0  0  0  2  0  0  0  0  0  0
  190.8360  176.4630  143.3200 C   0  0  1  0  0  3  0  0  0  0  0  0
  187.4700  175.0440  142.5040 C   0  0  0  0  0  2  0  0  0  0  0  0
  194.6540  174.7610  142.1230 N   0  0  0  0  0  0  0  0  0  0  0  0
  196.6090  173.6700  143.6940 N   0  0  0  0  0  2  0  0  0  0  0  0
  188.1730  176.4780  144.4780 C   0  0  2  0  0  3  0  0  0  0  0  0
  192.1900  174.7590  142.0400 C   0  0  0  0  0  0  0  0  0  0  0  0
  195.7620  176.0570  143.9770 C   0  0  2  0  0  3  0  0  0  0  0  0
  192.1710  176.1500  142.6210 C   0  0  2  0  0  3  0  0  0  0  0  0
  192.2410  172.2510  140.9030 C   0  0  0  0  0  3  0  0  0  0  0  0
  190.0300  178.0920  145.0240 C   0  0  0  0  0  2  0  0  0  0  0  0
  193.4050  172.8780  141.2190 N   0  0  0  0  0  0  0  0  0  0  0  0
  190.7870  177.9320  143.7160 C   0  0  0  0  0  2  0  0  0  0  0  0
  188.2400  176.2900  142.9520 C   0  0  1  0  0  3  0  0  0  0  0  0
  191.0510  172.8620  141.1410 N   0  0  0  0  0  0  0  0  0  0  0  0
  189.7480  174.7400  141.9510 N   0  0  0  0  0  0  0  0  0  0  0  0
  186.8820  176.2190  144.9480 O   0  0  0  0  0  0  0  0  0  0  0  0
  186.9430  176.4740  146.3200 C   0  0  0  0  0  2  0  0  0  0  0  0
  185.5980  179.4030  146.8530 O   0  0  0  0  0  0  0  0  0  0  0  0
  184.8200  177.5390  145.6340 C   0  0  0  0  0  2  0  0  0  0  0  0
  185.6170  177.0330  146.8020 C   0  0  2  0  0  3  0  0  0  0  0  0
  184.6070  178.9990  145.9480 C   0  0  0  0  0  2  0  0  0  0  0  0
  185.8640  178.2690  147.6360 C   0  0  0  0  0  2  0  0  0  0  0  0
  1 27  1  0  0  0  0
  1 18  1  0  0  0  0
  2 14  1  0  0  0  0
  3  7  2  0  0  0  0
  4 18  2  0  0  0  0
  4 15  1  0  0  0  0
  5 11  1  1  0  0  0
  5 19  1  0  0  0  0
  8 16  1  0  0  0  0
  9 27  1  1  0  0  0
  9 25  1  0  0  0  0
  9 13  1  0  0  0  0
 10 22  1  0  0  0  0
 12 15  1  0  0  0  0
 12  8  1  0  0  0  0
 13 24  1  6  0  0  0
 15  5  1  0  0  0  0
 16  3  1  0  0  0  0
 17 10  1  0  0  0  0
 17 28  1  6  0  0  0
 18 20  1  0  0  0  0
 19  6  1  6  0  0  0
 19  3  1  0  0  0  0
 20 13  1  0  0  0  0
 20 11  1  1  0  0  0
 21 26  1  0  0  0  0
 21 23  2  0  0  0  0
 23  4  1  0  0  0  0
 24 22  1  0  0  0  0
 25 14  1  1  0  0  0
 25 17  1  0  0  0  0
 26  1  2  0  0  0  0
 27  2  1  0  0  0  0
 28 29  1  0  0  0  0
 30 34  1  0  0  0  0
 31 33  1  0  0  0  0
 31 32  1  0  0  0  0
 32 29  1  6  0  0  0
 32 34  1  0  0  0  0
 33 30  1  0  0  0  0
M  END
>  <MODEL>
5

>  <REMARK>
 VINA RESULT:      -7.9      2.938      8.727
  Name = 
  3 active torsions:
  status: ('A' for Active; 'I' for Inactive)
    1  A    between atoms: C_17  and  O_28
    2  A    between atoms: O_28  and  C_29
    3  A    between atoms: C_29  and  C_32
                            x       y       z     vdW  Elec       q    Type
                         _______ _______ _______ _____ _____    ______ ____

>  <TORSDO>
F 3

$$$$
=
 OpenBabel11112417443D

 34 40  0  0  1  0  0  0  0  0999 V2000
  192.2060  176.0180  145.8540 C   0  0  0  0  0  0  0  0  0  0  0  0
  189.8790  176.8870  146.3600 C   0  0  0  0  0  2  0  0  0  0  0  0
  196.1910  175.5730  141.5980 C   0  0  0  0  0  0  0  0  0  0  0  0
  194.3930  175.4350  145.0290 C   0  0  0  0  0  0  0  0  0  0  0  0
  194.6710  174.0430  142.9190 C   0  0  2  0  0  3  0  0  0  0  0  0
  196.4340  173.1550  141.4560 N   0  0  0  0  0  1  0  0  0  0  0  0
  195.8710  176.4170  140.7210 O   0  0  0  0  0  0  0  0  0  0  0  0
  197.6870  174.9200  143.5190 C   0  0  0  0  0  2  0  0  0  0  0  0
  190.1250  174.9900  144.8680 C   0  0  2  0  0  3  0  0  0  0  0  0
  188.0450  174.9300  142.3880 C   0  0  0  0  0  2  0  0  0  0  0  0
  193.2370  174.4920  142.6230 C   0  0  0  0  0  2  0  0  0  0  0  0
  196.6210  174.4700  144.5260 C   0  0  0  0  0  2  0  0  0  0  0  0
  190.9300  174.8490  143.5620 C   0  0  1  0  0  3  0  0  0  0  0  0
  188.4930  176.5150  145.8630 C   0  0  0  0  0  2  0  0  0  0  0  0
  195.2430  174.7390  144.0970 N   0  0  0  0  0  0  0  0  0  0  0  0
  197.1880  175.9060  142.5680 N   0  0  0  0  0  2  0  0  0  0  0  0
  188.3000  176.0660  143.3720 C   0  0  2  0  0  3  0  0  0  0  0  0
  192.9990  175.3300  144.9280 C   0  0  0  0  0  0  0  0  0  0  0  0
  195.4910  174.2460  141.6390 C   0  0  2  0  0  3  0  0  0  0  0  0
  192.3790  174.4400  143.8800 C   0  0  2  0  0  3  0  0  0  0  0  0
  194.1450  176.8880  146.8870 C   0  0  0  0  0  3  0  0  0  0  0  0
  189.3250  174.4920  141.6900 C   0  0  0  0  0  2  0  0  0  0  0  0
  194.9320  176.2130  146.0080 N   0  0  0  0  0  0  0  0  0  0  0  0
  190.2840  173.8120  142.6530 C   0  0  0  0  0  2  0  0  0  0  0  0
  188.6720  175.4820  144.7460 C   0  0  1  0  0  3  0  0  0  0  0  0
  192.7930  176.7910  146.8060 N   0  0  0  0  0  0  0  0  0  0  0  0
  190.7810  175.9270  145.7620 N   0  0  0  0  0  0  0  0  0  0  0  0
  187.1370  176.8370  143.4650 O   0  0  0  0  0  0  0  0  0  0  0  0
  187.3530  177.9130  142.6010 C   0  0  0  0  0  2  0  0  0  0  0  0
  184.1320  178.0560  143.1310 O   0  0  0  0  0  0  0  0  0  0  0  0
  185.9380  179.0420  144.2850 C   0  0  0  0  0  2  0  0  0  0  0  0
  186.2950  178.9780  142.8290 C   0  0  2  0  0  3  0  0  0  0  0  0
  184.4590  178.7420  144.3080 C   0  0  0  0  0  2  0  0  0  0  0  0
  185.0070  178.5610  142.1560 C   0  0  0  0  0  2  0  0  0  0  0  0
  1 26  1  0  0  0  0
  3 19  1  0  0  0  0
  3 16  1  0  0  0  0
  4 23  2  0  0  0  0
  5 11  1  6  0  0  0
  5 15  1  0  0  0  0
  7  3  2  0  0  0  0
  8 12  1  0  0  0  0
  9 27  1  1  0  0  0
 10 17  1  0  0  0  0
 13 24  1  6  0  0  0
 13 20  1  0  0  0  0
 13  9  1  0  0  0  0
 14  2  1  0  0  0  0
 15 12  1  0  0  0  0
 15  4  1  0  0  0  0
 16  8  1  0  0  0  0
 17 28  1  1  0  0  0
 17 25  1  0  0  0  0
 18  4  1  0  0  0  0
 18  1  2  0  0  0  0
 19  6  1  1  0  0  0
 19  5  1  0  0  0  0
 20 11  1  6  0  0  0
 20 18  1  0  0  0  0
 22 10  1  0  0  0  0
 22 24  1  0  0  0  0
 23 21  1  0  0  0  0
 25  9  1  0  0  0  0
 25 14  1  1  0  0  0
 26 21  2  0  0  0  0
 27  1  1  0  0  0  0
 27  2  1  0  0  0  0
 29 28  1  0  0  0  0
 30 33  1  0  0  0  0
 31 33  1  0  0  0  0
 32 29  1  1  0  0  0
 32 31  1  0  0  0  0
 34 32  1  0  0  0  0
 34 30  1  0  0  0  0
M  END
>  <MODEL>
6

>  <REMARK>
 VINA RESULT:      -7.9      3.197      9.140
  Name = 
  3 active torsions:
  status: ('A' for Active; 'I' for Inactive)
    1  A    between atoms: C_17  and  O_28
    2  A    between atoms: O_28  and  C_29
    3  A    between atoms: C_29  and  C_32
                            x       y       z     vdW  Elec       q    Type
                         _______ _______ _______ _____ _____    ______ ____

>  <TORSDO>
F 3

$$$$
=
 OpenBabel11112417443D

 34 40  0  0  1  0  0  0  0  0999 V2000
  192.0840  175.9470  145.7250 C   0  0  0  0  0  0  0  0  0  0  0  0
  190.0920  177.5150  145.7100 C   0  0  0  0  0  2  0  0  0  0  0  0
  195.7790  173.0740  142.2190 C   0  0  0  0  0  0  0  0  0  0  0  0
  194.0200  174.5680  145.3340 C   0  0  0  0  0  0  0  0  0  0  0  0
  193.8960  172.5310  143.8170 C   0  0  2  0  0  3  0  0  0  0  0  0
  195.3380  170.7750  142.8840 N   0  0  0  0  0  1  0  0  0  0  0  0
  195.7060  173.6300  141.0930 O   0  0  0  0  0  0  0  0  0  0  0  0
  197.0370  172.7300  144.3770 C   0  0  0  0  0  2  0  0  0  0  0  0
  189.7980  175.2360  144.9340 C   0  0  2  0  0  3  0  0  0  0  0  0
  187.7790  174.9010  142.4260 C   0  0  0  0  0  2  0  0  0  0  0  0
  192.6430  173.2160  143.2620 C   0  0  0  0  0  2  0  0  0  0  0  0
  195.8900  172.9400  145.3720 C   0  0  0  0  0  2  0  0  0  0  0  0
  190.5290  174.4600  143.8220 C   0  0  1  0  0  3  0  0  0  0  0  0
  188.6570  177.3770  145.2350 C   0  0  0  0  0  2  0  0  0  0  0  0
  194.6410  173.4030  144.7560 N   0  0  0  0  0  0  0  0  0  0  0  0
  196.8310  173.4370  143.1180 N   0  0  0  0  0  2  0  0  0  0  0  0
  188.3420  176.1910  143.0120 C   0  0  2  0  0  3  0  0  0  0  0  0
  192.6520  174.8060  145.1450 C   0  0  0  0  0  0  0  0  0  0  0  0
  194.7370  172.0710  142.6200 C   0  0  2  0  0  3  0  0  0  0  0  0
  191.8060  173.8140  144.3860 C   0  0  2  0  0  3  0  0  0  0  0  0
  194.1900  176.5690  146.5960 C   0  0  0  0  0  3  0  0  0  0  0  0
  188.8840  173.9350  142.0260 C   0  0  0  0  0  2  0  0  0  0  0  0
  194.7570  175.4570  146.0560 N   0  0  0  0  0  0  0  0  0  0  0  0
  189.6170  173.3880  143.2400 C   0  0  0  0  0  2  0  0  0  0  0  0
  188.5380  176.0230  144.5300 C   0  0  1  0  0  3  0  0  0  0  0  0
  192.8650  176.8100  146.4270 N   0  0  0  0  0  0  0  0  0  0  0  0
  190.6890  176.2090  145.5370 N   0  0  0  0  0  0  0  0  0  0  0  0
  187.4400  177.2260  142.7460 O   0  0  0  0  0  0  0  0  0  0  0  0
  186.1800  176.6250  142.8070 C   0  0  0  0  0  2  0  0  0  0  0  0
  185.5340  178.8580  145.1030 O   0  0  0  0  0  0  0  0  0  0  0  0
  185.6480  179.0390  142.7530 C   0  0  0  0  0  2  0  0  0  0  0  0
  185.1210  177.6740  143.0900 C   0  0  2  0  0  3  0  0  0  0  0  0
  185.5630  179.7920  144.0580 C   0  0  0  0  0  2  0  0  0  0  0  0
  184.8640  177.7420  144.5790 C   0  0  0  0  0  2  0  0  0  0  0  0
  1 26  1  0  0  0  0
  3 19  1  0  0  0  0
  3 16  1  0  0  0  0
  4 23  2  0  0  0  0
  5 11  1  6  0  0  0
  5 15  1  0  0  0  0
  7  3  2  0  0  0  0
  8 12  1  0  0  0  0
  9 27  1  6  0  0  0
 10 17  1  0  0  0  0
 13 24  1  1  0  0  0
 13 20  1  0  0  0  0
 13  9  1  0  0  0  0
 14  2  1  0  0  0  0
 15  4  1  0  0  0  0
 15 12  1  0  0  0  0
 16  8  1  0  0  0  0
 17 28  1  1  0  0  0
 17 25  1  0  0  0  0
 18  4  1  0  0  0  0
 18  1  2  0  0  0  0
 19  6  1  1  0  0  0
 19  5  1  0  0  0  0
 20 11  1  6  0  0  0
 20 18  1  0  0  0  0
 22 10  1  0  0  0  0
 22 24  1  0  0  0  0
 23 21  1  0  0  0  0
 25  9  1  0  0  0  0
 25 14  1  1  0  0  0
 26 21  2  0  0  0  0
 27  2  1  0  0  0  0
 27  1  1  0  0  0  0
 28 29  1  0  0  0  0
 31 32  1  0  0  0  0
 31 33  1  0  0  0  0
 32 29  1  1  0  0  0
 32 34  1  0  0  0  0
 33 30  1  0  0  0  0
 34 30  1  0  0  0  0
M  END
>  <MODEL>
7

>  <REMARK>
 VINA RESULT:      -7.7      3.052      9.089
  Name = 
  3 active torsions:
  status: ('A' for Active; 'I' for Inactive)
    1  A    between atoms: C_17  and  O_28
    2  A    between atoms: O_28  and  C_29
    3  A    between atoms: C_29  and  C_32
                            x       y       z     vdW  Elec       q    Type
                         _______ _______ _______ _____ _____    ______ ____

>  <TORSDO>
F 3

$$$$
=
 OpenBabel11112417443D

 34 40  0  0  1  0  0  0  0  0999 V2000
  190.7250  174.8490  142.2300 C   0  0  0  0  0  0  0  0  0  0  0  0
  188.3030  175.5740  142.4210 C   0  0  0  0  0  2  0  0  0  0  0  0
  194.9590  171.9560  145.0400 C   0  0  0  0  0  0  0  0  0  0  0  0
  192.9340  173.8980  142.3650 C   0  0  0  0  0  0  0  0  0  0  0  0
  194.4320  174.3370  144.3730 C   0  0  2  0  0  3  0  0  0  0  0  0
  196.6320  173.7090  145.2660 N   0  0  0  0  0  1  0  0  0  0  0  0
  194.3900  171.2500  145.9120 O   0  0  0  0  0  0  0  0  0  0  0  0
  196.0990  172.1100  142.7960 C   0  0  0  0  0  2  0  0  0  0  0  0
  189.9500  176.5830  143.8890 C   0  0  2  0  0  3  0  0  0  0  0  0
  188.9090  177.1850  146.8940 C   0  0  0  0  0  2  0  0  0  0  0  0
  193.1200  174.7050  145.0720 C   0  0  0  0  0  2  0  0  0  0  0  0
  195.3360  173.3040  142.2090 C   0  0  0  0  0  2  0  0  0  0  0  0
  190.9310  175.9310  144.8820 C   0  0  1  0  0  3  0  0  0  0  0  0
  187.5660  176.5190  143.3520 C   0  0  0  0  0  2  0  0  0  0  0  0
  194.2040  173.7520  143.0290 N   0  0  0  0  0  0  0  0  0  0  0  0
  195.3220  171.3730  143.7850 N   0  0  0  0  0  2  0  0  0  0  0  0
  188.2130  176.3780  145.8030 C   0  0  2  0  0  3  0  0  0  0  0  0
  191.9450  174.7310  142.9060 C   0  0  0  0  0  0  0  0  0  0  0  0
  195.2110  173.4100  145.3130 C   0  0  2  0  0  3  0  0  0  0  0  0
  192.2250  175.5290  144.1540 C   0  0  2  0  0  3  0  0  0  0  0  0
  191.4760  173.3310  140.5820 C   0  0  0  0  0  3  0  0  0  0  0  0
  190.3040  176.6520  147.1840 C   0  0  0  0  0  2  0  0  0  0  0  0
  192.6740  173.2160  141.2150 N   0  0  0  0  0  0  0  0  0  0  0  0
  191.2490  176.8940  146.0180 C   0  0  0  0  0  2  0  0  0  0  0  0
  188.5610  176.9700  144.4260 C   0  0  1  0  0  3  0  0  0  0  0  0
  190.5100  174.1390  141.0910 N   0  0  0  0  0  0  0  0  0  0  0  0
  189.7020  175.6910  142.7710 N   0  0  0  0  0  0  0  0  0  0  0  0
  186.8340  176.4340  146.0270 O   0  0  0  0  0  0  0  0  0  0  0  0
  186.7040  176.8370  147.3580 C   0  0  0  0  0  2  0  0  0  0  0  0
  185.4680  179.4240  145.7910 O   0  0  0  0  0  0  0  0  0  0  0  0
  184.4560  177.4180  146.5100 C   0  0  0  0  0  2  0  0  0  0  0  0
  185.5240  177.7810  147.5000 C   0  0  2  0  0  3  0  0  0  0  0  0
  184.2950  178.6660  145.6770 C   0  0  0  0  0  2  0  0  0  0  0  0
  185.9410  179.1750  147.0890 C   0  0  0  0  0  2  0  0  0  0  0  0
  1 27  1  0  0  0  0
  1 18  1  0  0  0  0
  2 27  1  0  0  0  0
  2 14  1  0  0  0  0
  3 19  1  0  0  0  0
  3  7  2  0  0  0  0
  4 18  2  0  0  0  0
  4 15  1  0  0  0  0
  5 11  1  1  0  0  0
  5 19  1  0  0  0  0
  8 16  1  0  0  0  0
  9 27  1  6  0  0  0
  9 25  1  0  0  0  0
  9 13  1  0  0  0  0
 10 22  1  0  0  0  0
 12  8  1  0  0  0  0
 12 15  1  0  0  0  0
 13 24  1  1  0  0  0
 15  5  1  0  0  0  0
 16  3  1  0  0  0  0
 17 28  1  1  0  0  0
 17 10  1  0  0  0  0
 18 20  1  0  0  0  0
 19  6  1  6  0  0  0
 20 13  1  0  0  0  0
 20 11  1  1  0  0  0
 21 26  1  0  0  0  0
 21 23  2  0  0  0  0
 23  4  1  0  0  0  0
 24 22  1  0  0  0  0
 25 14  1  6  0  0  0
 25 17  1  0  0  0  0
 26  1  2  0  0  0  0
 28 29  1  0  0  0  0
 30 34  1  0  0  0  0
 31 32  1  0  0  0  0
 32 29  1  6  0  0  0
 33 30  1  0  0  0  0
 33 31  1  0  0  0  0
 34 32  1  0  0  0  0
M  END
>  <MODEL>
8

>  <REMARK>
 VINA RESULT:      -7.6      2.633      8.565
  Name = 
  3 active torsions:
  status: ('A' for Active; 'I' for Inactive)
    1  A    between atoms: C_17  and  O_28
    2  A    between atoms: O_28  and  C_29
    3  A    between atoms: C_29  and  C_32
                            x       y       z     vdW  Elec       q    Type
                         _______ _______ _______ _____ _____    ______ ____

>  <TORSDO>
F 3

$$$$
=
 OpenBabel11112417443D

 34 40  0  0  1  0  0  0  0  0999 V2000
  192.0630  175.8170  144.3420 C   0  0  0  0  0  0  0  0  0  0  0  0
  190.4410  177.3410  145.5550 C   0  0  0  0  0  2  0  0  0  0  0  0
  193.7370  174.0890  139.0120 C   0  0  0  0  0  0  0  0  0  0  0  0
  193.5060  174.5970  142.8480 C   0  0  0  0  0  0  0  0  0  0  0  0
  192.5480  173.1130  141.0180 C   0  0  2  0  0  3  0  0  0  0  0  0
  193.2830  171.7020  139.1460 N   0  0  0  0  0  1  0  0  0  0  0  0
  193.3140  174.9590  138.2070 O   0  0  0  0  0  0  0  0  0  0  0  0
  195.6630  173.0960  140.2990 C   0  0  0  0  0  2  0  0  0  0  0  0
  189.5760  175.4050  144.3770 C   0  0  2  0  0  3  0  0  0  0  0  0
  186.7310  175.8650  142.9040 C   0  0  0  0  0  2  0  0  0  0  0  0
  191.2800  173.9480  141.2230 C   0  0  0  0  0  2  0  0  0  0  0  0
  195.0190  173.0110  141.6880 C   0  0  0  0  0  2  0  0  0  0  0  0
  189.7210  174.9910  142.9000 C   0  0  1  0  0  3  0  0  0  0  0  0
  188.9280  177.3700  145.6790 C   0  0  0  0  0  2  0  0  0  0  0  0
  193.7020  173.6530  141.7770 N   0  0  0  0  0  0  0  0  0  0  0  0
  195.0890  174.1520  139.4730 N   0  0  0  0  0  2  0  0  0  0  0  0
  187.6390  176.9120  143.5400 C   0  0  2  0  0  3  0  0  0  0  0  0
  192.2130  174.8970  143.2970 C   0  0  0  0  0  0  0  0  0  0  0  0
  192.8030  173.0250  139.5090 C   0  0  2  0  0  3  0  0  0  0  0  0
  191.0200  174.1900  142.7040 C   0  0  2  0  0  3  0  0  0  0  0  0
  194.4050  176.1220  144.4260 C   0  0  0  0  0  3  0  0  0  0  0  0
  187.4630  175.0520  141.8480 C   0  0  0  0  0  2  0  0  0  0  0  0
  194.5720  175.2180  143.4240 N   0  0  0  0  0  0  0  0  0  0  0  0
  188.5240  174.1560  142.4660 C   0  0  0  0  0  2  0  0  0  0  0  0
  188.3730  176.2920  144.7420 C   0  0  1  0  0  3  0  0  0  0  0  0
  193.1590  176.4180  144.8760 N   0  0  0  0  0  0  0  0  0  0  0  0
  190.7500  176.1400  144.8090 N   0  0  0  0  0  0  0  0  0  0  0  0
  186.8480  177.9890  143.9500 O   0  0  0  0  0  0  0  0  0  0  0  0
  185.5530  177.4710  144.0310 C   0  0  0  0  0  2  0  0  0  0  0  0
  185.8590  177.4920  147.2840 O   0  0  0  0  0  0  0  0  0  0  0  0
  185.5900  179.2570  145.7410 C   0  0  0  0  0  2  0  0  0  0  0  0
  184.8320  178.0680  145.2260 C   0  0  2  0  0  3  0  0  0  0  0  0
  185.9150  178.8880  147.1680 C   0  0  0  0  0  2  0  0  0  0  0  0
  184.8670  177.0880  146.3770 C   0  0  0  0  0  2  0  0  0  0  0  0
  1 27  1  0  0  0  0
  1 26  1  0  0  0  0
  2 14  1  0  0  0  0
  3 16  1  0  0  0  0
  3 19  1  0  0  0  0
  4 18  1  0  0  0  0
  4 23  2  0  0  0  0
  5 11  1  6  0  0  0
  5 15  1  0  0  0  0
  7  3  2  0  0  0  0
  8 12  1  0  0  0  0
  9 25  1  0  0  0  0
  9 27  1  6  0  0  0
 10 17  1  0  0  0  0
 12 15  1  0  0  0  0
 13 24  1  1  0  0  0
 13  9  1  0  0  0  0
 15  4  1  0  0  0  0
 16  8  1  0  0  0  0
 17 28  1  1  0  0  0
 17 25  1  0  0  0  0
 18  1  2  0  0  0  0
 19  6  1  1  0  0  0
 19  5  1  0  0  0  0
 20 11  1  6  0  0  0
 20 13  1  0  0  0  0
 20 18  1  0  0  0  0
 21 26  2  0  0  0  0
 22 24  1  0  0  0  0
 22 10  1  0  0  0  0
 23 21  1  0  0  0  0
 25 14  1  1  0  0  0
 27  2  1  0  0  0  0
 28 29  1  0  0  0  0
 31 33  1  0  0  0  0
 32 29  1  6  0  0  0
 32 31  1  0  0  0  0
 32 34  1  0  0  0  0
 33 30  1  0  0  0  0
 34 30  1  0  0  0  0
M  END
>  <MODEL>
9

>  <REMARK>
 VINA RESULT:      -7.6      3.482      8.838
  Name = 
  3 active torsions:
  status: ('A' for Active; 'I' for Inactive)
    1  A    between atoms: C_17  and  O_28
    2  A    between atoms: O_28  and  C_29
    3  A    between atoms: C_29  and  C_32
                            x       y       z     vdW  Elec       q    Type
                         _______ _______ _______ _____ _____    ______ ____

>  <TORSDO>
F 3

$$$$
