=
 OpenBabel11112418003D

 34 40  0  0  1  0  0  0  0  0999 V2000
  188.7970  174.9170  142.5170 C   0  0  0  0  0  0  0  0  0  0  0  0
  189.8530  172.5770  142.3390 C   0  0  0  0  0  2  0  0  0  0  0  0
  185.4830  179.0730  146.2270 N   0  0  2  0  0  0  0  0  0  0  0  0
  187.4960  177.0490  142.8900 C   0  0  1  0  0  3  0  0  0  0  0  0
  187.0370  177.4600  145.3720 C   0  0  1  0  0  3  0  0  0  0  0  0
  186.2040  177.8310  147.8290 C   0  0  0  0  0  2  0  0  0  0  0  0
  185.5250  179.1820  147.6780 C   0  0  0  0  0  2  0  0  0  0  0  0
  184.1670  178.5480  144.2110 C   0  0  0  0  0  2  0  0  0  0  0  0
  189.5380  173.6340  144.4350 N   0  0  2  0  0  0  0  0  0  0  0  0
  187.7960  176.1860  145.7260 C   0  0  0  0  0  2  0  0  0  0  0  0
  185.5650  178.5580  143.5540 C   0  0  0  0  0  2  0  0  0  0  0  0
  189.9300  174.8510  145.1530 C   0  0  1  0  0  3  0  0  0  0  0  0
  190.4510  171.6800  143.4050 C   0  0  0  0  0  2  0  0  0  0  0  0
  186.4190  177.3310  143.9540 C   0  0  1  0  0  3  0  0  0  0  0  0
  184.1390  179.0520  145.6730 C   0  0  0  0  0  2  0  0  0  0  0  0
  188.4310  175.9320  143.3440 C   0  0  0  0  0  0  0  0  0  0  0  0
  185.9060  177.6910  146.3540 C   0  0  1  0  0  3  0  0  0  0  0  0
  188.9750  176.0210  144.7690 C   0  0  1  0  0  3  0  0  0  0  0  0
  187.8190  176.1410  140.5680 C   0  0  0  0  0  2  0  0  0  0  0  0
  186.8290  176.7630  141.5360 C   0  0  0  0  0  2  0  0  0  0  0  0
  190.4320  172.5110  144.6850 C   0  0  0  0  0  2  0  0  0  0  0  0
  188.2420  174.7890  141.1210 C   0  0  0  0  0  2  0  0  0  0  0  0
  189.7880  173.9140  143.0350 C   0  0  2  0  0  3  0  0  0  0  0  0
  190.0250  174.6410  146.6700 C   0  0  0  0  0  2  0  0  0  0  0  0
  191.0810  175.5460  147.2830 C   0  0  0  0  0  2  0  0  0  0  0  0
  192.4660  175.1150  146.8410 C   0  0  0  0  0  2  0  0  0  0  0  0
  193.3040  176.3380  146.5450 C   0  0  0  0  0  2  0  0  0  0  0  0
  194.6950  175.9090  146.1200 C   0  0  0  0  0  2  0  0  0  0  0  0
  194.6540  174.5340  145.4730 C   0  0  0  0  0  2  0  0  0  0  0  0
  193.2240  175.1410  142.2060 C   0  0  0  0  0  2  0  0  0  0  0  0
  194.9760  175.9620  143.5680 O   0  0  0  0  0  0  0  0  0  0  0  0
  194.7360  174.6350  143.9580 C   0  0  2  0  0  3  0  0  0  0  0  0
  194.4070  176.0770  142.2920 C   0  0  0  0  0  2  0  0  0  0  0  0
  193.4280  174.1930  143.3490 C   0  0  0  0  0  2  0  0  0  0  0  0
  1 23  1  0  0  0  0
  1 16  2  0  0  0  0
  2 13  1  0  0  0  0
  3 15  1  1  0  0  0
  3 17  1  0  0  0  0
  3  7  1  0  0  0  0
  4 20  1  6  0  0  0
  4 16  1  0  0  0  0
  4 14  1  0  0  0  0
  5 10  1  1  0  0  0
  5 17  1  0  0  0  0
  7  6  1  0  0  0  0
  8 15  1  0  0  0  0
  9 21  1  1  0  0  0
  9 12  1  0  0  0  0
 11  8  1  0  0  0  0
 12 24  1  1  0  0  0
 13 21  1  0  0  0  0
 14 11  1  6  0  0  0
 14  5  1  0  0  0  0
 16 18  1  0  0  0  0
 17  6  1  1  0  0  0
 18 12  1  0  0  0  0
 18 10  1  1  0  0  0
 19 22  1  0  0  0  0
 19 20  1  0  0  0  0
 22  1  1  0  0  0  0
 23  2  1  6  0  0  0
 23  9  1  0  0  0  0
 24 25  1  0  0  0  0
 26 25  1  0  0  0  0
 27 26  1  0  0  0  0
 28 27  1  0  0  0  0
 29 28  1  0  0  0  0
 30 33  1  0  0  0  0
 30 34  1  0  0  0  0
 31 32  1  0  0  0  0
 32 29  1  1  0  0  0
 33 31  1  0  0  0  0
 34 32  1  0  0  0  0
M  END
>  <MODEL>
1

>  <REMARK>
 VINA RESULT:      -7.9      0.000      0.000
  Name = 
  7 active torsions:
  status: ('A' for Active; 'I' for Inactive)
    1  A    between atoms: C_10  and  C_17
    2  A    between atoms: C_10  and  C_22
    3  A    between atoms: C_13  and  C_24
    4  A    between atoms: C_17  and  C_28
    5  A    between atoms: C_22  and  C_24
    6  A    between atoms: C_28  and  C_29
    7  A    between atoms: C_29  and  C_32
                            x       y       z     vdW  Elec       q    Type
                         _______ _______ _______ _____ _____    ______ ____

>  <TORSDO>
F 7

$$$$
=
 OpenBabel11112418003D

 34 40  0  0  1  0  0  0  0  0999 V2000
  188.0700  175.6990  141.3050 C   0  0  0  0  0  0  0  0  0  0  0  0
  188.8300  173.4710  140.2640 C   0  0  0  0  0  2  0  0  0  0  0  0
  185.5740  178.6500  146.5080 N   0  0  2  0  0  0  0  0  0  0  0  0
  187.0600  177.6870  142.4900 C   0  0  1  0  0  3  0  0  0  0  0  0
  186.8550  177.2890  145.0080 C   0  0  1  0  0  3  0  0  0  0  0  0
  186.2740  176.8930  147.5320 C   0  0  0  0  0  2  0  0  0  0  0  0
  185.7460  178.2690  147.9020 C   0  0  0  0  0  2  0  0  0  0  0  0
  184.0460  178.9340  144.5950 C   0  0  0  0  0  2  0  0  0  0  0  0
  188.8110  173.7960  142.6100 N   0  0  2  0  0  0  0  0  0  0  0  0
  187.4870  175.9110  144.8440 C   0  0  0  0  0  2  0  0  0  0  0  0
  185.3780  179.0460  143.8200 C   0  0  0  0  0  2  0  0  0  0  0  0
  189.3990  174.6700  143.6310 C   0  0  1  0  0  3  0  0  0  0  0  0
  189.4040  172.2260  140.9100 C   0  0  0  0  0  2  0  0  0  0  0  0
  186.1130  177.6890  143.7040 C   0  0  1  0  0  3  0  0  0  0  0  0
  184.1960  178.9250  146.1350 C   0  0  0  0  0  2  0  0  0  0  0  0
  187.8930  176.4100  142.4510 C   0  0  0  0  0  0  0  0  0  0  0  0
  185.8430  177.2750  146.1350 C   0  0  1  0  0  3  0  0  0  0  0  0
  188.5580  175.9750  143.7560 C   0  0  1  0  0  3  0  0  0  0  0  0
  187.0850  177.5760  139.9780 C   0  0  0  0  0  2  0  0  0  0  0  0
  186.2570  177.9220  141.2020 C   0  0  0  0  0  2  0  0  0  0  0  0
  189.5870  172.5840  142.3810 C   0  0  0  0  0  2  0  0  0  0  0  0
  187.3920  176.0870  140.0150 C   0  0  0  0  0  2  0  0  0  0  0  0
  188.9770  174.5020  141.3550 C   0  0  2  0  0  3  0  0  0  0  0  0
  189.5920  173.9620  144.9780 C   0  0  0  0  0  2  0  0  0  0  0  0
  190.8630  174.4340  145.6670 C   0  0  0  0  0  2  0  0  0  0  0  0
  190.5210  175.2610  146.8920 C   0  0  0  0  0  2  0  0  0  0  0  0
  191.7910  175.8240  147.4880 C   0  0  0  0  0  2  0  0  0  0  0  0
  192.9760  175.4130  146.6370 C   0  0  0  0  0  2  0  0  0  0  0  0
  193.7940  176.6300  146.2370 C   0  0  0  0  0  2  0  0  0  0  0  0
  192.9040  175.7300  142.8490 C   0  0  0  0  0  2  0  0  0  0  0  0
  192.3630  177.3780  144.4570 O   0  0  0  0  0  0  0  0  0  0  0  0
  193.6580  176.9230  144.7510 C   0  0  2  0  0  3  0  0  0  0  0  0
  192.1350  177.0010  143.1270 C   0  0  0  0  0  2  0  0  0  0  0  0
  193.9050  175.6600  143.9610 C   0  0  0  0  0  2  0  0  0  0  0  0
  1 23  1  0  0  0  0
  1 16  2  0  0  0  0
  2 13  1  0  0  0  0
  3 15  1  1  0  0  0
  3  7  1  0  0  0  0
  4 20  1  6  0  0  0
  4 14  1  0  0  0  0
  5 10  1  6  0  0  0
  5 17  1  0  0  0  0
  6  7  1  0  0  0  0
  8 15  1  0  0  0  0
  9 21  1  6  0  0  0
  9 12  1  0  0  0  0
 11  8  1  0  0  0  0
 12 18  1  0  0  0  0
 12 24  1  1  0  0  0
 13 21  1  0  0  0  0
 14 11  1  1  0  0  0
 14  5  1  0  0  0  0
 16  4  1  0  0  0  0
 16 18  1  0  0  0  0
 17  3  1  0  0  0  0
 17  6  1  1  0  0  0
 18 10  1  1  0  0  0
 19 22  1  0  0  0  0
 19 20  1  0  0  0  0
 22  1  1  0  0  0  0
 23  2  1  6  0  0  0
 23  9  1  0  0  0  0
 24 25  1  0  0  0  0
 25 26  1  0  0  0  0
 26 27  1  0  0  0  0
 28 27  1  0  0  0  0
 29 28  1  0  0  0  0
 30 33  1  0  0  0  0
 30 34  1  0  0  0  0
 31 32  1  0  0  0  0
 32 29  1  1  0  0  0
 33 31  1  0  0  0  0
 34 32  1  0  0  0  0
M  END
>  <MODEL>
2

>  <REMARK>
 VINA RESULT:      -7.9      1.194      1.714
  Name = 
  7 active torsions:
  status: ('A' for Active; 'I' for Inactive)
    1  A    between atoms: C_10  and  C_17
    2  A    between atoms: C_10  and  C_22
    3  A    between atoms: C_13  and  C_24
    4  A    between atoms: C_17  and  C_28
    5  A    between atoms: C_22  and  C_24
    6  A    between atoms: C_28  and  C_29
    7  A    between atoms: C_29  and  C_32
                            x       y       z     vdW  Elec       q    Type
                         _______ _______ _______ _____ _____    ______ ____

>  <TORSDO>
F 7

$$$$
=
 OpenBabel11112418003D

 34 40  0  0  1  0  0  0  0  0999 V2000
  192.7430  175.6890  144.5840 C   0  0  0  0  0  0  0  0  0  0  0  0
  192.6130  176.3460  147.0690 C   0  0  0  0  0  2  0  0  0  0  0  0
  189.7670  172.8010  139.6040 N   0  0  2  0  0  0  0  0  0  0  0  0
  192.6900  174.7400  142.2450 C   0  0  1  0  0  3  0  0  0  0  0  0
  190.3140  174.1310  141.5210 C   0  0  1  0  0  3  0  0  0  0  0  0
  188.0000  173.1500  140.7790 C   0  0  0  0  0  2  0  0  0  0  0  0
  188.3340  172.7270  139.3590 C   0  0  0  0  0  2  0  0  0  0  0  0
  191.8620  171.6050  140.1090 C   0  0  0  0  0  2  0  0  0  0  0  0
  190.6570  176.0240  145.7720 N   0  0  2  0  0  0  0  0  0  0  0  0
  189.7760  174.6270  142.8590 C   0  0  0  0  0  2  0  0  0  0  0  0
  192.3640  173.0390  140.3880 C   0  0  0  0  0  2  0  0  0  0  0  0
  190.0050  176.5480  144.5680 C   0  0  1  0  0  3  0  0  0  0  0  0
  191.4180  176.6830  147.9390 C   0  0  0  0  0  2  0  0  0  0  0  0
  191.7740  173.6320  141.6900 C   0  0  1  0  0  3  0  0  0  0  0  0
  190.4570  171.5290  139.4640 C   0  0  0  0  0  2  0  0  0  0  0  0
  192.0470  175.4260  143.4460 C   0  0  0  0  0  0  0  0  0  0  0  0
  189.4810  172.9700  141.0150 C   0  0  1  0  0  3  0  0  0  0  0  0
  190.5840  175.8450  143.3050 C   0  0  1  0  0  3  0  0  0  0  0  0
  194.8810  175.1160  143.4200 C   0  0  0  0  0  2  0  0  0  0  0  0
  194.0790  174.1610  142.5540 C   0  0  0  0  0  2  0  0  0  0  0  0
  190.2210  176.6880  146.9940 C   0  0  0  0  0  2  0  0  0  0  0  0
  194.1760  175.2510  144.7600 C   0  0  0  0  0  2  0  0  0  0  0  0
  192.0410  176.4440  145.6770 C   0  0  2  0  0  3  0  0  0  0  0  0
  188.4750  176.4670  144.6390 C   0  0  0  0  0  2  0  0  0  0  0  0
  187.8350  177.7700  144.1870 C   0  0  0  0  0  2  0  0  0  0  0  0
  186.6680  177.4900  143.2600 C   0  0  0  0  0  2  0  0  0  0  0  0
  185.9980  178.7930  142.8870 C   0  0  0  0  0  2  0  0  0  0  0  0
  185.5560  179.5130  144.1460 C   0  0  0  0  0  2  0  0  0  0  0  0
  184.3850  178.7900  144.7900 C   0  0  0  0  0  2  0  0  0  0  0  0
  186.0770  177.0400  147.4660 C   0  0  0  0  0  2  0  0  0  0  0  0
  185.7460  179.2590  146.7140 O   0  0  0  0  0  0  0  0  0  0  0  0
  184.6560  178.5010  146.2580 C   0  0  2  0  0  3  0  0  0  0  0  0
  186.3060  178.5050  147.7550 C   0  0  0  0  0  2  0  0  0  0  0  0
  184.9920  177.0390  146.4330 C   0  0  0  0  0  2  0  0  0  0  0  0
  1 22  1  0  0  0  0
  1 23  1  0  0  0  0
  2 13  1  0  0  0  0
  3  7  1  6  0  0  0
  3 17  1  0  0  0  0
  4 20  1  1  0  0  0
  4 16  1  0  0  0  0
  5 14  1  0  0  0  0
  5 10  1  1  0  0  0
  7  6  1  0  0  0  0
  8 11  1  0  0  0  0
  9 21  1  1  0  0  0
 12 24  1  1  0  0  0
 12  9  1  0  0  0  0
 14 11  1  6  0  0  0
 14  4  1  0  0  0  0
 15  3  1  0  0  0  0
 15  8  1  0  0  0  0
 16  1  2  0  0  0  0
 17  6  1  6  0  0  0
 17  5  1  0  0  0  0
 18 10  1  1  0  0  0
 18 16  1  0  0  0  0
 18 12  1  0  0  0  0
 19 22  1  0  0  0  0
 20 19  1  0  0  0  0
 21 13  1  0  0  0  0
 23  9  1  0  0  0  0
 23  2  1  1  0  0  0
 25 24  1  0  0  0  0
 26 25  1  0  0  0  0
 27 26  1  0  0  0  0
 27 28  1  0  0  0  0
 28 29  1  0  0  0  0
 30 33  1  0  0  0  0
 31 33  1  0  0  0  0
 32 29  1  6  0  0  0
 32 34  1  0  0  0  0
 32 31  1  0  0  0  0
 34 30  1  0  0  0  0
M  END
>  <MODEL>
3

>  <REMARK>
 VINA RESULT:      -7.6      2.540      7.805
  Name = 
  7 active torsions:
  status: ('A' for Active; 'I' for Inactive)
    1  A    between atoms: C_10  and  C_17
    2  A    between atoms: C_10  and  C_22
    3  A    between atoms: C_13  and  C_24
    4  A    between atoms: C_17  and  C_28
    5  A    between atoms: C_22  and  C_24
    6  A    between atoms: C_28  and  C_29
    7  A    between atoms: C_29  and  C_32
                            x       y       z     vdW  Elec       q    Type
                         _______ _______ _______ _____ _____    ______ ____

>  <TORSDO>
F 7

$$$$
=
 OpenBabel11112418003D

 34 40  0  0  1  0  0  0  0  0999 V2000
  192.2980  176.2600  145.8120 C   0  0  0  0  0  0  0  0  0  0  0  0
  190.5140  175.5580  147.5290 C   0  0  0  0  0  2  0  0  0  0  0  0
  194.8330  175.2310  139.9360 N   0  0  2  0  0  0  0  0  0  0  0  0
  194.0670  176.5910  144.0400 C   0  0  1  0  0  3  0  0  0  0  0  0
  193.3640  175.5840  141.7970 C   0  0  1  0  0  3  0  0  0  0  0  0
  192.9280  174.3110  139.5480 C   0  0  0  0  0  2  0  0  0  0  0  0
  194.1340  174.7680  138.7460 C   0  0  0  0  0  2  0  0  0  0  0  0
  196.5450  174.7930  141.6530 C   0  0  0  0  0  2  0  0  0  0  0  0
  190.2010  175.2060  145.2070 N   0  0  2  0  0  0  0  0  0  0  0  0
  192.0340  175.1510  142.4050 C   0  0  0  0  0  2  0  0  0  0  0  0
  195.8570  175.9920  142.3420 C   0  0  0  0  0  2  0  0  0  0  0  0
  190.1330  175.9610  143.9520 C   0  0  1  0  0  3  0  0  0  0  0  0
  189.1260  174.9800  147.3290 C   0  0  0  0  0  2  0  0  0  0  0  0
  194.4580  175.6350  142.8970 C   0  0  1  0  0  3  0  0  0  0  0  0
  196.0780  174.5290  140.2020 C   0  0  0  0  0  2  0  0  0  0  0  0
  192.6340  176.3370  144.4960 C   0  0  0  0  0  0  0  0  0  0  0  0
  193.8110  174.5920  140.7420 C   0  0  1  0  0  3  0  0  0  0  0  0
  191.5710  176.2080  143.4060 C   0  0  1  0  0  3  0  0  0  0  0  0
  194.5560  177.1290  146.4470 C   0  0  0  0  0  2  0  0  0  0  0  0
  195.0900  176.4850  145.1810 C   0  0  0  0  0  2  0  0  0  0  0  0
  188.8960  174.9990  145.8210 C   0  0  0  0  0  2  0  0  0  0  0  0
  193.3360  176.3450  146.9040 C   0  0  0  0  0  2  0  0  0  0  0  0
  190.8460  176.0900  146.1560 C   0  0  2  0  0  3  0  0  0  0  0  0
  189.2130  175.3070  142.9140 C   0  0  0  0  0  2  0  0  0  0  0  0
  188.3490  176.3460  142.2160 C   0  0  0  0  0  2  0  0  0  0  0  0
  187.8490  177.3720  143.2140 C   0  0  0  0  0  2  0  0  0  0  0  0
  186.8970  178.3230  142.5240 C   0  0  0  0  0  2  0  0  0  0  0  0
  186.0050  178.9840  143.5560 C   0  0  0  0  0  2  0  0  0  0  0  0
  184.9160  178.0270  144.0110 C   0  0  0  0  0  2  0  0  0  0  0  0
  186.1090  177.2790  147.3430 C   0  0  0  0  0  2  0  0  0  0  0  0
  185.4100  179.1500  146.0770 O   0  0  0  0  0  0  0  0  0  0  0  0
  184.7840  178.0210  145.5260 C   0  0  2  0  0  3  0  0  0  0  0  0
  185.8060  178.7590  147.3630 C   0  0  0  0  0  2  0  0  0  0  0  0
  185.4510  176.7900  146.0890 C   0  0  0  0  0  2  0  0  0  0  0  0
  1 23  1  0  0  0  0
  1 22  1  0  0  0  0
  3  7  1  6  0  0  0
  3 15  1  0  0  0  0
  3 17  1  0  0  0  0
  4 16  1  0  0  0  0
  4 20  1  1  0  0  0
  5 10  1  1  0  0  0
  5 14  1  0  0  0  0
  7  6  1  0  0  0  0
  8 11  1  0  0  0  0
  9 21  1  1  0  0  0
  9 23  1  0  0  0  0
 12 24  1  6  0  0  0
 12  9  1  0  0  0  0
 13  2  1  0  0  0  0
 14 11  1  6  0  0  0
 14  4  1  0  0  0  0
 15  8  1  0  0  0  0
 16  1  2  0  0  0  0
 17  6  1  6  0  0  0
 17  5  1  0  0  0  0
 18 10  1  6  0  0  0
 18 12  1  0  0  0  0
 18 16  1  0  0  0  0
 19 22  1  0  0  0  0
 20 19  1  0  0  0  0
 21 13  1  0  0  0  0
 23  2  1  1  0  0  0
 25 24  1  0  0  0  0
 25 26  1  0  0  0  0
 27 26  1  0  0  0  0
 27 28  1  0  0  0  0
 28 29  1  0  0  0  0
 30 33  1  0  0  0  0
 31 33  1  0  0  0  0
 32 29  1  6  0  0  0
 32 31  1  0  0  0  0
 32 34  1  0  0  0  0
 34 30  1  0  0  0  0
M  END
>  <MODEL>
4

>  <REMARK>
 VINA RESULT:      -7.5      2.661      8.465
  Name = 
  7 active torsions:
  status: ('A' for Active; 'I' for Inactive)
    1  A    between atoms: C_10  and  C_17
    2  A    between atoms: C_10  and  C_22
    3  A    between atoms: C_13  and  C_24
    4  A    between atoms: C_17  and  C_28
    5  A    between atoms: C_22  and  C_24
    6  A    between atoms: C_28  and  C_29
    7  A    between atoms: C_29  and  C_32
                            x       y       z     vdW  Elec       q    Type
                         _______ _______ _______ _____ _____    ______ ____

>  <TORSDO>
F 7

$$$$
=
 OpenBabel11112418003D

 34 40  0  0  1  0  0  0  0  0999 V2000
  189.2510  174.7250  141.5690 C   0  0  0  0  0  0  0  0  0  0  0  0
  187.4170  176.3860  140.8600 C   0  0  0  0  0  2  0  0  0  0  0  0
  195.1990  173.9830  144.0330 N   0  0  2  0  0  0  0  0  0  0  0  0
  191.2880  173.3480  142.1420 C   0  0  1  0  0  3  0  0  0  0  0  0
  192.9410  174.6530  143.5910 C   0  0  1  0  0  3  0  0  0  0  0  0
  194.8670  175.9720  144.7820 C   0  0  0  0  0  2  0  0  0  0  0  0
  195.8660  174.8470  144.9960 C   0  0  0  0  0  2  0  0  0  0  0  0
  195.1400  173.0620  141.7480 C   0  0  0  0  0  2  0  0  0  0  0  0
  189.0290  176.9520  142.5010 N   0  0  2  0  0  0  0  0  0  0  0  0
  192.0000  175.8530  143.5890 C   0  0  0  0  0  2  0  0  0  0  0  0
  193.7230  172.6300  142.1880 C   0  0  0  0  0  2  0  0  0  0  0  0
  189.5100  176.4990  143.8110 C   0  0  1  0  0  3  0  0  0  0  0  0
  187.0740  177.7640  141.3930 C   0  0  0  0  0  2  0  0  0  0  0  0
  192.7450  173.8240  142.2940 C   0  0  1  0  0  3  0  0  0  0  0  0
  196.0200  173.6330  142.8850 C   0  0  0  0  0  2  0  0  0  0  0  0
  190.3120  174.4940  142.3870 C   0  0  0  0  0  0  0  0  0  0  0  0
  194.3840  175.1150  143.6360 C   0  0  1  0  0  3  0  0  0  0  0  0
  190.5550  175.3590  143.6240 C   0  0  1  0  0  3  0  0  0  0  0  0
  189.6250  172.5230  140.4460 C   0  0  0  0  0  2  0  0  0  0  0  0
  191.1000  172.6790  140.7720 C   0  0  0  0  0  2  0  0  0  0  0  0
  187.9900  177.9690  142.5950 C   0  0  0  0  0  2  0  0  0  0  0  0
  189.0140  173.9100  140.3230 C   0  0  0  0  0  2  0  0  0  0  0  0
  188.3020  175.8270  141.9470 C   0  0  2  0  0  3  0  0  0  0  0  0
  190.0400  177.6480  144.6780 C   0  0  0  0  0  2  0  0  0  0  0  0
  189.5220  177.5420  146.1030 C   0  0  0  0  0  2  0  0  0  0  0  0
  188.7250  176.2640  146.2810 C   0  0  0  0  0  2  0  0  0  0  0  0
  187.3810  176.5900  146.8940 C   0  0  0  0  0  2  0  0  0  0  0  0
  186.3200  176.6000  145.8110 C   0  0  0  0  0  2  0  0  0  0  0  0
  185.0010  177.1170  146.3620 C   0  0  0  0  0  2  0  0  0  0  0  0
  185.5370  180.0160  144.2660 C   0  0  0  0  0  2  0  0  0  0  0  0
  184.2920  178.0050  144.2440 O   0  0  0  0  0  0  0  0  0  0  0  0
  184.5200  178.3360  145.5890 C   0  0  2  0  0  3  0  0  0  0  0  0
  184.5010  179.1950  143.5340 C   0  0  0  0  0  2  0  0  0  0  0  0
  185.5740  179.4150  145.6370 C   0  0  0  0  0  2  0  0  0  0  0  0
  1 23  1  0  0  0  0
  1 16  2  0  0  0  0
  2 13  1  0  0  0  0
  3 15  1  6  0  0  0
  3  7  1  0  0  0  0
  4 20  1  6  0  0  0
  4 14  1  0  0  0  0
  4 16  1  0  0  0  0
  5 10  1  6  0  0  0
  5 17  1  0  0  0  0
  6  7  1  0  0  0  0
  8 11  1  0  0  0  0
  8 15  1  0  0  0  0
  9 21  1  1  0  0  0
  9 12  1  0  0  0  0
 12 24  1  6  0  0  0
 13 21  1  0  0  0  0
 14 11  1  1  0  0  0
 14  5  1  0  0  0  0
 16 18  1  0  0  0  0
 17  3  1  0  0  0  0
 17  6  1  1  0  0  0
 18 10  1  6  0  0  0
 18 12  1  0  0  0  0
 19 20  1  0  0  0  0
 22 19  1  0  0  0  0
 22  1  1  0  0  0  0
 23  2  1  6  0  0  0
 23  9  1  0  0  0  0
 24 25  1  0  0  0  0
 25 26  1  0  0  0  0
 26 27  1  0  0  0  0
 28 29  1  0  0  0  0
 28 27  1  0  0  0  0
 30 34  1  0  0  0  0
 31 32  1  0  0  0  0
 32 34  1  0  0  0  0
 32 29  1  1  0  0  0
 33 31  1  0  0  0  0
 33 30  1  0  0  0  0
M  END
>  <MODEL>
5

>  <REMARK>
 VINA RESULT:      -7.3      2.704      7.676
  Name = 
  7 active torsions:
  status: ('A' for Active; 'I' for Inactive)
    1  A    between atoms: C_10  and  C_17
    2  A    between atoms: C_10  and  C_22
    3  A    between atoms: C_13  and  C_24
    4  A    between atoms: C_17  and  C_28
    5  A    between atoms: C_22  and  C_24
    6  A    between atoms: C_28  and  C_29
    7  A    between atoms: C_29  and  C_32
                            x       y       z     vdW  Elec       q    Type
                         _______ _______ _______ _____ _____    ______ ____

>  <TORSDO>
F 7

$$$$
=
 OpenBabel11112418003D

 34 40  0  0  1  0  0  0  0  0999 V2000
  190.1090  172.0320  141.3670 C   0  0  0  0  0  0  0  0  0  0  0  0
  188.9010  172.2690  139.1070 C   0  0  0  0  0  2  0  0  0  0  0  0
  193.5310  175.0100  145.9960 N   0  0  2  0  0  0  0  0  0  0  0  0
  191.5370  172.0400  143.4500 C   0  0  1  0  0  3  0  0  0  0  0  0
  191.9090  174.4100  144.3360 C   0  0  1  0  0  3  0  0  0  0  0  0
  192.6530  176.7860  145.1560 C   0  0  0  0  0  2  0  0  0  0  0  0
  193.4310  176.4040  146.4040 C   0  0  0  0  0  2  0  0  0  0  0  0
  194.8980  173.2240  144.9900 C   0  0  0  0  0  2  0  0  0  0  0  0
  189.1930  174.1230  140.5530 N   0  0  2  0  0  0  0  0  0  0  0  0
  191.0480  174.9700  143.2090 C   0  0  0  0  0  2  0  0  0  0  0  0
  193.5360  172.4970  144.9470 C   0  0  0  0  0  2  0  0  0  0  0  0
  188.8540  174.5550  141.9130 C   0  0  1  0  0  3  0  0  0  0  0  0
  188.1940  173.4590  138.4860 C   0  0  0  0  0  2  0  0  0  0  0  0
  192.5820  173.0870  143.8810 C   0  0  1  0  0  3  0  0  0  0  0  0
  194.8940  174.5530  145.7820 C   0  0  0  0  0  2  0  0  0  0  0  0
  190.5070  172.6560  142.5080 C   0  0  0  0  0  0  0  0  0  0  0  0
  193.0070  175.3900  144.6980 C   0  0  1  0  0  3  0  0  0  0  0  0
  189.9050  173.9990  142.9200 C   0  0  1  0  0  3  0  0  0  0  0  0
  191.2580  169.9360  142.1030 C   0  0  0  0  0  2  0  0  0  0  0  0
  192.2430  170.8150  142.8520 C   0  0  0  0  0  2  0  0  0  0  0  0
  188.2120  174.5420  139.5600 C   0  0  0  0  0  2  0  0  0  0  0  0
  190.7170  170.7260  140.9210 C   0  0  0  0  0  2  0  0  0  0  0  0
  189.0280  172.6830  140.5520 C   0  0  2  0  0  3  0  0  0  0  0  0
  188.6750  176.0740  142.0260 C   0  0  0  0  0  2  0  0  0  0  0  0
  187.6740  176.4280  143.1140 C   0  0  0  0  0  2  0  0  0  0  0  0
  188.3640  177.1620  144.2470 C   0  0  0  0  0  2  0  0  0  0  0  0
  188.1080  176.4340  145.5480 C   0  0  0  0  0  2  0  0  0  0  0  0
  187.1660  177.2540  146.4090 C   0  0  0  0  0  2  0  0  0  0  0  0
  185.7320  176.7870  146.2240 C   0  0  0  0  0  2  0  0  0  0  0  0
  185.3360  179.7920  144.2500 C   0  0  0  0  0  2  0  0  0  0  0  0
  184.7130  177.5120  144.1720 O   0  0  0  0  0  0  0  0  0  0  0  0
  184.8930  177.8450  145.5240 C   0  0  2  0  0  3  0  0  0  0  0  0
  184.5460  178.7370  143.5120 C   0  0  0  0  0  2  0  0  0  0  0  0
  185.5990  179.1780  145.5910 C   0  0  0  0  0  2  0  0  0  0  0  0
  1 16  2  0  0  0  0
  3 15  1  6  0  0  0
  3  7  1  0  0  0  0
  4 20  1  6  0  0  0
  4 14  1  0  0  0  0
  5 10  1  6  0  0  0
  5 17  1  0  0  0  0
  6  7  1  0  0  0  0
  8 15  1  0  0  0  0
  9 21  1  6  0  0  0
  9 12  1  0  0  0  0
 11  8  1  0  0  0  0
 12 24  1  6  0  0  0
 12 18  1  0  0  0  0
 13  2  1  0  0  0  0
 13 21  1  0  0  0  0
 14  5  1  0  0  0  0
 14 11  1  1  0  0  0
 16 18  1  0  0  0  0
 16  4  1  0  0  0  0
 17  6  1  1  0  0  0
 17  3  1  0  0  0  0
 18 10  1  6  0  0  0
 19 20  1  0  0  0  0
 22  1  1  0  0  0  0
 22 19  1  0  0  0  0
 23  2  1  6  0  0  0
 23  9  1  0  0  0  0
 23  1  1  0  0  0  0
 24 25  1  0  0  0  0
 25 26  1  0  0  0  0
 26 27  1  0  0  0  0
 27 28  1  0  0  0  0
 29 28  1  0  0  0  0
 30 34  1  0  0  0  0
 31 32  1  0  0  0  0
 32 34  1  0  0  0  0
 32 29  1  6  0  0  0
 33 31  1  0  0  0  0
 33 30  1  0  0  0  0
M  END
>  <MODEL>
6

>  <REMARK>
 VINA RESULT:      -7.2      2.819      7.363
  Name = 
  7 active torsions:
  status: ('A' for Active; 'I' for Inactive)
    1  A    between atoms: C_10  and  C_17
    2  A    between atoms: C_10  and  C_22
    3  A    between atoms: C_13  and  C_24
    4  A    between atoms: C_17  and  C_28
    5  A    between atoms: C_22  and  C_24
    6  A    between atoms: C_28  and  C_29
    7  A    between atoms: C_29  and  C_32
                            x       y       z     vdW  Elec       q    Type
                         _______ _______ _______ _____ _____    ______ ____

>  <TORSDO>
F 7

$$$$
=
 OpenBabel11112418003D

 34 40  0  0  1  0  0  0  0  0999 V2000
  188.3120  177.1980  145.5920 C   0  0  0  0  0  0  0  0  0  0  0  0
  186.2670  177.8710  147.0030 C   0  0  0  0  0  2  0  0  0  0  0  0
  190.4820  173.8170  140.5060 N   0  0  2  0  0  0  0  0  0  0  0  0
  190.1520  176.2110  144.1720 C   0  0  1  0  0  3  0  0  0  0  0  0
  189.2490  175.2460  141.9830 C   0  0  1  0  0  3  0  0  0  0  0  0
  188.4280  173.9220  139.8750 C   0  0  0  0  0  2  0  0  0  0  0  0
  189.7660  173.5280  139.2720 C   0  0  0  0  0  2  0  0  0  0  0  0
  191.5220  172.9530  142.5660 C   0  0  0  0  0  2  0  0  0  0  0  0
  186.0470  177.2410  144.7300 N   0  0  2  0  0  0  0  0  0  0  0  0
  187.8390  175.6800  142.3700 C   0  0  0  0  0  2  0  0  0  0  0  0
  191.5100  174.4500  142.9470 C   0  0  0  0  0  2  0  0  0  0  0  0
  186.5140  177.6420  143.3990 C   0  0  1  0  0  3  0  0  0  0  0  0
  184.8120  178.0420  146.6120 C   0  0  0  0  0  2  0  0  0  0  0  0
  190.0870  174.9710  143.2600 C   0  0  1  0  0  3  0  0  0  0  0  0
  191.1320  172.6590  141.0980 C   0  0  0  0  0  2  0  0  0  0  0  0
  188.7650  176.8150  144.3680 C   0  0  0  0  0  0  0  0  0  0  0  0
  189.2030  173.9670  141.1720 C   0  0  1  0  0  3  0  0  0  0  0  0
  187.9100  177.0110  143.1170 C   0  0  1  0  0  3  0  0  0  0  0  0
  190.6110  176.9260  146.5380 C   0  0  0  0  0  2  0  0  0  0  0  0
  190.8440  175.8490  145.4940 C   0  0  0  0  0  2  0  0  0  0  0  0
  184.7780  177.8540  145.0980 C   0  0  0  0  0  2  0  0  0  0  0  0
  189.1220  176.9790  146.8450 C   0  0  0  0  0  2  0  0  0  0  0  0
  186.9650  177.8590  145.6650 C   0  0  2  0  0  3  0  0  0  0  0  0
  185.4950  177.3370  142.2950 C   0  0  0  0  0  2  0  0  0  0  0  0
  185.2260  178.5670  141.4420 C   0  0  0  0  0  2  0  0  0  0  0  0
  184.0060  178.3460  140.5680 C   0  0  0  0  0  2  0  0  0  0  0  0
  182.8040  178.0740  141.4430 C   0  0  0  0  0  2  0  0  0  0  0  0
  181.5620  178.6480  140.7890 C   0  0  0  0  0  2  0  0  0  0  0  0
  180.6320  179.2380  141.8370 C   0  0  0  0  0  2  0  0  0  0  0  0
  178.1170  177.0520  140.4270 C   0  0  0  0  0  2  0  0  0  0  0  0
  178.8120  177.8370  142.5470 O   0  0  0  0  0  0  0  0  0  0  0  0
  179.1930  178.8040  141.6030 C   0  0  2  0  0  3  0  0  0  0  0  0
  177.8280  177.0700  141.9090 C   0  0  0  0  0  2  0  0  0  0  0  0
  179.0630  178.1970  140.2270 C   0  0  0  0  0  2  0  0  0  0  0  0
  1 23  1  0  0  0  0
  1 22  1  0  0  0  0
  3  7  1  6  0  0  0
  3 15  1  0  0  0  0
  3 17  1  0  0  0  0
  4 16  1  0  0  0  0
  4 20  1  1  0  0  0
  5 10  1  1  0  0  0
  5 14  1  0  0  0  0
  7  6  1  0  0  0  0
  8 11  1  0  0  0  0
  9 21  1  1  0  0  0
  9 23  1  0  0  0  0
 12 24  1  6  0  0  0
 12  9  1  0  0  0  0
 13  2  1  0  0  0  0
 14 11  1  6  0  0  0
 14  4  1  0  0  0  0
 15  8  1  0  0  0  0
 16  1  2  0  0  0  0
 17  6  1  6  0  0  0
 17  5  1  0  0  0  0
 18 10  1  1  0  0  0
 18 12  1  0  0  0  0
 18 16  1  0  0  0  0
 19 22  1  0  0  0  0
 20 19  1  0  0  0  0
 21 13  1  0  0  0  0
 23  2  1  1  0  0  0
 25 24  1  0  0  0  0
 26 25  1  0  0  0  0
 26 27  1  0  0  0  0
 28 27  1  0  0  0  0
 28 29  1  0  0  0  0
 30 33  1  0  0  0  0
 32 29  1  1  0  0  0
 32 31  1  0  0  0  0
 33 31  1  0  0  0  0
 34 30  1  0  0  0  0
 34 32  1  0  0  0  0
M  END
>  <MODEL>
7

>  <REMARK>
 VINA RESULT:      -7.2      4.090      9.662
  Name = 
  7 active torsions:
  status: ('A' for Active; 'I' for Inactive)
    1  A    between atoms: C_10  and  C_17
    2  A    between atoms: C_10  and  C_22
    3  A    between atoms: C_13  and  C_24
    4  A    between atoms: C_17  and  C_28
    5  A    between atoms: C_22  and  C_24
    6  A    between atoms: C_28  and  C_29
    7  A    between atoms: C_29  and  C_32
                            x       y       z     vdW  Elec       q    Type
                         _______ _______ _______ _____ _____    ______ ____

>  <TORSDO>
F 7

$$$$
=
 OpenBabel11112418003D

 34 40  0  0  1  0  0  0  0  0999 V2000
  192.8180  176.1950  144.7260 C   0  0  0  0  0  0  0  0  0  0  0  0
  192.9370  176.6820  147.2510 C   0  0  0  0  0  2  0  0  0  0  0  0
  189.6200  173.1940  139.9540 N   0  0  2  0  0  0  0  0  0  0  0  0
  192.5790  175.3850  142.3460 C   0  0  1  0  0  3  0  0  0  0  0  0
  190.2340  174.4770  141.8830 C   0  0  1  0  0  3  0  0  0  0  0  0
  187.9980  173.2120  141.3660 C   0  0  0  0  0  2  0  0  0  0  0  0
  188.1910  172.9250  139.8870 C   0  0  0  0  0  2  0  0  0  0  0  0
  191.9090  172.2910  140.0990 C   0  0  0  0  0  2  0  0  0  0  0  0
  190.8870  176.1510  146.1900 N   0  0  2  0  0  0  0  0  0  0  0  0
  189.8190  174.8110  143.3120 C   0  0  0  0  0  2  0  0  0  0  0  0
  192.2420  173.7650  140.4210 C   0  0  0  0  0  2  0  0  0  0  0  0
  190.0110  176.6430  145.1210 C   0  0  1  0  0  3  0  0  0  0  0  0
  191.8360  176.7890  148.2880 C   0  0  0  0  0  2  0  0  0  0  0  0
  191.7580  174.1890  141.8280 C   0  0  1  0  0  3  0  0  0  0  0  0
  190.4540  172.0470  139.6320 C   0  0  0  0  0  2  0  0  0  0  0  0
  192.0170  175.8990  143.6680 C   0  0  0  0  0  0  0  0  0  0  0  0
  189.5080  173.2380  141.3990 C   0  0  1  0  0  3  0  0  0  0  0  0
  190.5050  176.1060  143.7450 C   0  0  1  0  0  3  0  0  0  0  0  0
  194.8360  176.0090  143.2610 C   0  0  0  0  0  2  0  0  0  0  0  0
  194.0630  174.9990  142.4320 C   0  0  0  0  0  2  0  0  0  0  0  0
  190.5330  176.6720  147.5040 C   0  0  0  0  0  2  0  0  0  0  0  0
  194.3080  175.9620  144.6860 C   0  0  0  0  0  2  0  0  0  0  0  0
  192.1730  176.7750  145.9530 C   0  0  2  0  0  3  0  0  0  0  0  0
  188.5310  176.3340  145.3780 C   0  0  0  0  0  2  0  0  0  0  0  0
  187.7810  177.5790  145.8260 C   0  0  0  0  0  2  0  0  0  0  0  0
  186.4670  177.1960  146.4780 C   0  0  0  0  0  2  0  0  0  0  0  0
  185.5340  178.3860  146.4680 C   0  0  0  0  0  2  0  0  0  0  0  0
  184.4340  178.1580  145.4490 C   0  0  0  0  0  2  0  0  0  0  0  0
  184.5280  179.1780  144.3260 C   0  0  0  0  0  2  0  0  0  0  0  0
  187.2180  177.9270  142.2560 C   0  0  0  0  0  2  0  0  0  0  0  0
  185.1930  177.1580  143.2060 O   0  0  0  0  0  0  0  0  0  0  0  0
  185.0770  178.5490  143.0550 C   0  0  2  0  0  3  0  0  0  0  0  0
  186.2360  176.7820  142.3490 C   0  0  0  0  0  2  0  0  0  0  0  0
  186.4480  179.1080  142.7640 C   0  0  0  0  0  2  0  0  0  0  0  0
  1 23  1  0  0  0  0
  2 13  1  0  0  0  0
  3 15  1  1  0  0  0
  3 17  1  0  0  0  0
  4 20  1  1  0  0  0
  4 16  1  0  0  0  0
  5 10  1  1  0  0  0
  7  3  1  0  0  0  0
  7  6  1  0  0  0  0
  8 11  1  0  0  0  0
  9 21  1  1  0  0  0
 12 24  1  1  0  0  0
 12  9  1  0  0  0  0
 14 11  1  6  0  0  0
 14  5  1  0  0  0  0
 14  4  1  0  0  0  0
 15  8  1  0  0  0  0
 16 18  1  0  0  0  0
 16  1  2  0  0  0  0
 17  6  1  6  0  0  0
 17  5  1  0  0  0  0
 18 10  1  1  0  0  0
 18 12  1  0  0  0  0
 19 22  1  0  0  0  0
 20 19  1  0  0  0  0
 21 13  1  0  0  0  0
 22  1  1  0  0  0  0
 23  9  1  0  0  0  0
 23  2  1  1  0  0  0
 24 25  1  0  0  0  0
 25 26  1  0  0  0  0
 27 26  1  0  0  0  0
 28 27  1  0  0  0  0
 29 28  1  0  0  0  0
 30 33  1  0  0  0  0
 30 34  1  0  0  0  0
 32 31  1  0  0  0  0
 32 29  1  1  0  0  0
 33 31  1  0  0  0  0
 34 32  1  0  0  0  0
M  END
>  <MODEL>
8

>  <REMARK>
 VINA RESULT:      -7.1      2.519      7.433
  Name = 
  7 active torsions:
  status: ('A' for Active; 'I' for Inactive)
    1  A    between atoms: C_10  and  C_17
    2  A    between atoms: C_10  and  C_22
    3  A    between atoms: C_13  and  C_24
    4  A    between atoms: C_17  and  C_28
    5  A    between atoms: C_22  and  C_24
    6  A    between atoms: C_28  and  C_29
    7  A    between atoms: C_29  and  C_32
                            x       y       z     vdW  Elec       q    Type
                         _______ _______ _______ _____ _____    ______ ____

>  <TORSDO>
F 7

$$$$
=
 OpenBabel11112418003D

 34 40  0  0  1  0  0  0  0  0999 V2000
  192.2020  176.0340  145.9200 C   0  0  0  0  0  0  0  0  0  0  0  0
  190.1070  177.1650  146.8990 C   0  0  0  0  0  2  0  0  0  0  0  0
  194.8690  170.5150  143.8140 N   0  0  2  0  0  0  0  0  0  0  0  0
  194.1620  174.6330  145.1640 C   0  0  1  0  0  3  0  0  0  0  0  0
  193.4120  172.3690  144.2410 C   0  0  1  0  0  3  0  0  0  0  0  0
  192.8200  169.9000  143.5910 C   0  0  0  0  0  2  0  0  0  0  0  0
  194.1910  169.4020  143.1660 C   0  0  0  0  0  2  0  0  0  0  0  0
  196.1310  171.3410  145.7630 C   0  0  0  0  0  2  0  0  0  0  0  0
  189.9520  175.1940  145.5940 N   0  0  2  0  0  0  0  0  0  0  0  0
  191.9550  172.7480  144.4870 C   0  0  0  0  0  2  0  0  0  0  0  0
  195.8190  172.7090  145.1180 C   0  0  0  0  0  2  0  0  0  0  0  0
  190.2840  174.7020  144.2520 C   0  0  1  0  0  3  0  0  0  0  0  0
  188.6370  176.8380  146.7230 C   0  0  0  0  0  2  0  0  0  0  0  0
  194.3290  173.1040  145.2550 C   0  0  1  0  0  3  0  0  0  0  0  0
  195.7640  170.1180  144.8880 C   0  0  0  0  0  2  0  0  0  0  0  0
  192.6870  175.0200  145.1550 C   0  0  0  0  0  0  0  0  0  0  0  0
  193.6080  170.8790  144.4310 C   0  0  1  0  0  3  0  0  0  0  0  0
  191.7710  174.2400  144.2120 C   0  0  1  0  0  3  0  0  0  0  0  0
  194.5360  176.7610  146.4490 C   0  0  0  0  0  2  0  0  0  0  0  0
  194.9560  175.3110  146.2900 C   0  0  0  0  0  2  0  0  0  0  0  0
  188.5950  175.7150  145.6910 C   0  0  0  0  0  2  0  0  0  0  0  0
  193.0790  176.7910  146.8860 C   0  0  0  0  0  2  0  0  0  0  0  0
  190.7500  176.3900  145.7750 C   0  0  2  0  0  3  0  0  0  0  0  0
  189.3160  173.6180  143.7620 C   0  0  0  0  0  2  0  0  0  0  0  0
  188.7680  173.9550  142.3840 C   0  0  0  0  0  2  0  0  0  0  0  0
  189.0520  175.4060  142.0450 C   0  0  0  0  0  2  0  0  0  0  0  0
  187.7520  176.1750  141.9940 C   0  0  0  0  0  2  0  0  0  0  0  0
  187.9460  177.5400  142.6250 C   0  0  0  0  0  2  0  0  0  0  0  0
  186.6160  178.2660  142.7460 C   0  0  0  0  0  2  0  0  0  0  0  0
  184.2550  179.0490  145.3720 C   0  0  0  0  0  2  0  0  0  0  0  0
  185.7110  177.2930  144.7480 O   0  0  0  0  0  0  0  0  0  0  0  0
  186.2340  178.4770  144.2020 C   0  0  2  0  0  3  0  0  0  0  0  0
  184.8380  177.7110  145.7610 C   0  0  0  0  0  2  0  0  0  0  0  0
  185.1740  179.5480  144.2990 C   0  0  0  0  0  2  0  0  0  0  0  0
  1 22  1  0  0  0  0
  3  7  1  6  0  0  0
  3 17  1  0  0  0  0
  3 15  1  0  0  0  0
  4 14  1  0  0  0  0
  4 20  1  1  0  0  0
  5 17  1  0  0  0  0
  5 10  1  1  0  0  0
  5 14  1  0  0  0  0
  7  6  1  0  0  0  0
  9 21  1  6  0  0  0
  9 23  1  0  0  0  0
 11  8  1  0  0  0  0
 12 24  1  1  0  0  0
 12  9  1  0  0  0  0
 13  2  1  0  0  0  0
 14 11  1  6  0  0  0
 15  8  1  0  0  0  0
 16  4  1  0  0  0  0
 16  1  2  0  0  0  0
 17  6  1  6  0  0  0
 18 12  1  0  0  0  0
 18 10  1  1  0  0  0
 18 16  1  0  0  0  0
 19 22  1  0  0  0  0
 20 19  1  0  0  0  0
 21 13  1  0  0  0  0
 23  1  1  0  0  0  0
 23  2  1  1  0  0  0
 25 24  1  0  0  0  0
 26 25  1  0  0  0  0
 27 26  1  0  0  0  0
 27 28  1  0  0  0  0
 28 29  1  0  0  0  0
 30 33  1  0  0  0  0
 31 33  1  0  0  0  0
 32 29  1  6  0  0  0
 32 34  1  0  0  0  0
 32 31  1  0  0  0  0
 34 30  1  0  0  0  0
M  END
>  <MODEL>
9

>  <REMARK>
 VINA RESULT:      -7.0      2.708      8.660
  Name = 
  7 active torsions:
  status: ('A' for Active; 'I' for Inactive)
    1  A    between atoms: C_10  and  C_17
    2  A    between atoms: C_10  and  C_22
    3  A    between atoms: C_13  and  C_24
    4  A    between atoms: C_17  and  C_28
    5  A    between atoms: C_22  and  C_24
    6  A    between atoms: C_28  and  C_29
    7  A    between atoms: C_29  and  C_32
                            x       y       z     vdW  Elec       q    Type
                         _______ _______ _______ _____ _____    ______ ____

>  <TORSDO>
F 7

$$$$
