=
 OpenBabel11112416583D

 31 35  0  0  1  0  0  0  0  0999 V2000
  185.5140  177.9370  146.6650 C   0  0  0  0  0  0  0  0  0  0  0  0
  186.7660  176.8180  143.3760 C   0  0  0  0  0  0  0  0  0  0  0  0
  185.8330  177.4010  142.3780 C   0  0  0  0  0  0  0  0  0  0  0  0
  183.6460  178.1790  141.6620 C   0  0  0  0  0  0  0  0  0  0  0  0
  186.7050  177.0420  144.7080 C   0  0  0  0  0  0  0  0  0  0  0  0
  186.6390  177.5250  147.5780 C   0  0  0  0  0  2  0  0  0  0  0  0
  184.4770  177.6420  142.6480 C   0  0  0  0  0  3  0  0  0  0  0  0
  188.8590  175.4340  143.7620 C   0  0  0  0  0  0  0  0  0  0  0  0
  184.3540  178.6690  147.2390 C   0  0  0  0  0  1  0  0  0  0  0  0
  187.6920  177.4290  140.7880 O   0  0  0  0  0  0  0  0  0  0  0  0
  182.2130  178.4370  141.9600 C   0  0  0  0  0  1  0  0  0  0  0  0
  188.7710  175.7010  145.0310 N   0  0  0  0  0  0  0  0  0  0  0  0
  187.9320  176.0770  142.7720 C   0  0  2  0  0  3  0  0  0  0  0  0
  189.7660  174.4300  143.3000 N   0  0  0  0  0  2  0  0  0  0  0  0
  185.5700  177.7430  145.3430 C   0  0  0  0  0  3  0  0  0  0  0  0
  184.1600  178.4700  140.3950 C   0  0  0  0  0  3  0  0  0  0  0  0
  187.9040  176.7390  145.5790 C   0  0  2  0  0  3  0  0  0  0  0  0
  187.4630  176.3770  146.9910 C   0  0  0  0  0  2  0  0  0  0  0  0
  188.6330  176.9890  141.7740 C   0  0  0  0  0  2  0  0  0  0  0  0
  186.3460  177.6920  141.0940 C   0  0  0  0  0  0  0  0  0  0  0  0
  185.5060  178.2250  140.1120 C   0  0  0  0  0  3  0  0  0  0  0  0
  189.9440  172.9730  145.2550 C   0  0  0  0  0  1  0  0  0  0  0  0
  190.6990  173.7350  144.1780 C   0  0  2  0  0  3  0  0  0  0  0  0
  193.4620  176.5280  145.9310 C   0  0  0  0  0  0  0  0  0  0  0  0
  191.7330  174.8550  146.1860 C   0  0  0  0  0  3  0  0  0  0  0  0
  192.4450  175.3550  142.6210 F   0  0  0  0  0  0  0  0  0  0  0  0
  194.3330  177.4080  146.4790 F   0  0  0  0  0  0  0  0  0  0  0  0
  192.6320  175.7620  146.7520 C   0  0  0  0  0  3  0  0  0  0  0  0
  192.4960  175.4790  143.9710 C   0  0  0  0  0  0  0  0  0  0  0  0
  191.6590  174.7080  144.7920 C   0  0  0  0  0  0  0  0  0  0  0  0
  193.3940  176.3860  144.5420 C   0  0  0  0  0  3  0  0  0  0  0  0
  1  9  1  0  0  0  0
  1  6  1  0  0  0  0
  2  5  2  0  0  0  0
  3  7  1  0  0  0  0
  3  2  1  0  0  0  0
  4 11  1  0  0  0  0
  4  7  2  0  0  0  0
  5 15  1  0  0  0  0
  5 17  1  0  0  0  0
  8 12  2  0  0  0  0
 10 20  1  0  0  0  0
 10 19  1  0  0  0  0
 12 17  1  0  0  0  0
 13 19  1  1  0  0  0
 13  2  1  0  0  0  0
 13  8  1  0  0  0  0
 14  8  1  0  0  0  0
 14 23  1  0  0  0  0
 15  1  2  0  0  0  0
 16  4  1  0  0  0  0
 17 18  1  1  0  0  0
 18  6  1  0  0  0  0
 20  3  2  0  0  0  0
 21 16  2  0  0  0  0
 21 20  1  0  0  0  0
 23 30  1  0  0  0  0
 23 22  1  1  0  0  0
 24 27  1  0  0  0  0
 24 28  1  0  0  0  0
 25 28  2  0  0  0  0
 26 29  1  0  0  0  0
 29 31  1  0  0  0  0
 29 30  2  0  0  0  0
 30 25  1  0  0  0  0
 31 24  2  0  0  0  0
M  END
>  <MODEL>
1

>  <REMARK>
 VINA RESULT:      -9.5      0.000      0.000
  Name = 
  2 active torsions:
  status: ('A' for Active; 'I' for Inactive)
    1  A    between atoms: C_5  and  N_16
    2  A    between atoms: C_5  and  C_30
                            x       y       z     vdW  Elec       q    Type
                         _______ _______ _______ _____ _____    ______ ____

>  <TORSDO>
F 2

$$$$
=
 OpenBabel11112416583D

 31 35  0  0  1  0  0  0  0  0999 V2000
  191.3880  176.7470  147.4760 C   0  0  0  0  0  0  0  0  0  0  0  0
  189.1650  176.5370  144.5340 C   0  0  0  0  0  0  0  0  0  0  0  0
  187.9730  177.3530  144.8800 C   0  0  0  0  0  0  0  0  0  0  0  0
  186.3670  178.2730  146.4540 C   0  0  0  0  0  0  0  0  0  0  0  0
  190.2590  176.4050  145.3170 C   0  0  0  0  0  0  0  0  0  0  0  0
  192.6520  176.1200  146.9500 C   0  0  0  0  0  2  0  0  0  0  0  0
  187.5040  177.5040  146.1940 C   0  0  0  0  0  3  0  0  0  0  0  0
  190.3220  175.1200  142.7750 C   0  0  0  0  0  0  0  0  0  0  0  0
  191.3770  177.2930  148.8590 C   0  0  0  0  0  1  0  0  0  0  0  0
  187.7040  177.8130  142.4930 O   0  0  0  0  0  0  0  0  0  0  0  0
  185.8830  178.4310  147.8500 C   0  0  0  0  0  1  0  0  0  0  0  0
  191.3600  175.0440  143.5540 N   0  0  0  0  0  0  0  0  0  0  0  0
  189.1530  175.9910  143.1290 C   0  0  2  0  0  3  0  0  0  0  0  0
  190.2260  174.2800  141.6220 N   0  0  0  0  0  2  0  0  0  0  0  0
  190.3050  176.9050  146.7070 C   0  0  0  0  0  3  0  0  0  0  0  0
  185.6830  178.8890  145.4030 C   0  0  0  0  0  3  0  0  0  0  0  0
  191.5540  175.8960  144.7240 C   0  0  2  0  0  3  0  0  0  0  0  0
  192.3790  175.1730  145.7800 C   0  0  0  0  0  2  0  0  0  0  0  0
  188.9220  177.1380  142.1550 C   0  0  0  0  0  2  0  0  0  0  0  0
  187.2750  177.9740  143.8210 C   0  0  0  0  0  0  0  0  0  0  0  0
  186.1350  178.7390  144.0900 C   0  0  0  0  0  3  0  0  0  0  0  0
  192.4330  174.1840  140.5730 C   0  0  0  0  0  1  0  0  0  0  0  0
  191.2970  173.3870  141.1960 C   0  0  2  0  0  3  0  0  0  0  0  0
  189.8040  170.4590  138.4210 C   0  0  0  0  0  0  0  0  0  0  0  0
  189.8220  172.7280  139.2610 C   0  0  0  0  0  3  0  0  0  0  0  0
  192.1580  170.6760  141.2090 F   0  0  0  0  0  0  0  0  0  0  0  0
  189.3360  169.5340  137.5490 F   0  0  0  0  0  0  0  0  0  0  0  0
  189.3400  171.7750  138.3600 C   0  0  0  0  0  3  0  0  0  0  0  0
  191.2370  171.0470  140.2840 C   0  0  0  0  0  0  0  0  0  0  0  0
  190.7730  172.3700  140.2290 C   0  0  0  0  0  0  0  0  0  0  0  0
  190.7520  170.0950  139.3820 C   0  0  0  0  0  3  0  0  0  0  0  0
  1  9  1  0  0  0  0
  2  3  1  0  0  0  0
  2  5  2  0  0  0  0
  3  7  1  0  0  0  0
  4 11  1  0  0  0  0
  5 15  1  0  0  0  0
  6  1  1  0  0  0  0
  7  4  2  0  0  0  0
  8 13  1  0  0  0  0
  8 12  2  0  0  0  0
 10 20  1  0  0  0  0
 12 17  1  0  0  0  0
 13 19  1  6  0  0  0
 13  2  1  0  0  0  0
 14  8  1  0  0  0  0
 15  1  2  0  0  0  0
 16  4  1  0  0  0  0
 17  5  1  0  0  0  0
 17 18  1  1  0  0  0
 18  6  1  0  0  0  0
 19 10  1  0  0  0  0
 20 21  1  0  0  0  0
 20  3  2  0  0  0  0
 21 16  2  0  0  0  0
 23 22  1  6  0  0  0
 23 14  1  0  0  0  0
 24 31  1  0  0  0  0
 25 30  2  0  0  0  0
 27 24  1  0  0  0  0
 28 24  2  0  0  0  0
 28 25  1  0  0  0  0
 29 26  1  0  0  0  0
 30 29  1  0  0  0  0
 30 23  1  0  0  0  0
 31 29  2  0  0  0  0
M  END
>  <MODEL>
2

>  <REMARK>
 VINA RESULT:      -9.0      3.375      5.750
  Name = 
  2 active torsions:
  status: ('A' for Active; 'I' for Inactive)
    1  A    between atoms: C_5  and  N_16
    2  A    between atoms: C_5  and  C_30
                            x       y       z     vdW  Elec       q    Type
                         _______ _______ _______ _____ _____    ______ ____

>  <TORSDO>
F 2

$$$$
=
 OpenBabel11112416583D

 31 35  0  0  1  0  0  0  0  0999 V2000
  191.6410  171.4250  141.8350 C   0  0  0  0  0  0  0  0  0  0  0  0
  192.0770  174.4330  143.9330 C   0  0  0  0  0  0  0  0  0  0  0  0
  193.4200  174.2910  144.5530 C   0  0  0  0  0  0  0  0  0  0  0  0
  195.2570  172.9810  145.4530 C   0  0  0  0  0  0  0  0  0  0  0  0
  191.5520  173.5720  143.0320 C   0  0  0  0  0  0  0  0  0  0  0  0
  190.3950  171.7680  141.0620 C   0  0  0  0  0  2  0  0  0  0  0  0
  193.9960  173.0480  144.8550 C   0  0  0  0  0  3  0  0  0  0  0  0
  190.0060  175.8770  143.6740 C   0  0  0  0  0  0  0  0  0  0  0  0
  192.3400  170.1460  141.5420 C   0  0  0  0  0  1  0  0  0  0  0  0
  193.5530  176.7330  144.6110 O   0  0  0  0  0  0  0  0  0  0  0  0
  195.8610  171.6590  145.7630 C   0  0  0  0  0  1  0  0  0  0  0  0
  189.5570  175.0330  142.7950 N   0  0  0  0  0  0  0  0  0  0  0  0
  191.3860  175.7350  144.2470 C   0  0  2  0  0  3  0  0  0  0  0  0
  189.1470  176.8910  144.2010 N   0  0  0  0  0  2  0  0  0  0  0  0
  192.1850  172.2750  142.7120 C   0  0  0  0  0  3  0  0  0  0  0  0
  195.9480  174.1550  145.7630 C   0  0  0  0  0  3  0  0  0  0  0  0
  190.3800  173.9980  142.1760 C   0  0  2  0  0  3  0  0  0  0  0  0
  189.5290  172.7940  141.7960 C   0  0  0  0  0  2  0  0  0  0  0  0
  192.3190  176.8870  143.8990 C   0  0  0  0  0  2  0  0  0  0  0  0
  194.1210  175.4750  144.8740 C   0  0  0  0  0  0  0  0  0  0  0  0
  195.3810  175.3990  145.4750 C   0  0  0  0  0  3  0  0  0  0  0  0
  187.7720  178.1520  142.6200 C   0  0  0  0  0  1  0  0  0  0  0  0
  187.7860  177.1080  143.7260 C   0  0  2  0  0  3  0  0  0  0  0  0
  185.2410  178.2950  146.9850 C   0  0  0  0  0  0  0  0  0  0  0  0
  186.0650  178.6480  144.7370 C   0  0  0  0  0  3  0  0  0  0  0  0
  187.6920  175.7000  146.1960 F   0  0  0  0  0  0  0  0  0  0  0  0
  184.4410  178.6660  148.0130 F   0  0  0  0  0  0  0  0  0  0  0  0
  185.2390  179.0300  145.7980 C   0  0  0  0  0  3  0  0  0  0  0  0
  186.8960  176.7900  146.0540 C   0  0  0  0  0  0  0  0  0  0  0  0
  186.8990  177.5260  144.8590 C   0  0  0  0  0  0  0  0  0  0  0  0
  186.0680  177.1750  147.1130 C   0  0  0  0  0  3  0  0  0  0  0  0
  1 15  2  0  0  0  0
  2 13  1  0  0  0  0
  2  3  1  0  0  0  0
  3  7  2  0  0  0  0
  3 20  1  0  0  0  0
  4 16  2  0  0  0  0
  4 11  1  0  0  0  0
  5  2  2  0  0  0  0
  6 18  1  0  0  0  0
  6  1  1  0  0  0  0
  7  4  1  0  0  0  0
  8 14  1  0  0  0  0
  8 13  1  0  0  0  0
  9  1  1  0  0  0  0
 10 20  1  0  0  0  0
 12  8  2  0  0  0  0
 13 19  1  6  0  0  0
 15  5  1  0  0  0  0
 17 18  1  1  0  0  0
 17 12  1  0  0  0  0
 17  5  1  0  0  0  0
 19 10  1  0  0  0  0
 20 21  2  0  0  0  0
 21 16  1  0  0  0  0
 23 22  1  6  0  0  0
 23 14  1  0  0  0  0
 23 30  1  0  0  0  0
 24 31  1  0  0  0  0
 24 27  1  0  0  0  0
 25 30  2  0  0  0  0
 25 28  1  0  0  0  0
 28 24  2  0  0  0  0
 29 26  1  0  0  0  0
 29 31  2  0  0  0  0
 30 29  1  0  0  0  0
M  END
>  <MODEL>
3

>  <REMARK>
 VINA RESULT:      -8.9      3.343      8.432
  Name = 
  2 active torsions:
  status: ('A' for Active; 'I' for Inactive)
    1  A    between atoms: C_5  and  N_16
    2  A    between atoms: C_5  and  C_30
                            x       y       z     vdW  Elec       q    Type
                         _______ _______ _______ _____ _____    ______ ____

>  <TORSDO>
F 2

$$$$
=
 OpenBabel11112416583D

 31 35  0  0  1  0  0  0  0  0999 V2000
  187.7010  175.9520  141.0100 C   0  0  0  0  0  0  0  0  0  0  0  0
  188.8340  175.9890  144.5250 C   0  0  0  0  0  0  0  0  0  0  0  0
  187.8280  176.8010  145.2570 C   0  0  0  0  0  0  0  0  0  0  0  0
  186.1940  178.5920  145.4080 C   0  0  0  0  0  0  0  0  0  0  0  0
  188.7570  175.6680  143.2140 C   0  0  0  0  0  0  0  0  0  0  0  0
  188.6150  174.9180  140.4050 C   0  0  0  0  0  2  0  0  0  0  0  0
  187.1170  177.8550  144.6630 C   0  0  0  0  0  3  0  0  0  0  0  0
  190.9490  174.5950  144.6840 C   0  0  0  0  0  0  0  0  0  0  0  0
  186.6510  176.5700  140.1600 C   0  0  0  0  0  1  0  0  0  0  0  0
  188.3340  175.4750  147.2490 O   0  0  0  0  0  0  0  0  0  0  0  0
  185.4410  179.7020  144.7670 C   0  0  0  0  0  1  0  0  0  0  0  0
  190.8150  174.2940  143.4270 N   0  0  0  0  0  0  0  0  0  0  0  0
  189.8920  175.3760  145.4080 C   0  0  2  0  0  3  0  0  0  0  0  0
  192.1650  174.2870  145.3710 N   0  0  0  0  0  2  0  0  0  0  0  0
  187.7500  176.2630  142.3100 C   0  0  0  0  0  3  0  0  0  0  0  0
  185.9800  178.2900  146.7550 C   0  0  0  0  0  3  0  0  0  0  0  0
  189.5930  174.5340  142.6650 C   0  0  2  0  0  3  0  0  0  0  0  0
  189.9160  174.7690  141.1960 C   0  0  0  0  0  2  0  0  0  0  0  0
  189.2120  174.6000  146.5280 C   0  0  0  0  0  2  0  0  0  0  0  0
  187.6120  176.5030  146.6210 C   0  0  0  0  0  0  0  0  0  0  0  0
  186.6890  177.2490  147.3600 C   0  0  0  0  0  3  0  0  0  0  0  0
  193.7980  172.5030  145.7260 C   0  0  0  0  0  1  0  0  0  0  0  0
  193.2600  173.5450  144.7590 C   0  0  2  0  0  3  0  0  0  0  0  0
  196.3930  176.2230  143.5270 C   0  0  0  0  0  0  0  0  0  0  0  0
  194.4820  175.7430  144.9320 C   0  0  0  0  0  3  0  0  0  0  0  0
  195.1410  172.8830  142.7300 F   0  0  0  0  0  0  0  0  0  0  0  0
  197.3800  177.0650  143.1370 F   0  0  0  0  0  0  0  0  0  0  0  0
  195.5010  176.6110  144.5300 C   0  0  0  0  0  3  0  0  0  0  0  0
  195.2480  174.0970  143.3250 C   0  0  0  0  0  0  0  0  0  0  0  0
  194.3480  174.4820  144.3310 C   0  0  0  0  0  0  0  0  0  0  0  0
  196.2660  174.9680  142.9250 C   0  0  0  0  0  3  0  0  0  0  0  0
  1 15  2  0  0  0  0
  2  3  1  0  0  0  0
  2 13  1  0  0  0  0
  3 20  1  0  0  0  0
  4 16  2  0  0  0  0
  5  2  2  0  0  0  0
  6  1  1  0  0  0  0
  6 18  1  0  0  0  0
  7  3  2  0  0  0  0
  7  4  1  0  0  0  0
  8 14  1  0  0  0  0
  8 13  1  0  0  0  0
  9  1  1  0  0  0  0
 11  4  1  0  0  0  0
 12  8  2  0  0  0  0
 13 19  1  1  0  0  0
 15  5  1  0  0  0  0
 16 21  1  0  0  0  0
 17 18  1  6  0  0  0
 17  5  1  0  0  0  0
 17 12  1  0  0  0  0
 19 10  1  0  0  0  0
 20 10  1  0  0  0  0
 20 21  2  0  0  0  0
 23 14  1  0  0  0  0
 23 22  1  1  0  0  0
 24 28  1  0  0  0  0
 26 29  1  0  0  0  0
 27 24  1  0  0  0  0
 28 25  2  0  0  0  0
 29 30  2  0  0  0  0
 30 23  1  0  0  0  0
 30 25  1  0  0  0  0
 31 29  1  0  0  0  0
 31 24  2  0  0  0  0
M  END
>  <MODEL>
4

>  <REMARK>
 VINA RESULT:      -8.9      2.463      4.696
  Name = 
  2 active torsions:
  status: ('A' for Active; 'I' for Inactive)
    1  A    between atoms: C_5  and  N_16
    2  A    between atoms: C_5  and  C_30
                            x       y       z     vdW  Elec       q    Type
                         _______ _______ _______ _____ _____    ______ ____

>  <TORSDO>
F 2

$$$$
=
 OpenBabel11112416583D

 31 35  0  0  1  0  0  0  0  0999 V2000
  190.1520  177.1070  146.2340 C   0  0  0  0  0  0  0  0  0  0  0  0
  187.4780  176.9530  143.6920 C   0  0  0  0  0  0  0  0  0  0  0  0
  186.3220  177.6690  144.2900 C   0  0  0  0  0  0  0  0  0  0  0  0
  184.9610  178.3820  146.1710 C   0  0  0  0  0  0  0  0  0  0  0  0
  188.6940  176.8370  144.2710 C   0  0  0  0  0  0  0  0  0  0  0  0
  191.3390  176.5950  145.4610 C   0  0  0  0  0  2  0  0  0  0  0  0
  186.0740  177.7040  145.6710 C   0  0  0  0  0  3  0  0  0  0  0  0
  188.3900  175.7280  141.6650 C   0  0  0  0  0  0  0  0  0  0  0  0
  190.3470  177.5590  147.6360 C   0  0  0  0  0  1  0  0  0  0  0  0
  185.6310  178.2660  142.0210 O   0  0  0  0  0  0  0  0  0  0  0  0
  184.7120  178.4190  147.6360 C   0  0  0  0  0  1  0  0  0  0  0  0
  189.5470  175.6660  142.2540 N   0  0  0  0  0  0  0  0  0  0  0  0
  187.2550  176.5000  142.2710 C   0  0  2  0  0  3  0  0  0  0  0  0
  188.1430  174.9600  140.4840 N   0  0  0  0  0  2  0  0  0  0  0  0
  188.9490  177.2480  145.6680 C   0  0  0  0  0  3  0  0  0  0  0  0
  184.0790  179.0230  145.2970 C   0  0  0  0  0  3  0  0  0  0  0  0
  189.8930  176.4490  143.4360 C   0  0  2  0  0  3  0  0  0  0  0  0
  190.9200  175.7110  144.2840 C   0  0  0  0  0  2  0  0  0  0  0  0
  186.8060  177.6920  141.4370 C   0  0  0  0  0  2  0  0  0  0  0  0
  185.4240  178.3140  143.4100 C   0  0  0  0  0  0  0  0  0  0  0  0
  184.3100  178.9870  143.9190 C   0  0  0  0  0  3  0  0  0  0  0  0
  188.5670  173.3760  138.6700 C   0  0  0  0  0  1  0  0  0  0  0  0
  189.1700  174.1660  139.8210 C   0  0  2  0  0  3  0  0  0  0  0  0
  191.0820  171.5290  142.6310 C   0  0  0  0  0  0  0  0  0  0  0  0
  189.0650  172.3950  141.6120 C   0  0  0  0  0  3  0  0  0  0  0  0
  191.9940  174.0450  140.1420 F   0  0  0  0  0  0  0  0  0  0  0  0
  191.6860  170.7000  143.5150 F   0  0  0  0  0  0  0  0  0  0  0  0
  189.6890  171.5390  142.5230 C   0  0  0  0  0  3  0  0  0  0  0  0
  191.2310  173.2320  140.9140 C   0  0  0  0  0  0  0  0  0  0  0  0
  189.8320  173.2470  140.8020 C   0  0  0  0  0  0  0  0  0  0  0  0
  191.8520  172.3740  141.8270 C   0  0  0  0  0  3  0  0  0  0  0  0
  1  9  1  0  0  0  0
  2  5  2  0  0  0  0
  2  3  1  0  0  0  0
  3  7  1  0  0  0  0
  4 11  1  0  0  0  0
  5 15  1  0  0  0  0
  6  1  1  0  0  0  0
  7  4  2  0  0  0  0
  8 12  2  0  0  0  0
  8 13  1  0  0  0  0
 10 20  1  0  0  0  0
 12 17  1  0  0  0  0
 13 19  1  6  0  0  0
 13  2  1  0  0  0  0
 14  8  1  0  0  0  0
 15  1  2  0  0  0  0
 16  4  1  0  0  0  0
 17  5  1  0  0  0  0
 17 18  1  1  0  0  0
 18  6  1  0  0  0  0
 19 10  1  0  0  0  0
 20 21  1  0  0  0  0
 20  3  2  0  0  0  0
 21 16  2  0  0  0  0
 23 22  1  6  0  0  0
 23 14  1  0  0  0  0
 23 30  1  0  0  0  0
 24 27  1  0  0  0  0
 25 28  2  0  0  0  0
 26 29  1  0  0  0  0
 28 24  1  0  0  0  0
 29 31  1  0  0  0  0
 30 29  2  0  0  0  0
 30 25  1  0  0  0  0
 31 24  2  0  0  0  0
M  END
>  <MODEL>
5

>  <REMARK>
 VINA RESULT:      -8.8      2.450      4.436
  Name = 
  2 active torsions:
  status: ('A' for Active; 'I' for Inactive)
    1  A    between atoms: C_5  and  N_16
    2  A    between atoms: C_5  and  C_30
                            x       y       z     vdW  Elec       q    Type
                         _______ _______ _______ _____ _____    ______ ____

>  <TORSDO>
F 2

$$$$
=
 OpenBabel11112416583D

 31 35  0  0  1  0  0  0  0  0999 V2000
  195.2710  176.0520  143.5820 C   0  0  0  0  0  0  0  0  0  0  0  0
  191.9590  174.7870  142.5470 C   0  0  0  0  0  0  0  0  0  0  0  0
  192.1820  174.1230  141.2370 C   0  0  0  0  0  0  0  0  0  0  0  0
  193.3210  173.8750  139.1060 C   0  0  0  0  0  0  0  0  0  0  0  0
  192.9350  175.3290  143.3090 C   0  0  0  0  0  0  0  0  0  0  0  0
  195.0070  176.4740  145.0040 C   0  0  0  0  0  2  0  0  0  0  0  0
  193.1710  174.5310  140.3300 C   0  0  0  0  0  3  0  0  0  0  0  0
  190.2910  175.3680  144.3700 C   0  0  0  0  0  0  0  0  0  0  0  0
  196.6500  176.1700  143.0410 C   0  0  0  0  0  1  0  0  0  0  0  0
  190.3080  172.6430  141.7690 O   0  0  0  0  0  0  0  0  0  0  0  0
  194.3770  174.3110  138.1550 C   0  0  0  0  0  1  0  0  0  0  0  0
  191.2690  175.8520  145.0760 N   0  0  0  0  0  0  0  0  0  0  0  0
  190.5520  174.6590  143.0730 C   0  0  2  0  0  3  0  0  0  0  0  0
  188.9370  175.6060  144.7600 N   0  0  0  0  0  2  0  0  0  0  0  0
  194.3210  175.4940  142.8230 C   0  0  0  0  0  3  0  0  0  0  0  0
  192.4770  172.8120  138.7730 C   0  0  0  0  0  3  0  0  0  0  0  0
  192.6770  175.6170  144.7710 C   0  0  2  0  0  3  0  0  0  0  0  0
  193.5290  176.7880  145.2440 C   0  0  0  0  0  2  0  0  0  0  0  0
  190.1620  173.1870  143.0870 C   0  0  0  0  0  2  0  0  0  0  0  0
  191.3280  173.0510  140.8930 C   0  0  0  0  0  0  0  0  0  0  0  0
  191.4820  172.4020  139.6640 C   0  0  0  0  0  3  0  0  0  0  0  0
  188.5190  175.3130  147.1510 C   0  0  0  0  0  1  0  0  0  0  0  0
  188.5720  176.2960  145.9920 C   0  0  2  0  0  3  0  0  0  0  0  0
  184.7980  178.3050  145.5150 C   0  0  0  0  0  0  0  0  0  0  0  0
  186.1810  176.6970  146.6810 C   0  0  0  0  0  3  0  0  0  0  0  0
  188.1150  178.2540  143.9800 F   0  0  0  0  0  0  0  0  0  0  0  0
  183.6110  178.9390  145.3630 F   0  0  0  0  0  0  0  0  0  0  0  0
  184.9560  177.3520  146.5240 C   0  0  0  0  0  3  0  0  0  0  0  0
  187.0910  177.9510  144.8160 C   0  0  0  0  0  0  0  0  0  0  0  0
  187.2550  176.9910  145.8280 C   0  0  0  0  0  0  0  0  0  0  0  0
  185.8650  178.6040  144.6630 C   0  0  0  0  0  3  0  0  0  0  0  0
  1  6  1  0  0  0  0
  2 13  1  0  0  0  0
  2  5  2  0  0  0  0
  3  2  1  0  0  0  0
  4  7  1  0  0  0  0
  5 17  1  0  0  0  0
  6 18  1  0  0  0  0
  7  3  2  0  0  0  0
  8 14  1  0  0  0  0
  8 12  2  0  0  0  0
  9  1  1  0  0  0  0
 10 19  1  0  0  0  0
 11  4  1  0  0  0  0
 13 19  1  1  0  0  0
 13  8  1  0  0  0  0
 14 23  1  0  0  0  0
 15  5  1  0  0  0  0
 15  1  2  0  0  0  0
 16  4  2  0  0  0  0
 16 21  1  0  0  0  0
 17 12  1  0  0  0  0
 17 18  1  6  0  0  0
 20  3  1  0  0  0  0
 20 10  1  0  0  0  0
 21 20  2  0  0  0  0
 23 22  1  1  0  0  0
 24 28  1  0  0  0  0
 26 29  1  0  0  0  0
 27 24  1  0  0  0  0
 28 25  2  0  0  0  0
 29 30  2  0  0  0  0
 30 23  1  0  0  0  0
 30 25  1  0  0  0  0
 31 29  1  0  0  0  0
 31 24  2  0  0  0  0
M  END
>  <MODEL>
6

>  <REMARK>
 VINA RESULT:      -8.7      3.440      7.604
  Name = 
  2 active torsions:
  status: ('A' for Active; 'I' for Inactive)
    1  A    between atoms: C_5  and  N_16
    2  A    between atoms: C_5  and  C_30
                            x       y       z     vdW  Elec       q    Type
                         _______ _______ _______ _____ _____    ______ ____

>  <TORSDO>
F 2

$$$$
=
 OpenBabel11112416583D

 31 35  0  0  1  0  0  0  0  0999 V2000
  188.6510  173.1560  140.9870 C   0  0  0  0  0  0  0  0  0  0  0  0
  188.1270  175.7970  143.5150 C   0  0  0  0  0  0  0  0  0  0  0  0
  187.0270  176.6410  142.9820 C   0  0  0  0  0  0  0  0  0  0  0  0
  185.7590  177.6490  141.1720 C   0  0  0  0  0  0  0  0  0  0  0  0
  188.5860  174.6710  142.9240 C   0  0  0  0  0  0  0  0  0  0  0  0
  189.5830  172.2200  141.7100 C   0  0  0  0  0  2  0  0  0  0  0  0
  186.8010  176.8290  141.6110 C   0  0  0  0  0  3  0  0  0  0  0  0
  189.7420  175.3840  145.4290 C   0  0  0  0  0  0  0  0  0  0  0  0
  188.1760  172.7890  139.6270 C   0  0  0  0  0  1  0  0  0  0  0  0
  186.4210  177.1560  145.2960 O   0  0  0  0  0  0  0  0  0  0  0  0
  185.5250  177.8350  139.7160 C   0  0  0  0  0  1  0  0  0  0  0  0
  190.1310  174.2960  144.8330 N   0  0  0  0  0  0  0  0  0  0  0  0
  188.5960  176.1900  144.8930 C   0  0  2  0  0  3  0  0  0  0  0  0
  190.4790  175.8960  146.5420 N   0  0  0  0  0  2  0  0  0  0  0  0
  188.1710  174.2610  141.5660 C   0  0  0  0  0  3  0  0  0  0  0  0
  184.9380  178.2950  142.1000 C   0  0  0  0  0  3  0  0  0  0  0  0
  189.4110  173.6840  143.7200 C   0  0  2  0  0  3  0  0  0  0  0  0
  190.3730  172.9330  142.8100 C   0  0  0  0  0  2  0  0  0  0  0  0
  187.3940  176.2470  145.8260 C   0  0  0  0  0  2  0  0  0  0  0  0
  186.1980  177.3010  143.9170 C   0  0  0  0  0  0  0  0  0  0  0  0
  185.1580  178.1230  143.4690 C   0  0  0  0  0  3  0  0  0  0  0  0
  191.7760  175.5930  148.5930 C   0  0  0  0  0  1  0  0  0  0  0  0
  191.6170  175.2010  147.1320 C   0  0  2  0  0  3  0  0  0  0  0  0
  195.2110  176.0550  144.9290 C   0  0  0  0  0  0  0  0  0  0  0  0
  193.3870  176.8060  146.3300 C   0  0  0  0  0  3  0  0  0  0  0  0
  193.0500  173.2090  145.6940 F   0  0  0  0  0  0  0  0  0  0  0  0
  196.3430  176.3210  144.2340 F   0  0  0  0  0  0  0  0  0  0  0  0
  194.5550  177.0810  145.6140 C   0  0  0  0  0  3  0  0  0  0  0  0
  193.5310  174.4770  145.6750 C   0  0  0  0  0  0  0  0  0  0  0  0
  192.8670  175.5030  146.3640 C   0  0  0  0  0  0  0  0  0  0  0  0
  194.7000  174.7550  144.9600 C   0  0  0  0  0  3  0  0  0  0  0  0
  1 15  2  0  0  0  0
  1  6  1  0  0  0  0
  2 13  1  0  0  0  0
  3  2  1  0  0  0  0
  3 20  1  0  0  0  0
  4  7  1  0  0  0  0
  4 16  2  0  0  0  0
  5  2  2  0  0  0  0
  5 17  1  0  0  0  0
  6 18  1  0  0  0  0
  7  3  2  0  0  0  0
  8 14  1  0  0  0  0
  9  1  1  0  0  0  0
 10 19  1  0  0  0  0
 11  4  1  0  0  0  0
 12  8  2  0  0  0  0
 13  8  1  0  0  0  0
 13 19  1  1  0  0  0
 14 23  1  0  0  0  0
 15  5  1  0  0  0  0
 16 21  1  0  0  0  0
 17 18  1  6  0  0  0
 17 12  1  0  0  0  0
 20 10  1  0  0  0  0
 21 20  2  0  0  0  0
 23 22  1  1  0  0  0
 24 31  2  0  0  0  0
 24 28  1  0  0  0  0
 25 30  1  0  0  0  0
 27 24  1  0  0  0  0
 28 25  2  0  0  0  0
 29 26  1  0  0  0  0
 29 30  2  0  0  0  0
 30 23  1  0  0  0  0
 31 29  1  0  0  0  0
M  END
>  <MODEL>
7

>  <REMARK>
 VINA RESULT:      -8.7      2.110      4.227
  Name = 
  2 active torsions:
  status: ('A' for Active; 'I' for Inactive)
    1  A    between atoms: C_5  and  N_16
    2  A    between atoms: C_5  and  C_30
                            x       y       z     vdW  Elec       q    Type
                         _______ _______ _______ _____ _____    ______ ____

>  <TORSDO>
F 2

$$$$
=
 OpenBabel11112416583D

 31 35  0  0  1  0  0  0  0  0999 V2000
  190.3870  171.2140  140.1940 C   0  0  0  0  0  0  0  0  0  0  0  0
  190.9590  173.0780  143.3300 C   0  0  0  0  0  0  0  0  0  0  0  0
  192.0880  172.3850  144.0020 C   0  0  0  0  0  0  0  0  0  0  0  0
  193.4030  170.4130  144.5350 C   0  0  0  0  0  0  0  0  0  0  0  0
  190.4750  172.7540  142.1110 C   0  0  0  0  0  0  0  0  0  0  0  0
  189.4220  172.1180  139.4720 C   0  0  0  0  0  2  0  0  0  0  0  0
  192.3330  171.0100  143.8650 C   0  0  0  0  0  3  0  0  0  0  0  0
  189.3130  175.0080  143.4080 C   0  0  0  0  0  0  0  0  0  0  0  0
  190.8670  169.9830  139.5130 C   0  0  0  0  0  1  0  0  0  0  0  0
  192.6840  174.5290  145.0190 O   0  0  0  0  0  0  0  0  0  0  0  0
  193.6580  168.9570  144.3770 C   0  0  0  0  0  1  0  0  0  0  0  0
  188.9000  174.6720  142.2230 N   0  0  0  0  0  0  0  0  0  0  0  0
  190.4870  174.3220  144.0410 C   0  0  2  0  0  3  0  0  0  0  0  0
  188.5790  175.9620  144.1810 N   0  0  0  0  0  2  0  0  0  0  0  0
  190.8930  171.5330  141.3900 C   0  0  0  0  0  3  0  0  0  0  0  0
  194.2320  171.1820  145.3560 C   0  0  0  0  0  3  0  0  0  0  0  0
  189.6140  173.7410  141.3540 C   0  0  2  0  0  3  0  0  0  0  0  0
  188.6410  173.0110  140.4380 C   0  0  0  0  0  2  0  0  0  0  0  0
  191.6810  175.2370  144.2810 C   0  0  0  0  0  2  0  0  0  0  0  0
  192.9260  173.1570  144.8380 C   0  0  0  0  0  0  0  0  0  0  0  0
  193.9930  172.5500  145.5080 C   0  0  0  0  0  3  0  0  0  0  0  0
  187.8540  177.8300  142.7790 C   0  0  0  0  0  1  0  0  0  0  0  0
  187.4160  176.6770  143.6680 C   0  0  2  0  0  3  0  0  0  0  0  0
  184.9810  178.1130  146.9100 C   0  0  0  0  0  0  0  0  0  0  0  0
  187.0680  177.1840  146.1130 C   0  0  0  0  0  3  0  0  0  0  0  0
  184.7680  177.6430  143.2920 F   0  0  0  0  0  0  0  0  0  0  0  0
  184.2110  178.5660  147.9290 F   0  0  0  0  0  0  0  0  0  0  0  0
  186.2740  177.6510  147.1640 C   0  0  0  0  0  3  0  0  0  0  0  0
  185.2700  177.6400  144.5510 C   0  0  0  0  0  0  0  0  0  0  0  0
  186.5710  177.1740  144.8010 C   0  0  0  0  0  0  0  0  0  0  0  0
  184.4790  178.1080  145.6050 C   0  0  0  0  0  3  0  0  0  0  0  0
  1 15  2  0  0  0  0
  2  3  1  0  0  0  0
  2 13  1  0  0  0  0
  3 20  1  0  0  0  0
  4 16  2  0  0  0  0
  5  2  2  0  0  0  0
  6  1  1  0  0  0  0
  6 18  1  0  0  0  0
  7  3  2  0  0  0  0
  7  4  1  0  0  0  0
  8 13  1  0  0  0  0
  8 14  1  0  0  0  0
  9  1  1  0  0  0  0
 11  4  1  0  0  0  0
 12  8  2  0  0  0  0
 13 19  1  6  0  0  0
 15  5  1  0  0  0  0
 16 21  1  0  0  0  0
 17 18  1  1  0  0  0
 17  5  1  0  0  0  0
 17 12  1  0  0  0  0
 19 10  1  0  0  0  0
 20 10  1  0  0  0  0
 20 21  2  0  0  0  0
 23 22  1  1  0  0  0
 23 14  1  0  0  0  0
 23 30  1  0  0  0  0
 24 28  1  0  0  0  0
 24 27  1  0  0  0  0
 25 28  2  0  0  0  0
 26 29  1  0  0  0  0
 29 30  2  0  0  0  0
 29 31  1  0  0  0  0
 30 25  1  0  0  0  0
 31 24  2  0  0  0  0
M  END
>  <MODEL>
8

>  <REMARK>
 VINA RESULT:      -8.6      3.845      8.470
  Name = 
  2 active torsions:
  status: ('A' for Active; 'I' for Inactive)
    1  A    between atoms: C_5  and  N_16
    2  A    between atoms: C_5  and  C_30
                            x       y       z     vdW  Elec       q    Type
                         _______ _______ _______ _____ _____    ______ ____

>  <TORSDO>
F 2

$$$$
=
 OpenBabel11112416583D

 31 35  0  0  1  0  0  0  0  0999 V2000
  190.7430  176.1810  146.6280 C   0  0  0  0  0  0  0  0  0  0  0  0
  188.0940  176.3160  144.0580 C   0  0  0  0  0  0  0  0  0  0  0  0
  187.1680  177.3910  144.5010 C   0  0  0  0  0  0  0  0  0  0  0  0
  186.0560  178.7180  146.2040 C   0  0  0  0  0  0  0  0  0  0  0  0
  189.2440  175.9870  144.6860 C   0  0  0  0  0  0  0  0  0  0  0  0
  191.7500  175.2660  145.9810 C   0  0  0  0  0  2  0  0  0  0  0  0
  186.9520  177.7070  145.8500 C   0  0  0  0  0  3  0  0  0  0  0  0
  188.6390  174.5930  142.2760 C   0  0  0  0  0  0  0  0  0  0  0  0
  191.0620  176.7850  147.9480 C   0  0  0  0  0  1  0  0  0  0  0  0
  186.6320  177.7770  142.1450 O   0  0  0  0  0  0  0  0  0  0  0  0
  185.8400  179.0490  147.6370 C   0  0  0  0  0  1  0  0  0  0  0  0
  189.7460  174.3310  142.9040 N   0  0  0  0  0  0  0  0  0  0  0  0
  187.7480  175.7160  142.7190 C   0  0  2  0  0  3  0  0  0  0  0  0
  188.1910  173.7370  141.2220 N   0  0  0  0  0  2  0  0  0  0  0  0
  189.6110  176.5340  146.0090 C   0  0  0  0  0  3  0  0  0  0  0  0
  185.3610  179.4160  145.2130 C   0  0  0  0  0  3  0  0  0  0  0  0
  190.2950  175.1760  143.9590 C   0  0  2  0  0  3  0  0  0  0  0  0
  191.1050  174.3440  144.9440 C   0  0  0  0  0  2  0  0  0  0  0  0
  187.6130  176.8350  141.6950 C   0  0  0  0  0  2  0  0  0  0  0  0
  186.4580  178.0960  143.5030 C   0  0  0  0  0  0  0  0  0  0  0  0
  185.5600  179.1040  143.8660 C   0  0  0  0  0  3  0  0  0  0  0  0
  189.7340  171.9520  141.8620 C   0  0  0  0  0  1  0  0  0  0  0  0
  188.9710  172.6110  140.7240 C   0  0  2  0  0  3  0  0  0  0  0  0
  191.6620  173.9090  137.6290 C   0  0  0  0  0  0  0  0  0  0  0  0
  191.2860  173.1850  139.9070 C   0  0  0  0  0  3  0  0  0  0  0  0
  188.0950  173.2600  138.0960 F   0  0  0  0  0  0  0  0  0  0  0  0
  192.5070  174.3180  136.6530 F   0  0  0  0  0  0  0  0  0  0  0  0
  192.1570  173.6060  138.8990 C   0  0  0  0  0  3  0  0  0  0  0  0
  189.4190  173.3700  138.3710 C   0  0  0  0  0  0  0  0  0  0  0  0
  189.9110  173.0650  139.6490 C   0  0  0  0  0  0  0  0  0  0  0  0
  190.2950  173.7910  137.3650 C   0  0  0  0  0  3  0  0  0  0  0  0
  1  9  1  0  0  0  0
  2  3  1  0  0  0  0
  2  5  2  0  0  0  0
  3  7  1  0  0  0  0
  4 11  1  0  0  0  0
  5 15  1  0  0  0  0
  6  1  1  0  0  0  0
  7  4  2  0  0  0  0
  8 13  1  0  0  0  0
  8 12  2  0  0  0  0
 10 20  1  0  0  0  0
 12 17  1  0  0  0  0
 13 19  1  6  0  0  0
 13  2  1  0  0  0  0
 14  8  1  0  0  0  0
 15  1  2  0  0  0  0
 16  4  1  0  0  0  0
 17  5  1  0  0  0  0
 17 18  1  1  0  0  0
 18  6  1  0  0  0  0
 19 10  1  0  0  0  0
 20 21  1  0  0  0  0
 20  3  2  0  0  0  0
 21 16  2  0  0  0  0
 23 14  1  0  0  0  0
 23 22  1  1  0  0  0
 24 28  1  0  0  0  0
 26 29  1  0  0  0  0
 27 24  1  0  0  0  0
 28 25  2  0  0  0  0
 29 30  2  0  0  0  0
 30 25  1  0  0  0  0
 30 23  1  0  0  0  0
 31 24  2  0  0  0  0
 31 29  1  0  0  0  0
M  END
>  <MODEL>
9

>  <REMARK>
 VINA RESULT:      -8.4      3.188      5.245
  Name = 
  2 active torsions:
  status: ('A' for Active; 'I' for Inactive)
    1  A    between atoms: C_5  and  N_16
    2  A    between atoms: C_5  and  C_30
                            x       y       z     vdW  Elec       q    Type
                         _______ _______ _______ _____ _____    ______ ____

>  <TORSDO>
F 2

$$$$
