=
 OpenBabel11112416163D

 30 35  0  0  1  0  0  0  0  0999 V2000
  187.4990  176.4410  145.3550 C   0  0  0  0  0  0  0  0  0  0  0  0
  185.7140  177.7290  146.5750 C   0  0  0  0  0  0  0  0  0  0  0  0
  185.8950  177.5580  141.6390 N   0  0  0  0  0  0  0  0  0  0  0  0
  188.0530  176.0050  144.1140 C   0  0  0  0  0  0  0  0  0  0  0  0
  188.1310  176.0400  146.5400 C   0  0  0  0  0  3  0  0  0  0  0  0
  190.9090  173.9520  145.3040 O   0  0  0  0  0  1  0  0  0  0  0  0
  188.6870  173.9120  141.9370 C   0  0  1  0  0  3  0  0  0  0  0  0
  189.7890  174.7800  145.3100 C   0  0  0  0  0  0  0  0  0  0  0  0
  187.8050  174.7960  141.1380 N   0  0  2  0  0  0  0  0  0  0  0  0
  186.7360  176.9950  140.8310 C   0  0  0  0  0  0  0  0  0  0  0  0
  189.2650  175.2310  146.5270 C   0  0  0  0  0  0  0  0  0  0  0  0
  189.1870  175.1560  144.0980 C   0  0  0  0  0  0  0  0  0  0  0  0
  184.5740  178.5360  146.5190 C   0  0  0  0  0  3  0  0  0  0  0  0
  188.2770  174.6540  139.7660 C   0  0  0  0  0  2  0  0  0  0  0  0
  189.3470  172.9190  140.9970 C   0  0  0  0  0  2  0  0  0  0  0  0
  186.2110  177.4050  147.8330 O   0  0  0  0  0  1  0  0  0  0  0  0
  186.3160  177.2190  142.9490 C   0  0  0  0  0  0  0  0  0  0  0  0
  184.0190  178.9030  145.2950 C   0  0  0  0  0  3  0  0  0  0  0  0
  186.3270  177.2660  145.3770 C   0  0  0  0  0  0  0  0  0  0  0  0
  187.4310  176.4280  142.9310 C   0  0  0  0  0  0  0  0  0  0  0  0
  186.6520  177.1810  139.4220 N   0  0  0  0  0  1  0  0  0  0  0  0
  187.8460  176.2200  141.5090 C   0  0  1  0  0  3  0  0  0  0  0  0
  188.8250  173.2560  139.6260 C   0  0  0  0  0  2  0  0  0  0  0  0
  190.6820  175.5590  142.1010 C   0  0  0  0  0  1  0  0  0  0  0  0
  184.5970  178.4620  144.1080 C   0  0  0  0  0  3  0  0  0  0  0  0
  185.7360  177.6520  144.1380 C   0  0  0  0  0  0  0  0  0  0  0  0
  189.7520  174.5910  142.8220 C   0  0  2  0  0  3  0  0  0  0  0  0
  189.8840  174.8280  147.8280 C   0  0  0  0  0  2  0  0  0  0  0  0
  191.2100  176.9270  148.1080 C   0  0  0  0  0  1  0  0  0  0  0  0
  191.2790  175.4160  147.9810 C   0  0  0  0  0  2  0  0  0  0  0  0
  1 19  1  0  0  0  0
  1  5  1  0  0  0  0
  2 16  1  0  0  0  0
  3 17  1  0  0  0  0
  4  1  2  0  0  0  0
  6  8  1  0  0  0  0
  7 15  1  6  0  0  0
  7 27  1  0  0  0  0
  8 11  1  0  0  0  0
  9 14  1  6  0  0  0
  9 22  1  0  0  0  0
  9  7  1  0  0  0  0
 10  3  2  0  0  0  0
 11  5  2  0  0  0  0
 11 28  1  0  0  0  0
 12  4  1  0  0  0  0
 12  8  2  0  0  0  0
 13  2  1  0  0  0  0
 17 26  1  0  0  0  0
 18 13  2  0  0  0  0
 19  2  2  0  0  0  0
 20 17  2  0  0  0  0
 20  4  1  0  0  0  0
 21 10  1  0  0  0  0
 22 10  1  6  0  0  0
 22 20  1  0  0  0  0
 23 14  1  0  0  0  0
 23 15  1  0  0  0  0
 25 26  2  0  0  0  0
 25 18  1  0  0  0  0
 26 19  1  0  0  0  0
 27 24  1  6  0  0  0
 27 12  1  0  0  0  0
 28 30  1  0  0  0  0
 30 29  1  0  0  0  0
M  END
>  <MODEL>
1

>  <REMARK>
 VINA RESULT:      -9.3      0.000      0.000
  Name = 
  2 active torsions:
  status: ('A' for Active; 'I' for Inactive)
    1  A    between atoms: C_11  and  C_28
    2  A    between atoms: C_28  and  C_30
                            x       y       z     vdW  Elec       q    Type
                         _______ _______ _______ _____ _____    ______ ____

>  <TORSDO>
F 2

$$$$
=
 OpenBabel11112416163D

 30 35  0  0  1  0  0  0  0  0999 V2000
  186.2620  177.3210  143.8110 C   0  0  0  0  0  0  0  0  0  0  0  0
  184.5800  178.5020  145.2650 C   0  0  0  0  0  0  0  0  0  0  0  0
  188.4660  176.1220  147.1780 N   0  0  0  0  0  0  0  0  0  0  0  0
  187.4690  176.5650  143.7140 C   0  0  0  0  0  0  0  0  0  0  0  0
  185.5820  177.6410  142.6280 C   0  0  0  0  0  3  0  0  0  0  0  0
  187.7460  176.1630  140.0320 O   0  0  0  0  0  1  0  0  0  0  0  0
  190.4510  176.1690  143.0260 C   0  0  1  0  0  3  0  0  0  0  0  0
  187.2590  176.5330  141.2840 C   0  0  0  0  0  0  0  0  0  0  0  0
  190.5350  175.9590  144.4910 N   0  0  2  0  0  0  0  0  0  0  0  0
  189.4090  175.4330  146.6190 C   0  0  0  0  0  0  0  0  0  0  0  0
  186.0600  177.2480  141.3800 C   0  0  0  0  0  0  0  0  0  0  0  0
  187.9750  176.1920  142.4440 C   0  0  0  0  0  0  0  0  0  0  0  0
  184.1560  178.8660  146.5460 C   0  0  0  0  0  3  0  0  0  0  0  0
  191.6580  175.0460  144.6740 C   0  0  0  0  0  2  0  0  0  0  0  0
  191.7780  175.7690  142.4080 C   0  0  0  0  0  2  0  0  0  0  0  0
  183.8010  178.9120  144.1890 O   0  0  0  0  0  1  0  0  0  0  0  0
  187.6610  176.6190  146.1230 C   0  0  0  0  0  0  0  0  0  0  0  0
  184.8840  178.4920  147.6730 C   0  0  0  0  0  3  0  0  0  0  0  0
  185.7680  177.7380  145.0920 C   0  0  0  0  0  0  0  0  0  0  0  0
  188.1320  176.2280  144.9010 C   0  0  0  0  0  0  0  0  0  0  0  0
  190.3750  174.7280  147.3930 N   0  0  0  0  0  1  0  0  0  0  0  0
  189.3370  175.3660  145.1080 C   0  0  1  0  0  3  0  0  0  0  0  0
  192.6360  175.3150  143.5580 C   0  0  0  0  0  2  0  0  0  0  0  0
  189.1830  173.9720  142.4880 C   0  0  0  0  0  1  0  0  0  0  0  0
  186.0500  177.7460  147.5310 C   0  0  0  0  0  3  0  0  0  0  0  0
  186.4970  177.3710  146.2610 C   0  0  0  0  0  0  0  0  0  0  0  0
  189.2900  175.4780  142.2800 C   0  0  2  0  0  3  0  0  0  0  0  0
  185.2940  177.6340  140.1550 C   0  0  0  0  0  2  0  0  0  0  0  0
  182.8110  177.8760  140.2900 C   0  0  0  0  0  1  0  0  0  0  0  0
  184.1440  178.5710  140.4950 C   0  0  0  0  0  2  0  0  0  0  0  0
  1 19  1  0  0  0  0
  2 13  1  0  0  0  0
  4  1  1  0  0  0  0
  4 20  1  0  0  0  0
  5  1  2  0  0  0  0
  6  8  1  0  0  0  0
  7 15  1  6  0  0  0
  7  9  1  0  0  0  0
  8 11  2  0  0  0  0
  8 12  1  0  0  0  0
  9 14  1  6  0  0  0
  9 22  1  0  0  0  0
 10  3  2  0  0  0  0
 10 21  1  0  0  0  0
 11  5  1  0  0  0  0
 12  4  2  0  0  0  0
 13 18  2  0  0  0  0
 15 23  1  0  0  0  0
 16  2  1  0  0  0  0
 17 26  1  0  0  0  0
 17  3  1  0  0  0  0
 19  2  2  0  0  0  0
 19 26  1  0  0  0  0
 20 17  2  0  0  0  0
 22 20  1  6  0  0  0
 22 10  1  0  0  0  0
 23 14  1  0  0  0  0
 25 18  1  0  0  0  0
 26 25  2  0  0  0  0
 27 12  1  0  0  0  0
 27 24  1  1  0  0  0
 27  7  1  0  0  0  0
 28 30  1  0  0  0  0
 28 11  1  0  0  0  0
 29 30  1  0  0  0  0
M  END
>  <MODEL>
2

>  <REMARK>
 VINA RESULT:      -9.0      2.721      5.334
  Name = 
  2 active torsions:
  status: ('A' for Active; 'I' for Inactive)
    1  A    between atoms: C_11  and  C_28
    2  A    between atoms: C_28  and  C_30
                            x       y       z     vdW  Elec       q    Type
                         _______ _______ _______ _____ _____    ______ ____

>  <TORSDO>
F 2

$$$$
=
 OpenBabel11112416163D

 30 35  0  0  1  0  0  0  0  0999 V2000
  188.3060  176.0940  143.6200 C   0  0  0  0  0  0  0  0  0  0  0  0
  186.0210  177.0960  143.9600 C   0  0  0  0  0  0  0  0  0  0  0  0
  189.5210  177.3420  147.4410 N   0  0  0  0  0  0  0  0  0  0  0  0
  189.6190  175.8580  144.1270 C   0  0  0  0  0  0  0  0  0  0  0  0
  187.9890  175.6060  142.3460 C   0  0  0  0  0  3  0  0  0  0  0  0
  191.1520  174.0370  141.2770 O   0  0  0  0  0  1  0  0  0  0  0  0
  192.6710  176.3010  144.2510 C   0  0  1  0  0  3  0  0  0  0  0  0
  190.2170  174.7090  142.0620 C   0  0  0  0  0  0  0  0  0  0  0  0
  192.3240  176.7890  145.6070 N   0  0  2  0  0  0  0  0  0  0  0  0
  190.7260  176.8680  147.4800 C   0  0  0  0  0  0  0  0  0  0  0  0
  188.9200  174.9140  141.5750 C   0  0  0  0  0  0  0  0  0  0  0  0
  190.5790  175.1830  143.3330 C   0  0  0  0  0  0  0  0  0  0  0  0
  185.1360  177.7980  144.7820 C   0  0  0  0  0  3  0  0  0  0  0  0
  193.5060  176.5150  146.4160 C   0  0  0  0  0  2  0  0  0  0  0  0
  194.1810  176.1790  144.1570 C   0  0  0  0  0  2  0  0  0  0  0  0
  185.5590  176.6930  142.7120 O   0  0  0  0  0  1  0  0  0  0  0  0
  189.0070  177.0110  146.1630 C   0  0  0  0  0  0  0  0  0  0  0  0
  185.5270  178.2350  146.0450 C   0  0  0  0  0  3  0  0  0  0  0  0
  187.3440  176.8140  144.4040 C   0  0  0  0  0  0  0  0  0  0  0  0
  189.9230  176.3280  145.4120 C   0  0  0  0  0  0  0  0  0  0  0  0
  191.5240  176.9640  148.6560 N   0  0  0  0  0  1  0  0  0  0  0  0
  191.1610  176.1360  146.2290 C   0  0  1  0  0  3  0  0  0  0  0  0
  194.7020  176.6070  145.5030 C   0  0  0  0  0  2  0  0  0  0  0  0
  192.1840  173.7970  144.7080 C   0  0  0  0  0  1  0  0  0  0  0  0
  186.8150  177.9740  146.5030 C   0  0  0  0  0  3  0  0  0  0  0  0
  187.7210  177.2750  145.6990 C   0  0  0  0  0  0  0  0  0  0  0  0
  192.0030  174.9930  143.7810 C   0  0  2  0  0  3  0  0  0  0  0  0
  188.5230  174.4300  140.2160 C   0  0  0  0  0  2  0  0  0  0  0  0
  188.6840  172.2900  138.9380 C   0  0  0  0  0  1  0  0  0  0  0  0
  188.2200  172.9390  140.2280 C   0  0  0  0  0  2  0  0  0  0  0  0
  1  4  1  0  0  0  0
  1 19  1  0  0  0  0
  2 19  2  0  0  0  0
  2 13  1  0  0  0  0
  3 10  2  0  0  0  0
  4 20  1  0  0  0  0
  5  1  2  0  0  0  0
  6  8  1  0  0  0  0
  7 15  1  1  0  0  0
  7  9  1  0  0  0  0
  8 12  1  0  0  0  0
  9 22  1  0  0  0  0
  9 14  1  1  0  0  0
 10 21  1  0  0  0  0
 11  8  2  0  0  0  0
 11  5  1  0  0  0  0
 12 27  1  0  0  0  0
 12  4  2  0  0  0  0
 13 18  2  0  0  0  0
 15 23  1  0  0  0  0
 16  2  1  0  0  0  0
 17  3  1  0  0  0  0
 18 25  1  0  0  0  0
 19 26  1  0  0  0  0
 20 17  2  0  0  0  0
 22 20  1  6  0  0  0
 22 10  1  0  0  0  0
 23 14  1  0  0  0  0
 26 17  1  0  0  0  0
 26 25  2  0  0  0  0
 27  7  1  0  0  0  0
 27 24  1  1  0  0  0
 28 30  1  0  0  0  0
 28 11  1  0  0  0  0
 29 30  1  0  0  0  0
M  END
>  <MODEL>
3

>  <REMARK>
 VINA RESULT:      -8.5      3.144      5.643
  Name = 
  2 active torsions:
  status: ('A' for Active; 'I' for Inactive)
    1  A    between atoms: C_11  and  C_28
    2  A    between atoms: C_28  and  C_30
                            x       y       z     vdW  Elec       q    Type
                         _______ _______ _______ _____ _____    ______ ____

>  <TORSDO>
F 2

$$$$
=
 OpenBabel11112416163D

 30 35  0  0  1  0  0  0  0  0999 V2000
  188.8660  175.8390  143.0180 C   0  0  0  0  0  0  0  0  0  0  0  0
  186.6900  177.0940  142.8650 C   0  0  0  0  0  0  0  0  0  0  0  0
  189.5920  177.3840  146.8540 N   0  0  0  0  0  0  0  0  0  0  0  0
  190.0450  175.5330  143.7630 C   0  0  0  0  0  0  0  0  0  0  0  0
  188.7030  175.2430  141.7600 C   0  0  0  0  0  3  0  0  0  0  0  0
  191.7910  173.2580  141.4030 O   0  0  0  0  0  1  0  0  0  0  0  0
  193.0680  175.6830  144.3640 C   0  0  1  0  0  3  0  0  0  0  0  0
  190.8270  174.1040  141.9480 C   0  0  0  0  0  0  0  0  0  0  0  0
  192.5690  176.3530  145.5880 N   0  0  2  0  0  0  0  0  0  0  0  0
  190.7110  176.8010  147.1440 C   0  0  0  0  0  0  0  0  0  0  0  0
  189.6580  174.3790  141.2300 C   0  0  0  0  0  0  0  0  0  0  0  0
  191.0340  174.6810  143.2120 C   0  0  0  0  0  0  0  0  0  0  0  0
  185.7720  177.9690  143.4520 C   0  0  0  0  0  3  0  0  0  0  0  0
  193.5660  176.0560  146.6100 C   0  0  0  0  0  2  0  0  0  0  0  0
  194.5490  175.4020  144.5420 C   0  0  0  0  0  2  0  0  0  0  0  0
  186.3880  176.6000  141.6000 O   0  0  0  0  0  1  0  0  0  0  0  0
  189.2540  176.9630  145.5440 C   0  0  0  0  0  0  0  0  0  0  0  0
  186.0040  178.5050  144.7170 C   0  0  0  0  0  3  0  0  0  0  0  0
  187.8820  176.7350  143.5530 C   0  0  0  0  0  0  0  0  0  0  0  0
  190.1930  176.1130  145.0290 C   0  0  0  0  0  0  0  0  0  0  0  0
  191.3180  176.9500  148.4240 N   0  0  0  0  0  1  0  0  0  0  0  0
  191.2530  175.8920  146.0620 C   0  0  1  0  0  3  0  0  0  0  0  0
  194.8950  175.9250  145.9100 C   0  0  0  0  0  2  0  0  0  0  0  0
  192.2260  173.3060  144.9670 C   0  0  0  0  0  1  0  0  0  0  0  0
  187.1640  178.1710  145.4110 C   0  0  0  0  0  3  0  0  0  0  0  0
  188.0990  177.3000  144.8440 C   0  0  0  0  0  0  0  0  0  0  0  0
  192.3370  174.4020  143.9130 C   0  0  2  0  0  3  0  0  0  0  0  0
  189.4290  173.7870  139.8750 C   0  0  0  0  0  2  0  0  0  0  0  0
  188.2670  174.2540  137.7130 C   0  0  0  0  0  1  0  0  0  0  0  0
  188.1810  174.3650  139.2240 C   0  0  0  0  0  2  0  0  0  0  0  0
  1 19  2  0  0  0  0
  1  4  1  0  0  0  0
  2 13  2  0  0  0  0
  2 19  1  0  0  0  0
  3 10  2  0  0  0  0
  4 20  2  0  0  0  0
  5  1  1  0  0  0  0
  6  8  1  0  0  0  0
  7 15  1  1  0  0  0
  7  9  1  0  0  0  0
  8 12  2  0  0  0  0
  9 22  1  0  0  0  0
  9 14  1  1  0  0  0
 10 21  1  0  0  0  0
 11  5  2  0  0  0  0
 11  8  1  0  0  0  0
 12  4  1  0  0  0  0
 12 27  1  0  0  0  0
 13 18  1  0  0  0  0
 15 23  1  0  0  0  0
 16  2  1  0  0  0  0
 17  3  1  0  0  0  0
 18 25  2  0  0  0  0
 19 26  1  0  0  0  0
 20 17  1  0  0  0  0
 22 20  1  6  0  0  0
 22 10  1  0  0  0  0
 23 14  1  0  0  0  0
 26 25  1  0  0  0  0
 26 17  2  0  0  0  0
 27  7  1  0  0  0  0
 27 24  1  1  0  0  0
 28 11  1  0  0  0  0
 29 30  1  0  0  0  0
 30 28  1  0  0  0  0
M  END
>  <MODEL>
4

>  <REMARK>
 VINA RESULT:      -8.1      3.243      5.852
  Name = 
  2 active torsions:
  status: ('A' for Active; 'I' for Inactive)
    1  A    between atoms: C_11  and  C_28
    2  A    between atoms: C_28  and  C_30
                            x       y       z     vdW  Elec       q    Type
                         _______ _______ _______ _____ _____    ______ ____

>  <TORSDO>
F 2

$$$$
=
 OpenBabel11112416163D

 30 35  0  0  1  0  0  0  0  0999 V2000
  188.2470  175.8970  142.0540 C   0  0  0  0  0  0  0  0  0  0  0  0
  186.6520  176.9820  140.4370 C   0  0  0  0  0  0  0  0  0  0  0  0
  186.6680  178.1230  145.2460 N   0  0  0  0  0  0  0  0  0  0  0  0
  188.7430  175.7910  143.3880 C   0  0  0  0  0  0  0  0  0  0  0  0
  188.8190  175.0830  141.0670 C   0  0  0  0  0  3  0  0  0  0  0  0
  191.4070  173.2430  142.9430 O   0  0  0  0  0  1  0  0  0  0  0  0
  190.8390  176.2120  145.6140 C   0  0  1  0  0  3  0  0  0  0  0  0
  190.3580  174.1150  142.6610 C   0  0  0  0  0  0  0  0  0  0  0  0
  189.7550  177.0560  146.1730 N   0  0  2  0  0  0  0  0  0  0  0  0
  187.3680  177.6620  146.2330 C   0  0  0  0  0  0  0  0  0  0  0  0
  189.8520  174.1960  141.3590 C   0  0  0  0  0  0  0  0  0  0  0  0
  189.8150  174.9130  143.6820 C   0  0  0  0  0  0  0  0  0  0  0  0
  185.6170  177.8930  140.2100 C   0  0  0  0  0  3  0  0  0  0  0  0
  189.9420  176.9970  147.6180 C   0  0  0  0  0  2  0  0  0  0  0  0
  191.9130  176.0500  146.6740 C   0  0  0  0  0  2  0  0  0  0  0  0
  187.1230  176.2600  139.3450 O   0  0  0  0  0  1  0  0  0  0  0  0
  187.1400  177.4630  144.0840 C   0  0  0  0  0  0  0  0  0  0  0  0
  185.0920  178.6520  141.2540 C   0  0  0  0  0  3  0  0  0  0  0  0
  187.1890  176.8150  141.7440 C   0  0  0  0  0  0  0  0  0  0  0  0
  188.1510  176.5900  144.3760 C   0  0  0  0  0  0  0  0  0  0  0  0
  187.1140  178.0650  147.5760 N   0  0  0  0  0  1  0  0  0  0  0  0
  188.3880  176.6110  145.8530 C   0  0  1  0  0  3  0  0  0  0  0  0
  191.4190  176.8220  147.8680 C   0  0  0  0  0  2  0  0  0  0  0  0
  189.6670  173.9330  146.0070 C   0  0  0  0  0  1  0  0  0  0  0  0
  185.6010  178.5100  142.5420 C   0  0  0  0  0  3  0  0  0  0  0  0
  186.6380  177.6070  142.7940 C   0  0  0  0  0  0  0  0  0  0  0  0
  190.4390  174.8340  145.0500 C   0  0  2  0  0  3  0  0  0  0  0  0
  190.4290  173.3650  140.2560 C   0  0  0  0  0  2  0  0  0  0  0  0
  188.6340  172.3700  138.8320 C   0  0  0  0  0  1  0  0  0  0  0  0
  189.6220  173.5130  138.9740 C   0  0  0  0  0  2  0  0  0  0  0  0
  1  4  1  0  0  0  0
  2 19  1  0  0  0  0
  3 10  2  0  0  0  0
  4 12  1  0  0  0  0
  4 20  2  0  0  0  0
  5 11  2  0  0  0  0
  5  1  1  0  0  0  0
  7  9  1  0  0  0  0
  7 15  1  1  0  0  0
  8  6  1  0  0  0  0
  8 12  2  0  0  0  0
  9 14  1  1  0  0  0
 10 21  1  0  0  0  0
 11  8  1  0  0  0  0
 12 27  1  0  0  0  0
 13  2  2  0  0  0  0
 13 18  1  0  0  0  0
 14 23  1  0  0  0  0
 15 23  1  0  0  0  0
 16  2  1  0  0  0  0
 17 20  1  0  0  0  0
 17  3  1  0  0  0  0
 18 25  2  0  0  0  0
 19  1  2  0  0  0  0
 19 26  1  0  0  0  0
 22 20  1  6  0  0  0
 22  9  1  0  0  0  0
 22 10  1  0  0  0  0
 25 26  1  0  0  0  0
 26 17  2  0  0  0  0
 27  7  1  0  0  0  0
 27 24  1  1  0  0  0
 28 11  1  0  0  0  0
 29 30  1  0  0  0  0
 30 28  1  0  0  0  0
M  END
>  <MODEL>
5

>  <REMARK>
 VINA RESULT:      -7.9      2.622      5.667
  Name = 
  2 active torsions:
  status: ('A' for Active; 'I' for Inactive)
    1  A    between atoms: C_11  and  C_28
    2  A    between atoms: C_28  and  C_30
                            x       y       z     vdW  Elec       q    Type
                         _______ _______ _______ _____ _____    ______ ____

>  <TORSDO>
F 2

$$$$
=
 OpenBabel11112416163D

 30 35  0  0  1  0  0  0  0  0999 V2000
  189.1130  176.1260  144.9500 C   0  0  0  0  0  0  0  0  0  0  0  0
  190.2070  176.9330  147.0690 C   0  0  0  0  0  0  0  0  0  0  0  0
  191.8060  172.9160  144.6740 N   0  0  0  0  0  0  0  0  0  0  0  0
  189.0830  175.1850  143.8780 C   0  0  0  0  0  0  0  0  0  0  0  0
  188.1470  177.1420  144.9680 C   0  0  0  0  0  3  0  0  0  0  0  0
  186.2200  176.4730  141.8950 O   0  0  0  0  0  1  0  0  0  0  0  0
  189.4820  174.2960  140.9490 C   0  0  1  0  0  3  0  0  0  0  0  0
  187.1730  176.3450  142.9030 C   0  0  0  0  0  0  0  0  0  0  0  0
  190.4930  173.4170  141.5830 N   0  0  2  0  0  0  0  0  0  0  0  0
  191.3680  172.3220  143.6100 C   0  0  0  0  0  0  0  0  0  0  0  0
  187.1810  177.2510  143.9700 C   0  0  0  0  0  0  0  0  0  0  0  0
  188.1230  175.3120  142.8440 C   0  0  0  0  0  0  0  0  0  0  0  0
  191.2020  176.7690  148.0360 C   0  0  0  0  0  3  0  0  0  0  0  0
  190.5560  172.2400  140.7250 C   0  0  0  0  0  2  0  0  0  0  0  0
  189.3050  173.8580  139.5070 C   0  0  0  0  0  2  0  0  0  0  0  0
  189.3320  178.0040  147.2210 O   0  0  0  0  0  1  0  0  0  0  0  0
  190.9850  174.0570  144.8570 C   0  0  0  0  0  0  0  0  0  0  0  0
  192.1140  175.7200  147.9510 C   0  0  0  0  0  3  0  0  0  0  0  0
  190.1090  176.0260  145.9770 C   0  0  0  0  0  0  0  0  0  0  0  0
  190.0370  174.1580  143.8770 C   0  0  0  0  0  0  0  0  0  0  0  0
  191.9270  171.0900  143.1630 N   0  0  0  0  0  1  0  0  0  0  0  0
  190.1770  172.9870  142.9550 C   0  0  1  0  0  3  0  0  0  0  0  0
  190.2410  172.6940  139.3220 C   0  0  0  0  0  2  0  0  0  0  0  0
  187.4000  173.0810  141.9010 C   0  0  0  0  0  1  0  0  0  0  0  0
  192.0430  174.8200  146.8930 C   0  0  0  0  0  3  0  0  0  0  0  0
  191.0580  174.9630  145.9110 C   0  0  0  0  0  0  0  0  0  0  0  0
  188.1090  174.4050  141.6420 C   0  0  2  0  0  3  0  0  0  0  0  0
  186.1870  178.3660  144.0410 C   0  0  0  0  0  2  0  0  0  0  0  0
  184.5010  178.3270  145.8850 C   0  0  0  0  0  1  0  0  0  0  0  0
  185.8990  178.7580  145.4830 C   0  0  0  0  0  2  0  0  0  0  0  0
  1  5  1  0  0  0  0
  1 19  1  0  0  0  0
  2 16  1  0  0  0  0
  2 13  1  0  0  0  0
  3 17  1  0  0  0  0
  4  1  2  0  0  0  0
  6  8  1  0  0  0  0
  7 15  1  6  0  0  0
  7  9  1  0  0  0  0
  7 27  1  0  0  0  0
  8 11  1  0  0  0  0
  9 14  1  6  0  0  0
  9 22  1  0  0  0  0
 10  3  2  0  0  0  0
 11 28  1  0  0  0  0
 11  5  2  0  0  0  0
 12  8  2  0  0  0  0
 12  4  1  0  0  0  0
 17 26  1  0  0  0  0
 18 13  2  0  0  0  0
 19  2  2  0  0  0  0
 20  4  1  0  0  0  0
 20 17  2  0  0  0  0
 21 10  1  0  0  0  0
 22 10  1  1  0  0  0
 22 20  1  0  0  0  0
 23 15  1  0  0  0  0
 23 14  1  0  0  0  0
 25 18  1  0  0  0  0
 26 19  1  0  0  0  0
 26 25  2  0  0  0  0
 27 24  1  1  0  0  0
 27 12  1  0  0  0  0
 28 30  1  0  0  0  0
 30 29  1  0  0  0  0
M  END
>  <MODEL>
6

>  <REMARK>
 VINA RESULT:      -7.9      2.351      5.248
  Name = 
  2 active torsions:
  status: ('A' for Active; 'I' for Inactive)
    1  A    between atoms: C_11  and  C_28
    2  A    between atoms: C_28  and  C_30
                            x       y       z     vdW  Elec       q    Type
                         _______ _______ _______ _____ _____    ______ ____

>  <TORSDO>
F 2

$$$$
=
 OpenBabel11112416163D

 30 35  0  0  1  0  0  0  0  0999 V2000
  189.7650  175.7910  144.7060 C   0  0  0  0  0  0  0  0  0  0  0  0
  191.3850  176.5000  146.4970 C   0  0  0  0  0  0  0  0  0  0  0  0
  192.5590  173.0850  143.1230 N   0  0  0  0  0  0  0  0  0  0  0  0
  189.4960  174.9880  143.5560 C   0  0  0  0  0  0  0  0  0  0  0  0
  188.7520  176.6370  145.1760 C   0  0  0  0  0  3  0  0  0  0  0  0
  186.0270  176.0480  142.7610 O   0  0  0  0  0  1  0  0  0  0  0  0
  189.0310  174.5220  140.5410 C   0  0  1  0  0  3  0  0  0  0  0  0
  187.2600  175.9490  143.4010 C   0  0  0  0  0  0  0  0  0  0  0  0
  190.2800  173.7390  140.6920 N   0  0  2  0  0  0  0  0  0  0  0  0
  191.8710  172.5610  142.1590 C   0  0  0  0  0  0  0  0  0  0  0  0
  187.5120  176.7140  144.5460 C   0  0  0  0  0  0  0  0  0  0  0  0
  188.2480  175.0880  142.8940 C   0  0  0  0  0  0  0  0  0  0  0  0
  192.6490  176.3780  147.0800 C   0  0  0  0  0  3  0  0  0  0  0  0
  190.1930  172.6950  139.6790 C   0  0  0  0  0  2  0  0  0  0  0  0
  188.4490  174.2350  139.1680 C   0  0  0  0  0  2  0  0  0  0  0  0
  190.4950  177.4000  147.0740 O   0  0  0  0  0  1  0  0  0  0  0  0
  191.7220  174.0580  143.7230 C   0  0  0  0  0  0  0  0  0  0  0  0
  193.5940  175.4980  146.5580 C   0  0  0  0  0  3  0  0  0  0  0  0
  191.0430  175.7240  145.3550 C   0  0  0  0  0  0  0  0  0  0  0  0
  190.5040  174.1270  143.1040 C   0  0  0  0  0  0  0  0  0  0  0  0
  192.3870  171.4900  141.3740 N   0  0  0  0  0  1  0  0  0  0  0  0
  190.4680  173.1080  142.0090 C   0  0  1  0  0  3  0  0  0  0  0  0
  189.3980  173.2580  138.5270 C   0  0  0  0  0  2  0  0  0  0  0  0
  187.5070  172.8990  141.8700 C   0  0  0  0  0  1  0  0  0  0  0  0
  193.2860  174.7280  145.4410 C   0  0  0  0  0  3  0  0  0  0  0  0
  192.0290  174.8340  144.8370 C   0  0  0  0  0  0  0  0  0  0  0  0
  187.9480  174.3380  141.6240 C   0  0  2  0  0  3  0  0  0  0  0  0
  186.4780  177.6480  145.0900 C   0  0  0  0  0  2  0  0  0  0  0  0
  184.4540  177.8640  146.5390 C   0  0  0  0  0  1  0  0  0  0  0  0
  185.5870  176.9510  146.1090 C   0  0  0  0  0  2  0  0  0  0  0  0
  1  5  1  0  0  0  0
  1 19  1  0  0  0  0
  2 16  1  0  0  0  0
  2 13  1  0  0  0  0
  3 17  1  0  0  0  0
  4  1  2  0  0  0  0
  6  8  1  0  0  0  0
  7 15  1  6  0  0  0
  7  9  1  0  0  0  0
  7 27  1  0  0  0  0
  8 11  1  0  0  0  0
  9 14  1  6  0  0  0
  9 22  1  0  0  0  0
 10  3  2  0  0  0  0
 11 28  1  0  0  0  0
 11  5  2  0  0  0  0
 12  8  2  0  0  0  0
 12  4  1  0  0  0  0
 17 26  1  0  0  0  0
 18 13  2  0  0  0  0
 19  2  2  0  0  0  0
 20  4  1  0  0  0  0
 20 17  2  0  0  0  0
 21 10  1  0  0  0  0
 22 10  1  6  0  0  0
 22 20  1  0  0  0  0
 23 15  1  0  0  0  0
 23 14  1  0  0  0  0
 25 18  1  0  0  0  0
 26 19  1  0  0  0  0
 26 25  2  0  0  0  0
 27 24  1  1  0  0  0
 27 12  1  0  0  0  0
 28 30  1  0  0  0  0
 30 29  1  0  0  0  0
M  END
>  <MODEL>
7

>  <REMARK>
 VINA RESULT:      -7.8      2.429      5.407
  Name = 
  2 active torsions:
  status: ('A' for Active; 'I' for Inactive)
    1  A    between atoms: C_11  and  C_28
    2  A    between atoms: C_28  and  C_30
                            x       y       z     vdW  Elec       q    Type
                         _______ _______ _______ _____ _____    ______ ____

>  <TORSDO>
F 2

$$$$
=
 OpenBabel11112416163D

 30 35  0  0  1  0  0  0  0  0999 V2000
  187.0240  177.0540  143.7180 C   0  0  0  0  0  0  0  0  0  0  0  0
  185.2260  178.3560  142.5300 C   0  0  0  0  0  0  0  0  0  0  0  0
  188.2240  175.2540  140.1190 N   0  0  0  0  0  0  0  0  0  0  0  0
  188.0790  176.0960  143.6490 C   0  0  0  0  0  0  0  0  0  0  0  0
  186.7240  177.6230  144.9630 C   0  0  0  0  0  3  0  0  0  0  0  0
  189.1120  175.9380  147.2130 O   0  0  0  0  0  1  0  0  0  0  0  0
  189.3580  173.3310  144.1440 C   0  0  1  0  0  3  0  0  0  0  0  0
  188.4350  176.3070  146.0520 C   0  0  0  0  0  0  0  0  0  0  0  0
  189.3510  173.3060  142.6610 N   0  0  2  0  0  0  0  0  0  0  0  0
  189.2180  174.5310  140.5280 C   0  0  0  0  0  0  0  0  0  0  0  0
  187.4200  177.2690  146.1160 C   0  0  0  0  0  0  0  0  0  0  0  0
  188.7680  175.7090  144.8250 C   0  0  0  0  0  0  0  0  0  0  0  0
  184.5660  178.6660  141.3380 C   0  0  0  0  0  3  0  0  0  0  0  0
  190.4880  172.4700  142.2960 C   0  0  0  0  0  2  0  0  0  0  0  0
  190.1880  172.1600  144.6380 C   0  0  0  0  0  2  0  0  0  0  0  0
  184.7970  178.9960  143.6880 O   0  0  0  0  0  1  0  0  0  0  0  0
  187.7020  175.8960  141.2690 C   0  0  0  0  0  0  0  0  0  0  0  0
  184.9390  178.0650  140.1380 C   0  0  0  0  0  3  0  0  0  0  0  0
  186.2960  177.4180  142.5360 C   0  0  0  0  0  0  0  0  0  0  0  0
  188.3910  175.5480  142.3980 C   0  0  0  0  0  0  0  0  0  0  0  0
  190.0240  173.7910  139.6160 N   0  0  0  0  0  1  0  0  0  0  0  0
  189.4990  174.6190  142.0120 C   0  0  1  0  0  3  0  0  0  0  0  0
  190.6680  171.4560  143.3970 C   0  0  0  0  0  2  0  0  0  0  0  0
  191.1940  175.1430  144.3960 C   0  0  0  0  0  1  0  0  0  0  0  0
  185.9810  177.1430  140.1160 C   0  0  0  0  0  3  0  0  0  0  0  0
  186.6560  176.8140  141.2960 C   0  0  0  0  0  0  0  0  0  0  0  0
  189.8220  174.6350  144.8240 C   0  0  2  0  0  3  0  0  0  0  0  0
  187.0420  177.9030  147.4170 C   0  0  0  0  0  2  0  0  0  0  0  0
  184.5780  178.2910  147.2630 C   0  0  0  0  0  1  0  0  0  0  0  0
  185.9470  178.9430  147.2250 C   0  0  0  0  0  2  0  0  0  0  0  0
  1  5  2  0  0  0  0
  2 19  1  0  0  0  0
  2 16  1  0  0  0  0
  3 10  2  0  0  0  0
  3 17  1  0  0  0  0
  4  1  1  0  0  0  0
  4 12  2  0  0  0  0
  5 11  1  0  0  0  0
  7 15  1  1  0  0  0
  7 27  1  0  0  0  0
  8 11  2  0  0  0  0
  8  6  1  0  0  0  0
  9 14  1  6  0  0  0
  9  7  1  0  0  0  0
 11 28  1  0  0  0  0
 12  8  1  0  0  0  0
 13  2  2  0  0  0  0
 14 23  1  0  0  0  0
 17 26  1  0  0  0  0
 17 20  2  0  0  0  0
 18 13  1  0  0  0  0
 19  1  1  0  0  0  0
 20  4  1  0  0  0  0
 21 10  1  0  0  0  0
 22 10  1  6  0  0  0
 22 20  1  0  0  0  0
 22  9  1  0  0  0  0
 23 15  1  0  0  0  0
 25 18  2  0  0  0  0
 25 26  1  0  0  0  0
 26 19  2  0  0  0  0
 27 24  1  6  0  0  0
 27 12  1  0  0  0  0
 30 29  1  0  0  0  0
 30 28  1  0  0  0  0
M  END
>  <MODEL>
8

>  <REMARK>
 VINA RESULT:      -7.8      1.882      3.686
  Name = 
  2 active torsions:
  status: ('A' for Active; 'I' for Inactive)
    1  A    between atoms: C_11  and  C_28
    2  A    between atoms: C_28  and  C_30
                            x       y       z     vdW  Elec       q    Type
                         _______ _______ _______ _____ _____    ______ ____

>  <TORSDO>
F 2

$$$$
=
 OpenBabel11112416163D

 30 35  0  0  1  0  0  0  0  0999 V2000
  187.9760  175.8930  141.8000 C   0  0  0  0  0  0  0  0  0  0  0  0
  189.6270  174.0270  141.4380 C   0  0  0  0  0  0  0  0  0  0  0  0
  188.9280  176.0640  145.8870 N   0  0  0  0  0  0  0  0  0  0  0  0
  187.3410  176.7980  142.7030 C   0  0  0  0  0  0  0  0  0  0  0  0
  187.6120  175.9400  140.4480 C   0  0  0  0  0  3  0  0  0  0  0  0
  185.0290  178.5720  140.4020 O   0  0  0  0  0  1  0  0  0  0  0  0
  184.9660  177.8490  144.3710 C   0  0  1  0  0  3  0  0  0  0  0  0
  186.0070  177.6980  140.8720 C   0  0  0  0  0  0  0  0  0  0  0  0
  185.8830  177.5100  145.4860 N   0  0  2  0  0  0  0  0  0  0  0  0
  188.1700  177.0400  146.2730 C   0  0  0  0  0  0  0  0  0  0  0  0
  186.6510  176.8320  139.9800 C   0  0  0  0  0  0  0  0  0  0  0  0
  186.3390  177.6840  142.2360 C   0  0  0  0  0  0  0  0  0  0  0  0
  190.5800  173.1560  141.9720 C   0  0  0  0  0  3  0  0  0  0  0  0
  185.5350  178.4420  146.5520 C   0  0  0  0  0  2  0  0  0  0  0  0
  183.7980  178.6370  144.9340 C   0  0  0  0  0  2  0  0  0  0  0  0
  189.3650  173.9370  140.0750 O   0  0  0  0  0  1  0  0  0  0  0  0
  188.6670  175.8820  144.5060 C   0  0  0  0  0  0  0  0  0  0  0  0
  190.8960  173.1870  143.3280 C   0  0  0  0  0  3  0  0  0  0  0  0
  188.9610  174.9650  142.2760 C   0  0  0  0  0  0  0  0  0  0  0  0
  187.7260  176.7630  144.0500 C   0  0  0  0  0  0  0  0  0  0  0  0
  188.2210  177.5390  147.6060 N   0  0  0  0  0  1  0  0  0  0  0  0
  187.3160  177.6510  145.1820 C   0  0  1  0  0  3  0  0  0  0  0  0
  184.0650  178.7510  146.4110 C   0  0  0  0  0  2  0  0  0  0  0  0
  186.3160  179.8790  143.4890 C   0  0  0  0  0  1  0  0  0  0  0  0
  190.2580  174.0930  144.1700 C   0  0  0  0  0  3  0  0  0  0  0  0
  189.2990  174.9730  143.6610 C   0  0  0  0  0  0  0  0  0  0  0  0
  185.5720  178.5900  143.1610 C   0  0  2  0  0  3  0  0  0  0  0  0
  186.2970  176.8220  138.5260 C   0  0  0  0  0  2  0  0  0  0  0  0
  187.1810  176.0700  136.3140 C   0  0  0  0  0  1  0  0  0  0  0  0
  187.0440  175.7230  137.7850 C   0  0  0  0  0  2  0  0  0  0  0  0
  1 19  2  0  0  0  0
  1  4  1  0  0  0  0
  2 13  2  0  0  0  0
  2 19  1  0  0  0  0
  3 10  2  0  0  0  0
  4 20  2  0  0  0  0
  5  1  1  0  0  0  0
  6  8  1  0  0  0  0
  7 15  1  1  0  0  0
  7  9  1  0  0  0  0
  8 12  2  0  0  0  0
  9 14  1  1  0  0  0
 10 21  1  0  0  0  0
 11  5  2  0  0  0  0
 11  8  1  0  0  0  0
 12  4  1  0  0  0  0
 12 27  1  0  0  0  0
 13 18  1  0  0  0  0
 15 23  1  0  0  0  0
 16  2  1  0  0  0  0
 17  3  1  0  0  0  0
 18 25  2  0  0  0  0
 19 26  1  0  0  0  0
 20 17  1  0  0  0  0
 22 20  1  6  0  0  0
 22  9  1  0  0  0  0
 22 10  1  0  0  0  0
 23 14  1  0  0  0  0
 26 25  1  0  0  0  0
 26 17  2  0  0  0  0
 27 24  1  1  0  0  0
 27  7  1  0  0  0  0
 28 11  1  0  0  0  0
 29 30  1  0  0  0  0
 30 28  1  0  0  0  0
M  END
>  <MODEL>
9

>  <REMARK>
 VINA RESULT:      -7.7      2.787      7.234
  Name = 
  2 active torsions:
  status: ('A' for Active; 'I' for Inactive)
    1  A    between atoms: C_11  and  C_28
    2  A    between atoms: C_28  and  C_30
                            x       y       z     vdW  Elec       q    Type
                         _______ _______ _______ _____ _____    ______ ____

>  <TORSDO>
F 2

$$$$
