=
 OpenBabel11112418013D

 34 40  0  0  1  0  0  0  0  0999 V2000
  189.5190  174.8700  142.8280 C   0  0  0  0  0  0  0  0  0  0  0  0
  191.6780  173.4610  142.8410 C   0  0  0  0  0  3  0  0  0  0  0  0
  184.7910  178.3830  145.7450 C   0  0  0  0  0  0  0  0  0  0  0  0
  187.5450  176.2340  143.0020 C   0  0  0  0  0  0  0  0  0  0  0  0
  186.8890  177.0920  145.2890 C   0  0  0  0  0  0  0  0  0  0  0  0
  186.2700  177.5330  147.6260 C   0  0  0  0  0  1  0  0  0  0  0  0
  183.6780  178.3030  146.5750 O   0  0  0  0  0  1  0  0  0  0  0  0
  185.7440  179.4130  143.6550 C   0  0  0  0  0  3  0  0  0  0  0  0
  190.9240  174.4480  144.8380 C   0  0  0  0  0  0  0  0  0  0  0  0
  192.9030  175.7820  146.7670 C   0  0  0  0  0  3  0  0  0  0  0  0
  188.0810  176.4610  145.7970 N   0  0  0  0  0  0  0  0  0  0  0  0
  186.6320  178.4980  143.2710 C   0  0  0  0  0  3  0  0  0  0  0  0
  190.1230  175.1670  145.6340 C   0  0  0  0  0  0  0  0  0  0  0  0
  192.6060  173.0340  143.9910 C   0  0  0  0  0  3  0  0  0  0  0  0
  186.6070  177.1010  143.7980 C   0  0  1  0  0  3  0  0  0  0  0  0
  184.7010  179.1800  144.6710 C   0  0  0  0  0  3  0  0  0  0  0  0
  193.2270  174.8810  145.5900 C   0  0  2  0  0  3  0  0  0  0  0  0
  188.6560  175.6450  143.6060 C   0  0  0  0  0  0  0  0  0  0  0  0
  186.0220  177.6550  146.1550 C   0  0  0  0  0  0  0  0  0  0  0  0
  188.9160  175.8040  145.0500 C   0  0  0  0  0  0  0  0  0  0  0  0
  188.1750  175.2670  140.9280 C   0  0  0  0  0  3  0  0  0  0  0  0
  191.7200  175.9780  147.3790 C   0  0  0  0  0  3  0  0  0  0  0  0
  187.3270  176.0290  141.6740 N   0  0  0  0  0  0  0  0  0  0  0  0
  190.4300  175.2600  147.0950 C   0  0  0  0  0  2  0  0  0  0  0  0
  192.1870  173.8010  145.2600 C   0  0  1  0  0  3  0  0  0  0  0  0
  189.2670  174.6930  141.5040 N   0  0  0  0  0  0  0  0  0  0  0  0
  190.6560  174.2730  143.4610 N   0  0  0  0  0  0  0  0  0  0  0  0
  194.4830  174.3020  145.7880 O   0  0  0  0  0  0  0  0  0  0  0  0
  195.3990  175.2870  145.4080 C   0  0  0  0  0  2  0  0  0  0  0  0
  197.1550  176.8650  143.1640 O   0  0  0  0  0  0  0  0  0  0  0  0
  197.2240  174.6180  143.8830 C   0  0  0  0  0  2  0  0  0  0  0  0
  195.8010  175.0900  143.9580 C   0  0  2  0  0  3  0  0  0  0  0  0
  197.9210  175.6940  143.0860 C   0  0  0  0  0  2  0  0  0  0  0  0
  195.8250  176.4290  143.2570 C   0  0  0  0  0  2  0  0  0  0  0  0
  1 27  1  0  0  0  0
  1 18  1  0  0  0  0
  2 27  1  0  0  0  0
  2 14  2  0  0  0  0
  3 19  1  0  0  0  0
  3  7  1  0  0  0  0
  4 18  2  0  0  0  0
  4 15  1  0  0  0  0
  5 11  1  0  0  0  0
  5 19  2  0  0  0  0
  8 16  1  0  0  0  0
  9 25  1  0  0  0  0
  9 13  2  0  0  0  0
 10 22  2  0  0  0  0
 12  8  2  0  0  0  0
 13 24  1  0  0  0  0
 15 12  1  6  0  0  0
 15  5  1  0  0  0  0
 16  3  2  0  0  0  0
 17 28  1  1  0  0  0
 17 10  1  0  0  0  0
 18 20  1  0  0  0  0
 19  6  1  0  0  0  0
 20 13  1  0  0  0  0
 20 11  2  0  0  0  0
 21 26  1  0  0  0  0
 21 23  2  0  0  0  0
 23  4  1  0  0  0  0
 24 22  1  0  0  0  0
 25 14  1  6  0  0  0
 25 17  1  0  0  0  0
 26  1  2  0  0  0  0
 27  9  1  0  0  0  0
 29 28  1  0  0  0  0
 30 34  1  0  0  0  0
 31 32  1  0  0  0  0
 32 29  1  1  0  0  0
 33 30  1  0  0  0  0
 33 31  1  0  0  0  0
 34 32  1  0  0  0  0
M  END
>  <MODEL>
1

>  <REMARK>
 VINA RESULT:      -9.6      0.000      0.000
  Name = 
  3 active torsions:
  status: ('A' for Active; 'I' for Inactive)
    1  A    between atoms: C_17  and  O_28
    2  A    between atoms: O_28  and  C_29
    3  A    between atoms: C_29  and  C_32
                            x       y       z     vdW  Elec       q    Type
                         _______ _______ _______ _____ _____    ______ ____

>  <TORSDO>
F 3

$$$$
=
 OpenBabel11112418013D

 34 40  0  0  1  0  0  0  0  0999 V2000
  189.2890  174.9010  142.7380 C   0  0  0  0  0  0  0  0  0  0  0  0
  191.3660  173.3760  142.7070 C   0  0  0  0  0  3  0  0  0  0  0  0
  184.6830  178.4770  145.7720 C   0  0  0  0  0  0  0  0  0  0  0  0
  187.3880  176.3590  142.9570 C   0  0  0  0  0  0  0  0  0  0  0  0
  186.7190  177.1030  145.2800 C   0  0  0  0  0  0  0  0  0  0  0  0
  186.0640  177.4260  147.6260 C   0  0  0  0  0  1  0  0  0  0  0  0
  183.5460  178.4060  146.5700 O   0  0  0  0  0  1  0  0  0  0  0  0
  185.7450  179.5840  143.7760 C   0  0  0  0  0  3  0  0  0  0  0  0
  190.6160  174.2730  144.7470 C   0  0  0  0  0  0  0  0  0  0  0  0
  192.6130  175.3680  146.8040 C   0  0  0  0  0  3  0  0  0  0  0  0
  187.8620  176.3750  145.7720 N   0  0  0  0  0  0  0  0  0  0  0  0
  186.5910  178.6490  143.3530 C   0  0  0  0  0  3  0  0  0  0  0  0
  189.8340  174.9830  145.5700 C   0  0  0  0  0  0  0  0  0  0  0  0
  192.2400  172.8240  143.8470 C   0  0  0  0  0  3  0  0  0  0  0  0
  186.4770  177.2240  143.7870 C   0  0  1  0  0  3  0  0  0  0  0  0
  184.6650  179.3460  144.7510 C   0  0  0  0  0  3  0  0  0  0  0  0
  192.9180  174.5270  145.5770 C   0  0  2  0  0  3  0  0  0  0  0  0
  188.4480  175.6710  143.5460 C   0  0  0  0  0  0  0  0  0  0  0  0
  185.8620  177.6570  146.1610 C   0  0  0  0  0  0  0  0  0  0  0  0
  188.6790  175.7220  145.0020 C   0  0  0  0  0  0  0  0  0  0  0  0
  188.0180  175.4940  140.8390 C   0  0  0  0  0  3  0  0  0  0  0  0
  191.4270  175.5900  147.4000 C   0  0  0  0  0  3  0  0  0  0  0  0
  187.1930  176.2520  141.6140 N   0  0  0  0  0  0  0  0  0  0  0  0
  190.1070  174.9640  147.0410 C   0  0  0  0  0  2  0  0  0  0  0  0
  191.8300  173.5310  145.1540 C   0  0  1  0  0  3  0  0  0  0  0  0
  189.0620  174.8240  141.4000 N   0  0  0  0  0  0  0  0  0  0  0  0
  190.3740  174.2020  143.3560 N   0  0  0  0  0  0  0  0  0  0  0  0
  194.1350  173.8680  145.7650 O   0  0  0  0  0  0  0  0  0  0  0  0
  195.0990  174.8800  145.7590 C   0  0  0  0  0  2  0  0  0  0  0  0
  196.9350  172.2200  146.1670 O   0  0  0  0  0  0  0  0  0  0  0  0
  196.1620  173.2790  144.2050 C   0  0  0  0  0  2  0  0  0  0  0  0
  196.4180  174.3370  145.2380 C   0  0  2  0  0  3  0  0  0  0  0  0
  196.8110  172.0440  144.7820 C   0  0  0  0  0  2  0  0  0  0  0  0
  197.1300  173.5970  146.3480 C   0  0  0  0  0  2  0  0  0  0  0  0
  1 27  1  0  0  0  0
  1 18  1  0  0  0  0
  2 27  1  0  0  0  0
  2 14  2  0  0  0  0
  3 19  1  0  0  0  0
  3  7  1  0  0  0  0
  4 18  2  0  0  0  0
  4 15  1  0  0  0  0
  5 11  1  0  0  0  0
  5 19  2  0  0  0  0
  8 16  1  0  0  0  0
  9 25  1  0  0  0  0
  9 13  2  0  0  0  0
 10 22  2  0  0  0  0
 12  8  2  0  0  0  0
 13 24  1  0  0  0  0
 15 12  1  6  0  0  0
 15  5  1  0  0  0  0
 16  3  2  0  0  0  0
 17 28  1  1  0  0  0
 17 10  1  0  0  0  0
 18 20  1  0  0  0  0
 19  6  1  0  0  0  0
 20 13  1  0  0  0  0
 20 11  2  0  0  0  0
 21 26  1  0  0  0  0
 21 23  2  0  0  0  0
 23  4  1  0  0  0  0
 24 22  1  0  0  0  0
 25 14  1  6  0  0  0
 25 17  1  0  0  0  0
 26  1  2  0  0  0  0
 27  9  1  0  0  0  0
 29 28  1  0  0  0  0
 30 34  1  0  0  0  0
 31 33  1  0  0  0  0
 31 32  1  0  0  0  0
 32 29  1  1  0  0  0
 32 34  1  0  0  0  0
 33 30  1  0  0  0  0
M  END
>  <MODEL>
2

>  <REMARK>
 VINA RESULT:      -9.5      1.221      1.497
  Name = 
  3 active torsions:
  status: ('A' for Active; 'I' for Inactive)
    1  A    between atoms: C_17  and  O_28
    2  A    between atoms: O_28  and  C_29
    3  A    between atoms: C_29  and  C_32
                            x       y       z     vdW  Elec       q    Type
                         _______ _______ _______ _____ _____    ______ ____

>  <TORSDO>
F 3

$$$$
=
 OpenBabel11112418013D

 34 40  0  0  1  0  0  0  0  0999 V2000
  189.8520  173.8500  142.8100 C   0  0  0  0  0  0  0  0  0  0  0  0
  187.5400  174.9280  142.4360 C   0  0  0  0  0  3  0  0  0  0  0  0
  195.8400  173.6070  145.5100 C   0  0  0  0  0  0  0  0  0  0  0  0
  192.0350  172.9710  143.3090 C   0  0  0  0  0  0  0  0  0  0  0  0
  193.4770  174.2310  144.9610 C   0  0  0  0  0  0  0  0  0  0  0  0
  194.8100  175.7800  146.3260 C   0  0  0  0  0  1  0  0  0  0  0  0
  197.0990  174.1960  145.5100 O   0  0  0  0  0  1  0  0  0  0  0  0
  194.5720  171.4320  145.5380 C   0  0  0  0  0  3  0  0  0  0  0  0
  189.0180  175.8680  144.0040 C   0  0  0  0  0  0  0  0  0  0  0  0
  187.9920  176.8560  146.7230 C   0  0  0  0  0  3  0  0  0  0  0  0
  192.3720  175.1410  145.1330 N   0  0  0  0  0  0  0  0  0  0  0  0
  193.4410  171.7590  144.9170 C   0  0  0  0  0  3  0  0  0  0  0  0
  190.1440  175.9970  144.7170 C   0  0  0  0  0  0  0  0  0  0  0  0
  186.9070  176.2050  143.0150 C   0  0  0  0  0  3  0  0  0  0  0  0
  193.3200  172.9970  144.0920 C   0  0  1  0  0  3  0  0  0  0  0  0
  195.7870  172.2680  145.5410 C   0  0  0  0  0  3  0  0  0  0  0  0
  187.1670  176.4750  145.5070 C   0  0  2  0  0  3  0  0  0  0  0  0
  191.0430  173.9250  143.5360 C   0  0  0  0  0  0  0  0  0  0  0  0
  194.6510  174.5000  145.5670 C   0  0  0  0  0  0  0  0  0  0  0  0
  191.2420  175.0200  144.5050 C   0  0  0  0  0  0  0  0  0  0  0  0
  190.6550  171.9430  141.6750 C   0  0  0  0  0  3  0  0  0  0  0  0
  189.3140  177.1010  146.8020 C   0  0  0  0  0  3  0  0  0  0  0  0
  191.8190  172.0010  142.3790 N   0  0  0  0  0  0  0  0  0  0  0  0
  190.2900  177.1500  145.6590 C   0  0  0  0  0  2  0  0  0  0  0  0
  187.8200  176.7270  144.1410 C   0  0  1  0  0  3  0  0  0  0  0  0
  189.6760  172.8630  141.8930 N   0  0  0  0  0  0  0  0  0  0  0  0
  188.8420  174.8360  143.0550 N   0  0  0  0  0  0  0  0  0  0  0  0
  185.9260  177.1140  145.5780 O   0  0  0  0  0  0  0  0  0  0  0  0
  186.2150  178.4220  145.9750 C   0  0  0  0  0  2  0  0  0  0  0  0
  185.0760  179.0910  142.9980 O   0  0  0  0  0  0  0  0  0  0  0  0
  183.9470  178.6700  145.0270 C   0  0  0  0  0  2  0  0  0  0  0  0
  185.2270  179.3860  145.3440 C   0  0  2  0  0  3  0  0  0  0  0  0
  183.8090  178.8190  143.5310 C   0  0  0  0  0  2  0  0  0  0  0  0
  185.7450  179.8210  143.9910 C   0  0  0  0  0  2  0  0  0  0  0  0
  1 27  1  0  0  0  0
  1 18  1  0  0  0  0
  2 14  2  0  0  0  0
  2 27  1  0  0  0  0
  3 16  2  0  0  0  0
  3 19  1  0  0  0  0
  4 18  2  0  0  0  0
  4 15  1  0  0  0  0
  5 11  1  0  0  0  0
  5 19  2  0  0  0  0
  7  3  1  0  0  0  0
  8 16  1  0  0  0  0
  9 25  1  0  0  0  0
  9 13  2  0  0  0  0
 10 22  2  0  0  0  0
 12  8  2  0  0  0  0
 13 24  1  0  0  0  0
 15 12  1  1  0  0  0
 15  5  1  0  0  0  0
 17 28  1  6  0  0  0
 17 10  1  0  0  0  0
 18 20  1  0  0  0  0
 19  6  1  0  0  0  0
 20 13  1  0  0  0  0
 20 11  2  0  0  0  0
 21 26  1  0  0  0  0
 21 23  2  0  0  0  0
 23  4  1  0  0  0  0
 24 22  1  0  0  0  0
 25 14  1  6  0  0  0
 25 17  1  0  0  0  0
 26  1  2  0  0  0  0
 27  9  1  0  0  0  0
 28 29  1  0  0  0  0
 30 33  1  0  0  0  0
 30 34  1  0  0  0  0
 31 32  1  0  0  0  0
 32 29  1  6  0  0  0
 33 31  1  0  0  0  0
 34 32  1  0  0  0  0
M  END
>  <MODEL>
3

>  <REMARK>
 VINA RESULT:      -9.1      1.911      8.248
  Name = 
  3 active torsions:
  status: ('A' for Active; 'I' for Inactive)
    1  A    between atoms: C_17  and  O_28
    2  A    between atoms: O_28  and  C_29
    3  A    between atoms: C_29  and  C_32
                            x       y       z     vdW  Elec       q    Type
                         _______ _______ _______ _____ _____    ______ ____

>  <TORSDO>
F 3

$$$$
=
 OpenBabel11112418013D

 34 40  0  0  1  0  0  0  0  0999 V2000
  190.3460  173.8870  141.9140 C   0  0  0  0  0  0  0  0  0  0  0  0
  188.3250  175.2960  141.1570 C   0  0  0  0  0  3  0  0  0  0  0  0
  195.8390  172.9070  145.3880 C   0  0  0  0  0  0  0  0  0  0  0  0
  192.2630  172.7070  142.7620 C   0  0  2  0  0  3  0  0  0  0  0  0
  193.7060  173.8630  144.4880 C   0  0  0  0  0  0  0  0  0  0  0  0
  195.1280  175.2920  145.8920 C   0  0  0  0  0  1  0  0  0  0  0  0
  197.1750  173.2720  145.5090 O   0  0  0  0  0  1  0  0  0  0  0  0
  194.2070  170.9900  145.4170 C   0  0  0  0  0  3  0  0  0  0  0  0
  189.7550  176.1250  142.8290 C   0  0  0  0  0  0  0  0  0  0  0  0
  188.6150  177.5350  145.3050 C   0  0  0  0  0  3  0  0  0  0  0  0
  192.7710  174.9580  144.4410 N   0  0  0  0  0  0  0  0  0  0  0  0
  193.2320  171.4400  144.6300 C   0  0  0  0  0  3  0  0  0  0  0  0
  190.7950  176.1320  143.6720 C   0  0  0  0  0  0  0  0  0  0  0  0
  187.8680  176.7130  141.5480 C   0  0  0  0  0  3  0  0  0  0  0  0
  193.4320  172.5930  143.7030 C   0  0  0  0  0  0  0  0  0  0  0  0
  195.5430  171.6050  145.5150 C   0  0  0  0  0  3  0  0  0  0  0  0
  187.8810  177.1800  144.0250 C   0  0  2  0  0  3  0  0  0  0  0  0
  191.4390  173.8320  142.7830 C   0  0  0  0  0  0  0  0  0  0  0  0
  194.8310  173.9880  145.2200 C   0  0  0  0  0  0  0  0  0  0  0  0
  191.7170  174.9680  143.6820 C   0  0  0  0  0  0  0  0  0  0  0  0
  190.9200  171.7690  141.0440 C   0  0  0  0  0  3  0  0  0  0  0  0
  189.9400  177.5600  145.5380 C   0  0  0  0  0  3  0  0  0  0  0  0
  191.9870  171.7000  141.8890 N   0  0  0  0  0  0  0  0  0  0  0  0
  191.0360  177.3310  144.5330 C   0  0  0  0  0  2  0  0  0  0  0  0
  188.7230  177.1830  142.7410 C   0  0  1  0  0  3  0  0  0  0  0  0
  190.1040  172.8580  141.0600 N   0  0  0  0  0  0  0  0  0  0  0  0
  189.5080  175.0480  141.9480 N   0  0  0  0  0  0  0  0  0  0  0  0
  186.7750  178.0220  143.8820 O   0  0  0  0  0  0  0  0  0  0  0  0
  185.6710  177.2250  144.1960 C   0  0  0  0  0  2  0  0  0  0  0  0
  185.7120  177.6830  147.4210 O   0  0  0  0  0  0  0  0  0  0  0  0
  185.4470  179.2140  145.6450 C   0  0  0  0  0  2  0  0  0  0  0  0
  184.8130  177.9150  145.2410 C   0  0  2  0  0  3  0  0  0  0  0  0
  185.6930  179.0530  147.1250 C   0  0  0  0  0  2  0  0  0  0  0  0
  184.8170  177.0980  146.5130 C   0  0  0  0  0  2  0  0  0  0  0  0
  1 27  1  0  0  0  0
  1 18  1  0  0  0  0
  2 14  2  0  0  0  0
  2 27  1  0  0  0  0
  3  7  1  0  0  0  0
  3 16  1  0  0  0  0
  4 23  1  1  0  0  0
  4 18  1  0  0  0  0
  4 15  1  0  0  0  0
  5 19  1  0  0  0  0
  8 16  2  0  0  0  0
  9 13  2  0  0  0  0
 10 22  2  0  0  0  0
 11  5  2  0  0  0  0
 12  8  1  0  0  0  0
 13 20  1  0  0  0  0
 13 24  1  0  0  0  0
 15  5  1  0  0  0  0
 15 12  2  0  0  0  0
 17 28  1  6  0  0  0
 17 10  1  0  0  0  0
 18 20  2  0  0  0  0
 19  3  2  0  0  0  0
 19  6  1  0  0  0  0
 20 11  1  0  0  0  0
 21 26  1  0  0  0  0
 21 23  2  0  0  0  0
 24 22  1  0  0  0  0
 25 14  1  6  0  0  0
 25  9  1  0  0  0  0
 25 17  1  0  0  0  0
 26  1  2  0  0  0  0
 27  9  1  0  0  0  0
 28 29  1  0  0  0  0
 31 33  1  0  0  0  0
 32 29  1  6  0  0  0
 32 31  1  0  0  0  0
 32 34  1  0  0  0  0
 33 30  1  0  0  0  0
 34 30  1  0  0  0  0
M  END
>  <MODEL>
4

>  <REMARK>
 VINA RESULT:      -8.6      2.175      8.307
  Name = 
  3 active torsions:
  status: ('A' for Active; 'I' for Inactive)
    1  A    between atoms: C_17  and  O_28
    2  A    between atoms: O_28  and  C_29
    3  A    between atoms: C_29  and  C_32
                            x       y       z     vdW  Elec       q    Type
                         _______ _______ _______ _____ _____    ______ ____

>  <TORSDO>
F 3

$$$$
=
 OpenBabel11112418013D

 34 40  0  0  1  0  0  0  0  0999 V2000
  188.1390  176.2270  141.8450 C   0  0  0  0  0  0  0  0  0  0  0  0
  186.5180  176.9680  139.9830 C   0  0  0  0  0  3  0  0  0  0  0  0
  190.7720  176.6800  147.8510 C   0  0  0  0  0  0  0  0  0  0  0  0
  189.5510  175.6520  143.7060 C   0  0  2  0  0  3  0  0  0  0  0  0
  189.3030  176.9800  145.8440 C   0  0  0  0  0  0  0  0  0  0  0  0
  189.1200  178.6010  147.6820 C   0  0  0  0  0  1  0  0  0  0  0  0
  191.5950  177.4510  148.6640 O   0  0  0  0  0  1  0  0  0  0  0  0
  190.1870  174.3430  147.1210 C   0  0  0  0  0  3  0  0  0  0  0  0
  186.4050  177.9940  142.0950 C   0  0  0  0  0  0  0  0  0  0  0  0
  183.6930  178.5970  143.3990 C   0  0  0  0  0  3  0  0  0  0  0  0
  188.2320  177.6970  145.1980 N   0  0  0  0  0  0  0  0  0  0  0  0
  189.7160  174.5430  145.8920 C   0  0  0  0  0  3  0  0  0  0  0  0
  186.7360  178.2350  143.3710 C   0  0  0  0  0  0  0  0  0  0  0  0
  185.4610  178.0840  139.9400 C   0  0  0  0  0  3  0  0  0  0  0  0
  189.9680  175.8100  145.1430 C   0  0  0  0  0  0  0  0  0  0  0  0
  190.9350  175.3500  147.8950 C   0  0  0  0  0  3  0  0  0  0  0  0
  183.9560  178.1930  141.9590 C   0  0  2  0  0  3  0  0  0  0  0  0
  188.5170  176.4230  143.1760 C   0  0  0  0  0  0  0  0  0  0  0  0
  189.7170  177.3750  147.0650 C   0  0  0  0  0  0  0  0  0  0  0  0
  187.8400  177.4560  143.9840 C   0  0  0  0  0  0  0  0  0  0  0  0
  189.7940  174.5590  141.6140 C   0  0  0  0  0  3  0  0  0  0  0  0
  184.5660  179.0320  144.3260 C   0  0  0  0  0  3  0  0  0  0  0  0
  190.1700  174.7370  142.9100 N   0  0  0  0  0  0  0  0  0  0  0  0
  186.0290  179.3180  144.1210 C   0  0  0  0  0  2  0  0  0  0  0  0
  185.2960  178.6480  141.3650 C   0  0  1  0  0  3  0  0  0  0  0  0
  188.7810  175.3000  141.0860 N   0  0  0  0  0  0  0  0  0  0  0  0
  187.0760  177.0250  141.3150 N   0  0  0  0  0  0  0  0  0  0  0  0
  182.8960  178.6280  141.1600 O   0  0  0  0  0  0  0  0  0  0  0  0
  181.7430  178.2330  141.8430 C   0  0  0  0  0  2  0  0  0  0  0  0
  178.5760  178.9860  141.9630 O   0  0  0  0  0  0  0  0  0  0  0  0
  180.2630  179.6350  140.4460 C   0  0  0  0  0  2  0  0  0  0  0  0
  180.5550  178.2340  140.8980 C   0  0  2  0  0  3  0  0  0  0  0  0
  178.8530  179.8840  140.9240 C   0  0  0  0  0  2  0  0  0  0  0  0
  179.3110  177.8300  141.6560 C   0  0  0  0  0  2  0  0  0  0  0  0
  1 18  1  0  0  0  0
  2 27  1  0  0  0  0
  3 16  1  0  0  0  0
  3  7  1  0  0  0  0
  4 23  1  1  0  0  0
  4 15  1  0  0  0  0
  5 19  1  0  0  0  0
  8 16  2  0  0  0  0
  9 13  2  0  0  0  0
 10 22  2  0  0  0  0
 11  5  2  0  0  0  0
 12  8  1  0  0  0  0
 13 20  1  0  0  0  0
 13 24  1  0  0  0  0
 14  2  2  0  0  0  0
 15  5  1  0  0  0  0
 15 12  2  0  0  0  0
 17 28  1  6  0  0  0
 17 10  1  0  0  0  0
 18  4  1  0  0  0  0
 18 20  2  0  0  0  0
 19  6  1  0  0  0  0
 19  3  2  0  0  0  0
 20 11  1  0  0  0  0
 21 23  2  0  0  0  0
 24 22  1  0  0  0  0
 25 14  1  6  0  0  0
 25 17  1  0  0  0  0
 25  9  1  0  0  0  0
 26 21  1  0  0  0  0
 26  1  2  0  0  0  0
 27  1  1  0  0  0  0
 27  9  1  0  0  0  0
 28 29  1  0  0  0  0
 31 32  1  0  0  0  0
 31 33  1  0  0  0  0
 32 34  1  0  0  0  0
 32 29  1  1  0  0  0
 33 30  1  0  0  0  0
 34 30  1  0  0  0  0
M  END
>  <MODEL>
5

>  <REMARK>
 VINA RESULT:      -8.6      3.534      9.332
  Name = 
  3 active torsions:
  status: ('A' for Active; 'I' for Inactive)
    1  A    between atoms: C_17  and  O_28
    2  A    between atoms: O_28  and  C_29
    3  A    between atoms: C_29  and  C_32
                            x       y       z     vdW  Elec       q    Type
                         _______ _______ _______ _____ _____    ______ ____

>  <TORSDO>
F 3

$$$$
=
 OpenBabel11112418013D

 34 40  0  0  1  0  0  0  0  0999 V2000
  192.3680  175.8820  145.5770 C   0  0  0  0  0  0  0  0  0  0  0  0
  190.2130  176.1370  146.9690 C   0  0  0  0  0  3  0  0  0  0  0  0
  195.6480  174.5760  140.0320 C   0  0  0  0  0  0  0  0  0  0  0  0
  194.2650  175.6350  144.1180 C   0  0  0  0  0  0  0  0  0  0  0  0
  193.8350  175.0490  141.6950 C   0  0  0  0  0  0  0  0  0  0  0  0
  193.2010  174.1650  139.4920 C   0  0  0  0  0  1  0  0  0  0  0  0
  196.0180  173.5630  139.1560 O   0  0  0  0  0  1  0  0  0  0  0  0
  196.4190  176.6310  141.2640 C   0  0  0  0  0  3  0  0  0  0  0  0
  190.0610  175.6910  144.6650 C   0  0  0  0  0  0  0  0  0  0  0  0
  187.9870  177.1370  142.9250 C   0  0  0  0  0  3  0  0  0  0  0  0
  192.4270  175.1180  141.9960 N   0  0  0  0  0  0  0  0  0  0  0  0
  195.6240  176.6340  142.3320 C   0  0  0  0  0  3  0  0  0  0  0  0
  190.4980  175.4510  143.4220 C   0  0  0  0  0  0  0  0  0  0  0  0
  188.7320  175.9680  146.5900 C   0  0  0  0  0  3  0  0  0  0  0  0
  194.8590  175.4220  142.7520 C   0  0  0  0  0  0  0  0  0  0  0  0
  196.5820  175.4830  140.3540 C   0  0  0  0  0  3  0  0  0  0  0  0
  188.0550  177.0980  144.4410 C   0  0  2  0  0  3  0  0  0  0  0  0
  192.8820  175.6520  144.2990 C   0  0  0  0  0  0  0  0  0  0  0  0
  194.2280  174.6330  140.4750 C   0  0  2  0  0  3  0  0  0  0  0  0
  191.9600  175.4050  143.1730 C   0  0  0  0  0  0  0  0  0  0  0  0
  194.5610  176.0510  146.4350 C   0  0  0  0  0  3  0  0  0  0  0  0
  188.6270  176.3590  142.0330 C   0  0  0  0  0  3  0  0  0  0  0  0
  195.0750  175.8330  145.1940 N   0  0  0  0  0  0  0  0  0  0  0  0
  189.5070  175.1780  142.3350 C   0  0  0  0  0  2  0  0  0  0  0  0
  188.6400  175.8200  145.0580 C   0  0  1  0  0  3  0  0  0  0  0  0
  193.2130  176.0780  146.6240 N   0  0  0  0  0  0  0  0  0  0  0  0
  190.9470  175.8970  145.7470 N   0  0  0  0  0  0  0  0  0  0  0  0
  186.7840  177.3530  144.9630 O   0  0  0  0  0  0  0  0  0  0  0  0
  186.4210  178.5960  144.4390 C   0  0  0  0  0  2  0  0  0  0  0  0
  184.0290  177.8310  146.5130 O   0  0  0  0  0  0  0  0  0  0  0  0
  185.9840  179.1180  146.8140 C   0  0  0  0  0  2  0  0  0  0  0  0
  185.5030  179.3200  145.4070 C   0  0  2  0  0  3  0  0  0  0  0  0
  184.8280  178.4290  147.4970 C   0  0  0  0  0  2  0  0  0  0  0  0
  184.1400  178.6660  145.3910 C   0  0  0  0  0  2  0  0  0  0  0  0
  1 27  1  0  0  0  0
  1 26  1  0  0  0  0
  3 16  2  0  0  0  0
  3 19  1  0  0  0  0
  4 18  1  0  0  0  0
  4 23  2  0  0  0  0
  5 11  1  0  0  0  0
  5 15  2  0  0  0  0
  7  3  1  0  0  0  0
  8 12  2  0  0  0  0
  9 25  1  0  0  0  0
  9 27  1  0  0  0  0
 10 17  1  0  0  0  0
 11 20  2  0  0  0  0
 12 15  1  0  0  0  0
 13  9  2  0  0  0  0
 14  2  2  0  0  0  0
 15  4  1  0  0  0  0
 16  8  1  0  0  0  0
 17 28  1  1  0  0  0
 17 25  1  0  0  0  0
 18  1  2  0  0  0  0
 19  6  1  1  0  0  0
 19  5  1  0  0  0  0
 20 13  1  0  0  0  0
 20 18  1  0  0  0  0
 21 26  2  0  0  0  0
 22 24  1  0  0  0  0
 22 10  2  0  0  0  0
 23 21  1  0  0  0  0
 24 13  1  0  0  0  0
 25 14  1  1  0  0  0
 27  2  1  0  0  0  0
 29 28  1  0  0  0  0
 30 33  1  0  0  0  0
 31 33  1  0  0  0  0
 32 29  1  6  0  0  0
 32 31  1  0  0  0  0
 34 32  1  0  0  0  0
 34 30  1  0  0  0  0
M  END
>  <MODEL>
6

>  <REMARK>
 VINA RESULT:      -8.4      2.429      8.856
  Name = 
  3 active torsions:
  status: ('A' for Active; 'I' for Inactive)
    1  A    between atoms: C_17  and  O_28
    2  A    between atoms: O_28  and  C_29
    3  A    between atoms: C_29  and  C_32
                            x       y       z     vdW  Elec       q    Type
                         _______ _______ _______ _____ _____    ______ ____

>  <TORSDO>
F 3

$$$$
=
 OpenBabel11112418013D

 34 40  0  0  1  0  0  0  0  0999 V2000
  192.2440  176.3790  146.3940 C   0  0  0  0  0  0  0  0  0  0  0  0
  194.6550  175.4670  146.3360 C   0  0  0  0  0  3  0  0  0  0  0  0
  186.5810  178.1660  143.5750 C   0  0  0  0  0  0  0  0  0  0  0  0
  189.9770  177.1720  146.2610 C   0  0  0  0  0  0  0  0  0  0  0  0
  188.8660  177.2260  143.9890 C   0  0  0  0  0  0  0  0  0  0  0  0
  188.1150  177.4970  141.6650 C   0  0  0  0  0  1  0  0  0  0  0  0
  185.9790  179.1220  142.7670 O   0  0  0  0  0  1  0  0  0  0  0  0
  186.3390  176.7610  145.6510 C   0  0  0  0  0  3  0  0  0  0  0  0
  193.3870  175.5200  144.3570 C   0  0  0  0  0  0  0  0  0  0  0  0
  193.4490  173.1610  142.3950 C   0  0  0  0  0  3  0  0  0  0  0  0
  190.0720  176.6420  143.4570 N   0  0  0  0  0  0  0  0  0  0  0  0
  187.6060  176.5780  146.0150 C   0  0  0  0  0  3  0  0  0  0  0  0
  192.3230  175.7540  143.5780 C   0  0  0  0  0  0  0  0  0  0  0  0
  195.5320  174.9840  145.1680 C   0  0  0  0  0  3  0  0  0  0  0  0
  188.7130  177.4290  145.4850 C   0  0  0  0  0  0  0  0  0  0  0  0
  185.8990  177.7540  144.6540 C   0  0  0  0  0  2  0  0  0  0  0  0
  194.3840  173.4150  143.5640 C   0  0  2  0  0  3  0  0  0  0  0  0
  191.0990  176.6300  145.6340 C   0  0  0  0  0  0  0  0  0  0  0  0
  187.8890  177.6060  143.1410 C   0  0  0  0  0  0  0  0  0  0  0  0
  191.1050  176.3460  144.1860 C   0  0  0  0  0  0  0  0  0  0  0  0
  191.1570  177.2060  148.3190 C   0  0  0  0  0  3  0  0  0  0  0  0
  192.5860  174.0090  141.8060 C   0  0  0  0  0  3  0  0  0  0  0  0
  190.0320  177.4510  147.5920 N   0  0  0  0  0  0  0  0  0  0  0  0
  192.4090  175.4710  142.1120 C   0  0  0  0  0  2  0  0  0  0  0  0
  194.6480  174.8880  143.9090 C   0  0  1  0  0  3  0  0  0  0  0  0
  192.2560  176.6700  147.7220 N   0  0  0  0  0  0  0  0  0  0  0  0
  193.3880  175.8220  145.7380 N   0  0  0  0  0  0  0  0  0  0  0  0
  195.5890  172.7450  143.3400 O   0  0  0  0  0  0  0  0  0  0  0  0
  195.3420  171.4220  143.7170 C   0  0  0  0  0  2  0  0  0  0  0  0
  195.6150  169.1310  146.0170 O   0  0  0  0  0  0  0  0  0  0  0  0
  196.5750  171.2810  145.8540 C   0  0  0  0  0  2  0  0  0  0  0  0
  195.2120  171.3280  145.2270 C   0  0  2  0  0  3  0  0  0  0  0  0
  196.5920  169.9600  146.5850 C   0  0  0  0  0  2  0  0  0  0  0  0
  194.5960  169.9980  145.5960 C   0  0  0  0  0  2  0  0  0  0  0  0
  1 26  1  0  0  0  0
  3 16  1  0  0  0  0
  4 23  2  0  0  0  0
  5 15  2  0  0  0  0
  6 19  1  0  0  0  0
  7  3  1  0  0  0  0
  8 12  2  0  0  0  0
  9 27  1  0  0  0  0
 10 17  1  0  0  0  0
 11  5  1  0  0  0  0
 11 20  2  0  0  0  0
 13 20  1  0  0  0  0
 13  9  2  0  0  0  0
 14  2  2  0  0  0  0
 15 12  1  0  0  0  0
 15  4  1  0  0  0  0
 16  8  1  0  0  0  0
 17 28  1  6  0  0  0
 17 25  1  0  0  0  0
 18  4  1  0  0  0  0
 18  1  2  0  0  0  0
 19  3  2  0  0  0  0
 19  5  1  0  0  0  0
 20 18  1  0  0  0  0
 22 24  1  0  0  0  0
 22 10  2  0  0  0  0
 23 21  1  0  0  0  0
 24 13  1  0  0  0  0
 25  9  1  0  0  0  0
 25 14  1  1  0  0  0
 26 21  2  0  0  0  0
 27  2  1  0  0  0  0
 27  1  1  0  0  0  0
 28 29  1  0  0  0  0
 30 33  1  0  0  0  0
 31 33  1  0  0  0  0
 32 29  1  6  0  0  0
 32 34  1  0  0  0  0
 32 31  1  0  0  0  0
 34 30  1  0  0  0  0
M  END
>  <MODEL>
7

>  <REMARK>
 VINA RESULT:      -8.3      2.683      4.703
  Name = 
  3 active torsions:
  status: ('A' for Active; 'I' for Inactive)
    1  A    between atoms: C_17  and  O_28
    2  A    between atoms: O_28  and  C_29
    3  A    between atoms: C_29  and  C_32
                            x       y       z     vdW  Elec       q    Type
                         _______ _______ _______ _____ _____    ______ ____

>  <TORSDO>
F 3

$$$$
=
 OpenBabel11112418013D

 34 40  0  0  1  0  0  0  0  0999 V2000
  190.5770  175.7530  144.9330 C   0  0  0  0  0  0  0  0  0  0  0  0
  192.5160  174.4160  143.8860 C   0  0  0  0  0  3  0  0  0  0  0  0
  184.6090  178.5040  144.8020 C   0  0  0  0  0  0  0  0  0  0  0  0
  188.6560  176.9450  145.7570 C   0  0  0  0  0  0  0  0  0  0  0  0
  186.6500  177.1690  144.2330 C   0  0  0  0  0  0  0  0  0  0  0  0
  184.9680  177.5410  142.4810 C   0  0  0  0  0  1  0  0  0  0  0  0
  183.8600  179.5440  144.2630 O   0  0  0  0  0  1  0  0  0  0  0  0
  185.1310  177.1970  146.8890 C   0  0  0  0  0  3  0  0  0  0  0  0
  190.5060  174.6720  142.6930 C   0  0  0  0  0  0  0  0  0  0  0  0
  189.2920  172.3130  141.1490 C   0  0  0  0  0  3  0  0  0  0  0  0
  187.3690  176.3670  143.2750 N   0  0  0  0  0  0  0  0  0  0  0  0
  186.3780  176.7910  146.6620 C   0  0  0  0  0  3  0  0  0  0  0  0
  189.2540  175.0850  142.4570 C   0  0  0  0  0  0  0  0  0  0  0  0
  192.6710  173.7650  142.5010 C   0  0  0  0  0  3  0  0  0  0  0  0
  187.2350  177.4170  145.6110 C   0  0  0  0  0  0  0  0  0  0  0  0
  184.4420  178.2390  146.1060 C   0  0  0  0  0  2  0  0  0  0  0  0
  190.6860  172.4090  141.7430 C   0  0  2  0  0  3  0  0  0  0  0  0
  189.2650  176.1980  144.7490 C   0  0  0  0  0  0  0  0  0  0  0  0
  185.4650  177.7090  143.8820 C   0  0  0  0  0  0  0  0  0  0  0  0
  188.5610  175.8980  143.4870 C   0  0  0  0  0  0  0  0  0  0  0  0
  190.6390  176.7910  147.0520 C   0  0  0  0  0  3  0  0  0  0  0  0
  188.3990  173.2960  140.9320 C   0  0  0  0  0  3  0  0  0  0  0  0
  189.3590  177.2280  146.8880 N   0  0  0  0  0  0  0  0  0  0  0  0
  188.6130  174.7700  141.1430 C   0  0  0  0  0  2  0  0  0  0  0  0
  191.3050  173.8130  141.7890 C   0  0  1  0  0  3  0  0  0  0  0  0
  191.2420  176.0560  146.0790 N   0  0  0  0  0  0  0  0  0  0  0  0
  191.1880  174.9870  143.8900 N   0  0  0  0  0  0  0  0  0  0  0  0
  191.5330  171.5270  141.0670 O   0  0  0  0  0  0  0  0  0  0  0  0
  190.8380  171.1770  139.9060 C   0  0  0  0  0  2  0  0  0  0  0  0
  191.9360  173.7910  138.3020 O   0  0  0  0  0  0  0  0  0  0  0  0
  193.0680  171.8840  139.1100 C   0  0  0  0  0  2  0  0  0  0  0  0
  191.6910  171.4650  138.6840 C   0  0  2  0  0  3  0  0  0  0  0  0
  193.2170  173.2740  138.5400 C   0  0  0  0  0  2  0  0  0  0  0  0
  191.1470  172.6800  137.9670 C   0  0  0  0  0  2  0  0  0  0  0  0
  1 26  1  0  0  0  0
  2 27  1  0  0  0  0
  3 16  1  0  0  0  0
  4 23  2  0  0  0  0
  5 15  2  0  0  0  0
  6 19  1  0  0  0  0
  7  3  1  0  0  0  0
  9 27  1  0  0  0  0
 10 17  1  0  0  0  0
 11 20  2  0  0  0  0
 11  5  1  0  0  0  0
 12  8  2  0  0  0  0
 13  9  2  0  0  0  0
 13 20  1  0  0  0  0
 14  2  2  0  0  0  0
 15  4  1  0  0  0  0
 15 12  1  0  0  0  0
 16  8  1  0  0  0  0
 17 28  1  6  0  0  0
 17 25  1  0  0  0  0
 18  1  2  0  0  0  0
 18  4  1  0  0  0  0
 19  5  1  0  0  0  0
 19  3  2  0  0  0  0
 20 18  1  0  0  0  0
 22 24  1  0  0  0  0
 22 10  2  0  0  0  0
 23 21  1  0  0  0  0
 24 13  1  0  0  0  0
 25 14  1  1  0  0  0
 25  9  1  0  0  0  0
 26 21  2  0  0  0  0
 27  1  1  0  0  0  0
 29 28  1  0  0  0  0
 30 33  1  0  0  0  0
 32 31  1  0  0  0  0
 32 29  1  1  0  0  0
 33 31  1  0  0  0  0
 34 30  1  0  0  0  0
 34 32  1  0  0  0  0
M  END
>  <MODEL>
8

>  <REMARK>
 VINA RESULT:      -8.3      2.769      4.895
  Name = 
  3 active torsions:
  status: ('A' for Active; 'I' for Inactive)
    1  A    between atoms: C_17  and  O_28
    2  A    between atoms: O_28  and  C_29
    3  A    between atoms: C_29  and  C_32
                            x       y       z     vdW  Elec       q    Type
                         _______ _______ _______ _____ _____    ______ ____

>  <TORSDO>
F 3

$$$$
=
 OpenBabel11112418013D

 34 40  0  0  1  0  0  0  0  0999 V2000
  190.8310  175.6220  145.7500 C   0  0  0  0  0  0  0  0  0  0  0  0
  192.6810  173.9930  144.9960 C   0  0  0  0  0  3  0  0  0  0  0  0
  185.0970  178.7440  144.9870 C   0  0  0  0  0  0  0  0  0  0  0  0
  188.9930  177.0690  146.3090 C   0  0  0  0  0  0  0  0  0  0  0  0
  187.0400  177.1880  144.7060 C   0  0  0  0  0  0  0  0  0  0  0  0
  185.4260  177.3900  142.8640 C   0  0  0  0  0  1  0  0  0  0  0  0
  184.4410  179.7330  144.2630 O   0  0  0  0  0  1  0  0  0  0  0  0
  185.4760  177.7600  147.2730 C   0  0  0  0  0  3  0  0  0  0  0  0
  190.7210  174.1970  143.7130 C   0  0  0  0  0  0  0  0  0  0  0  0
  189.3590  171.7130  142.5320 C   0  0  0  0  0  3  0  0  0  0  0  0
  187.7140  176.1900  143.9140 N   0  0  0  0  0  0  0  0  0  0  0  0
  186.6920  177.2320  147.1540 C   0  0  0  0  0  3  0  0  0  0  0  0
  189.5090  174.6560  143.3730 C   0  0  0  0  0  0  0  0  0  0  0  0
  192.8120  173.1150  143.7390 C   0  0  0  0  0  3  0  0  0  0  0  0
  187.6150  177.6140  146.0440 C   0  0  0  0  0  0  0  0  0  0  0  0
  184.8850  178.7080  146.3110 C   0  0  0  0  0  2  0  0  0  0  0  0
  190.7440  171.8030  143.1470 C   0  0  2  0  0  3  0  0  0  0  0  0
  189.5620  176.1260  145.4550 C   0  0  0  0  0  0  0  0  0  0  0  0
  185.9080  177.7480  144.2350 C   0  0  0  0  0  0  0  0  0  0  0  0
  188.8610  175.6750  144.2370 C   0  0  0  0  0  0  0  0  0  0  0  0
  190.9310  176.9850  147.6750 C   0  0  0  0  0  3  0  0  0  0  0  0
  188.5480  172.7100  142.1320 C   0  0  0  0  0  3  0  0  0  0  0  0
  189.6930  177.4810  147.4010 N   0  0  0  0  0  0  0  0  0  0  0  0
  188.8710  174.1790  142.1080 C   0  0  0  0  0  2  0  0  0  0  0  0
  191.4680  173.1460  142.9860 C   0  0  1  0  0  3  0  0  0  0  0  0
  191.4950  176.0580  146.8530 N   0  0  0  0  0  0  0  0  0  0  0  0
  191.4020  174.6530  144.8650 N   0  0  0  0  0  0  0  0  0  0  0  0
  191.5330  170.7620  142.6500 O   0  0  0  0  0  0  0  0  0  0  0  0
  190.8160  170.2520  141.5640 C   0  0  0  0  0  2  0  0  0  0  0  0
  192.0980  172.4670  139.5490 O   0  0  0  0  0  0  0  0  0  0  0  0
  193.0890  170.6480  140.6790 C   0  0  0  0  0  2  0  0  0  0  0  0
  191.6830  170.2650  140.3180 C   0  0  2  0  0  3  0  0  0  0  0  0
  193.3380  171.9050  139.8820 C   0  0  0  0  0  2  0  0  0  0  0  0
  191.2270  171.3770  139.4010 C   0  0  0  0  0  2  0  0  0  0  0  0
  1 26  1  0  0  0  0
  3 16  1  0  0  0  0
  4 23  2  0  0  0  0
  5 15  2  0  0  0  0
  6 19  1  0  0  0  0
  7  3  1  0  0  0  0
  9 27  1  0  0  0  0
 10 17  1  0  0  0  0
 11 20  2  0  0  0  0
 11  5  1  0  0  0  0
 12  8  2  0  0  0  0
 13  9  2  0  0  0  0
 13 20  1  0  0  0  0
 14  2  2  0  0  0  0
 15  4  1  0  0  0  0
 15 12  1  0  0  0  0
 16  8  1  0  0  0  0
 17 28  1  6  0  0  0
 18  1  2  0  0  0  0
 18  4  1  0  0  0  0
 19  5  1  0  0  0  0
 19  3  2  0  0  0  0
 20 18  1  0  0  0  0
 22 10  2  0  0  0  0
 23 21  1  0  0  0  0
 24 22  1  0  0  0  0
 24 13  1  0  0  0  0
 25 17  1  0  0  0  0
 25  9  1  0  0  0  0
 25 14  1  1  0  0  0
 26 21  2  0  0  0  0
 27  2  1  0  0  0  0
 27  1  1  0  0  0  0
 29 28  1  0  0  0  0
 30 33  1  0  0  0  0
 32 31  1  0  0  0  0
 32 29  1  1  0  0  0
 33 31  1  0  0  0  0
 34 30  1  0  0  0  0
 34 32  1  0  0  0  0
M  END
>  <MODEL>
9

>  <REMARK>
 VINA RESULT:      -8.2      2.682      4.743
  Name = 
  3 active torsions:
  status: ('A' for Active; 'I' for Inactive)
    1  A    between atoms: C_17  and  O_28
    2  A    between atoms: O_28  and  C_29
    3  A    between atoms: C_29  and  C_32
                            x       y       z     vdW  Elec       q    Type
                         _______ _______ _______ _____ _____    ______ ____

>  <TORSDO>
F 3

$$$$
