=
 OpenBabel11112416323D

 32 37  0  0  1  0  0  0  0  0999 V2000
  188.8460  172.2330  139.5190 O   0  0  0  0  0  0  0  0  0  0  0  0
  188.8930  175.6870  143.2860 N   0  0  0  0  0  0  0  0  0  0  0  0
  192.5260  174.9180  146.5130 C   0  0  0  0  0  3  0  0  0  0  0  0
  192.1070  176.0310  147.2400 C   0  0  0  0  0  3  0  0  0  0  0  0
  187.1320  177.4290  143.7100 C   0  0  1  0  0  3  0  0  0  0  0  0
  186.3970  178.2530  144.7760 C   0  0  1  0  0  3  0  0  0  0  0  0
  188.9200  174.7570  141.0380 C   0  0  0  0  0  0  0  0  0  0  0  0
  190.9520  174.5920  142.5460 C   0  0  0  0  0  2  0  0  0  0  0  0
  185.7160  177.8280  146.9620 C   0  0  0  0  0  0  0  0  0  0  0  0
  190.0110  172.6680  141.4480 O   0  0  0  0  0  0  0  0  0  0  0  0
  191.8220  174.5270  145.3740 C   0  0  0  0  0  3  0  0  0  0  0  0
  189.9720  174.7790  143.7040 C   0  0  1  0  0  3  0  0  0  0  0  0
  190.6950  175.2460  144.9420 C   0  0  0  0  0  0  0  0  0  0  0  0
  189.0260  177.1370  145.3020 C   0  0  2  0  0  3  0  0  0  0  0  0
  184.4410  177.9160  146.2240 C   0  0  0  0  0  2  0  0  0  0  0  0
  188.8400  173.4710  138.8600 C   0  0  0  0  0  2  0  0  0  0  0  0
  190.2290  174.0460  141.3170 C   0  0  1  0  0  3  0  0  0  0  0  0
  184.8930  177.9590  144.7630 C   0  0  0  0  0  2  0  0  0  0  0  0
  188.1910  174.5410  139.7410 C   0  0  0  0  0  2  0  0  0  0  0  0
  190.0990  172.1490  140.1470 C   0  0  1  0  0  3  0  0  0  0  0  0
  190.9730  176.7380  146.8390 C   0  0  0  0  0  3  0  0  0  0  0  0
  190.2350  176.3360  145.7130 C   0  0  0  0  0  0  0  0  0  0  0  0
  188.1810  177.5190  146.5230 C   0  0  0  0  0  2  0  0  0  0  0  0
  188.3190  175.4910  141.9790 C   0  0  0  0  0  3  0  0  0  0  0  0
  187.7980  178.3050  142.8480 O   0  0  0  0  0  1  0  0  0  0  0  0
  185.7920  177.6060  148.1990 O   0  0  0  0  0  0  0  0  0  0  0  0
  188.1190  176.4070  144.3080 C   0  0  2  0  0  3  0  0  0  0  0  0
  186.8510  177.9940  146.1380 N   0  0  0  0  0  0  0  0  0  0  0  0
  190.5490  170.7000  140.2120 C   0  0  0  0  0  2  0  0  0  0  0  0
  190.6460  170.1200  138.8440 C   0  0  0  0  0  0  0  0  0  0  0  0
  191.4060  170.7560  137.8720 O   0  0  0  0  0  0  0  0  0  0  0  0
  190.0660  169.0360  138.5760 O   0  0  0  0  0  1  0  0  0  0  0  0
  1 20  1  0  0  0  0
  2 12  1  0  0  0  0
  3  4  1  0  0  0  0
  5 25  1  6  0  0  0
  5 27  1  0  0  0  0
  5  6  1  0  0  0  0
  6 18  1  1  0  0  0
  6 28  1  0  0  0  0
  7 17  1  0  0  0  0
  7 24  2  0  0  0  0
  9 26  2  0  0  0  0
 11  3  2  0  0  0  0
 12  8  1  6  0  0  0
 12 13  1  0  0  0  0
 13 11  1  0  0  0  0
 13 22  2  0  0  0  0
 14 22  1  0  0  0  0
 14 23  1  1  0  0  0
 15  9  1  0  0  0  0
 16  1  1  0  0  0  0
 16 19  1  0  0  0  0
 17 10  1  0  0  0  0
 17  8  1  1  0  0  0
 18 15  1  0  0  0  0
 19  7  1  0  0  0  0
 20 29  1  1  0  0  0
 20 10  1  0  0  0  0
 21  4  2  0  0  0  0
 22 21  1  0  0  0  0
 24  2  1  0  0  0  0
 27  2  1  6  0  0  0
 27 14  1  0  0  0  0
 28 23  1  0  0  0  0
 28  9  1  0  0  0  0
 30 29  1  0  0  0  0
 31 30  2  0  0  0  0
 32 30  1  0  0  0  0
M  END
>  <MODEL>
1

>  <REMARK>
 VINA RESULT:      -8.4      0.000      0.000
  Name = 
  2 active torsions:
  status: ('A' for Active; 'I' for Inactive)
    1  A    between atoms: C_20  and  C_29
    2  A    between atoms: C_29  and  C_30
                            x       y       z     vdW  Elec       q    Type
                         _______ _______ _______ _____ _____    ______ ____

>  <TORSDO>
F 2

$$$$
=
 OpenBabel11112416323D

 32 37  0  0  1  0  0  0  0  0999 V2000
  189.5640  171.4990  140.1100 O   0  0  0  0  0  0  0  0  0  0  0  0
  188.7420  175.6830  142.9290 N   0  0  0  0  0  0  0  0  0  0  0  0
  190.9490  175.4690  147.3210 C   0  0  0  0  0  3  0  0  0  0  0  0
  190.4430  176.7310  147.6290 C   0  0  0  0  0  3  0  0  0  0  0  0
  187.1620  177.5540  142.3630 C   0  0  1  0  0  3  0  0  0  0  0  0
  186.2130  178.6220  142.9230 C   0  0  1  0  0  3  0  0  0  0  0  0
  189.4180  174.2860  141.0550 C   0  0  0  0  0  0  0  0  0  0  0  0
  190.7850  174.3620  143.1900 C   0  0  0  0  0  2  0  0  0  0  0  0
  184.7870  178.7130  144.7610 C   0  0  0  0  0  0  0  0  0  0  0  0
  190.0490  172.2890  142.2100 O   0  0  0  0  0  0  0  0  0  0  0  0
  190.6310  174.8730  146.1000 C   0  0  0  0  0  3  0  0  0  0  0  0
  189.5000  174.8400  143.8660 C   0  0  1  0  0  3  0  0  0  0  0  0
  189.8110  175.5310  145.1690 C   0  0  0  0  0  0  0  0  0  0  0  0
  188.3550  177.5280  144.5500 C   0  0  2  0  0  3  0  0  0  0  0  0
  183.8570  178.6960  143.6150 C   0  0  0  0  0  2  0  0  0  0  0  0
  189.9290  172.5630  139.2730 C   0  0  0  0  0  2  0  0  0  0  0  0
  190.4610  173.5940  141.9090 C   0  0  1  0  0  3  0  0  0  0  0  0
  184.7790  178.4010  142.4310 C   0  0  0  0  0  2  0  0  0  0  0  0
  189.1520  173.8270  139.6480 C   0  0  0  0  0  2  0  0  0  0  0  0
  190.5110  171.4970  141.1480 C   0  0  1  0  0  3  0  0  0  0  0  0
  189.6050  177.3850  146.7250 C   0  0  0  0  0  3  0  0  0  0  0  0
  189.2500  176.7820  145.5060 C   0  0  0  0  0  0  0  0  0  0  0  0
  187.1990  178.2050  145.2950 C   0  0  0  0  0  2  0  0  0  0  0  0
  188.6260  175.2340  141.5640 C   0  0  0  0  0  3  0  0  0  0  0  0
  188.1800  178.1900  141.6470 O   0  0  0  0  0  1  0  0  0  0  0  0
  184.4120  178.7620  145.9630 O   0  0  0  0  0  0  0  0  0  0  0  0
  187.7590  176.6420  143.4540 C   0  0  2  0  0  3  0  0  0  0  0  0
  186.1450  178.6440  144.3800 N   0  0  0  0  0  0  0  0  0  0  0  0
  190.7360  170.0770  141.6390 C   0  0  0  0  0  2  0  0  0  0  0  0
  191.2290  169.2120  140.5310 C   0  0  0  0  0  0  0  0  0  0  0  0
  190.4410  168.1730  140.0580 O   0  0  0  0  0  1  0  0  0  0  0  0
  192.3470  169.4440  140.0010 O   0  0  0  0  0  0  0  0  0  0  0  0
  1 20  1  0  0  0  0
  2 12  1  0  0  0  0
  3  4  1  0  0  0  0
  5 25  1  1  0  0  0
  5  6  1  0  0  0  0
  5 27  1  0  0  0  0
  6 18  1  6  0  0  0
  6 28  1  0  0  0  0
  7 24  2  0  0  0  0
  7 17  1  0  0  0  0
  9 26  2  0  0  0  0
 11  3  2  0  0  0  0
 12  8  1  6  0  0  0
 12 13  1  0  0  0  0
 13 22  2  0  0  0  0
 13 11  1  0  0  0  0
 14 23  1  1  0  0  0
 14 22  1  0  0  0  0
 15  9  1  0  0  0  0
 16 19  1  0  0  0  0
 16  1  1  0  0  0  0
 17 10  1  0  0  0  0
 17  8  1  1  0  0  0
 18 15  1  0  0  0  0
 19  7  1  0  0  0  0
 20 29  1  1  0  0  0
 20 10  1  0  0  0  0
 21  4  2  0  0  0  0
 22 21  1  0  0  0  0
 24  2  1  0  0  0  0
 27  2  1  6  0  0  0
 27 14  1  0  0  0  0
 28  9  1  0  0  0  0
 28 23  1  0  0  0  0
 30 29  1  0  0  0  0
 31 30  1  0  0  0  0
 32 30  2  0  0  0  0
M  END
>  <MODEL>
2

>  <REMARK>
 VINA RESULT:      -8.4      1.383      1.709
  Name = 
  2 active torsions:
  status: ('A' for Active; 'I' for Inactive)
    1  A    between atoms: C_20  and  C_29
    2  A    between atoms: C_29  and  C_30
                            x       y       z     vdW  Elec       q    Type
                         _______ _______ _______ _____ _____    ______ ____

>  <TORSDO>
F 2

$$$$
=
 OpenBabel11112416323D

 32 37  0  0  1  0  0  0  0  0999 V2000
  194.9620  177.2360  145.3650 O   0  0  0  0  0  0  0  0  0  0  0  0
  190.1910  175.8630  144.1500 N   0  0  0  0  0  0  0  0  0  0  0  0
  189.9840  173.1960  140.0210 C   0  0  0  0  0  3  0  0  0  0  0  0
  188.5990  173.1080  140.1550 C   0  0  0  0  0  3  0  0  0  0  0  0
  188.0950  176.6580  145.2840 C   0  0  1  0  0  3  0  0  0  0  0  0
  186.6110  177.0040  145.1030 C   0  0  1  0  0  3  0  0  0  0  0  0
  192.2370  176.1180  145.4420 C   0  0  0  0  0  0  0  0  0  0  0  0
  192.1090  174.4860  143.5050 C   0  0  0  0  0  2  0  0  0  0  0  0
  185.3700  177.9430  143.3700 C   0  0  0  0  0  0  0  0  0  0  0  0
  193.8600  176.1280  143.6840 O   0  0  0  0  0  0  0  0  0  0  0  0
  190.7270  173.9260  140.9490 C   0  0  0  0  0  3  0  0  0  0  0  0
  190.9500  175.3450  143.0010 C   0  0  1  0  0  3  0  0  0  0  0  0
  190.0980  174.5710  142.0270 C   0  0  0  0  0  0  0  0  0  0  0  0
  187.9620  175.2140  143.2580 C   0  0  2  0  0  3  0  0  0  0  0  0
  185.3350  178.9870  144.4130 C   0  0  0  0  0  2  0  0  0  0  0  0
  194.4630  176.6350  146.5290 C   0  0  0  0  0  2  0  0  0  0  0  0
  193.0130  175.2980  144.4300 C   0  0  1  0  0  3  0  0  0  0  0  0
  186.3380  178.4720  145.4470 C   0  0  0  0  0  2  0  0  0  0  0  0
  192.9410  176.7790  146.5940 C   0  0  0  0  0  2  0  0  0  0  0  0
  195.0530  176.2020  144.4190 C   0  0  1  0  0  3  0  0  0  0  0  0
  187.9580  173.7670  141.2050 C   0  0  0  0  0  3  0  0  0  0  0  0
  188.6910  174.5320  142.1290 C   0  0  0  0  0  0  0  0  0  0  0  0
  186.6680  175.8680  142.7620 C   0  0  0  0  0  2  0  0  0  0  0  0
  190.9380  176.3770  145.2700 C   0  0  0  0  0  3  0  0  0  0  0  0
  188.2020  175.6120  146.2050 O   0  0  0  0  0  1  0  0  0  0  0  0
  184.8050  178.0570  142.2500 O   0  0  0  0  0  0  0  0  0  0  0  0
  188.7960  176.2880  143.9620 C   0  0  2  0  0  3  0  0  0  0  0  0
  186.1220  176.8070  143.7420 N   0  0  0  0  0  0  0  0  0  0  0  0
  196.2110  176.4680  143.4720 C   0  0  0  0  0  2  0  0  0  0  0  0
  197.1980  175.3540  143.5270 C   0  0  0  0  0  0  0  0  0  0  0  0
  197.2760  174.5500  144.6560 O   0  0  0  0  0  1  0  0  0  0  0  0
  197.9390  175.1190  142.5370 O   0  0  0  0  0  0  0  0  0  0  0  0
  1 16  1  0  0  0  0
  2 24  1  0  0  0  0
  3  4  2  0  0  0  0
  3 11  1  0  0  0  0
  4 21  1  0  0  0  0
  5 25  1  1  0  0  0
  6  5  1  0  0  0  0
  6 18  1  6  0  0  0
  7 19  1  0  0  0  0
  9 28  1  0  0  0  0
  9 15  1  0  0  0  0
 10 20  1  0  0  0  0
 10 17  1  0  0  0  0
 11 13  2  0  0  0  0
 12  8  1  1  0  0  0
 12  2  1  0  0  0  0
 13 22  1  0  0  0  0
 13 12  1  0  0  0  0
 14 23  1  6  0  0  0
 14 27  1  0  0  0  0
 15 18  1  0  0  0  0
 16 19  1  0  0  0  0
 17  8  1  6  0  0  0
 17  7  1  0  0  0  0
 20 29  1  6  0  0  0
 20  1  1  0  0  0  0
 21 22  2  0  0  0  0
 22 14  1  0  0  0  0
 23 28  1  0  0  0  0
 24  7  2  0  0  0  0
 26  9  2  0  0  0  0
 27  2  1  1  0  0  0
 27  5  1  0  0  0  0
 28  6  1  0  0  0  0
 29 30  1  0  0  0  0
 30 31  1  0  0  0  0
 32 30  2  0  0  0  0
M  END
>  <MODEL>
3

>  <REMARK>
 VINA RESULT:      -8.4      3.384      6.011
  Name = 
  2 active torsions:
  status: ('A' for Active; 'I' for Inactive)
    1  A    between atoms: C_20  and  C_29
    2  A    between atoms: C_29  and  C_30
                            x       y       z     vdW  Elec       q    Type
                         _______ _______ _______ _____ _____    ______ ____

>  <TORSDO>
F 2

$$$$
=
 OpenBabel11112416323D

 32 37  0  0  1  0  0  0  0  0999 V2000
  186.2340  178.5250  141.7230 O   0  0  0  0  0  0  0  0  0  0  0  0
  190.5220  176.2990  143.3890 N   0  0  0  0  0  0  0  0  0  0  0  0
  191.0670  176.6560  148.2660 C   0  0  0  0  0  3  0  0  0  0  0  0
  192.2690  175.9550  148.1760 C   0  0  0  0  0  3  0  0  0  0  0  0
  192.3590  175.3710  141.9450 C   0  0  1  0  0  3  0  0  0  0  0  0
  193.8670  175.1200  141.8230 C   0  0  1  0  0  3  0  0  0  0  0  0
  188.3700  176.5760  142.2890 C   0  0  0  0  0  0  0  0  0  0  0  0
  188.5410  176.4590  144.8160 C   0  0  0  0  0  2  0  0  0  0  0  0
  195.7610  176.2730  142.5330 C   0  0  0  0  0  0  0  0  0  0  0  0
  187.3800  178.2420  143.6910 O   0  0  0  0  0  0  0  0  0  0  0  0
  190.3480  176.9510  147.1080 C   0  0  0  0  0  3  0  0  0  0  0  0
  189.9950  176.8900  144.6290 C   0  0  1  0  0  3  0  0  0  0  0  0
  190.8140  176.5450  145.8470 C   0  0  0  0  0  0  0  0  0  0  0  0
  192.6140  175.4370  144.4230 C   0  0  2  0  0  3  0  0  0  0  0  0
  195.8130  176.4130  141.0650 C   0  0  0  0  0  2  0  0  0  0  0  0
  186.1880  177.2310  141.1870 C   0  0  0  0  0  2  0  0  0  0  0  0
  187.6990  176.8800  143.6140 C   0  0  1  0  0  3  0  0  0  0  0  0
  194.4570  175.8630  140.6200 C   0  0  0  0  0  2  0  0  0  0  0  0
  187.6030  176.6800  141.0000 C   0  0  0  0  0  2  0  0  0  0  0  0
  186.1080  178.3610  143.1120 C   0  0  1  0  0  3  0  0  0  0  0  0
  192.7580  175.5680  146.9280 C   0  0  0  0  0  3  0  0  0  0  0  0
  192.0600  175.8870  145.7510 C   0  0  0  0  0  0  0  0  0  0  0  0
  194.1280  175.6620  144.3540 C   0  0  0  0  0  2  0  0  0  0  0  0
  189.6820  176.3320  142.2190 C   0  0  0  0  0  3  0  0  0  0  0  0
  191.6940  174.1430  141.8980 O   0  0  0  0  0  1  0  0  0  0  0  0
  196.6230  176.7630  143.3110 O   0  0  0  0  0  0  0  0  0  0  0  0
  191.9750  176.1430  143.2240 C   0  0  2  0  0  3  0  0  0  0  0  0
  194.6340  175.5540  142.9860 N   0  0  0  0  0  0  0  0  0  0  0  0
  185.3920  179.5600  143.7110 C   0  0  0  0  0  2  0  0  0  0  0  0
  184.8630  179.2310  145.0640 C   0  0  0  0  0  0  0  0  0  0  0  0
  185.6940  179.3140  146.1730 O   0  0  0  0  0  1  0  0  0  0  0  0
  183.6550  178.9100  145.2070 O   0  0  0  0  0  0  0  0  0  0  0  0
  1 20  1  0  0  0  0
  2 12  1  0  0  0  0
  4  3  1  0  0  0  0
  5 25  1  1  0  0  0
  5 27  1  0  0  0  0
  6 18  1  6  0  0  0
  6  5  1  0  0  0  0
  6 28  1  0  0  0  0
  7 17  1  0  0  0  0
  9 28  1  0  0  0  0
  9 26  2  0  0  0  0
 11  3  2  0  0  0  0
 12  8  1  1  0  0  0
 12 13  1  0  0  0  0
 13 11  1  0  0  0  0
 14 23  1  1  0  0  0
 14 22  1  0  0  0  0
 15  9  1  0  0  0  0
 16  1  1  0  0  0  0
 17 10  1  0  0  0  0
 17  8  1  1  0  0  0
 18 15  1  0  0  0  0
 19 16  1  0  0  0  0
 19  7  1  0  0  0  0
 20 10  1  0  0  0  0
 20 29  1  1  0  0  0
 21  4  2  0  0  0  0
 22 13  2  0  0  0  0
 22 21  1  0  0  0  0
 24  7  2  0  0  0  0
 24  2  1  0  0  0  0
 27  2  1  1  0  0  0
 27 14  1  0  0  0  0
 28 23  1  0  0  0  0
 29 30  1  0  0  0  0
 30 32  2  0  0  0  0
 30 31  1  0  0  0  0
M  END
>  <MODEL>
4

>  <REMARK>
 VINA RESULT:      -8.1      2.967      7.359
  Name = 
  2 active torsions:
  status: ('A' for Active; 'I' for Inactive)
    1  A    between atoms: C_20  and  C_29
    2  A    between atoms: C_29  and  C_30
                            x       y       z     vdW  Elec       q    Type
                         _______ _______ _______ _____ _____    ______ ____

>  <TORSDO>
F 2

$$$$
=
 OpenBabel11112416323D

 32 37  0  0  1  0  0  0  0  0999 V2000
  186.2320  177.6440  143.3590 O   0  0  0  0  0  0  0  0  0  0  0  0
  190.8090  175.3880  143.0570 N   0  0  0  0  0  0  0  0  0  0  0  0
  193.7030  176.4620  146.8880 C   0  0  0  0  0  3  0  0  0  0  0  0
  194.7100  175.6660  146.3420 C   0  0  0  0  0  3  0  0  0  0  0  0
  191.6950  174.1110  141.0820 C   0  0  1  0  0  3  0  0  0  0  0  0
  192.9460  173.7300  140.2790 C   0  0  1  0  0  3  0  0  0  0  0  0
  188.3910  175.6520  143.1290 C   0  0  0  0  0  0  0  0  0  0  0  0
  189.7980  175.9180  145.2210 C   0  0  0  0  0  2  0  0  0  0  0  0
  194.9270  174.8340  139.7530 C   0  0  0  0  0  0  0  0  0  0  0  0
  188.2090  177.5870  144.5240 O   0  0  0  0  0  0  0  0  0  0  0  0
  192.4990  176.6250  146.2030 C   0  0  0  0  0  3  0  0  0  0  0  0
  190.9610  176.2040  144.2710 C   0  0  1  0  0  3  0  0  0  0  0  0
  192.2810  175.9930  144.9680 C   0  0  0  0  0  0  0  0  0  0  0  0
  193.1480  174.5440  143.0600 C   0  0  2  0  0  3  0  0  0  0  0  0
  194.2400  174.7390  138.4510 C   0  0  0  0  0  2  0  0  0  0  0  0
  185.9420  176.2890  143.1490 C   0  0  0  0  0  2  0  0  0  0  0  0
  188.4650  176.2090  144.5370 C   0  0  1  0  0  3  0  0  0  0  0  0
  192.8500  174.2300  138.8340 C   0  0  0  0  0  2  0  0  0  0  0  0
  187.0830  175.6100  142.3880 C   0  0  0  0  0  2  0  0  0  0  0  0
  186.8150  177.7090  144.6350 C   0  0  1  0  0  3  0  0  0  0  0  0
  194.5180  175.0540  145.1030 C   0  0  0  0  0  3  0  0  0  0  0  0
  193.3220  175.2360  144.3870 C   0  0  0  0  0  0  0  0  0  0  0  0
  194.4240  174.6400  142.2170 C   0  0  0  0  0  2  0  0  0  0  0  0
  189.4970  175.3020  142.4660 C   0  0  0  0  0  3  0  0  0  0  0  0
  191.1100  172.9440  141.5810 O   0  0  0  0  0  1  0  0  0  0  0  0
  196.0550  175.3730  139.9090 O   0  0  0  0  0  0  0  0  0  0  0  0
  191.9890  175.1000  142.2280 C   0  0  2  0  0  3  0  0  0  0  0  0
  194.1840  174.2820  140.8190 N   0  0  0  0  0  0  0  0  0  0  0  0
  186.4770  179.0370  145.2900 C   0  0  0  0  0  2  0  0  0  0  0  0
  185.3330  178.8800  146.2310 C   0  0  0  0  0  0  0  0  0  0  0  0
  184.0680  178.5850  145.7430 O   0  0  0  0  0  0  0  0  0  0  0  0
  185.5190  178.9820  147.4710 O   0  0  0  0  0  1  0  0  0  0  0  0
  1 20  1  0  0  0  0
  2 12  1  0  0  0  0
  4  3  1  0  0  0  0
  5 25  1  1  0  0  0
  5 27  1  0  0  0  0
  6 18  1  6  0  0  0
  6 28  1  0  0  0  0
  6  5  1  0  0  0  0
  7 17  1  0  0  0  0
  9 26  2  0  0  0  0
  9 28  1  0  0  0  0
 10 17  1  0  0  0  0
 10 20  1  0  0  0  0
 11  3  2  0  0  0  0
 12 13  1  0  0  0  0
 12  8  1  1  0  0  0
 13 11  1  0  0  0  0
 14 23  1  6  0  0  0
 14 22  1  0  0  0  0
 15 18  1  0  0  0  0
 15  9  1  0  0  0  0
 16  1  1  0  0  0  0
 17  8  1  6  0  0  0
 19  7  1  0  0  0  0
 19 16  1  0  0  0  0
 20 29  1  6  0  0  0
 21  4  2  0  0  0  0
 22 13  2  0  0  0  0
 22 21  1  0  0  0  0
 24  2  1  0  0  0  0
 24  7  2  0  0  0  0
 27  2  1  1  0  0  0
 27 14  1  0  0  0  0
 28 23  1  0  0  0  0
 29 30  1  0  0  0  0
 30 32  1  0  0  0  0
 31 30  2  0  0  0  0
M  END
>  <MODEL>
5

>  <REMARK>
 VINA RESULT:      -7.6      2.696      7.733
  Name = 
  2 active torsions:
  status: ('A' for Active; 'I' for Inactive)
    1  A    between atoms: C_20  and  C_29
    2  A    between atoms: C_29  and  C_30
                            x       y       z     vdW  Elec       q    Type
                         _______ _______ _______ _____ _____    ______ ____

>  <TORSDO>
F 2

$$$$
=
 OpenBabel11112416323D

 32 37  0  0  1  0  0  0  0  0999 V2000
  187.2370  177.0890  147.2540 O   0  0  0  0  0  0  0  0  0  0  0  0
  190.5550  174.9160  144.0310 N   0  0  0  0  0  0  0  0  0  0  0  0
  188.5660  173.9470  139.6370 C   0  0  0  0  0  3  0  0  0  0  0  0
  189.7840  173.4210  139.2090 C   0  0  0  0  0  3  0  0  0  0  0  0
  192.8640  174.1110  144.6130 C   0  0  1  0  0  3  0  0  0  0  0  0
  193.9540  173.0720  144.3180 C   0  0  1  0  0  3  0  0  0  0  0  0
  189.5940  176.5310  145.5760 C   0  0  0  0  0  0  0  0  0  0  0  0
  188.7130  176.3000  143.2090 C   0  0  0  0  0  2  0  0  0  0  0  0
  193.9230  170.8240  143.7120 C   0  0  0  0  0  0  0  0  0  0  0  0
  187.2640  176.2200  145.1300 O   0  0  0  0  0  0  0  0  0  0  0  0
  188.4340  174.4160  140.9430 C   0  0  0  0  0  3  0  0  0  0  0  0
  189.3170  174.8960  143.2380 C   0  0  1  0  0  3  0  0  0  0  0  0
  189.5160  174.3740  141.8370 C   0  0  0  0  0  0  0  0  0  0  0  0
  191.9230  173.7060  142.3420 C   0  0  2  0  0  3  0  0  0  0  0  0
  194.4700  170.7950  145.0820 C   0  0  0  0  0  2  0  0  0  0  0  0
  188.3490  177.9430  147.2680 C   0  0  0  0  0  2  0  0  0  0  0  0
  188.4400  176.7940  144.6280 C   0  0  1  0  0  3  0  0  0  0  0  0
  194.2710  172.2340  145.5610 C   0  0  0  0  0  2  0  0  0  0  0  0
  189.6240  177.1620  146.9390 C   0  0  0  0  0  2  0  0  0  0  0  0
  186.6970  177.1970  145.9620 C   0  0  1  0  0  3  0  0  0  0  0  0
  190.8610  173.3470  140.0940 C   0  0  0  0  0  3  0  0  0  0  0  0
  190.7310  173.7870  141.4220 C   0  0  0  0  0  0  0  0  0  0  0  0
  192.6570  172.3710  142.1740 C   0  0  0  0  0  2  0  0  0  0  0  0
  190.5440  175.6410  145.2770 C   0  0  0  0  0  3  0  0  0  0  0  0
  193.3720  175.3830  144.3380 O   0  0  0  0  0  1  0  0  0  0  0  0
  193.7420  169.7930  143.0100 O   0  0  0  0  0  0  0  0  0  0  0  0
  191.5640  173.8660  143.8220 C   0  0  2  0  0  3  0  0  0  0  0  0
  193.5960  172.1240  143.2680 N   0  0  0  0  0  0  0  0  0  0  0  0
  185.1910  177.0030  146.0140 C   0  0  0  0  0  2  0  0  0  0  0  0
  184.5100  178.2840  146.3510 C   0  0  0  0  0  0  0  0  0  0  0  0
  183.9160  179.0410  145.3500 O   0  0  0  0  0  0  0  0  0  0  0  0
  184.4440  178.6660  147.5480 O   0  0  0  0  0  1  0  0  0  0  0  0
  1 16  1  0  0  0  0
  2 24  1  0  0  0  0
  3 11  1  0  0  0  0
  4  3  2  0  0  0  0
  4 21  1  0  0  0  0
  5 25  1  6  0  0  0
  6  5  1  0  0  0  0
  6 18  1  1  0  0  0
  7 19  1  0  0  0  0
  9 15  1  0  0  0  0
 10 20  1  0  0  0  0
 11 13  2  0  0  0  0
 12  8  1  6  0  0  0
 12  2  1  0  0  0  0
 13 12  1  0  0  0  0
 14 23  1  1  0  0  0
 14 27  1  0  0  0  0
 15 18  1  0  0  0  0
 17  8  1  6  0  0  0
 17 10  1  0  0  0  0
 17  7  1  0  0  0  0
 19 16  1  0  0  0  0
 20 29  1  1  0  0  0
 20  1  1  0  0  0  0
 21 22  2  0  0  0  0
 22 13  1  0  0  0  0
 22 14  1  0  0  0  0
 23 28  1  0  0  0  0
 24  7  2  0  0  0  0
 26  9  2  0  0  0  0
 27  2  1  6  0  0  0
 27  5  1  0  0  0  0
 28  9  1  0  0  0  0
 28  6  1  0  0  0  0
 29 30  1  0  0  0  0
 30 32  1  0  0  0  0
 31 30  2  0  0  0  0
M  END
>  <MODEL>
6

>  <REMARK>
 VINA RESULT:      -7.3      2.699      8.394
  Name = 
  2 active torsions:
  status: ('A' for Active; 'I' for Inactive)
    1  A    between atoms: C_20  and  C_29
    2  A    between atoms: C_29  and  C_30
                            x       y       z     vdW  Elec       q    Type
                         _______ _______ _______ _____ _____    ______ ____

>  <TORSDO>
F 2

$$$$
=
 OpenBabel11112416323D

 32 37  0  0  1  0  0  0  0  0999 V2000
  190.0830  172.6570  138.1300 O   0  0  0  0  0  0  0  0  0  0  0  0
  190.5250  174.1260  143.0060 N   0  0  0  0  0  0  0  0  0  0  0  0
  187.1870  177.5110  144.2710 C   0  0  0  0  0  3  0  0  0  0  0  0
  187.7160  177.5410  145.5610 C   0  0  0  0  0  3  0  0  0  0  0  0
  192.3830  173.4900  144.5740 C   0  0  1  0  0  3  0  0  0  0  0  0
  193.2460  173.9370  145.7610 C   0  0  1  0  0  3  0  0  0  0  0  0
  190.2500  172.6750  141.0720 C   0  0  0  0  0  0  0  0  0  0  0  0
  188.3650  174.1780  141.8580 C   0  0  0  0  0  2  0  0  0  0  0  0
  194.1150  175.9860  146.4470 C   0  0  0  0  0  0  0  0  0  0  0  0
  189.1240  174.1620  139.5740 O   0  0  0  0  0  0  0  0  0  0  0  0
  187.7650  176.6900  143.3030 C   0  0  0  0  0  3  0  0  0  0  0  0
  189.4560  175.0150  142.5250 C   0  0  1  0  0  3  0  0  0  0  0  0
  188.8720  175.8830  143.6100 C   0  0  0  0  0  0  0  0  0  0  0  0
  190.6390  175.1230  145.2810 C   0  0  2  0  0  3  0  0  0  0  0  0
  195.3160  175.2290  146.0450 C   0  0  0  0  0  2  0  0  0  0  0  0
  190.0740  171.4590  138.8590 C   0  0  0  0  0  2  0  0  0  0  0  0
  188.9470  173.3590  140.7090 C   0  0  1  0  0  3  0  0  0  0  0  0
  194.7300  173.9830  145.3810 C   0  0  0  0  0  2  0  0  0  0  0  0
  190.8430  171.6280  140.1720 C   0  0  0  0  0  2  0  0  0  0  0  0
  188.8930  173.3160  138.4780 C   0  0  1  0  0  3  0  0  0  0  0  0
  188.8330  176.7650  145.8740 C   0  0  0  0  0  3  0  0  0  0  0  0
  189.4440  175.9580  144.8990 C   0  0  0  0  0  0  0  0  0  0  0  0
  191.6100  175.9210  146.1590 C   0  0  0  0  0  2  0  0  0  0  0  0
  190.9650  173.0690  142.1300 C   0  0  0  0  0  3  0  0  0  0  0  0
  191.6720  172.3450  144.9440 O   0  0  0  0  0  1  0  0  0  0  0  0
  194.1480  177.1660  146.8880 O   0  0  0  0  0  0  0  0  0  0  0  0
  191.4190  174.5860  144.0780 C   0  0  2  0  0  3  0  0  0  0  0  0
  192.9140  175.2660  146.2640 N   0  0  0  0  0  0  0  0  0  0  0  0
  188.3970  174.1410  137.3020 C   0  0  0  0  0  2  0  0  0  0  0  0
  189.3890  174.1180  136.1910 C   0  0  0  0  0  0  0  0  0  0  0  0
  189.3160  173.1340  135.2150 O   0  0  0  0  0  0  0  0  0  0  0  0
  190.2740  175.0090  136.1190 O   0  0  0  0  0  1  0  0  0  0  0  0
  1 20  1  0  0  0  0
  1 16  1  0  0  0  0
  3  4  1  0  0  0  0
  4 21  2  0  0  0  0
  5 25  1  1  0  0  0
  5  6  1  0  0  0  0
  6 18  1  6  0  0  0
  6 28  1  0  0  0  0
  7 24  2  0  0  0  0
  9 26  2  0  0  0  0
 10 17  1  0  0  0  0
 11 13  1  0  0  0  0
 11  3  2  0  0  0  0
 12  8  1  1  0  0  0
 12  2  1  0  0  0  0
 12 13  1  0  0  0  0
 13 22  2  0  0  0  0
 14 23  1  1  0  0  0
 15  9  1  0  0  0  0
 16 19  1  0  0  0  0
 17  7  1  0  0  0  0
 17  8  1  1  0  0  0
 18 15  1  0  0  0  0
 19  7  1  0  0  0  0
 20 29  1  6  0  0  0
 20 10  1  0  0  0  0
 22 14  1  0  0  0  0
 22 21  1  0  0  0  0
 23 28  1  0  0  0  0
 24  2  1  0  0  0  0
 27  2  1  6  0  0  0
 27  5  1  0  0  0  0
 27 14  1  0  0  0  0
 28  9  1  0  0  0  0
 30 29  1  0  0  0  0
 31 30  2  0  0  0  0
 32 30  1  0  0  0  0
M  END
>  <MODEL>
7

>  <REMARK>
 VINA RESULT:      -7.3      2.656      5.341
  Name = 
  2 active torsions:
  status: ('A' for Active; 'I' for Inactive)
    1  A    between atoms: C_20  and  C_29
    2  A    between atoms: C_29  and  C_30
                            x       y       z     vdW  Elec       q    Type
                         _______ _______ _______ _____ _____    ______ ____

>  <TORSDO>
F 2

$$$$
=
 OpenBabel11112416323D

 32 37  0  0  1  0  0  0  0  0999 V2000
  191.7530  172.6740  139.4680 O   0  0  0  0  0  0  0  0  0  0  0  0
  189.3430  174.6580  143.5150 N   0  0  0  0  0  0  0  0  0  0  0  0
  185.5630  177.5370  142.2420 C   0  0  0  0  0  3  0  0  0  0  0  0
  185.3010  177.7790  143.5900 C   0  0  0  0  0  3  0  0  0  0  0  0
  190.1010  174.4970  145.9070 C   0  0  1  0  0  3  0  0  0  0  0  0
  190.1370  175.1960  147.2720 C   0  0  1  0  0  3  0  0  0  0  0  0
  190.2940  173.0030  142.0070 C   0  0  0  0  0  0  0  0  0  0  0  0
  188.1570  174.2350  141.4180 C   0  0  0  0  0  2  0  0  0  0  0  0
  190.3050  177.4180  147.9470 C   0  0  0  0  0  0  0  0  0  0  0  0
  190.0330  174.1280  139.9120 O   0  0  0  0  0  0  0  0  0  0  0  0
  186.6450  176.7370  141.8780 C   0  0  0  0  0  3  0  0  0  0  0  0
  188.6310  175.3030  142.4020 C   0  0  1  0  0  3  0  0  0  0  0  0
  187.4760  176.1610  142.8530 C   0  0  0  0  0  0  0  0  0  0  0  0
  188.1130  175.8730  145.3030 C   0  0  2  0  0  3  0  0  0  0  0  0
  191.5950  176.8400  148.3720 C   0  0  0  0  0  2  0  0  0  0  0  0
  191.4580  171.5680  140.2770 C   0  0  0  0  0  2  0  0  0  0  0  0
  189.3410  173.4190  140.9040 C   0  0  1  0  0  3  0  0  0  0  0  0
  191.5780  175.4540  147.7240 C   0  0  0  0  0  2  0  0  0  0  0  0
  191.3730  171.9890  141.7460 C   0  0  0  0  0  2  0  0  0  0  0  0
  190.5110  173.1540  139.0220 C   0  0  1  0  0  3  0  0  0  0  0  0
  186.1350  177.2370  144.5690 C   0  0  0  0  0  3  0  0  0  0  0  0
  187.2480  176.4550  144.2150 C   0  0  0  0  0  0  0  0  0  0  0  0
  188.3760  176.9040  146.4070 C   0  0  0  0  0  2  0  0  0  0  0  0
  190.2810  173.6110  143.1960 C   0  0  0  0  0  3  0  0  0  0  0  0
  189.4100  173.2900  146.0390 O   0  0  0  0  0  1  0  0  0  0  0  0
  189.9870  178.6230  148.1310 O   0  0  0  0  0  0  0  0  0  0  0  0
  189.4660  175.3630  144.8000 C   0  0  2  0  0  3  0  0  0  0  0  0
  189.4660  176.4910  147.2900 N   0  0  0  0  0  0  0  0  0  0  0  0
  190.6600  173.7660  137.6390 C   0  0  0  0  0  2  0  0  0  0  0  0
  189.3960  173.6220  136.8640 C   0  0  0  0  0  0  0  0  0  0  0  0
  188.3480  174.5070  137.0730 O   0  0  0  0  0  1  0  0  0  0  0  0
  189.2900  172.7170  135.9960 O   0  0  0  0  0  0  0  0  0  0  0  0
  1 16  1  0  0  0  0
  3  4  1  0  0  0  0
  4 21  2  0  0  0  0
  5 25  1  1  0  0  0
  5  6  1  0  0  0  0
  6 28  1  0  0  0  0
  6 18  1  6  0  0  0
  7 24  2  0  0  0  0
  9 26  2  0  0  0  0
  9 15  1  0  0  0  0
 10 17  1  0  0  0  0
 11  3  2  0  0  0  0
 11 13  1  0  0  0  0
 12  8  1  6  0  0  0
 12 13  1  0  0  0  0
 12  2  1  0  0  0  0
 13 22  2  0  0  0  0
 14 23  1  1  0  0  0
 16 19  1  0  0  0  0
 17  8  1  1  0  0  0
 17  7  1  0  0  0  0
 18 15  1  0  0  0  0
 19  7  1  0  0  0  0
 20 29  1  6  0  0  0
 20  1  1  0  0  0  0
 20 10  1  0  0  0  0
 22 21  1  0  0  0  0
 22 14  1  0  0  0  0
 23 28  1  0  0  0  0
 24  2  1  0  0  0  0
 27  2  1  6  0  0  0
 27 14  1  0  0  0  0
 27  5  1  0  0  0  0
 28  9  1  0  0  0  0
 30 31  1  0  0  0  0
 30 29  1  0  0  0  0
 32 30  2  0  0  0  0
M  END
>  <MODEL>
8

>  <REMARK>
 VINA RESULT:      -7.2      2.142      4.532
  Name = 
  2 active torsions:
  status: ('A' for Active; 'I' for Inactive)
    1  A    between atoms: C_20  and  C_29
    2  A    between atoms: C_29  and  C_30
                            x       y       z     vdW  Elec       q    Type
                         _______ _______ _______ _____ _____    ______ ____

>  <TORSDO>
F 2

$$$$
=
 OpenBabel11112416323D

 32 37  0  0  1  0  0  0  0  0999 V2000
  187.1600  176.7950  142.9390 O   0  0  0  0  0  0  0  0  0  0  0  0
  191.8800  174.8920  142.4650 N   0  0  0  0  0  0  0  0  0  0  0  0
  194.6040  175.5580  146.5070 C   0  0  0  0  0  3  0  0  0  0  0  0
  195.6730  174.9150  145.8850 C   0  0  0  0  0  3  0  0  0  0  0  0
  192.8960  173.9790  140.3550 C   0  0  1  0  0  3  0  0  0  0  0  0
  194.1880  173.7990  139.5470 C   0  0  1  0  0  3  0  0  0  0  0  0
  189.4490  174.9950  142.4920 C   0  0  0  0  0  0  0  0  0  0  0  0
  190.7850  175.0320  144.6480 C   0  0  0  0  0  2  0  0  0  0  0  0
  196.1050  175.0870  139.2570 C   0  0  0  0  0  0  0  0  0  0  0  0
  189.1070  176.6860  144.1500 O   0  0  0  0  0  0  0  0  0  0  0  0
  193.4090  175.7480  145.8130 C   0  0  0  0  0  3  0  0  0  0  0  0
  191.9490  175.5260  143.7900 C   0  0  1  0  0  3  0  0  0  0  0  0
  193.2630  175.2940  144.4920 C   0  0  0  0  0  0  0  0  0  0  0  0
  194.2680  174.2000  142.4220 C   0  0  2  0  0  3  0  0  0  0  0  0
  195.4580  175.1450  137.9320 C   0  0  0  0  0  2  0  0  0  0  0  0
  186.9640  175.4710  142.5230 C   0  0  0  0  0  2  0  0  0  0  0  0
  189.4520  175.3390  143.9690 C   0  0  1  0  0  3  0  0  0  0  0  0
  194.0950  174.5010  138.1890 C   0  0  0  0  0  2  0  0  0  0  0  0
  188.1660  174.9840  141.7100 C   0  0  0  0  0  2  0  0  0  0  0  0
  187.7070  176.7050  144.2300 C   0  0  1  0  0  3  0  0  0  0  0  0
  195.5520  174.4830  144.5630 C   0  0  0  0  0  3  0  0  0  0  0  0
  194.3650  174.6970  143.8420 C   0  0  0  0  0  0  0  0  0  0  0  0
  195.5560  174.4990  141.6460 C   0  0  0  0  0  2  0  0  0  0  0  0
  190.5910  174.8150  141.8230 C   0  0  0  0  0  3  0  0  0  0  0  0
  192.3760  172.7180  140.6570 O   0  0  0  0  0  1  0  0  0  0  0  0
  197.1920  175.6650  139.5280 O   0  0  0  0  0  0  0  0  0  0  0  0
  193.0960  174.8020  141.6430 C   0  0  2  0  0  3  0  0  0  0  0  0
  195.3740  174.3380  140.2040 N   0  0  0  0  0  0  0  0  0  0  0  0
  187.2670  177.8980  145.0620 C   0  0  0  0  0  2  0  0  0  0  0  0
  187.0830  177.5030  146.4860 C   0  0  0  0  0  0  0  0  0  0  0  0
  187.3240  176.1950  146.8810 O   0  0  0  0  0  0  0  0  0  0  0  0
  186.7400  178.3630  147.3390 O   0  0  0  0  0  1  0  0  0  0  0  0
  1 20  1  0  0  0  0
  2 12  1  0  0  0  0
  4  3  1  0  0  0  0
  5 25  1  1  0  0  0
  5 27  1  0  0  0  0
  6 18  1  6  0  0  0
  6 28  1  0  0  0  0
  6  5  1  0  0  0  0
  7 17  1  0  0  0  0
  9 26  2  0  0  0  0
  9 28  1  0  0  0  0
 10 20  1  0  0  0  0
 11  3  2  0  0  0  0
 12 13  1  0  0  0  0
 12  8  1  1  0  0  0
 13 11  1  0  0  0  0
 14 23  1  6  0  0  0
 14 22  1  0  0  0  0
 15 18  1  0  0  0  0
 15  9  1  0  0  0  0
 16  1  1  0  0  0  0
 17 10  1  0  0  0  0
 17  8  1  6  0  0  0
 19  7  1  0  0  0  0
 19 16  1  0  0  0  0
 20 29  1  1  0  0  0
 21  4  2  0  0  0  0
 22 13  2  0  0  0  0
 22 21  1  0  0  0  0
 24  2  1  0  0  0  0
 24  7  2  0  0  0  0
 27 14  1  0  0  0  0
 27  2  1  1  0  0  0
 28 23  1  0  0  0  0
 29 30  1  0  0  0  0
 30 31  2  0  0  0  0
 30 32  1  0  0  0  0
M  END
>  <MODEL>
9

>  <REMARK>
 VINA RESULT:      -7.0      3.395      7.895
  Name = 
  2 active torsions:
  status: ('A' for Active; 'I' for Inactive)
    1  A    between atoms: C_20  and  C_29
    2  A    between atoms: C_29  and  C_30
                            x       y       z     vdW  Elec       q    Type
                         _______ _______ _______ _____ _____    ______ ____

>  <TORSDO>
F 2

$$$$
