=
 OpenBabel11112417293D

 37 42  0  0  1  0  0  0  0  0999 V2000
  190.4160  174.8970  145.4330 C   0  0  1  0  0  3  0  0  0  0  0  0
  187.5270  175.5070  143.6550 O   0  0  0  0  0  0  0  0  0  0  0  0
  192.8510  174.2230  145.0040 C   0  0  2  0  0  3  0  0  0  0  0  0
  189.8750  175.5120  144.1600 C   0  0  2  0  0  3  0  0  0  0  0  0
  191.3630  173.8160  144.9230 C   0  0  2  0  0  3  0  0  0  0  0  0
  188.5330  176.2590  144.2870 C   0  0  2  0  0  3  0  0  0  0  0  0
  193.2250  174.7730  146.3940 C   0  0  0  0  0  2  0  0  0  0  0  0
  190.9390  173.5740  143.4790 C   0  0  0  0  0  2  0  0  0  0  0  0
  190.1160  176.6620  147.2000 C   0  0  0  0  0  2  0  0  0  0  0  0
  192.0790  175.2410  147.1810 N   0  0  0  0  0  2  0  0  0  0  0  0
  188.2900  176.8270  141.7990 O   0  0  0  0  0  0  0  0  0  0  0  0
  187.3250  175.9310  142.3120 C   0  0  1  0  0  3  0  0  0  0  0  0
  191.1210  175.9290  146.3220 C   0  0  1  0  0  3  0  0  0  0  0  0
  189.7710  174.4130  143.1980 N   0  0  2  0  0  0  0  0  0  0  0  0
  188.1100  176.6630  145.7080 C   0  0  1  0  0  3  0  0  0  0  0  0
  188.4140  175.4900  141.3670 C   0  0  2  0  0  3  0  0  0  0  0  0
  189.8010  174.9870  141.8400 C   0  0  2  0  0  3  0  0  0  0  0  0
  189.1700  177.5270  146.3820 C   0  0  0  0  0  2  0  0  0  0  0  0
  185.7560  176.9110  146.5100 C   0  0  0  0  0  3  0  0  0  0  0  0
  186.7950  177.3820  145.7010 C   0  0  0  0  0  0  0  0  0  0  0  0
  186.5880  178.5120  144.8940 C   0  0  0  0  0  3  0  0  0  0  0  0
  185.1490  180.2780  144.1000 O   0  0  0  0  0  1  0  0  0  0  0  0
  184.3160  178.6860  145.7100 C   0  0  0  0  0  3  0  0  0  0  0  0
  185.3500  179.1610  144.9000 C   0  0  0  0  0  0  0  0  0  0  0  0
  184.5190  177.5620  146.5150 C   0  0  0  0  0  3  0  0  0  0  0  0
  190.3200  173.9830  140.7850 C   0  0  0  0  0  2  0  0  0  0  0  0
  189.2700  173.4230  139.9190 N   0  0  0  0  0  0  0  0  0  0  0  0
  188.3030  174.1670  137.8120 C   0  0  0  0  0  1  0  0  0  0  0  0
  189.5630  173.7070  138.5190 C   0  0  0  0  0  2  0  0  0  0  0  0
  189.2020  171.9770  140.0900 C   0  0  0  0  0  2  0  0  0  0  0  0
  190.5610  171.4300  140.4930 C   0  0  0  0  0  2  0  0  0  0  0  0
  190.4180  170.5260  141.5460 O   0  0  0  0  0  1  0  0  0  0  0  0
  193.1660  175.1860  144.0220 O   0  0  0  0  0  0  0  0  0  0  0  0
  194.3520  174.7990  143.3550 C   0  0  0  0  0  0  0  0  0  0  0  0
  194.7170  173.5010  143.6820 F   0  0  0  0  0  0  0  0  0  0  0  0
  194.2090  174.9270  141.8440 C   0  0  0  0  0  1  0  0  0  0  0  0
  195.3700  175.6420  143.7570 F   0  0  0  0  0  0  0  0  0  0  0  0
  1 13  1  0  0  0  0
  2  6  1  0  0  0  0
  3  7  1  0  0  0  0
  4  6  1  0  0  0  0
  4  1  1  0  0  0  0
  5  3  1  0  0  0  0
  5  1  1  0  0  0  0
  6 15  1  0  0  0  0
  7 10  1  0  0  0  0
  8  5  1  0  0  0  0
 11 12  1  0  0  0  0
 12  2  1  0  0  0  0
 13 10  1  0  0  0  0
 13  9  1  0  0  0  0
 14  8  1  0  0  0  0
 14  4  1  0  0  0  0
 15 18  1  0  0  0  0
 16 11  1  0  0  0  0
 16 17  1  0  0  0  0
 16 12  1  0  0  0  0
 17 14  1  0  0  0  0
 18  9  1  0  0  0  0
 19 25  1  0  0  0  0
 20 15  1  0  0  0  0
 20 19  2  0  0  0  0
 21 24  2  0  0  0  0
 21 20  1  0  0  0  0
 22 24  1  0  0  0  0
 23 25  2  0  0  0  0
 24 23  1  0  0  0  0
 26 17  1  0  0  0  0
 27 30  1  0  0  0  0
 27 26  1  0  0  0  0
 28 29  1  0  0  0  0
 29 27  1  0  0  0  0
 30 31  1  0  0  0  0
 31 32  1  0  0  0  0
 33  3  1  0  0  0  0
 34 35  1  0  0  0  0
 34 37  1  0  0  0  0
 34 33  1  0  0  0  0
 36 34  1  0  0  0  0
M  END
>  <MODEL>
1

>  <REMARK>
 VINA RESULT:      -7.5      0.000      0.000
  Name = 
  8 active torsions:
  status: ('A' for Active; 'I' for Inactive)
    1  A    between atoms: C_1  and  N_4
    2  A    between atoms: C_1  and  C_27
    3  A    between atoms: C_2  and  O_22
    4  A    between atoms: N_4  and  C_12
    5  A    between atoms: N_4  and  C_37
    6  A    between atoms: C_6  and  O_22
    7  A    between atoms: C_8  and  C_12
    8  A    between atoms: C_23  and  C_30
                            x       y       z     vdW  Elec       q    Type
                         _______ _______ _______ _____ _____    ______ ____

>  <TORSDO>
F 8

$$$$
=
 OpenBabel11112417293D

 37 42  0  0  1  0  0  0  0  0999 V2000
  190.7400  174.7510  145.2600 C   0  0  1  0  0  3  0  0  0  0  0  0
  187.7180  175.1500  143.6510 O   0  0  0  0  0  0  0  0  0  0  0  0
  193.1400  174.0290  144.7270 C   0  0  2  0  0  3  0  0  0  0  0  0
  190.0980  175.2120  143.9690 C   0  0  2  0  0  3  0  0  0  0  0  0
  191.6540  173.6160  144.8090 C   0  0  2  0  0  3  0  0  0  0  0  0
  188.7640  175.9700  144.1110 C   0  0  2  0  0  3  0  0  0  0  0  0
  193.6150  174.7370  146.0110 C   0  0  0  0  0  2  0  0  0  0  0  0
  191.1230  173.2070  143.4400 C   0  0  0  0  0  2  0  0  0  0  0  0
  190.5610  176.7100  146.8270 C   0  0  0  0  0  2  0  0  0  0  0  0
  192.5280  175.2950  146.8240 N   0  0  0  0  0  2  0  0  0  0  0  0
  188.3270  176.2430  141.6000 O   0  0  0  0  0  0  0  0  0  0  0  0
  187.4120  175.4140  142.2870 C   0  0  1  0  0  3  0  0  0  0  0  0
  191.5020  175.8790  145.9660 C   0  0  1  0  0  3  0  0  0  0  0  0
  189.9300  174.0090  143.1530 N   0  0  2  0  0  0  0  0  0  0  0  0
  188.4470  176.5380  145.5030 C   0  0  1  0  0  3  0  0  0  0  0  0
  188.4280  174.8650  141.3190 C   0  0  2  0  0  3  0  0  0  0  0  0
  189.8520  174.4200  141.7390 C   0  0  2  0  0  3  0  0  0  0  0  0
  189.5480  177.4740  145.9890 C   0  0  0  0  0  2  0  0  0  0  0  0
  186.0890  176.7510  146.3020 C   0  0  0  0  0  3  0  0  0  0  0  0
  187.1300  177.2520  145.5140 C   0  0  0  0  0  0  0  0  0  0  0  0
  186.9230  178.4080  144.7440 C   0  0  0  0  0  3  0  0  0  0  0  0
  185.4810  180.1940  144.0020 O   0  0  0  0  0  1  0  0  0  0  0  0
  184.6450  178.5470  145.5540 C   0  0  0  0  0  3  0  0  0  0  0  0
  185.6830  179.0520  144.7650 C   0  0  0  0  0  0  0  0  0  0  0  0
  184.8480  177.3970  146.3220 C   0  0  0  0  0  3  0  0  0  0  0  0
  190.2960  173.2990  140.7720 C   0  0  0  0  0  2  0  0  0  0  0  0
  190.8570  173.7860  139.5030 N   0  0  0  0  0  0  0  0  0  0  0  0
  192.7630  172.3410  139.9620 C   0  0  0  0  0  1  0  0  0  0  0  0
  192.3140  173.7250  139.5350 C   0  0  0  0  0  2  0  0  0  0  0  0
  190.3880  172.9570  138.3990 C   0  0  0  0  0  2  0  0  0  0  0  0
  189.4910  173.7650  137.4780 C   0  0  0  0  0  2  0  0  0  0  0  0
  188.1770  173.7390  137.9470 O   0  0  0  0  0  1  0  0  0  0  0  0
  193.3720  174.8700  143.6180 O   0  0  0  0  0  0  0  0  0  0  0  0
  194.6020  174.5170  143.0150 C   0  0  0  0  0  0  0  0  0  0  0  0
  195.6690  175.1580  143.6270 F   0  0  0  0  0  0  0  0  0  0  0  0
  194.8240  173.0100  143.0440 C   0  0  0  0  0  1  0  0  0  0  0  0
  194.5660  174.9150  141.6930 F   0  0  0  0  0  0  0  0  0  0  0  0
  1 13  1  0  0  0  0
  2  6  1  0  0  0  0
  3  5  1  0  0  0  0
  3  7  1  0  0  0  0
  4  6  1  0  0  0  0
  4  1  1  0  0  0  0
  5  1  1  0  0  0  0
  6 15  1  0  0  0  0
  7 10  1  0  0  0  0
  8  5  1  0  0  0  0
 11 12  1  0  0  0  0
 12  2  1  0  0  0  0
 13 10  1  0  0  0  0
 13  9  1  0  0  0  0
 14  8  1  0  0  0  0
 14  4  1  0  0  0  0
 15 20  1  0  0  0  0
 15 18  1  0  0  0  0
 16 11  1  0  0  0  0
 16 17  1  0  0  0  0
 16 12  1  0  0  0  0
 17 14  1  0  0  0  0
 18  9  1  0  0  0  0
 19 25  1  0  0  0  0
 20 19  2  0  0  0  0
 21 24  2  0  0  0  0
 21 20  1  0  0  0  0
 22 24  1  0  0  0  0
 23 25  2  0  0  0  0
 24 23  1  0  0  0  0
 26 17  1  0  0  0  0
 27 29  1  0  0  0  0
 27 26  1  0  0  0  0
 29 28  1  0  0  0  0
 30 27  1  0  0  0  0
 31 32  1  0  0  0  0
 31 30  1  0  0  0  0
 33  3  1  0  0  0  0
 34 36  1  0  0  0  0
 34 33  1  0  0  0  0
 34 35  1  0  0  0  0
 37 34  1  0  0  0  0
M  END
>  <MODEL>
2

>  <REMARK>
 VINA RESULT:      -7.2      1.241      1.721
  Name = 
  8 active torsions:
  status: ('A' for Active; 'I' for Inactive)
    1  A    between atoms: C_1  and  N_4
    2  A    between atoms: C_1  and  C_27
    3  A    between atoms: C_2  and  O_22
    4  A    between atoms: N_4  and  C_12
    5  A    between atoms: N_4  and  C_37
    6  A    between atoms: C_6  and  O_22
    7  A    between atoms: C_8  and  C_12
    8  A    between atoms: C_23  and  C_30
                            x       y       z     vdW  Elec       q    Type
                         _______ _______ _______ _____ _____    ______ ____

>  <TORSDO>
F 8

$$$$
=
 OpenBabel11112417293D

 37 42  0  0  1  0  0  0  0  0999 V2000
  190.7670  174.1220  141.6370 C   0  0  1  0  0  3  0  0  0  0  0  0
  189.6770  177.2910  142.4440 O   0  0  0  0  0  0  0  0  0  0  0  0
  192.5430  172.4340  142.3860 C   0  0  2  0  0  3  0  0  0  0  0  0
  190.5090  175.0650  142.7930 C   0  0  2  0  0  3  0  0  0  0  0  0
  192.2560  173.8170  141.7620 C   0  0  2  0  0  3  0  0  0  0  0  0
  189.2640  175.9650  142.6660 C   0  0  2  0  0  3  0  0  0  0  0  0
  191.7340  171.3130  141.7040 C   0  0  0  0  0  2  0  0  0  0  0  0
  192.8130  174.9370  142.6330 C   0  0  0  0  0  2  0  0  0  0  0  0
  188.5280  173.1120  141.0940 C   0  0  0  0  0  2  0  0  0  0  0  0
  190.5540  171.7870  140.9730 N   0  0  0  0  0  2  0  0  0  0  0  0
  189.6320  177.2640  144.8450 O   0  0  0  0  0  0  0  0  0  0  0  0
  189.7490  178.0250  143.6600 C   0  0  1  0  0  3  0  0  0  0  0  0
  189.8970  172.8610  141.7110 C   0  0  1  0  0  3  0  0  0  0  0  0
  191.7230  175.8710  142.9310 N   0  0  2  0  0  0  0  0  0  0  0  0
  188.2130  175.5330  141.6320 C   0  0  1  0  0  3  0  0  0  0  0  0
  190.9410  177.6710  144.5130 C   0  0  2  0  0  3  0  0  0  0  0  0
  191.7800  176.3840  144.3120 C   0  0  2  0  0  3  0  0  0  0  0  0
  187.7170  174.1170  141.8970 C   0  0  0  0  0  2  0  0  0  0  0  0
  186.7550  177.1590  140.4160 C   0  0  0  0  0  3  0  0  0  0  0  0
  187.0540  176.4820  141.6040 C   0  0  0  0  0  0  0  0  0  0  0  0
  186.2700  176.7070  142.7470 C   0  0  0  0  0  3  0  0  0  0  0  0
  184.4260  177.8240  143.8290 O   0  0  0  0  0  1  0  0  0  0  0  0
  184.9050  178.2770  141.5080 C   0  0  0  0  0  3  0  0  0  0  0  0
  185.1990  177.6030  142.6970 C   0  0  0  0  0  0  0  0  0  0  0  0
  185.6820  178.0550  140.3690 C   0  0  0  0  0  3  0  0  0  0  0  0
  193.2240  176.6890  144.7700 C   0  0  0  0  0  2  0  0  0  0  0  0
  193.5480  176.1900  146.1160 N   0  0  0  0  0  0  0  0  0  0  0  0
  191.7330  175.8860  147.7110 C   0  0  0  0  0  1  0  0  0  0  0  0
  192.5200  175.2630  146.5740 C   0  0  0  0  0  2  0  0  0  0  0  0
  194.8230  175.4860  146.0930 C   0  0  0  0  0  2  0  0  0  0  0  0
  195.5830  175.8150  144.8190 C   0  0  0  0  0  2  0  0  0  0  0  0
  196.6010  174.8820  144.6160 O   0  0  0  0  0  1  0  0  0  0  0  0
  192.2660  172.4340  143.7690 O   0  0  0  0  0  0  0  0  0  0  0  0
  193.3000  171.7530  144.4520 C   0  0  0  0  0  0  0  0  0  0  0  0
  193.0050  170.4060  144.6030 F   0  0  0  0  0  0  0  0  0  0  0  0
  194.6360  171.9070  143.7360 C   0  0  0  0  0  1  0  0  0  0  0  0
  193.4260  172.3060  145.7110 F   0  0  0  0  0  0  0  0  0  0  0  0
  1 13  1  0  0  0  0
  1  5  1  0  0  0  0
  1  4  1  0  0  0  0
  2  6  1  0  0  0  0
  2 12  1  0  0  0  0
  3 33  1  0  0  0  0
  4 14  1  0  0  0  0
  5  3  1  0  0  0  0
  5  8  1  0  0  0  0
  6  4  1  0  0  0  0
  7  3  1  0  0  0  0
  8 14  1  0  0  0  0
  9 13  1  0  0  0  0
  9 18  1  0  0  0  0
 10  7  1  0  0  0  0
 10 13  1  0  0  0  0
 12 16  1  0  0  0  0
 12 11  1  0  0  0  0
 14 17  1  0  0  0  0
 15 18  1  0  0  0  0
 15  6  1  0  0  0  0
 16 11  1  0  0  0  0
 17 16  1  0  0  0  0
 17 26  1  0  0  0  0
 19 20  1  0  0  0  0
 20 15  1  0  0  0  0
 20 21  2  0  0  0  0
 23 24  2  0  0  0  0
 24 21  1  0  0  0  0
 24 22  1  0  0  0  0
 25 19  2  0  0  0  0
 25 23  1  0  0  0  0
 26 27  1  0  0  0  0
 27 29  1  0  0  0  0
 29 28  1  0  0  0  0
 30 27  1  0  0  0  0
 31 30  1  0  0  0  0
 32 31  1  0  0  0  0
 33 34  1  0  0  0  0
 34 35  1  0  0  0  0
 34 37  1  0  0  0  0
 36 34  1  0  0  0  0
M  END
>  <MODEL>
3

>  <REMARK>
 VINA RESULT:      -6.9      2.467      5.301
  Name = 
  8 active torsions:
  status: ('A' for Active; 'I' for Inactive)
    1  A    between atoms: C_1  and  N_4
    2  A    between atoms: C_1  and  C_27
    3  A    between atoms: C_2  and  O_22
    4  A    between atoms: N_4  and  C_12
    5  A    between atoms: N_4  and  C_37
    6  A    between atoms: C_6  and  O_22
    7  A    between atoms: C_8  and  C_12
    8  A    between atoms: C_23  and  C_30
                            x       y       z     vdW  Elec       q    Type
                         _______ _______ _______ _____ _____    ______ ____

>  <TORSDO>
F 8

$$$$
=
 OpenBabel11112417293D

 37 42  0  0  1  0  0  0  0  0999 V2000
  190.5670  173.9800  141.5090 C   0  0  1  0  0  3  0  0  0  0  0  0
  189.6600  177.2190  142.2600 O   0  0  0  0  0  0  0  0  0  0  0  0
  192.3300  172.2510  142.1960 C   0  0  2  0  0  3  0  0  0  0  0  0
  190.4310  174.9770  142.6400 C   0  0  2  0  0  3  0  0  0  0  0  0
  192.0490  173.6200  141.5380 C   0  0  2  0  0  3  0  0  0  0  0  0
  189.2150  175.9210  142.5660 C   0  0  2  0  0  3  0  0  0  0  0  0
  191.4300  171.1380  141.6230 C   0  0  0  0  0  2  0  0  0  0  0  0
  192.7100  174.7490  142.3180 C   0  0  0  0  0  2  0  0  0  0  0  0
  188.2580  173.0410  141.1720 C   0  0  0  0  0  2  0  0  0  0  0  0
  190.2180  171.6310  140.9600 N   0  0  0  0  0  2  0  0  0  0  0  0
  189.7930  177.2870  144.6570 O   0  0  0  0  0  0  0  0  0  0  0  0
  189.8490  177.9960  143.4360 C   0  0  1  0  0  3  0  0  0  0  0  0
  189.6590  172.7590  141.6980 C   0  0  1  0  0  3  0  0  0  0  0  0
  191.6810  175.7370  142.6560 N   0  0  2  0  0  0  0  0  0  0  0  0
  188.0750  175.4920  141.6300 C   0  0  1  0  0  3  0  0  0  0  0  0
  191.0870  177.6280  144.2140 C   0  0  2  0  0  3  0  0  0  0  0  0
  191.8600  176.3010  144.0070 C   0  0  2  0  0  3  0  0  0  0  0  0
  187.5470  174.1080  141.9890 C   0  0  0  0  0  2  0  0  0  0  0  0
  186.6530  177.1950  140.4790 C   0  0  0  0  0  3  0  0  0  0  0  0
  186.9530  176.4850  141.6470 C   0  0  0  0  0  0  0  0  0  0  0  0
  186.2060  176.7190  142.8120 C   0  0  0  0  0  3  0  0  0  0  0  0
  184.4320  177.8860  143.9580 O   0  0  0  0  0  1  0  0  0  0  0  0
  184.8740  178.3630  141.6350 C   0  0  0  0  0  3  0  0  0  0  0  0
  185.1690  177.6560  142.8040 C   0  0  0  0  0  0  0  0  0  0  0  0
  185.6160  178.1320  140.4730 C   0  0  0  0  0  3  0  0  0  0  0  0
  193.3440  176.5650  144.3450 C   0  0  0  0  0  2  0  0  0  0  0  0
  193.8750  175.7220  145.4280 N   0  0  0  0  0  0  0  0  0  0  0  0
  195.8630  174.3780  145.8420 C   0  0  0  0  0  1  0  0  0  0  0  0
  195.3330  175.7310  145.4100 C   0  0  0  0  0  2  0  0  0  0  0  0
  193.4290  176.2280  146.7200 C   0  0  0  0  0  2  0  0  0  0  0  0
  192.2680  175.3970  147.2380 C   0  0  0  0  0  2  0  0  0  0  0  0
  191.2370  176.2320  147.6700 O   0  0  0  0  0  1  0  0  0  0  0  0
  192.1560  172.3170  143.5940 O   0  0  0  0  0  0  0  0  0  0  0  0
  193.2010  171.6050  144.2280 C   0  0  0  0  0  0  0  0  0  0  0  0
  192.8770  170.2660  144.3880 F   0  0  0  0  0  0  0  0  0  0  0  0
  194.5070  171.7280  143.4530 C   0  0  0  0  0  1  0  0  0  0  0  0
  193.3990  172.1490  145.4820 F   0  0  0  0  0  0  0  0  0  0  0  0
  1  5  1  0  0  0  0
  1 13  1  0  0  0  0
  1  4  1  0  0  0  0
  2  6  1  0  0  0  0
  2 12  1  0  0  0  0
  3 33  1  0  0  0  0
  4 14  1  0  0  0  0
  5  3  1  0  0  0  0
  5  8  1  0  0  0  0
  6  4  1  0  0  0  0
  7  3  1  0  0  0  0
  8 14  1  0  0  0  0
  9 13  1  0  0  0  0
  9 18  1  0  0  0  0
 10  7  1  0  0  0  0
 10 13  1  0  0  0  0
 12 16  1  0  0  0  0
 12 11  1  0  0  0  0
 14 17  1  0  0  0  0
 15 20  1  0  0  0  0
 15 18  1  0  0  0  0
 15  6  1  0  0  0  0
 16 11  1  0  0  0  0
 17 16  1  0  0  0  0
 17 26  1  0  0  0  0
 19 20  1  0  0  0  0
 20 21  2  0  0  0  0
 23 24  2  0  0  0  0
 24 21  1  0  0  0  0
 24 22  1  0  0  0  0
 25 19  2  0  0  0  0
 25 23  1  0  0  0  0
 26 27  1  0  0  0  0
 27 30  1  0  0  0  0
 29 27  1  0  0  0  0
 29 28  1  0  0  0  0
 30 31  1  0  0  0  0
 31 32  1  0  0  0  0
 33 34  1  0  0  0  0
 34 35  1  0  0  0  0
 34 37  1  0  0  0  0
 36 34  1  0  0  0  0
M  END
>  <MODEL>
4

>  <REMARK>
 VINA RESULT:      -6.7      2.527      5.348
  Name = 
  8 active torsions:
  status: ('A' for Active; 'I' for Inactive)
    1  A    between atoms: C_1  and  N_4
    2  A    between atoms: C_1  and  C_27
    3  A    between atoms: C_2  and  O_22
    4  A    between atoms: N_4  and  C_12
    5  A    between atoms: N_4  and  C_37
    6  A    between atoms: C_6  and  O_22
    7  A    between atoms: C_8  and  C_12
    8  A    between atoms: C_23  and  C_30
                            x       y       z     vdW  Elec       q    Type
                         _______ _______ _______ _____ _____    ______ ____

>  <TORSDO>
F 8

$$$$
=
 OpenBabel11112417293D

 37 42  0  0  1  0  0  0  0  0999 V2000
  190.7120  176.9690  145.4090 C   0  0  1  0  0  3  0  0  0  0  0  0
  192.8140  175.1040  143.4130 O   0  0  0  0  0  0  0  0  0  0  0  0
  188.2800  177.7770  145.4410 C   0  0  2  0  0  3  0  0  0  0  0  0
  190.7810  175.7460  144.5190 C   0  0  2  0  0  3  0  0  0  0  0  0
  189.6520  177.8320  144.7330 C   0  0  2  0  0  3  0  0  0  0  0  0
  192.0820  174.9240  144.6000 C   0  0  2  0  0  3  0  0  0  0  0  0
  188.4030  178.0180  146.9590 C   0  0  0  0  0  2  0  0  0  0  0  0
  189.5560  177.2930  143.3110 C   0  0  0  0  0  2  0  0  0  0  0  0
  191.5920  176.2150  147.6410 C   0  0  0  0  0  2  0  0  0  0  0  0
  189.7480  177.7800  147.4950 N   0  0  0  0  0  2  0  0  0  0  0  0
  191.4550  173.2250  142.7860 O   0  0  0  0  0  0  0  0  0  0  0  0
  192.5410  174.0730  142.4720 C   0  0  1  0  0  3  0  0  0  0  0  0
  190.3500  176.6140  146.8560 C   0  0  1  0  0  3  0  0  0  0  0  0
  190.5540  176.2290  143.1570 N   0  0  2  0  0  0  0  0  0  0  0  0
  192.9650  175.1650  145.8350 C   0  0  1  0  0  3  0  0  0  0  0  0
  191.1960  174.2030  141.8020 C   0  0  2  0  0  3  0  0  0  0  0  0
  190.0570  175.1020  142.3460 C   0  0  2  0  0  3  0  0  0  0  0  0
  192.1970  174.9170  147.1280 C   0  0  0  0  0  2  0  0  0  0  0  0
  195.4520  174.9220  145.8000 C   0  0  0  0  0  3  0  0  0  0  0  0
  194.1950  174.3090  145.8000 C   0  0  0  0  0  0  0  0  0  0  0  0
  194.1050  172.9090  145.7630 C   0  0  0  0  0  3  0  0  0  0  0  0
  195.1760  170.7480  145.6860 O   0  0  0  0  0  1  0  0  0  0  0  0
  196.5210  172.7500  145.7230 C   0  0  0  0  0  3  0  0  0  0  0  0
  195.2670  172.1320  145.7240 C   0  0  0  0  0  0  0  0  0  0  0  0
  196.6130  174.1440  145.7610 C   0  0  0  0  0  3  0  0  0  0  0  0
  189.2130  175.5690  141.1380 C   0  0  0  0  0  2  0  0  0  0  0  0
  188.0960  174.6720  140.8020 N   0  0  0  0  0  0  0  0  0  0  0  0
  188.1910  174.2180  138.4110 C   0  0  0  0  0  1  0  0  0  0  0  0
  188.5110  173.6980  139.8000 C   0  0  0  0  0  2  0  0  0  0  0  0
  187.6610  173.9500  141.9910 C   0  0  0  0  0  2  0  0  0  0  0  0
  187.8550  172.4550  141.7980 C   0  0  0  0  0  2  0  0  0  0  0  0
  188.5220  171.9150  142.8980 O   0  0  0  0  0  1  0  0  0  0  0  0
  187.6430  176.5390  145.2150 O   0  0  0  0  0  0  0  0  0  0  0  0
  186.2810  176.7660  144.9080 C   0  0  0  0  0  0  0  0  0  0  0  0
  185.4580  176.4150  145.9680 F   0  0  0  0  0  0  0  0  0  0  0  0
  186.0310  178.2180  144.5230 C   0  0  0  0  0  1  0  0  0  0  0  0
  185.9440  175.9760  143.8270 F   0  0  0  0  0  0  0  0  0  0  0  0
  1 13  1  0  0  0  0
  2  6  1  0  0  0  0
  3  7  1  0  0  0  0
  4  6  1  0  0  0  0
  4  1  1  0  0  0  0
  5  1  1  0  0  0  0
  5  3  1  0  0  0  0
  6 15  1  0  0  0  0
  7 10  1  0  0  0  0
  8  5  1  0  0  0  0
 12 11  1  0  0  0  0
 12  2  1  0  0  0  0
 13 10  1  0  0  0  0
 13  9  1  0  0  0  0
 14  8  1  0  0  0  0
 14  4  1  0  0  0  0
 15 18  1  0  0  0  0
 16 17  1  0  0  0  0
 16 12  1  0  0  0  0
 16 11  1  0  0  0  0
 17 14  1  0  0  0  0
 18  9  1  0  0  0  0
 20 19  1  0  0  0  0
 20 15  1  0  0  0  0
 21 20  2  0  0  0  0
 22 24  1  0  0  0  0
 23 24  2  0  0  0  0
 23 25  1  0  0  0  0
 24 21  1  0  0  0  0
 25 19  2  0  0  0  0
 26 17  1  0  0  0  0
 27 26  1  0  0  0  0
 27 30  1  0  0  0  0
 28 29  1  0  0  0  0
 29 27  1  0  0  0  0
 31 30  1  0  0  0  0
 31 32  1  0  0  0  0
 33  3  1  0  0  0  0
 34 33  1  0  0  0  0
 34 35  1  0  0  0  0
 36 34  1  0  0  0  0
 37 34  1  0  0  0  0
M  END
>  <MODEL>
5

>  <REMARK>
 VINA RESULT:      -6.7      2.999      6.638
  Name = 
  8 active torsions:
  status: ('A' for Active; 'I' for Inactive)
    1  A    between atoms: C_1  and  N_4
    2  A    between atoms: C_1  and  C_27
    3  A    between atoms: C_2  and  O_22
    4  A    between atoms: N_4  and  C_12
    5  A    between atoms: N_4  and  C_37
    6  A    between atoms: C_6  and  O_22
    7  A    between atoms: C_8  and  C_12
    8  A    between atoms: C_23  and  C_30
                            x       y       z     vdW  Elec       q    Type
                         _______ _______ _______ _____ _____    ______ ____

>  <TORSDO>
F 8

$$$$
=
 OpenBabel11112417293D

 37 42  0  0  1  0  0  0  0  0999 V2000
  191.7350  175.4200  143.3210 C   0  0  1  0  0  3  0  0  0  0  0  0
  189.2270  175.3050  140.9600 O   0  0  0  0  0  0  0  0  0  0  0  0
  192.0390  175.9920  145.8010 C   0  0  2  0  0  3  0  0  0  0  0  0
  190.2810  175.0610  143.1050 C   0  0  2  0  0  3  0  0  0  0  0  0
  191.6700  176.5050  144.3920 C   0  0  2  0  0  3  0  0  0  0  0  0
  189.9430  174.3940  141.7570 C   0  0  2  0  0  3  0  0  0  0  0  0
  193.3610  175.1980  145.8000 C   0  0  0  0  0  2  0  0  0  0  0  0
  190.2330  177.0090  144.3510 C   0  0  0  0  0  2  0  0  0  0  0  0
  193.0370  173.4130  142.5450 C   0  0  0  0  0  2  0  0  0  0  0  0
  193.7490  174.6850  144.4810 N   0  0  0  0  0  2  0  0  0  0  0  0
  187.4120  174.2600  142.1360 O   0  0  0  0  0  0  0  0  0  0  0  0
  187.8230  175.1210  141.0940 C   0  0  1  0  0  3  0  0  0  0  0  0
  192.5740  174.2120  143.7550 C   0  0  1  0  0  3  0  0  0  0  0  0
  189.5310  176.3070  143.2720 N   0  0  2  0  0  0  0  0  0  0  0  0
  191.1240  173.7910  140.9800 C   0  0  1  0  0  3  0  0  0  0  0  0
  187.2640  175.6380  142.3960 C   0  0  2  0  0  3  0  0  0  0  0  0
  188.1430  175.9630  143.6300 C   0  0  2  0  0  3  0  0  0  0  0  0
  191.8740  172.7590  141.8150 C   0  0  0  0  0  2  0  0  0  0  0  0
  189.7440  172.1250  139.7290 C   0  0  0  0  0  3  0  0  0  0  0  0
  190.6700  173.1720  139.6930 C   0  0  0  0  0  0  0  0  0  0  0  0
  191.1620  173.6210  138.4570 C   0  0  0  0  0  3  0  0  0  0  0  0
  191.2180  173.4690  136.0500 O   0  0  0  0  0  1  0  0  0  0  0  0
  189.8040  171.9760  137.3120 C   0  0  0  0  0  3  0  0  0  0  0  0
  190.7290  173.0230  137.2700 C   0  0  0  0  0  0  0  0  0  0  0  0
  189.3120  171.5270  138.5410 C   0  0  0  0  0  3  0  0  0  0  0  0
  187.4400  177.0890  144.4210 C   0  0  0  0  0  2  0  0  0  0  0  0
  186.0480  176.7890  144.7900 N   0  0  0  0  0  0  0  0  0  0  0  0
  187.1650  177.3120  146.8900 C   0  0  0  0  0  1  0  0  0  0  0  0
  185.8910  176.8080  146.2390 C   0  0  0  0  0  2  0  0  0  0  0  0
  185.1540  177.7890  144.2190 C   0  0  0  0  0  2  0  0  0  0  0  0
  185.9560  178.9390  143.6340 C   0  0  0  0  0  2  0  0  0  0  0  0
  185.5690  180.1410  144.2280 O   0  0  0  0  0  1  0  0  0  0  0  0
  191.0110  175.1850  146.3310 O   0  0  0  0  0  0  0  0  0  0  0  0
  190.7480  175.5810  147.6630 C   0  0  0  0  0  0  0  0  0  0  0  0
  191.5740  174.9190  148.5610 F   0  0  0  0  0  0  0  0  0  0  0  0
  190.9040  177.0870  147.8380 C   0  0  0  0  0  1  0  0  0  0  0  0
  189.4410  175.2520  147.9640 F   0  0  0  0  0  0  0  0  0  0  0  0
  1 13  1  0  0  0  0
  1  5  1  0  0  0  0
  2 12  1  0  0  0  0
  2  6  1  0  0  0  0
  3 33  1  0  0  0  0
  4 14  1  0  0  0  0
  4  1  1  0  0  0  0
  5  3  1  0  0  0  0
  6  4  1  0  0  0  0
  7  3  1  0  0  0  0
  8  5  1  0  0  0  0
  9 13  1  0  0  0  0
 10  7  1  0  0  0  0
 11 16  1  0  0  0  0
 12 11  1  0  0  0  0
 12 16  1  0  0  0  0
 13 10  1  0  0  0  0
 14 17  1  0  0  0  0
 14  8  1  0  0  0  0
 15  6  1  0  0  0  0
 15 18  1  0  0  0  0
 16 17  1  0  0  0  0
 17 26  1  0  0  0  0
 18  9  1  0  0  0  0
 20 19  1  0  0  0  0
 20 15  1  0  0  0  0
 21 20  2  0  0  0  0
 22 24  1  0  0  0  0
 23 25  1  0  0  0  0
 24 23  2  0  0  0  0
 24 21  1  0  0  0  0
 25 19  2  0  0  0  0
 26 27  1  0  0  0  0
 27 29  1  0  0  0  0
 29 28  1  0  0  0  0
 30 27  1  0  0  0  0
 31 30  1  0  0  0  0
 31 32  1  0  0  0  0
 33 34  1  0  0  0  0
 34 36  1  0  0  0  0
 34 37  1  0  0  0  0
 34 35  1  0  0  0  0
M  END
>  <MODEL>
6

>  <REMARK>
 VINA RESULT:      -6.6      2.501      6.831
  Name = 
  8 active torsions:
  status: ('A' for Active; 'I' for Inactive)
    1  A    between atoms: C_1  and  N_4
    2  A    between atoms: C_1  and  C_27
    3  A    between atoms: C_2  and  O_22
    4  A    between atoms: N_4  and  C_12
    5  A    between atoms: N_4  and  C_37
    6  A    between atoms: C_6  and  O_22
    7  A    between atoms: C_8  and  C_12
    8  A    between atoms: C_23  and  C_30
                            x       y       z     vdW  Elec       q    Type
                         _______ _______ _______ _____ _____    ______ ____

>  <TORSDO>
F 8

$$$$
=
 OpenBabel11112417293D

 37 42  0  0  1  0  0  0  0  0999 V2000
  189.4130  175.3320  145.1300 C   0  0  1  0  0  3  0  0  0  0  0  0
  187.4870  174.5440  142.3820 O   0  0  0  0  0  0  0  0  0  0  0  0
  191.6360  174.6430  146.2010 C   0  0  2  0  0  3  0  0  0  0  0  0
  189.4740  174.9690  143.6610 C   0  0  2  0  0  3  0  0  0  0  0  0
  190.2070  174.2150  145.7980 C   0  0  2  0  0  3  0  0  0  0  0  0
  188.3690  175.5680  142.7690 C   0  0  2  0  0  3  0  0  0  0  0  0
  191.6430  175.9680  146.9880 C   0  0  0  0  0  2  0  0  0  0  0  0
  190.2410  173.0900  144.7720 C   0  0  0  0  0  2  0  0  0  0  0  0
  188.9500  177.8040  145.1810 C   0  0  0  0  0  2  0  0  0  0  0  0
  190.4370  176.7820  146.7990 N   0  0  0  0  0  2  0  0  0  0  0  0
  189.0950  174.4060  140.6030 O   0  0  0  0  0  0  0  0  0  0  0  0
  187.8410  174.0040  141.1140 C   0  0  1  0  0  3  0  0  0  0  0  0
  189.9960  176.7220  145.4090 C   0  0  1  0  0  3  0  0  0  0  0  0
  189.4510  173.5060  143.6090 N   0  0  2  0  0  0  0  0  0  0  0  0
  187.6030  176.7680  143.3480 C   0  0  1  0  0  3  0  0  0  0  0  0
  189.0520  173.1080  141.1520 C   0  0  2  0  0  3  0  0  0  0  0  0
  190.0550  173.0810  142.3330 C   0  0  2  0  0  3  0  0  0  0  0  0
  188.5450  177.9070  143.7190 C   0  0  0  0  0  2  0  0  0  0  0  0
  186.9010  177.4450  141.0460 C   0  0  0  0  0  3  0  0  0  0  0  0
  186.5610  177.2610  142.3900 C   0  0  0  0  0  0  0  0  0  0  0  0
  185.2550  177.5450  142.8200 C   0  0  0  0  0  3  0  0  0  0  0  0
  183.0120  178.2910  142.3380 O   0  0  0  0  0  1  0  0  0  0  0  0
  184.6480  178.1940  140.5680 C   0  0  0  0  0  3  0  0  0  0  0  0
  184.3020  178.0110  141.9100 C   0  0  0  0  0  0  0  0  0  0  0  0
  185.9470  177.9110  140.1370 C   0  0  0  0  0  3  0  0  0  0  0  0
  190.6540  171.6590  142.4070 C   0  0  0  0  0  2  0  0  0  0  0  0
  192.0870  171.5900  142.0790 N   0  0  0  0  0  0  0  0  0  0  0  0
  192.7540  170.3420  144.0600 C   0  0  0  0  0  1  0  0  0  0  0  0
  192.6550  170.3320  142.5470 C   0  0  0  0  0  2  0  0  0  0  0  0
  192.2710  171.6670  140.6340 C   0  0  0  0  0  2  0  0  0  0  0  0
  191.8370  170.3670  139.9790 C   0  0  0  0  0  2  0  0  0  0  0  0
  192.8070  169.9420  139.0710 O   0  0  0  0  0  1  0  0  0  0  0  0
  192.4650  174.7690  145.0670 O   0  0  0  0  0  0  0  0  0  0  0  0
  193.6920  174.1090  145.3110 C   0  0  0  0  0  0  0  0  0  0  0  0
  193.5120  172.9780  146.0940 F   0  0  0  0  0  0  0  0  0  0  0  0
  194.3880  173.7280  144.0110 C   0  0  0  0  0  1  0  0  0  0  0  0
  194.5210  174.9750  145.9980 F   0  0  0  0  0  0  0  0  0  0  0  0
  1 13  1  0  0  0  0
  1  5  1  0  0  0  0
  2  6  1  0  0  0  0
  3  7  1  0  0  0  0
  4  1  1  0  0  0  0
  5  3  1  0  0  0  0
  6 15  1  0  0  0  0
  6  4  1  0  0  0  0
  8  5  1  0  0  0  0
  9 13  1  0  0  0  0
 10  7  1  0  0  0  0
 11 12  1  0  0  0  0
 11 16  1  0  0  0  0
 12 16  1  0  0  0  0
 12  2  1  0  0  0  0
 13 10  1  0  0  0  0
 14  4  1  0  0  0  0
 14  8  1  0  0  0  0
 15 18  1  0  0  0  0
 16 17  1  0  0  0  0
 17 26  1  0  0  0  0
 17 14  1  0  0  0  0
 18  9  1  0  0  0  0
 19 20  1  0  0  0  0
 20 21  2  0  0  0  0
 20 15  1  0  0  0  0
 23 24  2  0  0  0  0
 24 22  1  0  0  0  0
 24 21  1  0  0  0  0
 25 23  1  0  0  0  0
 25 19  2  0  0  0  0
 27 26  1  0  0  0  0
 27 29  1  0  0  0  0
 29 28  1  0  0  0  0
 30 27  1  0  0  0  0
 31 30  1  0  0  0  0
 32 31  1  0  0  0  0
 33 34  1  0  0  0  0
 33  3  1  0  0  0  0
 34 37  1  0  0  0  0
 34 35  1  0  0  0  0
 36 34  1  0  0  0  0
M  END
>  <MODEL>
7

>  <REMARK>
 VINA RESULT:      -6.6      2.217      3.289
  Name = 
  8 active torsions:
  status: ('A' for Active; 'I' for Inactive)
    1  A    between atoms: C_1  and  N_4
    2  A    between atoms: C_1  and  C_27
    3  A    between atoms: C_2  and  O_22
    4  A    between atoms: N_4  and  C_12
    5  A    between atoms: N_4  and  C_37
    6  A    between atoms: C_6  and  O_22
    7  A    between atoms: C_8  and  C_12
    8  A    between atoms: C_23  and  C_30
                            x       y       z     vdW  Elec       q    Type
                         _______ _______ _______ _____ _____    ______ ____

>  <TORSDO>
F 8

$$$$
=
 OpenBabel11112417293D

 37 42  0  0  1  0  0  0  0  0999 V2000
  191.7430  175.3170  143.9610 C   0  0  1  0  0  3  0  0  0  0  0  0
  188.4140  174.7730  143.2520 O   0  0  0  0  0  0  0  0  0  0  0  0
  194.0340  175.0300  142.8490 C   0  0  2  0  0  3  0  0  0  0  0  0
  190.7030  175.3900  142.8640 C   0  0  2  0  0  3  0  0  0  0  0  0
  192.7700  174.3360  143.4020 C   0  0  2  0  0  3  0  0  0  0  0  0
  189.3000  175.8640  143.2930 C   0  0  2  0  0  3  0  0  0  0  0  0
  194.6230  176.0430  143.8500 C   0  0  0  0  0  2  0  0  0  0  0  0
  192.0320  173.5830  142.3020 C   0  0  0  0  0  2  0  0  0  0  0  0
  191.4770  177.4470  145.2710 C   0  0  0  0  0  2  0  0  0  0  0  0
  193.6710  176.5000  144.8690 N   0  0  0  0  0  2  0  0  0  0  0  0
  188.1920  175.5770  141.0000 O   0  0  0  0  0  0  0  0  0  0  0  0
  187.7180  174.7140  142.0140 C   0  0  1  0  0  3  0  0  0  0  0  0
  192.3490  176.6890  144.2800 C   0  0  1  0  0  3  0  0  0  0  0  0
  190.6430  174.0500  142.2780 N   0  0  2  0  0  0  0  0  0  0  0  0
  189.2120  176.5980  144.6410 C   0  0  1  0  0  3  0  0  0  0  0  0
  188.5630  174.2230  140.8650 C   0  0  2  0  0  3  0  0  0  0  0  0
  190.1110  174.1700  140.9080 C   0  0  2  0  0  3  0  0  0  0  0  0
  190.1270  177.8160  144.6760 C   0  0  0  0  0  2  0  0  0  0  0  0
  187.1520  176.4470  146.0480 C   0  0  0  0  0  3  0  0  0  0  0  0
  187.8040  177.0090  144.9450 C   0  0  0  0  0  0  0  0  0  0  0  0
  187.1280  177.9420  144.1410 C   0  0  0  0  0  3  0  0  0  0  0  0
  185.1470  179.2250  143.6450 O   0  0  0  0  0  1  0  0  0  0  0  0
  185.1660  177.7390  145.5450 C   0  0  0  0  0  3  0  0  0  0  0  0
  185.8120  178.3040  144.4420 C   0  0  0  0  0  0  0  0  0  0  0  0
  185.8360  176.8110  146.3480 C   0  0  0  0  0  3  0  0  0  0  0  0
  190.5650  173.0110  139.9930 C   0  0  0  0  0  2  0  0  0  0  0  0
  190.9580  173.4310  138.6390 N   0  0  0  0  0  0  0  0  0  0  0  0
  192.8100  173.8360  137.1110 C   0  0  0  0  0  1  0  0  0  0  0  0
  192.3930  173.2590  138.4500 C   0  0  0  0  0  2  0  0  0  0  0  0
  190.2650  172.6200  137.6450 C   0  0  0  0  0  2  0  0  0  0  0  0
  188.9410  173.2640  137.2700 C   0  0  0  0  0  2  0  0  0  0  0  0
  189.1640  174.5260  136.7180 O   0  0  0  0  0  1  0  0  0  0  0  0
  193.7600  175.6840  141.6290 O   0  0  0  0  0  0  0  0  0  0  0  0
  194.8680  175.5370  140.7630 C   0  0  0  0  0  0  0  0  0  0  0  0
  195.8220  176.5190  140.9890 F   0  0  0  0  0  0  0  0  0  0  0  0
  195.5070  174.1610  140.9040 C   0  0  0  0  0  1  0  0  0  0  0  0
  194.4220  175.6660  139.4620 F   0  0  0  0  0  0  0  0  0  0  0  0
  1 13  1  0  0  0  0
  2  6  1  0  0  0  0
  3  5  1  0  0  0  0
  3  7  1  0  0  0  0
  4  6  1  0  0  0  0
  4  1  1  0  0  0  0
  5  1  1  0  0  0  0
  6 15  1  0  0  0  0
  7 10  1  0  0  0  0
  8  5  1  0  0  0  0
 11 12  1  0  0  0  0
 12  2  1  0  0  0  0
 13 10  1  0  0  0  0
 13  9  1  0  0  0  0
 14  8  1  0  0  0  0
 14  4  1  0  0  0  0
 15 18  1  0  0  0  0
 15 20  1  0  0  0  0
 16 17  1  0  0  0  0
 16 11  1  0  0  0  0
 16 12  1  0  0  0  0
 17 14  1  0  0  0  0
 18  9  1  0  0  0  0
 19 25  1  0  0  0  0
 20 19  2  0  0  0  0
 21 24  2  0  0  0  0
 21 20  1  0  0  0  0
 22 24  1  0  0  0  0
 23 25  2  0  0  0  0
 24 23  1  0  0  0  0
 26 17  1  0  0  0  0
 27 26  1  0  0  0  0
 28 29  1  0  0  0  0
 29 27  1  0  0  0  0
 30 27  1  0  0  0  0
 31 30  1  0  0  0  0
 32 31  1  0  0  0  0
 33  3  1  0  0  0  0
 34 36  1  0  0  0  0
 34 35  1  0  0  0  0
 34 33  1  0  0  0  0
 37 34  1  0  0  0  0
M  END
>  <MODEL>
8

>  <REMARK>
 VINA RESULT:      -6.6      2.051      2.529
  Name = 
  8 active torsions:
  status: ('A' for Active; 'I' for Inactive)
    1  A    between atoms: C_1  and  N_4
    2  A    between atoms: C_1  and  C_27
    3  A    between atoms: C_2  and  O_22
    4  A    between atoms: N_4  and  C_12
    5  A    between atoms: N_4  and  C_37
    6  A    between atoms: C_6  and  O_22
    7  A    between atoms: C_8  and  C_12
    8  A    between atoms: C_23  and  C_30
                            x       y       z     vdW  Elec       q    Type
                         _______ _______ _______ _____ _____    ______ ____

>  <TORSDO>
F 8

$$$$
=
 OpenBabel11112417293D

 37 42  0  0  1  0  0  0  0  0999 V2000
  190.5020  176.1130  144.7690 C   0  0  1  0  0  3  0  0  0  0  0  0
  189.7850  174.9610  141.6000 O   0  0  0  0  0  0  0  0  0  0  0  0
  189.4440  177.5820  146.5830 C   0  0  2  0  0  3  0  0  0  0  0  0
  189.3880  175.6000  143.8810 C   0  0  2  0  0  3  0  0  0  0  0  0
  190.0260  177.5100  145.1530 C   0  0  2  0  0  3  0  0  0  0  0  0
  189.7640  174.4610  142.9140 C   0  0  2  0  0  3  0  0  0  0  0  0
  190.3820  176.9360  147.6220 C   0  0  0  0  0  2  0  0  0  0  0  0
  188.9690  177.8640  144.1140 C   0  0  0  0  0  2  0  0  0  0  0  0
  191.6590  174.0540  145.6340 C   0  0  0  0  0  2  0  0  0  0  0  0
  191.3540  175.9980  147.0490 N   0  0  0  0  0  2  0  0  0  0  0  0
  187.4810  174.3040  141.7610 O   0  0  0  0  0  0  0  0  0  0  0  0
  188.5440  174.7450  140.9410 C   0  0  1  0  0  3  0  0  0  0  0  0
  190.7350  175.2110  145.9870 C   0  0  1  0  0  3  0  0  0  0  0  0
  188.8940  176.7660  143.1460 N   0  0  2  0  0  0  0  0  0  0  0  0
  191.0570  173.6950  143.2340 C   0  0  1  0  0  3  0  0  0  0  0  0
  187.4430  175.6670  141.4010 C   0  0  2  0  0  3  0  0  0  0  0  0
  187.5120  176.4850  142.7150 C   0  0  2  0  0  3  0  0  0  0  0  0
  191.0220  173.0990  144.6370 C   0  0  0  0  0  2  0  0  0  0  0  0
  192.1200  172.8910  141.1200 C   0  0  0  0  0  3  0  0  0  0  0  0
  191.3130  172.6130  142.2280 C   0  0  0  0  0  0  0  0  0  0  0  0
  190.7540  171.3340  142.3770 C   0  0  0  0  0  3  0  0  0  0  0  0
  190.4470  169.0810  141.5710 O   0  0  0  0  0  1  0  0  0  0  0  0
  191.8080  170.6280  140.3150 C   0  0  0  0  0  3  0  0  0  0  0  0
  191.0010  170.3450  141.4220 C   0  0  0  0  0  0  0  0  0  0  0  0
  192.3670  171.9000  140.1650 C   0  0  0  0  0  3  0  0  0  0  0  0
  186.6840  177.7740  142.5070 C   0  0  0  0  0  2  0  0  0  0  0  0
  185.2290  177.5580  142.4820 N   0  0  0  0  0  0  0  0  0  0  0  0
  185.4390  179.5610  143.8520 C   0  0  0  0  0  1  0  0  0  0  0  0
  184.5800  178.3580  143.5140 C   0  0  0  0  0  2  0  0  0  0  0  0
  184.6890  177.9550  141.1880 C   0  0  0  0  0  2  0  0  0  0  0  0
  183.2130  178.2930  141.3150 C   0  0  0  0  0  2  0  0  0  0  0  0
  182.5330  177.9070  140.1590 O   0  0  0  0  0  1  0  0  0  0  0  0
  188.1790  176.9610  146.6460 O   0  0  0  0  0  0  0  0  0  0  0  0
  187.2430  177.8650  147.1990 C   0  0  0  0  0  0  0  0  0  0  0  0
  186.6940  178.6850  146.2240 F   0  0  0  0  0  0  0  0  0  0  0  0
  186.1310  177.1330  147.9390 C   0  0  0  0  0  1  0  0  0  0  0  0
  187.9020  178.6680  148.1100 F   0  0  0  0  0  0  0  0  0  0  0  0
  1  5  1  0  0  0  0
  1 13  1  0  0  0  0
  2  6  1  0  0  0  0
  3 33  1  0  0  0  0
  3  7  1  0  0  0  0
  4  1  1  0  0  0  0
  5  3  1  0  0  0  0
  6 15  1  0  0  0  0
  6  4  1  0  0  0  0
  8  5  1  0  0  0  0
  9 13  1  0  0  0  0
 10  7  1  0  0  0  0
 12 16  1  0  0  0  0
 12  2  1  0  0  0  0
 12 11  1  0  0  0  0
 13 10  1  0  0  0  0
 14  4  1  0  0  0  0
 14  8  1  0  0  0  0
 15 18  1  0  0  0  0
 16 11  1  0  0  0  0
 16 17  1  0  0  0  0
 17 14  1  0  0  0  0
 18  9  1  0  0  0  0
 19 20  1  0  0  0  0
 20 21  2  0  0  0  0
 20 15  1  0  0  0  0
 23 24  2  0  0  0  0
 24 22  1  0  0  0  0
 24 21  1  0  0  0  0
 25 23  1  0  0  0  0
 25 19  2  0  0  0  0
 26 17  1  0  0  0  0
 27 26  1  0  0  0  0
 27 29  1  0  0  0  0
 29 28  1  0  0  0  0
 30 31  1  0  0  0  0
 30 27  1  0  0  0  0
 32 31  1  0  0  0  0
 33 34  1  0  0  0  0
 34 36  1  0  0  0  0
 34 37  1  0  0  0  0
 35 34  1  0  0  0  0
M  END
>  <MODEL>
9

>  <REMARK>
 VINA RESULT:      -6.5      3.079      7.091
  Name = 
  8 active torsions:
  status: ('A' for Active; 'I' for Inactive)
    1  A    between atoms: C_1  and  N_4
    2  A    between atoms: C_1  and  C_27
    3  A    between atoms: C_2  and  O_22
    4  A    between atoms: N_4  and  C_12
    5  A    between atoms: N_4  and  C_37
    6  A    between atoms: C_6  and  O_22
    7  A    between atoms: C_8  and  C_12
    8  A    between atoms: C_23  and  C_30
                            x       y       z     vdW  Elec       q    Type
                         _______ _______ _______ _____ _____    ______ ____

>  <TORSDO>
F 8

$$$$
