=
 OpenBabel11112417103D

 37 43  0  0  1  0  0  0  0  0999 V2000
  193.5510  175.2950  143.1860 C   0  0  0  0  0  2  0  0  0  0  0  0
  190.7500  170.7610  142.0290 C   0  0  0  0  0  0  0  0  0  0  0  0
  190.2860  174.8270  142.1450 C   0  0  1  0  0  3  0  0  0  0  0  0
  195.0760  175.4650  143.1470 C   0  0  2  0  0  3  0  0  0  0  0  0
  191.3660  176.3200  145.5930 C   0  0  0  0  0  2  0  0  0  0  0  0
  190.0270  172.7030  140.7270 C   0  0  0  0  0  0  0  0  0  0  0  0
  190.5200  174.8410  143.6560 C   0  0  2  0  0  3  0  0  0  0  0  0
  195.1390  176.2360  145.6410 C   0  0  2  0  0  3  0  0  0  0  0  0
  190.9440  173.5560  141.5910 C   0  0  2  0  0  3  0  0  0  0  0  0
  190.8150  176.2740  144.1740 C   0  0  1  0  0  3  0  0  0  0  0  0
  189.0590  173.3560  139.7810 C   0  0  0  0  0  2  0  0  0  0  0  0
  195.7780  175.4090  144.5130 C   0  0  0  0  0  2  0  0  0  0  0  0
  191.5590  172.7870  142.7680 C   0  0  2  0  0  3  0  0  0  0  0  0
  192.0210  170.4530  141.5590 F   0  0  0  0  0  0  0  0  0  0  0  0
  188.0770  176.1970  142.1870 C   0  0  0  0  0  2  0  0  0  0  0  0
  188.6980  174.7820  140.2170 C   0  0  0  0  0  2  0  0  0  0  0  0
  190.8140  171.6430  143.1330 O   0  0  0  0  0  0  0  0  0  0  0  0
  193.6950  175.8450  146.0260 C   0  0  1  0  0  3  0  0  0  0  0  0
  192.7260  176.8350  145.5340 N   0  0  0  0  0  2  0  0  0  0  0  0
  188.8030  174.9360  141.7330 C   0  0  1  0  0  3  0  0  0  0  0  0
  191.6030  173.7590  143.9290 C   0  0  1  0  0  3  0  0  0  0  0  0
  189.9320  171.3880  140.9390 C   0  0  0  0  0  3  0  0  0  0  0  0
  189.6590  177.2780  144.0480 C   0  0  1  0  0  3  0  0  0  0  0  0
  190.1340  169.5890  142.4250 F   0  0  0  0  0  0  0  0  0  0  0  0
  193.3670  174.3910  145.6270 C   0  0  0  0  0  2  0  0  0  0  0  0
  195.2770  177.6070  145.4050 O   0  0  0  0  0  1  0  0  0  0  0  0
  193.0670  174.1860  144.1340 C   0  0  2  0  0  3  0  0  0  0  0  0
  189.1560  177.6560  142.3290 S   0  0  0  0  0  0  0  0  0  0  0  0
  188.6040  176.1430  146.0160 C   0  0  0  0  0  3  0  0  0  0  0  0
  188.5120  177.1130  145.0120 C   0  0  0  0  0  0  0  0  0  0  0  0
  187.3690  177.9260  144.9410 C   0  0  0  0  0  3  0  0  0  0  0  0
  185.1220  178.6220  145.7760 C   0  0  0  0  0  1  0  0  0  0  0  0
  186.4260  176.7850  146.8560 C   0  0  0  0  0  3  0  0  0  0  0  0
  186.3300  177.7600  145.8590 C   0  0  0  0  0  0  0  0  0  0  0  0
  187.5640  175.9770  146.9350 C   0  0  0  0  0  3  0  0  0  0  0  0
  196.1920  176.6770  141.3190 C   0  0  0  0  0  2  0  0  0  0  0  0
  195.4460  176.7180  142.4200 C   0  0  0  0  0  3  0  0  0  0  0  0
  1 27  1  0  0  0  0
  2 24  1  0  0  0  0
  2 17  1  0  0  0  0
  3  7  1  0  0  0  0
  4  1  1  0  0  0  0
  4 12  1  0  0  0  0
  6 22  2  0  0  0  0
  6  9  1  0  0  0  0
  7 21  1  0  0  0  0
  7 10  1  0  0  0  0
  8 18  1  0  0  0  0
  9  3  1  0  0  0  0
  9 13  1  0  0  0  0
 10  5  1  0  0  0  0
 11 16  1  0  0  0  0
 11  6  1  0  0  0  0
 12  8  1  0  0  0  0
 13 17  1  0  0  0  0
 13 21  1  0  0  0  0
 14  2  1  0  0  0  0
 15 28  1  0  0  0  0
 16 20  1  0  0  0  0
 19  5  1  0  0  0  0
 19 18  1  0  0  0  0
 20  3  1  0  0  0  0
 20 15  1  0  0  0  0
 21 27  1  0  0  0  0
 22  2  1  0  0  0  0
 23 10  1  0  0  0  0
 23 30  1  0  0  0  0
 25 18  1  0  0  0  0
 26  8  1  0  0  0  0
 27 25  1  0  0  0  0
 28 23  1  0  0  0  0
 29 35  1  0  0  0  0
 30 29  2  0  0  0  0
 31 30  1  0  0  0  0
 31 34  2  0  0  0  0
 32 34  1  0  0  0  0
 33 35  2  0  0  0  0
 34 33  1  0  0  0  0
 36 37  2  0  0  0  0
 37  4  1  0  0  0  0
M  END
>  <MODEL>
1

>  <REMARK>
 VINA RESULT:      -8.6      0.000      0.000
  Name = 
  2 active torsions:
  status: ('A' for Active; 'I' for Inactive)
    1  A    between atoms: C_4  and  C_37
    2  A    between atoms: C_23  and  C_30
                            x       y       z     vdW  Elec       q    Type
                         _______ _______ _______ _____ _____    ______ ____

>  <TORSDO>
F 2

$$$$
=
 OpenBabel11112417103D

 37 43  0  0  1  0  0  0  0  0999 V2000
  192.7340  172.0160  143.1650 C   0  0  0  0  0  2  0  0  0  0  0  0
  196.0460  176.3480  143.1410 C   0  0  0  0  0  0  0  0  0  0  0  0
  192.4720  175.1030  144.7030 C   0  0  1  0  0  3  0  0  0  0  0  0
  193.1310  170.5580  142.8970 C   0  0  2  0  0  3  0  0  0  0  0  0
  190.0660  173.7470  141.9370 C   0  0  0  0  0  2  0  0  0  0  0  0
  194.7740  176.1150  145.2190 C   0  0  0  0  0  0  0  0  0  0  0  0
  191.8660  174.9890  143.3040 C   0  0  2  0  0  3  0  0  0  0  0  0
  191.4010  170.3560  140.9500 C   0  0  2  0  0  3  0  0  0  0  0  0
  193.9960  174.9900  144.5530 C   0  0  2  0  0  3  0  0  0  0  0  0
  190.5500  174.1670  143.3180 C   0  0  1  0  0  3  0  0  0  0  0  0
  194.3270  176.6600  146.5460 C   0  0  0  0  0  2  0  0  0  0  0  0
  192.8070  170.0380  141.4870 C   0  0  0  0  0  2  0  0  0  0  0  0
  194.3160  174.8300  143.0610 C   0  0  2  0  0  3  0  0  0  0  0  0
  196.9440  175.2880  143.1360 F   0  0  0  0  0  0  0  0  0  0  0  0
  190.5670  176.5490  145.7220 C   0  0  0  0  0  2  0  0  0  0  0  0
  192.8290  176.4310  146.7890 C   0  0  0  0  0  2  0  0  0  0  0  0
  194.8450  176.0040  142.4770 O   0  0  0  0  0  0  0  0  0  0  0  0
  191.0600  171.8560  140.8070 C   0  0  1  0  0  3  0  0  0  0  0  0
  190.1300  172.2940  141.8580 N   0  0  0  0  0  2  0  0  0  0  0  0
  192.0600  176.3770  145.4700 C   0  0  1  0  0  3  0  0  0  0  0  0
  193.0080  174.4710  142.3860 C   0  0  1  0  0  3  0  0  0  0  0  0
  195.7350  176.7580  144.5500 C   0  0  0  0  0  3  0  0  0  0  0  0
  189.3810  174.7950  144.0930 C   0  0  1  0  0  3  0  0  0  0  0  0
  196.6290  177.4180  142.4890 F   0  0  0  0  0  0  0  0  0  0  0  0
  192.3290  172.7250  140.6870 C   0  0  0  0  0  2  0  0  0  0  0  0
  190.4190  169.6500  141.6520 O   0  0  0  0  0  1  0  0  0  0  0  0
  193.0630  172.9790  142.0120 C   0  0  2  0  0  3  0  0  0  0  0  0
  189.6640  174.9770  145.8920 S   0  0  0  0  0  0  0  0  0  0  0  0
  189.4490  176.8420  142.6520 C   0  0  0  0  0  3  0  0  0  0  0  0
  188.6960  175.9720  143.4470 C   0  0  0  0  0  0  0  0  0  0  0  0
  187.3190  176.1980  143.6030 C   0  0  0  0  0  3  0  0  0  0  0  0
  185.2510  177.5220  143.1510 C   0  0  0  0  0  1  0  0  0  0  0  0
  187.4690  178.1570  142.1900 C   0  0  0  0  0  3  0  0  0  0  0  0
  186.7090  177.2880  142.9780 C   0  0  0  0  0  0  0  0  0  0  0  0
  188.8390  177.9340  142.0260 C   0  0  0  0  0  3  0  0  0  0  0  0
  193.3180  168.8470  144.6560 C   0  0  0  0  0  2  0  0  0  0  0  0
  192.5450  169.6550  143.9350 C   0  0  0  0  0  3  0  0  0  0  0  0
  2 22  1  0  0  0  0
  3 20  1  0  0  0  0
  4  1  1  0  0  0  0
  4 37  1  0  0  0  0
  5 10  1  0  0  0  0
  6 11  1  0  0  0  0
  7 10  1  0  0  0  0
  7  3  1  0  0  0  0
  8 12  1  0  0  0  0
  8 26  1  0  0  0  0
  9  3  1  0  0  0  0
  9  6  1  0  0  0  0
 10 23  1  0  0  0  0
 11 16  1  0  0  0  0
 12  4  1  0  0  0  0
 13  9  1  0  0  0  0
 14  2  1  0  0  0  0
 15 28  1  0  0  0  0
 17 13  1  0  0  0  0
 17  2  1  0  0  0  0
 18  8  1  0  0  0  0
 18 19  1  0  0  0  0
 19  5  1  0  0  0  0
 20 15  1  0  0  0  0
 20 16  1  0  0  0  0
 21 13  1  0  0  0  0
 21  7  1  0  0  0  0
 22  6  2  0  0  0  0
 23 28  1  0  0  0  0
 24  2  1  0  0  0  0
 25 18  1  0  0  0  0
 25 27  1  0  0  0  0
 27 21  1  0  0  0  0
 27  1  1  0  0  0  0
 29 30  1  0  0  0  0
 30 31  2  0  0  0  0
 30 23  1  0  0  0  0
 33 34  2  0  0  0  0
 34 32  1  0  0  0  0
 34 31  1  0  0  0  0
 35 33  1  0  0  0  0
 35 29  2  0  0  0  0
 37 36  2  0  0  0  0
M  END
>  <MODEL>
2

>  <REMARK>
 VINA RESULT:      -8.6      2.879      5.910
  Name = 
  2 active torsions:
  status: ('A' for Active; 'I' for Inactive)
    1  A    between atoms: C_4  and  C_37
    2  A    between atoms: C_23  and  C_30
                            x       y       z     vdW  Elec       q    Type
                         _______ _______ _______ _____ _____    ______ ____

>  <TORSDO>
F 2

$$$$
=
 OpenBabel11112417103D

 37 43  0  0  1  0  0  0  0  0999 V2000
  191.6290  173.0860  141.6820 C   0  0  0  0  0  2  0  0  0  0  0  0
  189.6030  174.5680  146.5230 C   0  0  0  0  0  0  0  0  0  0  0  0
  193.1890  174.0150  144.6270 C   0  0  1  0  0  3  0  0  0  0  0  0
  190.9200  173.1790  140.3250 C   0  0  2  0  0  3  0  0  0  0  0  0
  193.4270  170.4870  142.9600 C   0  0  0  0  0  2  0  0  0  0  0  0
  191.7470  175.6280  146.0070 C   0  0  0  0  0  0  0  0  0  0  0  0
  192.9010  172.5230  144.4530 C   0  0  2  0  0  3  0  0  0  0  0  0
  191.2400  170.6250  139.8860 C   0  0  2  0  0  3  0  0  0  0  0  0
  191.8380  174.7260  144.7860 C   0  0  2  0  0  3  0  0  0  0  0  0
  193.8550  171.8750  143.4140 C   0  0  1  0  0  3  0  0  0  0  0  0
  192.9300  176.4560  146.4240 C   0  0  0  0  0  2  0  0  0  0  0  0
  190.3290  171.8610  139.8010 C   0  0  0  0  0  2  0  0  0  0  0  0
  190.7320  173.6640  144.7300 C   0  0  2  0  0  3  0  0  0  0  0  0
  188.6910  175.1260  145.6370 F   0  0  0  0  0  0  0  0  0  0  0  0
  195.5460  173.7290  145.6860 C   0  0  0  0  0  2  0  0  0  0  0  0
  194.2550  175.8600  145.9300 C   0  0  0  0  0  2  0  0  0  0  0  0
  190.1690  173.3830  145.9970 O   0  0  0  0  0  0  0  0  0  0  0  0
  191.6850  170.2150  141.3080 C   0  0  1  0  0  3  0  0  0  0  0  0
  193.0950  170.5560  141.5440 N   0  0  0  0  0  2  0  0  0  0  0  0
  194.1540  174.3430  145.7850 C   0  0  1  0  0  3  0  0  0  0  0  0
  191.3760  172.4130  144.1700 C   0  0  1  0  0  3  0  0  0  0  0  0
  190.6960  175.5480  146.8280 C   0  0  0  0  0  3  0  0  0  0  0  0
  195.3410  171.8430  143.8050 C   0  0  1  0  0  3  0  0  0  0  0  0
  188.9410  174.2650  147.6980 F   0  0  0  0  0  0  0  0  0  0  0  0
  190.7190  170.7450  142.3880 C   0  0  0  0  0  2  0  0  0  0  0  0
  192.3150  170.7260  138.9980 O   0  0  0  0  0  1  0  0  0  0  0  0
  190.8850  172.2350  142.7230 C   0  0  2  0  0  3  0  0  0  0  0  0
  196.1240  173.4880  143.9770 S   0  0  0  0  0  0  0  0  0  0  0  0
  197.0890  170.4990  144.9940 C   0  0  0  0  0  3  0  0  0  0  0  0
  195.7400  170.8480  144.8640 C   0  0  0  0  0  0  0  0  0  0  0  0
  194.7950  170.2850  145.7370 C   0  0  0  0  0  3  0  0  0  0  0  0
  194.1910  168.7830  147.6380 C   0  0  0  0  0  1  0  0  0  0  0  0
  196.5470  169.0290  146.8400 C   0  0  0  0  0  3  0  0  0  0  0  0
  195.1980  169.3770  146.7200 C   0  0  0  0  0  0  0  0  0  0  0  0
  197.4920  169.5910  145.9770 C   0  0  0  0  0  3  0  0  0  0  0  0
  193.0720  174.1330  139.6070 C   0  0  0  0  0  2  0  0  0  0  0  0
  191.8230  173.7910  139.3020 C   0  0  0  0  0  3  0  0  0  0  0  0
  1 27  1  0  0  0  0
  2 22  1  0  0  0  0
  2 24  1  0  0  0  0
  3  9  1  0  0  0  0
  3 20  1  0  0  0  0
  4  1  1  0  0  0  0
  5 10  1  0  0  0  0
  6 11  1  0  0  0  0
  6 22  2  0  0  0  0
  7  3  1  0  0  0  0
  8 18  1  0  0  0  0
  9  6  1  0  0  0  0
 10 23  1  0  0  0  0
 10  7  1  0  0  0  0
 12  8  1  0  0  0  0
 12  4  1  0  0  0  0
 13  9  1  0  0  0  0
 13 17  1  0  0  0  0
 14  2  1  0  0  0  0
 15 20  1  0  0  0  0
 16 11  1  0  0  0  0
 17  2  1  0  0  0  0
 18 19  1  0  0  0  0
 18 25  1  0  0  0  0
 19  5  1  0  0  0  0
 20 16  1  0  0  0  0
 21  7  1  0  0  0  0
 21 13  1  0  0  0  0
 23 28  1  0  0  0  0
 23 30  1  0  0  0  0
 25 27  1  0  0  0  0
 26  8  1  0  0  0  0
 27 21  1  0  0  0  0
 28 15  1  0  0  0  0
 29 35  1  0  0  0  0
 30 29  2  0  0  0  0
 30 31  1  0  0  0  0
 31 34  2  0  0  0  0
 34 33  1  0  0  0  0
 34 32  1  0  0  0  0
 35 33  2  0  0  0  0
 37 36  2  0  0  0  0
 37  4  1  0  0  0  0
M  END
>  <MODEL>
3

>  <REMARK>
 VINA RESULT:      -8.3      3.786      7.673
  Name = 
  2 active torsions:
  status: ('A' for Active; 'I' for Inactive)
    1  A    between atoms: C_4  and  C_37
    2  A    between atoms: C_23  and  C_30
                            x       y       z     vdW  Elec       q    Type
                         _______ _______ _______ _____ _____    ______ ____

>  <TORSDO>
F 2

$$$$
=
 OpenBabel11112417103D

 37 43  0  0  1  0  0  0  0  0999 V2000
  189.6420  175.1140  144.5960 C   0  0  0  0  0  2  0  0  0  0  0  0
  189.5420  172.7430  139.6860 C   0  0  0  0  0  0  0  0  0  0  0  0
  191.7170  172.7510  143.1550 C   0  0  1  0  0  3  0  0  0  0  0  0
  188.4530  175.7430  145.3340 C   0  0  2  0  0  3  0  0  0  0  0  0
  192.7890  176.3630  144.1950 C   0  0  0  0  0  2  0  0  0  0  0  0
  190.4750  171.3070  141.4340 C   0  0  0  0  0  0  0  0  0  0  0  0
  192.1060  174.2150  142.9420 C   0  0  2  0  0  3  0  0  0  0  0  0
  189.6830  178.0380  145.5360 C   0  0  2  0  0  3  0  0  0  0  0  0
  190.4200  172.5040  142.3710 C   0  0  2  0  0  3  0  0  0  0  0  0
  192.6790  174.8460  144.2400 C   0  0  1  0  0  3  0  0  0  0  0  0
  191.1870  170.0520  141.8530 C   0  0  0  0  0  2  0  0  0  0  0  0
  188.3740  177.2760  145.2660 C   0  0  0  0  0  2  0  0  0  0  0  0
  190.0340  173.8110  141.6660 C   0  0  2  0  0  3  0  0  0  0  0  0
  188.1910  172.8620  139.9860 F   0  0  0  0  0  0  0  0  0  0  0  0
  194.1310  171.8680  143.5460 C   0  0  0  0  0  2  0  0  0  0  0  0
  192.2630  170.3260  142.9120 C   0  0  0  0  0  2  0  0  0  0  0  0
  190.2900  173.7890  140.2760 O   0  0  0  0  0  0  0  0  0  0  0  0
  190.8430  177.7500  144.5580 C   0  0  1  0  0  3  0  0  0  0  0  0
  191.8750  176.9130  145.1870 N   0  0  0  0  0  2  0  0  0  0  0  0
  192.8210  171.7410  142.7770 C   0  0  1  0  0  3  0  0  0  0  0  0
  190.8590  174.9010  142.3190 C   0  0  1  0  0  3  0  0  0  0  0  0
  190.0660  171.4240  140.1680 C   0  0  0  0  0  3  0  0  0  0  0  0
  194.0100  174.2570  144.7340 C   0  0  1  0  0  3  0  0  0  0  0  0
  189.6920  172.8030  138.3140 F   0  0  0  0  0  0  0  0  0  0  0  0
  190.3340  177.2110  143.2050 C   0  0  0  0  0  2  0  0  0  0  0  0
  190.0710  177.9200  146.8740 O   0  0  0  0  0  1  0  0  0  0  0  0
  189.9220  175.7310  143.2150 C   0  0  2  0  0  3  0  0  0  0  0  0
  193.9300  172.5010  145.2410 S   0  0  0  0  0  0  0  0  0  0  0  0
  196.4880  174.5940  144.5920 C   0  0  0  0  0  3  0  0  0  0  0  0
  195.2440  174.6260  143.9520 C   0  0  0  0  0  0  0  0  0  0  0  0
  195.1770  174.9740  142.5930 C   0  0  0  0  0  3  0  0  0  0  0  0
  196.2600  175.6660  140.4520 C   0  0  0  0  0  1  0  0  0  0  0  0
  197.5790  175.2670  142.5370 C   0  0  0  0  0  3  0  0  0  0  0  0
  196.3400  175.2950  141.8900 C   0  0  0  0  0  0  0  0  0  0  0  0
  197.6520  174.9160  143.8880 C   0  0  0  0  0  3  0  0  0  0  0  0
  189.3960  174.5410  147.2630 C   0  0  0  0  0  2  0  0  0  0  0  0
  188.4130  175.2800  146.7550 C   0  0  0  0  0  3  0  0  0  0  0  0
  1  4  1  0  0  0  0
  2 14  1  0  0  0  0
  2 22  1  0  0  0  0
  2 17  1  0  0  0  0
  4 37  1  0  0  0  0
  5 10  1  0  0  0  0
  5 19  1  0  0  0  0
  6 11  1  0  0  0  0
  6  9  1  0  0  0  0
  7  3  1  0  0  0  0
  7 10  1  0  0  0  0
  8 26  1  0  0  0  0
  9  3  1  0  0  0  0
 10 23  1  0  0  0  0
 11 16  1  0  0  0  0
 12  4  1  0  0  0  0
 12  8  1  0  0  0  0
 13 21  1  0  0  0  0
 13  9  1  0  0  0  0
 15 28  1  0  0  0  0
 17 13  1  0  0  0  0
 18 19  1  0  0  0  0
 18  8  1  0  0  0  0
 20 16  1  0  0  0  0
 20  3  1  0  0  0  0
 20 15  1  0  0  0  0
 21  7  1  0  0  0  0
 21 27  1  0  0  0  0
 22  6  2  0  0  0  0
 23 28  1  0  0  0  0
 24  2  1  0  0  0  0
 25 27  1  0  0  0  0
 25 18  1  0  0  0  0
 27  1  1  0  0  0  0
 30 29  1  0  0  0  0
 30 23  1  0  0  0  0
 31 30  2  0  0  0  0
 32 34  1  0  0  0  0
 33 35  1  0  0  0  0
 34 33  2  0  0  0  0
 34 31  1  0  0  0  0
 35 29  2  0  0  0  0
 37 36  2  0  0  0  0
M  END
>  <MODEL>
4

>  <REMARK>
 VINA RESULT:      -8.3      2.420      6.301
  Name = 
  2 active torsions:
  status: ('A' for Active; 'I' for Inactive)
    1  A    between atoms: C_4  and  C_37
    2  A    between atoms: C_23  and  C_30
                            x       y       z     vdW  Elec       q    Type
                         _______ _______ _______ _____ _____    ______ ____

>  <TORSDO>
F 2

$$$$
=
 OpenBabel11112417103D

 37 43  0  0  1  0  0  0  0  0999 V2000
  195.3860  173.6120  142.6030 C   0  0  0  0  0  2  0  0  0  0  0  0
  194.0840  168.9230  145.0650 C   0  0  0  0  0  0  0  0  0  0  0  0
  192.3550  171.9860  142.9690 C   0  0  1  0  0  3  0  0  0  0  0  0
  196.7640  174.0060  142.0530 C   0  0  2  0  0  3  0  0  0  0  0  0
  193.2440  175.4760  144.4880 C   0  0  0  0  0  2  0  0  0  0  0  0
  192.6480  169.4430  143.1530 C   0  0  0  0  0  0  0  0  0  0  0  0
  192.7250  172.9860  144.0650 C   0  0  2  0  0  3  0  0  0  0  0  0
  196.8300  176.1610  143.5280 C   0  0  2  0  0  3  0  0  0  0  0  0
  193.3260  170.8030  143.0810 C   0  0  2  0  0  3  0  0  0  0  0  0
  192.5960  174.4500  143.5690 C   0  0  1  0  0  3  0  0  0  0  0  0
  191.4310  169.1610  142.3170 C   0  0  0  0  0  2  0  0  0  0  0  0
  197.5820  174.9510  142.9470 C   0  0  0  0  0  2  0  0  0  0  0  0
  194.2710  171.0730  144.2590 C   0  0  2  0  0  3  0  0  0  0  0  0
  195.3310  168.6380  144.5250 F   0  0  0  0  0  0  0  0  0  0  0  0
  189.8400  172.6290  142.8340 C   0  0  0  0  0  2  0  0  0  0  0  0
  190.6780  170.4450  141.9430 C   0  0  0  0  0  2  0  0  0  0  0  0
  193.9730  170.2930  145.4010 O   0  0  0  0  0  0  0  0  0  0  0  0
  195.6340  175.8310  144.4480 C   0  0  1  0  0  3  0  0  0  0  0  0
  194.3540  176.0890  143.7720 N   0  0  0  0  0  2  0  0  0  0  0  0
  190.8810  171.5290  142.9990 C   0  0  1  0  0  3  0  0  0  0  0  0
  194.1190  172.5430  144.5930 C   0  0  1  0  0  3  0  0  0  0  0  0
  193.0020  168.5610  144.0920 C   0  0  0  0  0  3  0  0  0  0  0  0
  191.1720  174.9120  143.2200 C   0  0  1  0  0  3  0  0  0  0  0  0
  193.9190  168.1660  146.2090 F   0  0  0  0  0  0  0  0  0  0  0  0
  195.7500  174.4180  145.0580 C   0  0  0  0  0  2  0  0  0  0  0  0
  196.4960  177.0770  142.5260 O   0  0  0  0  0  1  0  0  0  0  0  0
  195.3820  173.2730  144.1020 C   0  0  2  0  0  3  0  0  0  0  0  0
  190.4030  174.0280  141.8150 S   0  0  0  0  0  0  0  0  0  0  0  0
  190.3190  174.3480  145.5070 C   0  0  0  0  0  3  0  0  0  0  0  0
  190.2430  175.1720  144.3790 C   0  0  0  0  0  0  0  0  0  0  0  0
  189.3250  176.2330  144.3600 C   0  0  0  0  0  3  0  0  0  0  0  0
  187.5170  177.5840  145.4280 C   0  0  0  0  0  1  0  0  0  0  0  0
  188.5660  175.6290  146.5780 C   0  0  0  0  0  3  0  0  0  0  0  0
  188.4880  176.4600  145.4560 C   0  0  0  0  0  0  0  0  0  0  0  0
  189.4820  174.5740  146.6030 C   0  0  0  0  0  3  0  0  0  0  0  0
  195.4440  174.7290  140.1060 C   0  0  0  0  0  2  0  0  0  0  0  0
  196.6360  174.5710  140.6750 C   0  0  0  0  0  3  0  0  0  0  0  0
  1 27  1  0  0  0  0
  2 17  1  0  0  0  0
  2 24  1  0  0  0  0
  3 20  1  0  0  0  0
  3  9  1  0  0  0  0
  3  7  1  0  0  0  0
  4  1  1  0  0  0  0
  4 12  1  0  0  0  0
  6 22  2  0  0  0  0
  7 21  1  0  0  0  0
  8 18  1  0  0  0  0
  9  6  1  0  0  0  0
  9 13  1  0  0  0  0
 10  7  1  0  0  0  0
 10  5  1  0  0  0  0
 11  6  1  0  0  0  0
 12  8  1  0  0  0  0
 13 21  1  0  0  0  0
 13 17  1  0  0  0  0
 14  2  1  0  0  0  0
 15 20  1  0  0  0  0
 16 11  1  0  0  0  0
 16 20  1  0  0  0  0
 18 25  1  0  0  0  0
 19 18  1  0  0  0  0
 19  5  1  0  0  0  0
 22  2  1  0  0  0  0
 23 10  1  0  0  0  0
 23 30  1  0  0  0  0
 26  8  1  0  0  0  0
 27 21  1  0  0  0  0
 27 25  1  0  0  0  0
 28 15  1  0  0  0  0
 28 23  1  0  0  0  0
 29 35  1  0  0  0  0
 30 29  2  0  0  0  0
 31 30  1  0  0  0  0
 31 34  2  0  0  0  0
 32 34  1  0  0  0  0
 33 35  2  0  0  0  0
 34 33  1  0  0  0  0
 36 37  2  0  0  0  0
 37  4  1  0  0  0  0
M  END
>  <MODEL>
5

>  <REMARK>
 VINA RESULT:      -8.3      2.486      3.485
  Name = 
  2 active torsions:
  status: ('A' for Active; 'I' for Inactive)
    1  A    between atoms: C_4  and  C_37
    2  A    between atoms: C_23  and  C_30
                            x       y       z     vdW  Elec       q    Type
                         _______ _______ _______ _____ _____    ______ ____

>  <TORSDO>
F 2

$$$$
=
 OpenBabel11112417103D

 37 43  0  0  1  0  0  0  0  0999 V2000
  191.2090  176.3880  144.2980 C   0  0  0  0  0  2  0  0  0  0  0  0
  196.5940  176.1600  143.4670 C   0  0  0  0  0  0  0  0  0  0  0  0
  193.0860  174.7310  141.9110 C   0  0  1  0  0  3  0  0  0  0  0  0
  190.4400  177.5010  145.0230 C   0  0  2  0  0  3  0  0  0  0  0  0
  190.8760  173.0130  144.6390 C   0  0  0  0  0  2  0  0  0  0  0  0
  195.2880  175.9510  141.4080 C   0  0  0  0  0  0  0  0  0  0  0  0
  192.7940  173.9600  143.1990 C   0  0  2  0  0  3  0  0  0  0  0  0
  189.4130  175.8010  146.7200 C   0  0  2  0  0  3  0  0  0  0  0  0
  194.0380  175.8810  142.2720 C   0  0  2  0  0  3  0  0  0  0  0  0
  191.3140  173.5000  143.2650 C   0  0  1  0  0  3  0  0  0  0  0  0
  195.2050  175.6610  139.9360 C   0  0  0  0  0  2  0  0  0  0  0  0
  190.0390  177.1840  146.4730 C   0  0  0  0  0  2  0  0  0  0  0  0
  194.3400  175.7950  143.7730 C   0  0  2  0  0  3  0  0  0  0  0  0
  196.4140  177.4710  143.8880 F   0  0  0  0  0  0  0  0  0  0  0  0
  192.7380  172.7260  140.2940 C   0  0  0  0  0  2  0  0  0  0  0  0
  194.0080  174.7660  139.5900 C   0  0  0  0  0  2  0  0  0  0  0  0
  195.6350  175.2990  144.0510 O   0  0  0  0  0  0  0  0  0  0  0  0
  190.3060  174.5880  146.3800 C   0  0  1  0  0  3  0  0  0  0  0  0
  189.8630  173.9300  145.1430 N   0  0  0  0  0  2  0  0  0  0  0  0
  193.6400  173.8610  140.7640 C   0  0  1  0  0  3  0  0  0  0  0  0
  193.3010  174.8620  144.3600 C   0  0  1  0  0  3  0  0  0  0  0  0
  196.4920  176.0760  141.9730 C   0  0  0  0  0  3  0  0  0  0  0  0
  190.8900  172.4700  142.2050 C   0  0  1  0  0  3  0  0  0  0  0  0
  197.8570  175.7480  143.8460 F   0  0  0  0  0  0  0  0  0  0  0  0
  191.8050  174.9550  146.3960 C   0  0  0  0  0  2  0  0  0  0  0  0
  188.1440  175.7100  146.1400 O   0  0  0  0  0  1  0  0  0  0  0  0
  192.2950  175.7140  145.1530 C   0  0  2  0  0  3  0  0  0  0  0  0
  190.9620  173.0740  140.4790 S   0  0  0  0  0  0  0  0  0  0  0  0
  190.8160  170.0320  141.6380 C   0  0  0  0  0  3  0  0  0  0  0  0
  191.3880  171.0600  142.3950 C   0  0  0  0  0  0  0  0  0  0  0  0
  192.4250  170.7620  143.2920 C   0  0  0  0  0  3  0  0  0  0  0  0
  193.9740  169.1390  144.3890 C   0  0  0  0  0  1  0  0  0  0  0  0
  192.2980  168.4240  142.6790 C   0  0  0  0  0  3  0  0  0  0  0  0
  192.8770  169.4480  143.4350 C   0  0  0  0  0  0  0  0  0  0  0  0
  191.2680  168.7170  141.7800 C   0  0  0  0  0  3  0  0  0  0  0  0
  188.9730  177.3530  143.0530 C   0  0  0  0  0  2  0  0  0  0  0  0
  189.2440  177.9160  144.2290 C   0  0  0  0  0  3  0  0  0  0  0  0
  1  4  1  0  0  0  0
  1 27  1  0  0  0  0
  2 24  1  0  0  0  0
  2 14  1  0  0  0  0
  2 17  1  0  0  0  0
  3  9  1  0  0  0  0
  3  7  1  0  0  0  0
  4 12  1  0  0  0  0
  5 19  1  0  0  0  0
  6 22  2  0  0  0  0
  6  9  1  0  0  0  0
  7 10  1  0  0  0  0
  7 21  1  0  0  0  0
  9 13  1  0  0  0  0
 10  5  1  0  0  0  0
 11  6  1  0  0  0  0
 12  8  1  0  0  0  0
 13 17  1  0  0  0  0
 13 21  1  0  0  0  0
 15 28  1  0  0  0  0
 15 20  1  0  0  0  0
 16 11  1  0  0  0  0
 16 20  1  0  0  0  0
 18 25  1  0  0  0  0
 18  8  1  0  0  0  0
 19 18  1  0  0  0  0
 20  3  1  0  0  0  0
 21 27  1  0  0  0  0
 22  2  1  0  0  0  0
 23 30  1  0  0  0  0
 23 10  1  0  0  0  0
 26  8  1  0  0  0  0
 27 25  1  0  0  0  0
 28 23  1  0  0  0  0
 29 35  2  0  0  0  0
 29 30  1  0  0  0  0
 30 31  2  0  0  0  0
 31 34  1  0  0  0  0
 33 34  2  0  0  0  0
 34 32  1  0  0  0  0
 35 33  1  0  0  0  0
 36 37  2  0  0  0  0
 37  4  1  0  0  0  0
M  END
>  <MODEL>
6

>  <REMARK>
 VINA RESULT:      -8.2      3.174      6.661
  Name = 
  2 active torsions:
  status: ('A' for Active; 'I' for Inactive)
    1  A    between atoms: C_4  and  C_37
    2  A    between atoms: C_23  and  C_30
                            x       y       z     vdW  Elec       q    Type
                         _______ _______ _______ _____ _____    ______ ____

>  <TORSDO>
F 2

$$$$
=
 OpenBabel11112417103D

 37 43  0  0  1  0  0  0  0  0999 V2000
  194.7040  175.0900  143.5370 C   0  0  0  0  0  2  0  0  0  0  0  0
  189.8320  177.3610  144.4570 C   0  0  0  0  0  0  0  0  0  0  0  0
  191.5280  173.7240  143.6430 C   0  0  1  0  0  3  0  0  0  0  0  0
  196.0670  175.6300  143.9910 C   0  0  2  0  0  3  0  0  0  0  0  0
  193.8230  173.8610  140.4820 C   0  0  0  0  0  2  0  0  0  0  0  0
  189.9730  175.0360  145.2080 C   0  0  0  0  0  0  0  0  0  0  0  0
  192.0080  174.2200  142.2780 C   0  0  2  0  0  3  0  0  0  0  0  0
  196.9660  175.6640  141.5390 C   0  0  2  0  0  3  0  0  0  0  0  0
  191.3350  174.9580  144.5360 C   0  0  2  0  0  3  0  0  0  0  0  0
  193.0780  173.2730  141.6730 C   0  0  1  0  0  3  0  0  0  0  0  0
  189.3170  173.7900  145.7330 C   0  0  0  0  0  2  0  0  0  0  0  0
  196.8780  176.3590  142.9090 C   0  0  0  0  0  2  0  0  0  0  0  0
  191.6770  176.2030  143.7080 C   0  0  2  0  0  3  0  0  0  0  0  0
  190.6600  178.0770  145.3120 F   0  0  0  0  0  0  0  0  0  0  0  0
  190.3720  171.5650  142.7730 C   0  0  0  0  0  2  0  0  0  0  0  0
  189.8170  172.5290  145.0150 C   0  0  0  0  0  2  0  0  0  0  0  0
  190.5340  176.9330  143.3060 O   0  0  0  0  0  0  0  0  0  0  0  0
  195.6220  175.4400  140.8120 C   0  0  1  0  0  3  0  0  0  0  0  0
  195.2200  174.0270  140.8590 N   0  0  0  0  0  2  0  0  0  0  0  0
  190.2600  172.8470  143.5890 C   0  0  1  0  0  3  0  0  0  0  0  0
  192.4190  175.7050  142.4850 C   0  0  1  0  0  3  0  0  0  0  0  0
  189.2630  176.1670  145.1640 C   0  0  0  0  0  3  0  0  0  0  0  0
  192.5910  171.8600  141.3160 C   0  0  1  0  0  3  0  0  0  0  0  0
  188.7900  178.1810  144.0680 F   0  0  0  0  0  0  0  0  0  0  0  0
  194.5340  176.4210  141.2990 C   0  0  0  0  0  2  0  0  0  0  0  0
  197.7350  174.4990  141.6110 O   0  0  0  0  0  1  0  0  0  0  0  0
  193.9060  176.0630  142.6540 C   0  0  2  0  0  3  0  0  0  0  0  0
  192.0470  170.8540  142.7460 S   0  0  0  0  0  0  0  0  0  0  0  0
  191.7040  170.5230  139.3940 C   0  0  0  0  0  3  0  0  0  0  0  0
  191.7180  171.7330  140.0950 C   0  0  0  0  0  0  0  0  0  0  0  0
  190.9030  172.7910  139.6620 C   0  0  0  0  0  3  0  0  0  0  0  0
  189.2330  173.7640  138.0810 C   0  0  0  0  0  1  0  0  0  0  0  0
  190.0860  171.4280  137.8360 C   0  0  0  0  0  3  0  0  0  0  0  0
  190.0910  172.6390  138.5350 C   0  0  0  0  0  0  0  0  0  0  0  0
  190.8920  170.3700  138.2660 C   0  0  0  0  0  3  0  0  0  0  0  0
  196.5190  173.9830  145.7640 C   0  0  0  0  0  2  0  0  0  0  0  0
  196.8820  174.5410  144.6110 C   0  0  0  0  0  3  0  0  0  0  0  0
  1  4  1  0  0  0  0
  2 22  1  0  0  0  0
  2 14  1  0  0  0  0
  3  9  1  0  0  0  0
  4 37  1  0  0  0  0
  5 19  1  0  0  0  0
  5 10  1  0  0  0  0
  6 11  1  0  0  0  0
  7 21  1  0  0  0  0
  7  3  1  0  0  0  0
  8 26  1  0  0  0  0
  8 12  1  0  0  0  0
  9  6  1  0  0  0  0
 10  7  1  0  0  0  0
 12  4  1  0  0  0  0
 13  9  1  0  0  0  0
 15 20  1  0  0  0  0
 16 11  1  0  0  0  0
 17 13  1  0  0  0  0
 17  2  1  0  0  0  0
 18 19  1  0  0  0  0
 18 25  1  0  0  0  0
 18  8  1  0  0  0  0
 20  3  1  0  0  0  0
 20 16  1  0  0  0  0
 21 27  1  0  0  0  0
 21 13  1  0  0  0  0
 22  6  2  0  0  0  0
 23 10  1  0  0  0  0
 23 28  1  0  0  0  0
 24  2  1  0  0  0  0
 25 27  1  0  0  0  0
 27  1  1  0  0  0  0
 28 15  1  0  0  0  0
 29 30  1  0  0  0  0
 30 23  1  0  0  0  0
 31 30  2  0  0  0  0
 32 34  1  0  0  0  0
 33 35  1  0  0  0  0
 33 34  2  0  0  0  0
 34 31  1  0  0  0  0
 35 29  2  0  0  0  0
 37 36  2  0  0  0  0
M  END
>  <MODEL>
7

>  <REMARK>
 VINA RESULT:      -7.8      3.426      6.244
  Name = 
  2 active torsions:
  status: ('A' for Active; 'I' for Inactive)
    1  A    between atoms: C_4  and  C_37
    2  A    between atoms: C_23  and  C_30
                            x       y       z     vdW  Elec       q    Type
                         _______ _______ _______ _____ _____    ______ ____

>  <TORSDO>
F 2

$$$$
=
 OpenBabel11112417103D

 37 43  0  0  1  0  0  0  0  0999 V2000
  190.2970  174.4720  144.1360 C   0  0  0  0  0  2  0  0  0  0  0  0
  189.0570  172.7790  139.1030 C   0  0  0  0  0  0  0  0  0  0  0  0
  192.0240  172.4690  141.9070 C   0  0  1  0  0  3  0  0  0  0  0  0
  189.3090  174.9150  145.2230 C   0  0  2  0  0  3  0  0  0  0  0  0
  193.2030  175.9730  143.1750 C   0  0  0  0  0  2  0  0  0  0  0  0
  190.4410  171.1880  140.3450 C   0  0  0  0  0  0  0  0  0  0  0  0
  192.3010  173.9710  141.8240 C   0  0  2  0  0  3  0  0  0  0  0  0
  190.4760  177.2400  145.4560 C   0  0  2  0  0  3  0  0  0  0  0  0
  190.5820  172.2430  141.4320 C   0  0  2  0  0  3  0  0  0  0  0  0
  193.1580  174.4590  143.0220 C   0  0  1  0  0  3  0  0  0  0  0  0
  191.2750  169.9390  140.3910 C   0  0  0  0  0  2  0  0  0  0  0  0
  189.1660  176.4350  145.4020 C   0  0  0  0  0  2  0  0  0  0  0  0
  189.9910  173.6030  141.0410 C   0  0  2  0  0  3  0  0  0  0  0  0
  187.8200  172.7660  139.7340 F   0  0  0  0  0  0  0  0  0  0  0  0
  194.4870  171.7060  141.5710 C   0  0  0  0  0  2  0  0  0  0  0  0
  192.5710  170.1400  141.1880 C   0  0  0  0  0  2  0  0  0  0  0  0
  189.8950  173.7840  139.6410 O   0  0  0  0  0  0  0  0  0  0  0  0
  191.3650  177.1640  144.1960 C   0  0  1  0  0  3  0  0  0  0  0  0
  192.5470  176.3220  144.4280 N   0  0  0  0  0  2  0  0  0  0  0  0
  193.0320  171.5950  141.1310 C   0  0  1  0  0  3  0  0  0  0  0  0
  190.9160  174.6490  141.6270 C   0  0  1  0  0  3  0  0  0  0  0  0
  189.7270  171.4450  139.2450 C   0  0  0  0  0  3  0  0  0  0  0  0
  194.5880  173.9010  143.0900 C   0  0  1  0  0  3  0  0  0  0  0  0
  188.8600  173.0330  137.7590 F   0  0  0  0  0  0  0  0  0  0  0  0
  190.5530  176.7780  142.9420 C   0  0  0  0  0  2  0  0  0  0  0  0
  191.1870  176.9700  146.6290 O   0  0  0  0  0  1  0  0  0  0  0  0
  190.2060  175.2860  142.8350 C   0  0  2  0  0  3  0  0  0  0  0  0
  194.6930  172.0910  143.3380 S   0  0  0  0  0  0  0  0  0  0  0  0
  196.8630  174.7890  142.5320 C   0  0  0  0  0  3  0  0  0  0  0  0
  195.5770  174.4540  142.0950 C   0  0  0  0  0  0  0  0  0  0  0  0
  195.2450  174.6140  140.7410 C   0  0  0  0  0  3  0  0  0  0  0  0
  195.8280  175.2830  138.4070 C   0  0  0  0  0  1  0  0  0  0  0  0
  197.4690  175.4520  140.2840 C   0  0  0  0  0  3  0  0  0  0  0  0
  196.1880  175.1130  139.8390 C   0  0  0  0  0  0  0  0  0  0  0  0
  197.8060  175.2890  141.6300 C   0  0  0  0  0  3  0  0  0  0  0  0
  188.9410  174.5420  147.6280 C   0  0  0  0  0  2  0  0  0  0  0  0
  189.6390  174.2650  146.5290 C   0  0  0  0  0  3  0  0  0  0  0  0
  1  4  1  0  0  0  0
  2 22  1  0  0  0  0
  2 17  1  0  0  0  0
  2 14  1  0  0  0  0
  4 12  1  0  0  0  0
  4 37  1  0  0  0  0
  5 19  1  0  0  0  0
  6 11  1  0  0  0  0
  6  9  1  0  0  0  0
  7  3  1  0  0  0  0
  7 10  1  0  0  0  0
  8 26  1  0  0  0  0
  9  3  1  0  0  0  0
 10 23  1  0  0  0  0
 10  5  1  0  0  0  0
 11 16  1  0  0  0  0
 12  8  1  0  0  0  0
 13  9  1  0  0  0  0
 13 21  1  0  0  0  0
 15 28  1  0  0  0  0
 17 13  1  0  0  0  0
 18 19  1  0  0  0  0
 18  8  1  0  0  0  0
 20 16  1  0  0  0  0
 20 15  1  0  0  0  0
 20  3  1  0  0  0  0
 21  7  1  0  0  0  0
 21 27  1  0  0  0  0
 22  6  2  0  0  0  0
 23 28  1  0  0  0  0
 24  2  1  0  0  0  0
 25 18  1  0  0  0  0
 27 25  1  0  0  0  0
 27  1  1  0  0  0  0
 30 29  1  0  0  0  0
 30 23  1  0  0  0  0
 31 30  2  0  0  0  0
 32 34  1  0  0  0  0
 33 35  1  0  0  0  0
 34 33  2  0  0  0  0
 34 31  1  0  0  0  0
 35 29  2  0  0  0  0
 37 36  2  0  0  0  0
M  END
>  <MODEL>
8

>  <REMARK>
 VINA RESULT:      -7.7      2.727      6.553
  Name = 
  2 active torsions:
  status: ('A' for Active; 'I' for Inactive)
    1  A    between atoms: C_4  and  C_37
    2  A    between atoms: C_23  and  C_30
                            x       y       z     vdW  Elec       q    Type
                         _______ _______ _______ _____ _____    ______ ____

>  <TORSDO>
F 2

$$$$
=
 OpenBabel11112417103D

 37 43  0  0  1  0  0  0  0  0999 V2000
  191.7340  175.9720  144.3270 C   0  0  0  0  0  2  0  0  0  0  0  0
  196.2740  173.3120  145.7610 C   0  0  0  0  0  0  0  0  0  0  0  0
  193.9420  174.0540  142.4790 C   0  0  1  0  0  3  0  0  0  0  0  0
  191.1090  177.1730  145.0490 C   0  0  2  0  0  3  0  0  0  0  0  0
  190.1880  173.1790  143.1300 C   0  0  0  0  0  2  0  0  0  0  0  0
  196.3160  174.1210  143.4520 C   0  0  0  0  0  0  0  0  0  0  0  0
  192.7640  173.3120  143.1110 C   0  0  2  0  0  3  0  0  0  0  0  0
  188.8370  175.9200  145.3460 C   0  0  2  0  0  3  0  0  0  0  0  0
  194.8570  174.5170  143.6210 C   0  0  2  0  0  3  0  0  0  0  0  0
  191.4330  173.6230  142.3740 C   0  0  1  0  0  3  0  0  0  0  0  0
  196.9580  174.1670  142.0950 C   0  0  0  0  0  2  0  0  0  0  0  0
  189.9080  176.8450  145.9490 C   0  0  0  0  0  2  0  0  0  0  0  0
  194.2460  174.0370  144.9440 C   0  0  2  0  0  3  0  0  0  0  0  0
  196.3340  174.4510  146.5540 F   0  0  0  0  0  0  0  0  0  0  0  0
  193.8980  172.7830  140.2120 C   0  0  0  0  0  2  0  0  0  0  0  0
  195.9280  174.0390  140.9640 C   0  0  0  0  0  2  0  0  0  0  0  0
  194.9340  172.9370  145.5070 O   0  0  0  0  0  0  0  0  0  0  0  0
  189.3160  174.5050  144.9520 C   0  0  1  0  0  3  0  0  0  0  0  0
  189.4310  174.3690  143.4930 N   0  0  0  0  0  2  0  0  0  0  0  0
  194.7100  173.2380  141.4180 C   0  0  1  0  0  3  0  0  0  0  0  0
  192.8190  173.6390  144.6300 C   0  0  1  0  0  3  0  0  0  0  0  0
  196.9800  173.5480  144.4600 C   0  0  0  0  0  3  0  0  0  0  0  0
  191.3460  173.1290  140.9220 C   0  0  1  0  0  3  0  0  0  0  0  0
  196.9090  172.2810  146.4270 F   0  0  0  0  0  0  0  0  0  0  0  0
  190.5850  174.0920  145.7250 C   0  0  0  0  0  2  0  0  0  0  0  0
  188.1420  176.5560  144.3130 O   0  0  0  0  0  1  0  0  0  0  0  0
  191.8880  174.7200  145.2060 C   0  0  2  0  0  3  0  0  0  0  0  0
  192.5370  173.9100  139.7740 S   0  0  0  0  0  0  0  0  0  0  0  0
  191.4330  170.7800  141.7880 C   0  0  0  0  0  3  0  0  0  0  0  0
  191.1660  171.6450  140.7220 C   0  0  0  0  0  0  0  0  0  0  0  0
  190.7150  171.1180  139.5020 C   0  0  0  0  0  3  0  0  0  0  0  0
  190.0670  169.1880  138.0560 C   0  0  0  0  0  1  0  0  0  0  0  0
  190.8160  168.8800  140.4200 C   0  0  0  0  0  3  0  0  0  0  0  0
  190.5420  169.7400  139.3510 C   0  0  0  0  0  0  0  0  0  0  0  0
  191.2610  169.4010  141.6380 C   0  0  0  0  0  3  0  0  0  0  0  0
  190.7300  178.0010  142.7630 C   0  0  0  0  0  2  0  0  0  0  0  0
  190.7530  178.2460  144.0710 C   0  0  0  0  0  3  0  0  0  0  0  0
  1  4  1  0  0  0  0
  1 27  1  0  0  0  0
  2 24  1  0  0  0  0
  2 14  1  0  0  0  0
  3  7  1  0  0  0  0
  3  9  1  0  0  0  0
  4 12  1  0  0  0  0
  5 19  1  0  0  0  0
  6  9  1  0  0  0  0
  6 22  2  0  0  0  0
  7 21  1  0  0  0  0
  8 12  1  0  0  0  0
  9 13  1  0  0  0  0
 10  7  1  0  0  0  0
 10  5  1  0  0  0  0
 11  6  1  0  0  0  0
 13 17  1  0  0  0  0
 15 20  1  0  0  0  0
 16 20  1  0  0  0  0
 16 11  1  0  0  0  0
 17  2  1  0  0  0  0
 18  8  1  0  0  0  0
 18 25  1  0  0  0  0
 19 18  1  0  0  0  0
 20  3  1  0  0  0  0
 21 13  1  0  0  0  0
 21 27  1  0  0  0  0
 22  2  1  0  0  0  0
 23 10  1  0  0  0  0
 26  8  1  0  0  0  0
 27 25  1  0  0  0  0
 28 15  1  0  0  0  0
 28 23  1  0  0  0  0
 30 23  1  0  0  0  0
 30 29  2  0  0  0  0
 31 30  1  0  0  0  0
 32 34  1  0  0  0  0
 33 35  2  0  0  0  0
 34 31  2  0  0  0  0
 34 33  1  0  0  0  0
 35 29  1  0  0  0  0
 36 37  2  0  0  0  0
 37  4  1  0  0  0  0
M  END
>  <MODEL>
9

>  <REMARK>
 VINA RESULT:      -7.6      3.106      6.683
  Name = 
  2 active torsions:
  status: ('A' for Active; 'I' for Inactive)
    1  A    between atoms: C_4  and  C_37
    2  A    between atoms: C_23  and  C_30
                            x       y       z     vdW  Elec       q    Type
                         _______ _______ _______ _____ _____    ______ ____

>  <TORSDO>
F 2

$$$$
