=
 OpenBabel11112417573D

 34 40  0  0  1  0  0  0  0  0999 V2000
  190.1880  175.0700  142.8380 C   0  0  0  0  0  0  0  0  0  0  0  0
  192.3960  173.7960  142.5290 C   0  0  0  0  0  2  0  0  0  0  0  0
  185.6310  179.4390  145.8840 O   0  0  0  0  0  0  0  0  0  0  0  0
  188.0050  175.9820  143.4610 C   0  0  0  0  0  0  0  0  0  0  0  0
  187.8150  177.5610  145.5010 C   0  0  1  0  0  3  0  0  0  0  0  0
  186.9420  178.4920  147.6520 C   0  0  0  0  0  2  0  0  0  0  0  0
  185.5700  178.9830  147.2050 C   0  0  0  0  0  2  0  0  0  0  0  0
  184.7550  177.5010  144.7200 C   0  0  0  0  0  2  0  0  0  0  0  0
  191.9410  174.9040  144.5620 C   0  0  2  0  0  3  0  0  0  0  0  0
  194.1360  176.7550  145.7930 C   0  0  0  0  0  2  0  0  0  0  0  0
  189.3440  177.5860  145.4220 C   0  0  0  0  0  2  0  0  0  0  0  0
  185.9670  177.4480  143.8010 C   0  0  0  0  0  2  0  0  0  0  0  0
  191.4240  176.1680  145.2470 C   0  0  1  0  0  3  0  0  0  0  0  0
  193.6470  173.6740  143.4000 C   0  0  0  0  0  2  0  0  0  0  0  0
  187.0960  176.6620  144.4680 C   0  0  1  0  0  3  0  0  0  0  0  0
  184.5010  178.9140  145.2430 C   0  0  0  0  0  2  0  0  0  0  0  0
  194.3940  175.7240  144.6760 C   0  0  2  0  0  3  0  0  0  0  0  0
  189.3630  175.7560  143.7640 C   0  0  0  0  0  0  0  0  0  0  0  0
  187.3470  177.2250  146.9090 C   0  0  0  0  0  2  0  0  0  0  0  0
  189.8910  176.2000  145.1180 C   0  0  2  0  0  3  0  0  0  0  0  0
  188.2960  174.8180  141.3440 C   0  0  0  0  0  3  0  0  0  0  0  0
  193.3410  176.1900  146.9680 C   0  0  0  0  0  2  0  0  0  0  0  0
  187.4800  175.4820  142.2590 C   0  0  0  0  0  3  0  0  0  0  0  0
  191.8270  176.2370  146.7250 C   0  0  0  0  0  2  0  0  0  0  0  0
  193.4170  174.5250  144.6550 C   0  0  1  0  0  3  0  0  0  0  0  0
  189.6500  174.6290  141.6230 C   0  0  0  0  0  3  0  0  0  0  0  0
  191.6670  174.9940  143.0910 C   0  0  2  0  0  3  0  0  0  0  0  0
  195.8270  175.2230  144.7870 C   0  0  0  0  0  2  0  0  0  0  0  0
  196.0010  174.3850  146.0420 C   0  0  0  0  0  2  0  0  0  0  0  0
  197.1290  171.5000  144.7580 C   0  0  0  0  0  3  0  0  0  0  0  0
  197.8740  173.6770  144.5440 C   0  0  0  0  0  2  0  0  0  0  0  0
  197.2230  173.4930  145.9150 C   0  0  2  0  0  3  0  0  0  0  0  0
  197.7620  172.4070  143.9300 O   0  0  0  0  0  0  0  0  0  0  0  0
  196.7980  172.0630  145.9030 C   0  0  0  0  0  3  0  0  0  0  0  0
  1 27  1  0  0  0  0
  1 18  1  0  0  0  0
  2 27  1  0  0  0  0
  2 14  1  0  0  0  0
  3  7  1  0  0  0  0
  4 18  2  0  0  0  0
  4 15  1  0  0  0  0
  5 11  1  1  0  0  0
  5 19  1  0  0  0  0
  7  6  1  0  0  0  0
  8 16  1  0  0  0  0
  9 25  1  0  0  0  0
  9 13  1  0  0  0  0
 10 22  1  0  0  0  0
 12 15  1  0  0  0  0
 12  8  1  0  0  0  0
 13 24  1  0  0  0  0
 14 25  1  0  0  0  0
 15  5  1  0  0  0  0
 16  3  1  0  0  0  0
 17 28  1  0  0  0  0
 17 10  1  0  0  0  0
 18 20  1  0  0  0  0
 19  6  1  0  0  0  0
 20 13  1  0  0  0  0
 20 11  1  0  0  0  0
 21 26  1  0  0  0  0
 21 23  2  0  0  0  0
 23  4  1  0  0  0  0
 24 22  1  0  0  0  0
 25 17  1  0  0  0  0
 26  1  2  0  0  0  0
 27  9  1  0  0  0  0
 28 29  1  0  0  0  0
 30 34  2  0  0  0  0
 31 32  1  0  0  0  0
 32 29  1  0  0  0  0
 33 31  1  0  0  0  0
 33 30  1  0  0  0  0
 34 32  1  0  0  0  0
M  END
>  <MODEL>
1

>  <REMARK>
 VINA RESULT:      -9.5      0.000      0.000
  Name = 
  3 active torsions:
  status: ('A' for Active; 'I' for Inactive)
    1  A    between atoms: C_17  and  C_28
    2  A    between atoms: C_28  and  C_29
    3  A    between atoms: C_29  and  C_32
                            x       y       z     vdW  Elec       q    Type
                         _______ _______ _______ _____ _____    ______ ____

>  <TORSDO>
F 3

$$$$
=
 OpenBabel11112417573D

 34 40  0  0  1  0  0  0  0  0999 V2000
  189.8650  174.8180  142.7180 C   0  0  0  0  0  0  0  0  0  0  0  0
  191.9100  173.2670  142.8110 C   0  0  0  0  0  2  0  0  0  0  0  0
  185.2690  179.5800  145.0260 O   0  0  0  0  0  0  0  0  0  0  0  0
  187.7240  175.9880  142.9000 C   0  0  0  0  0  0  0  0  0  0  0  0
  187.2350  177.4420  144.9830 C   0  0  1  0  0  3  0  0  0  0  0  0
  185.9830  178.3450  146.9510 C   0  0  0  0  0  2  0  0  0  0  0  0
  184.8330  179.0530  146.2460 C   0  0  0  0  0  2  0  0  0  0  0  0
  184.4750  177.8660  143.5080 C   0  0  0  0  0  2  0  0  0  0  0  0
  191.1100  174.2940  144.7790 C   0  0  2  0  0  3  0  0  0  0  0  0
  193.1470  175.7320  146.6630 C   0  0  0  0  0  2  0  0  0  0  0  0
  188.7280  177.2550  145.2660 C   0  0  0  0  0  2  0  0  0  0  0  0
  185.8590  177.7020  142.8960 C   0  0  0  0  0  2  0  0  0  0  0  0
  190.6000  175.5710  145.4440 C   0  0  1  0  0  3  0  0  0  0  0  0
  192.8850  172.9130  143.9330 C   0  0  0  0  0  2  0  0  0  0  0  0
  186.6860  176.7230  143.7290 C   0  0  1  0  0  3  0  0  0  0  0  0
  184.2750  179.2640  144.0920 C   0  0  0  0  0  2  0  0  0  0  0  0
  193.5420  174.7490  145.5420 C   0  0  2  0  0  3  0  0  0  0  0  0
  188.9290  175.5530  143.4880 C   0  0  0  0  0  0  0  0  0  0  0  0
  186.4000  177.0850  146.2030 C   0  0  0  0  0  2  0  0  0  0  0  0
  189.1600  175.8280  144.9650 C   0  0  2  0  0  3  0  0  0  0  0  0
  188.3790  174.9340  140.8070 C   0  0  0  0  0  3  0  0  0  0  0  0
  192.0260  175.2090  147.5590 C   0  0  0  0  0  2  0  0  0  0  0  0
  187.4510  175.6460  141.5670 C   0  0  0  0  0  3  0  0  0  0  0  0
  190.6350  175.4860  146.9750 C   0  0  0  0  0  2  0  0  0  0  0  0
  192.4610  173.7050  145.1770 C   0  0  1  0  0  3  0  0  0  0  0  0
  189.5900  174.5380  141.3740 C   0  0  0  0  0  3  0  0  0  0  0  0
  191.2170  174.5170  143.3010 C   0  0  2  0  0  3  0  0  0  0  0  0
  194.8330  174.0440  145.9340 C   0  0  0  0  0  2  0  0  0  0  0  0
  196.0250  174.7070  145.2660 C   0  0  0  0  0  2  0  0  0  0  0  0
  197.0350  176.6660  142.7380 C   0  0  0  0  0  3  0  0  0  0  0  0
  196.3060  174.4740  142.7920 C   0  0  0  0  0  2  0  0  0  0  0  0
  195.6270  175.2650  143.9110 C   0  0  2  0  0  3  0  0  0  0  0  0
  197.1340  175.4220  142.1460 O   0  0  0  0  0  0  0  0  0  0  0  0
  196.1910  176.6370  143.7510 C   0  0  0  0  0  3  0  0  0  0  0  0
  1 27  1  0  0  0  0
  1 18  1  0  0  0  0
  2 27  1  0  0  0  0
  2 14  1  0  0  0  0
  3  7  1  0  0  0  0
  4 18  2  0  0  0  0
  4 15  1  0  0  0  0
  5 11  1  1  0  0  0
  5 19  1  0  0  0  0
  7  6  1  0  0  0  0
  8 16  1  0  0  0  0
  9 25  1  0  0  0  0
  9 13  1  0  0  0  0
 10 22  1  0  0  0  0
 12  8  1  0  0  0  0
 12 15  1  0  0  0  0
 13 24  1  0  0  0  0
 14 25  1  0  0  0  0
 15  5  1  0  0  0  0
 16  3  1  0  0  0  0
 17 28  1  0  0  0  0
 17 10  1  0  0  0  0
 18 20  1  0  0  0  0
 19  6  1  0  0  0  0
 20 11  1  0  0  0  0
 20 13  1  0  0  0  0
 21 26  1  0  0  0  0
 21 23  2  0  0  0  0
 23  4  1  0  0  0  0
 24 22  1  0  0  0  0
 25 17  1  0  0  0  0
 26  1  2  0  0  0  0
 27  9  1  0  0  0  0
 29 28  1  0  0  0  0
 30 34  2  0  0  0  0
 31 32  1  0  0  0  0
 32 29  1  0  0  0  0
 33 30  1  0  0  0  0
 33 31  1  0  0  0  0
 34 32  1  0  0  0  0
M  END
>  <MODEL>
2

>  <REMARK>
 VINA RESULT:      -9.5      1.404      1.879
  Name = 
  3 active torsions:
  status: ('A' for Active; 'I' for Inactive)
    1  A    between atoms: C_17  and  C_28
    2  A    between atoms: C_28  and  C_29
    3  A    between atoms: C_29  and  C_32
                            x       y       z     vdW  Elec       q    Type
                         _______ _______ _______ _____ _____    ______ ____

>  <TORSDO>
F 3

$$$$
=
 OpenBabel11112417573D

 34 40  0  0  1  0  0  0  0  0999 V2000
  189.7680  174.3280  144.4840 C   0  0  0  0  0  0  0  0  0  0  0  0
  191.5510  172.8630  143.3560 C   0  0  0  0  0  2  0  0  0  0  0  0
  183.9930  178.2760  144.9190 O   0  0  0  0  0  0  0  0  0  0  0  0
  188.2810  176.0660  145.3510 C   0  0  0  0  0  0  0  0  0  0  0  0
  186.3610  176.9620  143.8670 C   0  0  1  0  0  3  0  0  0  0  0  0
  184.8840  178.6240  142.7220 C   0  0  0  0  0  2  0  0  0  0  0  0
  184.1780  179.2410  143.9240 C   0  0  0  0  0  2  0  0  0  0  0  0
  185.8540  178.8050  146.3810 C   0  0  0  0  0  2  0  0  0  0  0  0
  190.0210  174.0910  142.0440 C   0  0  2  0  0  3  0  0  0  0  0  0
  188.5360  172.6400  139.7100 C   0  0  0  0  0  2  0  0  0  0  0  0
  186.7040  175.7630  142.9780 C   0  0  0  0  0  2  0  0  0  0  0  0
  186.3480  177.3660  146.3470 C   0  0  0  0  0  2  0  0  0  0  0  0
  188.5710  174.5160  141.8260 C   0  0  1  0  0  3  0  0  0  0  0  0
  191.7990  172.4810  141.8980 C   0  0  0  0  0  2  0  0  0  0  0  0
  187.2400  177.1470  145.1250 C   0  0  1  0  0  3  0  0  0  0  0  0
  184.3490  178.8930  146.1250 C   0  0  0  0  0  2  0  0  0  0  0  0
  189.7820  172.0830  140.4270 C   0  0  2  0  0  3  0  0  0  0  0  0
  188.7550  175.2960  144.2700 C   0  0  0  0  0  0  0  0  0  0  0  0
  186.3210  178.2480  143.0560 C   0  0  0  0  0  2  0  0  0  0  0  0
  188.2100  175.5780  142.8800 C   0  0  2  0  0  3  0  0  0  0  0  0
  189.8410  174.9280  146.8310 C   0  0  0  0  0  3  0  0  0  0  0  0
  188.6830  174.1000  139.2860 C   0  0  0  0  0  2  0  0  0  0  0  0
  188.8530  175.8900  146.6200 C   0  0  0  0  0  3  0  0  0  0  0  0
  188.3320  175.0740  140.4170 C   0  0  0  0  0  2  0  0  0  0  0  0
  190.7070  173.1520  141.0550 C   0  0  1  0  0  3  0  0  0  0  0  0
  190.2830  174.1360  145.7720 C   0  0  0  0  0  3  0  0  0  0  0  0
  190.1360  173.3940  143.3660 C   0  0  2  0  0  3  0  0  0  0  0  0
  190.5720  171.2230  139.4510 C   0  0  0  0  0  2  0  0  0  0  0  0
  189.6690  170.7140  138.3410 C   0  0  0  0  0  2  0  0  0  0  0  0
  189.7680  172.7930  135.7110 C   0  0  0  0  0  3  0  0  0  0  0  0
  191.4280  171.9920  137.1050 C   0  0  0  0  0  2  0  0  0  0  0  0
  190.3140  170.9500  136.9860 C   0  0  2  0  0  3  0  0  0  0  0  0
  190.9920  173.0640  136.2900 O   0  0  0  0  0  0  0  0  0  0  0  0
  189.3320  171.6020  136.0720 C   0  0  0  0  0  3  0  0  0  0  0  0
  1 26  1  0  0  0  0
  2 27  1  0  0  0  0
  3 16  1  0  0  0  0
  4 23  2  0  0  0  0
  5 11  1  6  0  0  0
  5 15  1  0  0  0  0
  6 19  1  0  0  0  0
  6  7  1  0  0  0  0
  7  3  1  0  0  0  0
  9 27  1  0  0  0  0
 10 17  1  0  0  0  0
 12  8  1  0  0  0  0
 13  9  1  0  0  0  0
 13 20  1  0  0  0  0
 14  2  1  0  0  0  0
 15  4  1  0  0  0  0
 15 12  1  0  0  0  0
 16  8  1  0  0  0  0
 17 25  1  0  0  0  0
 18  1  2  0  0  0  0
 18  4  1  0  0  0  0
 19  5  1  0  0  0  0
 20 11  1  0  0  0  0
 20 18  1  0  0  0  0
 22 10  1  0  0  0  0
 22 24  1  0  0  0  0
 23 21  1  0  0  0  0
 24 13  1  0  0  0  0
 25 14  1  0  0  0  0
 25  9  1  0  0  0  0
 26 21  2  0  0  0  0
 27  1  1  0  0  0  0
 28 17  1  0  0  0  0
 29 28  1  0  0  0  0
 30 34  2  0  0  0  0
 30 33  1  0  0  0  0
 32 31  1  0  0  0  0
 32 29  1  0  0  0  0
 33 31  1  0  0  0  0
 34 32  1  0  0  0  0
M  END
>  <MODEL>
3

>  <REMARK>
 VINA RESULT:      -9.1      3.545      6.291
  Name = 
  3 active torsions:
  status: ('A' for Active; 'I' for Inactive)
    1  A    between atoms: C_17  and  C_28
    2  A    between atoms: C_28  and  C_29
    3  A    between atoms: C_29  and  C_32
                            x       y       z     vdW  Elec       q    Type
                         _______ _______ _______ _____ _____    ______ ____

>  <TORSDO>
F 3

$$$$
=
 OpenBabel11112417573D

 34 40  0  0  1  0  0  0  0  0999 V2000
  191.8550  176.2190  146.1550 C   0  0  0  0  0  0  0  0  0  0  0  0
  194.3250  175.5890  146.4650 C   0  0  0  0  0  2  0  0  0  0  0  0
  185.7490  176.9240  142.7860 O   0  0  0  0  0  0  0  0  0  0  0  0
  189.6650  177.1720  145.6260 C   0  0  0  0  0  0  0  0  0  0  0  0
  188.5990  176.7170  143.3130 C   0  0  1  0  0  3  0  0  0  0  0  0
  187.4650  177.1980  141.1360 C   0  0  0  0  0  2  0  0  0  0  0  0
  186.0900  177.6330  141.6300 C   0  0  0  0  0  2  0  0  0  0  0  0
  186.3180  178.5630  144.4790 C   0  0  0  0  0  2  0  0  0  0  0  0
  193.3760  175.6390  144.3050 C   0  0  2  0  0  3  0  0  0  0  0  0
  193.8500  173.2120  142.3950 C   0  0  0  0  0  2  0  0  0  0  0  0
  189.7130  175.6740  143.1830 C   0  0  0  0  0  2  0  0  0  0  0  0
  187.1950  177.5630  145.2180 C   0  0  0  0  0  2  0  0  0  0  0  0
  192.1920  175.2650  143.4150 C   0  0  1  0  0  3  0  0  0  0  0  0
  195.3900  175.0830  145.4920 C   0  0  0  0  0  2  0  0  0  0  0  0
  188.5990  177.5520  144.6140 C   0  0  1  0  0  3  0  0  0  0  0  0
  185.2200  177.8680  143.6750 C   0  0  0  0  0  2  0  0  0  0  0  0
  194.6580  173.4780  143.6800 C   0  0  2  0  0  3  0  0  0  0  0  0
  190.8430  176.5190  145.2100 C   0  0  0  0  0  0  0  0  0  0  0  0
  188.5640  177.6310  142.0980 C   0  0  0  0  0  2  0  0  0  0  0  0
  191.0240  176.2150  143.7320 C   0  0  2  0  0  3  0  0  0  0  0  0
  190.5240  177.2470  147.9010 C   0  0  0  0  0  3  0  0  0  0  0  0
  193.7100  174.4430  141.5010 C   0  0  0  0  0  2  0  0  0  0  0  0
  189.5320  177.5540  146.9690 C   0  0  0  0  0  3  0  0  0  0  0  0
  192.5390  175.3400  141.9220 C   0  0  0  0  0  2  0  0  0  0  0  0
  194.7310  174.9620  144.1120 C   0  0  1  0  0  3  0  0  0  0  0  0
  191.6730  176.5650  147.5000 C   0  0  0  0  0  3  0  0  0  0  0  0
  193.0200  175.3690  145.7360 C   0  0  2  0  0  3  0  0  0  0  0  0
  196.0640  172.9210  143.5050 C   0  0  0  0  0  2  0  0  0  0  0  0
  196.1260  171.4780  143.9770 C   0  0  0  0  0  2  0  0  0  0  0  0
  194.8780  169.5400  146.4120 C   0  0  0  0  0  3  0  0  0  0  0  0
  196.9380  170.5530  146.1530 C   0  0  0  0  0  2  0  0  0  0  0  0
  195.8640  171.4000  145.4700 C   0  0  2  0  0  3  0  0  0  0  0  0
  196.2280  169.4530  146.6910 O   0  0  0  0  0  0  0  0  0  0  0  0
  194.6110  170.6290  145.7180 C   0  0  0  0  0  3  0  0  0  0  0  0
  1 26  1  0  0  0  0
  3 16  1  0  0  0  0
  4 23  2  0  0  0  0
  5 19  1  6  0  0  0
  5 15  1  0  0  0  0
  6  7  1  0  0  0  0
  6 19  1  0  0  0  0
  7  3  1  0  0  0  0
  8 12  1  0  0  0  0
  9 27  1  0  0  0  0
 10 17  1  0  0  0  0
 11  5  1  0  0  0  0
 11 20  1  0  0  0  0
 13 20  1  0  0  0  0
 13  9  1  0  0  0  0
 14  2  1  0  0  0  0
 15 12  1  0  0  0  0
 15  4  1  0  0  0  0
 16  8  1  0  0  0  0
 17 25  1  0  0  0  0
 18  4  1  0  0  0  0
 18  1  2  0  0  0  0
 20 18  1  0  0  0  0
 22 24  1  0  0  0  0
 22 10  1  0  0  0  0
 23 21  1  0  0  0  0
 24 13  1  0  0  0  0
 25  9  1  0  0  0  0
 25 14  1  0  0  0  0
 26 21  2  0  0  0  0
 27  1  1  0  0  0  0
 27  2  1  0  0  0  0
 28 17  1  0  0  0  0
 28 29  1  0  0  0  0
 29 32  1  0  0  0  0
 30 33  1  0  0  0  0
 31 33  1  0  0  0  0
 32 34  1  0  0  0  0
 32 31  1  0  0  0  0
 34 30  2  0  0  0  0
M  END
>  <MODEL>
4

>  <REMARK>
 VINA RESULT:      -9.0      1.774      3.915
  Name = 
  3 active torsions:
  status: ('A' for Active; 'I' for Inactive)
    1  A    between atoms: C_17  and  C_28
    2  A    between atoms: C_28  and  C_29
    3  A    between atoms: C_29  and  C_32
                            x       y       z     vdW  Elec       q    Type
                         _______ _______ _______ _____ _____    ______ ____

>  <TORSDO>
F 3

$$$$
=
 OpenBabel11112417573D

 34 40  0  0  1  0  0  0  0  0999 V2000
  188.5910  177.3200  146.7090 C   0  0  0  0  0  0  0  0  0  0  0  0
  190.8590  176.8640  147.8240 C   0  0  0  0  0  2  0  0  0  0  0  0
  183.8830  177.5530  141.5220 O   0  0  0  0  0  0  0  0  0  0  0  0
  186.6400  178.1120  145.4640 C   0  0  0  0  0  0  0  0  0  0  0  0
  186.4130  177.5490  142.9500 C   0  0  1  0  0  3  0  0  0  0  0  0
  186.0220  177.9160  140.5070 C   0  0  0  0  0  2  0  0  0  0  0  0
  184.5390  178.2650  140.5130 C   0  0  0  0  0  2  0  0  0  0  0  0
  183.7720  179.2540  143.2460 C   0  0  0  0  0  2  0  0  0  0  0  0
  190.6620  176.8140  145.4730 C   0  0  2  0  0  3  0  0  0  0  0  0
  191.8740  174.3950  143.9110 C   0  0  0  0  0  2  0  0  0  0  0  0
  187.5680  176.5830  143.2260 C   0  0  0  0  0  2  0  0  0  0  0  0
  184.4190  178.3280  144.2650 C   0  0  0  0  0  2  0  0  0  0  0  0
  189.8570  176.3460  144.2630 C   0  0  1  0  0  3  0  0  0  0  0  0
  192.2100  176.4160  147.2680 C   0  0  0  0  0  2  0  0  0  0  0  0
  185.9410  178.4030  144.1490 C   0  0  1  0  0  3  0  0  0  0  0  0
  183.0380  178.4730  142.1560 C   0  0  0  0  0  2  0  0  0  0  0  0
  192.2030  174.7360  145.3780 C   0  0  2  0  0  3  0  0  0  0  0  0
  187.9260  177.5350  145.4760 C   0  0  0  0  0  0  0  0  0  0  0  0
  186.7210  178.4390  141.7550 C   0  0  0  0  0  2  0  0  0  0  0  0
  188.5950  177.2200  144.1490 C   0  0  2  0  0  3  0  0  0  0  0  0
  186.7070  178.2830  147.8910 C   0  0  0  0  0  3  0  0  0  0  0  0
  191.9600  175.5990  142.9750 C   0  0  0  0  0  2  0  0  0  0  0  0
  186.0560  178.5070  146.6770 C   0  0  0  0  0  3  0  0  0  0  0  0
  190.6650  176.4210  142.9610 C   0  0  0  0  0  2  0  0  0  0  0  0
  192.0440  176.2280  145.7540 C   0  0  1  0  0  3  0  0  0  0  0  0
  187.9610  177.6740  147.9080 C   0  0  0  0  0  3  0  0  0  0  0  0
  189.8780  176.5440  146.7210 C   0  0  2  0  0  3  0  0  0  0  0  0
  193.6200  174.2730  145.6880 C   0  0  0  0  0  2  0  0  0  0  0  0
  194.6260  175.3380  145.2870 C   0  0  0  0  0  2  0  0  0  0  0  0
  197.0380  176.2330  143.1350 C   0  0  0  0  0  3  0  0  0  0  0  0
  196.8140  174.3990  144.5230 C   0  0  0  0  0  2  0  0  0  0  0  0
  195.4300  174.8780  144.0840 C   0  0  2  0  0  3  0  0  0  0  0  0
  197.7110  175.2910  143.8880 O   0  0  0  0  0  0  0  0  0  0  0  0
  195.7340  176.0480  143.2100 C   0  0  0  0  0  3  0  0  0  0  0  0
  1 27  1  0  0  0  0
  1 26  1  0  0  0  0
  3 16  1  0  0  0  0
  4 18  1  0  0  0  0
  4 23  2  0  0  0  0
  5 19  1  6  0  0  0
  5 11  1  0  0  0  0
  5 15  1  0  0  0  0
  6  7  1  0  0  0  0
  6 19  1  0  0  0  0
  7  3  1  0  0  0  0
  8 12  1  0  0  0  0
  9 25  1  0  0  0  0
  9 27  1  0  0  0  0
 10 17  1  0  0  0  0
 11 20  1  0  0  0  0
 13  9  1  0  0  0  0
 14  2  1  0  0  0  0
 15 12  1  0  0  0  0
 15  4  1  0  0  0  0
 16  8  1  0  0  0  0
 17 28  1  0  0  0  0
 17 25  1  0  0  0  0
 18  1  2  0  0  0  0
 20 13  1  0  0  0  0
 20 18  1  0  0  0  0
 21 26  2  0  0  0  0
 22 10  1  0  0  0  0
 23 21  1  0  0  0  0
 24 22  1  0  0  0  0
 24 13  1  0  0  0  0
 25 14  1  0  0  0  0
 27  2  1  0  0  0  0
 29 28  1  0  0  0  0
 30 34  2  0  0  0  0
 30 33  1  0  0  0  0
 32 31  1  0  0  0  0
 32 29  1  0  0  0  0
 33 31  1  0  0  0  0
 34 32  1  0  0  0  0
M  END
>  <MODEL>
5

>  <REMARK>
 VINA RESULT:      -9.0      1.845      4.240
  Name = 
  3 active torsions:
  status: ('A' for Active; 'I' for Inactive)
    1  A    between atoms: C_17  and  C_28
    2  A    between atoms: C_28  and  C_29
    3  A    between atoms: C_29  and  C_32
                            x       y       z     vdW  Elec       q    Type
                         _______ _______ _______ _____ _____    ______ ____

>  <TORSDO>
F 3

$$$$
=
 OpenBabel11112417573D

 34 40  0  0  1  0  0  0  0  0999 V2000
  189.8310  176.9620  146.3910 C   0  0  0  0  0  0  0  0  0  0  0  0
  187.3220  177.1310  146.9130 C   0  0  0  0  0  2  0  0  0  0  0  0
  195.5820  176.6180  142.3990 O   0  0  0  0  0  0  0  0  0  0  0  0
  192.1260  176.3730  145.7830 C   0  0  0  0  0  0  0  0  0  0  0  0
  192.8290  176.3720  143.2930 C   0  0  1  0  0  3  0  0  0  0  0  0
  193.8350  175.5470  141.1580 C   0  0  0  0  0  2  0  0  0  0  0  0
  195.3140  175.5590  141.5250 C   0  0  0  0  0  2  0  0  0  0  0  0
  195.5860  175.4370  144.5160 C   0  0  0  0  0  2  0  0  0  0  0  0
  188.0480  176.6760  144.7140 C   0  0  2  0  0  3  0  0  0  0  0  0
  186.8270  178.3200  142.3540 C   0  0  0  0  0  2  0  0  0  0  0  0
  191.4890  177.0840  143.0810 C   0  0  0  0  0  2  0  0  0  0  0  0
  194.5670  176.4000  145.1070 C   0  0  0  0  0  2  0  0  0  0  0  0
  189.0170  177.0220  143.5850 C   0  0  1  0  0  3  0  0  0  0  0  0
  186.0800  177.1140  146.0220 C   0  0  0  0  0  2  0  0  0  0  0  0
  193.1510  175.9520  144.7460 C   0  0  1  0  0  3  0  0  0  0  0  0
  196.4040  176.0900  143.4030 C   0  0  0  0  0  2  0  0  0  0  0  0
  186.2310  178.2630  143.7750 C   0  0  2  0  0  3  0  0  0  0  0  0
  190.7910  176.6250  145.4050 C   0  0  0  0  0  0  0  0  0  0  0  0
  192.9680  175.1830  142.3560 C   0  0  0  0  0  2  0  0  0  0  0  0
  190.4040  176.4600  143.9450 C   0  0  2  0  0  3  0  0  0  0  0  0
  191.5280  176.7610  148.1090 C   0  0  0  0  0  3  0  0  0  0  0  0
  187.1740  176.9440  141.7870 C   0  0  0  0  0  2  0  0  0  0  0  0
  192.4720  176.4160  147.1420 C   0  0  0  0  0  3  0  0  0  0  0  0
  188.5600  176.4630  142.2320 C   0  0  0  0  0  2  0  0  0  0  0  0
  186.5580  176.9780  144.5700 C   0  0  1  0  0  3  0  0  0  0  0  0
  190.2170  177.0510  147.7340 C   0  0  0  0  0  3  0  0  0  0  0  0
  188.4610  177.4030  145.9580 C   0  0  2  0  0  3  0  0  0  0  0  0
  184.7220  178.4470  143.6860 C   0  0  0  0  0  2  0  0  0  0  0  0
  184.3020  178.7040  142.2490 C   0  0  0  0  0  2  0  0  0  0  0  0
  181.0550  179.1270  141.5260 C   0  0  0  0  0  3  0  0  0  0  0  0
  182.7410  177.9860  140.4330 C   0  0  0  0  0  2  0  0  0  0  0  0
  183.0090  177.9720  141.9380 C   0  0  2  0  0  3  0  0  0  0  0  0
  181.5320  178.7100  140.2990 O   0  0  0  0  0  0  0  0  0  0  0  0
  181.8560  178.7370  142.4980 C   0  0  0  0  0  3  0  0  0  0  0  0
  1 26  1  0  0  0  0
  3 16  1  0  0  0  0
  4 23  2  0  0  0  0
  5 19  1  6  0  0  0
  5 15  1  0  0  0  0
  6  7  1  0  0  0  0
  6 19  1  0  0  0  0
  7  3  1  0  0  0  0
  8 12  1  0  0  0  0
  9 27  1  0  0  0  0
 10 17  1  0  0  0  0
 11  5  1  0  0  0  0
 11 20  1  0  0  0  0
 13 20  1  0  0  0  0
 13  9  1  0  0  0  0
 14  2  1  0  0  0  0
 15 12  1  0  0  0  0
 15  4  1  0  0  0  0
 16  8  1  0  0  0  0
 17 25  1  0  0  0  0
 18  4  1  0  0  0  0
 18  1  2  0  0  0  0
 20 18  1  0  0  0  0
 22 24  1  0  0  0  0
 22 10  1  0  0  0  0
 23 21  1  0  0  0  0
 24 13  1  0  0  0  0
 25  9  1  0  0  0  0
 25 14  1  0  0  0  0
 26 21  2  0  0  0  0
 27  1  1  0  0  0  0
 27  2  1  0  0  0  0
 28 17  1  0  0  0  0
 29 28  1  0  0  0  0
 30 34  2  0  0  0  0
 31 32  1  0  0  0  0
 32 29  1  0  0  0  0
 32 34  1  0  0  0  0
 33 31  1  0  0  0  0
 33 30  1  0  0  0  0
M  END
>  <MODEL>
6

>  <REMARK>
 VINA RESULT:      -9.0      2.512      9.773
  Name = 
  3 active torsions:
  status: ('A' for Active; 'I' for Inactive)
    1  A    between atoms: C_17  and  C_28
    2  A    between atoms: C_28  and  C_29
    3  A    between atoms: C_29  and  C_32
                            x       y       z     vdW  Elec       q    Type
                         _______ _______ _______ _____ _____    ______ ____

>  <TORSDO>
F 3

$$$$
=
 OpenBabel11112417573D

 34 40  0  0  1  0  0  0  0  0999 V2000
  189.6140  174.6850  142.0510 C   0  0  0  0  0  0  0  0  0  0  0  0
  187.2230  175.5440  142.4270 C   0  0  0  0  0  2  0  0  0  0  0  0
  196.3930  173.6350  143.4890 O   0  0  0  0  0  0  0  0  0  0  0  0
  191.9860  174.2980  141.5940 C   0  0  0  0  0  0  0  0  0  0  0  0
  193.7410  174.8190  143.4210 C   0  0  1  0  0  3  0  0  0  0  0  0
  195.8180  175.7500  144.4570 C   0  0  0  0  0  2  0  0  0  0  0  0
  196.8790  174.9210  143.7430 C   0  0  0  0  0  2  0  0  0  0  0  0
  195.7390  173.8740  141.1660 C   0  0  0  0  0  2  0  0  0  0  0  0
  188.9900  176.3250  143.7810 C   0  0  2  0  0  3  0  0  0  0  0  0
  188.6090  176.3620  146.8820 C   0  0  0  0  0  2  0  0  0  0  0  0
  192.5180  174.9390  144.3350 C   0  0  0  0  0  2  0  0  0  0  0  0
  194.3360  173.3630  141.4610 C   0  0  0  0  0  2  0  0  0  0  0  0
  190.2320  175.9740  144.5990 C   0  0  1  0  0  3  0  0  0  0  0  0
  186.6070  176.4430  143.4990 C   0  0  0  0  0  2  0  0  0  0  0  0
  193.4490  174.5150  141.9330 C   0  0  1  0  0  3  0  0  0  0  0  0
  196.7600  173.3380  142.1700 C   0  0  0  0  0  2  0  0  0  0  0  0
  187.4600  176.2020  145.8660 C   0  0  2  0  0  3  0  0  0  0  0  0
  190.9750  174.8460  142.4100 C   0  0  0  0  0  0  0  0  0  0  0  0
  194.6350  176.0430  143.5440 C   0  0  0  0  0  2  0  0  0  0  0  0
  191.3830  175.6600  143.6260 C   0  0  2  0  0  3  0  0  0  0  0  0
  190.2840  173.4680  140.0650 C   0  0  0  0  0  3  0  0  0  0  0  0
  189.5560  177.5140  146.5510 C   0  0  0  0  0  2  0  0  0  0  0  0
  191.6250  173.6370  140.4100 C   0  0  0  0  0  3  0  0  0  0  0  0
  190.6430  177.1060  145.5500 C   0  0  0  0  0  2  0  0  0  0  0  0
  187.7260  176.8260  144.4760 C   0  0  1  0  0  3  0  0  0  0  0  0
  189.2810  173.9740  140.8920 C   0  0  0  0  0  3  0  0  0  0  0  0
  188.5460  175.1150  143.0170 C   0  0  2  0  0  3  0  0  0  0  0  0
  186.1880  176.7890  146.4620 C   0  0  0  0  0  2  0  0  0  0  0  0
  186.4280  178.2160  146.9260 C   0  0  0  0  0  2  0  0  0  0  0  0
  184.8150  179.4280  144.2470 C   0  0  0  0  0  3  0  0  0  0  0  0
  184.0670  178.2720  146.1020 C   0  0  0  0  0  2  0  0  0  0  0  0
  185.2860  179.1130  146.4830 C   0  0  2  0  0  3  0  0  0  0  0  0
  183.8710  178.5420  144.7270 O   0  0  0  0  0  0  0  0  0  0  0  0
  185.6490  179.7880  145.2030 C   0  0  0  0  0  3  0  0  0  0  0  0
  1 18  1  0  0  0  0
  1 27  1  0  0  0  0
  2 27  1  0  0  0  0
  2 14  1  0  0  0  0
  3  7  1  0  0  0  0
  4 15  1  0  0  0  0
  4 18  2  0  0  0  0
  5 19  1  6  0  0  0
  5 11  1  0  0  0  0
  7  6  1  0  0  0  0
  8 12  1  0  0  0  0
  8 16  1  0  0  0  0
  9 25  1  0  0  0  0
  9 13  1  0  0  0  0
 12 15  1  0  0  0  0
 13 24  1  0  0  0  0
 14 25  1  0  0  0  0
 15  5  1  0  0  0  0
 16  3  1  0  0  0  0
 17 28  1  0  0  0  0
 17 10  1  0  0  0  0
 18 20  1  0  0  0  0
 19  6  1  0  0  0  0
 20 11  1  0  0  0  0
 20 13  1  0  0  0  0
 21 23  2  0  0  0  0
 21 26  1  0  0  0  0
 22 10  1  0  0  0  0
 23  4  1  0  0  0  0
 24 22  1  0  0  0  0
 25 17  1  0  0  0  0
 26  1  2  0  0  0  0
 27  9  1  0  0  0  0
 28 29  1  0  0  0  0
 30 33  1  0  0  0  0
 30 34  2  0  0  0  0
 31 32  1  0  0  0  0
 32 29  1  0  0  0  0
 33 31  1  0  0  0  0
 34 32  1  0  0  0  0
M  END
>  <MODEL>
7

>  <REMARK>
 VINA RESULT:      -8.8      1.631      8.676
  Name = 
  3 active torsions:
  status: ('A' for Active; 'I' for Inactive)
    1  A    between atoms: C_17  and  C_28
    2  A    between atoms: C_28  and  C_29
    3  A    between atoms: C_29  and  C_32
                            x       y       z     vdW  Elec       q    Type
                         _______ _______ _______ _____ _____    ______ ____

>  <TORSDO>
F 3

$$$$
=
 OpenBabel11112417573D

 34 40  0  0  1  0  0  0  0  0999 V2000
  189.7960  174.3300  144.4710 C   0  0  0  0  0  0  0  0  0  0  0  0
  191.5270  172.8880  143.2380 C   0  0  0  0  0  2  0  0  0  0  0  0
  184.0450  178.2640  145.2360 O   0  0  0  0  0  0  0  0  0  0  0  0
  188.3480  176.0500  145.4360 C   0  0  0  0  0  0  0  0  0  0  0  0
  186.3640  176.9720  144.0550 C   0  0  1  0  0  3  0  0  0  0  0  0
  184.8380  178.6540  143.0080 C   0  0  0  0  0  2  0  0  0  0  0  0
  184.1860  179.2470  144.2520 C   0  0  0  0  0  2  0  0  0  0  0  0
  185.9690  178.7670  146.6230 C   0  0  0  0  0  2  0  0  0  0  0  0
  189.9410  174.1380  142.0190 C   0  0  2  0  0  3  0  0  0  0  0  0
  188.3530  172.7300  139.7250 C   0  0  0  0  0  2  0  0  0  0  0  0
  186.6680  175.7900  143.1290 C   0  0  0  0  0  2  0  0  0  0  0  0
  186.4620  177.3300  146.5410 C   0  0  0  0  0  2  0  0  0  0  0  0
  188.4820  174.5660  141.8730 C   0  0  1  0  0  3  0  0  0  0  0  0
  191.7110  172.5330  141.7630 C   0  0  0  0  0  2  0  0  0  0  0  0
  187.2990  177.1350  145.2770 C   0  0  1  0  0  3  0  0  0  0  0  0
  184.4550  178.8590  146.4360 C   0  0  0  0  0  2  0  0  0  0  0  0
  189.6300  172.1610  140.3770 C   0  0  2  0  0  3  0  0  0  0  0  0
  188.7750  175.3010  144.3200 C   0  0  0  0  0  0  0  0  0  0  0  0
  186.2890  178.2730  143.2710 C   0  0  0  0  0  2  0  0  0  0  0  0
  188.1680  175.6080  142.9620 C   0  0  2  0  0  3  0  0  0  0  0  0
  189.9730  174.8860  146.8240 C   0  0  0  0  0  3  0  0  0  0  0  0
  188.4810  174.1980  139.3230 C   0  0  0  0  0  2  0  0  0  0  0  0
  188.9770  175.8510  146.6740 C   0  0  0  0  0  3  0  0  0  0  0  0
  188.1810  175.1510  140.4860 C   0  0  0  0  0  2  0  0  0  0  0  0
  190.5820  173.2190  140.9820 C   0  0  1  0  0  3  0  0  0  0  0  0
  190.3680  174.1150  145.7310 C   0  0  0  0  0  3  0  0  0  0  0  0
  190.1140  173.4170  143.3210 C   0  0  2  0  0  3  0  0  0  0  0  0
  190.3760  171.3200  139.3510 C   0  0  0  0  0  2  0  0  0  0  0  0
  189.9100  171.6590  137.9450 C   0  0  0  0  0  2  0  0  0  0  0  0
  191.6590  169.3450  136.2630 C   0  0  0  0  0  3  0  0  0  0  0  0
  190.1030  169.1660  137.9620 C   0  0  0  0  0  2  0  0  0  0  0  0
  189.7890  170.3970  137.1100 C   0  0  2  0  0  3  0  0  0  0  0  0
  191.2530  168.6050  137.3570 O   0  0  0  0  0  0  0  0  0  0  0  0
  190.8630  170.3790  136.0750 C   0  0  0  0  0  3  0  0  0  0  0  0
  1 26  1  0  0  0  0
  2 27  1  0  0  0  0
  3 16  1  0  0  0  0
  4 23  2  0  0  0  0
  5 11  1  6  0  0  0
  5 15  1  0  0  0  0
  6 19  1  0  0  0  0
  6  7  1  0  0  0  0
  7  3  1  0  0  0  0
  9 27  1  0  0  0  0
 10 17  1  0  0  0  0
 12  8  1  0  0  0  0
 13  9  1  0  0  0  0
 13 20  1  0  0  0  0
 14  2  1  0  0  0  0
 15  4  1  0  0  0  0
 15 12  1  0  0  0  0
 16  8  1  0  0  0  0
 17 25  1  0  0  0  0
 18  1  2  0  0  0  0
 18  4  1  0  0  0  0
 19  5  1  0  0  0  0
 20 11  1  0  0  0  0
 20 18  1  0  0  0  0
 22 10  1  0  0  0  0
 22 24  1  0  0  0  0
 23 21  1  0  0  0  0
 24 13  1  0  0  0  0
 25 14  1  0  0  0  0
 25  9  1  0  0  0  0
 26 21  2  0  0  0  0
 27  1  1  0  0  0  0
 28 17  1  0  0  0  0
 29 28  1  0  0  0  0
 30 33  1  0  0  0  0
 32 29  1  0  0  0  0
 32 31  1  0  0  0  0
 33 31  1  0  0  0  0
 34 30  2  0  0  0  0
 34 32  1  0  0  0  0
M  END
>  <MODEL>
8

>  <REMARK>
 VINA RESULT:      -8.8      3.526      6.245
  Name = 
  3 active torsions:
  status: ('A' for Active; 'I' for Inactive)
    1  A    between atoms: C_17  and  C_28
    2  A    between atoms: C_28  and  C_29
    3  A    between atoms: C_29  and  C_32
                            x       y       z     vdW  Elec       q    Type
                         _______ _______ _______ _____ _____    ______ ____

>  <TORSDO>
F 3

$$$$
=
 OpenBabel11112417573D

 34 40  0  0  1  0  0  0  0  0999 V2000
  192.0380  176.3930  145.7350 C   0  0  0  0  0  0  0  0  0  0  0  0
  189.7190  176.5570  146.8260 C   0  0  0  0  0  2  0  0  0  0  0  0
  196.6930  175.9000  140.5180 O   0  0  0  0  0  0  0  0  0  0  0  0
  194.1400  175.8010  144.6320 C   0  0  0  0  0  0  0  0  0  0  0  0
  194.2360  175.6680  142.0510 C   0  0  1  0  0  3  0  0  0  0  0  0
  194.7320  174.7360  139.7840 C   0  0  0  0  0  2  0  0  0  0  0  0
  196.2560  174.7890  139.7890 C   0  0  0  0  0  2  0  0  0  0  0  0
  197.2280  174.8420  142.6330 C   0  0  0  0  0  2  0  0  0  0  0  0
  189.9190  175.9870  144.5450 C   0  0  2  0  0  3  0  0  0  0  0  0
  188.1320  177.4770  142.4590 C   0  0  0  0  0  2  0  0  0  0  0  0
  192.8660  176.3480  142.1250 C   0  0  0  0  0  2  0  0  0  0  0  0
  196.3520  175.8240  143.3970 C   0  0  0  0  0  2  0  0  0  0  0  0
  190.5850  176.2810  143.2020 C   0  0  1  0  0  3  0  0  0  0  0  0
  188.3030  176.4730  146.2570 C   0  0  0  0  0  2  0  0  0  0  0  0
  194.9040  175.3360  143.4060 C   0  0  1  0  0  3  0  0  0  0  0  0
  197.7430  175.4410  141.3250 C   0  0  0  0  0  2  0  0  0  0  0  0
  187.8900  177.4940  143.9810 C   0  0  2  0  0  3  0  0  0  0  0  0
  192.7480  176.0140  144.5690 C   0  0  0  0  0  0  0  0  0  0  0  0
  194.1830  174.4290  141.1710 C   0  0  0  0  0  2  0  0  0  0  0  0
  192.0330  175.7600  143.2520 C   0  0  2  0  0  3  0  0  0  0  0  0
  194.0970  176.3140  147.0110 C   0  0  0  0  0  3  0  0  0  0  0  0
  188.3730  176.0760  141.8980 C   0  0  0  0  0  2  0  0  0  0  0  0
  194.7960  175.9270  145.8670 C   0  0  0  0  0  3  0  0  0  0  0  0
  189.8370  175.6400  142.0270 C   0  0  0  0  0  2  0  0  0  0  0  0
  188.4290  176.2600  144.7430 C   0  0  1  0  0  3  0  0  0  0  0  0
  192.7270  176.5640  146.9420 C   0  0  0  0  0  3  0  0  0  0  0  0
  190.5940  176.7900  145.6160 C   0  0  2  0  0  3  0  0  0  0  0  0
  186.3980  177.6510  144.2430 C   0  0  0  0  0  2  0  0  0  0  0  0
  186.0820  179.0750  144.6700 C   0  0  0  0  0  2  0  0  0  0  0  0
  184.8230  177.1850  147.1380 C   0  0  0  0  0  3  0  0  0  0  0  0
  185.8800  179.2390  147.1570 C   0  0  0  0  0  2  0  0  0  0  0  0
  185.1170  179.0710  145.8430 C   0  0  2  0  0  3  0  0  0  0  0  0
  185.6300  178.0390  147.8640 O   0  0  0  0  0  0  0  0  0  0  0  0
  184.5000  177.7190  145.9770 C   0  0  0  0  0  3  0  0  0  0  0  0
  1 26  1  0  0  0  0
  3 16  1  0  0  0  0
  4 23  2  0  0  0  0
  5 19  1  6  0  0  0
  5 11  1  0  0  0  0
  5 15  1  0  0  0  0
  6  7  1  0  0  0  0
  6 19  1  0  0  0  0
  7  3  1  0  0  0  0
  8 12  1  0  0  0  0
  9 25  1  0  0  0  0
  9 27  1  0  0  0  0
 10 17  1  0  0  0  0
 11 20  1  0  0  0  0
 12 15  1  0  0  0  0
 13 20  1  0  0  0  0
 13  9  1  0  0  0  0
 14  2  1  0  0  0  0
 15  4  1  0  0  0  0
 16  8  1  0  0  0  0
 17 28  1  0  0  0  0
 17 25  1  0  0  0  0
 18  4  1  0  0  0  0
 18  1  2  0  0  0  0
 20 18  1  0  0  0  0
 22 24  1  0  0  0  0
 22 10  1  0  0  0  0
 23 21  1  0  0  0  0
 24 13  1  0  0  0  0
 25 14  1  0  0  0  0
 26 21  2  0  0  0  0
 27  1  1  0  0  0  0
 27  2  1  0  0  0  0
 28 29  1  0  0  0  0
 29 32  1  0  0  0  0
 30 33  1  0  0  0  0
 31 33  1  0  0  0  0
 32 34  1  0  0  0  0
 32 31  1  0  0  0  0
 34 30  2  0  0  0  0
M  END
>  <MODEL>
9

>  <REMARK>
 VINA RESULT:      -8.7      2.013      9.220
  Name = 
  3 active torsions:
  status: ('A' for Active; 'I' for Inactive)
    1  A    between atoms: C_17  and  C_28
    2  A    between atoms: C_28  and  C_29
    3  A    between atoms: C_29  and  C_32
                            x       y       z     vdW  Elec       q    Type
                         _______ _______ _______ _____ _____    ______ ____

>  <TORSDO>
F 3

$$$$
