=
 OpenBabel11112418093D

 34 42  0  0  1  0  0  0  0  0999 V2000
  189.2410  174.9830  143.4220 C   0  0  2  0  0  3  0  0  0  0  0  0
  191.0930  173.3120  143.1830 C   0  0  0  0  0  2  0  0  0  0  0  0
  184.9450  178.9870  146.7510 C   0  0  2  0  0  3  0  0  0  0  0  0
  187.6110  176.8560  143.7380 C   0  0  1  0  0  3  0  0  0  0  0  0
  186.9230  177.4140  146.2140 C   0  0  2  0  0  3  0  0  0  0  0  0
  186.4690  178.2170  148.4250 O   0  0  0  0  0  1  0  0  0  0  0  0
  184.0650  177.8820  146.1870 C   0  0  0  0  0  2  0  0  0  0  0  0
  185.5520  178.4190  144.2230 C   0  0  1  0  0  3  0  0  0  0  0  0
  190.7920  174.3170  145.3070 C   0  0  2  0  0  3  0  0  0  0  0  0
  193.1970  175.7150  146.6980 C   0  0  0  0  0  2  0  0  0  0  0  0
  188.4010  177.1670  146.4850 C   0  0  0  0  0  2  0  0  0  0  0  0
  186.8120  179.0310  144.3850 O   0  0  0  0  0  0  0  0  0  0  0  0
  190.3680  175.6960  145.8600 C   0  0  1  0  0  3  0  0  0  0  0  0
  192.2970  173.9650  143.4880 O   0  0  0  0  0  0  0  0  0  0  0  0
  186.7400  177.6630  144.7160 C   0  0  2  0  0  0  0  0  0  0  0  0
  184.5640  178.9870  145.2650 C   0  0  2  0  0  3  0  0  0  0  0  0
  193.1550  175.4260  145.2010 C   0  0  2  0  0  3  0  0  0  0  0  0
  188.2540  175.6270  144.4050 C   0  0  2  0  0  3  0  0  0  0  0  0
  186.3850  178.5560  147.0730 C   0  0  2  0  0  3  0  0  0  0  0  0
  188.8460  175.8580  145.8240 C   0  0  2  0  0  3  0  0  0  0  0  0
  187.7810  175.6900  141.5170 C   0  0  0  0  0  2  0  0  0  0  0  0
  192.0080  176.5810  147.0940 C   0  0  0  0  0  2  0  0  0  0  0  0
  186.8420  176.4000  142.4930 C   0  0  0  0  0  2  0  0  0  0  0  0
  190.8410  175.8110  147.1740 O   0  0  0  0  0  0  0  0  0  0  0  0
  192.2590  174.2190  144.8690 C   0  0  1  0  0  3  0  0  0  0  0  0
  188.4700  174.5040  142.1910 C   0  0  0  0  0  2  0  0  0  0  0  0
  190.0080  173.8410  144.0950 C   0  0  1  0  0  3  0  0  0  0  0  0
  194.4540  175.1830  144.7480 O   0  0  0  0  0  0  0  0  0  0  0  0
  195.2250  175.0740  145.9110 C   0  0  0  0  0  2  0  0  0  0  0  0
  197.9410  172.8950  143.8360 S   0  0  0  0  0  0  0  0  0  0  0  0
  196.0160  172.7000  145.7260 C   0  0  0  0  0  2  0  0  0  0  0  0
  196.4200  174.1550  145.6890 C   0  0  1  0  0  3  0  0  0  0  0  0
  197.1860  171.9200  145.1750 C   0  0  0  0  0  2  0  0  0  0  0  0
  197.0730  174.4100  144.3480 C   0  0  0  0  0  2  0  0  0  0  0  0
  1 26  1  6  0  0  0
  1 27  1  0  0  0  0
  1 18  1  0  0  0  0
  2 14  1  0  0  0  0
  2 27  1  0  0  0  0
  3  7  1  1  0  0  0
  3 19  1  0  0  0  0
  4 23  1  6  0  0  0
  4 18  1  0  0  0  0
  4 15  1  0  0  0  0
  5 11  1  6  0  0  0
  5 19  1  0  0  0  0
  8 12  1  1  0  0  0
  8 15  1  0  0  0  0
  8 16  1  0  0  0  0
  9 13  1  0  0  0  0
 10 22  1  0  0  0  0
 12 15  1  0  0  0  0
 13 24  1  0  0  0  0
 14 25  1  0  0  0  0
 15  5  1  0  0  0  0
 16  7  1  0  0  0  0
 16  3  1  0  0  0  0
 17 10  1  0  0  0  0
 18 20  1  0  0  0  0
 19  6  1  0  0  0  0
 20 13  1  0  0  0  0
 20 11  1  0  0  0  0
 21 26  1  0  0  0  0
 21 23  1  0  0  0  0
 22 24  1  0  0  0  0
 25 17  1  0  0  0  0
 25  9  1  0  0  0  0
 27  9  1  0  0  0  0
 28 17  1  0  0  0  0
 28 29  1  0  0  0  0
 30 34  1  0  0  0  0
 30 33  1  0  0  0  0
 32 31  1  0  0  0  0
 32 29  1  0  0  0  0
 33 31  1  0  0  0  0
 34 32  1  0  0  0  0
M  END
>  <MODEL>
1

>  <REMARK>
 VINA RESULT:      -9.1      0.000      0.000
  Name = 
  3 active torsions:
  status: ('A' for Active; 'I' for Inactive)
    1  A    between atoms: C_17  and  O_28
    2  A    between atoms: O_28  and  C_29
    3  A    between atoms: C_29  and  C_32
                            x       y       z     vdW  Elec       q    Type
                         _______ _______ _______ _____ _____    ______ ____

>  <TORSDO>
F 3

$$$$
=
 OpenBabel11112418093D

 34 42  0  0  1  0  0  0  0  0999 V2000
  187.9090  176.3730  141.9780 C   0  0  2  0  0  3  0  0  0  0  0  0
  186.4980  177.3720  140.1650 C   0  0  0  0  0  2  0  0  0  0  0  0
  191.1710  176.2520  147.8880 C   0  0  2  0  0  3  0  0  0  0  0  0
  189.0570  175.3550  143.9560 C   0  0  1  0  0  3  0  0  0  0  0  0
  189.6130  176.9710  145.9560 C   0  0  2  0  0  3  0  0  0  0  0  0
  189.8810  178.2640  147.9540 O   0  0  0  0  0  1  0  0  0  0  0  0
  192.2820  176.2850  146.8480 C   0  0  0  0  0  2  0  0  0  0  0  0
  190.6970  174.5890  145.8650 C   0  0  1  0  0  3  0  0  0  0  0  0
  186.5700  178.5030  142.2440 C   0  0  2  0  0  3  0  0  0  0  0  0
  183.9130  179.1950  143.7070 C   0  0  0  0  0  2  0  0  0  0  0  0
  188.2350  177.5370  145.6390 C   0  0  0  0  0  2  0  0  0  0  0  0
  189.3300  174.5560  146.2090 O   0  0  0  0  0  0  0  0  0  0  0  0
  186.6630  178.1250  143.7400 C   0  0  1  0  0  3  0  0  0  0  0  0
  185.1770  177.4240  140.6340 O   0  0  0  0  0  0  0  0  0  0  0  0
  189.7220  175.5810  145.3250 C   0  0  2  0  0  0  0  0  0  0  0  0
  191.5310  174.9850  147.1020 C   0  0  2  0  0  3  0  0  0  0  0  0
  184.0120  178.1280  142.6220 C   0  0  2  0  0  3  0  0  0  0  0  0
  188.7250  176.6780  143.2430 C   0  0  2  0  0  3  0  0  0  0  0  0
  189.8730  176.9590  147.4600 C   0  0  2  0  0  3  0  0  0  0  0  0
  188.1040  177.7910  144.1330 C   0  0  2  0  0  3  0  0  0  0  0  0
  189.1510  174.2160  141.7170 C   0  0  0  0  0  2  0  0  0  0  0  0
  184.8700  178.8680  144.8470 C   0  0  0  0  0  2  0  0  0  0  0  0
  189.9040  174.4850  143.0200 C   0  0  0  0  0  2  0  0  0  0  0  0
  186.1850  179.2000  144.5000 O   0  0  0  0  0  0  0  0  0  0  0  0
  185.1630  178.4060  141.6390 C   0  0  1  0  0  3  0  0  0  0  0  0
  188.7630  175.5270  141.0330 C   0  0  0  0  0  2  0  0  0  0  0  0
  187.4350  177.6690  141.3140 C   0  0  1  0  0  3  0  0  0  0  0  0
  182.8030  178.0760  141.9240 O   0  0  0  0  0  0  0  0  0  0  0  0
  181.9410  178.9160  142.6370 C   0  0  0  0  0  2  0  0  0  0  0  0
  178.0770  178.6260  141.4470 S   0  0  0  0  0  0  0  0  0  0  0  0
  180.6240  178.3990  140.5650 C   0  0  0  0  0  2  0  0  0  0  0  0
  180.6900  179.2290  141.8260 C   0  0  1  0  0  3  0  0  0  0  0  0
  179.2190  178.5490  140.0310 C   0  0  0  0  0  2  0  0  0  0  0  0
  179.4310  178.9500  142.6190 C   0  0  0  0  0  2  0  0  0  0  0  0
  1 26  1  6  0  0  0
  1 18  1  0  0  0  0
  2 14  1  0  0  0  0
  2 27  1  0  0  0  0
  3  7  1  6  0  0  0
  4 23  1  6  0  0  0
  4 15  1  0  0  0  0
  5 11  1  1  0  0  0
  5 19  1  0  0  0  0
  7 16  1  0  0  0  0
  8 12  1  1  0  0  0
  8 16  1  0  0  0  0
  9 13  1  0  0  0  0
 10 22  1  0  0  0  0
 13 20  1  0  0  0  0
 13 24  1  0  0  0  0
 14 25  1  0  0  0  0
 15  8  1  0  0  0  0
 15  5  1  0  0  0  0
 15 12  1  0  0  0  0
 16  3  1  0  0  0  0
 17 10  1  0  0  0  0
 18  4  1  0  0  0  0
 18 20  1  0  0  0  0
 19  3  1  0  0  0  0
 19  6  1  0  0  0  0
 20 11  1  0  0  0  0
 21 23  1  0  0  0  0
 24 22  1  0  0  0  0
 25  9  1  0  0  0  0
 25 17  1  0  0  0  0
 26 21  1  0  0  0  0
 27  1  1  0  0  0  0
 27  9  1  0  0  0  0
 28 17  1  0  0  0  0
 28 29  1  0  0  0  0
 30 34  1  0  0  0  0
 31 32  1  0  0  0  0
 32 34  1  0  0  0  0
 32 29  1  0  0  0  0
 33 31  1  0  0  0  0
 33 30  1  0  0  0  0
M  END
>  <MODEL>
2

>  <REMARK>
 VINA RESULT:      -9.0      4.553      9.468
  Name = 
  3 active torsions:
  status: ('A' for Active; 'I' for Inactive)
    1  A    between atoms: C_17  and  O_28
    2  A    between atoms: O_28  and  C_29
    3  A    between atoms: C_29  and  C_32
                            x       y       z     vdW  Elec       q    Type
                         _______ _______ _______ _____ _____    ______ ____

>  <TORSDO>
F 3

$$$$
=
 OpenBabel11112418093D

 34 42  0  0  1  0  0  0  0  0999 V2000
  189.1790  175.0080  143.2470 C   0  0  2  0  0  3  0  0  0  0  0  0
  191.0140  173.3380  142.8930 C   0  0  0  0  0  2  0  0  0  0  0  0
  184.9870  178.8850  146.8480 C   0  0  2  0  0  3  0  0  0  0  0  0
  187.5700  176.8750  143.6830 C   0  0  1  0  0  3  0  0  0  0  0  0
  186.9410  177.3250  146.1970 C   0  0  2  0  0  3  0  0  0  0  0  0
  186.5430  178.0320  148.4510 O   0  0  0  0  0  1  0  0  0  0  0  0
  184.0870  177.8120  146.2550 C   0  0  0  0  0  2  0  0  0  0  0  0
  185.5330  178.4270  144.2840 C   0  0  1  0  0  3  0  0  0  0  0  0
  190.7670  174.2490  145.0650 C   0  0  2  0  0  3  0  0  0  0  0  0
  193.2130  175.5690  146.4620 C   0  0  0  0  0  2  0  0  0  0  0  0
  188.4230  177.0580  146.4230 C   0  0  0  0  0  2  0  0  0  0  0  0
  186.8010  179.0240  144.4450 O   0  0  0  0  0  0  0  0  0  0  0  0
  190.3660  175.6050  145.6890 C   0  0  1  0  0  3  0  0  0  0  0  0
  192.2280  173.9700  143.1980 O   0  0  0  0  0  0  0  0  0  0  0  0
  186.7260  177.6430  144.7160 C   0  0  2  0  0  0  0  0  0  0  0  0
  184.5740  178.9530  145.3730 C   0  0  2  0  0  3  0  0  0  0  0  0
  193.1350  175.3470  144.9550 C   0  0  2  0  0  3  0  0  0  0  0  0
  188.2190  175.6140  144.2810 C   0  0  2  0  0  3  0  0  0  0  0  0
  186.4320  178.4320  147.1180 C   0  0  2  0  0  3  0  0  0  0  0  0
  188.8440  175.7780  145.6950 C   0  0  2  0  0  3  0  0  0  0  0  0
  187.6820  175.8090  141.4090 C   0  0  0  0  0  2  0  0  0  0  0  0
  192.0390  176.4230  146.9230 C   0  0  0  0  0  2  0  0  0  0  0  0
  186.7700  176.4800  142.4370 C   0  0  0  0  0  2  0  0  0  0  0  0
  190.8680  175.6580  146.9950 O   0  0  0  0  0  0  0  0  0  0  0  0
  192.2240  174.1620  144.5900 C   0  0  1  0  0  3  0  0  0  0  0  0
  188.3770  174.5890  142.0140 C   0  0  0  0  0  2  0  0  0  0  0  0
  189.9530  173.8320  143.8510 C   0  0  1  0  0  3  0  0  0  0  0  0
  194.4220  175.1170  144.4620 O   0  0  0  0  0  0  0  0  0  0  0  0
  195.0340  176.3750  144.4570 C   0  0  0  0  0  2  0  0  0  0  0  0
  196.8510  175.7210  140.8930 S   0  0  0  0  0  0  0  0  0  0  0  0
  197.1190  175.3100  143.5530 C   0  0  0  0  0  2  0  0  0  0  0  0
  196.1310  176.4430  143.4020 C   0  0  1  0  0  3  0  0  0  0  0  0
  197.9410  175.2910  142.2860 C   0  0  0  0  0  2  0  0  0  0  0  0
  195.5600  176.3630  142.0030 C   0  0  0  0  0  2  0  0  0  0  0  0
  1 26  1  6  0  0  0
  1 27  1  0  0  0  0
  1 18  1  0  0  0  0
  2 14  1  0  0  0  0
  2 27  1  0  0  0  0
  3  7  1  1  0  0  0
  3 19  1  0  0  0  0
  4 23  1  6  0  0  0
  4 18  1  0  0  0  0
  4 15  1  0  0  0  0
  5 11  1  6  0  0  0
  5 19  1  0  0  0  0
  8 12  1  1  0  0  0
  8 15  1  0  0  0  0
  8 16  1  0  0  0  0
  9 13  1  0  0  0  0
 10 22  1  0  0  0  0
 12 15  1  0  0  0  0
 13 20  1  0  0  0  0
 13 24  1  0  0  0  0
 14 25  1  0  0  0  0
 15  5  1  0  0  0  0
 16  7  1  0  0  0  0
 16  3  1  0  0  0  0
 17 10  1  0  0  0  0
 18 20  1  0  0  0  0
 19  6  1  0  0  0  0
 20 11  1  0  0  0  0
 21 26  1  0  0  0  0
 21 23  1  0  0  0  0
 22 24  1  0  0  0  0
 25 17  1  0  0  0  0
 25  9  1  0  0  0  0
 27  9  1  0  0  0  0
 28 17  1  0  0  0  0
 29 28  1  0  0  0  0
 30 34  1  0  0  0  0
 30 33  1  0  0  0  0
 32 31  1  0  0  0  0
 32 29  1  0  0  0  0
 33 31  1  0  0  0  0
 34 32  1  0  0  0  0
M  END
>  <MODEL>
3

>  <REMARK>
 VINA RESULT:      -8.9      1.300      1.514
  Name = 
  3 active torsions:
  status: ('A' for Active; 'I' for Inactive)
    1  A    between atoms: C_17  and  O_28
    2  A    between atoms: O_28  and  C_29
    3  A    between atoms: C_29  and  C_32
                            x       y       z     vdW  Elec       q    Type
                         _______ _______ _______ _____ _____    ______ ____

>  <TORSDO>
F 3

$$$$
=
 OpenBabel11112418093D

 34 42  0  0  1  0  0  0  0  0999 V2000
  192.0300  175.7220  145.8980 C   0  0  2  0  0  3  0  0  0  0  0  0
  189.8080  176.8420  146.1960 C   0  0  0  0  0  2  0  0  0  0  0  0
  196.2210  170.5850  144.6230 C   0  0  2  0  0  3  0  0  0  0  0  0
  194.1870  174.6030  145.2970 C   0  0  1  0  0  3  0  0  0  0  0  0
  194.0800  172.0180  144.8220 C   0  0  2  0  0  3  0  0  0  0  0  0
  194.0530  169.7470  144.0610 O   0  0  0  0  0  1  0  0  0  0  0  0
  196.3950  170.8500  146.1110 C   0  0  0  0  0  2  0  0  0  0  0  0
  196.3990  173.1860  145.1630 C   0  0  1  0  0  3  0  0  0  0  0  0
  189.8270  174.6920  145.2010 C   0  0  2  0  0  3  0  0  0  0  0  0
  188.4370  174.2620  142.4520 C   0  0  0  0  0  2  0  0  0  0  0  0
  192.7840  172.3890  144.1140 C   0  0  0  0  0  2  0  0  0  0  0  0
  195.8110  173.4870  143.9160 O   0  0  0  0  0  0  0  0  0  0  0  0
  190.7450  173.8880  144.2530 C   0  0  1  0  0  3  0  0  0  0  0  0
  189.2320  176.9870  144.9250 O   0  0  0  0  0  0  0  0  0  0  0  0
  194.9200  173.2850  144.9900 C   0  0  2  0  0  0  0  0  0  0  0  0
  197.0470  171.7850  145.1020 C   0  0  2  0  0  3  0  0  0  0  0  0
  188.8550  175.6350  142.9670 C   0  0  2  0  0  3  0  0  0  0  0  0
  192.7470  174.3690  145.7860 C   0  0  2  0  0  3  0  0  0  0  0  0
  194.8220  170.9120  144.0750 C   0  0  2  0  0  3  0  0  0  0  0  0
  191.9330  173.2930  145.0130 C   0  0  2  0  0  3  0  0  0  0  0  0
  194.2020  176.8030  146.5130 C   0  0  0  0  0  2  0  0  0  0  0  0
  189.6490  173.3410  142.3840 C   0  0  0  0  0  2  0  0  0  0  0  0
  194.9260  175.4700  146.3230 C   0  0  0  0  0  2  0  0  0  0  0  0
  189.9860  172.8710  143.6590 O   0  0  0  0  0  0  0  0  0  0  0  0
  188.8930  175.6900  144.5050 C   0  0  1  0  0  3  0  0  0  0  0  0
  192.7520  176.5780  146.9400 C   0  0  0  0  0  2  0  0  0  0  0  0
  190.5510  175.5250  146.2450 C   0  0  1  0  0  3  0  0  0  0  0  0
  187.9590  176.5930  142.4860 O   0  0  0  0  0  0  0  0  0  0  0  0
  186.6910  176.0660  142.7580 C   0  0  0  0  0  2  0  0  0  0  0  0
  185.5660  179.7060  144.1450 S   0  0  0  0  0  0  0  0  0  0  0  0
  185.5660  177.0720  144.7630 C   0  0  0  0  0  2  0  0  0  0  0  0
  185.7480  177.1510  143.2660 C   0  0  1  0  0  3  0  0  0  0  0  0
  184.9000  178.3630  145.1780 C   0  0  0  0  0  2  0  0  0  0  0  0
  186.2710  178.5340  142.9440 C   0  0  0  0  0  2  0  0  0  0  0  0
  1 27  1  0  0  0  0
  1 26  1  1  0  0  0
  2 27  1  0  0  0  0
  3 16  1  0  0  0  0
  3  7  1  1  0  0  0
  4 18  1  0  0  0  0
  4 23  1  1  0  0  0
  5 11  1  6  0  0  0
  5 15  1  0  0  0  0
  6 19  1  0  0  0  0
  8 12  1  6  0  0  0
  9 27  1  0  0  0  0
 10 17  1  0  0  0  0
 11 20  1  0  0  0  0
 12 15  1  0  0  0  0
 13 20  1  0  0  0  0
 13  9  1  0  0  0  0
 14  2  1  0  0  0  0
 15  8  1  0  0  0  0
 15  4  1  0  0  0  0
 16  8  1  0  0  0  0
 16  7  1  0  0  0  0
 17 25  1  0  0  0  0
 18  1  1  0  0  0  0
 19  3  1  0  0  0  0
 19  5  1  0  0  0  0
 20 18  1  0  0  0  0
 21 26  1  0  0  0  0
 22 10  1  0  0  0  0
 22 24  1  0  0  0  0
 23 21  1  0  0  0  0
 24 13  1  0  0  0  0
 25 14  1  0  0  0  0
 25  9  1  0  0  0  0
 28 29  1  0  0  0  0
 28 17  1  0  0  0  0
 29 32  1  0  0  0  0
 30 33  1  0  0  0  0
 31 33  1  0  0  0  0
 32 31  1  0  0  0  0
 34 32  1  0  0  0  0
 34 30  1  0  0  0  0
M  END
>  <MODEL>
4

>  <REMARK>
 VINA RESULT:      -8.6      2.976      9.057
  Name = 
  3 active torsions:
  status: ('A' for Active; 'I' for Inactive)
    1  A    between atoms: C_17  and  O_28
    2  A    between atoms: O_28  and  C_29
    3  A    between atoms: C_29  and  C_32
                            x       y       z     vdW  Elec       q    Type
                         _______ _______ _______ _____ _____    ______ ____

>  <TORSDO>
F 3

$$$$
=
 OpenBabel11112418093D

 34 42  0  0  1  0  0  0  0  0999 V2000
  189.6800  173.9830  142.8040 C   0  0  2  0  0  3  0  0  0  0  0  0
  191.2300  172.1950  143.6280 C   0  0  0  0  0  2  0  0  0  0  0  0
  185.2860  179.0770  143.3820 C   0  0  2  0  0  3  0  0  0  0  0  0
  188.3490  175.9730  142.0710 C   0  0  1  0  0  3  0  0  0  0  0  0
  187.0580  177.2840  143.9510 C   0  0  2  0  0  3  0  0  0  0  0  0
  186.1060  178.7350  145.6020 O   0  0  0  0  0  1  0  0  0  0  0  0
  184.4480  177.9160  142.8660 C   0  0  0  0  0  2  0  0  0  0  0  0
  186.5140  177.7450  141.4310 C   0  0  1  0  0  3  0  0  0  0  0  0
  190.4790  173.8020  145.1980 C   0  0  2  0  0  3  0  0  0  0  0  0
  192.5570  175.3820  146.8890 C   0  0  0  0  0  2  0  0  0  0  0  0
  188.3320  177.0290  144.7460 C   0  0  0  0  0  2  0  0  0  0  0  0
  187.7510  178.2910  141.8340 O   0  0  0  0  0  0  0  0  0  0  0  0
  190.1360  175.3090  145.2050 C   0  0  1  0  0  3  0  0  0  0  0  0
  192.3780  172.8260  144.1310 O   0  0  0  0  0  0  0  0  0  0  0  0
  187.3680  177.0900  142.4650 C   0  0  2  0  0  0  0  0  0  0  0  0
  185.3670  178.6620  141.9070 C   0  0  2  0  0  3  0  0  0  0  0  0
  192.9130  174.6660  145.5910 C   0  0  2  0  0  3  0  0  0  0  0  0
  188.5620  174.9560  143.2070 C   0  0  2  0  0  3  0  0  0  0  0  0
  186.4800  178.6630  144.2590 C   0  0  2  0  0  3  0  0  0  0  0  0
  188.7380  175.5560  144.6310 C   0  0  2  0  0  3  0  0  0  0  0  0
  188.9790  174.1930  140.4110 C   0  0  0  0  0  2  0  0  0  0  0  0
  191.4570  176.4050  146.6350 C   0  0  0  0  0  2  0  0  0  0  0  0
  187.9190  175.2220  140.8060 C   0  0  0  0  0  2  0  0  0  0  0  0
  190.2120  175.7750  146.5240 O   0  0  0  0  0  0  0  0  0  0  0  0
  191.9750  173.4790  145.3080 C   0  0  1  0  0  3  0  0  0  0  0  0
  189.2410  173.2150  141.5570 C   0  0  0  0  0  2  0  0  0  0  0  0
  190.0230  173.0430  143.9640 C   0  0  1  0  0  3  0  0  0  0  0  0
  194.2320  174.2120  145.6680 O   0  0  0  0  0  0  0  0  0  0  0  0
  195.0070  175.3750  145.7480 C   0  0  0  0  0  2  0  0  0  0  0  0
  196.5050  175.9140  142.0210 S   0  0  0  0  0  0  0  0  0  0  0  0
  196.1940  174.0640  143.9690 C   0  0  0  0  0  2  0  0  0  0  0  0
  196.0550  175.4080  144.6420 C   0  0  1  0  0  3  0  0  0  0  0  0
  196.9930  174.3010  142.7080 C   0  0  0  0  0  2  0  0  0  0  0  0
  195.6990  176.4180  143.5720 C   0  0  0  0  0  2  0  0  0  0  0  0
  1 26  1  6  0  0  0
  1 18  1  0  0  0  0
  1 27  1  0  0  0  0
  2 27  1  0  0  0  0
  2 14  1  0  0  0  0
  3  7  1  1  0  0  0
  3 19  1  0  0  0  0
  4 23  1  6  0  0  0
  4 15  1  0  0  0  0
  4 18  1  0  0  0  0
  5 19  1  0  0  0  0
  5 11  1  1  0  0  0
  8 12  1  6  0  0  0
  8 16  1  0  0  0  0
  8 15  1  0  0  0  0
  9 13  1  0  0  0  0
  9 25  1  0  0  0  0
 12 15  1  0  0  0  0
 13 24  1  0  0  0  0
 14 25  1  0  0  0  0
 15  5  1  0  0  0  0
 16  7  1  0  0  0  0
 16  3  1  0  0  0  0
 17 28  1  0  0  0  0
 17 10  1  0  0  0  0
 18 20  1  0  0  0  0
 19  6  1  0  0  0  0
 20 11  1  0  0  0  0
 20 13  1  0  0  0  0
 21 23  1  0  0  0  0
 21 26  1  0  0  0  0
 22 10  1  0  0  0  0
 24 22  1  0  0  0  0
 25 17  1  0  0  0  0
 27  9  1  0  0  0  0
 28 29  1  0  0  0  0
 30 33  1  0  0  0  0
 30 34  1  0  0  0  0
 31 32  1  0  0  0  0
 32 29  1  0  0  0  0
 33 31  1  0  0  0  0
 34 32  1  0  0  0  0
M  END
>  <MODEL>
5

>  <REMARK>
 VINA RESULT:      -8.4      1.686      2.136
  Name = 
  3 active torsions:
  status: ('A' for Active; 'I' for Inactive)
    1  A    between atoms: C_17  and  O_28
    2  A    between atoms: O_28  and  C_29
    3  A    between atoms: C_29  and  C_32
                            x       y       z     vdW  Elec       q    Type
                         _______ _______ _______ _____ _____    ______ ____

>  <TORSDO>
F 3

$$$$
=
 OpenBabel11112418093D

 34 42  0  0  1  0  0  0  0  0999 V2000
  190.1790  175.7400  144.7370 C   0  0  2  0  0  3  0  0  0  0  0  0
  192.2690  174.5710  143.9980 C   0  0  0  0  0  2  0  0  0  0  0  0
  184.2080  178.7850  143.9300 C   0  0  2  0  0  3  0  0  0  0  0  0
  187.9420  176.6410  145.4090 C   0  0  1  0  0  3  0  0  0  0  0  0
  186.3550  177.4260  143.4640 C   0  0  2  0  0  3  0  0  0  0  0  0
  184.7120  177.8710  141.7790 O   0  0  0  0  0  1  0  0  0  0  0  0
  185.1480  179.9090  144.3400 C   0  0  0  0  0  2  0  0  0  0  0  0
  185.8000  178.0730  145.9400 C   0  0  1  0  0  3  0  0  0  0  0  0
  190.5200  174.7930  142.4150 C   0  0  2  0  0  3  0  0  0  0  0  0
  189.4470  172.2670  140.9510 C   0  0  0  0  0  2  0  0  0  0  0  0
  186.8900  176.1790  142.7730 C   0  0  0  0  0  2  0  0  0  0  0  0
  185.5500  176.7130  145.6590 O   0  0  0  0  0  0  0  0  0  0  0  0
  188.9750  174.7810  142.4220 C   0  0  1  0  0  3  0  0  0  0  0  0
  191.9150  173.2700  143.6120 O   0  0  0  0  0  0  0  0  0  0  0  0
  186.6260  177.3030  144.9650 C   0  0  2  0  0  0  0  0  0  0  0  0
  184.6410  178.9340  145.3940 C   0  0  2  0  0  3  0  0  0  0  0  0
  190.2360  172.2010  142.2550 C   0  0  2  0  0  3  0  0  0  0  0  0
  188.9720  176.5650  144.2680 C   0  0  2  0  0  3  0  0  0  0  0  0
  184.8780  177.6440  143.1460 C   0  0  2  0  0  3  0  0  0  0  0  0
  188.4180  176.1310  142.8810 C   0  0  2  0  0  3  0  0  0  0  0  0
  189.8320  176.5840  147.0660 C   0  0  0  0  0  2  0  0  0  0  0  0
  188.2010  173.1230  141.1400 C   0  0  0  0  0  2  0  0  0  0  0  0
  188.5840  177.3420  146.6120 C   0  0  0  0  0  2  0  0  0  0  0  0
  188.5290  174.4840  141.1270 O   0  0  0  0  0  0  0  0  0  0  0  0
  191.1780  173.4070  142.4240 C   0  0  1  0  0  3  0  0  0  0  0  0
  190.8350  176.4520  145.9200 C   0  0  0  0  0  2  0  0  0  0  0  0
  191.1640  175.5190  143.5850 C   0  0  1  0  0  3  0  0  0  0  0  0
  190.9800  171.0190  142.2770 O   0  0  0  0  0  0  0  0  0  0  0  0
  191.2060  170.7120  140.9300 C   0  0  0  0  0  2  0  0  0  0  0  0
  195.1980  170.8240  141.6270 S   0  0  0  0  0  0  0  0  0  0  0  0
  193.2930  171.6290  139.8820 C   0  0  0  0  0  2  0  0  0  0  0  0
  192.6890  170.4860  140.6640 C   0  0  1  0  0  3  0  0  0  0  0  0
  194.7920  171.4570  139.9690 C   0  0  0  0  0  2  0  0  0  0  0  0
  193.4700  170.3560  141.9540 C   0  0  0  0  0  2  0  0  0  0  0  0
  1 26  1  1  0  0  0
  3  7  1  6  0  0  0
  3 16  1  0  0  0  0
  4 23  1  1  0  0  0
  5 11  1  6  0  0  0
  5 15  1  0  0  0  0
  6 19  1  0  0  0  0
  7 16  1  0  0  0  0
  8 12  1  1  0  0  0
  9 13  1  0  0  0  0
  9 25  1  0  0  0  0
  9 27  1  0  0  0  0
 10 22  1  0  0  0  0
 10 17  1  0  0  0  0
 11 20  1  0  0  0  0
 13 20  1  0  0  0  0
 14  2  1  0  0  0  0
 15  4  1  0  0  0  0
 15 12  1  0  0  0  0
 15  8  1  0  0  0  0
 16  8  1  0  0  0  0
 17 28  1  0  0  0  0
 17 25  1  0  0  0  0
 18  1  1  0  0  0  0
 18  4  1  0  0  0  0
 19  5  1  0  0  0  0
 19  3  1  0  0  0  0
 20 18  1  0  0  0  0
 23 21  1  0  0  0  0
 24 22  1  0  0  0  0
 24 13  1  0  0  0  0
 25 14  1  0  0  0  0
 26 21  1  0  0  0  0
 27  2  1  0  0  0  0
 27  1  1  0  0  0  0
 29 28  1  0  0  0  0
 30 34  1  0  0  0  0
 31 33  1  0  0  0  0
 31 32  1  0  0  0  0
 32 29  1  0  0  0  0
 32 34  1  0  0  0  0
 33 30  1  0  0  0  0
M  END
>  <MODEL>
6

>  <REMARK>
 VINA RESULT:      -8.4      2.497      4.615
  Name = 
  3 active torsions:
  status: ('A' for Active; 'I' for Inactive)
    1  A    between atoms: C_17  and  O_28
    2  A    between atoms: O_28  and  C_29
    3  A    between atoms: C_29  and  C_32
                            x       y       z     vdW  Elec       q    Type
                         _______ _______ _______ _____ _____    ______ ____

>  <TORSDO>
F 3

$$$$
=
 OpenBabel11112418093D

 34 42  0  0  1  0  0  0  0  0999 V2000
  192.1270  175.8750  145.7210 C   0  0  2  0  0  3  0  0  0  0  0  0
  190.1670  177.4330  145.8350 C   0  0  0  0  0  2  0  0  0  0  0  0
  195.2510  169.9550  144.8430 C   0  0  2  0  0  3  0  0  0  0  0  0
  194.0440  174.3220  145.2990 C   0  0  1  0  0  3  0  0  0  0  0  0
  193.4410  171.8000  144.8600 C   0  0  2  0  0  3  0  0  0  0  0  0
  193.0010  169.5590  144.1360 O   0  0  0  0  0  1  0  0  0  0  0  0
  195.3720  170.2240  146.3350 C   0  0  0  0  0  2  0  0  0  0  0  0
  195.9210  172.4800  145.3520 C   0  0  1  0  0  3  0  0  0  0  0  0
  189.8130  175.2950  144.8790 C   0  0  2  0  0  3  0  0  0  0  0  0
  188.5580  175.0710  142.0420 C   0  0  0  0  0  2  0  0  0  0  0  0
  192.3010  172.4050  144.0520 C   0  0  0  0  0  2  0  0  0  0  0  0
  195.4950  172.8560  144.0610 O   0  0  0  0  0  0  0  0  0  0  0  0
  190.6090  174.2920  144.0150 C   0  0  1  0  0  3  0  0  0  0  0  0
  189.7220  177.6530  144.5230 O   0  0  0  0  0  0  0  0  0  0  0  0
  194.5100  172.8740  145.0690 C   0  0  2  0  0  0  0  0  0  0  0  0
  196.2700  170.9760  145.3620 C   0  0  2  0  0  3  0  0  0  0  0  0
  189.2120  176.3460  142.5640 C   0  0  2  0  0  3  0  0  0  0  0  0
  192.5560  174.4020  145.6840 C   0  0  2  0  0  3  0  0  0  0  0  0
  193.9900  170.5430  144.1870 C   0  0  2  0  0  3  0  0  0  0  0  0
  191.5940  173.4910  144.8700 C   0  0  2  0  0  3  0  0  0  0  0  0
  194.4260  176.5100  146.4770 C   0  0  0  0  0  2  0  0  0  0  0  0
  189.5560  173.9210  142.0790 C   0  0  0  0  0  2  0  0  0  0  0  0
  194.8720  175.0520  146.3630 C   0  0  0  0  0  2  0  0  0  0  0  0
  189.7000  173.4320  143.3830 O   0  0  0  0  0  0  0  0  0  0  0  0
  189.1530  176.4400  144.1000 C   0  0  1  0  0  3  0  0  0  0  0  0
  192.9350  176.5980  146.8000 C   0  0  0  0  0  2  0  0  0  0  0  0
  190.6180  175.9950  145.9600 C   0  0  1  0  0  3  0  0  0  0  0  0
  188.5670  177.4510  142.0030 O   0  0  0  0  0  0  0  0  0  0  0  0
  187.4200  176.9270  141.3970 C   0  0  0  0  0  2  0  0  0  0  0  0
  183.6940  178.2910  142.2270 S   0  0  0  0  0  0  0  0  0  0  0  0
  185.4420  177.9020  140.2000 C   0  0  0  0  0  2  0  0  0  0  0  0
  186.2660  177.9200  141.4650 C   0  0  1  0  0  3  0  0  0  0  0  0
  184.1710  178.6580  140.5090 C   0  0  0  0  0  2  0  0  0  0  0  0
  185.3360  177.6100  142.6180 C   0  0  0  0  0  2  0  0  0  0  0  0
  1 27  1  0  0  0  0
  1 26  1  1  0  0  0
  2 27  1  0  0  0  0
  3 16  1  0  0  0  0
  3  7  1  1  0  0  0
  4 18  1  0  0  0  0
  4 23  1  1  0  0  0
  5 11  1  6  0  0  0
  5 15  1  0  0  0  0
  6 19  1  0  0  0  0
  8 12  1  6  0  0  0
  8 16  1  0  0  0  0
  9 27  1  0  0  0  0
 10 22  1  0  0  0  0
 10 17  1  0  0  0  0
 11 20  1  0  0  0  0
 12 15  1  0  0  0  0
 13 20  1  0  0  0  0
 13  9  1  0  0  0  0
 14  2  1  0  0  0  0
 15  4  1  0  0  0  0
 15  8  1  0  0  0  0
 16  7  1  0  0  0  0
 17 25  1  0  0  0  0
 18  1  1  0  0  0  0
 19  3  1  0  0  0  0
 19  5  1  0  0  0  0
 20 18  1  0  0  0  0
 21 26  1  0  0  0  0
 22 24  1  0  0  0  0
 23 21  1  0  0  0  0
 24 13  1  0  0  0  0
 25 14  1  0  0  0  0
 25  9  1  0  0  0  0
 28 17  1  0  0  0  0
 29 32  1  0  0  0  0
 29 28  1  0  0  0  0
 30 34  1  0  0  0  0
 31 33  1  0  0  0  0
 31 32  1  0  0  0  0
 32 34  1  0  0  0  0
 33 30  1  0  0  0  0
M  END
>  <MODEL>
7

>  <REMARK>
 VINA RESULT:      -8.1      3.484      9.181
  Name = 
  3 active torsions:
  status: ('A' for Active; 'I' for Inactive)
    1  A    between atoms: C_17  and  O_28
    2  A    between atoms: O_28  and  C_29
    3  A    between atoms: C_29  and  C_32
                            x       y       z     vdW  Elec       q    Type
                         _______ _______ _______ _____ _____    ______ ____

>  <TORSDO>
F 3

$$$$
=
 OpenBabel11112418093D

 34 42  0  0  1  0  0  0  0  0999 V2000
  190.8510  176.0790  144.6190 C   0  0  2  0  0  3  0  0  0  0  0  0
  192.7880  175.3050  143.2320 C   0  0  0  0  0  2  0  0  0  0  0  0
  184.6140  178.4090  145.7380 C   0  0  2  0  0  3  0  0  0  0  0  0
  188.7800  176.5820  145.9330 C   0  0  1  0  0  3  0  0  0  0  0  0
  186.6920  177.4160  144.5670 C   0  0  2  0  0  3  0  0  0  0  0  0
  184.6470  177.8730  143.4080 O   0  0  0  0  0  1  0  0  0  0  0  0
  185.5190  179.5770  146.0980 C   0  0  0  0  0  2  0  0  0  0  0  0
  186.7160  177.6370  147.1760 C   0  0  1  0  0  3  0  0  0  0  0  0
  190.6870  175.5150  142.1580 C   0  0  2  0  0  3  0  0  0  0  0  0
  189.5200  173.0980  140.5870 C   0  0  0  0  0  2  0  0  0  0  0  0
  187.1500  176.3560  143.5740 C   0  0  0  0  0  2  0  0  0  0  0  0
  186.5300  176.3090  146.7400 O   0  0  0  0  0  0  0  0  0  0  0  0
  189.2010  175.3030  142.5210 C   0  0  1  0  0  3  0  0  0  0  0  0
  192.4710  174.0340  142.7290 O   0  0  0  0  0  0  0  0  0  0  0  0
  187.3390  177.1230  145.9220 C   0  0  2  0  0  0  0  0  0  0  0  0
  185.3830  178.4080  147.0650 C   0  0  2  0  0  3  0  0  0  0  0  0
  190.6110  172.9550  141.6410 C   0  0  2  0  0  3  0  0  0  0  0  0
  189.4950  176.7990  144.5870 C   0  0  2  0  0  3  0  0  0  0  0  0
  185.1690  177.4830  144.6420 C   0  0  2  0  0  3  0  0  0  0  0  0
  188.6540  176.4920  143.3150 C   0  0  2  0  0  3  0  0  0  0  0  0
  191.0200  176.5420  147.0720 C   0  0  0  0  0  2  0  0  0  0  0  0
  188.2870  173.7510  141.1990 C   0  0  0  0  0  2  0  0  0  0  0  0
  189.6340  177.1870  147.0520 C   0  0  0  0  0  2  0  0  0  0  0  0
  188.4750  175.1320  141.3360 O   0  0  0  0  0  0  0  0  0  0  0  0
  191.4510  174.2370  141.7840 C   0  0  1  0  0  3  0  0  0  0  0  0
  191.7130  176.7000  145.7190 C   0  0  0  0  0  2  0  0  0  0  0  0
  191.5330  176.1490  143.2490 C   0  0  1  0  0  3  0  0  0  0  0  0
  191.4430  171.8880  141.2940 O   0  0  0  0  0  0  0  0  0  0  0  0
  191.0730  170.8500  142.1570 C   0  0  0  0  0  2  0  0  0  0  0  0
  194.1460  170.8010  144.8000 S   0  0  0  0  0  0  0  0  0  0  0  0
  193.5700  170.6040  142.1640 C   0  0  0  0  0  2  0  0  0  0  0  0
  192.2860  170.2990  142.8980 C   0  0  1  0  0  3  0  0  0  0  0  0
  194.6920  170.3120  143.1330 C   0  0  0  0  0  2  0  0  0  0  0  0
  192.4030  170.8910  144.2850 C   0  0  0  0  0  2  0  0  0  0  0  0
  1 26  1  1  0  0  0
  2 27  1  0  0  0  0
  3  7  1  6  0  0  0
  3 16  1  0  0  0  0
  4 23  1  1  0  0  0
  5 11  1  6  0  0  0
  5 19  1  0  0  0  0
  5 15  1  0  0  0  0
  6 19  1  0  0  0  0
  7 16  1  0  0  0  0
  8 12  1  1  0  0  0
  9 13  1  0  0  0  0
  9 27  1  0  0  0  0
 10 22  1  0  0  0  0
 10 17  1  0  0  0  0
 13 20  1  0  0  0  0
 14  2  1  0  0  0  0
 15  4  1  0  0  0  0
 15 12  1  0  0  0  0
 15  8  1  0  0  0  0
 16  8  1  0  0  0  0
 17 25  1  0  0  0  0
 18  1  1  0  0  0  0
 18  4  1  0  0  0  0
 19  3  1  0  0  0  0
 20 11  1  0  0  0  0
 20 18  1  0  0  0  0
 22 24  1  0  0  0  0
 23 21  1  0  0  0  0
 24 13  1  0  0  0  0
 25  9  1  0  0  0  0
 25 14  1  0  0  0  0
 26 21  1  0  0  0  0
 27  1  1  0  0  0  0
 28 17  1  0  0  0  0
 28 29  1  0  0  0  0
 29 32  1  0  0  0  0
 31 32  1  0  0  0  0
 31 33  1  0  0  0  0
 32 34  1  0  0  0  0
 33 30  1  0  0  0  0
 34 30  1  0  0  0  0
M  END
>  <MODEL>
8

>  <REMARK>
 VINA RESULT:      -8.1      2.334      4.365
  Name = 
  3 active torsions:
  status: ('A' for Active; 'I' for Inactive)
    1  A    between atoms: C_17  and  O_28
    2  A    between atoms: O_28  and  C_29
    3  A    between atoms: C_29  and  C_32
                            x       y       z     vdW  Elec       q    Type
                         _______ _______ _______ _____ _____    ______ ____

>  <TORSDO>
F 3

$$$$
=
 OpenBabel11112418093D

 34 42  0  0  1  0  0  0  0  0999 V2000
  189.6400  173.6260  142.2000 C   0  0  2  0  0  3  0  0  0  0  0  0
  191.1050  171.6500  142.6810 C   0  0  0  0  0  2  0  0  0  0  0  0
  185.7360  178.9180  143.7250 C   0  0  2  0  0  3  0  0  0  0  0  0
  188.4180  175.7750  141.8110 C   0  0  1  0  0  3  0  0  0  0  0  0
  187.3990  176.9510  143.9320 C   0  0  2  0  0  3  0  0  0  0  0  0
  186.7090  178.2670  145.8100 O   0  0  0  0  0  1  0  0  0  0  0  0
  184.7660  177.8860  143.1680 C   0  0  0  0  0  2  0  0  0  0  0  0
  186.6840  177.7350  141.5380 C   0  0  1  0  0  3  0  0  0  0  0  0
  190.6200  173.1160  144.4760 C   0  0  2  0  0  3  0  0  0  0  0  0
  192.9530  174.3410  146.1290 C   0  0  0  0  0  2  0  0  0  0  0  0
  188.7100  176.5170  144.5750 C   0  0  0  0  0  2  0  0  0  0  0  0
  187.9900  178.1420  141.8810 O   0  0  0  0  0  0  0  0  0  0  0  0
  190.4010  174.6320  144.6770 C   0  0  1  0  0  3  0  0  0  0  0  0
  192.3380  172.1360  143.1400 O   0  0  0  0  0  0  0  0  0  0  0  0
  187.5660  176.9070  142.4120 C   0  0  2  0  0  0  0  0  0  0  0  0
  185.6580  178.6700  142.2140 C   0  0  2  0  0  3  0  0  0  0  0  0
  193.1400  173.7550  144.7340 C   0  0  2  0  0  3  0  0  0  0  0  0
  188.6420  174.6230  142.8070 C   0  0  2  0  0  3  0  0  0  0  0  0
  186.9620  178.3240  144.4390 C   0  0  2  0  0  3  0  0  0  0  0  0
  188.9850  175.0420  144.2640 C   0  0  2  0  0  3  0  0  0  0  0  0
  188.7600  174.1560  139.9190 C   0  0  0  0  0  2  0  0  0  0  0  0
  191.9220  175.4620  146.0890 C   0  0  0  0  0  2  0  0  0  0  0  0
  187.8240  175.2060  140.5180 C   0  0  0  0  0  2  0  0  0  0  0  0
  190.6250  174.9380  146.0260 O   0  0  0  0  0  0  0  0  0  0  0  0
  192.0890  172.6770  144.4120 C   0  0  1  0  0  3  0  0  0  0  0  0
  189.0370  173.0380  140.9240 C   0  0  0  0  0  2  0  0  0  0  0  0
  190.0020  172.5370  143.2150 C   0  0  1  0  0  3  0  0  0  0  0  0
  194.4200  173.2030  144.6400 O   0  0  0  0  0  0  0  0  0  0  0  0
  194.5290  172.3600  145.7520 C   0  0  0  0  0  2  0  0  0  0  0  0
  196.1530  168.6860  146.2940 S   0  0  0  0  0  0  0  0  0  0  0  0
  196.7890  171.2710  145.8150 C   0  0  0  0  0  2  0  0  0  0  0  0
  195.3400  171.1150  145.4150 C   0  0  1  0  0  3  0  0  0  0  0  0
  197.4000  169.8920  145.7420 C   0  0  0  0  0  2  0  0  0  0  0  0
  194.8020  169.8940  146.1280 C   0  0  0  0  0  2  0  0  0  0  0  0
  1 26  1  6  0  0  0
  1 18  1  0  0  0  0
  1 27  1  0  0  0  0
  2 14  1  0  0  0  0
  2 27  1  0  0  0  0
  3  7  1  1  0  0  0
  3 19  1  0  0  0  0
  4 23  1  6  0  0  0
  4 15  1  0  0  0  0
  4 18  1  0  0  0  0
  5 19  1  0  0  0  0
  5 11  1  1  0  0  0
  8 12  1  1  0  0  0
  8 16  1  0  0  0  0
  8 15  1  0  0  0  0
  9 13  1  0  0  0  0
 12 15  1  0  0  0  0
 13 24  1  0  0  0  0
 14 25  1  0  0  0  0
 15  5  1  0  0  0  0
 16  7  1  0  0  0  0
 16  3  1  0  0  0  0
 17 10  1  0  0  0  0
 18 20  1  0  0  0  0
 19  6  1  0  0  0  0
 20 11  1  0  0  0  0
 20 13  1  0  0  0  0
 21 23  1  0  0  0  0
 21 26  1  0  0  0  0
 22 10  1  0  0  0  0
 24 22  1  0  0  0  0
 25  9  1  0  0  0  0
 25 17  1  0  0  0  0
 27  9  1  0  0  0  0
 28 17  1  0  0  0  0
 28 29  1  0  0  0  0
 32 29  1  0  0  0  0
 32 31  1  0  0  0  0
 32 34  1  0  0  0  0
 33 31  1  0  0  0  0
 33 30  1  0  0  0  0
 34 30  1  0  0  0  0
M  END
>  <MODEL>
9

>  <REMARK>
 VINA RESULT:      -8.0      1.975      2.550
  Name = 
  3 active torsions:
  status: ('A' for Active; 'I' for Inactive)
    1  A    between atoms: C_17  and  O_28
    2  A    between atoms: O_28  and  C_29
    3  A    between atoms: C_29  and  C_32
                            x       y       z     vdW  Elec       q    Type
                         _______ _______ _______ _____ _____    ______ ____

>  <TORSDO>
F 3

$$$$
