=
 OpenBabel11112418053D

 34 40  0  0  1  0  0  0  0  0999 V2000
  192.0550  175.7420  145.5140 C   0  0  1  0  0  3  0  0  0  0  0  0
  190.4350  177.5890  144.7680 C   0  0  0  0  0  2  0  0  0  0  0  0
  195.9240  175.1020  140.4760 C   0  0  0  0  0  0  0  0  0  0  0  0
  194.3210  175.2430  144.5350 C   0  0  2  0  0  3  0  0  0  0  0  0
  194.4730  174.1050  142.2930 C   0  0  2  0  0  3  0  0  0  0  0  0
  194.5570  173.0310  139.9580 C   0  0  0  0  0  1  0  0  0  0  0  0
  195.4830  175.6570  139.4340 O   0  0  0  0  0  0  0  0  0  0  0  0
  197.5900  175.0850  142.3860 C   0  0  0  0  0  2  0  0  0  0  0  0
  189.9010  175.2960  144.2010 C   0  0  2  0  0  3  0  0  0  0  0  0
  187.6730  174.4570  142.1880 C   0  0  0  0  0  2  0  0  0  0  0  0
  193.0470  174.5580  141.9840 C   0  0  0  0  0  2  0  0  0  0  0  0
  196.6040  174.7780  143.5290 C   0  0  0  0  0  2  0  0  0  0  0  0
  190.7690  174.9850  142.9460 C   0  0  1  0  0  3  0  0  0  0  0  0
  189.1120  177.6090  144.0260 C   0  0  0  0  0  2  0  0  0  0  0  0
  195.1370  175.1280  143.2410 C   0  0  2  0  0  3  0  0  0  0  0  0
  196.9750  175.7230  141.2200 N   0  0  0  0  0  2  0  0  0  0  0  0
  188.0880  175.9110  142.4310 C   0  0  2  0  0  3  0  0  0  0  0  0
  192.8680  175.6490  144.2190 C   0  0  1  0  0  3  0  0  0  0  0  0
  195.2920  173.8500  141.0130 C   0  0  1  0  0  3  0  0  0  0  0  0
  192.2260  174.6260  143.2730 C   0  0  2  0  0  3  0  0  0  0  0  0
  194.1510  176.2870  146.7940 C   0  0  0  0  0  2  0  0  0  0  0  0
  188.7590  173.4200  142.4800 C   0  0  0  0  0  2  0  0  0  0  0  0
  194.9400  176.2620  145.4920 C   0  0  0  0  0  2  0  0  0  0  0  0
  190.1570  173.8770  142.0580 C   0  0  0  0  0  2  0  0  0  0  0  0
  188.6770  176.1540  143.8370 C   0  0  1  0  0  3  0  0  0  0  0  0
  192.7090  176.6940  146.5200 C   0  0  0  0  0  2  0  0  0  0  0  0
  190.6090  176.1570  145.2370 C   0  0  1  0  0  3  0  0  0  0  0  0
  186.8740  176.7930  142.1800 C   0  0  0  0  0  2  0  0  0  0  0  0
  185.8260  176.5550  143.2540 C   0  0  0  0  0  2  0  0  0  0  0  0
  185.5070  179.2030  145.3030 N   0  0  0  0  0  2  0  0  0  0  0  0
  185.7170  178.9980  142.9330 C   0  0  0  0  0  2  0  0  0  0  0  0
  184.9610  177.7920  143.4290 C   0  0  2  0  0  3  0  0  0  0  0  0
  185.7090  179.9730  144.0870 C   0  0  0  0  0  2  0  0  0  0  0  0
  184.7080  178.0530  144.9030 C   0  0  0  0  0  2  0  0  0  0  0  0
  1 26  1  1  0  0  0
  2 27  1  0  0  0  0
  3 19  1  0  0  0  0
  3 16  1  0  0  0  0
  4 23  1  1  0  0  0
  5 11  1  6  0  0  0
  5 15  1  0  0  0  0
  6 19  1  0  0  0  0
  7  3  2  0  0  0  0
  8 12  1  0  0  0  0
  9 27  1  0  0  0  0
 10 17  1  0  0  0  0
 10 22  1  0  0  0  0
 11 20  1  0  0  0  0
 13 20  1  0  0  0  0
 13  9  1  0  0  0  0
 14  2  1  0  0  0  0
 15 12  1  0  0  0  0
 15  4  1  0  0  0  0
 16  8  1  0  0  0  0
 17 25  1  0  0  0  0
 18  4  1  0  0  0  0
 18  1  1  0  0  0  0
 19  5  1  0  0  0  0
 20 18  1  0  0  0  0
 23 21  1  0  0  0  0
 24 22  1  0  0  0  0
 24 13  1  0  0  0  0
 25 14  1  0  0  0  0
 25  9  1  0  0  0  0
 26 21  1  0  0  0  0
 27  1  1  0  0  0  0
 28 17  1  0  0  0  0
 28 29  1  0  0  0  0
 29 32  1  0  0  0  0
 31 32  1  0  0  0  0
 31 33  1  0  0  0  0
 32 34  1  0  0  0  0
 33 30  1  0  0  0  0
 34 30  1  0  0  0  0
M  END
>  <MODEL>
1

>  <REMARK>
 VINA RESULT:      -8.3      0.000      0.000
  Name = 
  3 active torsions:
  status: ('A' for Active; 'I' for Inactive)
    1  A    between atoms: C_17  and  C_28
    2  A    between atoms: C_28  and  C_29
    3  A    between atoms: C_29  and  C_32
                            x       y       z     vdW  Elec       q    Type
                         _______ _______ _______ _____ _____    ______ ____

>  <TORSDO>
F 3

$$$$
=
 OpenBabel11112418053D

 34 40  0  0  1  0  0  0  0  0999 V2000
  192.2960  175.5230  145.2710 C   0  0  1  0  0  3  0  0  0  0  0  0
  190.9370  177.6450  144.7800 C   0  0  0  0  0  2  0  0  0  0  0  0
  195.5790  174.6330  139.8690 C   0  0  0  0  0  0  0  0  0  0  0  0
  194.3620  174.7450  144.0610 C   0  0  2  0  0  3  0  0  0  0  0  0
  194.1430  173.7520  141.7560 C   0  0  2  0  0  3  0  0  0  0  0  0
  193.8580  172.8390  139.3700 C   0  0  0  0  0  1  0  0  0  0  0  0
  195.1470  175.3180  138.9040 O   0  0  0  0  0  0  0  0  0  0  0  0
  197.3740  174.2280  141.6120 C   0  0  0  0  0  2  0  0  0  0  0  0
  189.9960  175.5060  144.1420 C   0  0  2  0  0  3  0  0  0  0  0  0
  187.5030  175.1610  142.3030 C   0  0  0  0  0  2  0  0  0  0  0  0
  192.7870  174.4410  141.6060 C   0  0  0  0  0  2  0  0  0  0  0  0
  196.4490  174.0010  142.8240 C   0  0  0  0  0  2  0  0  0  0  0  0
  190.6950  175.1500  142.7970 C   0  0  1  0  0  3  0  0  0  0  0  0
  189.5770  177.9200  144.1660 C   0  0  0  0  0  2  0  0  0  0  0  0
  195.0390  174.5940  142.6930 C   0  0  2  0  0  3  0  0  0  0  0  0
  196.7740  175.0310  140.5440 N   0  0  0  0  0  2  0  0  0  0  0  0
  188.1640  176.5130  142.5840 C   0  0  2  0  0  3  0  0  0  0  0  0
  192.9730  175.3920  143.9030 C   0  0  1  0  0  3  0  0  0  0  0  0
  194.8010  173.4600  140.3940 C   0  0  1  0  0  3  0  0  0  0  0  0
  192.0980  174.5480  142.9680 C   0  0  2  0  0  3  0  0  0  0  0  0
  194.5510  175.6470  146.3790 C   0  0  0  0  0  2  0  0  0  0  0  0
  188.4290  173.9510  142.4370 C   0  0  0  0  0  2  0  0  0  0  0  0
  195.2150  175.5880  145.0100 C   0  0  0  0  0  2  0  0  0  0  0  0
  189.8420  174.2140  141.9120 C   0  0  0  0  0  2  0  0  0  0  0  0
  188.9000  176.5670  143.9410 C   0  0  1  0  0  3  0  0  0  0  0  0
  193.1750  176.2920  146.2620 C   0  0  0  0  0  2  0  0  0  0  0  0
  190.9170  176.1750  145.1530 C   0  0  1  0  0  3  0  0  0  0  0  0
  187.0920  177.5880  142.4940 C   0  0  0  0  0  2  0  0  0  0  0  0
  186.0450  177.3710  143.5740 C   0  0  0  0  0  2  0  0  0  0  0  0
  183.8660  178.7620  145.7250 N   0  0  0  0  0  2  0  0  0  0  0  0
  186.2090  178.3170  145.8450 C   0  0  0  0  0  2  0  0  0  0  0  0
  185.8780  178.6290  144.4080 C   0  0  2  0  0  3  0  0  0  0  0  0
  184.9990  178.7560  146.6350 C   0  0  0  0  0  2  0  0  0  0  0  0
  184.4250  179.0680  144.4160 C   0  0  0  0  0  2  0  0  0  0  0  0
  1 26  1  1  0  0  0
  2 27  1  0  0  0  0
  3 19  1  0  0  0  0
  3 16  1  0  0  0  0
  4 23  1  1  0  0  0
  5 11  1  6  0  0  0
  5 15  1  0  0  0  0
  6 19  1  0  0  0  0
  7  3  2  0  0  0  0
  8 12  1  0  0  0  0
  9 27  1  0  0  0  0
 10 22  1  0  0  0  0
 10 17  1  0  0  0  0
 11 20  1  0  0  0  0
 13 20  1  0  0  0  0
 13  9  1  0  0  0  0
 14  2  1  0  0  0  0
 15 12  1  0  0  0  0
 15  4  1  0  0  0  0
 16  8  1  0  0  0  0
 17 25  1  0  0  0  0
 18  4  1  0  0  0  0
 18  1  1  0  0  0  0
 19  5  1  0  0  0  0
 20 18  1  0  0  0  0
 23 21  1  0  0  0  0
 24 22  1  0  0  0  0
 24 13  1  0  0  0  0
 25  9  1  0  0  0  0
 25 14  1  0  0  0  0
 26 21  1  0  0  0  0
 27  1  1  0  0  0  0
 28 17  1  0  0  0  0
 28 29  1  0  0  0  0
 29 32  1  0  0  0  0
 30 33  1  0  0  0  0
 31 33  1  0  0  0  0
 32 34  1  0  0  0  0
 32 31  1  0  0  0  0
 34 30  1  0  0  0  0
M  END
>  <MODEL>
2

>  <REMARK>
 VINA RESULT:      -8.2      0.900      1.075
  Name = 
  3 active torsions:
  status: ('A' for Active; 'I' for Inactive)
    1  A    between atoms: C_17  and  C_28
    2  A    between atoms: C_28  and  C_29
    3  A    between atoms: C_29  and  C_32
                            x       y       z     vdW  Elec       q    Type
                         _______ _______ _______ _____ _____    ______ ____

>  <TORSDO>
F 3

$$$$
=
 OpenBabel11112418053D

 34 40  0  0  1  0  0  0  0  0999 V2000
  191.3880  172.6020  142.8220 C   0  0  1  0  0  3  0  0  0  0  0  0
  190.1190  173.0190  145.0150 C   0  0  0  0  0  2  0  0  0  0  0  0
  197.4840  173.4900  144.4970 C   0  0  0  0  0  0  0  0  0  0  0  0
  193.8330  172.0530  142.5800 C   0  0  2  0  0  3  0  0  0  0  0  0
  195.5460  173.8700  142.9170 C   0  0  2  0  0  3  0  0  0  0  0  0
  197.2420  175.7470  143.3690 C   0  0  0  0  0  1  0  0  0  0  0  0
  197.6170  174.0590  145.6140 O   0  0  0  0  0  0  0  0  0  0  0  0
  197.6550  171.3800  143.1030 C   0  0  0  0  0  2  0  0  0  0  0  0
  190.6040  174.9170  143.5910 C   0  0  2  0  0  3  0  0  0  0  0  0
  190.2710  177.8940  144.4550 C   0  0  0  0  0  2  0  0  0  0  0  0
  194.5130  174.6740  143.7070 C   0  0  0  0  0  2  0  0  0  0  0  0
  196.2990  171.4900  142.3790 C   0  0  0  0  0  2  0  0  0  0  0  0
  192.0860  175.2790  143.9030 C   0  0  1  0  0  3  0  0  0  0  0  0
  189.5270  174.2450  145.6860 C   0  0  0  0  0  2  0  0  0  0  0  0
  195.2500  172.3620  143.0820 C   0  0  2  0  0  3  0  0  0  0  0  0
  197.7070  172.0820  144.3870 N   0  0  0  0  0  2  0  0  0  0  0  0
  190.0900  176.7120  145.4110 C   0  0  2  0  0  3  0  0  0  0  0  0
  192.7970  172.9020  143.3420 C   0  0  1  0  0  3  0  0  0  0  0  0
  196.9900  174.2460  143.2970 C   0  0  1  0  0  3  0  0  0  0  0  0
  193.1080  174.3950  143.1720 C   0  0  2  0  0  3  0  0  0  0  0  0
  192.1210  170.2880  142.1620 C   0  0  0  0  0  2  0  0  0  0  0  0
  191.1940  177.6240  143.2640 C   0  0  0  0  0  2  0  0  0  0  0  0
  193.4990  170.5700  142.7440 C   0  0  0  0  0  2  0  0  0  0  0  0
  192.4080  176.7650  143.6270 C   0  0  0  0  0  2  0  0  0  0  0  0
  189.6610  175.4080  144.7020 C   0  0  1  0  0  3  0  0  0  0  0  0
  191.0680  171.1060  142.8990 C   0  0  0  0  0  2  0  0  0  0  0  0
  190.3320  173.4200  143.5680 C   0  0  1  0  0  3  0  0  0  0  0  0
  189.0830  177.1190  146.4760 C   0  0  0  0  0  2  0  0  0  0  0  0
  187.7460  177.4430  145.8320 C   0  0  0  0  0  2  0  0  0  0  0  0
  185.1300  178.8640  147.3970 N   0  0  0  0  0  2  0  0  0  0  0  0
  185.3310  176.9620  145.9660 C   0  0  0  0  0  2  0  0  0  0  0  0
  186.6070  177.0690  146.7640 C   0  0  2  0  0  3  0  0  0  0  0  0
  184.3540  177.8830  146.6570 C   0  0  0  0  0  2  0  0  0  0  0  0
  186.3610  178.1800  147.7680 C   0  0  0  0  0  2  0  0  0  0  0  0
  1 26  1  1  0  0  0
  1 18  1  0  0  0  0
  1 27  1  0  0  0  0
  2 14  1  0  0  0  0
  3  7  2  0  0  0  0
  4 23  1  1  0  0  0
  4 15  1  0  0  0  0
  4 18  1  0  0  0  0
  5 15  1  0  0  0  0
  5 19  1  0  0  0  0
  5 11  1  1  0  0  0
  8 16  1  0  0  0  0
  9 13  1  0  0  0  0
  9 25  1  0  0  0  0
 10 17  1  0  0  0  0
 12 15  1  0  0  0  0
 12  8  1  0  0  0  0
 16  3  1  0  0  0  0
 17 28  1  0  0  0  0
 19  6  1  0  0  0  0
 19  3  1  0  0  0  0
 20 18  1  0  0  0  0
 20 11  1  0  0  0  0
 20 13  1  0  0  0  0
 21 23  1  0  0  0  0
 21 26  1  0  0  0  0
 22 24  1  0  0  0  0
 22 10  1  0  0  0  0
 24 13  1  0  0  0  0
 25 17  1  0  0  0  0
 25 14  1  0  0  0  0
 27  9  1  0  0  0  0
 27  2  1  0  0  0  0
 29 28  1  0  0  0  0
 29 32  1  0  0  0  0
 30 34  1  0  0  0  0
 31 33  1  0  0  0  0
 31 32  1  0  0  0  0
 32 34  1  0  0  0  0
 33 30  1  0  0  0  0
M  END
>  <MODEL>
3

>  <REMARK>
 VINA RESULT:      -7.9      2.539      4.120
  Name = 
  3 active torsions:
  status: ('A' for Active; 'I' for Inactive)
    1  A    between atoms: C_17  and  C_28
    2  A    between atoms: C_28  and  C_29
    3  A    between atoms: C_29  and  C_32
                            x       y       z     vdW  Elec       q    Type
                         _______ _______ _______ _____ _____    ______ ____

>  <TORSDO>
F 3

$$$$
=
 OpenBabel11112418053D

 34 40  0  0  1  0  0  0  0  0999 V2000
  189.1120  176.8460  142.5420 C   0  0  1  0  0  3  0  0  0  0  0  0
  191.3560  178.0060  143.0040 C   0  0  0  0  0  2  0  0  0  0  0  0
  185.5910  178.4490  147.6210 C   0  0  0  0  0  0  0  0  0  0  0  0
  186.8880  177.4010  143.5850 C   0  0  2  0  0  3  0  0  0  0  0  0
  186.4420  176.7300  145.9710 C   0  0  2  0  0  3  0  0  0  0  0  0
  186.0900  176.1020  148.4390 C   0  0  0  0  0  1  0  0  0  0  0  0
  186.2710  178.9260  148.5690 O   0  0  0  0  0  0  0  0  0  0  0  0
  183.9380  178.8170  145.7350 C   0  0  0  0  0  2  0  0  0  0  0  0
  191.0040  175.7860  143.9050 C   0  0  2  0  0  3  0  0  0  0  0  0
  192.8540  174.4340  146.0190 C   0  0  0  0  0  2  0  0  0  0  0  0
  187.9490  176.6330  146.2090 C   0  0  0  0  0  2  0  0  0  0  0  0
  184.6640  177.9990  144.6490 C   0  0  0  0  0  2  0  0  0  0  0  0
  190.1570  176.0100  145.1930 C   0  0  1  0  0  3  0  0  0  0  0  0
  192.6260  177.6130  143.7340 C   0  0  0  0  0  2  0  0  0  0  0  0
  186.1670  177.7900  144.8820 C   0  0  2  0  0  3  0  0  0  0  0  0
  184.8170  179.3200  146.7930 N   0  0  0  0  0  2  0  0  0  0  0  0
  193.0130  175.8870  145.5630 C   0  0  2  0  0  3  0  0  0  0  0  0
  188.4020  177.2530  143.8370 C   0  0  1  0  0  3  0  0  0  0  0  0
  185.6640  176.9890  147.2750 C   0  0  1  0  0  3  0  0  0  0  0  0
  188.6570  176.2010  144.9230 C   0  0  2  0  0  3  0  0  0  0  0  0
  187.3130  177.9790  141.1950 C   0  0  0  0  0  2  0  0  0  0  0  0
  191.4380  173.8680  145.8850 C   0  0  0  0  0  2  0  0  0  0  0  0
  186.6510  178.4390  142.4870 C   0  0  0  0  0  2  0  0  0  0  0  0
  190.3490  174.8840  146.2350 C   0  0  0  0  0  2  0  0  0  0  0  0
  192.4810  176.1450  144.1370 C   0  0  1  0  0  3  0  0  0  0  0  0
  188.8150  177.8300  141.4060 C   0  0  0  0  0  2  0  0  0  0  0  0
  190.6200  176.7030  142.7530 C   0  0  1  0  0  3  0  0  0  0  0  0
  194.4840  176.2560  145.6800 C   0  0  0  0  0  2  0  0  0  0  0  0
  195.3400  175.0010  145.6510 C   0  0  0  0  0  2  0  0  0  0  0  0
  195.2000  174.7940  142.2980 N   0  0  0  0  0  2  0  0  0  0  0  0
  196.1910  176.3750  143.7880 C   0  0  0  0  0  2  0  0  0  0  0  0
  196.2640  175.0200  144.4460 C   0  0  2  0  0  3  0  0  0  0  0  0
  195.8440  176.0950  142.3450 C   0  0  0  0  0  2  0  0  0  0  0  0
  195.7820  174.0360  143.3960 C   0  0  0  0  0  2  0  0  0  0  0  0
  1 26  1  6  0  0  0
  1 27  1  0  0  0  0
  1 18  1  0  0  0  0
  2 14  1  0  0  0  0
  3  7  2  0  0  0  0
  4 23  1  6  0  0  0
  4 18  1  0  0  0  0
  4 15  1  0  0  0  0
  5 11  1  1  0  0  0
  5 19  1  0  0  0  0
  8 16  1  0  0  0  0
  9 25  1  0  0  0  0
  9 13  1  0  0  0  0
 12 15  1  0  0  0  0
 12  8  1  0  0  0  0
 13 24  1  0  0  0  0
 14 25  1  0  0  0  0
 15  5  1  0  0  0  0
 16  3  1  0  0  0  0
 17 28  1  0  0  0  0
 17 10  1  0  0  0  0
 18 20  1  0  0  0  0
 19  3  1  0  0  0  0
 19  6  1  0  0  0  0
 20 13  1  0  0  0  0
 20 11  1  0  0  0  0
 21 26  1  0  0  0  0
 21 23  1  0  0  0  0
 22 10  1  0  0  0  0
 22 24  1  0  0  0  0
 25 17  1  0  0  0  0
 27  2  1  0  0  0  0
 27  9  1  0  0  0  0
 29 28  1  0  0  0  0
 30 33  1  0  0  0  0
 30 34  1  0  0  0  0
 31 32  1  0  0  0  0
 32 29  1  0  0  0  0
 33 31  1  0  0  0  0
 34 32  1  0  0  0  0
M  END
>  <MODEL>
4

>  <REMARK>
 VINA RESULT:      -7.9      2.915      8.937
  Name = 
  3 active torsions:
  status: ('A' for Active; 'I' for Inactive)
    1  A    between atoms: C_17  and  C_28
    2  A    between atoms: C_28  and  C_29
    3  A    between atoms: C_29  and  C_32
                            x       y       z     vdW  Elec       q    Type
                         _______ _______ _______ _____ _____    ______ ____

>  <TORSDO>
F 3

$$$$
=
 OpenBabel11112418053D

 34 40  0  0  1  0  0  0  0  0999 V2000
  193.8530  175.7090  144.5970 C   0  0  1  0  0  3  0  0  0  0  0  0
  192.1750  177.5610  144.0080 C   0  0  0  0  0  2  0  0  0  0  0  0
  192.4380  171.1010  140.4100 C   0  0  0  0  0  0  0  0  0  0  0  0
  194.5530  173.7890  143.1260 C   0  0  2  0  0  3  0  0  0  0  0  0
  192.9630  171.8680  142.7630 C   0  0  2  0  0  3  0  0  0  0  0  0
  191.2560  169.9890  142.3580 C   0  0  0  0  0  1  0  0  0  0  0  0
  191.3300  171.2740  139.8340 O   0  0  0  0  0  0  0  0  0  0  0  0
  194.9700  171.1150  140.2950 C   0  0  0  0  0  2  0  0  0  0  0  0
  191.4930  175.8510  145.5810 C   0  0  2  0  0  3  0  0  0  0  0  0
  188.5600  175.4250  146.5510 C   0  0  0  0  0  2  0  0  0  0  0  0
  191.8020  172.7720  143.1770 C   0  0  0  0  0  2  0  0  0  0  0  0
  195.2410  171.8750  141.6080 C   0  0  0  0  0  2  0  0  0  0  0  0
  191.0850  174.6370  144.6960 C   0  0  1  0  0  3  0  0  0  0  0  0
  190.7630  177.8970  144.4490 C   0  0  0  0  0  2  0  0  0  0  0  0
  194.0750  172.7300  142.1230 C   0  0  2  0  0  3  0  0  0  0  0  0
  193.6530  171.3800  139.7110 N   0  0  0  0  0  2  0  0  0  0  0  0
  188.9510  176.4200  145.4540 C   0  0  2  0  0  3  0  0  0  0  0  0
  193.3720  174.6670  143.5830 C   0  0  1  0  0  3  0  0  0  0  0  0
  192.5040  170.7090  141.8590 C   0  0  1  0  0  3  0  0  0  0  0  0
  192.2760  173.7970  144.2100 C   0  0  2  0  0  3  0  0  0  0  0  0
  196.1480  175.6550  143.5680 C   0  0  0  0  0  2  0  0  0  0  0  0
  189.5160  174.2420  146.7180 C   0  0  0  0  0  2  0  0  0  0  0  0
  195.6430  174.6730  142.5190 C   0  0  0  0  0  2  0  0  0  0  0  0
  190.0570  173.7130  145.3880 C   0  0  0  0  0  2  0  0  0  0  0  0
  190.4010  176.9350  145.5820 C   0  0  1  0  0  3  0  0  0  0  0  0
  195.0060  176.5470  144.0360 C   0  0  0  0  0  2  0  0  0  0  0  0
  192.7060  176.6080  145.0620 C   0  0  1  0  0  3  0  0  0  0  0  0
  187.9520  177.5670  145.4840 C   0  0  0  0  0  2  0  0  0  0  0  0
  186.8520  177.2730  146.4890 C   0  0  0  0  0  2  0  0  0  0  0  0
  184.0930  179.0410  145.7290 N   0  0  0  0  0  2  0  0  0  0  0  0
  185.6020  177.7370  144.4150 C   0  0  0  0  0  2  0  0  0  0  0  0
  185.5200  177.1010  145.7790 C   0  0  2  0  0  3  0  0  0  0  0  0
  184.4440  178.7060  144.3600 C   0  0  0  0  0  2  0  0  0  0  0  0
  184.4290  177.8600  146.5130 C   0  0  0  0  0  2  0  0  0  0  0  0
  1 26  1  6  0  0  0
  1 27  1  0  0  0  0
  2 14  1  0  0  0  0
  2 27  1  0  0  0  0
  3 19  1  0  0  0  0
  4 23  1  6  0  0  0
  4 18  1  0  0  0  0
  5 11  1  6  0  0  0
  7  3  2  0  0  0  0
  8 12  1  0  0  0  0
  9 25  1  0  0  0  0
 10 22  1  0  0  0  0
 11 20  1  0  0  0  0
 12 15  1  0  0  0  0
 13 24  1  0  0  0  0
 13  9  1  0  0  0  0
 14 25  1  0  0  0  0
 15  5  1  0  0  0  0
 15  4  1  0  0  0  0
 16  8  1  0  0  0  0
 16  3  1  0  0  0  0
 17 28  1  0  0  0  0
 17 25  1  0  0  0  0
 17 10  1  0  0  0  0
 18 20  1  0  0  0  0
 18  1  1  0  0  0  0
 19  6  1  0  0  0  0
 19  5  1  0  0  0  0
 20 13  1  0  0  0  0
 21 26  1  0  0  0  0
 23 21  1  0  0  0  0
 24 22  1  0  0  0  0
 27  9  1  0  0  0  0
 28 29  1  0  0  0  0
 30 34  1  0  0  0  0
 31 32  1  0  0  0  0
 32 29  1  0  0  0  0
 32 34  1  0  0  0  0
 33 31  1  0  0  0  0
 33 30  1  0  0  0  0
M  END
>  <MODEL>
5

>  <REMARK>
 VINA RESULT:      -7.8      2.337      3.359
  Name = 
  3 active torsions:
  status: ('A' for Active; 'I' for Inactive)
    1  A    between atoms: C_17  and  C_28
    2  A    between atoms: C_28  and  C_29
    3  A    between atoms: C_29  and  C_32
                            x       y       z     vdW  Elec       q    Type
                         _______ _______ _______ _____ _____    ______ ____

>  <TORSDO>
F 3

$$$$
=
 OpenBabel11112418053D

 34 40  0  0  1  0  0  0  0  0999 V2000
  191.6690  174.3270  145.1230 C   0  0  1  0  0  3  0  0  0  0  0  0
  190.7770  176.7150  145.4270 C   0  0  0  0  0  2  0  0  0  0  0  0
  194.3800  174.5260  139.3460 C   0  0  0  0  0  0  0  0  0  0  0  0
  193.4490  173.5790  143.5060 C   0  0  2  0  0  3  0  0  0  0  0  0
  192.8940  173.4000  141.0560 C   0  0  2  0  0  3  0  0  0  0  0  0
  192.2870  173.3310  138.5590 C   0  0  0  0  0  1  0  0  0  0  0  0
  194.0540  175.5430  138.6770 O   0  0  0  0  0  0  0  0  0  0  0  0
  196.1380  173.2750  140.6760 C   0  0  0  0  0  2  0  0  0  0  0  0
  189.3620  175.0930  144.3160 C   0  0  2  0  0  3  0  0  0  0  0  0
  186.7550  175.8070  142.7620 C   0  0  0  0  0  2  0  0  0  0  0  0
  191.7120  174.3450  141.2710 C   0  0  0  0  0  2  0  0  0  0  0  0
  195.2550  172.8680  141.8710 C   0  0  0  0  0  2  0  0  0  0  0  0
  189.8920  175.0390  142.8530 C   0  0  1  0  0  3  0  0  0  0  0  0
  189.4770  177.4170  145.0820 C   0  0  0  0  0  2  0  0  0  0  0  0
  194.0010  173.7280  142.0830 C   0  0  2  0  0  3  0  0  0  0  0  0
  195.6680  174.4650  139.9620 N   0  0  0  0  0  2  0  0  0  0  0  0
  187.7080  176.8570  143.3400 C   0  0  2  0  0  3  0  0  0  0  0  0
  192.2260  174.4950  143.7060 C   0  0  1  0  0  3  0  0  0  0  0  0
  193.3970  173.4190  139.6000 C   0  0  1  0  0  3  0  0  0  0  0  0
  191.1390  174.1590  142.6770 C   0  0  2  0  0  3  0  0  0  0  0  0
  193.9560  173.6760  145.9470 C   0  0  0  0  0  2  0  0  0  0  0  0
  187.4040  174.4610  142.4310 C   0  0  0  0  0  2  0  0  0  0  0  0
  194.5150  173.9140  144.5510 C   0  0  0  0  0  2  0  0  0  0  0  0
  188.8100  174.5980  141.8420 C   0  0  0  0  0  2  0  0  0  0  0  0
  188.5120  176.3520  144.5580 C   0  0  1  0  0  3  0  0  0  0  0  0
  192.7470  174.5740  146.1830 C   0  0  0  0  0  2  0  0  0  0  0  0
  190.4600  175.2330  145.3600 C   0  0  1  0  0  3  0  0  0  0  0  0
  186.8900  178.0900  143.6900 C   0  0  0  0  0  2  0  0  0  0  0  0
  185.4340  177.7080  143.8960 C   0  0  0  0  0  2  0  0  0  0  0  0
  186.2030  176.9870  147.0900 N   0  0  0  0  0  2  0  0  0  0  0  0
  185.9670  179.0440  145.9000 C   0  0  0  0  0  2  0  0  0  0  0  0
  184.9910  178.0590  145.3060 C   0  0  2  0  0  3  0  0  0  0  0  0
  186.4170  178.4200  147.1990 C   0  0  0  0  0  2  0  0  0  0  0  0
  185.0600  176.8350  146.2010 C   0  0  0  0  0  2  0  0  0  0  0  0
  1 27  1  0  0  0  0
  1 26  1  1  0  0  0
  3 19  1  0  0  0  0
  3 16  1  0  0  0  0
  4 18  1  0  0  0  0
  4 23  1  1  0  0  0
  5 11  1  6  0  0  0
  5 15  1  0  0  0  0
  6 19  1  0  0  0  0
  7  3  2  0  0  0  0
  8 12  1  0  0  0  0
  9 25  1  0  0  0  0
  9 27  1  0  0  0  0
 10 17  1  0  0  0  0
 11 20  1  0  0  0  0
 12 15  1  0  0  0  0
 13  9  1  0  0  0  0
 14  2  1  0  0  0  0
 15  4  1  0  0  0  0
 16  8  1  0  0  0  0
 17 28  1  0  0  0  0
 17 25  1  0  0  0  0
 18  1  1  0  0  0  0
 19  5  1  0  0  0  0
 20 13  1  0  0  0  0
 20 18  1  0  0  0  0
 21 26  1  0  0  0  0
 22 10  1  0  0  0  0
 23 21  1  0  0  0  0
 24 22  1  0  0  0  0
 24 13  1  0  0  0  0
 25 14  1  0  0  0  0
 27  2  1  0  0  0  0
 28 29  1  0  0  0  0
 29 32  1  0  0  0  0
 30 33  1  0  0  0  0
 31 33  1  0  0  0  0
 32 31  1  0  0  0  0
 32 34  1  0  0  0  0
 34 30  1  0  0  0  0
M  END
>  <MODEL>
6

>  <REMARK>
 VINA RESULT:      -7.8      1.584      2.029
  Name = 
  3 active torsions:
  status: ('A' for Active; 'I' for Inactive)
    1  A    between atoms: C_17  and  C_28
    2  A    between atoms: C_28  and  C_29
    3  A    between atoms: C_29  and  C_32
                            x       y       z     vdW  Elec       q    Type
                         _______ _______ _______ _____ _____    ______ ____

>  <TORSDO>
F 3

$$$$
=
 OpenBabel11112418053D

 34 40  0  0  1  0  0  0  0  0999 V2000
  195.1600  173.7570  145.3230 C   0  0  1  0  0  3  0  0  0  0  0  0
  194.1880  175.9720  146.1850 C   0  0  0  0  0  2  0  0  0  0  0  0
  194.8310  174.4130  138.9810 C   0  0  0  0  0  0  0  0  0  0  0  0
  196.0740  173.3100  143.0200 C   0  0  2  0  0  3  0  0  0  0  0  0
  194.4780  173.0560  141.0870 C   0  0  2  0  0  3  0  0  0  0  0  0
  192.8010  172.9040  139.1450 C   0  0  0  0  0  1  0  0  0  0  0  0
  194.0960  175.3680  138.6160 O   0  0  0  0  0  0  0  0  0  0  0  0
  197.1600  173.4500  139.2600 C   0  0  0  0  0  2  0  0  0  0  0  0
  192.6610  174.1510  145.7200 C   0  0  2  0  0  3  0  0  0  0  0  0
  189.5600  174.4490  145.5870 C   0  0  0  0  0  2  0  0  0  0  0  0
  193.4120  173.8010  141.8900 C   0  0  0  0  0  2  0  0  0  0  0  0
  196.9960  172.9020  140.6910 C   0  0  0  0  0  2  0  0  0  0  0  0
  192.4550  174.1890  144.1770 C   0  0  1  0  0  3  0  0  0  0  0  0
  192.7930  176.4600  146.5280 C   0  0  0  0  0  2  0  0  0  0  0  0
  195.8770  173.5510  141.5180 C   0  0  2  0  0  3  0  0  0  0  0  0
  196.2540  174.5540  138.9340 N   0  0  0  0  0  2  0  0  0  0  0  0
  190.5160  175.6340  145.7460 C   0  0  2  0  0  3  0  0  0  0  0  0
  194.9680  174.0180  143.8260 C   0  0  1  0  0  3  0  0  0  0  0  0
  194.2420  173.1620  139.5680 C   0  0  1  0  0  3  0  0  0  0  0  0
  193.5870  173.5190  143.3840 C   0  0  2  0  0  3  0  0  0  0  0  0
  197.6340  173.4740  144.9590 C   0  0  0  0  0  2  0  0  0  0  0  0
  190.1620  173.2250  144.8940 C   0  0  0  0  0  2  0  0  0  0  0  0
  197.4440  173.8050  143.4850 C   0  0  0  0  0  2  0  0  0  0  0  0
  191.1000  173.5870  143.7410 C   0  0  0  0  0  2  0  0  0  0  0  0
  191.8540  175.2570  146.4200 C   0  0  1  0  0  3  0  0  0  0  0  0
  196.5600  174.1680  145.7890 C   0  0  0  0  0  2  0  0  0  0  0  0
  194.0860  174.4590  146.1550 C   0  0  1  0  0  3  0  0  0  0  0  0
  189.7910  176.7200  146.5260 C   0  0  0  0  0  2  0  0  0  0  0  0
  188.3870  176.2580  146.8800 C   0  0  0  0  0  2  0  0  0  0  0  0
  185.7200  176.9780  144.9630 N   0  0  0  0  0  2  0  0  0  0  0  0
  186.0860  177.0250  147.3220 C   0  0  0  0  0  2  0  0  0  0  0  0
  187.3890  177.3800  146.6520 C   0  0  2  0  0  3  0  0  0  0  0  0
  185.0400  177.1340  146.2380 C   0  0  0  0  0  2  0  0  0  0  0  0
  187.0620  177.5020  145.1750 C   0  0  0  0  0  2  0  0  0  0  0  0
  1 26  1  1  0  0  0
  1 27  1  0  0  0  0
  2 14  1  0  0  0  0
  3 19  1  0  0  0  0
  4 23  1  1  0  0  0
  4 18  1  0  0  0  0
  5 15  1  0  0  0  0
  5 11  1  1  0  0  0
  6 19  1  0  0  0  0
  7  3  2  0  0  0  0
  8 12  1  0  0  0  0
  9 27  1  0  0  0  0
  9 25  1  0  0  0  0
 10 17  1  0  0  0  0
 11 20  1  0  0  0  0
 12 15  1  0  0  0  0
 13  9  1  0  0  0  0
 15  4  1  0  0  0  0
 16  3  1  0  0  0  0
 16  8  1  0  0  0  0
 17 25  1  0  0  0  0
 17 28  1  0  0  0  0
 18  1  1  0  0  0  0
 19  5  1  0  0  0  0
 20 18  1  0  0  0  0
 20 13  1  0  0  0  0
 21 26  1  0  0  0  0
 22 10  1  0  0  0  0
 23 21  1  0  0  0  0
 24 13  1  0  0  0  0
 24 22  1  0  0  0  0
 25 14  1  0  0  0  0
 27  2  1  0  0  0  0
 28 29  1  0  0  0  0
 30 34  1  0  0  0  0
 30 33  1  0  0  0  0
 32 29  1  0  0  0  0
 32 31  1  0  0  0  0
 33 31  1  0  0  0  0
 34 32  1  0  0  0  0
M  END
>  <MODEL>
7

>  <REMARK>
 VINA RESULT:      -7.5      2.023      3.402
  Name = 
  3 active torsions:
  status: ('A' for Active; 'I' for Inactive)
    1  A    between atoms: C_17  and  C_28
    2  A    between atoms: C_28  and  C_29
    3  A    between atoms: C_29  and  C_32
                            x       y       z     vdW  Elec       q    Type
                         _______ _______ _______ _____ _____    ______ ____

>  <TORSDO>
F 3

$$$$
=
 OpenBabel11112418053D

 34 40  0  0  1  0  0  0  0  0999 V2000
  191.4710  173.7210  141.0470 C   0  0  1  0  0  3  0  0  0  0  0  0
  190.0570  173.1600  143.1160 C   0  0  0  0  0  2  0  0  0  0  0  0
  197.3400  174.4200  143.4610 C   0  0  0  0  0  0  0  0  0  0  0  0
  193.9720  173.5160  140.8330 C   0  0  2  0  0  3  0  0  0  0  0  0
  195.4500  175.2060  141.9740 C   0  0  2  0  0  3  0  0  0  0  0  0
  196.9010  176.9070  143.2430 C   0  0  0  0  0  1  0  0  0  0  0  0
  197.3530  174.5300  144.7160 O   0  0  0  0  0  0  0  0  0  0  0  0
  197.8150  173.0230  141.4000 C   0  0  0  0  0  2  0  0  0  0  0  0
  190.3960  175.4920  142.5530 C   0  0  2  0  0  3  0  0  0  0  0  0
  189.6880  177.8740  144.4350 C   0  0  0  0  0  2  0  0  0  0  0  0
  194.2970  175.5570  142.9140 C   0  0  0  0  0  2  0  0  0  0  0  0
  196.4920  173.2850  140.6530 C   0  0  0  0  0  2  0  0  0  0  0  0
  191.8100  175.8320  143.1070 C   0  0  1  0  0  3  0  0  0  0  0  0
  189.3000  173.9820  144.1410 C   0  0  0  0  0  2  0  0  0  0  0  0
  195.3180  173.7300  141.5360 C   0  0  2  0  0  3  0  0  0  0  0  0
  197.7240  173.1840  142.8520 N   0  0  0  0  0  2  0  0  0  0  0  0
  189.5950  176.4060  144.8600 C   0  0  2  0  0  3  0  0  0  0  0  0
  192.8110  173.9190  141.7630 C   0  0  1  0  0  3  0  0  0  0  0  0
  196.8230  175.5310  142.5920 C   0  0  1  0  0  3  0  0  0  0  0  0
  192.9590  175.3840  142.1920 C   0  0  2  0  0  3  0  0  0  0  0  0
  192.4910  171.9040  139.6350 C   0  0  0  0  0  2  0  0  0  0  0  0
  190.6930  178.1590  143.3170 C   0  0  0  0  0  2  0  0  0  0  0  0
  193.7990  172.0600  140.4000 C   0  0  0  0  0  2  0  0  0  0  0  0
  191.9760  177.3330  143.4360 C   0  0  0  0  0  2  0  0  0  0  0  0
  189.3500  175.4400  143.6800 C   0  0  1  0  0  3  0  0  0  0  0  0
  191.3180  172.2870  140.5300 C   0  0  0  0  0  2  0  0  0  0  0  0
  190.2950  174.0990  141.9480 C   0  0  1  0  0  3  0  0  0  0  0  0
  188.4980  176.2890  145.9070 C   0  0  0  0  0  2  0  0  0  0  0  0
  187.1660  176.7210  145.3170 C   0  0  0  0  0  2  0  0  0  0  0  0
  184.7100  179.0160  145.2210 N   0  0  0  0  0  2  0  0  0  0  0  0
  185.1770  177.1970  146.6950 C   0  0  0  0  0  2  0  0  0  0  0  0
  186.4970  177.7460  146.2160 C   0  0  2  0  0  3  0  0  0  0  0  0
  184.1530  178.2400  146.3160 C   0  0  0  0  0  2  0  0  0  0  0  0
  186.1510  178.9950  145.4260 C   0  0  0  0  0  2  0  0  0  0  0  0
  1 26  1  1  0  0  0
  1 18  1  0  0  0  0
  1 27  1  0  0  0  0
  2 14  1  0  0  0  0
  3  7  2  0  0  0  0
  4 23  1  1  0  0  0
  4 15  1  0  0  0  0
  4 18  1  0  0  0  0
  5 19  1  0  0  0  0
  5 11  1  1  0  0  0
  8 16  1  0  0  0  0
  9 13  1  0  0  0  0
  9 25  1  0  0  0  0
 10 17  1  0  0  0  0
 12  8  1  0  0  0  0
 12 15  1  0  0  0  0
 13 24  1  0  0  0  0
 15  5  1  0  0  0  0
 16  3  1  0  0  0  0
 17 28  1  0  0  0  0
 18 20  1  0  0  0  0
 19  6  1  0  0  0  0
 19  3  1  0  0  0  0
 20 11  1  0  0  0  0
 20 13  1  0  0  0  0
 21 23  1  0  0  0  0
 21 26  1  0  0  0  0
 22 24  1  0  0  0  0
 22 10  1  0  0  0  0
 25 14  1  0  0  0  0
 25 17  1  0  0  0  0
 27  9  1  0  0  0  0
 27  2  1  0  0  0  0
 29 28  1  0  0  0  0
 29 32  1  0  0  0  0
 30 34  1  0  0  0  0
 30 33  1  0  0  0  0
 32 31  1  0  0  0  0
 33 31  1  0  0  0  0
 34 32  1  0  0  0  0
M  END
>  <MODEL>
8

>  <REMARK>
 VINA RESULT:      -7.5      2.091      3.992
  Name = 
  3 active torsions:
  status: ('A' for Active; 'I' for Inactive)
    1  A    between atoms: C_17  and  C_28
    2  A    between atoms: C_28  and  C_29
    3  A    between atoms: C_29  and  C_32
                            x       y       z     vdW  Elec       q    Type
                         _______ _______ _______ _____ _____    ______ ____

>  <TORSDO>
F 3

$$$$
=
 OpenBabel11112418053D

 34 40  0  0  1  0  0  0  0  0999 V2000
  191.6710  175.7400  145.5790 C   0  0  1  0  0  3  0  0  0  0  0  0
  190.2040  177.5210  144.4530 C   0  0  0  0  0  2  0  0  0  0  0  0
  196.3940  174.8930  141.3680 C   0  0  0  0  0  0  0  0  0  0  0  0
  194.0790  175.2230  145.0560 C   0  0  2  0  0  3  0  0  0  0  0  0
  194.6420  173.9720  142.9430 C   0  0  2  0  0  3  0  0  0  0  0  0
  195.1540  172.7780  140.7250 C   0  0  0  0  0  1  0  0  0  0  0  0
  196.1470  175.3850  140.2350 O   0  0  0  0  0  0  0  0  0  0  0  0
  197.6860  175.0020  143.5460 C   0  0  0  0  0  2  0  0  0  0  0  0
  189.7940  175.1940  143.9240 C   0  0  2  0  0  3  0  0  0  0  0  0
  187.9720  174.2170  141.5900 C   0  0  0  0  0  2  0  0  0  0  0  0
  193.2930  174.3870  142.3570 C   0  0  0  0  0  2  0  0  0  0  0  0
  196.5090  174.7410  144.5070 C   0  0  0  0  0  2  0  0  0  0  0  0
  190.8760  174.8300  142.8660 C   0  0  1  0  0  3  0  0  0  0  0  0
  189.0380  177.4820  143.4840 C   0  0  0  0  0  2  0  0  0  0  0  0
  195.1170  175.0530  143.9390 C   0  0  2  0  0  3  0  0  0  0  0  0
  197.2890  175.5680  142.2550 N   0  0  0  0  0  2  0  0  0  0  0  0
  188.3290  175.6870  141.8240 C   0  0  2  0  0  3  0  0  0  0  0  0
  192.7060  175.5910  144.4600 C   0  0  1  0  0  3  0  0  0  0  0  0
  195.6810  173.6620  141.8490 C   0  0  1  0  0  3  0  0  0  0  0  0
  192.2510  174.5100  143.4710 C   0  0  2  0  0  3  0  0  0  0  0  0
  193.4960  176.3820  147.1870 C   0  0  0  0  0  2  0  0  0  0  0  0
  188.9930  173.2120  142.1300 C   0  0  0  0  0  2  0  0  0  0  0  0
  194.5090  176.3000  146.0530 C   0  0  0  0  0  2  0  0  0  0  0  0
  190.4420  173.6680  141.9440 C   0  0  0  0  0  2  0  0  0  0  0  0
  188.6520  176.0130  143.2990 C   0  0  1  0  0  3  0  0  0  0  0  0
  192.1260  176.7530  146.6330 C   0  0  0  0  0  2  0  0  0  0  0  0
  190.2970  176.1190  145.0220 C   0  0  1  0  0  3  0  0  0  0  0  0
  187.1770  176.5370  141.3090 C   0  0  0  0  0  2  0  0  0  0  0  0
  186.2290  176.8740  142.4480 C   0  0  0  0  0  2  0  0  0  0  0  0
  184.0470  178.0690  140.1850 N   0  0  0  0  0  2  0  0  0  0  0  0
  184.0260  177.9740  142.5700 C   0  0  0  0  0  2  0  0  0  0  0  0
  185.4590  178.1450  142.1340 C   0  0  2  0  0  3  0  0  0  0  0  0
  183.1990  178.2840  141.3450 C   0  0  0  0  0  2  0  0  0  0  0  0
  185.3990  178.3690  140.6340 C   0  0  0  0  0  2  0  0  0  0  0  0
  1 26  1  1  0  0  0
  2 27  1  0  0  0  0
  3 19  1  0  0  0  0
  3 16  1  0  0  0  0
  4 23  1  1  0  0  0
  5 11  1  6  0  0  0
  5 15  1  0  0  0  0
  6 19  1  0  0  0  0
  7  3  2  0  0  0  0
  8 12  1  0  0  0  0
  9 27  1  0  0  0  0
 10 17  1  0  0  0  0
 10 22  1  0  0  0  0
 11 20  1  0  0  0  0
 13 20  1  0  0  0  0
 13  9  1  0  0  0  0
 14  2  1  0  0  0  0
 15 12  1  0  0  0  0
 15  4  1  0  0  0  0
 16  8  1  0  0  0  0
 17 25  1  0  0  0  0
 18  4  1  0  0  0  0
 18  1  1  0  0  0  0
 19  5  1  0  0  0  0
 20 18  1  0  0  0  0
 23 21  1  0  0  0  0
 24 22  1  0  0  0  0
 24 13  1  0  0  0  0
 25 14  1  0  0  0  0
 25  9  1  0  0  0  0
 26 21  1  0  0  0  0
 27  1  1  0  0  0  0
 28 17  1  0  0  0  0
 28 29  1  0  0  0  0
 30 34  1  0  0  0  0
 30 33  1  0  0  0  0
 32 29  1  0  0  0  0
 32 31  1  0  0  0  0
 33 31  1  0  0  0  0
 34 32  1  0  0  0  0
M  END
>  <MODEL>
9

>  <REMARK>
 VINA RESULT:      -7.5      1.337      1.593
  Name = 
  3 active torsions:
  status: ('A' for Active; 'I' for Inactive)
    1  A    between atoms: C_17  and  C_28
    2  A    between atoms: C_28  and  C_29
    3  A    between atoms: C_29  and  C_32
                            x       y       z     vdW  Elec       q    Type
                         _______ _______ _______ _____ _____    ______ ____

>  <TORSDO>
F 3

$$$$
