=
 OpenBabel11112416353D

 32 36  0  0  1  0  0  0  0  0999 V2000
  186.2570  178.3190  141.8210 C   0  0  0  0  0  2  0  0  0  0  0  0
  190.0380  176.0000  144.5580 C   0  0  0  0  0  0  0  0  0  0  0  0
  190.2350  178.5510  148.6810 C   0  0  0  0  0  3  0  0  0  0  0  0
  191.3420  177.7080  149.1750 C   0  0  0  0  0  3  0  0  0  0  0  0
  191.8880  174.4340  143.9710 C   0  0  1  0  0  3  0  0  0  0  0  0
  193.3840  174.5850  144.0960 C   0  0  0  0  0  0  0  0  0  0  0  0
  188.0860  176.2670  143.0050 C   0  0  1  0  0  3  0  0  0  0  0  0
  188.0690  177.4720  145.1740 C   0  0  0  0  0  2  0  0  0  0  0  0
  186.4700  178.1860  143.3400 C   0  0  2  0  0  3  0  0  0  0  0  0
  189.5280  178.1980  147.6020 C   0  0  0  0  0  3  0  0  0  0  0  0
  189.3860  176.9030  145.4910 N   0  0  0  0  0  0  0  0  0  0  0  0
  189.7580  176.8730  146.9130 C   0  0  1  0  0  3  0  0  0  0  0  0
  191.7660  175.5750  146.2520 C   0  0  0  0  0  0  0  0  0  0  0  0
  187.3380  177.6290  140.9810 C   0  0  0  0  0  2  0  0  0  0  0  0
  187.8590  177.6220  143.6750 C   0  0  2  0  0  3  0  0  0  0  0  0
  187.6520  176.2370  141.5320 C   0  0  0  0  0  2  0  0  0  0  0  0
  191.7930  176.6790  148.4520 C   0  0  0  0  0  3  0  0  0  0  0  0
  191.1590  176.3540  147.1580 C   0  0  0  0  0  0  0  0  0  0  0  0
  193.0990  174.9340  146.5340 C   0  0  0  0  0  2  0  0  0  0  0  0
  189.5530  175.8980  143.1310 C   0  0  0  0  0  2  0  0  0  0  0  0
  191.4790  172.9920  144.2230 C   0  0  0  0  0  1  0  0  0  0  0  0
  191.1600  175.3520  144.9210 C   0  0  0  0  0  0  0  0  0  0  0  0
  193.9580  174.8550  145.3000 C   0  0  0  0  0  0  0  0  0  0  0  0
  195.4050  175.0590  145.5360 C   0  0  0  0  0  3  0  0  0  0  0  0
  196.2740  174.1150  145.8750 C   0  0  0  0  0  2  0  0  0  0  0  0
  193.8340  175.5030  141.9080 N   0  0  0  0  0  1  0  0  0  0  0  0
  194.1630  174.4270  142.8280 C   0  0  0  0  0  2  0  0  0  0  0  0
  185.4650  177.3760  143.8790 O   0  0  0  0  0  0  0  0  0  0  0  0
  184.5710  178.2630  144.4810 C   0  0  0  0  0  2  0  0  0  0  0  0
  184.5410  178.0210  145.9490 C   0  0  0  0  0  0  0  0  0  0  0  0
  184.2120  178.9500  146.7320 O   0  0  0  0  0  0  0  0  0  0  0  0
  184.9250  176.7550  146.4700 N   0  0  0  0  0  1  0  0  0  0  0  0
  1  9  1  0  0  0  0
  2 22  2  0  0  0  0
  2 11  1  0  0  0  0
  3  4  1  0  0  0  0
  5  6  1  0  0  0  0
  5 21  1  1  0  0  0
  5 22  1  0  0  0  0
  6 23  2  0  0  0  0
  7 16  1  6  0  0  0
  7 20  1  0  0  0  0
  7 15  1  0  0  0  0
  8 11  1  0  0  0  0
  9 15  1  0  0  0  0
  9 28  1  6  0  0  0
 10  3  2  0  0  0  0
 11 12  1  0  0  0  0
 12 18  1  0  0  0  0
 12 10  1  6  0  0  0
 13 19  1  0  0  0  0
 13 18  2  0  0  0  0
 14 16  1  0  0  0  0
 14  1  1  0  0  0  0
 15  8  1  1  0  0  0
 17  4  2  0  0  0  0
 18 17  1  0  0  0  0
 20  2  1  0  0  0  0
 22 13  1  0  0  0  0
 23 24  1  0  0  0  0
 23 19  1  0  0  0  0
 24 25  2  0  0  0  0
 26 27  1  0  0  0  0
 27  6  1  0  0  0  0
 28 29  1  0  0  0  0
 29 30  1  0  0  0  0
 30 32  1  0  0  0  0
 30 31  2  0  0  0  0
M  END
>  <MODEL>
1

>  <REMARK>
 VINA RESULT:      -7.7      0.000      0.000
  Name = 
  5 active torsions:
  status: ('A' for Active; 'I' for Inactive)
    1  A    between atoms: C_6  and  C_18
    2  A    between atoms: C_9  and  C_28
    3  A    between atoms: C_10  and  O_20
    4  A    between atoms: O_20  and  C_29
    5  A    between atoms: C_29  and  C_30
                            x       y       z     vdW  Elec       q    Type
                         _______ _______ _______ _____ _____    ______ ____

>  <TORSDO>
F 5

$$$$
=
 OpenBabel11112416353D

 32 36  0  0  1  0  0  0  0  0999 V2000
  184.2990  178.2740  145.2870 C   0  0  0  0  0  2  0  0  0  0  0  0
  189.0050  176.3660  144.1170 C   0  0  0  0  0  0  0  0  0  0  0  0
  188.0660  172.7230  141.0530 C   0  0  0  0  0  3  0  0  0  0  0  0
  189.5060  172.4090  140.9500 C   0  0  0  0  0  3  0  0  0  0  0  0
  191.2630  176.5700  145.1570 C   0  0  1  0  0  3  0  0  0  0  0  0
  192.1810  175.5210  145.7340 C   0  0  0  0  0  0  0  0  0  0  0  0
  187.2180  178.0360  144.6720 C   0  0  1  0  0  3  0  0  0  0  0  0
  186.7410  176.2840  142.9820 C   0  0  0  0  0  2  0  0  0  0  0  0
  184.8170  177.5680  144.0210 C   0  0  2  0  0  3  0  0  0  0  0  0
  187.6460  173.8560  141.6250 C   0  0  0  0  0  3  0  0  0  0  0  0
  188.0920  175.7390  143.1780 N   0  0  0  0  0  0  0  0  0  0  0  0
  188.6250  174.9110  142.0860 C   0  0  1  0  0  3  0  0  0  0  0  0
  190.7820  174.8740  143.3110 C   0  0  0  0  0  0  0  0  0  0  0  0
  185.3640  178.4610  146.3730 C   0  0  0  0  0  2  0  0  0  0  0  0
  186.2160  176.9690  144.2330 C   0  0  2  0  0  3  0  0  0  0  0  0
  186.6770  178.9650  145.7700 C   0  0  0  0  0  2  0  0  0  0  0  0
  190.4140  173.1490  141.5940 C   0  0  0  0  0  3  0  0  0  0  0  0
  189.9830  174.3150  142.3920 C   0  0  0  0  0  0  0  0  0  0  0  0
  192.1890  174.3830  143.5310 C   0  0  0  0  0  2  0  0  0  0  0  0
  188.4900  177.3530  145.1390 C   0  0  0  0  0  2  0  0  0  0  0  0
  192.0710  177.6700  144.4890 C   0  0  0  0  0  1  0  0  0  0  0  0
  190.2910  175.9710  144.1720 C   0  0  0  0  0  0  0  0  0  0  0  0
  192.5940  174.4670  144.9790 C   0  0  0  0  0  0  0  0  0  0  0  0
  193.4610  173.3610  145.4460 C   0  0  0  0  0  3  0  0  0  0  0  0
  193.4480  172.1190  144.9790 C   0  0  0  0  0  2  0  0  0  0  0  0
  191.4560  176.2280  147.9270 N   0  0  0  0  0  1  0  0  0  0  0  0
  192.5820  175.7200  147.1620 C   0  0  0  0  0  2  0  0  0  0  0  0
  184.8250  178.4740  142.9560 O   0  0  0  0  0  0  0  0  0  0  0  0
  183.6000  178.2850  142.3130 C   0  0  0  0  0  2  0  0  0  0  0  0
  183.8200  178.1560  140.8470 C   0  0  0  0  0  0  0  0  0  0  0  0
  182.8500  177.9060  140.0850 O   0  0  0  0  0  0  0  0  0  0  0  0
  185.1320  178.2720  140.3120 N   0  0  0  0  0  1  0  0  0  0  0  0
  1 14  1  0  0  0  0
  2 22  2  0  0  0  0
  2 20  1  0  0  0  0
  3 10  2  0  0  0  0
  4  3  1  0  0  0  0
  4 17  2  0  0  0  0
  5 21  1  6  0  0  0
  5  6  1  0  0  0  0
  6 27  1  0  0  0  0
  7 20  1  1  0  0  0
  7 16  1  0  0  0  0
  8 11  1  0  0  0  0
  9 28  1  6  0  0  0
  9 15  1  0  0  0  0
  9  1  1  0  0  0  0
 11  2  1  0  0  0  0
 12 10  1  1  0  0  0
 12 18  1  0  0  0  0
 12 11  1  0  0  0  0
 13 19  1  0  0  0  0
 13 22  1  0  0  0  0
 15  8  1  6  0  0  0
 15  7  1  0  0  0  0
 16 14  1  0  0  0  0
 17 18  1  0  0  0  0
 18 13  2  0  0  0  0
 19 23  1  0  0  0  0
 22  5  1  0  0  0  0
 23 24  1  0  0  0  0
 23  6  2  0  0  0  0
 25 24  2  0  0  0  0
 27 26  1  0  0  0  0
 29 28  1  0  0  0  0
 30 29  1  0  0  0  0
 31 30  2  0  0  0  0
 32 30  1  0  0  0  0
M  END
>  <MODEL>
2

>  <REMARK>
 VINA RESULT:      -7.5      2.369      4.846
  Name = 
  5 active torsions:
  status: ('A' for Active; 'I' for Inactive)
    1  A    between atoms: C_6  and  C_18
    2  A    between atoms: C_9  and  C_28
    3  A    between atoms: C_10  and  O_20
    4  A    between atoms: O_20  and  C_29
    5  A    between atoms: C_29  and  C_30
                            x       y       z     vdW  Elec       q    Type
                         _______ _______ _______ _____ _____    ______ ____

>  <TORSDO>
F 5

$$$$
=
 OpenBabel11112416353D

 32 36  0  0  1  0  0  0  0  0999 V2000
  185.4560  179.3630  143.6380 C   0  0  0  0  0  2  0  0  0  0  0  0
  188.8070  175.3730  143.5140 C   0  0  0  0  0  0  0  0  0  0  0  0
  192.0190  176.4310  146.9940 C   0  0  0  0  0  3  0  0  0  0  0  0
  192.7830  175.2030  146.6920 C   0  0  0  0  0  3  0  0  0  0  0  0
  189.3190  173.5950  141.8430 C   0  0  1  0  0  3  0  0  0  0  0  0
  190.5950  173.2740  141.1040 C   0  0  0  0  0  0  0  0  0  0  0  0
  186.6370  176.6250  143.3820 C   0  0  1  0  0  3  0  0  0  0  0  0
  188.1790  177.0910  145.2690 C   0  0  0  0  0  2  0  0  0  0  0  0
  186.3200  178.7330  144.7460 C   0  0  2  0  0  3  0  0  0  0  0  0
  190.7980  176.6260  146.4850 C   0  0  0  0  0  3  0  0  0  0  0  0
  189.1250  176.1060  144.7270 N   0  0  0  0  0  0  0  0  0  0  0  0
  190.1060  175.5550  145.6740 C   0  0  1  0  0  3  0  0  0  0  0  0
  190.8100  173.9990  143.8750 C   0  0  0  0  0  0  0  0  0  0  0  0
  185.5980  178.6760  142.2750 C   0  0  0  0  0  2  0  0  0  0  0  0
  187.3330  177.7280  144.1780 C   0  0  2  0  0  3  0  0  0  0  0  0
  185.5590  177.1540  142.4230 C   0  0  0  0  0  2  0  0  0  0  0  0
  192.3620  174.3500  145.7540 C   0  0  0  0  0  3  0  0  0  0  0  0
  191.1020  174.6140  145.0290 C   0  0  0  0  0  0  0  0  0  0  0  0
  191.7240  172.9540  143.2890 C   0  0  0  0  0  2  0  0  0  0  0  0
  187.6840  175.8370  142.6160 C   0  0  0  0  0  2  0  0  0  0  0  0
  188.5540  172.3190  142.1550 C   0  0  0  0  0  1  0  0  0  0  0  0
  189.5940  174.3580  143.1140 C   0  0  0  0  0  0  0  0  0  0  0  0
  191.7430  173.0040  141.7840 C   0  0  0  0  0  0  0  0  0  0  0  0
  193.0590  172.7130  141.1700 C   0  0  0  0  0  3  0  0  0  0  0  0
  194.2320  173.1420  141.6190 C   0  0  0  0  0  2  0  0  0  0  0  0
  189.2500  173.8880  139.1950 N   0  0  0  0  0  1  0  0  0  0  0  0
  190.5050  173.2850  139.6110 C   0  0  0  0  0  2  0  0  0  0  0  0
  185.4880  178.1180  145.6880 O   0  0  0  0  0  0  0  0  0  0  0  0
  185.4220  179.0180  146.7530 C   0  0  0  0  0  2  0  0  0  0  0  0
  186.2100  178.4930  147.9000 C   0  0  0  0  0  0  0  0  0  0  0  0
  186.0670  177.2970  148.2660 O   0  0  0  0  0  0  0  0  0  0  0  0
  187.0920  179.3520  148.6110 N   0  0  0  0  0  1  0  0  0  0  0  0
  1  9  1  0  0  0  0
  2 11  1  0  0  0  0
  4  3  1  0  0  0  0
  5 21  1  1  0  0  0
  5 22  1  0  0  0  0
  6 23  2  0  0  0  0
  6  5  1  0  0  0  0
  7 16  1  6  0  0  0
  7 15  1  0  0  0  0
  9 28  1  1  0  0  0
 10  3  2  0  0  0  0
 11  8  1  0  0  0  0
 11 12  1  0  0  0  0
 12 10  1  6  0  0  0
 13 18  2  0  0  0  0
 14 16  1  0  0  0  0
 14  1  1  0  0  0  0
 15  9  1  0  0  0  0
 15  8  1  1  0  0  0
 17  4  2  0  0  0  0
 18 12  1  0  0  0  0
 18 17  1  0  0  0  0
 19 13  1  0  0  0  0
 20  7  1  0  0  0  0
 20  2  1  0  0  0  0
 22  2  2  0  0  0  0
 22 13  1  0  0  0  0
 23 19  1  0  0  0  0
 24 25  2  0  0  0  0
 24 23  1  0  0  0  0
 26 27  1  0  0  0  0
 27  6  1  0  0  0  0
 28 29  1  0  0  0  0
 29 30  1  0  0  0  0
 30 31  2  0  0  0  0
 30 32  1  0  0  0  0
M  END
>  <MODEL>
3

>  <REMARK>
 VINA RESULT:      -7.5      2.227      3.221
  Name = 
  5 active torsions:
  status: ('A' for Active; 'I' for Inactive)
    1  A    between atoms: C_6  and  C_18
    2  A    between atoms: C_9  and  C_28
    3  A    between atoms: C_10  and  O_20
    4  A    between atoms: O_20  and  C_29
    5  A    between atoms: C_29  and  C_30
                            x       y       z     vdW  Elec       q    Type
                         _______ _______ _______ _____ _____    ______ ____

>  <TORSDO>
F 5

$$$$
=
 OpenBabel11112416353D

 32 36  0  0  1  0  0  0  0  0999 V2000
  189.4450  171.6600  139.2720 C   0  0  0  0  0  2  0  0  0  0  0  0
  188.1470  175.5960  142.4320 C   0  0  0  0  0  0  0  0  0  0  0  0
  189.5180  174.0710  146.8300 C   0  0  0  0  0  3  0  0  0  0  0  0
  189.0180  175.3180  147.4420 C   0  0  0  0  0  3  0  0  0  0  0  0
  186.6340  177.5660  142.2110 C   0  0  1  0  0  3  0  0  0  0  0  0
  185.4110  177.9640  143.0010 C   0  0  0  0  0  0  0  0  0  0  0  0
  188.9430  174.3950  140.3780 C   0  0  1  0  0  3  0  0  0  0  0  0
  189.7950  173.6770  142.5960 C   0  0  0  0  0  2  0  0  0  0  0  0
  190.0600  172.1350  140.6010 C   0  0  2  0  0  3  0  0  0  0  0  0
  189.6420  173.9550  145.5030 C   0  0  0  0  0  3  0  0  0  0  0  0
  188.9720  174.7120  143.2370 N   0  0  0  0  0  0  0  0  0  0  0  0
  189.3830  175.1280  144.5860 C   0  0  1  0  0  3  0  0  0  0  0  0
  187.6420  176.8920  144.4570 C   0  0  0  0  0  0  0  0  0  0  0  0
  188.2620  172.5130  138.7960 C   0  0  0  0  0  2  0  0  0  0  0  0
  189.1850  173.1920  141.2900 C   0  0  2  0  0  3  0  0  0  0  0  0
  188.5710  174.0040  138.9400 C   0  0  0  0  0  2  0  0  0  0  0  0
  188.4940  176.2890  146.6870 C   0  0  0  0  0  3  0  0  0  0  0  0
  188.4420  176.1320  145.2180 C   0  0  0  0  0  0  0  0  0  0  0  0
  186.8040  177.9920  145.0520 C   0  0  0  0  0  2  0  0  0  0  0  0
  187.8560  175.2620  140.9870 C   0  0  0  0  0  2  0  0  0  0  0  0
  187.4090  178.8000  141.7790 C   0  0  0  0  0  1  0  0  0  0  0  0
  187.5270  176.6450  143.0030 C   0  0  0  0  0  0  0  0  0  0  0  0
  185.4800  178.1330  144.3490 C   0  0  0  0  0  0  0  0  0  0  0  0
  184.3430  178.4850  145.2310 C   0  0  0  0  0  3  0  0  0  0  0  0
  184.2340  178.1670  146.5150 C   0  0  0  0  0  2  0  0  0  0  0  0
  184.4240  177.9400  140.7970 N   0  0  0  0  0  1  0  0  0  0  0  0
  184.1540  178.1430  142.2100 C   0  0  0  0  0  2  0  0  0  0  0  0
  191.3450  172.6350  140.3640 O   0  0  0  0  0  0  0  0  0  0  0  0
  192.1790  171.5160  140.3970 C   0  0  0  0  0  2  0  0  0  0  0  0
  192.5470  171.2090  141.8050 C   0  0  0  0  0  0  0  0  0  0  0  0
  193.0670  172.1000  142.5270 O   0  0  0  0  0  0  0  0  0  0  0  0
  192.3530  169.8990  142.3220 N   0  0  0  0  0  1  0  0  0  0  0  0
  1  9  1  0  0  0  0
  2 22  2  0  0  0  0
  2 11  1  0  0  0  0
  3  4  1  0  0  0  0
  5 21  1  1  0  0  0
  5  6  1  0  0  0  0
  5 22  1  0  0  0  0
  6 23  2  0  0  0  0
  7 16  1  6  0  0  0
  7 20  1  0  0  0  0
  7 15  1  0  0  0  0
  8 11  1  0  0  0  0
  9 28  1  6  0  0  0
  9 15  1  0  0  0  0
 10  3  2  0  0  0  0
 11 12  1  0  0  0  0
 12 18  1  0  0  0  0
 12 10  1  1  0  0  0
 13 19  1  0  0  0  0
 13 18  2  0  0  0  0
 14 16  1  0  0  0  0
 14  1  1  0  0  0  0
 15  8  1  1  0  0  0
 17  4  2  0  0  0  0
 18 17  1  0  0  0  0
 20  2  1  0  0  0  0
 22 13  1  0  0  0  0
 23 19  1  0  0  0  0
 23 24  1  0  0  0  0
 24 25  2  0  0  0  0
 26 27  1  0  0  0  0
 27  6  1  0  0  0  0
 28 29  1  0  0  0  0
 29 30  1  0  0  0  0
 30 32  1  0  0  0  0
 30 31  2  0  0  0  0
M  END
>  <MODEL>
4

>  <REMARK>
 VINA RESULT:      -7.4      3.917      7.456
  Name = 
  5 active torsions:
  status: ('A' for Active; 'I' for Inactive)
    1  A    between atoms: C_6  and  C_18
    2  A    between atoms: C_9  and  C_28
    3  A    between atoms: C_10  and  O_20
    4  A    between atoms: O_20  and  C_29
    5  A    between atoms: C_29  and  C_30
                            x       y       z     vdW  Elec       q    Type
                         _______ _______ _______ _____ _____    ______ ____

>  <TORSDO>
F 5

$$$$
=
 OpenBabel11112416353D

 32 36  0  0  1  0  0  0  0  0999 V2000
  185.2650  177.3240  146.2330 C   0  0  0  0  0  2  0  0  0  0  0  0
  189.7750  175.9550  144.0070 C   0  0  0  0  0  0  0  0  0  0  0  0
  188.4300  173.3770  140.1220 C   0  0  0  0  0  3  0  0  0  0  0  0
  189.8430  173.1390  139.7640 C   0  0  0  0  0  3  0  0  0  0  0  0
  192.1410  175.8870  144.7910 C   0  0  1  0  0  3  0  0  0  0  0  0
  193.1050  174.7330  144.9160 C   0  0  0  0  0  0  0  0  0  0  0  0
  188.0890  177.3440  145.2410 C   0  0  1  0  0  3  0  0  0  0  0  0
  187.3920  176.1680  143.1700 C   0  0  0  0  0  2  0  0  0  0  0  0
  185.6220  177.0400  144.7630 C   0  0  2  0  0  3  0  0  0  0  0  0
  188.0960  174.2780  141.0520 C   0  0  0  0  0  3  0  0  0  0  0  0
  188.7480  175.6190  143.0360 N   0  0  0  0  0  0  0  0  0  0  0  0
  189.1380  175.1670  141.6920 C   0  0  1  0  0  3  0  0  0  0  0  0
  191.4230  174.8110  142.5900 C   0  0  0  0  0  0  0  0  0  0  0  0
  186.4540  177.2010  147.1940 C   0  0  0  0  0  2  0  0  0  0  0  0
  187.0270  176.4360  144.6220 C   0  0  2  0  0  3  0  0  0  0  0  0
  187.6930  177.8890  146.6220 C   0  0  0  0  0  2  0  0  0  0  0  0
  190.8310  173.6710  140.4890 C   0  0  0  0  0  3  0  0  0  0  0  0
  190.5130  174.5360  141.6450 C   0  0  0  0  0  0  0  0  0  0  0  0
  192.8390  174.3080  142.4880 C   0  0  0  0  0  2  0  0  0  0  0  0
  189.3970  176.5800  145.3300 C   0  0  0  0  0  2  0  0  0  0  0  0
  192.8810  177.1540  144.3940 C   0  0  0  0  0  1  0  0  0  0  0  0
  191.0510  175.5890  143.7910 C   0  0  0  0  0  0  0  0  0  0  0  0
  193.4110  173.9630  143.8370 C   0  0  0  0  0  0  0  0  0  0  0  0
  194.3110  172.7870  143.8470 C   0  0  0  0  0  3  0  0  0  0  0  0
  195.6170  172.8110  143.6080 C   0  0  0  0  0  2  0  0  0  0  0  0
  194.9260  175.2260  146.4240 N   0  0  0  0  0  1  0  0  0  0  0  0
  193.6740  174.5040  146.2810 C   0  0  0  0  0  2  0  0  0  0  0  0
  185.5180  178.2240  144.0240 O   0  0  0  0  0  0  0  0  0  0  0  0
  184.1860  178.2740  143.6080 C   0  0  0  0  0  2  0  0  0  0  0  0
  184.1240  178.2240  142.1230 C   0  0  0  0  0  0  0  0  0  0  0  0
  185.1860  178.2640  141.4480 O   0  0  0  0  0  0  0  0  0  0  0  0
  182.8650  178.1750  141.4640 N   0  0  0  0  0  1  0  0  0  0  0  0
  1 14  1  0  0  0  0
  2 20  1  0  0  0  0
  3 10  2  0  0  0  0
  4  3  1  0  0  0  0
  4 17  2  0  0  0  0
  5 21  1  6  0  0  0
  5  6  1  0  0  0  0
  6 27  1  0  0  0  0
  7 20  1  1  0  0  0
  7 16  1  0  0  0  0
  9 28  1  6  0  0  0
  9  1  1  0  0  0  0
 11  8  1  0  0  0  0
 11  2  1  0  0  0  0
 12 10  1  1  0  0  0
 12 11  1  0  0  0  0
 13 22  1  0  0  0  0
 15  8  1  6  0  0  0
 15  9  1  0  0  0  0
 15  7  1  0  0  0  0
 16 14  1  0  0  0  0
 17 18  1  0  0  0  0
 18 12  1  0  0  0  0
 18 13  2  0  0  0  0
 19 13  1  0  0  0  0
 19 23  1  0  0  0  0
 22  2  2  0  0  0  0
 22  5  1  0  0  0  0
 23 24  1  0  0  0  0
 23  6  2  0  0  0  0
 25 24  2  0  0  0  0
 27 26  1  0  0  0  0
 29 28  1  0  0  0  0
 30 29  1  0  0  0  0
 31 30  2  0  0  0  0
 32 30  1  0  0  0  0
M  END
>  <MODEL>
5

>  <REMARK>
 VINA RESULT:      -6.9      2.340      4.750
  Name = 
  5 active torsions:
  status: ('A' for Active; 'I' for Inactive)
    1  A    between atoms: C_6  and  C_18
    2  A    between atoms: C_9  and  C_28
    3  A    between atoms: C_10  and  O_20
    4  A    between atoms: O_20  and  C_29
    5  A    between atoms: C_29  and  C_30
                            x       y       z     vdW  Elec       q    Type
                         _______ _______ _______ _____ _____    ______ ____

>  <TORSDO>
F 5

$$$$
=
 OpenBabel11112416353D

 32 36  0  0  1  0  0  0  0  0999 V2000
  192.1940  171.3940  140.7010 C   0  0  0  0  0  2  0  0  0  0  0  0
  190.0510  175.4730  143.1390 C   0  0  0  0  0  0  0  0  0  0  0  0
  191.8860  175.2540  147.6260 C   0  0  0  0  0  3  0  0  0  0  0  0
  191.1090  176.4450  148.0250 C   0  0  0  0  0  3  0  0  0  0  0  0
  188.0910  176.9380  142.6630 C   0  0  1  0  0  3  0  0  0  0  0  0
  186.8310  177.1880  143.4560 C   0  0  0  0  0  0  0  0  0  0  0  0
  191.0610  174.0990  141.2980 C   0  0  1  0  0  3  0  0  0  0  0  0
  192.1280  174.0760  143.5380 C   0  0  0  0  0  2  0  0  0  0  0  0
  192.7100  172.2640  141.8620 C   0  0  2  0  0  3  0  0  0  0  0  0
  191.9950  174.9010  146.3410 C   0  0  0  0  0  3  0  0  0  0  0  0
  191.0930  174.9940  144.0310 N   0  0  0  0  0  0  0  0  0  0  0  0
  191.4270  175.7640  145.2380 C   0  0  1  0  0  3  0  0  0  0  0  0
  189.3000  176.9990  144.9100 C   0  0  0  0  0  0  0  0  0  0  0  0
  190.8230  171.8260  140.1660 C   0  0  0  0  0  2  0  0  0  0  0  0
  191.6200  173.2020  142.4020 C   0  0  2  0  0  3  0  0  0  0  0  0
  190.7560  173.3440  139.9950 C   0  0  0  0  0  2  0  0  0  0  0  0
  190.3390  177.0870  147.1410 C   0  0  0  0  0  3  0  0  0  0  0  0
  190.2850  176.6240  145.7380 C   0  0  0  0  0  0  0  0  0  0  0  0
  188.2320  177.9670  145.3480 C   0  0  0  0  0  2  0  0  0  0  0  0
  189.8110  174.7900  141.8130 C   0  0  0  0  0  2  0  0  0  0  0  0
  188.5210  178.2050  141.9430 C   0  0  0  0  0  1  0  0  0  0  0  0
  189.2080  176.4390  143.5450 C   0  0  0  0  0  0  0  0  0  0  0  0
  186.8950  177.6420  144.7370 C   0  0  0  0  0  0  0  0  0  0  0  0
  185.7320  177.8870  145.6220 C   0  0  0  0  0  3  0  0  0  0  0  0
  185.1910  177.0020  146.4490 C   0  0  0  0  0  2  0  0  0  0  0  0
  185.0050  178.1210  142.1810 N   0  0  0  0  0  1  0  0  0  0  0  0
  185.5460  176.8970  142.7470 C   0  0  0  0  0  2  0  0  0  0  0  0
  193.8230  172.9950  141.4330 O   0  0  0  0  0  0  0  0  0  0  0  0
  194.9240  172.2000  141.7570 C   0  0  0  0  0  2  0  0  0  0  0  0
  195.6360  172.7860  142.9240 C   0  0  0  0  0  0  0  0  0  0  0  0
  196.0990  172.0340  143.8210 O   0  0  0  0  0  0  0  0  0  0  0  0
  195.7580  174.1970  143.0480 N   0  0  0  0  0  1  0  0  0  0  0  0
  1  9  1  0  0  0  0
  2 22  2  0  0  0  0
  2 11  1  0  0  0  0
  3  4  1  0  0  0  0
  5 21  1  1  0  0  0
  5  6  1  0  0  0  0
  5 22  1  0  0  0  0
  6 23  2  0  0  0  0
  7 16  1  6  0  0  0
  7 20  1  0  0  0  0
  7 15  1  0  0  0  0
  8 11  1  0  0  0  0
  9 28  1  6  0  0  0
  9 15  1  0  0  0  0
 10  3  2  0  0  0  0
 11 12  1  0  0  0  0
 12 18  1  0  0  0  0
 12 10  1  1  0  0  0
 13 19  1  0  0  0  0
 13 18  2  0  0  0  0
 14  1  1  0  0  0  0
 15  8  1  1  0  0  0
 16 14  1  0  0  0  0
 17  4  2  0  0  0  0
 18 17  1  0  0  0  0
 20  2  1  0  0  0  0
 22 13  1  0  0  0  0
 23 19  1  0  0  0  0
 23 24  1  0  0  0  0
 24 25  2  0  0  0  0
 26 27  1  0  0  0  0
 27  6  1  0  0  0  0
 28 29  1  0  0  0  0
 29 30  1  0  0  0  0
 30 32  1  0  0  0  0
 30 31  2  0  0  0  0
M  END
>  <MODEL>
6

>  <REMARK>
 VINA RESULT:      -6.9      3.439      7.362
  Name = 
  5 active torsions:
  status: ('A' for Active; 'I' for Inactive)
    1  A    between atoms: C_6  and  C_18
    2  A    between atoms: C_9  and  C_28
    3  A    between atoms: C_10  and  O_20
    4  A    between atoms: O_20  and  C_29
    5  A    between atoms: C_29  and  C_30
                            x       y       z     vdW  Elec       q    Type
                         _______ _______ _______ _____ _____    ______ ____

>  <TORSDO>
F 5

$$$$
=
 OpenBabel11112416353D

 32 36  0  0  1  0  0  0  0  0999 V2000
  186.0270  179.0490  143.1640 C   0  0  0  0  0  2  0  0  0  0  0  0
  189.4720  175.1400  143.2580 C   0  0  0  0  0  0  0  0  0  0  0  0
  192.5900  176.4080  146.7540 C   0  0  0  0  0  3  0  0  0  0  0  0
  193.3880  175.1890  146.5150 C   0  0  0  0  0  3  0  0  0  0  0  0
  190.0590  173.3120  141.6680 C   0  0  1  0  0  3  0  0  0  0  0  0
  191.3560  172.9930  140.9660 C   0  0  0  0  0  0  0  0  0  0  0  0
  187.2760  176.3330  143.0370 C   0  0  1  0  0  3  0  0  0  0  0  0
  188.7700  176.9080  144.9330 C   0  0  0  0  0  2  0  0  0  0  0  0
  186.8830  178.4840  144.3110 C   0  0  2  0  0  3  0  0  0  0  0  0
  191.3750  176.5540  146.2150 C   0  0  0  0  0  3  0  0  0  0  0  0
  189.7500  175.9270  144.4480 N   0  0  0  0  0  0  0  0  0  0  0  0
  190.7240  175.4360  145.4340 C   0  0  1  0  0  3  0  0  0  0  0  0
  191.5000  173.8290  143.7100 C   0  0  0  0  0  0  0  0  0  0  0  0
  186.2120  178.3140  141.8310 C   0  0  0  0  0  2  0  0  0  0  0  0
  187.9310  177.4830  143.8030 C   0  0  2  0  0  3  0  0  0  0  0  0
  186.2060  176.7990  142.0380 C   0  0  0  0  0  2  0  0  0  0  0  0
  193.0060  174.2890  145.6030 C   0  0  0  0  0  3  0  0  0  0  0  0
  191.7540  174.4960  144.8450 C   0  0  0  0  0  0  0  0  0  0  0  0
  192.4490  172.7850  143.1830 C   0  0  0  0  0  2  0  0  0  0  0  0
  188.3570  175.5420  142.3220 C   0  0  0  0  0  2  0  0  0  0  0  0
  189.3180  172.0310  142.0150 C   0  0  0  0  0  1  0  0  0  0  0  0
  190.2910  174.1290  142.9130 C   0  0  0  0  0  0  0  0  0  0  0  0
  192.4960  172.7780  141.6780 C   0  0  0  0  0  0  0  0  0  0  0  0
  193.8300  172.4950  141.1000 C   0  0  0  0  0  3  0  0  0  0  0  0
  194.8730  173.3150  141.1270 C   0  0  0  0  0  2  0  0  0  0  0  0
  191.1510  171.5690  139.0270 N   0  0  0  0  0  1  0  0  0  0  0  0
  191.2950  172.9440  139.4720 C   0  0  0  0  0  2  0  0  0  0  0  0
  186.0480  177.8860  145.2610 O   0  0  0  0  0  0  0  0  0  0  0  0
  185.5040  178.9490  145.9840 C   0  0  0  0  0  2  0  0  0  0  0  0
  185.9240  178.8510  147.4070 C   0  0  0  0  0  0  0  0  0  0  0  0
  186.2990  179.8820  148.0250 O   0  0  0  0  0  0  0  0  0  0  0  0
  185.9440  177.5870  148.0580 N   0  0  0  0  0  1  0  0  0  0  0  0
  1  9  1  0  0  0  0
  2 11  1  0  0  0  0
  4  3  1  0  0  0  0
  5 21  1  1  0  0  0
  5 22  1  0  0  0  0
  6  5  1  0  0  0  0
  6 23  2  0  0  0  0
  7 16  1  6  0  0  0
  7 15  1  0  0  0  0
  9 28  1  1  0  0  0
 10  3  2  0  0  0  0
 11  8  1  0  0  0  0
 11 12  1  0  0  0  0
 12 10  1  6  0  0  0
 13 18  2  0  0  0  0
 14 16  1  0  0  0  0
 14  1  1  0  0  0  0
 15  9  1  0  0  0  0
 15  8  1  1  0  0  0
 17  4  2  0  0  0  0
 18 12  1  0  0  0  0
 18 17  1  0  0  0  0
 19 13  1  0  0  0  0
 20  7  1  0  0  0  0
 20  2  1  0  0  0  0
 22  2  2  0  0  0  0
 22 13  1  0  0  0  0
 23 19  1  0  0  0  0
 24 25  2  0  0  0  0
 24 23  1  0  0  0  0
 26 27  1  0  0  0  0
 27  6  1  0  0  0  0
 28 29  1  0  0  0  0
 29 30  1  0  0  0  0
 30 31  2  0  0  0  0
 30 32  1  0  0  0  0
M  END
>  <MODEL>
7

>  <REMARK>
 VINA RESULT:      -6.9      2.110      3.080
  Name = 
  5 active torsions:
  status: ('A' for Active; 'I' for Inactive)
    1  A    between atoms: C_6  and  C_18
    2  A    between atoms: C_9  and  C_28
    3  A    between atoms: C_10  and  O_20
    4  A    between atoms: O_20  and  C_29
    5  A    between atoms: C_29  and  C_30
                            x       y       z     vdW  Elec       q    Type
                         _______ _______ _______ _____ _____    ______ ____

>  <TORSDO>
F 5

$$$$
=
 OpenBabel11112416353D

 32 36  0  0  1  0  0  0  0  0999 V2000
  194.5630  176.0670  146.3830 C   0  0  0  0  0  2  0  0  0  0  0  0
  189.6580  175.8820  144.6320 C   0  0  0  0  0  0  0  0  0  0  0  0
  190.0400  173.7310  140.2990 C   0  0  0  0  0  3  0  0  0  0  0  0
  188.5840  173.8540  140.0850 C   0  0  0  0  0  3  0  0  0  0  0  0
  187.5520  177.0600  145.2580 C   0  0  1  0  0  3  0  0  0  0  0  0
  186.6530  177.9670  144.4530 C   0  0  0  0  0  0  0  0  0  0  0  0
  191.5840  175.8260  146.2390 C   0  0  1  0  0  3  0  0  0  0  0  0
  191.7670  174.5810  144.1000 C   0  0  0  0  0  2  0  0  0  0  0  0
  193.8640  175.0730  145.4380 C   0  0  2  0  0  3  0  0  0  0  0  0
  190.5830  173.9610  141.4990 C   0  0  0  0  0  3  0  0  0  0  0  0
  190.4220  175.0390  143.7280 N   0  0  0  0  0  0  0  0  0  0  0  0
  189.7220  174.2450  142.7080 C   0  0  1  0  0  3  0  0  0  0  0  0
  187.7230  175.6510  143.1360 C   0  0  0  0  0  0  0  0  0  0  0  0
  193.6430  177.1750  146.9090 C   0  0  0  0  0  2  0  0  0  0  0  0
  192.4700  175.5660  145.0210 C   0  0  2  0  0  3  0  0  0  0  0  0
  192.2970  176.6010  147.3560 C   0  0  0  0  0  2  0  0  0  0  0  0
  187.7970  174.3830  141.0270 C   0  0  0  0  0  3  0  0  0  0  0  0
  188.3790  174.8220  142.3120 C   0  0  0  0  0  0  0  0  0  0  0  0
  186.3270  176.1250  142.8260 C   0  0  0  0  0  2  0  0  0  0  0  0
  190.3400  176.5720  145.7900 C   0  0  0  0  0  2  0  0  0  0  0  0
  186.7290  176.2260  146.2270 C   0  0  0  0  0  1  0  0  0  0  0  0
  188.3690  176.1610  144.3650 C   0  0  0  0  0  0  0  0  0  0  0  0
  186.1000  177.5400  143.2860 C   0  0  0  0  0  0  0  0  0  0  0  0
  185.2350  178.3500  142.3960 C   0  0  0  0  0  3  0  0  0  0  0  0
  183.9110  178.2850  142.3380 C   0  0  0  0  0  2  0  0  0  0  0  0
  185.2030  179.3580  145.7940 N   0  0  0  0  0  1  0  0  0  0  0  0
  186.4320  179.3350  145.0190 C   0  0  0  0  0  2  0  0  0  0  0  0
  193.7800  173.8230  146.0610 O   0  0  0  0  0  0  0  0  0  0  0  0
  194.7590  173.0450  145.4410 C   0  0  0  0  0  2  0  0  0  0  0  0
  194.2860  171.6380  145.3390 C   0  0  0  0  0  0  0  0  0  0  0  0
  193.2500  171.3690  144.6760 O   0  0  0  0  0  0  0  0  0  0  0  0
  194.9800  170.6030  146.0240 N   0  0  0  0  0  1  0  0  0  0  0  0
  1 14  1  0  0  0  0
  2 20  1  0  0  0  0
  3 10  2  0  0  0  0
  4  3  1  0  0  0  0
  4 17  2  0  0  0  0
  5 21  1  1  0  0  0
  6 27  1  0  0  0  0
  6  5  1  0  0  0  0
  7 20  1  6  0  0  0
  7 16  1  0  0  0  0
  9 28  1  1  0  0  0
  9  1  1  0  0  0  0
 11  8  1  0  0  0  0
 11  2  1  0  0  0  0
 12 10  1  6  0  0  0
 12 11  1  0  0  0  0
 13 22  1  0  0  0  0
 14 16  1  0  0  0  0
 15  8  1  6  0  0  0
 15  9  1  0  0  0  0
 15  7  1  0  0  0  0
 17 18  1  0  0  0  0
 18 12  1  0  0  0  0
 18 13  2  0  0  0  0
 19 13  1  0  0  0  0
 19 23  1  0  0  0  0
 22  2  2  0  0  0  0
 22  5  1  0  0  0  0
 23  6  2  0  0  0  0
 24 23  1  0  0  0  0
 25 24  2  0  0  0  0
 27 26  1  0  0  0  0
 29 28  1  0  0  0  0
 30 29  1  0  0  0  0
 30 32  1  0  0  0  0
 31 30  2  0  0  0  0
M  END
>  <MODEL>
8

>  <REMARK>
 VINA RESULT:      -6.9      3.209      8.292
  Name = 
  5 active torsions:
  status: ('A' for Active; 'I' for Inactive)
    1  A    between atoms: C_6  and  C_18
    2  A    between atoms: C_9  and  C_28
    3  A    between atoms: C_10  and  O_20
    4  A    between atoms: O_20  and  C_29
    5  A    between atoms: C_29  and  C_30
                            x       y       z     vdW  Elec       q    Type
                         _______ _______ _______ _____ _____    ______ ____

>  <TORSDO>
F 5

$$$$
=
 OpenBabel11112416353D

 32 36  0  0  1  0  0  0  0  0999 V2000
  189.8910  171.7300  139.1560 C   0  0  0  0  0  2  0  0  0  0  0  0
  189.3170  175.4040  142.8090 C   0  0  0  0  0  0  0  0  0  0  0  0
  192.7390  174.3470  146.0830 C   0  0  0  0  0  3  0  0  0  0  0  0
  192.3100  175.4800  146.9280 C   0  0  0  0  0  3  0  0  0  0  0  0
  187.4910  177.0010  143.3840 C   0  0  1  0  0  3  0  0  0  0  0  0
  186.6790  177.1570  144.6470 C   0  0  0  0  0  0  0  0  0  0  0  0
  189.3710  174.3320  140.5410 C   0  0  1  0  0  3  0  0  0  0  0  0
  191.2260  173.8830  142.1260 C   0  0  0  0  0  2  0  0  0  0  0  0
  190.9100  172.3670  140.1190 C   0  0  2  0  0  3  0  0  0  0  0  0
  192.2960  174.2170  144.8280 C   0  0  0  0  0  3  0  0  0  0  0  0
  190.5710  174.7410  143.1230 N   0  0  0  0  0  0  0  0  0  0  0  0
  191.4310  175.2780  144.1870 C   0  0  1  0  0  3  0  0  0  0  0  0
  189.4870  176.6290  144.9310 C   0  0  0  0  0  0  0  0  0  0  0  0
  188.4730  172.2980  139.2900 C   0  0  0  0  0  2  0  0  0  0  0  0
  190.2240  173.2380  141.1820 C   0  0  2  0  0  3  0  0  0  0  0  0
  188.5010  173.8240  139.3810 C   0  0  0  0  0  2  0  0  0  0  0  0
  191.3250  176.2920  146.5350 C   0  0  0  0  0  3  0  0  0  0  0  0
  190.6750  176.0800  145.2250 C   0  0  0  0  0  0  0  0  0  0  0  0
  188.7850  177.5460  145.8970 C   0  0  0  0  0  2  0  0  0  0  0  0
  188.5040  174.9690  141.6110 C   0  0  0  0  0  2  0  0  0  0  0  0
  187.7310  178.3570  142.7400 C   0  0  0  0  0  1  0  0  0  0  0  0
  188.8070  176.3160  143.6560 C   0  0  0  0  0  0  0  0  0  0  0  0
  187.2890  177.3810  145.8420 C   0  0  0  0  0  0  0  0  0  0  0  0
  186.6020  177.5130  147.1470 C   0  0  0  0  0  3  0  0  0  0  0  0
  186.1030  178.6360  147.6470 C   0  0  0  0  0  2  0  0  0  0  0  0
  184.6200  178.3520  144.2440 N   0  0  0  0  0  1  0  0  0  0  0  0
  185.1960  177.0410  144.4870 C   0  0  0  0  0  2  0  0  0  0  0  0
  191.8320  173.1190  139.3840 O   0  0  0  0  0  0  0  0  0  0  0  0
  191.9410  172.4600  138.1580 C   0  0  0  0  0  2  0  0  0  0  0  0
  192.0640  173.4600  137.0630 C   0  0  0  0  0  0  0  0  0  0  0  0
  191.2720  174.4370  137.0120 O   0  0  0  0  0  0  0  0  0  0  0  0
  193.0470  173.2890  136.0510 N   0  0  0  0  0  1  0  0  0  0  0  0
  1 14  1  0  0  0  0
  1  9  1  0  0  0  0
  2 11  1  0  0  0  0
  2 22  2  0  0  0  0
  3  4  1  0  0  0  0
  5 21  1  1  0  0  0
  5 22  1  0  0  0  0
  5  6  1  0  0  0  0
  6 23  2  0  0  0  0
  7 16  1  6  0  0  0
  7 15  1  0  0  0  0
  7 20  1  0  0  0  0
  8 11  1  0  0  0  0
  9 28  1  6  0  0  0
  9 15  1  0  0  0  0
 10  3  2  0  0  0  0
 11 12  1  0  0  0  0
 12 10  1  1  0  0  0
 12 18  1  0  0  0  0
 13 18  2  0  0  0  0
 13 19  1  0  0  0  0
 14 16  1  0  0  0  0
 15  8  1  1  0  0  0
 17  4  2  0  0  0  0
 18 17  1  0  0  0  0
 20  2  1  0  0  0  0
 22 13  1  0  0  0  0
 23 19  1  0  0  0  0
 23 24  1  0  0  0  0
 24 25  2  0  0  0  0
 26 27  1  0  0  0  0
 27  6  1  0  0  0  0
 29 28  1  0  0  0  0
 30 29  1  0  0  0  0
 31 30  2  0  0  0  0
 32 30  1  0  0  0  0
M  END
>  <MODEL>
9

>  <REMARK>
 VINA RESULT:      -6.7      3.656      7.271
  Name = 
  5 active torsions:
  status: ('A' for Active; 'I' for Inactive)
    1  A    between atoms: C_6  and  C_18
    2  A    between atoms: C_9  and  C_28
    3  A    between atoms: C_10  and  O_20
    4  A    between atoms: O_20  and  C_29
    5  A    between atoms: C_29  and  C_30
                            x       y       z     vdW  Elec       q    Type
                         _______ _______ _______ _____ _____    ______ ____

>  <TORSDO>
F 5

$$$$
