=
 OpenBabel11112417083D

 37 44  0  0  1  0  0  0  0  0999 V2000
  189.8920  174.5450  143.2750 C   0  0  0  0  0  2  0  0  0  0  0  0
  191.1340  176.5930  147.2570 C   0  0  0  0  0  0  0  0  0  0  0  0
  187.4030  177.6670  145.6040 C   0  0  0  0  0  0  0  0  0  0  0  0
  190.7990  173.9200  142.2050 C   0  0  2  0  0  3  0  0  0  0  0  0
  186.2660  176.2810  142.3640 O   0  0  0  0  0  0  0  0  0  0  0  0
  188.9560  177.8050  147.4610 C   0  0  0  0  0  0  0  0  0  0  0  0
  187.4810  177.2250  144.3560 C   0  0  0  0  0  0  0  0  0  0  0  0
  188.7010  173.8470  140.8060 C   0  0  0  0  0  0  0  0  0  0  0  0
  188.6550  177.4530  146.2350 C   0  0  0  0  0  0  0  0  0  0  0  0
  186.3350  177.2630  143.3750 C   0  0  0  0  0  0  0  0  0  0  0  0
  187.9130  178.4980  148.2520 C   0  0  0  0  0  3  0  0  0  0  0  0
  190.1990  173.9360  140.7940 C   0  0  0  0  0  2  0  0  0  0  0  0
  189.5450  176.8340  145.3280 C   0  0  0  0  0  0  0  0  0  0  0  0
  190.8590  175.1910  147.7710 C   0  0  0  0  0  1  0  0  0  0  0  0
  185.7450  179.4200  145.5600 C   0  0  0  0  0  3  0  0  0  0  0  0
  186.6790  178.7130  147.7350 C   0  0  0  0  0  3  0  0  0  0  0  0
  190.9750  176.5960  145.7070 C   0  0  0  0  0  2  0  0  0  0  0  0
  187.8800  175.1010  140.8510 C   0  0  1  0  0  3  0  0  0  0  0  0
  187.2930  175.3220  142.2250 C   0  0  1  0  0  3  0  0  0  0  0  0
  186.2510  178.2580  146.3370 C   0  0  2  0  0  3  0  0  0  0  0  0
  188.8860  176.6640  144.1780 C   0  0  0  0  0  0  0  0  0  0  0  0
  190.2490  177.5230  147.9310 O   0  0  0  0  0  0  0  0  0  0  0  0
  185.3640  178.2220  143.4080 C   0  0  0  0  0  0  0  0  0  0  0  0
  192.5650  176.9480  147.5960 C   0  0  0  0  0  1  0  0  0  0  0  0
  188.4930  176.1520  141.7830 C   0  0  1  0  0  3  0  0  0  0  0  0
  188.1540  172.7560  140.7830 O   0  0  0  0  0  0  0  0  0  0  0  0
  189.4780  175.9890  142.9510 C   0  0  2  0  0  3  0  0  0  0  0  0
  185.3660  179.3470  144.3180 N   0  0  0  0  0  0  0  0  0  0  0  0
  184.6260  177.9770  141.0420 C   0  0  0  0  0  3  0  0  0  0  0  0
  184.2950  178.2550  142.3770 C   0  0  0  0  0  0  0  0  0  0  0  0
  182.9490  178.4850  142.7070 C   0  0  0  0  0  3  0  0  0  0  0  0
  180.6040  178.7150  142.0670 N   0  0  0  0  0  1  0  0  0  0  0  0
  182.3060  178.2070  140.3910 C   0  0  0  0  0  3  0  0  0  0  0  0
  181.9620  178.4690  141.7190 C   0  0  0  0  0  0  0  0  0  0  0  0
  183.6380  177.9600  140.0530 C   0  0  0  0  0  3  0  0  0  0  0  0
  190.2700  172.0200  143.7330 C   0  0  0  0  0  1  0  0  0  0  0  0
  191.1500  172.4940  142.5910 C   0  0  0  0  0  2  0  0  0  0  0  0
  2 24  1  0  0  0  0
  2 14  1  0  0  0  0
  2 22  1  0  0  0  0
  3  9  1  0  0  0  0
  3 20  1  0  0  0  0
  4 37  1  1  0  0  0
  4  1  1  0  0  0  0
  5 10  1  0  0  0  0
  6 22  1  0  0  0  0
  6 11  1  0  0  0  0
  7  3  2  0  0  0  0
  9  6  2  0  0  0  0
 10 23  2  0  0  0  0
 10  7  1  0  0  0  0
 12  8  1  0  0  0  0
 12  4  1  0  0  0  0
 13 17  1  0  0  0  0
 13  9  1  0  0  0  0
 16 11  2  0  0  0  0
 17  2  1  0  0  0  0
 18  8  1  1  0  0  0
 18 25  1  0  0  0  0
 18 19  1  0  0  0  0
 19  5  1  6  0  0  0
 20 15  1  6  0  0  0
 20 16  1  0  0  0  0
 21  7  1  0  0  0  0
 21 13  2  0  0  0  0
 23 28  1  0  0  0  0
 25 19  1  0  0  0  0
 25 27  1  0  0  0  0
 26  8  2  0  0  0  0
 27  1  1  0  0  0  0
 27 21  1  0  0  0  0
 28 15  2  0  0  0  0
 29 30  1  0  0  0  0
 30 31  2  0  0  0  0
 30 23  1  0  0  0  0
 33 34  2  0  0  0  0
 34 32  1  0  0  0  0
 34 31  1  0  0  0  0
 35 33  1  0  0  0  0
 35 29  2  0  0  0  0
 37 36  1  0  0  0  0
M  END
>  <MODEL>
1

>  <REMARK>
 VINA RESULT:      -9.4      0.000      0.000
  Name = 
  2 active torsions:
  status: ('A' for Active; 'I' for Inactive)
    1  A    between atoms: C_4  and  C_37
    2  A    between atoms: C_23  and  C_30
                            x       y       z     vdW  Elec       q    Type
                         _______ _______ _______ _____ _____    ______ ____

>  <TORSDO>
F 2

$$$$
=
 OpenBabel11112417083D

 37 44  0  0  1  0  0  0  0  0999 V2000
  190.7830  173.0720  141.4750 C   0  0  0  0  0  2  0  0  0  0  0  0
  193.9790  173.4380  144.8280 C   0  0  0  0  0  0  0  0  0  0  0  0
  190.3200  175.4590  145.4060 C   0  0  0  0  0  0  0  0  0  0  0  0
  190.9980  172.7560  139.9890 C   0  0  2  0  0  3  0  0  0  0  0  0
  187.6810  175.4370  142.8090 O   0  0  0  0  0  0  0  0  0  0  0  0
  192.4560  174.7540  146.3120 C   0  0  0  0  0  0  0  0  0  0  0  0
  189.7830  175.4740  144.1940 C   0  0  0  0  0  0  0  0  0  0  0  0
  188.5800  173.4260  139.7380 C   0  0  0  0  0  0  0  0  0  0  0  0
  191.6170  174.8900  145.3150 C   0  0  0  0  0  0  0  0  0  0  0  0
  188.3960  175.9880  143.8940 C   0  0  0  0  0  0  0  0  0  0  0  0
  192.0290  175.2460  147.6420 C   0  0  0  0  0  3  0  0  0  0  0  0
  189.9180  173.3340  139.0660 C   0  0  0  0  0  2  0  0  0  0  0  0
  191.8820  174.5250  143.9760 C   0  0  0  0  0  0  0  0  0  0  0  0
  193.5730  171.9890  145.0260 C   0  0  0  0  0  1  0  0  0  0  0  0
  189.2990  177.3010  146.5830 C   0  0  0  0  0  3  0  0  0  0  0  0
  190.7940  175.7740  147.8230 C   0  0  0  0  0  3  0  0  0  0  0  0
  193.2300  174.0000  143.5840 C   0  0  0  0  0  2  0  0  0  0  0  0
  188.2010  174.6740  140.4770 C   0  0  1  0  0  3  0  0  0  0  0  0
  188.2810  174.4710  141.9720 C   0  0  1  0  0  3  0  0  0  0  0  0
  189.7470  175.8900  146.7100 C   0  0  2  0  0  3  0  0  0  0  0  0
  190.8050  174.8460  143.2550 C   0  0  0  0  0  0  0  0  0  0  0  0
  193.7070  174.1740  146.0480 O   0  0  0  0  0  0  0  0  0  0  0  0
  187.8030  176.9840  144.6150 C   0  0  0  0  0  0  0  0  0  0  0  0
  195.4670  173.4790  144.5550 C   0  0  0  0  0  1  0  0  0  0  0  0
  189.3820  175.2520  141.2640 C   0  0  1  0  0  3  0  0  0  0  0  0
  187.8030  172.4860  139.6840 O   0  0  0  0  0  0  0  0  0  0  0  0
  190.6670  174.5770  141.7650 C   0  0  2  0  0  3  0  0  0  0  0  0
  188.4570  177.7120  145.6810 N   0  0  0  0  0  0  0  0  0  0  0  0
  185.5980  177.9600  145.2400 C   0  0  0  0  0  3  0  0  0  0  0  0
  186.4640  177.5020  144.2350 C   0  0  0  0  0  0  0  0  0  0  0  0
  186.0640  177.6150  142.8930 C   0  0  0  0  0  3  0  0  0  0  0  0
  184.4170  178.2420  141.2020 N   0  0  0  0  0  1  0  0  0  0  0  0
  183.9540  178.5820  143.5760 C   0  0  0  0  0  3  0  0  0  0  0  0
  184.8130  178.1440  142.5650 C   0  0  0  0  0  0  0  0  0  0  0  0
  184.3470  178.4920  144.9130 C   0  0  0  0  0  3  0  0  0  0  0  0
  190.8240  170.5230  141.0890 C   0  0  0  0  0  1  0  0  0  0  0  0
  191.0870  171.2530  139.7850 C   0  0  0  0  0  2  0  0  0  0  0  0
  1 27  1  0  0  0  0
  2 14  1  0  0  0  0
  2 22  1  0  0  0  0
  3 20  1  0  0  0  0
  4 37  1  1  0  0  0
  4  1  1  0  0  0  0
  5 10  1  0  0  0  0
  6 11  1  0  0  0  0
  7  3  2  0  0  0  0
  9  3  1  0  0  0  0
  9  6  2  0  0  0  0
 10  7  1  0  0  0  0
 10 23  2  0  0  0  0
 11 16  2  0  0  0  0
 12  8  1  0  0  0  0
 12  4  1  0  0  0  0
 13  9  1  0  0  0  0
 17 13  1  0  0  0  0
 17  2  1  0  0  0  0
 18  8  1  6  0  0  0
 18 25  1  0  0  0  0
 18 19  1  0  0  0  0
 19  5  1  1  0  0  0
 20 15  1  6  0  0  0
 20 16  1  0  0  0  0
 21 13  2  0  0  0  0
 21  7  1  0  0  0  0
 22  6  1  0  0  0  0
 23 28  1  0  0  0  0
 24  2  1  0  0  0  0
 25 27  1  0  0  0  0
 25 19  1  0  0  0  0
 26  8  2  0  0  0  0
 27 21  1  0  0  0  0
 28 15  2  0  0  0  0
 30 23  1  0  0  0  0
 30 29  2  0  0  0  0
 31 30  1  0  0  0  0
 32 34  1  0  0  0  0
 33 35  2  0  0  0  0
 34 31  2  0  0  0  0
 34 33  1  0  0  0  0
 35 29  1  0  0  0  0
 37 36  1  0  0  0  0
M  END
>  <MODEL>
2

>  <REMARK>
 VINA RESULT:      -9.2      2.169      3.568
  Name = 
  2 active torsions:
  status: ('A' for Active; 'I' for Inactive)
    1  A    between atoms: C_4  and  C_37
    2  A    between atoms: C_23  and  C_30
                            x       y       z     vdW  Elec       q    Type
                         _______ _______ _______ _____ _____    ______ ____

>  <TORSDO>
F 2

$$$$
=
 OpenBabel11112417083D

 37 44  0  0  1  0  0  0  0  0999 V2000
  191.0450  173.6800  141.3470 C   0  0  0  0  0  2  0  0  0  0  0  0
  195.0430  174.6140  143.5220 C   0  0  0  0  0  0  0  0  0  0  0  0
  191.4870  175.9960  145.3230 C   0  0  0  0  0  0  0  0  0  0  0  0
  190.8200  173.3900  139.8570 C   0  0  2  0  0  3  0  0  0  0  0  0
  188.1940  175.5030  143.7020 O   0  0  0  0  0  0  0  0  0  0  0  0
  193.8840  175.6700  145.4700 C   0  0  0  0  0  0  0  0  0  0  0  0
  190.5930  175.9080  144.3460 C   0  0  0  0  0  0  0  0  0  0  0  0
  188.3740  173.6410  140.4180 C   0  0  0  0  0  0  0  0  0  0  0  0
  192.7590  175.6530  144.7990 C   0  0  0  0  0  0  0  0  0  0  0  0
  189.1200  176.1780  144.5260 C   0  0  0  0  0  0  0  0  0  0  0  0
  193.8330  176.0970  146.8880 C   0  0  0  0  0  3  0  0  0  0  0  0
  189.4210  173.7680  139.3530 C   0  0  0  0  0  2  0  0  0  0  0  0
  192.6370  175.3240  143.4300 C   0  0  0  0  0  0  0  0  0  0  0  0
  194.9640  173.1190  143.7740 C   0  0  0  0  0  1  0  0  0  0  0  0
  190.6120  177.6520  146.8440 C   0  0  0  0  0  3  0  0  0  0  0  0
  192.6530  176.4120  147.4750 C   0  0  0  0  0  3  0  0  0  0  0  0
  193.8530  175.0290  142.6070 C   0  0  0  0  0  2  0  0  0  0  0  0
  188.0540  174.8150  141.2940 C   0  0  1  0  0  3  0  0  0  0  0  0
  188.6430  174.6440  142.6750 C   0  0  1  0  0  3  0  0  0  0  0  0
  191.3010  176.3380  146.7590 C   0  0  2  0  0  3  0  0  0  0  0  0
  191.3470  175.4520  143.1040 C   0  0  0  0  0  0  0  0  0  0  0  0
  195.0620  175.3060  144.7960 O   0  0  0  0  0  0  0  0  0  0  0  0
  188.6360  177.0680  145.4420 C   0  0  0  0  0  0  0  0  0  0  0  0
  196.3370  174.9020  142.7920 C   0  0  0  0  0  1  0  0  0  0  0  0
  189.3150  175.5920  141.6890 C   0  0  1  0  0  3  0  0  0  0  0  0
  187.7850  172.5830  140.5720 O   0  0  0  0  0  0  0  0  0  0  0  0
  190.7850  175.1470  141.7250 C   0  0  2  0  0  3  0  0  0  0  0  0
  189.4700  177.9060  146.2760 N   0  0  0  0  0  0  0  0  0  0  0  0
  186.4330  176.7630  146.5640 C   0  0  0  0  0  3  0  0  0  0  0  0
  187.1800  177.3490  145.5300 C   0  0  0  0  0  0  0  0  0  0  0  0
  186.5400  178.2410  144.6540 C   0  0  0  0  0  3  0  0  0  0  0  0
  184.5400  179.4130  143.8870 N   0  0  0  0  0  1  0  0  0  0  0  0
  184.4410  177.9150  145.8120 C   0  0  0  0  0  3  0  0  0  0  0  0
  185.1770  178.5160  144.7890 C   0  0  0  0  0  0  0  0  0  0  0  0
  185.0700  177.0390  146.7010 C   0  0  0  0  0  3  0  0  0  0  0  0
  191.0430  171.1130  140.8520 C   0  0  0  0  0  1  0  0  0  0  0  0
  191.0820  171.9210  139.5690 C   0  0  0  0  0  2  0  0  0  0  0  0
  1 27  1  0  0  0  0
  2 14  1  0  0  0  0
  2 22  1  0  0  0  0
  3 20  1  0  0  0  0
  4 37  1  1  0  0  0
  4  1  1  0  0  0  0
  5 10  1  0  0  0  0
  6 11  1  0  0  0  0
  7 10  1  0  0  0  0
  7  3  2  0  0  0  0
  8 26  2  0  0  0  0
  9  3  1  0  0  0  0
  9  6  2  0  0  0  0
 10 23  2  0  0  0  0
 11 16  2  0  0  0  0
 12  4  1  0  0  0  0
 12  8  1  0  0  0  0
 13  9  1  0  0  0  0
 17 13  1  0  0  0  0
 17  2  1  0  0  0  0
 18  8  1  6  0  0  0
 18 25  1  0  0  0  0
 18 19  1  0  0  0  0
 19  5  1  1  0  0  0
 20 15  1  6  0  0  0
 20 16  1  0  0  0  0
 21 13  2  0  0  0  0
 21  7  1  0  0  0  0
 22  6  1  0  0  0  0
 23 30  1  0  0  0  0
 23 28  1  0  0  0  0
 24  2  1  0  0  0  0
 25 27  1  0  0  0  0
 25 19  1  0  0  0  0
 27 21  1  0  0  0  0
 28 15  2  0  0  0  0
 29 35  1  0  0  0  0
 30 29  2  0  0  0  0
 31 34  2  0  0  0  0
 31 30  1  0  0  0  0
 32 34  1  0  0  0  0
 33 35  2  0  0  0  0
 34 33  1  0  0  0  0
 37 36  1  0  0  0  0
M  END
>  <MODEL>
3

>  <REMARK>
 VINA RESULT:      -8.9      2.403      4.380
  Name = 
  2 active torsions:
  status: ('A' for Active; 'I' for Inactive)
    1  A    between atoms: C_4  and  C_37
    2  A    between atoms: C_23  and  C_30
                            x       y       z     vdW  Elec       q    Type
                         _______ _______ _______ _____ _____    ______ ____

>  <TORSDO>
F 2

$$$$
=
 OpenBabel11112417083D

 37 44  0  0  1  0  0  0  0  0999 V2000
  193.7200  174.7550  144.0630 C   0  0  0  0  0  2  0  0  0  0  0  0
  192.9410  171.9540  140.4390 C   0  0  0  0  0  0  0  0  0  0  0  0
  189.7850  174.4780  141.6520 C   0  0  0  0  0  0  0  0  0  0  0  0
  194.7400  174.5810  145.1970 C   0  0  2  0  0  3  0  0  0  0  0  0
  190.1190  176.6880  144.6050 O   0  0  0  0  0  0  0  0  0  0  0  0
  190.6620  172.9000  140.0330 C   0  0  0  0  0  0  0  0  0  0  0  0
  190.1540  174.8690  142.8650 C   0  0  2  0  0  3  0  0  0  0  0  0
  193.4930  176.4780  146.2950 C   0  0  0  0  0  0  0  0  0  0  0  0
  190.7300  173.5310  141.1800 C   0  0  0  0  0  0  0  0  0  0  0  0
  189.4050  175.8910  143.6840 C   0  0  0  0  0  0  0  0  0  0  0  0
  189.4980  173.1830  139.1620 C   0  0  0  0  0  3  0  0  0  0  0  0
  194.3300  175.2530  146.5130 C   0  0  0  0  0  2  0  0  0  0  0  0
  191.7390  173.3420  142.1510 C   0  0  0  0  0  0  0  0  0  0  0  0
  193.9010  172.9370  139.7940 C   0  0  0  0  0  1  0  0  0  0  0  0
  187.3860  174.7290  141.6000 C   0  0  0  0  0  3  0  0  0  0  0  0
  188.5660  174.0970  139.5240 C   0  0  0  0  0  3  0  0  0  0  0  0
  192.8050  172.3080  141.9490 C   0  0  0  0  0  2  0  0  0  0  0  0
  191.9990  176.3590  146.2310 C   0  0  1  0  0  3  0  0  0  0  0  0
  191.5000  176.4810  144.8100 C   0  0  1  0  0  3  0  0  0  0  0  0
  188.6350  174.9160  140.8160 C   0  0  0  0  0  0  0  0  0  0  0  0
  191.4470  174.1330  143.1880 C   0  0  0  0  0  0  0  0  0  0  0  0
  191.6810  171.9860  139.7210 O   0  0  0  0  0  0  0  0  0  0  0  0
  188.0550  176.0700  143.5910 C   0  0  0  0  0  0  0  0  0  0  0  0
  193.5350  170.5670  140.3200 C   0  0  0  0  0  1  0  0  0  0  0  0
  191.5580  175.1070  145.4660 C   0  0  1  0  0  3  0  0  0  0  0  0
  194.0270  177.5680  146.1670 O   0  0  0  0  0  0  0  0  0  0  0  0
  192.3120  174.2580  144.4310 C   0  0  2  0  0  3  0  0  0  0  0  0
  187.1840  175.2550  142.7710 N   0  0  0  0  0  0  0  0  0  0  0  0
  186.8260  178.2130  143.9080 C   0  0  0  0  0  3  0  0  0  0  0  0
  187.3550  177.0420  144.4700 C   0  0  0  0  0  0  0  0  0  0  0  0
  187.1450  176.7910  145.8360 C   0  0  0  0  0  3  0  0  0  0  0  0
  186.2510  177.4440  148.0130 N   0  0  0  0  0  1  0  0  0  0  0  0
  185.9390  178.8760  146.0600 C   0  0  0  0  0  3  0  0  0  0  0  0
  186.4480  177.7060  146.6290 C   0  0  0  0  0  0  0  0  0  0  0  0
  186.1260  179.1290  144.7000 C   0  0  0  0  0  3  0  0  0  0  0  0
  195.9540  175.9890  143.5330 C   0  0  0  0  0  1  0  0  0  0  0  0
  196.0960  175.1070  144.7600 C   0  0  0  0  0  2  0  0  0  0  0  0
  1 27  1  0  0  0  0
  1  4  1  0  0  0  0
  2 17  1  0  0  0  0
  4 37  1  6  0  0  0
  4 12  1  0  0  0  0
  6  9  1  0  0  0  0
  7  3  1  6  0  0  0
  7 21  1  0  0  0  0
  7 10  1  0  0  0  0
  8 12  1  0  0  0  0
  9  3  2  0  0  0  0
  9 13  1  0  0  0  0
 10  5  1  0  0  0  0
 11 16  1  0  0  0  0
 11  6  2  0  0  0  0
 13 21  2  0  0  0  0
 14  2  1  0  0  0  0
 15 28  2  0  0  0  0
 16 20  2  0  0  0  0
 17 13  1  0  0  0  0
 18  8  1  6  0  0  0
 19  5  1  1  0  0  0
 19 25  1  0  0  0  0
 19 18  1  0  0  0  0
 20 15  1  0  0  0  0
 20  3  1  0  0  0  0
 21 27  1  0  0  0  0
 22  6  1  0  0  0  0
 22  2  1  0  0  0  0
 23 10  2  0  0  0  0
 23 30  1  0  0  0  0
 24  2  1  0  0  0  0
 25 18  1  0  0  0  0
 26  8  2  0  0  0  0
 27 25  1  0  0  0  0
 28 23  1  0  0  0  0
 29 30  2  0  0  0  0
 29 35  1  0  0  0  0
 30 31  1  0  0  0  0
 31 34  2  0  0  0  0
 33 34  1  0  0  0  0
 34 32  1  0  0  0  0
 35 33  2  0  0  0  0
 36 37  1  0  0  0  0
M  END
>  <MODEL>
4

>  <REMARK>
 VINA RESULT:      -8.8      2.820      6.645
  Name = 
  2 active torsions:
  status: ('A' for Active; 'I' for Inactive)
    1  A    between atoms: C_4  and  C_37
    2  A    between atoms: C_23  and  C_30
                            x       y       z     vdW  Elec       q    Type
                         _______ _______ _______ _____ _____    ______ ____

>  <TORSDO>
F 2

$$$$
=
 OpenBabel11112417083D

 37 44  0  0  1  0  0  0  0  0999 V2000
  189.2130  175.8320  145.1700 C   0  0  0  0  0  2  0  0  0  0  0  0
  186.0130  178.7480  146.8570 C   0  0  0  0  0  0  0  0  0  0  0  0
  185.6750  177.6320  142.8020 C   0  0  0  0  0  0  0  0  0  0  0  0
  190.6390  175.5880  145.6820 C   0  0  2  0  0  3  0  0  0  0  0  0
  188.1910  175.4400  141.1950 O   0  0  0  0  0  0  0  0  0  0  0  0
  184.7140  178.7620  144.7190 C   0  0  0  0  0  0  0  0  0  0  0  0
  186.8660  177.1190  142.5240 C   0  0  0  0  0  0  0  0  0  0  0  0
  190.9430  174.3120  143.5270 C   0  0  0  0  0  0  0  0  0  0  0  0
  185.7040  178.1440  144.1240 C   0  0  2  0  0  3  0  0  0  0  0  0
  187.2140  176.4590  141.2120 C   0  0  0  0  0  0  0  0  0  0  0  0
  183.4650  178.9600  143.9490 C   0  0  0  0  0  3  0  0  0  0  0  0
  191.6170  175.1160  144.5990 C   0  0  0  0  0  2  0  0  0  0  0  0
  186.9790  177.9190  144.6930 C   0  0  0  0  0  0  0  0  0  0  0  0
  185.5930  177.4750  147.5700 C   0  0  0  0  0  1  0  0  0  0  0  0
  184.7690  178.3320  140.6770 C   0  0  0  0  0  3  0  0  0  0  0  0
  183.3430  178.4740  142.6890 C   0  0  0  0  0  3  0  0  0  0  0  0
  187.3130  178.4610  146.0490 C   0  0  0  0  0  2  0  0  0  0  0  0
  190.3910  175.0010  142.3150 C   0  0  1  0  0  3  0  0  0  0  0  0
  188.8850  175.0940  142.3750 C   0  0  1  0  0  3  0  0  0  0  0  0
  184.4410  177.6820  141.9730 C   0  0  0  0  0  0  0  0  0  0  0  0
  187.7200  177.2940  143.7740 C   0  0  0  0  0  0  0  0  0  0  0  0
  184.9120  179.2120  146.0350 O   0  0  0  0  0  0  0  0  0  0  0  0
  186.6390  176.8180  140.0270 C   0  0  0  0  0  0  0  0  0  0  0  0
  186.3160  179.7970  147.9040 C   0  0  0  0  0  1  0  0  0  0  0  0
  189.7220  176.3330  142.6690 C   0  0  1  0  0  3  0  0  0  0  0  0
  190.8410  173.1020  143.6450 O   0  0  0  0  0  0  0  0  0  0  0  0
  189.1490  176.8320  144.0040 C   0  0  2  0  0  3  0  0  0  0  0  0
  185.7060  177.9140  139.8780 N   0  0  0  0  0  0  0  0  0  0  0  0
  186.7810  176.8300  137.5410 C   0  0  0  0  0  3  0  0  0  0  0  0
  187.0680  176.1860  138.7530 C   0  0  0  0  0  0  0  0  0  0  0  0
  187.8160  174.9970  138.7290 C   0  0  0  0  0  3  0  0  0  0  0  0
  188.9870  173.2370  137.5050 N   0  0  0  0  0  1  0  0  0  0  0  0
  187.9340  175.0910  136.3140 C   0  0  0  0  0  3  0  0  0  0  0  0
  188.2390  174.4480  137.5150 C   0  0  0  0  0  0  0  0  0  0  0  0
  187.2060  176.2830  136.3260 C   0  0  0  0  0  3  0  0  0  0  0  0
  189.2450  174.5370  147.4640 C   0  0  0  0  0  1  0  0  0  0  0  0
  190.6170  174.5810  146.8190 C   0  0  0  0  0  2  0  0  0  0  0  0
  1  4  1  0  0  0  0
  2 14  1  0  0  0  0
  2 24  1  0  0  0  0
  4 37  1  1  0  0  0
  5 10  1  0  0  0  0
  6 22  1  0  0  0  0
  7  3  2  0  0  0  0
  7 21  1  0  0  0  0
  8 26  2  0  0  0  0
  8 12  1  0  0  0  0
  9  3  1  6  0  0  0
  9 13  1  0  0  0  0
  9  6  1  0  0  0  0
 10  7  1  0  0  0  0
 11  6  2  0  0  0  0
 12  4  1  0  0  0  0
 13 17  1  0  0  0  0
 15 20  1  0  0  0  0
 16 11  1  0  0  0  0
 17  2  1  0  0  0  0
 18 19  1  0  0  0  0
 18 25  1  0  0  0  0
 18  8  1  1  0  0  0
 19  5  1  6  0  0  0
 19 25  1  0  0  0  0
 20 16  2  0  0  0  0
 20  3  1  0  0  0  0
 21 27  1  0  0  0  0
 21 13  2  0  0  0  0
 22  2  1  0  0  0  0
 23 10  2  0  0  0  0
 25 27  1  0  0  0  0
 27  1  1  0  0  0  0
 28 23  1  0  0  0  0
 28 15  2  0  0  0  0
 29 30  1  0  0  0  0
 30 23  1  0  0  0  0
 31 30  2  0  0  0  0
 32 34  1  0  0  0  0
 33 35  1  0  0  0  0
 33 34  2  0  0  0  0
 34 31  1  0  0  0  0
 35 29  2  0  0  0  0
 37 36  1  0  0  0  0
M  END
>  <MODEL>
5

>  <REMARK>
 VINA RESULT:      -8.6      2.754      4.940
  Name = 
  2 active torsions:
  status: ('A' for Active; 'I' for Inactive)
    1  A    between atoms: C_4  and  C_37
    2  A    between atoms: C_23  and  C_30
                            x       y       z     vdW  Elec       q    Type
                         _______ _______ _______ _____ _____    ______ ____

>  <TORSDO>
F 2

$$$$
=
 OpenBabel11112417083D

 37 44  0  0  1  0  0  0  0  0999 V2000
  189.6700  173.7930  140.4530 C   0  0  0  0  0  2  0  0  0  0  0  0
  187.0800  176.8680  142.7830 C   0  0  0  0  0  0  0  0  0  0  0  0
  190.7090  175.6490  144.5570 C   0  0  0  0  0  0  0  0  0  0  0  0
  189.2170  172.7780  139.3950 C   0  0  2  0  0  3  0  0  0  0  0  0
  192.8670  173.0990  142.9610 O   0  0  0  0  0  0  0  0  0  0  0  0
  188.7850  177.1240  144.5940 C   0  0  0  0  0  0  0  0  0  0  0  0
  191.0310  174.5570  143.8770 C   0  0  0  0  0  0  0  0  0  0  0  0
  191.5320  171.8150  139.6670 C   0  0  0  0  0  0  0  0  0  0  0  0
  189.4370  176.0940  144.1140 C   0  0  0  0  0  0  0  0  0  0  0  0
  192.3270  173.8050  144.0570 C   0  0  0  0  0  0  0  0  0  0  0  0
  189.4140  177.8800  145.7020 C   0  0  0  0  0  3  0  0  0  0  0  0
  190.1040  171.5300  139.3100 C   0  0  0  0  0  2  0  0  0  0  0  0
  188.9600  175.2350  143.0980 C   0  0  0  0  0  0  0  0  0  0  0  0
  187.5640  177.7560  141.6510 C   0  0  0  0  0  1  0  0  0  0  0  0
  191.8490  175.4470  146.6740 C   0  0  0  0  0  3  0  0  0  0  0  0
  190.6420  177.5410  146.1630 C   0  0  0  0  0  3  0  0  0  0  0  0
  187.5860  175.4170  142.5300 C   0  0  0  0  0  2  0  0  0  0  0  0
  191.9860  171.6810  141.0890 C   0  0  1  0  0  3  0  0  0  0  0  0
  192.1680  173.0340  141.7360 C   0  0  1  0  0  3  0  0  0  0  0  0
  191.4790  176.3930  145.5900 C   0  0  2  0  0  3  0  0  0  0  0  0
  189.8880  174.2920  142.9070 C   0  0  0  0  0  0  0  0  0  0  0  0
  187.5280  177.4260  144.0440 O   0  0  0  0  0  0  0  0  0  0  0  0
  192.9990  173.7590  145.2450 C   0  0  0  0  0  0  0  0  0  0  0  0
  185.5660  176.8620  142.7630 C   0  0  0  0  0  1  0  0  0  0  0  0
  190.9360  172.2040  142.0760 C   0  0  1  0  0  3  0  0  0  0  0  0
  192.3210  172.1580  138.8010 O   0  0  0  0  0  0  0  0  0  0  0  0
  189.7800  173.1930  141.8630 C   0  0  2  0  0  3  0  0  0  0  0  0
  192.5100  174.3450  146.4750 N   0  0  0  0  0  0  0  0  0  0  0  0
  195.4790  173.5940  145.3900 C   0  0  0  0  0  3  0  0  0  0  0  0
  194.2340  172.9470  145.3880 C   0  0  0  0  0  0  0  0  0  0  0  0
  194.1920  171.5580  145.5920 C   0  0  0  0  0  3  0  0  0  0  0  0
  195.3120  169.4200  145.9580 N   0  0  0  0  0  1  0  0  0  0  0  0
  196.6050  171.4810  145.7480 C   0  0  0  0  0  3  0  0  0  0  0  0
  195.3700  170.8280  145.7630 C   0  0  0  0  0  0  0  0  0  0  0  0
  196.6590  172.8640  145.5640 C   0  0  0  0  0  3  0  0  0  0  0  0
  188.0970  174.5390  138.0270 C   0  0  0  0  0  1  0  0  0  0  0  0
  189.1480  173.4450  138.0320 C   0  0  0  0  0  2  0  0  0  0  0  0
  1 27  1  0  0  0  0
  2 22  1  0  0  0  0
  3 20  1  0  0  0  0
  4 37  1  6  0  0  0
  4  1  1  0  0  0  0
  5 10  1  0  0  0  0
  6 11  1  0  0  0  0
  7 10  1  0  0  0  0
  7  3  2  0  0  0  0
  9  3  1  0  0  0  0
  9  6  2  0  0  0  0
 10 23  2  0  0  0  0
 11 16  2  0  0  0  0
 12  4  1  0  0  0  0
 12  8  1  0  0  0  0
 13  9  1  0  0  0  0
 14  2  1  0  0  0  0
 17  2  1  0  0  0  0
 17 13  1  0  0  0  0
 18  8  1  6  0  0  0
 18 19  1  0  0  0  0
 18 25  1  0  0  0  0
 19 25  1  0  0  0  0
 19  5  1  1  0  0  0
 20 16  1  1  0  0  0
 20 15  1  0  0  0  0
 21 13  2  0  0  0  0
 21  7  1  0  0  0  0
 22  6  1  0  0  0  0
 23 30  1  0  0  0  0
 23 28  1  0  0  0  0
 24  2  1  0  0  0  0
 26  8  2  0  0  0  0
 27 25  1  0  0  0  0
 27 21  1  0  0  0  0
 28 15  2  0  0  0  0
 29 35  1  0  0  0  0
 30 29  2  0  0  0  0
 30 31  1  0  0  0  0
 31 34  2  0  0  0  0
 33 34  1  0  0  0  0
 34 32  1  0  0  0  0
 35 33  2  0  0  0  0
 36 37  1  0  0  0  0
M  END
>  <MODEL>
6

>  <REMARK>
 VINA RESULT:      -8.4      3.969      8.102
  Name = 
  2 active torsions:
  status: ('A' for Active; 'I' for Inactive)
    1  A    between atoms: C_4  and  C_37
    2  A    between atoms: C_23  and  C_30
                            x       y       z     vdW  Elec       q    Type
                         _______ _______ _______ _____ _____    ______ ____

>  <TORSDO>
F 2

$$$$
=
 OpenBabel11112417083D

 37 44  0  0  1  0  0  0  0  0999 V2000
  188.7020  174.5400  140.2680 C   0  0  0  0  0  2  0  0  0  0  0  0
  186.2880  177.4620  142.9560 C   0  0  0  0  0  0  0  0  0  0  0  0
  189.8440  175.8470  144.5520 C   0  0  0  0  0  0  0  0  0  0  0  0
  188.1930  173.6800  139.1030 C   0  0  2  0  0  3  0  0  0  0  0  0
  191.8560  173.3830  142.6580 O   0  0  0  0  0  0  0  0  0  0  0  0
  188.0060  177.4120  144.7730 C   0  0  0  0  0  0  0  0  0  0  0  0
  190.1050  174.8250  143.7490 C   0  0  0  0  0  0  0  0  0  0  0  0
  190.4510  172.5650  139.2460 C   0  0  0  0  0  0  0  0  0  0  0  0
  188.5990  176.4100  144.1720 C   0  0  0  0  0  0  0  0  0  0  0  0
  191.3570  173.9870  143.8320 C   0  0  0  0  0  0  0  0  0  0  0  0
  188.6760  177.9990  145.9560 C   0  0  0  0  0  3  0  0  0  0  0  0
  189.0080  172.4030  138.8680 C   0  0  0  0  0  2  0  0  0  0  0  0
  188.0750  175.7020  143.0670 C   0  0  0  0  0  0  0  0  0  0  0  0
  186.8210  178.4470  141.9310 C   0  0  0  0  0  1  0  0  0  0  0  0
  190.9720  175.3380  146.6240 C   0  0  0  0  0  3  0  0  0  0  0  0
  189.8830  177.5410  146.3670 C   0  0  0  0  0  3  0  0  0  0  0  0
  186.7120  176.0240  142.5340 C   0  0  0  0  0  2  0  0  0  0  0  0
  190.8970  172.2430  140.6410 C   0  0  1  0  0  3  0  0  0  0  0  0
  191.1540  173.5000  141.4380 C   0  0  1  0  0  3  0  0  0  0  0  0
  190.6550  176.4230  145.6590 C   0  0  2  0  0  3  0  0  0  0  0  0
  188.9480  174.7380  142.7620 C   0  0  0  0  0  0  0  0  0  0  0  0
  186.7670  177.8450  144.2700 O   0  0  0  0  0  0  0  0  0  0  0  0
  192.0250  173.7660  145.0020 C   0  0  0  0  0  0  0  0  0  0  0  0
  184.7770  177.5420  142.9460 C   0  0  0  0  0  1  0  0  0  0  0  0
  189.8780  172.7050  141.6880 C   0  0  1  0  0  3  0  0  0  0  0  0
  191.2570  172.9620  138.4200 O   0  0  0  0  0  0  0  0  0  0  0  0
  188.7790  173.7740  141.5990 C   0  0  2  0  0  3  0  0  0  0  0  0
  191.5700  174.2320  146.2950 N   0  0  0  0  0  0  0  0  0  0  0  0
  193.0760  171.5370  144.6460 C   0  0  0  0  0  3  0  0  0  0  0  0
  193.2130  172.8760  145.0410 C   0  0  0  0  0  0  0  0  0  0  0  0
  194.4880  173.3510  145.3930 C   0  0  0  0  0  3  0  0  0  0  0  0
  196.8760  172.9910  145.7510 N   0  0  0  0  0  1  0  0  0  0  0  0
  195.4410  171.1630  145.0010 C   0  0  0  0  0  3  0  0  0  0  0  0
  195.5940  172.4980  145.3810 C   0  0  0  0  0  0  0  0  0  0  0  0
  194.1830  170.6830  144.6320 C   0  0  0  0  0  3  0  0  0  0  0  0
  187.1580  175.6360  137.9490 C   0  0  0  0  0  1  0  0  0  0  0  0
  188.1610  174.5040  137.8270 C   0  0  0  0  0  2  0  0  0  0  0  0
  1 27  1  0  0  0  0
  2 22  1  0  0  0  0
  3 20  1  0  0  0  0
  4 37  1  6  0  0  0
  4  1  1  0  0  0  0
  5 10  1  0  0  0  0
  6 11  1  0  0  0  0
  7 10  1  0  0  0  0
  7  3  2  0  0  0  0
  9  3  1  0  0  0  0
  9  6  2  0  0  0  0
 10 23  2  0  0  0  0
 11 16  2  0  0  0  0
 12  4  1  0  0  0  0
 12  8  1  0  0  0  0
 13  9  1  0  0  0  0
 14  2  1  0  0  0  0
 17  2  1  0  0  0  0
 17 13  1  0  0  0  0
 18  8  1  6  0  0  0
 18 19  1  0  0  0  0
 18 25  1  0  0  0  0
 19 25  1  0  0  0  0
 19  5  1  1  0  0  0
 20 16  1  1  0  0  0
 20 15  1  0  0  0  0
 21 13  2  0  0  0  0
 21  7  1  0  0  0  0
 22  6  1  0  0  0  0
 23 30  1  0  0  0  0
 23 28  1  0  0  0  0
 24  2  1  0  0  0  0
 26  8  2  0  0  0  0
 27 25  1  0  0  0  0
 27 21  1  0  0  0  0
 28 15  2  0  0  0  0
 29 30  1  0  0  0  0
 30 31  2  0  0  0  0
 33 34  2  0  0  0  0
 34 31  1  0  0  0  0
 34 32  1  0  0  0  0
 35 29  2  0  0  0  0
 35 33  1  0  0  0  0
 37 36  1  0  0  0  0
M  END
>  <MODEL>
7

>  <REMARK>
 VINA RESULT:      -8.2      3.516      7.675
  Name = 
  2 active torsions:
  status: ('A' for Active; 'I' for Inactive)
    1  A    between atoms: C_4  and  C_37
    2  A    between atoms: C_23  and  C_30
                            x       y       z     vdW  Elec       q    Type
                         _______ _______ _______ _____ _____    ______ ____

>  <TORSDO>
F 2

$$$$
=
 OpenBabel11112417083D

 37 44  0  0  1  0  0  0  0  0999 V2000
  194.4450  174.1190  143.9760 C   0  0  0  0  0  2  0  0  0  0  0  0
  193.8630  170.4590  141.1720 C   0  0  0  0  0  0  0  0  0  0  0  0
  190.5910  173.0820  141.6440 C   0  0  0  0  0  0  0  0  0  0  0  0
  195.4380  174.2790  145.1350 C   0  0  2  0  0  3  0  0  0  0  0  0
  190.7670  175.9810  143.9400 O   0  0  0  0  0  0  0  0  0  0  0  0
  191.5650  171.1810  140.4970 C   0  0  0  0  0  0  0  0  0  0  0  0
  190.9120  173.7820  142.7230 C   0  0  2  0  0  3  0  0  0  0  0  0
  194.0970  176.3420  145.6900 C   0  0  0  0  0  0  0  0  0  0  0  0
  191.5800  172.0840  141.4460 C   0  0  0  0  0  0  0  0  0  0  0  0
  190.1060  174.9490  143.2400 C   0  0  0  0  0  0  0  0  0  0  0  0
  190.4180  171.1850  139.5610 C   0  0  0  0  0  3  0  0  0  0  0  0
  194.9690  175.2460  146.2290 C   0  0  0  0  0  2  0  0  0  0  0  0
  192.5670  172.1880  142.4520 C   0  0  0  0  0  0  0  0  0  0  0  0
  194.8070  171.2830  140.3160 C   0  0  0  0  0  1  0  0  0  0  0  0
  188.1870  173.2150  141.4850 C   0  0  0  0  0  3  0  0  0  0  0  0
  189.4450  172.1240  139.6600 C   0  0  0  0  0  3  0  0  0  0  0  0
  193.6720  171.1800  142.5400 C   0  0  0  0  0  2  0  0  0  0  0  0
  192.6110  176.1510  145.6310 C   0  0  1  0  0  3  0  0  0  0  0  0
  192.1480  175.8880  144.2170 C   0  0  1  0  0  3  0  0  0  0  0  0
  189.4500  173.2460  140.7030 C   0  0  0  0  0  0  0  0  0  0  0  0
  192.2200  173.2040  143.2470 C   0  0  0  0  0  0  0  0  0  0  0  0
  192.6230  170.2580  140.4470 O   0  0  0  0  0  0  0  0  0  0  0  0
  188.7540  175.0440  143.0800 C   0  0  0  0  0  0  0  0  0  0  0  0
  194.5060  169.1120  141.4220 C   0  0  0  0  0  1  0  0  0  0  0  0
  192.2340  174.7290  145.2030 C   0  0  1  0  0  3  0  0  0  0  0  0
  194.5980  177.3830  145.2980 O   0  0  0  0  0  0  0  0  0  0  0  0
  193.0450  173.6760  144.4330 C   0  0  2  0  0  3  0  0  0  0  0  0
  187.9340  174.0130  142.4800 N   0  0  0  0  0  0  0  0  0  0  0  0
  188.0640  176.3970  145.0540 C   0  0  0  0  0  3  0  0  0  0  0  0
  187.9980  176.1790  143.6690 C   0  0  0  0  0  0  0  0  0  0  0  0
  187.2770  177.0850  142.8740 C   0  0  0  0  0  3  0  0  0  0  0  0
  185.8740  179.0700  142.6390 N   0  0  0  0  0  1  0  0  0  0  0  0
  186.6690  178.3640  144.8360 C   0  0  0  0  0  3  0  0  0  0  0  0
  186.6090  178.1660  143.4550 C   0  0  0  0  0  0  0  0  0  0  0  0
  187.3980  177.4800  145.6360 C   0  0  0  0  0  3  0  0  0  0  0  0
  197.8520  173.6910  144.9020 C   0  0  0  0  0  1  0  0  0  0  0  0
  196.7870  174.7300  144.6030 C   0  0  0  0  0  2  0  0  0  0  0  0
  1 27  1  0  0  0  0
  1  4  1  0  0  0  0
  2 24  1  0  0  0  0
  2 17  1  0  0  0  0
  4 37  1  6  0  0  0
  4 12  1  0  0  0  0
  6  9  1  0  0  0  0
  7  3  1  6  0  0  0
  7 10  1  0  0  0  0
  7 21  1  0  0  0  0
  8 12  1  0  0  0  0
  9  3  2  0  0  0  0
  9 13  1  0  0  0  0
 10  5  1  0  0  0  0
 11 16  1  0  0  0  0
 11  6  2  0  0  0  0
 13 17  1  0  0  0  0
 13 21  2  0  0  0  0
 14  2  1  0  0  0  0
 15 28  2  0  0  0  0
 16 20  2  0  0  0  0
 18  8  1  6  0  0  0
 19  5  1  1  0  0  0
 19 25  1  0  0  0  0
 19 18  1  0  0  0  0
 20 15  1  0  0  0  0
 20  3  1  0  0  0  0
 21 27  1  0  0  0  0
 22  6  1  0  0  0  0
 22  2  1  0  0  0  0
 23 10  2  0  0  0  0
 23 30  1  0  0  0  0
 25 18  1  0  0  0  0
 26  8  2  0  0  0  0
 27 25  1  0  0  0  0
 28 23  1  0  0  0  0
 29 35  1  0  0  0  0
 30 29  2  0  0  0  0
 31 34  2  0  0  0  0
 31 30  1  0  0  0  0
 32 34  1  0  0  0  0
 33 35  2  0  0  0  0
 34 33  1  0  0  0  0
 37 36  1  0  0  0  0
M  END
>  <MODEL>
8

>  <REMARK>
 VINA RESULT:      -8.0      3.152      7.150
  Name = 
  2 active torsions:
  status: ('A' for Active; 'I' for Inactive)
    1  A    between atoms: C_4  and  C_37
    2  A    between atoms: C_23  and  C_30
                            x       y       z     vdW  Elec       q    Type
                         _______ _______ _______ _____ _____    ______ ____

>  <TORSDO>
F 2

$$$$
=
 OpenBabel11112417083D

 37 44  0  0  1  0  0  0  0  0999 V2000
  191.0720  173.5350  142.2940 C   0  0  0  0  0  2  0  0  0  0  0  0
  189.4500  173.1230  137.9590 C   0  0  0  0  0  0  0  0  0  0  0  0
  187.5730  175.9460  140.4720 C   0  0  0  0  0  0  0  0  0  0  0  0
  191.8390  172.4970  143.1230 C   0  0  2  0  0  3  0  0  0  0  0  0
  188.5930  176.3470  144.0090 O   0  0  0  0  0  0  0  0  0  0  0  0
  187.8180  174.9950  138.2550 C   0  0  0  0  0  0  0  0  0  0  0  0
  187.9830  175.5980  141.6850 C   0  0  2  0  0  3  0  0  0  0  0  0
  191.4320  174.0780  145.0460 C   0  0  0  0  0  0  0  0  0  0  0  0
  188.0620  174.9920  139.5430 C   0  0  0  0  0  0  0  0  0  0  0  0
  187.6780  176.3850  142.9350 C   0  0  0  0  0  0  0  0  0  0  0  0
  186.9480  176.0690  137.7230 C   0  0  0  0  0  3  0  0  0  0  0  0
  191.6560  172.6520  144.6380 C   0  0  0  0  0  2  0  0  0  0  0  0
  188.8240  174.0140  140.2210 C   0  0  0  0  0  0  0  0  0  0  0  0
  190.7780  173.7960  137.6660 C   0  0  0  0  0  1  0  0  0  0  0  0
  185.5140  177.1550  140.8150 C   0  0  0  0  0  3  0  0  0  0  0  0
  186.4650  177.0380  138.5380 C   0  0  0  0  0  3  0  0  0  0  0  0
  189.3660  172.8270  139.4860 C   0  0  0  0  0  2  0  0  0  0  0  0
  190.0360  174.6220  145.1180 C   0  0  1  0  0  3  0  0  0  0  0  0
  189.7400  175.5260  143.9440 C   0  0  1  0  0  3  0  0  0  0  0  0
  186.7780  177.1250  140.0350 C   0  0  0  0  0  0  0  0  0  0  0  0
  188.8190  174.3350  141.5180 C   0  0  0  0  0  0  0  0  0  0  0  0
  188.3760  173.9700  137.4740 O   0  0  0  0  0  0  0  0  0  0  0  0
  186.5400  177.1240  143.0860 C   0  0  0  0  0  0  0  0  0  0  0  0
  189.4100  171.8090  137.2090 C   0  0  0  0  0  1  0  0  0  0  0  0
  189.1650  174.1140  143.9640 C   0  0  1  0  0  3  0  0  0  0  0  0
  192.3840  174.7930  145.3150 O   0  0  0  0  0  0  0  0  0  0  0  0
  189.5640  173.5560  142.5900 C   0  0  2  0  0  3  0  0  0  0  0  0
  185.4680  177.1680  142.1140 N   0  0  0  0  0  0  0  0  0  0  0  0
  185.8890  179.1790  144.3330 C   0  0  0  0  0  3  0  0  0  0  0  0
  186.2540  177.8240  144.3640 C   0  0  0  0  0  0  0  0  0  0  0  0
  186.2670  177.1540  145.5990 C   0  0  0  0  0  3  0  0  0  0  0  0
  185.9830  177.1430  148.0240 N   0  0  0  0  0  1  0  0  0  0  0  0
  185.6080  179.1840  146.7380 C   0  0  0  0  0  3  0  0  0  0  0  0
  185.9540  177.8320  146.7800 C   0  0  0  0  0  0  0  0  0  0  0  0
  185.5730  179.8570  145.5150 C   0  0  0  0  0  3  0  0  0  0  0  0
  193.6740  173.8890  142.1640 C   0  0  0  0  0  1  0  0  0  0  0  0
  193.3180  172.5500  142.7830 C   0  0  0  0  0  2  0  0  0  0  0  0
  1 27  1  0  0  0  0
  1  4  1  0  0  0  0
  2 17  1  0  0  0  0
  4 37  1  1  0  0  0
  4 12  1  0  0  0  0
  6  9  1  0  0  0  0
  7  3  1  6  0  0  0
  7 10  1  0  0  0  0
  8 26  2  0  0  0  0
  9 13  1  0  0  0  0
  9  3  2  0  0  0  0
 10 23  2  0  0  0  0
 10  5  1  0  0  0  0
 11  6  2  0  0  0  0
 11 16  1  0  0  0  0
 12  8  1  0  0  0  0
 13 21  2  0  0  0  0
 14  2  1  0  0  0  0
 15 28  2  0  0  0  0
 16 20  2  0  0  0  0
 17 13  1  0  0  0  0
 18  8  1  6  0  0  0
 19 25  1  0  0  0  0
 19  5  1  1  0  0  0
 19 18  1  0  0  0  0
 20  3  1  0  0  0  0
 20 15  1  0  0  0  0
 21  7  1  0  0  0  0
 21 27  1  0  0  0  0
 22  2  1  0  0  0  0
 22  6  1  0  0  0  0
 23 30  1  0  0  0  0
 24  2  1  0  0  0  0
 25 18  1  0  0  0  0
 27 25  1  0  0  0  0
 28 23  1  0  0  0  0
 29 30  2  0  0  0  0
 29 35  1  0  0  0  0
 30 31  1  0  0  0  0
 31 34  2  0  0  0  0
 33 34  1  0  0  0  0
 34 32  1  0  0  0  0
 35 33  2  0  0  0  0
 36 37  1  0  0  0  0
M  END
>  <MODEL>
9

>  <REMARK>
 VINA RESULT:      -8.0      2.391      6.291
  Name = 
  2 active torsions:
  status: ('A' for Active; 'I' for Inactive)
    1  A    between atoms: C_4  and  C_37
    2  A    between atoms: C_23  and  C_30
                            x       y       z     vdW  Elec       q    Type
                         _______ _______ _______ _____ _____    ______ ____

>  <TORSDO>
F 2

$$$$
