=
 OpenBabel11112416253D

 30 35  0  0  1  0  0  0  0  0999 V2000
  187.1370  178.1980  143.6590 C   0  0  0  0  0  0  0  0  0  0  0  0
  184.9950  179.0820  144.4460 C   0  0  0  0  0  0  0  0  0  0  0  0
  187.5220  175.8850  147.1700 N   0  0  0  0  0  0  0  0  0  0  0  0
  188.4550  177.4410  143.8860 C   0  0  0  0  0  0  0  0  0  0  0  0
  186.9150  178.6890  142.2560 C   0  0  0  0  0  2  0  0  0  0  0  0
  187.9740  175.5020  140.8330 O   0  0  0  0  0  0  0  0  0  0  0  0
  191.0530  175.9660  143.8690 C   0  0  1  0  0  3  0  0  0  0  0  0
  187.9650  176.5480  141.5390 C   0  0  0  0  0  0  0  0  0  0  0  0
  190.5380  175.4410  145.1220 N   0  0  0  0  0  0  0  0  0  0  0  0
  188.6690  175.3260  146.9410 C   0  0  2  0  0  3  0  0  0  0  0  0
  186.9450  177.5410  141.3570 N   0  0  0  0  0  0  0  0  0  0  0  0
  189.0250  176.7940  142.5880 C   0  0  2  0  0  3  0  0  0  0  0  0
  184.0490  179.1400  145.4200 N   0  0  0  0  0  0  0  0  0  0  0  0
  191.4840  174.5860  145.8100 C   0  0  0  0  0  2  0  0  0  0  0  0
  192.3930  175.2680  143.6680 C   0  0  0  0  0  2  0  0  0  0  0  0
  184.8090  179.8510  143.3430 F   0  0  0  0  0  0  0  0  0  0  0  0
  187.2730  176.6850  146.0180 C   0  0  0  0  0  0  0  0  0  0  0  0
  184.1510  178.4380  146.5750 C   0  0  0  0  0  3  0  0  0  0  0  0
  186.1550  178.2780  144.6160 C   0  0  0  0  0  0  0  0  0  0  0  0
  188.3390  176.5350  145.0700 C   0  0  0  0  0  0  0  0  0  0  0  0
  189.3070  174.4030  147.9200 C   0  0  0  0  0  1  0  0  0  0  0  0
  189.2310  175.7380  145.6400 C   0  0  0  0  0  0  0  0  0  0  0  0
  192.7680  174.6610  145.0090 C   0  0  0  0  0  2  0  0  0  0  0  0
  190.7520  175.5430  141.5130 O   0  0  0  0  0  1  0  0  0  0  0  0
  185.2480  177.6160  146.7950 C   0  0  0  0  0  3  0  0  0  0  0  0
  186.2500  177.5230  145.8260 C   0  0  0  0  0  0  0  0  0  0  0  0
  190.0710  175.6730  142.7270 C   0  0  1  0  0  3  0  0  0  0  0  0
  185.8990  177.3770  140.3550 C   0  0  0  0  0  2  0  0  0  0  0  0
  183.5200  178.0980  140.6110 C   0  0  0  0  0  1  0  0  0  0  0  0
  184.9440  178.5630  140.3740 C   0  0  0  0  0  2  0  0  0  0  0  0
  1  4  2  0  0  0  0
  1 19  1  0  0  0  0
  2 19  2  0  0  0  0
  2 13  1  0  0  0  0
  4 20  1  0  0  0  0
  5  1  1  0  0  0  0
  6  8  2  0  0  0  0
  7 15  1  6  0  0  0
  7  9  1  0  0  0  0
  9 22  1  0  0  0  0
  9 14  1  0  0  0  0
 10  3  1  0  0  0  0
 10 21  1  1  0  0  0
 11  8  1  0  0  0  0
 11  5  1  0  0  0  0
 12  8  1  1  0  0  0
 12 27  1  0  0  0  0
 12  4  1  0  0  0  0
 13 18  2  0  0  0  0
 15 23  1  0  0  0  0
 16  2  1  0  0  0  0
 17  3  2  0  0  0  0
 18 25  1  0  0  0  0
 19 26  1  0  0  0  0
 20 22  2  0  0  0  0
 20 17  1  0  0  0  0
 22 10  1  0  0  0  0
 23 14  1  0  0  0  0
 26 17  1  0  0  0  0
 26 25  2  0  0  0  0
 27 24  1  6  0  0  0
 27  7  1  0  0  0  0
 28 30  1  0  0  0  0
 28 11  1  0  0  0  0
 30 29  1  0  0  0  0
M  END
>  <MODEL>
1

>  <REMARK>
 VINA RESULT:      -8.3      0.000      0.000
  Name = 
  2 active torsions:
  status: ('A' for Active; 'I' for Inactive)
    1  A    between atoms: N_11  and  C_28
    2  A    between atoms: C_28  and  C_30
                            x       y       z     vdW  Elec       q    Type
                         _______ _______ _______ _____ _____    ______ ____

>  <TORSDO>
F 2

$$$$
=
 OpenBabel11112416253D

 30 35  0  0  1  0  0  0  0  0999 V2000
  187.6160  176.4580  144.6210 C   0  0  0  0  0  0  0  0  0  0  0  0
  186.4240  178.2740  145.7490 C   0  0  0  0  0  0  0  0  0  0  0  0
  186.3150  177.8800  140.8640 N   0  0  0  0  0  0  0  0  0  0  0  0
  187.9250  175.6070  143.3790 C   0  0  0  0  0  0  0  0  0  0  0  0
  188.4040  176.1040  145.8510 C   0  0  0  0  0  2  0  0  0  0  0  0
  191.5150  175.9040  143.9570 O   0  0  0  0  0  0  0  0  0  0  0  0
  188.8870  173.8000  141.2030 C   0  0  1  0  0  3  0  0  0  0  0  0
  190.3110  175.7310  144.2930 C   0  0  0  0  0  0  0  0  0  0  0  0
  188.2280  174.7850  140.3620 N   0  0  0  0  0  0  0  0  0  0  0  0
  186.8560  176.9900  140.0920 C   0  0  0  0  0  0  0  0  0  0  0  0
  189.8230  176.2420  145.5420 N   0  0  0  0  0  0  0  0  0  0  0  0
  189.3490  174.9770  143.4040 C   0  0  2  0  0  3  0  0  0  0  0  0
  185.6150  179.3630  145.6630 N   0  0  0  0  0  0  0  0  0  0  0  0
  188.2340  174.4270  138.9590 C   0  0  0  0  0  2  0  0  0  0  0  0
  189.4940  172.7940  140.2320 C   0  0  0  0  0  2  0  0  0  0  0  0
  186.8050  177.8700  146.9870 F   0  0  0  0  0  0  0  0  0  0  0  0
  186.7140  177.5080  142.1800 C   0  0  2  0  0  3  0  0  0  0  0  0
  185.1510  179.8320  144.4790 C   0  0  0  0  0  3  0  0  0  0  0  0
  186.8050  177.5660  144.5770 C   0  0  0  0  0  0  0  0  0  0  0  0
  187.5620  176.3520  142.1340 C   0  0  0  0  0  0  0  0  0  0  0  0
  186.6730  177.0100  138.6160 C   0  0  0  0  0  1  0  0  0  0  0  0
  187.6230  175.9900  140.8610 C   0  0  0  0  0  0  0  0  0  0  0  0
  188.8290  173.0360  138.8890 C   0  0  0  0  0  2  0  0  0  0  0  0
  190.9890  173.5850  142.3670 O   0  0  0  0  0  1  0  0  0  0  0  0
  185.5030  179.2000  143.2950 C   0  0  0  0  0  3  0  0  0  0  0  0
  186.3310  178.0750  143.3280 C   0  0  0  0  0  0  0  0  0  0  0  0
  189.9510  174.4760  142.0780 C   0  0  1  0  0  3  0  0  0  0  0  0
  190.6960  176.9670  146.4580 C   0  0  0  0  0  2  0  0  0  0  0  0
  192.2310  175.1880  147.3090 C   0  0  0  0  0  1  0  0  0  0  0  0
  191.0660  176.0980  147.6510 C   0  0  0  0  0  2  0  0  0  0  0  0
  1  5  1  0  0  0  0
  2 16  1  0  0  0  0
  4  1  2  0  0  0  0
  6  8  2  0  0  0  0
  7 15  1  6  0  0  0
  7 27  1  0  0  0  0
  8 11  1  0  0  0  0
  9 22  1  0  0  0  0
  9  7  1  0  0  0  0
 10 22  1  0  0  0  0
 10  3  2  0  0  0  0
 11  5  1  0  0  0  0
 11 28  1  0  0  0  0
 12  4  1  6  0  0  0
 12  8  1  0  0  0  0
 13  2  1  0  0  0  0
 14  9  1  0  0  0  0
 17  3  1  1  0  0  0
 17 26  1  0  0  0  0
 18 13  2  0  0  0  0
 19  1  1  0  0  0  0
 19  2  2  0  0  0  0
 20 17  1  0  0  0  0
 20  4  1  0  0  0  0
 21 10  1  0  0  0  0
 22 20  2  0  0  0  0
 23 14  1  0  0  0  0
 23 15  1  0  0  0  0
 25 26  2  0  0  0  0
 25 18  1  0  0  0  0
 26 19  1  0  0  0  0
 27 24  1  1  0  0  0
 27 12  1  0  0  0  0
 28 30  1  0  0  0  0
 29 30  1  0  0  0  0
M  END
>  <MODEL>
2

>  <REMARK>
 VINA RESULT:      -8.2      2.124      5.420
  Name = 
  2 active torsions:
  status: ('A' for Active; 'I' for Inactive)
    1  A    between atoms: N_11  and  C_28
    2  A    between atoms: C_28  and  C_30
                            x       y       z     vdW  Elec       q    Type
                         _______ _______ _______ _____ _____    ______ ____

>  <TORSDO>
F 2

$$$$
=
 OpenBabel11112416253D

 30 35  0  0  1  0  0  0  0  0999 V2000
  188.6300  176.4940  142.9460 C   0  0  0  0  0  0  0  0  0  0  0  0
  186.2340  176.8610  143.2830 C   0  0  0  0  0  0  0  0  0  0  0  0
  189.3250  176.9480  147.0870 N   0  0  0  0  0  0  0  0  0  0  0  0
  190.0870  176.5230  143.4370 C   0  0  0  0  0  0  0  0  0  0  0  0
  188.4350  175.9700  141.5520 C   0  0  0  0  0  2  0  0  0  0  0  0
  190.6800  173.1590  142.1550 O   0  0  0  0  0  0  0  0  0  0  0  0
  193.0100  176.3230  144.0200 C   0  0  1  0  0  3  0  0  0  0  0  0
  190.2290  174.3370  142.1160 C   0  0  0  0  0  0  0  0  0  0  0  0
  192.5480  176.4810  145.3880 N   0  0  0  0  0  0  0  0  0  0  0  0
  190.6130  176.8000  147.1120 C   0  0  2  0  0  3  0  0  0  0  0  0
  188.9650  174.6120  141.4930 N   0  0  0  0  0  0  0  0  0  0  0  0
  191.0010  175.4920  142.7100 C   0  0  2  0  0  3  0  0  0  0  0  0
  185.2080  177.1390  144.1310 N   0  0  0  0  0  0  0  0  0  0  0  0
  193.6320  176.5740  146.3450 C   0  0  0  0  0  2  0  0  0  0  0  0
  194.5210  176.1550  144.1290 C   0  0  0  0  0  2  0  0  0  0  0  0
  185.9410  176.7270  141.9650 F   0  0  0  0  0  0  0  0  0  0  0  0
  188.9690  176.7870  145.7170 C   0  0  0  0  0  0  0  0  0  0  0  0
  185.3940  177.3230  145.4610 C   0  0  0  0  0  3  0  0  0  0  0  0
  187.5660  176.7670  143.7710 C   0  0  0  0  0  0  0  0  0  0  0  0
  190.1340  176.4980  144.9310 C   0  0  0  0  0  0  0  0  0  0  0  0
  191.3950  176.9050  148.3730 C   0  0  0  0  0  1  0  0  0  0  0  0
  191.1620  176.5470  145.7650 C   0  0  0  0  0  0  0  0  0  0  0  0
  194.9050  176.6110  145.5250 C   0  0  0  0  0  2  0  0  0  0  0  0
  193.1700  174.5450  142.3970 O   0  0  0  0  0  1  0  0  0  0  0  0
  186.6670  177.2230  146.0060 C   0  0  0  0  0  3  0  0  0  0  0  0
  187.7560  176.9410  145.1770 C   0  0  0  0  0  0  0  0  0  0  0  0
  192.3370  175.1070  143.3700 C   0  0  1  0  0  3  0  0  0  0  0  0
  188.1710  173.5500  140.8870 C   0  0  0  0  0  2  0  0  0  0  0  0
  189.0310  172.1340  139.0160 C   0  0  0  0  0  1  0  0  0  0  0  0
  188.4270  173.4750  139.3880 C   0  0  0  0  0  2  0  0  0  0  0  0
  1  4  2  0  0  0  0
  1 19  1  0  0  0  0
  2 19  2  0  0  0  0
  2 13  1  0  0  0  0
  3 10  1  0  0  0  0
  4 20  1  0  0  0  0
  5  1  1  0  0  0  0
  7 15  1  1  0  0  0
  7  9  1  0  0  0  0
  8  6  2  0  0  0  0
  9 22  1  0  0  0  0
  9 14  1  0  0  0  0
 10 21  1  6  0  0  0
 11  5  1  0  0  0  0
 11  8  1  0  0  0  0
 12  8  1  1  0  0  0
 12 27  1  0  0  0  0
 12  4  1  0  0  0  0
 13 18  2  0  0  0  0
 15 23  1  0  0  0  0
 16  2  1  0  0  0  0
 17  3  2  0  0  0  0
 18 25  1  0  0  0  0
 19 26  1  0  0  0  0
 20 17  1  0  0  0  0
 20 22  2  0  0  0  0
 22 10  1  0  0  0  0
 23 14  1  0  0  0  0
 26 17  1  0  0  0  0
 26 25  2  0  0  0  0
 27 24  1  6  0  0  0
 27  7  1  0  0  0  0
 28 11  1  0  0  0  0
 29 30  1  0  0  0  0
 30 28  1  0  0  0  0
M  END
>  <MODEL>
3

>  <REMARK>
 VINA RESULT:      -7.8      2.327      3.217
  Name = 
  2 active torsions:
  status: ('A' for Active; 'I' for Inactive)
    1  A    between atoms: N_11  and  C_28
    2  A    between atoms: C_28  and  C_30
                            x       y       z     vdW  Elec       q    Type
                         _______ _______ _______ _____ _____    ______ ____

>  <TORSDO>
F 2

$$$$
=
 OpenBabel11112416253D

 30 35  0  0  1  0  0  0  0  0999 V2000
  189.3060  174.7340  144.7230 C   0  0  0  0  0  0  0  0  0  0  0  0
  188.6020  176.0410  146.6680 C   0  0  0  0  0  0  0  0  0  0  0  0
  187.0550  177.2370  142.1730 N   0  0  0  0  0  0  0  0  0  0  0  0
  189.1900  174.3420  143.2410 C   0  0  0  0  0  0  0  0  0  0  0  0
  190.3950  174.0350  145.4860 C   0  0  0  0  0  2  0  0  0  0  0  0
  192.8040  174.5780  142.8020 O   0  0  0  0  0  0  0  0  0  0  0  0
  189.3700  173.3710  140.4210 C   0  0  1  0  0  3  0  0  0  0  0  0
  191.7420  174.2590  143.4030 C   0  0  0  0  0  0  0  0  0  0  0  0
  188.5540  174.5460  140.1720 N   0  0  0  0  0  0  0  0  0  0  0  0
  187.2950  176.6650  141.0340 C   0  0  0  0  0  0  0  0  0  0  0  0
  191.6690  174.3220  144.8350 N   0  0  0  0  0  0  0  0  0  0  0  0
  190.5210  173.7940  142.6440 C   0  0  2  0  0  3  0  0  0  0  0  0
  187.8680  177.0680  147.1760 N   0  0  0  0  0  0  0  0  0  0  0  0
  188.1310  174.6590  138.7910 C   0  0  0  0  0  2  0  0  0  0  0  0
  189.6090  172.7550  139.0480 C   0  0  0  0  0  2  0  0  0  0  0  0
  189.3020  175.2770  147.5430 F   0  0  0  0  0  0  0  0  0  0  0  0
  187.7970  176.4770  143.1230 C   0  0  2  0  0  3  0  0  0  0  0  0
  187.1080  177.8740  146.3950 C   0  0  0  0  0  3  0  0  0  0  0  0
  188.5840  175.7650  145.2740 C   0  0  0  0  0  0  0  0  0  0  0  0
  188.5250  175.4320  142.4630 C   0  0  0  0  0  0  0  0  0  0  0  0
  186.6920  177.1510  139.7640 C   0  0  0  0  0  1  0  0  0  0  0  0
  188.1920  175.5020  141.1830 C   0  0  0  0  0  0  0  0  0  0  0  0
  188.5970  173.3890  138.1100 C   0  0  0  0  0  2  0  0  0  0  0  0
  191.7040  172.8760  140.7840 O   0  0  0  0  0  1  0  0  0  0  0  0
  187.0630  177.6710  145.0220 C   0  0  0  0  0  3  0  0  0  0  0  0
  187.7980  176.6290  144.4500 C   0  0  0  0  0  0  0  0  0  0  0  0
  190.6800  173.7700  141.1130 C   0  0  1  0  0  3  0  0  0  0  0  0
  192.8110  174.7470  145.6350 C   0  0  0  0  0  2  0  0  0  0  0  0
  193.9770  176.7760  146.5110 C   0  0  0  0  0  1  0  0  0  0  0  0
  192.6420  176.1890  146.0910 C   0  0  0  0  0  2  0  0  0  0  0  0
  1 19  1  0  0  0  0
  1  5  1  0  0  0  0
  2 13  1  0  0  0  0
  2 16  1  0  0  0  0
  4  1  2  0  0  0  0
  6  8  2  0  0  0  0
  7 15  1  6  0  0  0
  7 27  1  0  0  0  0
  8 11  1  0  0  0  0
  9  7  1  0  0  0  0
  9 22  1  0  0  0  0
 10 22  1  0  0  0  0
 10  3  2  0  0  0  0
 11  5  1  0  0  0  0
 11 28  1  0  0  0  0
 12  4  1  6  0  0  0
 12  8  1  0  0  0  0
 14  9  1  0  0  0  0
 17  3  1  1  0  0  0
 17 26  1  0  0  0  0
 18 13  2  0  0  0  0
 19  2  2  0  0  0  0
 20 17  1  0  0  0  0
 20  4  1  0  0  0  0
 21 10  1  0  0  0  0
 22 20  2  0  0  0  0
 23 14  1  0  0  0  0
 23 15  1  0  0  0  0
 25 18  1  0  0  0  0
 26 25  2  0  0  0  0
 26 19  1  0  0  0  0
 27 24  1  1  0  0  0
 27 12  1  0  0  0  0
 28 30  1  0  0  0  0
 30 29  1  0  0  0  0
M  END
>  <MODEL>
4

>  <REMARK>
 VINA RESULT:      -7.7      2.584      5.943
  Name = 
  2 active torsions:
  status: ('A' for Active; 'I' for Inactive)
    1  A    between atoms: N_11  and  C_28
    2  A    between atoms: C_28  and  C_30
                            x       y       z     vdW  Elec       q    Type
                         _______ _______ _______ _____ _____    ______ ____

>  <TORSDO>
F 2

$$$$
=
 OpenBabel11112416253D

 30 35  0  0  1  0  0  0  0  0999 V2000
  187.5000  177.7850  144.2020 C   0  0  0  0  0  0  0  0  0  0  0  0
  188.3820  177.2160  146.4130 C   0  0  0  0  0  0  0  0  0  0  0  0
  188.8260  174.0790  142.6720 N   0  0  0  0  0  0  0  0  0  0  0  0
  187.3750  177.5400  142.6890 C   0  0  0  0  0  0  0  0  0  0  0  0
  186.6930  178.9360  144.7320 C   0  0  0  0  0  2  0  0  0  0  0  0
  183.7490  177.9140  142.8360 O   0  0  0  0  0  0  0  0  0  0  0  0
  186.7800  177.3590  139.7670 C   0  0  1  0  0  3  0  0  0  0  0  0
  184.9430  178.2120  143.1150 C   0  0  0  0  0  0  0  0  0  0  0  0
  187.3560  176.0360  139.9320 N   0  0  0  0  0  0  0  0  0  0  0  0
  188.4490  174.2030  141.4370 C   0  0  0  0  0  0  0  0  0  0  0  0
  185.2880  178.6940  144.4210 N   0  0  0  0  0  0  0  0  0  0  0  0
  186.0430  178.0790  142.0870 C   0  0  2  0  0  3  0  0  0  0  0  0
  189.0490  176.3370  147.2070 N   0  0  0  0  0  0  0  0  0  0  0  0
  187.4780  175.3110  138.6840 C   0  0  0  0  0  2  0  0  0  0  0  0
  186.3640  177.4300  138.3030 C   0  0  0  0  0  2  0  0  0  0  0  0
  187.9830  178.3880  146.9680 F   0  0  0  0  0  0  0  0  0  0  0  0
  188.4010  175.2850  143.3020 C   0  0  2  0  0  3  0  0  0  0  0  0
  189.5180  175.1520  146.7470 C   0  0  0  0  0  3  0  0  0  0  0  0
  188.1630  176.9220  145.0390 C   0  0  0  0  0  0  0  0  0  0  0  0
  187.7120  176.1210  142.3620 C   0  0  0  0  0  0  0  0  0  0  0  0
  188.7140  173.1490  140.4220 C   0  0  0  0  0  1  0  0  0  0  0  0
  187.7720  175.4930  141.1970 C   0  0  0  0  0  0  0  0  0  0  0  0
  187.0710  176.2860  137.5980 C   0  0  0  0  0  2  0  0  0  0  0  0
  184.6580  178.4320  140.1740 O   0  0  0  0  0  1  0  0  0  0  0  0
  189.3190  174.7930  145.4200 C   0  0  0  0  0  3  0  0  0  0  0  0
  188.6410  175.6620  144.5610 C   0  0  0  0  0  0  0  0  0  0  0  0
  185.5890  177.5420  140.7180 C   0  0  1  0  0  3  0  0  0  0  0  0
  184.2770  178.8600  145.4590 C   0  0  0  0  0  2  0  0  0  0  0  0
  184.7980  176.7920  146.7600 C   0  0  0  0  0  1  0  0  0  0  0  0
  184.7730  178.3080  146.7880 C   0  0  0  0  0  2  0  0  0  0  0  0
  1  5  1  0  0  0  0
  1 19  1  0  0  0  0
  2 16  1  0  0  0  0
  2 13  1  0  0  0  0
  3 17  1  0  0  0  0
  4  1  2  0  0  0  0
  6  8  2  0  0  0  0
  7 15  1  6  0  0  0
  7  9  1  0  0  0  0
  7 27  1  0  0  0  0
  8 11  1  0  0  0  0
  9 22  1  0  0  0  0
 10  3  2  0  0  0  0
 11  5  1  0  0  0  0
 11 28  1  0  0  0  0
 12  4  1  1  0  0  0
 12  8  1  0  0  0  0
 14  9  1  0  0  0  0
 17 20  1  6  0  0  0
 17 26  1  0  0  0  0
 18 13  2  0  0  0  0
 19  2  2  0  0  0  0
 20  4  1  0  0  0  0
 21 10  1  0  0  0  0
 22 10  1  0  0  0  0
 22 20  2  0  0  0  0
 23 15  1  0  0  0  0
 23 14  1  0  0  0  0
 25 18  1  0  0  0  0
 26 19  1  0  0  0  0
 26 25  2  0  0  0  0
 27 24  1  6  0  0  0
 27 12  1  0  0  0  0
 28 30  1  0  0  0  0
 29 30  1  0  0  0  0
M  END
>  <MODEL>
5

>  <REMARK>
 VINA RESULT:      -7.5      2.408      5.429
  Name = 
  2 active torsions:
  status: ('A' for Active; 'I' for Inactive)
    1  A    between atoms: N_11  and  C_28
    2  A    between atoms: C_28  and  C_30
                            x       y       z     vdW  Elec       q    Type
                         _______ _______ _______ _____ _____    ______ ____

>  <TORSDO>
F 2

$$$$
=
 OpenBabel11112416253D

 30 35  0  0  1  0  0  0  0  0999 V2000
  188.8760  175.4150  145.4980 C   0  0  0  0  0  0  0  0  0  0  0  0
  187.5170  177.4030  145.9310 C   0  0  0  0  0  0  0  0  0  0  0  0
  187.9440  175.6210  141.3840 N   0  0  0  0  0  0  0  0  0  0  0  0
  189.3420  174.2640  144.5910 C   0  0  0  0  0  0  0  0  0  0  0  0
  189.5380  175.4760  146.8450 C   0  0  0  0  0  2  0  0  0  0  0  0
  192.8390  174.9270  145.3930 O   0  0  0  0  0  0  0  0  0  0  0  0
  190.5860  171.9700  143.1360 C   0  0  1  0  0  3  0  0  0  0  0  0
  191.6120  174.7870  145.6510 C   0  0  0  0  0  0  0  0  0  0  0  0
  189.9920  172.6310  141.9880 N   0  0  0  0  0  0  0  0  0  0  0  0
  188.5910  174.5800  140.9600 C   0  0  0  0  0  0  0  0  0  0  0  0
  190.9780  175.6040  146.6450 N   0  0  0  0  0  0  0  0  0  0  0  0
  190.7740  173.7540  144.9330 C   0  0  2  0  0  3  0  0  0  0  0  0
  186.6900  178.3720  145.4560 N   0  0  0  0  0  0  0  0  0  0  0  0
  190.1590  171.8870  140.7560 C   0  0  0  0  0  2  0  0  0  0  0  0
  191.3240  170.7660  142.5630 C   0  0  0  0  0  2  0  0  0  0  0  0
  187.7750  177.3950  147.2630 F   0  0  0  0  0  0  0  0  0  0  0  0
  188.2110  175.6660  142.7830 C   0  0  2  0  0  3  0  0  0  0  0  0
  186.3410  178.4530  144.1480 C   0  0  0  0  0  3  0  0  0  0  0  0
  188.0430  176.4130  145.0560 C   0  0  0  0  0  0  0  0  0  0  0  0
  189.0930  174.5970  143.1560 C   0  0  0  0  0  0  0  0  0  0  0  0
  188.5670  174.1650  139.5310 C   0  0  0  0  0  1  0  0  0  0  0  0
  189.3010  173.8900  142.0550 C   0  0  0  0  0  0  0  0  0  0  0  0
  190.7990  170.5720  141.1510 C   0  0  0  0  0  2  0  0  0  0  0  0
  192.5570  172.2230  144.5050 O   0  0  0  0  0  1  0  0  0  0  0  0
  186.8370  177.5310  143.2380 C   0  0  0  0  0  3  0  0  0  0  0  0
  187.6900  176.5140  143.6750 C   0  0  0  0  0  0  0  0  0  0  0  0
  191.5290  172.9300  143.8730 C   0  0  1  0  0  3  0  0  0  0  0  0
  191.7260  176.6120  147.3870 C   0  0  0  0  0  2  0  0  0  0  0  0
  191.5660  177.9160  149.5130 C   0  0  0  0  0  1  0  0  0  0  0  0
  190.8030  177.3980  148.3080 C   0  0  0  0  0  2  0  0  0  0  0  0
  1  5  1  0  0  0  0
  2 16  1  0  0  0  0
  4  1  2  0  0  0  0
  6  8  2  0  0  0  0
  7 15  1  6  0  0  0
  7 27  1  0  0  0  0
  8 11  1  0  0  0  0
  9 22  1  0  0  0  0
  9  7  1  0  0  0  0
 10  3  2  0  0  0  0
 10 22  1  0  0  0  0
 11  5  1  0  0  0  0
 11 28  1  0  0  0  0
 12  4  1  6  0  0  0
 12  8  1  0  0  0  0
 13  2  1  0  0  0  0
 14 23  1  0  0  0  0
 14  9  1  0  0  0  0
 17  3  1  1  0  0  0
 17 20  1  0  0  0  0
 17 26  1  0  0  0  0
 18 13  2  0  0  0  0
 19  1  1  0  0  0  0
 19  2  2  0  0  0  0
 20  4  1  0  0  0  0
 21 10  1  0  0  0  0
 22 20  2  0  0  0  0
 23 15  1  0  0  0  0
 25 26  2  0  0  0  0
 25 18  1  0  0  0  0
 26 19  1  0  0  0  0
 27 24  1  1  0  0  0
 27 12  1  0  0  0  0
 28 30  1  0  0  0  0
 30 29  1  0  0  0  0
M  END
>  <MODEL>
6

>  <REMARK>
 VINA RESULT:      -7.4      2.977      5.668
  Name = 
  2 active torsions:
  status: ('A' for Active; 'I' for Inactive)
    1  A    between atoms: N_11  and  C_28
    2  A    between atoms: C_28  and  C_30
                            x       y       z     vdW  Elec       q    Type
                         _______ _______ _______ _____ _____    ______ ____

>  <TORSDO>
F 2

$$$$
=
 OpenBabel11112416253D

 30 35  0  0  1  0  0  0  0  0999 V2000
  187.5490  177.0320  141.9110 C   0  0  0  0  0  0  0  0  0  0  0  0
  185.5270  177.5850  140.6470 C   0  0  0  0  0  0  0  0  0  0  0  0
  185.6380  178.1040  145.5200 N   0  0  0  0  0  0  0  0  0  0  0  0
  188.3910  177.0550  143.1960 C   0  0  2  0  0  3  0  0  0  0  0  0
  188.1690  176.3020  140.7530 C   0  0  0  0  0  2  0  0  0  0  0  0
  189.1470  173.5000  142.8740 O   0  0  0  0  0  0  0  0  0  0  0  0
  190.2890  176.7830  145.4880 C   0  0  1  0  0  3  0  0  0  0  0  0
  188.9890  174.6800  142.4550 C   0  0  0  0  0  0  0  0  0  0  0  0
  189.1190  177.1860  146.2490 N   0  0  0  0  0  0  0  0  0  0  0  0
  186.6070  177.8880  146.3550 C   0  0  0  0  0  0  0  0  0  0  0  0
  188.4220  174.9240  141.1600 N   0  0  0  0  0  0  0  0  0  0  0  0
  189.3980  175.8690  143.2940 C   0  0  2  0  0  3  0  0  0  0  0  0
  184.2510  178.0540  140.6430 N   0  0  0  0  0  0  0  0  0  0  0  0
  189.3960  177.3690  147.6590 C   0  0  0  0  0  2  0  0  0  0  0  0
  191.3780  176.5490  146.5280 C   0  0  0  0  0  2  0  0  0  0  0  0
  186.0810  177.2580  139.4520 F   0  0  0  0  0  0  0  0  0  0  0  0
  186.1710  177.7460  144.2480 C   0  0  0  0  0  0  0  0  0  0  0  0
  183.6140  178.4380  141.7750 C   0  0  0  0  0  3  0  0  0  0  0  0
  186.2560  177.4940  141.8640 C   0  0  0  0  0  0  0  0  0  0  0  0
  187.5150  177.2680  144.3890 C   0  0  0  0  0  0  0  0  0  0  0  0
  186.4650  178.1490  147.8130 C   0  0  0  0  0  1  0  0  0  0  0  0
  187.8180  177.3910  145.6730 C   0  0  0  0  0  0  0  0  0  0  0  0
  190.8940  177.2000  147.8120 C   0  0  0  0  0  2  0  0  0  0  0  0
  191.1440  174.7610  144.4870 O   0  0  0  0  0  1  0  0  0  0  0  0
  184.2620  178.3550  143.0000 C   0  0  0  0  0  3  0  0  0  0  0  0
  185.5740  177.8810  143.0600 C   0  0  0  0  0  0  0  0  0  0  0  0
  189.9830  175.5190  144.6730 C   0  0  1  0  0  3  0  0  0  0  0  0
  188.0180  173.8260  140.2910 C   0  0  0  0  0  2  0  0  0  0  0  0
  188.2140  174.1450  137.8200 C   0  0  0  0  0  1  0  0  0  0  0  0
  188.9410  173.7250  139.0850 C   0  0  0  0  0  2  0  0  0  0  0  0
  2 19  1  0  0  0  0
  3 10  2  0  0  0  0
  4  1  1  6  0  0  0
  4 12  1  0  0  0  0
  4 20  1  0  0  0  0
  5 11  1  0  0  0  0
  5  1  1  0  0  0  0
  7  9  1  0  0  0  0
  7 15  1  1  0  0  0
  8  6  2  0  0  0  0
  9 14  1  0  0  0  0
 10 21  1  0  0  0  0
 11  8  1  0  0  0  0
 12  8  1  1  0  0  0
 12 27  1  0  0  0  0
 13  2  2  0  0  0  0
 13 18  1  0  0  0  0
 14 23  1  0  0  0  0
 15 23  1  0  0  0  0
 16  2  1  0  0  0  0
 17 20  1  0  0  0  0
 17  3  1  0  0  0  0
 18 25  2  0  0  0  0
 19  1  2  0  0  0  0
 19 26  1  0  0  0  0
 20 22  2  0  0  0  0
 22  9  1  0  0  0  0
 22 10  1  0  0  0  0
 25 26  1  0  0  0  0
 26 17  2  0  0  0  0
 27 24  1  6  0  0  0
 27  7  1  0  0  0  0
 28 11  1  0  0  0  0
 29 30  1  0  0  0  0
 30 28  1  0  0  0  0
M  END
>  <MODEL>
7

>  <REMARK>
 VINA RESULT:      -7.3      2.268      3.597
  Name = 
  2 active torsions:
  status: ('A' for Active; 'I' for Inactive)
    1  A    between atoms: N_11  and  C_28
    2  A    between atoms: C_28  and  C_30
                            x       y       z     vdW  Elec       q    Type
                         _______ _______ _______ _____ _____    ______ ____

>  <TORSDO>
F 2

$$$$
=
 OpenBabel11112416253D

 30 35  0  0  1  0  0  0  0  0999 V2000
  188.2030  175.4770  142.5520 C   0  0  0  0  0  0  0  0  0  0  0  0
  190.2690  174.6030  141.5750 C   0  0  0  0  0  0  0  0  0  0  0  0
  190.3610  177.0270  145.8350 N   0  0  0  0  0  0  0  0  0  0  0  0
  187.4080  176.0840  143.7200 C   0  0  2  0  0  3  0  0  0  0  0  0
  187.4260  175.2860  141.2810 C   0  0  0  0  0  2  0  0  0  0  0  0
  185.9470  178.6110  141.5310 O   0  0  0  0  0  0  0  0  0  0  0  0
  185.5400  177.3540  145.6750 C   0  0  1  0  0  3  0  0  0  0  0  0
  186.3300  177.4500  141.8440 C   0  0  0  0  0  0  0  0  0  0  0  0
  186.7810  177.6570  146.3650 N   0  0  0  0  0  0  0  0  0  0  0  0
  189.3850  177.5410  146.5170 C   0  0  0  0  0  0  0  0  0  0  0  0
  186.9090  176.5830  140.8580 N   0  0  0  0  0  0  0  0  0  0  0  0
  186.1860  176.9320  143.2570 C   0  0  2  0  0  3  0  0  0  0  0  0
  191.6130  174.4200  141.6690 N   0  0  0  0  0  0  0  0  0  0  0  0
  186.5740  178.2950  147.6490 C   0  0  0  0  0  2  0  0  0  0  0  0
  184.4470  177.9860  146.5290 C   0  0  0  0  0  2  0  0  0  0  0  0
  189.6370  174.0790  140.4940 F   0  0  0  0  0  0  0  0  0  0  0  0
  189.7420  176.4860  144.6710 C   0  0  0  0  0  0  0  0  0  0  0  0
  192.3370  174.8740  142.7210 C   0  0  0  0  0  3  0  0  0  0  0  0
  189.5610  175.2770  142.6060 C   0  0  0  0  0  0  0  0  0  0  0  0
  188.3320  176.7460  144.6910 C   0  0  0  0  0  0  0  0  0  0  0  0
  189.6050  178.2090  147.8280 C   0  0  0  0  0  1  0  0  0  0  0  0
  188.0850  177.3540  145.8420 C   0  0  0  0  0  0  0  0  0  0  0  0
  185.0770  178.2920  147.8760 C   0  0  0  0  0  2  0  0  0  0  0  0
  184.2760  178.2490  143.8240 O   0  0  0  0  0  1  0  0  0  0  0  0
  191.7100  175.5600  143.7520 C   0  0  0  0  0  3  0  0  0  0  0  0
  190.3300  175.7730  143.7050 C   0  0  0  0  0  0  0  0  0  0  0  0
  185.5690  177.9300  144.2520 C   0  0  1  0  0  3  0  0  0  0  0  0
  187.0680  177.0100  139.4730 C   0  0  0  0  0  2  0  0  0  0  0  0
  186.6910  176.0410  137.2010 C   0  0  0  0  0  1  0  0  0  0  0  0
  187.3140  175.8130  138.5650 C   0  0  0  0  0  2  0  0  0  0  0  0
  1 19  2  0  0  0  0
  2 13  2  0  0  0  0
  2 19  1  0  0  0  0
  3 10  2  0  0  0  0
  4  1  1  6  0  0  0
  4 20  1  0  0  0  0
  5  1  1  0  0  0  0
  6  8  2  0  0  0  0
  7  9  1  0  0  0  0
  7 15  1  1  0  0  0
  9 14  1  0  0  0  0
 10 21  1  0  0  0  0
 11  5  1  0  0  0  0
 11  8  1  0  0  0  0
 12  8  1  6  0  0  0
 12  4  1  0  0  0  0
 12 27  1  0  0  0  0
 13 18  1  0  0  0  0
 14 23  1  0  0  0  0
 15 23  1  0  0  0  0
 16  2  1  0  0  0  0
 17 20  1  0  0  0  0
 17  3  1  0  0  0  0
 18 25  2  0  0  0  0
 19 26  1  0  0  0  0
 20 22  2  0  0  0  0
 22  9  1  0  0  0  0
 22 10  1  0  0  0  0
 26 25  1  0  0  0  0
 26 17  2  0  0  0  0
 27 24  1  6  0  0  0
 27  7  1  0  0  0  0
 28 11  1  0  0  0  0
 29 30  1  0  0  0  0
 30 28  1  0  0  0  0
M  END
>  <MODEL>
8

>  <REMARK>
 VINA RESULT:      -7.3      2.544      5.456
  Name = 
  2 active torsions:
  status: ('A' for Active; 'I' for Inactive)
    1  A    between atoms: N_11  and  C_28
    2  A    between atoms: C_28  and  C_30
                            x       y       z     vdW  Elec       q    Type
                         _______ _______ _______ _____ _____    ______ ____

>  <TORSDO>
F 2

$$$$
=
 OpenBabel11112416253D

 30 35  0  0  1  0  0  0  0  0999 V2000
  188.5380  175.1870  143.3960 C   0  0  0  0  0  0  0  0  0  0  0  0
  187.2470  177.2520  143.1520 C   0  0  0  0  0  0  0  0  0  0  0  0
  188.3450  174.5240  139.2300 N   0  0  0  0  0  0  0  0  0  0  0  0
  189.0820  173.8580  142.8480 C   0  0  2  0  0  3  0  0  0  0  0  0
  188.9590  175.5220  144.7990 C   0  0  0  0  0  2  0  0  0  0  0  0
  192.4220  174.5990  144.1170 O   0  0  0  0  0  0  0  0  0  0  0  0
  190.4170  171.2770  142.1520 C   0  0  1  0  0  3  0  0  0  0  0  0
  191.1620  174.5450  144.1700 C   0  0  0  0  0  0  0  0  0  0  0  0
  190.0720  171.6890  140.8030 N   0  0  0  0  0  0  0  0  0  0  0  0
  188.9910  173.4020  139.1550 C   0  0  0  0  0  0  0  0  0  0  0  0
  190.4170  175.5720  144.8410 N   0  0  0  0  0  0  0  0  0  0  0  0
  190.4000  173.4010  143.5420 C   0  0  2  0  0  3  0  0  0  0  0  0
  186.5750  178.1140  142.3430 N   0  0  0  0  0  0  0  0  0  0  0  0
  190.4040  170.6940  139.8040 C   0  0  0  0  0  2  0  0  0  0  0  0
  191.1690  169.9620  141.9850 C   0  0  0  0  0  2  0  0  0  0  0  0
  187.2710  177.5250  144.4800 F   0  0  0  0  0  0  0  0  0  0  0  0
  188.3680  174.8630  140.6130 C   0  0  0  0  0  0  0  0  0  0  0  0
  186.4630  177.9200  141.0060 C   0  0  0  0  0  3  0  0  0  0  0  0
  187.8550  176.0860  142.6120 C   0  0  0  0  0  0  0  0  0  0  0  0
  189.1060  173.8800  141.3530 C   0  0  0  0  0  0  0  0  0  0  0  0
  189.1890  172.6900  137.8640 C   0  0  0  0  0  1  0  0  0  0  0  0
  189.4580  172.9480  140.4800 C   0  0  0  0  0  0  0  0  0  0  0  0
  190.8850  169.4800  140.5730 C   0  0  0  0  0  2  0  0  0  0  0  0
  192.1340  171.7750  143.7730 O   0  0  0  0  0  1  0  0  0  0  0  0
  187.0520  176.8120  140.4130 C   0  0  0  0  0  3  0  0  0  0  0  0
  187.7530  175.8950  141.1990 C   0  0  0  0  0  0  0  0  0  0  0  0
  191.2750  172.3530  142.8330 C   0  0  1  0  0  3  0  0  0  0  0  0
  191.0850  176.6990  145.4810 C   0  0  0  0  0  2  0  0  0  0  0  0
  191.0280  178.2170  143.4980 C   0  0  0  0  0  1  0  0  0  0  0  0
  190.5650  178.0180  144.9290 C   0  0  0  0  0  2  0  0  0  0  0  0
  1  5  1  0  0  0  0
  2 16  1  0  0  0  0
  3 17  1  0  0  0  0
  4 20  1  6  0  0  0
  4  1  1  0  0  0  0
  4 12  1  0  0  0  0
  5 11  1  0  0  0  0
  6  8  2  0  0  0  0
  7 15  1  6  0  0  0
  7 27  1  0  0  0  0
  8 11  1  0  0  0  0
  9  7  1  0  0  0  0
 10  3  2  0  0  0  0
 10 22  1  0  0  0  0
 11 28  1  0  0  0  0
 12  8  1  6  0  0  0
 13  2  2  0  0  0  0
 14 23  1  0  0  0  0
 14  9  1  0  0  0  0
 17 26  2  0  0  0  0
 17 20  1  0  0  0  0
 18 13  1  0  0  0  0
 19  2  1  0  0  0  0
 19  1  2  0  0  0  0
 21 10  1  0  0  0  0
 22  9  1  0  0  0  0
 22 20  2  0  0  0  0
 23 15  1  0  0  0  0
 25 18  2  0  0  0  0
 25 26  1  0  0  0  0
 26 19  1  0  0  0  0
 27 12  1  0  0  0  0
 27 24  1  1  0  0  0
 29 30  1  0  0  0  0
 30 28  1  0  0  0  0
M  END
>  <MODEL>
9

>  <REMARK>
 VINA RESULT:      -7.1      3.364      5.836
  Name = 
  2 active torsions:
  status: ('A' for Active; 'I' for Inactive)
    1  A    between atoms: N_11  and  C_28
    2  A    between atoms: C_28  and  C_30
                            x       y       z     vdW  Elec       q    Type
                         _______ _______ _______ _____ _____    ______ ____

>  <TORSDO>
F 2

$$$$
