=
 OpenBabel11112416233D

 30 35  0  0  1  0  0  0  0  0999 V2000
  189.3000  174.6510  143.9890 C   0  0  2  0  0  3  0  0  0  0  0  0
  190.8450  173.0720  142.6900 C   0  0  2  0  0  3  0  0  0  0  0  0
  187.5850  175.8490  140.2610 N   0  0  0  0  0  2  0  0  0  0  0  0
  188.3820  175.8890  143.8830 C   0  0  2  0  0  3  0  0  0  0  0  0
  190.2850  174.8550  145.1440 C   0  0  0  0  0  2  0  0  0  0  0  0
  188.2420  176.8000  147.2920 O   0  0  0  0  0  0  0  0  0  0  0  0
  186.8090  178.3140  144.3940 C   0  0  1  0  0  3  0  0  0  0  0  0
  188.4550  176.0100  146.3810 C   0  0  0  0  0  0  0  0  0  0  0  0
  186.4390  178.2160  142.9220 C   0  0  2  0  0  3  0  0  0  0  0  0
  186.7940  176.9020  140.7880 C   0  0  0  0  0  0  0  0  0  0  0  0
  189.5560  174.9830  146.4830 C   0  0  2  0  0  3  0  0  0  0  0  0
  187.5510  175.9520  145.1730 C   0  0  1  0  0  3  0  0  0  0  0  0
  191.7110  172.9840  141.4290 C   0  0  0  0  0  2  0  0  0  0  0  0
  184.9650  178.5460  142.8490 C   0  0  0  0  0  2  0  0  0  0  0  0
  185.9400  179.4530  144.9050 C   0  0  0  0  0  2  0  0  0  0  0  0
  189.9620  171.9890  142.7450 O   0  0  0  0  0  1  0  0  0  0  0  0
  188.1260  175.2520  141.4340 C   0  0  2  0  0  3  0  0  0  0  0  0
  190.9360  173.2860  140.1680 C   0  0  0  0  0  2  0  0  0  0  0  0
  190.0770  174.4010  142.6920 C   0  0  1  0  0  3  0  0  0  0  0  0
  187.4430  175.7440  142.6770 C   0  0  2  0  0  3  0  0  0  0  0  0
  186.2020  177.7340  140.0510 O   0  0  0  0  0  0  0  0  0  0  0  0
  186.7720  176.9670  142.2130 N   0  0  0  0  0  0  0  0  0  0  0  0
  184.7300  179.5320  143.9800 C   0  0  0  0  0  2  0  0  0  0  0  0
  185.4450  176.8540  145.6910 O   0  0  0  0  0  0  0  0  0  0  0  0
  189.8230  174.0250  140.1700 C   0  0  0  0  0  3  0  0  0  0  0  0
  189.2570  174.5410  141.4310 C   0  0  0  0  0  0  0  0  0  0  0  0
  186.5220  177.0390  145.1450 C   0  0  0  0  0  0  0  0  0  0  0  0
  190.5540  175.3190  147.5850 C   0  0  0  0  0  2  0  0  0  0  0  0
  192.6710  176.5350  147.1820 C   0  0  0  0  0  1  0  0  0  0  0  0
  191.9750  175.1960  147.0680 C   0  0  0  0  0  2  0  0  0  0  0  0
  1  5  1  1  0  0  0
  2 19  1  0  0  0  0
  2 16  1  6  0  0  0
  3 10  1  0  0  0  0
  3 17  1  0  0  0  0
  4  1  1  0  0  0  0
  4 12  1  0  0  0  0
  5 11  1  0  0  0  0
  7 15  1  0  0  0  0
  7 27  1  0  0  0  0
  8 11  1  0  0  0  0
  8  6  2  0  0  0  0
  9  7  1  0  0  0  0
 10 22  1  0  0  0  0
 11 28  1  0  0  0  0
 12  8  1  0  0  0  0
 13  2  1  0  0  0  0
 14  9  1  0  0  0  0
 14 23  1  0  0  0  0
 17 20  1  0  0  0  0
 18 25  1  0  0  0  0
 18 13  1  0  0  0  0
 19  1  1  0  0  0  0
 20  4  1  0  0  0  0
 21 10  2  0  0  0  0
 22 20  1  0  0  0  0
 22  9  1  0  0  0  0
 23 15  1  0  0  0  0
 25 26  2  0  0  0  0
 26 17  1  0  0  0  0
 26 19  1  0  0  0  0
 27 12  1  0  0  0  0
 27 24  2  0  0  0  0
 30 29  1  0  0  0  0
 30 28  1  0  0  0  0
M  END
>  <MODEL>
1

>  <REMARK>
 VINA RESULT:      -8.5      0.000      0.000
  Name = 
  2 active torsions:
  status: ('A' for Active; 'I' for Inactive)
    1  A    between atoms: C_11  and  C_28
    2  A    between atoms: C_28  and  C_30
                            x       y       z     vdW  Elec       q    Type
                         _______ _______ _______ _____ _____    ______ ____

>  <TORSDO>
F 2

$$$$
=
 OpenBabel11112416233D

 30 35  0  0  1  0  0  0  0  0999 V2000
  186.9700  176.8620  144.2240 C   0  0  2  0  0  3  0  0  0  0  0  0
  185.5310  178.1920  145.8740 C   0  0  2  0  0  3  0  0  0  0  0  0
  189.8200  176.2860  147.3580 N   0  0  0  0  0  2  0  0  0  0  0  0
  188.3900  176.3230  143.9370 C   0  0  2  0  0  3  0  0  0  0  0  0
  186.4610  177.6140  142.9910 C   0  0  0  0  0  2  0  0  0  0  0  0
  188.0930  175.7330  140.4680 O   0  0  0  0  0  0  0  0  0  0  0  0
  190.8570  175.3360  142.6910 C   0  0  1  0  0  3  0  0  0  0  0  0
  187.6330  175.9200  141.5860 C   0  0  0  0  0  0  0  0  0  0  0  0
  191.3800  175.2570  144.1170 C   0  0  2  0  0  3  0  0  0  0  0  0
  190.8220  175.6940  146.5470 C   0  0  0  0  0  0  0  0  0  0  0  0
  186.3470  176.6860  141.7800 C   0  0  2  0  0  3  0  0  0  0  0  0
  188.2650  175.2920  142.8050 C   0  0  1  0  0  3  0  0  0  0  0  0
  185.6130  179.2440  146.9860 C   0  0  0  0  0  2  0  0  0  0  0  0
  192.1500  173.9580  144.1980 C   0  0  0  0  0  2  0  0  0  0  0  0
  191.9650  174.6940  141.8690 C   0  0  0  0  0  2  0  0  0  0  0  0
  184.8190  177.0740  146.3200 O   0  0  0  0  0  1  0  0  0  0  0  0
  188.7270  176.4130  146.4560 C   0  0  2  0  0  3  0  0  0  0  0  0
  186.5440  178.8390  148.1030 C   0  0  0  0  0  2  0  0  0  0  0  0
  186.9470  177.7960  145.4380 C   0  0  1  0  0  3  0  0  0  0  0  0
  188.9550  175.6390  145.1900 C   0  0  2  0  0  3  0  0  0  0  0  0
  191.9920  175.4890  146.9640 O   0  0  0  0  0  0  0  0  0  0  0  0
  190.4060  175.4020  145.2140 N   0  0  0  0  0  0  0  0  0  0  0  0
  192.7190  173.7540  142.8050 C   0  0  0  0  0  2  0  0  0  0  0  0
  189.5380  173.4180  142.1840 O   0  0  0  0  0  0  0  0  0  0  0  0
  187.5420  177.9680  147.9250 C   0  0  0  0  0  3  0  0  0  0  0  0
  187.7490  177.3070  146.6230 C   0  0  0  0  0  0  0  0  0  0  0  0
  189.5580  174.5950  142.5140 C   0  0  0  0  0  0  0  0  0  0  0  0
  185.9680  177.4940  140.5440 C   0  0  0  0  0  2  0  0  0  0  0  0
  183.6010  178.2010  140.4160 C   0  0  0  0  0  1  0  0  0  0  0  0
  184.9800  178.5860  140.9070 C   0  0  0  0  0  2  0  0  0  0  0  0
  1  5  1  6  0  0  0
  1 19  1  0  0  0  0
  2 16  1  1  0  0  0
  2 13  1  0  0  0  0
  4  1  1  0  0  0  0
  4 20  1  0  0  0  0
  6  8  2  0  0  0  0
  7  9  1  0  0  0  0
  8 11  1  0  0  0  0
  8 12  1  0  0  0  0
  9 14  1  0  0  0  0
  9 22  1  0  0  0  0
 10 21  2  0  0  0  0
 10  3  1  0  0  0  0
 11  5  1  0  0  0  0
 12  4  1  0  0  0  0
 13 18  1  0  0  0  0
 15  7  1  0  0  0  0
 15 23  1  0  0  0  0
 17 26  1  0  0  0  0
 17  3  1  0  0  0  0
 19  2  1  0  0  0  0
 19 26  1  0  0  0  0
 20 22  1  0  0  0  0
 20 17  1  0  0  0  0
 22 10  1  0  0  0  0
 23 14  1  0  0  0  0
 24 27  2  0  0  0  0
 25 18  1  0  0  0  0
 26 25  2  0  0  0  0
 27  7  1  0  0  0  0
 27 12  1  0  0  0  0
 28 30  1  0  0  0  0
 28 11  1  0  0  0  0
 29 30  1  0  0  0  0
M  END
>  <MODEL>
2

>  <REMARK>
 VINA RESULT:      -8.0      2.254      7.239
  Name = 
  2 active torsions:
  status: ('A' for Active; 'I' for Inactive)
    1  A    between atoms: C_11  and  C_28
    2  A    between atoms: C_28  and  C_30
                            x       y       z     vdW  Elec       q    Type
                         _______ _______ _______ _____ _____    ______ ____

>  <TORSDO>
F 2

$$$$
=
 OpenBabel11112416233D

 30 35  0  0  1  0  0  0  0  0999 V2000
  189.9980  175.8220  143.5440 C   0  0  2  0  0  3  0  0  0  0  0  0
  192.1140  174.8530  144.6130 C   0  0  2  0  0  3  0  0  0  0  0  0
  189.0500  177.6000  147.3140 N   0  0  0  0  0  2  0  0  0  0  0  0
  188.6020  176.4230  143.8270 C   0  0  2  0  0  3  0  0  0  0  0  0
  189.8590  174.6970  142.5160 C   0  0  0  0  0  2  0  0  0  0  0  0
  187.1220  175.9650  140.6530 O   0  0  0  0  0  0  0  0  0  0  0  0
  185.8060  177.3040  143.6890 C   0  0  1  0  0  3  0  0  0  0  0  0
  188.0820  176.0490  141.4070 C   0  0  0  0  0  0  0  0  0  0  0  0
  186.0540  177.8470  145.0880 C   0  0  2  0  0  3  0  0  0  0  0  0
  187.7570  178.0540  146.9490 C   0  0  0  0  0  0  0  0  0  0  0  0
  189.3240  175.2220  141.1820 C   0  0  2  0  0  3  0  0  0  0  0  0
  188.1110  177.0680  142.5210 C   0  0  1  0  0  3  0  0  0  0  0  0
  192.6330  174.1770  145.8870 C   0  0  0  0  0  2  0  0  0  0  0  0
  185.3760  179.1980  145.1290 C   0  0  0  0  0  2  0  0  0  0  0  0
  184.4130  177.8140  143.3510 C   0  0  0  0  0  2  0  0  0  0  0  0
  192.9100  175.9580  144.2950 O   0  0  0  0  0  1  0  0  0  0  0  0
  189.5580  177.0930  146.0860 C   0  0  2  0  0  3  0  0  0  0  0  0
  192.3620  174.9910  147.1290 C   0  0  0  0  0  3  0  0  0  0  0  0
  190.6540  175.2750  144.8160 C   0  0  1  0  0  3  0  0  0  0  0  0
  188.7050  177.4970  144.9190 C   0  0  2  0  0  3  0  0  0  0  0  0
  186.9390  178.5070  147.7930 O   0  0  0  0  0  0  0  0  0  0  0  0
  187.4480  177.9030  145.5650 N   0  0  0  0  0  0  0  0  0  0  0  0
  184.1850  179.0650  144.1950 C   0  0  0  0  0  2  0  0  0  0  0  0
  186.6270  178.8270  142.0520 O   0  0  0  0  0  0  0  0  0  0  0  0
  191.3740  175.8880  147.1980 C   0  0  0  0  0  3  0  0  0  0  0  0
  190.5250  176.1720  146.0260 C   0  0  2  0  0  3  0  0  0  0  0  0
  186.8180  177.8040  142.6920 C   0  0  0  0  0  0  0  0  0  0  0  0
  189.0720  174.0570  140.2310 C   0  0  0  0  0  2  0  0  0  0  0  0
  190.1060  171.8100  140.1780 C   0  0  0  0  0  1  0  0  0  0  0  0
  189.2030  172.7370  140.9650 C   0  0  0  0  0  2  0  0  0  0  0  0
  1  5  1  6  0  0  0
  1  4  1  0  0  0  0
  1 19  1  0  0  0  0
  2 16  1  1  0  0  0
  2 19  1  0  0  0  0
  2 13  1  0  0  0  0
  4 20  1  0  0  0  0
  6  8  2  0  0  0  0
  7  9  1  0  0  0  0
  8 12  1  0  0  0  0
  9 14  1  0  0  0  0
  9 22  1  0  0  0  0
 10  3  1  0  0  0  0
 10 21  2  0  0  0  0
 11  8  1  0  0  0  0
 11  5  1  0  0  0  0
 12 27  1  0  0  0  0
 12  4  1  0  0  0  0
 13 18  1  0  0  0  0
 15  7  1  0  0  0  0
 15 23  1  0  0  0  0
 17  3  1  0  0  0  0
 18 25  2  0  0  0  0
 19 26  1  0  0  0  0
 20 22  1  0  0  0  0
 20 17  1  0  0  0  0
 22 10  1  0  0  0  0
 23 14  1  0  0  0  0
 24 27  2  0  0  0  0
 26 17  1  0  0  0  0
 26 25  1  0  0  0  0
 27  7  1  0  0  0  0
 28 30  1  0  0  0  0
 28 11  1  0  0  0  0
 29 30  1  0  0  0  0
M  END
>  <MODEL>
3

>  <REMARK>
 VINA RESULT:      -7.9      2.067      5.011
  Name = 
  2 active torsions:
  status: ('A' for Active; 'I' for Inactive)
    1  A    between atoms: C_11  and  C_28
    2  A    between atoms: C_28  and  C_30
                            x       y       z     vdW  Elec       q    Type
                         _______ _______ _______ _____ _____    ______ ____

>  <TORSDO>
F 2

$$$$
=
 OpenBabel11112416233D

 30 35  0  0  1  0  0  0  0  0999 V2000
  187.2170  176.9350  143.8880 C   0  0  2  0  0  3  0  0  0  0  0  0
  185.4710  178.4700  142.8120 C   0  0  2  0  0  3  0  0  0  0  0  0
  188.0570  175.3610  140.0030 N   0  0  0  0  0  2  0  0  0  0  0  0
  188.0580  175.6520  143.7000 C   0  0  2  0  0  3  0  0  0  0  0  0
  186.5000  176.8700  145.2390 C   0  0  0  0  0  2  0  0  0  0  0  0
  188.9060  175.0170  147.0690 O   0  0  0  0  0  0  0  0  0  0  0  0
  189.6400  173.2100  144.0790 C   0  0  1  0  0  3  0  0  0  0  0  0
  188.5230  175.7380  146.1570 C   0  0  0  0  0  0  0  0  0  0  0  0
  189.6870  173.1710  142.5600 C   0  0  2  0  0  3  0  0  0  0  0  0
  188.9150  174.3210  140.4410 C   0  0  0  0  0  0  0  0  0  0  0  0
  187.4970  176.8180  146.3990 C   0  0  2  0  0  3  0  0  0  0  0  0
  189.1460  175.6570  144.7850 C   0  0  1  0  0  3  0  0  0  0  0  0
  184.3560  178.4930  141.7600 C   0  0  0  0  0  2  0  0  0  0  0  0
  191.1010  172.7700  142.2050 C   0  0  0  0  0  2  0  0  0  0  0  0
  190.5690  172.0780  144.4940 C   0  0  0  0  0  2  0  0  0  0  0  0
  186.3730  179.5130  142.5810 O   0  0  0  0  0  1  0  0  0  0  0  0
  187.7980  176.0760  141.2060 C   0  0  2  0  0  3  0  0  0  0  0  0
  184.8330  178.0550  140.3960 C   0  0  0  0  0  3  0  0  0  0  0  0
  186.1860  177.1130  142.7690 C   0  0  1  0  0  3  0  0  0  0  0  0
  188.7190  175.6560  142.3140 C   0  0  2  0  0  3  0  0  0  0  0  0
  189.3120  173.4060  139.6720 O   0  0  0  0  0  0  0  0  0  0  0  0
  189.2420  174.3710  141.8290 N   0  0  0  0  0  0  0  0  0  0  0  0
  191.5490  171.8690  143.3430 C   0  0  0  0  0  2  0  0  0  0  0  0
  191.2900  174.7080  144.9210 O   0  0  0  0  0  0  0  0  0  0  0  0
  185.9000  177.2700  140.2270 C   0  0  0  0  0  3  0  0  0  0  0  0
  186.7110  176.8340  141.3790 C   0  0  2  0  0  3  0  0  0  0  0  0
  190.1160  174.5260  144.6350 C   0  0  0  0  0  0  0  0  0  0  0  0
  186.7510  176.6180  147.7130 C   0  0  0  0  0  2  0  0  0  0  0  0
  186.6000  179.0440  148.1760 C   0  0  0  0  0  1  0  0  0  0  0  0
  185.8020  177.7740  147.9650 C   0  0  0  0  0  2  0  0  0  0  0  0
  1  5  1  1  0  0  0
  2 16  1  6  0  0  0
  3 10  1  0  0  0  0
  3 17  1  0  0  0  0
  4  1  1  0  0  0  0
  4 12  1  0  0  0  0
  5 11  1  0  0  0  0
  7 15  1  0  0  0  0
  7 27  1  0  0  0  0
  8 11  1  0  0  0  0
  8  6  2  0  0  0  0
  9  7  1  0  0  0  0
 10 22  1  0  0  0  0
 11 28  1  0  0  0  0
 12  8  1  0  0  0  0
 13  2  1  0  0  0  0
 14  9  1  0  0  0  0
 14 23  1  0  0  0  0
 17 26  1  0  0  0  0
 17 20  1  0  0  0  0
 18 13  1  0  0  0  0
 19  2  1  0  0  0  0
 19  1  1  0  0  0  0
 20  4  1  0  0  0  0
 21 10  2  0  0  0  0
 22 20  1  0  0  0  0
 22  9  1  0  0  0  0
 23 15  1  0  0  0  0
 25 18  2  0  0  0  0
 25 26  1  0  0  0  0
 26 19  1  0  0  0  0
 27 12  1  0  0  0  0
 27 24  2  0  0  0  0
 28 30  1  0  0  0  0
 30 29  1  0  0  0  0
M  END
>  <MODEL>
4

>  <REMARK>
 VINA RESULT:      -7.9      1.961      5.534
  Name = 
  2 active torsions:
  status: ('A' for Active; 'I' for Inactive)
    1  A    between atoms: C_11  and  C_28
    2  A    between atoms: C_28  and  C_30
                            x       y       z     vdW  Elec       q    Type
                         _______ _______ _______ _____ _____    ______ ____

>  <TORSDO>
F 2

$$$$
=
 OpenBabel11112416233D

 30 35  0  0  1  0  0  0  0  0999 V2000
  190.1390  175.6470  144.7780 C   0  0  2  0  0  3  0  0  0  0  0  0
  191.7450  176.3830  146.6330 C   0  0  2  0  0  3  0  0  0  0  0  0
  193.2500  173.1500  143.2390 N   0  0  0  0  0  2  0  0  0  0  0  0
  190.0400  175.0020  143.3770 C   0  0  2  0  0  3  0  0  0  0  0  0
  189.3450  176.9560  144.7830 C   0  0  0  0  0  2  0  0  0  0  0  0
  186.8030  176.0850  142.4710 O   0  0  0  0  0  0  0  0  0  0  0  0
  189.2250  174.1660  140.6840 C   0  0  1  0  0  3  0  0  0  0  0  0
  187.6880  175.8520  143.2830 C   0  0  0  0  0  0  0  0  0  0  0  0
  190.5110  173.3540  140.6990 C   0  0  2  0  0  3  0  0  0  0  0  0
  192.5740  172.7790  142.0490 C   0  0  0  0  0  0  0  0  0  0  0  0
  187.8590  176.7080  144.5140 C   0  0  2  0  0  3  0  0  0  0  0  0
  188.5660  174.6310  143.1500 C   0  0  1  0  0  3  0  0  0  0  0  0
  193.2000  176.7900  146.8910 C   0  0  0  0  0  2  0  0  0  0  0  0
  190.1610  172.0220  140.0740 C   0  0  0  0  0  2  0  0  0  0  0  0
  188.5450  173.7340  139.3930 C   0  0  0  0  0  2  0  0  0  0  0  0
  191.3670  175.3650  147.5130 O   0  0  0  0  0  1  0  0  0  0  0  0
  192.2590  173.8940  143.9390 C   0  0  2  0  0  3  0  0  0  0  0  0
  194.1880  175.7440  146.4320 C   0  0  0  0  0  3  0  0  0  0  0  0
  191.5920  175.9290  145.1760 C   0  0  1  0  0  3  0  0  0  0  0  0
  190.9000  173.7310  143.3220 C   0  0  2  0  0  3  0  0  0  0  0  0
  193.1480  172.1660  141.1110 O   0  0  0  0  0  0  0  0  0  0  0  0
  191.2130  173.2040  141.9860 N   0  0  0  0  0  0  0  0  0  0  0  0
  189.0710  172.3400  139.0640 C   0  0  0  0  0  2  0  0  0  0  0  0
  187.4970  173.0010  141.8390 O   0  0  0  0  0  0  0  0  0  0  0  0
  193.8970  174.8520  145.4820 C   0  0  0  0  0  3  0  0  0  0  0  0
  192.5580  174.8080  144.8660 C   0  0  2  0  0  3  0  0  0  0  0  0
  188.3500  173.8760  141.8760 C   0  0  0  0  0  0  0  0  0  0  0  0
  187.1270  178.0400  144.3940 C   0  0  0  0  0  2  0  0  0  0  0  0
  185.7290  176.9750  146.1360 C   0  0  0  0  0  1  0  0  0  0  0  0
  186.2790  178.2910  145.6260 C   0  0  0  0  0  2  0  0  0  0  0  0
  1  5  1  6  0  0  0
  1 19  1  0  0  0  0
  2 13  1  0  0  0  0
  2 16  1  1  0  0  0
  3 17  1  0  0  0  0
  4  1  1  0  0  0  0
  6  8  2  0  0  0  0
  7  9  1  0  0  0  0
  7 27  1  0  0  0  0
  8 11  1  0  0  0  0
  9 22  1  0  0  0  0
 10  3  1  0  0  0  0
 11  5  1  0  0  0  0
 12  8  1  0  0  0  0
 12  4  1  0  0  0  0
 14  9  1  0  0  0  0
 15  7  1  0  0  0  0
 17 26  1  0  0  0  0
 18 13  1  0  0  0  0
 19  2  1  0  0  0  0
 20  4  1  0  0  0  0
 20 17  1  0  0  0  0
 21 10  2  0  0  0  0
 22 10  1  0  0  0  0
 22 20  1  0  0  0  0
 23 15  1  0  0  0  0
 23 14  1  0  0  0  0
 24 27  2  0  0  0  0
 25 18  2  0  0  0  0
 26 19  1  0  0  0  0
 26 25  1  0  0  0  0
 27 12  1  0  0  0  0
 28 11  1  0  0  0  0
 28 30  1  0  0  0  0
 30 29  1  0  0  0  0
M  END
>  <MODEL>
5

>  <REMARK>
 VINA RESULT:      -7.7      2.319      5.972
  Name = 
  2 active torsions:
  status: ('A' for Active; 'I' for Inactive)
    1  A    between atoms: C_11  and  C_28
    2  A    between atoms: C_28  and  C_30
                            x       y       z     vdW  Elec       q    Type
                         _______ _______ _______ _____ _____    ______ ____

>  <TORSDO>
F 2

$$$$
=
 OpenBabel11112416233D

 30 35  0  0  1  0  0  0  0  0999 V2000
  191.4120  174.0400  143.5490 C   0  0  2  0  0  3  0  0  0  0  0  0
  192.2970  173.0390  141.3630 C   0  0  2  0  0  3  0  0  0  0  0  0
  187.7770  174.9840  141.5060 N   0  0  0  0  0  2  0  0  0  0  0  0
  190.3590  174.9860  144.1690 C   0  0  2  0  0  3  0  0  0  0  0  0
  192.7990  174.4230  144.0720 C   0  0  0  0  0  2  0  0  0  0  0  0
  191.8860  175.5810  147.2970 O   0  0  0  0  0  0  0  0  0  0  0  0
  188.8650  176.8460  145.8770 C   0  0  1  0  0  3  0  0  0  0  0  0
  191.7290  174.9460  146.2630 C   0  0  0  0  0  0  0  0  0  0  0  0
  187.7940  176.7550  144.8010 C   0  0  2  0  0  3  0  0  0  0  0  0
  187.2030  175.7420  142.5590 C   0  0  0  0  0  0  0  0  0  0  0  0
  192.8890  174.2540  145.5900 C   0  0  2  0  0  3  0  0  0  0  0  0
  190.3510  174.7280  145.6840 C   0  0  1  0  0  3  0  0  0  0  0  0
  192.3540  173.2790  139.8500 C   0  0  0  0  0  2  0  0  0  0  0  0
  186.4770  176.6750  145.5420 C   0  0  0  0  0  2  0  0  0  0  0  0
  188.2000  177.6660  146.9730 C   0  0  0  0  0  2  0  0  0  0  0  0
  191.8110  171.7550  141.6290 O   0  0  0  0  0  1  0  0  0  0  0  0
  188.9650  174.4760  142.1040 C   0  0  2  0  0  3  0  0  0  0  0  0
  190.9850  173.4460  139.2360 C   0  0  0  0  0  2  0  0  0  0  0  0
  191.4080  174.1040  142.0180 C   0  0  1  0  0  3  0  0  0  0  0  0
  188.9700  174.6750  143.5910 C   0  0  2  0  0  3  0  0  0  0  0  0
  186.1600  176.4300  142.4020 O   0  0  0  0  0  0  0  0  0  0  0  0
  187.9320  175.6980  143.7840 N   0  0  0  0  0  0  0  0  0  0  0  0
  186.6950  177.4770  146.8130 C   0  0  0  0  0  2  0  0  0  0  0  0
  188.7190  174.9820  147.3530 O   0  0  0  0  0  0  0  0  0  0  0  0
  189.9260  173.8510  139.9430 C   0  0  0  0  0  3  0  0  0  0  0  0
  190.0320  174.1030  141.3920 C   0  0  0  0  0  0  0  0  0  0  0  0
  189.2770  175.4930  146.3930 C   0  0  0  0  0  0  0  0  0  0  0  0
  194.2340  174.7710  146.0900 C   0  0  0  0  0  2  0  0  0  0  0  0
  194.6300  177.2000  145.8380 C   0  0  0  0  0  1  0  0  0  0  0  0
  194.7620  175.8500  145.1650 C   0  0  0  0  0  2  0  0  0  0  0  0
  1  5  1  1  0  0  0
  1  4  1  0  0  0  0
  2 16  1  6  0  0  0
  2 19  1  0  0  0  0
  3 17  1  0  0  0  0
  3 10  1  0  0  0  0
  4 12  1  0  0  0  0
  5 11  1  0  0  0  0
  7 27  1  0  0  0  0
  7 15  1  0  0  0  0
  8  6  2  0  0  0  0
  9 14  1  0  0  0  0
  9  7  1  0  0  0  0
 10 22  1  0  0  0  0
 11 28  1  0  0  0  0
 11  8  1  0  0  0  0
 12  8  1  0  0  0  0
 12 27  1  0  0  0  0
 13  2  1  0  0  0  0
 14 23  1  0  0  0  0
 17 20  1  0  0  0  0
 18 13  1  0  0  0  0
 18 25  1  0  0  0  0
 19  1  1  0  0  0  0
 20 22  1  0  0  0  0
 20  4  1  0  0  0  0
 21 10  2  0  0  0  0
 22  9  1  0  0  0  0
 23 15  1  0  0  0  0
 25 26  2  0  0  0  0
 26 19  1  0  0  0  0
 26 17  1  0  0  0  0
 27 24  2  0  0  0  0
 30 29  1  0  0  0  0
 30 28  1  0  0  0  0
M  END
>  <MODEL>
6

>  <REMARK>
 VINA RESULT:      -7.6      1.868      2.756
  Name = 
  2 active torsions:
  status: ('A' for Active; 'I' for Inactive)
    1  A    between atoms: C_11  and  C_28
    2  A    between atoms: C_28  and  C_30
                            x       y       z     vdW  Elec       q    Type
                         _______ _______ _______ _____ _____    ______ ____

>  <TORSDO>
F 2

$$$$
=
 OpenBabel11112416233D

 30 35  0  0  1  0  0  0  0  0999 V2000
  188.9400  175.8750  144.2910 C   0  0  2  0  0  3  0  0  0  0  0  0
  189.3370  176.7720  146.6570 C   0  0  2  0  0  3  0  0  0  0  0  0
  192.1620  173.1360  144.9160 N   0  0  0  0  0  2  0  0  0  0  0  0
  189.5620  175.0780  143.1220 C   0  0  2  0  0  3  0  0  0  0  0  0
  188.3840  177.1970  143.7550 C   0  0  0  0  0  2  0  0  0  0  0  0
  187.4410  176.1400  140.5050 O   0  0  0  0  0  0  0  0  0  0  0  0
  190.2720  173.9650  140.5010 C   0  0  1  0  0  3  0  0  0  0  0  0
  187.7200  175.9760  141.6860 C   0  0  0  0  0  0  0  0  0  0  0  0
  191.2700  173.1260  141.2830 C   0  0  2  0  0  3  0  0  0  0  0  0
  192.2120  172.6510  143.5840 C   0  0  0  0  0  0  0  0  0  0  0  0
  187.2680  176.9610  142.7360 C   0  0  2  0  0  3  0  0  0  0  0  0
  188.4220  174.7250  142.1540 C   0  0  1  0  0  3  0  0  0  0  0  0
  190.4470  177.1660  147.6380 C   0  0  0  0  0  2  0  0  0  0  0  0
  191.2040  171.7420  140.6770 C   0  0  0  0  0  2  0  0  0  0  0  0
  190.3680  173.4090  139.0880 C   0  0  0  0  0  2  0  0  0  0  0  0
  188.4560  175.8700  147.2630 O   0  0  0  0  0  1  0  0  0  0  0  0
  191.0170  173.9810  144.8950 C   0  0  2  0  0  3  0  0  0  0  0  0
  191.4320  176.0480  147.8820 C   0  0  0  0  0  2  0  0  0  0  0  0
  189.9610  176.1600  145.3970 C   0  0  1  0  0  3  0  0  0  0  0  0
  190.2030  173.7860  143.6500 C   0  0  2  0  0  3  0  0  0  0  0  0
  193.1490  171.9210  143.1670 O   0  0  0  0  0  0  0  0  0  0  0  0
  191.1450  173.1030  142.7510 N   0  0  0  0  0  0  0  0  0  0  0  0
  190.8680  171.9730  139.2130 C   0  0  0  0  0  2  0  0  0  0  0  0
  188.1030  172.9870  140.6070 O   0  0  0  0  0  0  0  0  0  0  0  0
  191.6300  175.0620  147.0020 C   0  0  0  0  0  3  0  0  0  0  0  0
  190.8410  174.9850  145.7580 C   0  0  0  0  0  0  0  0  0  0  0  0
  188.8700  173.8360  141.0350 C   0  0  0  0  0  0  0  0  0  0  0  0
  186.8330  178.2900  142.1280 C   0  0  0  0  0  2  0  0  0  0  0  0
  185.5650  179.4970  143.8760 C   0  0  0  0  0  1  0  0  0  0  0  0
  185.4480  178.6680  142.6150 C   0  0  0  0  0  2  0  0  0  0  0  0
  1  5  1  6  0  0  0
  1 19  1  0  0  0  0
  2 16  1  1  0  0  0
  2 13  1  0  0  0  0
  4 20  1  0  0  0  0
  4  1  1  0  0  0  0
  6  8  2  0  0  0  0
  7 27  1  0  0  0  0
  7  9  1  0  0  0  0
  8 12  1  0  0  0  0
  8 11  1  0  0  0  0
  9 22  1  0  0  0  0
 10  3  1  0  0  0  0
 11  5  1  0  0  0  0
 12  4  1  0  0  0  0
 13 18  1  0  0  0  0
 14  9  1  0  0  0  0
 15 23  1  0  0  0  0
 15  7  1  0  0  0  0
 17  3  1  0  0  0  0
 17 26  1  0  0  0  0
 19 26  1  0  0  0  0
 19  2  1  0  0  0  0
 20 17  1  0  0  0  0
 21 10  2  0  0  0  0
 22 10  1  0  0  0  0
 22 20  1  0  0  0  0
 23 14  1  0  0  0  0
 24 27  2  0  0  0  0
 25 18  1  0  0  0  0
 26 25  2  0  0  0  0
 27 12  1  0  0  0  0
 28 30  1  0  0  0  0
 28 11  1  0  0  0  0
 30 29  1  0  0  0  0
M  END
>  <MODEL>
7

>  <REMARK>
 VINA RESULT:      -7.6      2.093      6.673
  Name = 
  2 active torsions:
  status: ('A' for Active; 'I' for Inactive)
    1  A    between atoms: C_11  and  C_28
    2  A    between atoms: C_28  and  C_30
                            x       y       z     vdW  Elec       q    Type
                         _______ _______ _______ _____ _____    ______ ____

>  <TORSDO>
F 2

$$$$
=
 OpenBabel11112416233D

 30 35  0  0  1  0  0  0  0  0999 V2000
  188.0430  175.7150  143.0090 C   0  0  2  0  0  3  0  0  0  0  0  0
  186.0190  177.2850  142.9850 C   0  0  2  0  0  3  0  0  0  0  0  0
  189.1880  177.4420  146.7490 N   0  0  0  0  0  2  0  0  0  0  0  0
  189.4410  175.4660  143.6210 C   0  0  2  0  0  3  0  0  0  0  0  0
  188.1410  175.6250  141.4840 C   0  0  0  0  0  2  0  0  0  0  0  0
  190.7280  173.2140  141.2240 O   0  0  0  0  0  0  0  0  0  0  0  0
  192.2030  174.6290  144.1510 C   0  0  1  0  0  3  0  0  0  0  0  0
  189.8150  173.8030  141.7890 C   0  0  0  0  0  0  0  0  0  0  0  0
  192.0320  175.3810  145.4610 C   0  0  2  0  0  3  0  0  0  0  0  0
  190.4460  176.7930  146.8390 C   0  0  0  0  0  0  0  0  0  0  0  0
  188.5800  174.2290  141.0350 C   0  0  2  0  0  3  0  0  0  0  0  0
  189.8350  174.0200  143.2830 C   0  0  1  0  0  3  0  0  0  0  0  0
  185.5960  178.7280  143.2800 C   0  0  0  0  0  2  0  0  0  0  0  0
  192.6830  174.5150  146.5170 C   0  0  0  0  0  2  0  0  0  0  0  0
  193.5610  173.9590  144.2990 C   0  0  0  0  0  2  0  0  0  0  0  0
  185.1810  176.3900  143.6580 O   0  0  0  0  0  1  0  0  0  0  0  0
  188.6150  176.8460  145.5910 C   0  0  2  0  0  3  0  0  0  0  0  0
  185.9280  179.1560  144.6890 C   0  0  0  0  0  2  0  0  0  0  0  0
  187.4810  177.0840  143.4060 C   0  0  1  0  0  3  0  0  0  0  0  0
  189.3840  175.6370  145.1460 C   0  0  2  0  0  3  0  0  0  0  0  0
  191.3060  177.1060  147.7040 O   0  0  0  0  0  0  0  0  0  0  0  0
  190.6710  175.8000  145.8390 N   0  0  0  0  0  0  0  0  0  0  0  0
  193.8150  173.8050  145.7950 C   0  0  0  0  0  2  0  0  0  0  0  0
  191.2480  172.4520  144.3130 O   0  0  0  0  0  0  0  0  0  0  0  0
  186.8990  178.5800  145.4040 C   0  0  0  0  0  3  0  0  0  0  0  0
  187.6660  177.4420  144.8630 C   0  0  0  0  0  0  0  0  0  0  0  0
  191.1200  173.6060  143.9300 C   0  0  0  0  0  0  0  0  0  0  0  0
  188.7960  174.2170  139.5250 C   0  0  0  0  0  2  0  0  0  0  0  0
  189.2990  172.1580  138.2480 C   0  0  0  0  0  1  0  0  0  0  0  0
  188.2030  172.9600  138.9170 C   0  0  0  0  0  2  0  0  0  0  0  0
  1  5  1  6  0  0  0
  1 19  1  0  0  0  0
  1  4  1  0  0  0  0
  2 13  1  0  0  0  0
  2 19  1  0  0  0  0
  2 16  1  1  0  0  0
  3 10  1  0  0  0  0
  4 20  1  0  0  0  0
  6  8  2  0  0  0  0
  7 15  1  0  0  0  0
  7  9  1  0  0  0  0
  8 12  1  0  0  0  0
  9 22  1  0  0  0  0
  9 14  1  0  0  0  0
 10 21  2  0  0  0  0
 11  5  1  0  0  0  0
 11  8  1  0  0  0  0
 12  4  1  0  0  0  0
 12 27  1  0  0  0  0
 13 18  1  0  0  0  0
 15 23  1  0  0  0  0
 17  3  1  0  0  0  0
 18 25  1  0  0  0  0
 19 26  1  0  0  0  0
 20 17  1  0  0  0  0
 20 22  1  0  0  0  0
 22 10  1  0  0  0  0
 23 14  1  0  0  0  0
 26 25  2  0  0  0  0
 26 17  1  0  0  0  0
 27  7  1  0  0  0  0
 27 24  2  0  0  0  0
 28 11  1  0  0  0  0
 29 30  1  0  0  0  0
 30 28  1  0  0  0  0
M  END
>  <MODEL>
8

>  <REMARK>
 VINA RESULT:      -7.4      2.183      6.986
  Name = 
  2 active torsions:
  status: ('A' for Active; 'I' for Inactive)
    1  A    between atoms: C_11  and  C_28
    2  A    between atoms: C_28  and  C_30
                            x       y       z     vdW  Elec       q    Type
                         _______ _______ _______ _____ _____    ______ ____

>  <TORSDO>
F 2

$$$$
=
 OpenBabel11112416233D

 30 35  0  0  1  0  0  0  0  0999 V2000
  191.2560  174.9690  143.1270 C   0  0  2  0  0  3  0  0  0  0  0  0
  193.5830  173.9780  142.7180 C   0  0  2  0  0  3  0  0  0  0  0  0
  192.6430  176.3500  146.9280 N   0  0  0  0  0  2  0  0  0  0  0  0
  190.2780  175.4920  144.2040 C   0  0  2  0  0  3  0  0  0  0  0  0
  190.5350  173.9410  142.2520 C   0  0  0  0  0  2  0  0  0  0  0  0
  187.2560  175.2840  142.3880 O   0  0  0  0  0  0  0  0  0  0  0  0
  187.9130  176.2850  145.7510 C   0  0  1  0  0  3  0  0  0  0  0  0
  188.4760  175.3300  142.4750 C   0  0  0  0  0  0  0  0  0  0  0  0
  188.9200  176.7010  146.8120 C   0  0  2  0  0  3  0  0  0  0  0  0
  191.3800  176.7910  147.4010 C   0  0  0  0  0  0  0  0  0  0  0  0
  189.3540  174.5710  141.5100 C   0  0  2  0  0  3  0  0  0  0  0  0
  189.1530  176.2400  143.4720 C   0  0  1  0  0  3  0  0  0  0  0  0
  194.7130  173.2030  143.4060 C   0  0  0  0  0  2  0  0  0  0  0  0
  188.4160  178.0180  147.3590 C   0  0  0  0  0  2  0  0  0  0  0  0
  186.5850  176.7750  146.3070 C   0  0  0  0  0  2  0  0  0  0  0  0
  194.0880  175.1340  142.1170 O   0  0  0  0  0  1  0  0  0  0  0  0
  192.3570  175.9790  145.5850 C   0  0  2  0  0  3  0  0  0  0  0  0
  195.2090  173.8870  144.6580 C   0  0  0  0  0  3  0  0  0  0  0  0
  192.5010  174.3280  143.7490 C   0  0  1  0  0  3  0  0  0  0  0  0
  191.0050  176.4610  145.1470 C   0  0  2  0  0  3  0  0  0  0  0  0
  191.1910  177.1340  148.5980 O   0  0  0  0  0  0  0  0  0  0  0  0
  190.3410  176.7610  146.4240 N   0  0  0  0  0  0  0  0  0  0  0  0
  186.9030  177.9320  147.2500 C   0  0  0  0  0  2  0  0  0  0  0  0
  187.7060  177.9830  144.0930 O   0  0  0  0  0  0  0  0  0  0  0  0
  194.4530  174.7380  145.3580 C   0  0  0  0  0  3  0  0  0  0  0  0
  193.0990  175.1020  144.9010 C   0  0  2  0  0  3  0  0  0  0  0  0
  188.1990  176.9110  144.4110 C   0  0  0  0  0  0  0  0  0  0  0  0
  188.5820  173.4930  140.7580 C   0  0  0  0  0  2  0  0  0  0  0  0
  189.8800  173.4000  138.6540 C   0  0  0  0  0  1  0  0  0  0  0  0
  188.5570  173.7980  139.2720 C   0  0  0  0  0  2  0  0  0  0  0  0
  1  5  1  1  0  0  0
  1 19  1  0  0  0  0
  1  4  1  0  0  0  0
  2 16  1  1  0  0  0
  2 13  1  0  0  0  0
  2 19  1  0  0  0  0
  3 10  1  0  0  0  0
  4 20  1  0  0  0  0
  6  8  2  0  0  0  0
  7 15  1  0  0  0  0
  7  9  1  0  0  0  0
  8 12  1  0  0  0  0
  9 14  1  0  0  0  0
 10 21  2  0  0  0  0
 11  5  1  0  0  0  0
 11  8  1  0  0  0  0
 12  4  1  0  0  0  0
 12 27  1  0  0  0  0
 13 18  1  0  0  0  0
 15 23  1  0  0  0  0
 17  3  1  0  0  0  0
 18 25  2  0  0  0  0
 19 26  1  0  0  0  0
 20 17  1  0  0  0  0
 20 22  1  0  0  0  0
 22  9  1  0  0  0  0
 22 10  1  0  0  0  0
 23 14  1  0  0  0  0
 24 27  2  0  0  0  0
 26 25  1  0  0  0  0
 26 17  1  0  0  0  0
 27  7  1  0  0  0  0
 28 11  1  0  0  0  0
 29 30  1  0  0  0  0
 30 28  1  0  0  0  0
M  END
>  <MODEL>
9

>  <REMARK>
 VINA RESULT:      -7.2      2.830      5.484
  Name = 
  2 active torsions:
  status: ('A' for Active; 'I' for Inactive)
    1  A    between atoms: C_11  and  C_28
    2  A    between atoms: C_28  and  C_30
                            x       y       z     vdW  Elec       q    Type
                         _______ _______ _______ _____ _____    ______ ____

>  <TORSDO>
F 2

$$$$
