=
 OpenBabel11112417423D

 28 32  0  0  1  0  0  0  0  0999 V2000
  191.6870  174.0610  143.3720 C   0  0  0  0  0  0  0  0  0  0  0  0
  188.9130  178.2160  141.8530 O   0  0  0  0  0  0  0  0  0  0  0  0
  191.2410  175.3830  147.8110 C   0  0  0  0  0  1  0  0  0  0  0  0
  189.8340  172.1710  144.2840 C   0  0  0  0  0  3  0  0  0  0  0  0
  189.6790  177.0160  146.8050 C   0  0  2  0  0  3  0  0  0  0  0  0
  192.6150  175.0230  142.9660 O   0  0  0  0  0  0  0  0  0  0  0  0
  187.8890  176.1690  140.9600 O   0  0  0  0  0  0  0  0  0  0  0  0
  187.9620  177.0890  142.1450 S   0  0  0  0  0  0  0  0  0  0  0  0
  186.0070  177.5470  143.9630 C   0  0  2  0  0  3  0  0  0  0  0  0
  188.5040  176.1780  143.5950 C   0  0  2  0  0  3  0  0  0  0  0  0
  195.1860  175.8410  145.5550 C   0  0  0  0  0  1  0  0  0  0  0  0
  190.6100  176.8450  144.5910 C   0  0  1  0  0  3  0  0  0  0  0  0
  187.2050  177.9190  144.8290 C   0  0  0  0  0  2  0  0  0  0  0  0
  186.3490  177.7540  142.4950 C   0  0  0  0  0  2  0  0  0  0  0  0
  193.8080  175.4870  145.0380 C   0  0  1  0  0  3  0  0  0  0  0  0
  190.3680  174.4580  143.6490 C   0  0  0  0  0  0  0  0  0  0  0  0
  191.1160  176.5570  146.8600 C   0  0  2  0  0  3  0  0  0  0  0  0
  184.8260  178.4200  144.3280 C   0  0  0  0  0  1  0  0  0  0  0  0
  192.8570  176.6540  145.2850 C   0  0  0  0  0  2  0  0  0  0  0  0
  189.4490  173.5030  144.1180 C   0  0  0  0  0  3  0  0  0  0  0  0
  192.0720  172.7250  143.5510 C   0  0  0  0  0  3  0  0  0  0  0  0
  191.1450  171.7820  143.9990 C   0  0  0  0  0  3  0  0  0  0  0  0
  193.9070  175.1290  143.5540 C   0  0  0  0  0  2  0  0  0  0  0  0
  189.4490  177.4240  145.3720 C   0  0  1  0  0  3  0  0  0  0  0  0
  191.5080  176.1520  145.5170 N   0  0  2  0  0  0  0  0  0  0  0  0
  188.2030  176.8390  144.8830 N   0  0  2  0  0  0  0  0  0  0  0  0
  189.4970  178.1140  147.6440 O   0  0  0  0  0  1  0  0  0  0  0  0
  189.9980  175.9240  143.5300 C   0  0  1  0  0  3  0  0  0  0  0  0
  1 21  2  0  0  0  0
  1 16  1  0  0  0  0
  2  8  2  0  0  0  0
  5 17  1  0  0  0  0
  5 27  1  1  0  0  0
  6  1  1  0  0  0  0
  6 23  1  0  0  0  0
  7  8  2  0  0  0  0
  8 14  1  0  0  0  0
  9 18  1  1  0  0  0
  9 13  1  0  0  0  0
 10  8  1  6  0  0  0
 10 26  1  0  0  0  0
 12 24  1  0  0  0  0
 12 25  1  0  0  0  0
 13 26  1  0  0  0  0
 14  9  1  0  0  0  0
 15 19  1  0  0  0  0
 15 11  1  0  0  0  0
 16 20  2  0  0  0  0
 17  3  1  0  0  0  0
 19 25  1  0  0  0  0
 20  4  1  0  0  0  0
 21 22  1  0  0  0  0
 22  4  2  0  0  0  0
 23 15  1  0  0  0  0
 24  5  1  0  0  0  0
 25 17  1  0  0  0  0
 26 24  1  0  0  0  0
 28 10  1  0  0  0  0
 28 16  1  0  0  0  0
 28 12  1  0  0  0  0
M  END
>  <MODEL>
1

>  <REMARK>
 VINA RESULT:      -8.4      0.000      0.000
  Name = 
  0 active torsions:
  status: ('A' for Active; 'I' for Inactive)
                            x       y       z     vdW  Elec       q    Type
                         _______ _______ _______ _____ _____    ______ ____

>  <TORSDO>
F 0

$$$$
=
 OpenBabel11112417423D

 28 32  0  0  1  0  0  0  0  0999 V2000
  191.2050  174.3760  142.9510 C   0  0  0  0  0  0  0  0  0  0  0  0
  187.7610  178.2910  142.6810 O   0  0  0  0  0  0  0  0  0  0  0  0
  192.0040  175.3820  147.4230 C   0  0  0  0  0  1  0  0  0  0  0  0
  189.8810  172.2480  144.1970 C   0  0  0  0  0  3  0  0  0  0  0  0
  190.0790  176.8940  147.0660 C   0  0  2  0  0  3  0  0  0  0  0  0
  191.8830  175.4530  142.3750 O   0  0  0  0  0  0  0  0  0  0  0  0
  186.6940  176.2010  141.9530 O   0  0  0  0  0  0  0  0  0  0  0  0
  187.0410  177.0540  143.1400 S   0  0  0  0  0  0  0  0  0  0  0  0
  185.6920  177.1930  145.4850 C   0  0  2  0  0  3  0  0  0  0  0  0
  188.0690  176.1230  144.2820 C   0  0  2  0  0  3  0  0  0  0  0  0
  195.0340  176.3910  144.1570 C   0  0  0  0  0  1  0  0  0  0  0  0
  190.3120  176.9530  144.6700 C   0  0  1  0  0  3  0  0  0  0  0  0
  187.0590  177.6400  145.9900 C   0  0  0  0  0  2  0  0  0  0  0  0
  185.5570  177.5200  144.0050 C   0  0  0  0  0  2  0  0  0  0  0  0
  193.6000  175.9220  144.0380 C   0  0  1  0  0  3  0  0  0  0  0  0
  190.0020  174.6120  143.6360 C   0  0  0  0  0  0  0  0  0  0  0  0
  191.5000  176.5900  146.6560 C   0  0  2  0  0  3  0  0  0  0  0  0
  184.6060  177.9120  146.2550 C   0  0  0  0  0  1  0  0  0  0  0  0
  192.6720  176.9640  144.6550 C   0  0  0  0  0  2  0  0  0  0  0  0
  189.3510  173.5390  144.2680 C   0  0  0  0  0  3  0  0  0  0  0  0
  191.7390  173.0810  142.8910 C   0  0  0  0  0  3  0  0  0  0  0  0
  191.0730  172.0190  143.5070 C   0  0  0  0  0  3  0  0  0  0  0  0
  193.2780  175.6630  142.5650 C   0  0  0  0  0  2  0  0  0  0  0  0
  189.3950  177.3580  145.8060 C   0  0  1  0  0  3  0  0  0  0  0  0
  191.5030  176.3070  145.2270 N   0  0  2  0  0  0  0  0  0  0  0  0
  188.1140  176.6720  145.6550 N   0  0  2  0  0  0  0  0  0  0  0  0
  190.0660  177.9160  148.0140 O   0  0  0  0  0  1  0  0  0  0  0  0
  189.4910  176.0350  143.7600 C   0  0  1  0  0  3  0  0  0  0  0  0
  1 16  1  0  0  0  0
  2  8  2  0  0  0  0
  4 20  1  0  0  0  0
  5 27  1  1  0  0  0
  6 23  1  0  0  0  0
  6  1  1  0  0  0  0
  7  8  2  0  0  0  0
  8 14  1  0  0  0  0
  9 13  1  0  0  0  0
  9 18  1  1  0  0  0
 10  8  1  6  0  0  0
 10 26  1  0  0  0  0
 12 25  1  0  0  0  0
 12 24  1  0  0  0  0
 14  9  1  0  0  0  0
 15 11  1  0  0  0  0
 15 19  1  0  0  0  0
 16 28  1  0  0  0  0
 16 20  2  0  0  0  0
 17  5  1  0  0  0  0
 17  3  1  0  0  0  0
 19 25  1  0  0  0  0
 21  1  2  0  0  0  0
 21 22  1  0  0  0  0
 22  4  2  0  0  0  0
 23 15  1  0  0  0  0
 24  5  1  0  0  0  0
 25 17  1  0  0  0  0
 26 24  1  0  0  0  0
 26 13  1  0  0  0  0
 28 10  1  0  0  0  0
 28 12  1  0  0  0  0
M  END
>  <MODEL>
2

>  <REMARK>
 VINA RESULT:      -8.3      0.970      1.025
  Name = 
  0 active torsions:
  status: ('A' for Active; 'I' for Inactive)
                            x       y       z     vdW  Elec       q    Type
                         _______ _______ _______ _____ _____    ______ ____

>  <TORSDO>
F 0

$$$$
=
 OpenBabel11112417423D

 28 32  0  0  1  0  0  0  0  0999 V2000
  189.5840  176.4940  145.0340 C   0  0  0  0  0  0  0  0  0  0  0  0
  194.7090  176.4160  144.0410 O   0  0  0  0  0  0  0  0  0  0  0  0
  189.1390  172.2910  143.0900 C   0  0  0  0  0  1  0  0  0  0  0  0
  189.2010  174.9160  147.3140 C   0  0  0  0  0  3  0  0  0  0  0  0
  191.6100  172.4090  143.0990 C   0  0  2  0  0  3  0  0  0  0  0  0
  189.7670  177.2400  143.8670 O   0  0  0  0  0  0  0  0  0  0  0  0
  194.3390  176.8250  146.4350 O   0  0  0  0  0  0  0  0  0  0  0  0
  194.4730  175.7670  145.3770 S   0  0  0  0  0  0  0  0  0  0  0  0
  195.3900  173.2420  145.7170 C   0  0  2  0  0  3  0  0  0  0  0  0
  192.9860  174.7620  145.3250 C   0  0  2  0  0  3  0  0  0  0  0  0
  187.6950  176.0770  140.9810 C   0  0  0  0  0  1  0  0  0  0  0  0
  191.6950  174.8090  143.2750 C   0  0  1  0  0  3  0  0  0  0  0  0
  194.5410  173.0020  144.4740 C   0  0  0  0  0  2  0  0  0  0  0  0
  195.8390  174.6940  145.7630 C   0  0  0  0  0  2  0  0  0  0  0  0
  188.5450  175.9230  142.2230 C   0  0  1  0  0  3  0  0  0  0  0  0
  190.6070  175.6310  145.4620 C   0  0  0  0  0  0  0  0  0  0  0  0
  190.3480  173.0330  142.5540 C   0  0  2  0  0  3  0  0  0  0  0  0
  196.6080  172.3440  145.6810 C   0  0  0  0  0  1  0  0  0  0  0  0
  189.8510  175.2230  141.8620 C   0  0  0  0  0  2  0  0  0  0  0  0
  190.3990  174.8350  146.6010 C   0  0  0  0  0  3  0  0  0  0  0  0
  188.3780  176.5640  145.7470 C   0  0  0  0  0  3  0  0  0  0  0  0
  188.1910  175.7820  146.8880 C   0  0  0  0  0  3  0  0  0  0  0  0
  188.7820  177.3020  142.8420 C   0  0  0  0  0  2  0  0  0  0  0  0
  192.5530  173.5610  143.3310 C   0  0  1  0  0  3  0  0  0  0  0  0
  190.3110  174.4220  142.9900 N   0  0  2  0  0  0  0  0  0  0  0  0
  193.1530  173.4520  144.6590 N   0  0  2  0  0  0  0  0  0  0  0  0
  192.1540  171.5350  142.1580 O   0  0  0  0  0  1  0  0  0  0  0  0
  191.8670  175.5100  144.6260 C   0  0  1  0  0  3  0  0  0  0  0  0
  1 16  2  0  0  0  0
  1 21  1  0  0  0  0
  2  8  2  0  0  0  0
  5 27  1  6  0  0  0
  5 24  1  0  0  0  0
  6  1  1  0  0  0  0
  8 14  1  0  0  0  0
  8  7  2  0  0  0  0
  9 18  1  6  0  0  0
  9 14  1  0  0  0  0
 10  8  1  6  0  0  0
 11 15  1  0  0  0  0
 12 24  1  0  0  0  0
 12 28  1  0  0  0  0
 13 26  1  0  0  0  0
 13  9  1  0  0  0  0
 15 23  1  0  0  0  0
 16 20  1  0  0  0  0
 17 25  1  0  0  0  0
 17  3  1  0  0  0  0
 17  5  1  0  0  0  0
 19 15  1  0  0  0  0
 19 25  1  0  0  0  0
 20  4  2  0  0  0  0
 21 22  2  0  0  0  0
 22  4  1  0  0  0  0
 23  6  1  0  0  0  0
 24 26  1  0  0  0  0
 25 12  1  0  0  0  0
 26 10  1  0  0  0  0
 28 10  1  0  0  0  0
 28 16  1  0  0  0  0
M  END
>  <MODEL>
3

>  <REMARK>
 VINA RESULT:      -7.8      2.623      6.639
  Name = 
  0 active torsions:
  status: ('A' for Active; 'I' for Inactive)
                            x       y       z     vdW  Elec       q    Type
                         _______ _______ _______ _____ _____    ______ ____

>  <TORSDO>
F 0

$$$$
=
 OpenBabel11112417423D

 28 32  0  0  1  0  0  0  0  0999 V2000
  187.3020  176.8060  144.5160 C   0  0  0  0  0  0  0  0  0  0  0  0
  189.2110  172.1160  143.2400 O   0  0  0  0  0  0  0  0  0  0  0  0
  191.4810  178.7120  143.7760 C   0  0  0  0  0  1  0  0  0  0  0  0
  186.8310  178.1450  142.1040 C   0  0  0  0  0  3  0  0  0  0  0  0
  191.9680  176.4550  142.8880 C   0  0  2  0  0  3  0  0  0  0  0  0
  187.5840  176.1580  145.7210 O   0  0  0  0  0  0  0  0  0  0  0  0
  187.2500  172.6160  141.8470 O   0  0  0  0  0  0  0  0  0  0  0  0
  188.7360  172.7940  141.9860 S   0  0  0  0  0  0  0  0  0  0  0  0
  190.5250  173.0970  139.9760 C   0  0  2  0  0  3  0  0  0  0  0  0
  189.1390  174.5430  142.0330 C   0  0  2  0  0  3  0  0  0  0  0  0
  189.8380  178.0920  147.9930 C   0  0  0  0  0  1  0  0  0  0  0  0
  190.1590  175.3840  144.0640 C   0  0  1  0  0  3  0  0  0  0  0  0
  191.3200  173.7800  141.0840 C   0  0  0  0  0  2  0  0  0  0  0  0
  189.5640  172.0840  140.5800 C   0  0  0  0  0  2  0  0  0  0  0  0
  189.3250  177.5750  146.6660 C   0  0  1  0  0  3  0  0  0  0  0  0
  187.8730  176.3200  143.3280 C   0  0  0  0  0  0  0  0  0  0  0  0
  191.5880  177.2400  144.1220 C   0  0  2  0  0  3  0  0  0  0  0  0
  191.4740  172.3860  139.0360 C   0  0  0  0  0  1  0  0  0  0  0  0
  190.3680  176.6540  146.0420 C   0  0  0  0  0  2  0  0  0  0  0  0
  187.6400  177.0070  142.1250 C   0  0  0  0  0  3  0  0  0  0  0  0
  186.4990  177.9550  144.4920 C   0  0  0  0  0  3  0  0  0  0  0  0
  186.2600  178.6180  143.2870 C   0  0  0  0  0  3  0  0  0  0  0  0
  187.9880  176.8650  146.8880 C   0  0  0  0  0  2  0  0  0  0  0  0
  191.2130  175.1560  142.9990 C   0  0  1  0  0  3  0  0  0  0  0  0
  190.3010  176.7440  144.5880 N   0  0  2  0  0  0  0  0  0  0  0  0
  190.5530  174.8560  141.7300 N   0  0  2  0  0  0  0  0  0  0  0  0
  193.3400  176.2060  142.8870 O   0  0  0  0  0  1  0  0  0  0  0  0
  188.8070  175.1260  143.3940 C   0  0  1  0  0  3  0  0  0  0  0  0
  1  6  1  0  0  0  0
  3 17  1  0  0  0  0
  4 20  2  0  0  0  0
  4 22  1  0  0  0  0
  5 27  1  1  0  0  0
  5 24  1  0  0  0  0
  5 17  1  0  0  0  0
  6 23  1  0  0  0  0
  7  8  2  0  0  0  0
  8  2  2  0  0  0  0
  9 18  1  6  0  0  0
  9 14  1  0  0  0  0
  9 13  1  0  0  0  0
 10  8  1  1  0  0  0
 10 28  1  0  0  0  0
 12 25  1  0  0  0  0
 13 26  1  0  0  0  0
 14  8  1  0  0  0  0
 15 23  1  0  0  0  0
 15 11  1  0  0  0  0
 16 28  1  0  0  0  0
 16  1  2  0  0  0  0
 17 25  1  0  0  0  0
 19 15  1  0  0  0  0
 20 16  1  0  0  0  0
 21  1  1  0  0  0  0
 22 21  2  0  0  0  0
 24 12  1  0  0  0  0
 25 19  1  0  0  0  0
 26 10  1  0  0  0  0
 26 24  1  0  0  0  0
 28 12  1  0  0  0  0
M  END
>  <MODEL>
4

>  <REMARK>
 VINA RESULT:      -7.7      2.477      5.571
  Name = 
  0 active torsions:
  status: ('A' for Active; 'I' for Inactive)
                            x       y       z     vdW  Elec       q    Type
                         _______ _______ _______ _____ _____    ______ ____

>  <TORSDO>
F 0

$$$$
=
 OpenBabel11112417423D

 28 32  0  0  1  0  0  0  0  0999 V2000
  190.7760  176.8320  144.8920 C   0  0  0  0  0  0  0  0  0  0  0  0
  195.2400  175.5940  142.4820 O   0  0  0  0  0  0  0  0  0  0  0  0
  189.6220  172.3280  145.0760 C   0  0  0  0  0  1  0  0  0  0  0  0
  191.1820  176.3120  147.6130 C   0  0  0  0  0  3  0  0  0  0  0  0
  191.9450  172.0580  144.2690 C   0  0  2  0  0  3  0  0  0  0  0  0
  190.5560  177.0440  143.5290 O   0  0  0  0  0  0  0  0  0  0  0  0
  195.7270  176.9290  144.4860 O   0  0  0  0  0  0  0  0  0  0  0  0
  195.4700  175.5430  143.9670 S   0  0  0  0  0  0  0  0  0  0  0  0
  196.4100  173.2250  145.0060 C   0  0  2  0  0  3  0  0  0  0  0  0
  194.0420  174.8350  144.7940 C   0  0  2  0  0  3  0  0  0  0  0  0
  187.5950  175.2100  142.1680 C   0  0  0  0  0  1  0  0  0  0  0  0
  192.1230  174.3030  143.4150 C   0  0  1  0  0  3  0  0  0  0  0  0
  195.1790  172.6670  144.2980 C   0  0  0  0  0  2  0  0  0  0  0  0
  196.8690  174.4990  144.3130 C   0  0  0  0  0  2  0  0  0  0  0  0
  188.8200  175.4080  143.0340 C   0  0  1  0  0  3  0  0  0  0  0  0
  191.8710  176.0480  145.2950 C   0  0  0  0  0  0  0  0  0  0  0  0
  190.5820  172.6170  143.9370 C   0  0  2  0  0  3  0  0  0  0  0  0
  197.5260  172.2040  144.9630 C   0  0  0  0  0  1  0  0  0  0  0  0
  189.9100  174.4310  142.6040 C   0  0  0  0  0  2  0  0  0  0  0  0
  192.0580  175.7830  146.6620 C   0  0  0  0  0  3  0  0  0  0  0  0
  189.8930  177.3510  145.8490 C   0  0  0  0  0  3  0  0  0  0  0  0
  190.1010  177.0970  147.2070 C   0  0  0  0  0  3  0  0  0  0  0  0
  189.2780  176.8640  142.9290 C   0  0  0  0  0  2  0  0  0  0  0  0
  192.9270  173.0520  143.7060 C   0  0  1  0  0  3  0  0  0  0  0  0
  190.7200  174.0550  143.7570 N   0  0  2  0  0  0  0  0  0  0  0  0
  193.9480  173.3620  144.7040 N   0  0  2  0  0  0  0  0  0  0  0  0
  192.1160  170.8210  143.6480 O   0  0  0  0  0  1  0  0  0  0  0  0
  192.7610  175.4270  144.2360 C   0  0  1  0  0  3  0  0  0  0  0  0
  1 16  2  0  0  0  0
  1 21  1  0  0  0  0
  2  8  2  0  0  0  0
  5 27  1  6  0  0  0
  6  1  1  0  0  0  0
  8 14  1  0  0  0  0
  8  7  2  0  0  0  0
  9 18  1  6  0  0  0
 10  8  1  6  0  0  0
 11 15  1  0  0  0  0
 12 24  1  0  0  0  0
 12 25  1  0  0  0  0
 12 28  1  0  0  0  0
 13 26  1  0  0  0  0
 13  9  1  0  0  0  0
 14  9  1  0  0  0  0
 16 20  1  0  0  0  0
 17  5  1  0  0  0  0
 17  3  1  0  0  0  0
 19 15  1  0  0  0  0
 19 25  1  0  0  0  0
 20  4  2  0  0  0  0
 21 22  2  0  0  0  0
 22  4  1  0  0  0  0
 23 15  1  0  0  0  0
 23  6  1  0  0  0  0
 24  5  1  0  0  0  0
 24 26  1  0  0  0  0
 25 17  1  0  0  0  0
 26 10  1  0  0  0  0
 28 10  1  0  0  0  0
 28 16  1  0  0  0  0
M  END
>  <MODEL>
5

>  <REMARK>
 VINA RESULT:      -7.4      2.684      6.851
  Name = 
  0 active torsions:
  status: ('A' for Active; 'I' for Inactive)
                            x       y       z     vdW  Elec       q    Type
                         _______ _______ _______ _____ _____    ______ ____

>  <TORSDO>
F 0

$$$$
=
 OpenBabel11112417423D

 28 32  0  0  1  0  0  0  0  0999 V2000
  191.1170  173.7730  142.0640 C   0  0  0  0  0  0  0  0  0  0  0  0
  188.1600  177.9200  143.2120 O   0  0  0  0  0  0  0  0  0  0  0  0
  193.2630  174.1590  146.1740 C   0  0  0  0  0  1  0  0  0  0  0  0
  189.9940  171.6040  143.4310 C   0  0  0  0  0  3  0  0  0  0  0  0
  191.4820  175.8340  146.5540 C   0  0  2  0  0  3  0  0  0  0  0  0
  191.7080  174.8630  141.4220 O   0  0  0  0  0  0  0  0  0  0  0  0
  186.7210  176.0160  142.6320 O   0  0  0  0  0  0  0  0  0  0  0  0
  187.4790  176.6890  143.7410 S   0  0  0  0  0  0  0  0  0  0  0  0
  186.8800  176.6300  146.3810 C   0  0  2  0  0  3  0  0  0  0  0  0
  188.6900  175.5550  144.4290 C   0  0  2  0  0  3  0  0  0  0  0  0
  195.3170  175.3530  142.2720 C   0  0  0  0  0  1  0  0  0  0  0  0
  191.0230  176.1720  144.2140 C   0  0  1  0  0  3  0  0  0  0  0  0
  188.3740  176.9150  146.5000 C   0  0  0  0  0  2  0  0  0  0  0  0
  186.3620  177.1460  145.0480 C   0  0  0  0  0  2  0  0  0  0  0  0
  193.8690  175.0020  142.5380 C   0  0  1  0  0  3  0  0  0  0  0  0
  190.1910  174.0050  143.0950 C   0  0  0  0  0  0  0  0  0  0  0  0
  192.6870  175.4850  145.7140 C   0  0  2  0  0  3  0  0  0  0  0  0
  186.1410  177.3210  147.5060 C   0  0  0  0  0  1  0  0  0  0  0  0
  193.2680  176.0220  143.5010 C   0  0  0  0  0  2  0  0  0  0  0  0
  189.6430  172.9090  143.7830 C   0  0  0  0  0  3  0  0  0  0  0  0
  191.4750  172.4610  141.7220 C   0  0  0  0  0  3  0  0  0  0  0  0
  190.9090  171.3800  142.4000 C   0  0  0  0  0  3  0  0  0  0  0  0
  193.1130  174.9510  141.2090 C   0  0  0  0  0  2  0  0  0  0  0  0
  190.5170  176.4960  145.6050 C   0  0  1  0  0  3  0  0  0  0  0  0
  192.2510  175.3820  144.3280 N   0  0  2  0  0  0  0  0  0  0  0  0
  189.1830  175.9250  145.7740 N   0  0  2  0  0  0  0  0  0  0  0  0
  191.8460  176.7290  147.5590 O   0  0  0  0  0  1  0  0  0  0  0  0
  189.8860  175.4340  143.5030 C   0  0  1  0  0  3  0  0  0  0  0  0
  1 16  1  0  0  0  0
  2  8  2  0  0  0  0
  4 20  1  0  0  0  0
  5 27  1  1  0  0  0
  6  1  1  0  0  0  0
  7  8  2  0  0  0  0
  8 14  1  0  0  0  0
  9 13  1  0  0  0  0
  9 18  1  1  0  0  0
 10  8  1  6  0  0  0
 10 26  1  0  0  0  0
 11 15  1  0  0  0  0
 12 25  1  0  0  0  0
 12 24  1  0  0  0  0
 14  9  1  0  0  0  0
 15 19  1  0  0  0  0
 16 28  1  0  0  0  0
 16 20  2  0  0  0  0
 17  3  1  0  0  0  0
 17  5  1  0  0  0  0
 19 25  1  0  0  0  0
 21  1  2  0  0  0  0
 21 22  1  0  0  0  0
 22  4  2  0  0  0  0
 23  6  1  0  0  0  0
 23 15  1  0  0  0  0
 24 26  1  0  0  0  0
 24  5  1  0  0  0  0
 25 17  1  0  0  0  0
 26 13  1  0  0  0  0
 28 12  1  0  0  0  0
 28 10  1  0  0  0  0
M  END
>  <MODEL>
6

>  <REMARK>
 VINA RESULT:      -7.3      1.618      2.056
  Name = 
  0 active torsions:
  status: ('A' for Active; 'I' for Inactive)
                            x       y       z     vdW  Elec       q    Type
                         _______ _______ _______ _____ _____    ______ ____

>  <TORSDO>
F 0

$$$$
=
 OpenBabel11112417423D

 28 32  0  0  1  0  0  0  0  0999 V2000
  194.2080  173.8770  145.3930 C   0  0  0  0  0  0  0  0  0  0  0  0
  189.4540  174.6390  147.4140 O   0  0  0  0  0  0  0  0  0  0  0  0
  192.3310  173.3420  141.1690 C   0  0  0  0  0  1  0  0  0  0  0  0
  194.9500  176.2960  144.1950 C   0  0  0  0  0  3  0  0  0  0  0  0
  190.2970  174.0950  142.3600 C   0  0  2  0  0  3  0  0  0  0  0  0
  193.8190  172.6550  145.9460 O   0  0  0  0  0  0  0  0  0  0  0  0
  190.9120  176.5300  147.9970 O   0  0  0  0  0  0  0  0  0  0  0  0
  189.9930  175.9640  146.9510 S   0  0  0  0  0  0  0  0  0  0  0  0
  188.5030  177.3650  145.1750 C   0  0  2  0  0  3  0  0  0  0  0  0
  190.8780  175.7680  145.4010 C   0  0  2  0  0  3  0  0  0  0  0  0
  193.9510  169.7920  143.5450 C   0  0  0  0  0  1  0  0  0  0  0  0
  191.1190  173.5130  144.5470 C   0  0  1  0  0  3  0  0  0  0  0  0
  188.6130  176.0620  144.3910 C   0  0  0  0  0  2  0  0  0  0  0  0
  188.6400  177.0840  146.6640 C   0  0  0  0  0  2  0  0  0  0  0  0
  193.7060  171.2200  143.9810 C   0  0  1  0  0  3  0  0  0  0  0  0
  193.2340  174.8590  145.1470 C   0  0  0  0  0  0  0  0  0  0  0  0
  191.3420  173.0090  142.2700 C   0  0  2  0  0  3  0  0  0  0  0  0
  187.1580  178.0050  144.9100 C   0  0  0  0  0  1  0  0  0  0  0  0
  192.2170  171.5340  143.8770 C   0  0  0  0  0  2  0  0  0  0  0  0
  193.6150  176.0650  144.5340 C   0  0  0  0  0  3  0  0  0  0  0  0
  195.5450  174.1090  145.0400 C   0  0  0  0  0  3  0  0  0  0  0  0
  195.9150  175.3190  144.4490 C   0  0  0  0  0  3  0  0  0  0  0  0
  194.2370  171.4070  145.4030 C   0  0  0  0  0  2  0  0  0  0  0  0
  189.9950  174.2330  143.8300 C   0  0  1  0  0  3  0  0  0  0  0  0
  192.0310  172.9440  143.5520 N   0  0  2  0  0  0  0  0  0  0  0  0
  190.0110  175.6440  144.2090 N   0  0  2  0  0  0  0  0  0  0  0  0
  189.1460  173.7050  141.6760 O   0  0  0  0  0  1  0  0  0  0  0  0
  191.7810  174.5500  145.4590 C   0  0  1  0  0  3  0  0  0  0  0  0
  1  6  1  0  0  0  0
  3 17  1  0  0  0  0
  4 22  2  0  0  0  0
  4 20  1  0  0  0  0
  5 27  1  6  0  0  0
  5 24  1  0  0  0  0
  8  2  2  0  0  0  0
  8  7  2  0  0  0  0
  9 18  1  1  0  0  0
  9 14  1  0  0  0  0
 10 28  1  0  0  0  0
 10  8  1  1  0  0  0
 11 15  1  0  0  0  0
 12 28  1  0  0  0  0
 13  9  1  0  0  0  0
 14  8  1  0  0  0  0
 15 23  1  0  0  0  0
 16  1  1  0  0  0  0
 16 28  1  0  0  0  0
 17  5  1  0  0  0  0
 17 25  1  0  0  0  0
 19 15  1  0  0  0  0
 20 16  2  0  0  0  0
 21  1  2  0  0  0  0
 22 21  1  0  0  0  0
 23  6  1  0  0  0  0
 24 26  1  0  0  0  0
 24 12  1  0  0  0  0
 25 19  1  0  0  0  0
 25 12  1  0  0  0  0
 26 13  1  0  0  0  0
 26 10  1  0  0  0  0
M  END
>  <MODEL>
7

>  <REMARK>
 VINA RESULT:      -7.1      2.309      4.876
  Name = 
  0 active torsions:
  status: ('A' for Active; 'I' for Inactive)
                            x       y       z     vdW  Elec       q    Type
                         _______ _______ _______ _____ _____    ______ ____

>  <TORSDO>
F 0

$$$$
=
 OpenBabel11112417423D

 28 32  0  0  1  0  0  0  0  0999 V2000
  193.5920  173.7630  141.7020 C   0  0  0  0  0  0  0  0  0  0  0  0
  190.3610  177.7780  142.5410 O   0  0  0  0  0  0  0  0  0  0  0  0
  195.6160  174.5260  145.8210 C   0  0  0  0  0  1  0  0  0  0  0  0
  192.5730  171.6130  143.1770 C   0  0  0  0  0  3  0  0  0  0  0  0
  193.7270  176.1050  146.0650 C   0  0  2  0  0  3  0  0  0  0  0  0
  194.1290  174.8480  141.0060 O   0  0  0  0  0  0  0  0  0  0  0  0
  189.0540  175.7560  142.0500 O   0  0  0  0  0  0  0  0  0  0  0  0
  189.7450  176.5400  143.1300 S   0  0  0  0  0  0  0  0  0  0  0  0
  189.0910  176.6000  145.7580 C   0  0  2  0  0  3  0  0  0  0  0  0
  191.0070  175.5270  143.9090 C   0  0  2  0  0  3  0  0  0  0  0  0
  197.6810  175.6120  141.8940 C   0  0  0  0  0  1  0  0  0  0  0  0
  193.3020  176.2750  143.7010 C   0  0  1  0  0  3  0  0  0  0  0  0
  190.5610  176.9840  145.8870 C   0  0  0  0  0  2  0  0  0  0  0  0
  188.5720  177.0030  144.3860 C   0  0  0  0  0  2  0  0  0  0  0  0
  196.2510  175.1880  142.1530 C   0  0  1  0  0  3  0  0  0  0  0  0
  192.6300  173.9970  142.6990 C   0  0  0  0  0  0  0  0  0  0  0  0
  194.9710  175.7830  145.2710 C   0  0  2  0  0  3  0  0  0  0  0  0
  188.2850  177.3090  146.8240 C   0  0  0  0  0  1  0  0  0  0  0  0
  195.5680  176.2240  143.0410 C   0  0  0  0  0  2  0  0  0  0  0  0
  192.1350  172.9120  143.4420 C   0  0  0  0  0  3  0  0  0  0  0  0
  194.0370  172.4580  141.4470 C   0  0  0  0  0  3  0  0  0  0  0  0
  193.5230  171.3860  142.1790 C   0  0  0  0  0  3  0  0  0  0  0  0
  195.5300  175.0110  140.8160 C   0  0  0  0  0  2  0  0  0  0  0  0
  192.7450  176.6490  145.0600 C   0  0  1  0  0  3  0  0  0  0  0  0
  194.5740  175.5710  143.8850 N   0  0  2  0  0  0  0  0  0  0  0  0
  191.4460  176.0060  145.2370 N   0  0  2  0  0  0  0  0  0  0  0  0
  194.0130  177.0800  147.0210 O   0  0  0  0  0  1  0  0  0  0  0  0
  192.2290  175.4260  143.0140 C   0  0  1  0  0  3  0  0  0  0  0  0
  1 16  1  0  0  0  0
  2  8  2  0  0  0  0
  4 20  1  0  0  0  0
  5 27  1  1  0  0  0
  6  1  1  0  0  0  0
  7  8  2  0  0  0  0
  8 14  1  0  0  0  0
  9 13  1  0  0  0  0
  9 18  1  1  0  0  0
 10  8  1  6  0  0  0
 10 26  1  0  0  0  0
 11 15  1  0  0  0  0
 12 25  1  0  0  0  0
 12 24  1  0  0  0  0
 14  9  1  0  0  0  0
 15 19  1  0  0  0  0
 16 28  1  0  0  0  0
 16 20  2  0  0  0  0
 17  3  1  0  0  0  0
 17  5  1  0  0  0  0
 19 25  1  0  0  0  0
 21  1  2  0  0  0  0
 21 22  1  0  0  0  0
 22  4  2  0  0  0  0
 23  6  1  0  0  0  0
 23 15  1  0  0  0  0
 24 26  1  0  0  0  0
 24  5  1  0  0  0  0
 25 17  1  0  0  0  0
 26 13  1  0  0  0  0
 28 12  1  0  0  0  0
 28 10  1  0  0  0  0
M  END
>  <MODEL>
8

>  <REMARK>
 VINA RESULT:      -6.8      2.127      3.343
  Name = 
  0 active torsions:
  status: ('A' for Active; 'I' for Inactive)
                            x       y       z     vdW  Elec       q    Type
                         _______ _______ _______ _____ _____    ______ ____

>  <TORSDO>
F 0

$$$$
=
 OpenBabel11112417423D

 28 32  0  0  1  0  0  0  0  0999 V2000
  195.0980  175.8550  143.9480 C   0  0  0  0  0  0  0  0  0  0  0  0
  190.2730  176.4960  145.8380 O   0  0  0  0  0  0  0  0  0  0  0  0
  193.8940  171.6820  142.2790 C   0  0  0  0  0  1  0  0  0  0  0  0
  194.9520  176.4230  141.2110 C   0  0  0  0  0  3  0  0  0  0  0  0
  191.6430  172.4440  142.9640 C   0  0  2  0  0  3  0  0  0  0  0  0
  195.1620  175.5220  145.3030 O   0  0  0  0  0  0  0  0  0  0  0  0
  190.8520  178.3960  144.3910 O   0  0  0  0  0  0  0  0  0  0  0  0
  190.3000  176.9980  144.4210 S   0  0  0  0  0  0  0  0  0  0  0  0
  188.5300  175.9180  142.6800 C   0  0  2  0  0  3  0  0  0  0  0  0
  191.3090  175.9210  143.3990 C   0  0  2  0  0  3  0  0  0  0  0  0
  196.5570  172.1160  145.9660 C   0  0  0  0  0  1  0  0  0  0  0  0
  192.4540  174.0990  144.5130 C   0  0  1  0  0  3  0  0  0  0  0  0
  189.1860  174.6270  143.1560 C   0  0  0  0  0  2  0  0  0  0  0  0
  188.6490  176.9850  143.7580 C   0  0  0  0  0  2  0  0  0  0  0  0
  195.7540  173.1610  145.2200 C   0  0  1  0  0  3  0  0  0  0  0  0
  193.8450  175.9090  143.3160 C   0  0  0  0  0  0  0  0  0  0  0  0
  193.0260  172.0890  143.4540 C   0  0  2  0  0  3  0  0  0  0  0  0
  187.0670  175.6660  142.3880 C   0  0  0  0  0  1  0  0  0  0  0  0
  194.2700  172.8190  145.3090 C   0  0  0  0  0  2  0  0  0  0  0  0
  193.7840  176.1830  141.9390 C   0  0  0  0  0  3  0  0  0  0  0  0
  196.2690  176.0860  143.2120 C   0  0  0  0  0  3  0  0  0  0  0  0
  196.1940  176.3760  141.8480 C   0  0  0  0  0  3  0  0  0  0  0  0
  196.0640  174.5410  145.8040 C   0  0  0  0  0  2  0  0  0  0  0  0
  191.1990  173.5950  143.8300 C   0  0  1  0  0  3  0  0  0  0  0  0
  193.5870  173.2670  144.1010 N   0  0  2  0  0  0  0  0  0  0  0  0
  190.6480  174.6610  142.9960 N   0  0  2  0  0  0  0  0  0  0  0  0
  190.7830  171.3610  143.1420 O   0  0  0  0  0  1  0  0  0  0  0  0
  192.6010  175.5710  144.1140 C   0  0  1  0  0  3  0  0  0  0  0  0
  1  6  1  0  0  0  0
  3 17  1  0  0  0  0
  4 22  2  0  0  0  0
  4 20  1  0  0  0  0
  5 27  1  1  0  0  0
  5 17  1  0  0  0  0
  5 24  1  0  0  0  0
  6 23  1  0  0  0  0
  7  8  2  0  0  0  0
  8  2  2  0  0  0  0
  9 18  1  1  0  0  0
  9 13  1  0  0  0  0
  9 14  1  0  0  0  0
 10 28  1  0  0  0  0
 10  8  1  1  0  0  0
 14  8  1  0  0  0  0
 15 19  1  0  0  0  0
 15 23  1  0  0  0  0
 15 11  1  0  0  0  0
 16  1  1  0  0  0  0
 16 28  1  0  0  0  0
 17 25  1  0  0  0  0
 20 16  2  0  0  0  0
 21  1  2  0  0  0  0
 22 21  1  0  0  0  0
 24 12  1  0  0  0  0
 25 12  1  0  0  0  0
 25 19  1  0  0  0  0
 26 13  1  0  0  0  0
 26 10  1  0  0  0  0
 26 24  1  0  0  0  0
 28 12  1  0  0  0  0
M  END
>  <MODEL>
9

>  <REMARK>
 VINA RESULT:      -6.7      2.563      4.766
  Name = 
  0 active torsions:
  status: ('A' for Active; 'I' for Inactive)
                            x       y       z     vdW  Elec       q    Type
                         _______ _______ _______ _____ _____    ______ ____

>  <TORSDO>
F 0

$$$$
