=
 OpenBabel11112417193D

 37 44  0  0  1  0  0  0  0  0999 V2000
  190.6690  172.4950  142.6130 C   0  0  0  0  0  2  0  0  0  0  0  0
  195.0860  173.2450  144.2110 C   0  0  0  0  0  0  0  0  0  0  0  0
  192.0430  175.8160  145.4040 C   0  0  0  0  0  0  0  0  0  0  0  0
  190.3510  171.8070  141.3210 C   0  0  0  0  0  0  0  0  0  0  0  0
  188.7940  176.0680  143.3520 C   0  0  0  0  0  2  0  0  0  0  0  0
  194.3420  175.1850  145.6700 C   0  0  0  0  0  0  0  0  0  0  0  0
  191.0340  175.5270  144.4850 C   0  0  0  0  0  0  0  0  0  0  0  0
  188.2160  172.9520  141.1170 C   0  0  0  0  0  0  0  0  0  0  0  0
  193.1440  175.1350  144.9920 C   0  0  0  0  0  0  0  0  0  0  0  0
  189.6830  176.0770  144.5220 N   0  0  0  0  0  0  0  0  0  0  0  0
  194.4210  175.9690  146.7840 N   0  0  0  0  0  0  0  0  0  0  0  0
  189.2280  172.0220  140.7050 N   0  0  0  0  0  0  0  0  0  0  0  0
  192.9160  174.4060  143.9010 N   0  0  0  0  0  0  0  0  0  0  0  0
  194.6250  172.0890  145.0790 C   0  0  0  0  0  1  0  0  0  0  0  0
  190.8930  177.3060  147.1180 C   0  0  0  0  0  2  0  0  0  0  0  0
  193.3310  176.6710  147.2400 C   0  0  0  0  0  3  0  0  0  0  0  0
  193.9540  173.6260  143.2260 C   0  0  0  0  0  2  0  0  0  0  0  0
  188.4800  174.4190  141.3320 C   0  0  1  0  0  3  0  0  0  0  0  0
  188.7750  174.6820  142.7890 C   0  0  1  0  0  3  0  0  0  0  0  0
  192.0990  176.6210  146.5510 C   0  0  0  0  0  0  0  0  0  0  0  0
  191.6290  174.6280  143.5450 C   0  0  0  0  0  0  0  0  0  0  0  0
  195.5190  174.4300  145.1140 C   0  0  0  0  0  2  0  0  0  0  0  0
  189.2300  176.6970  145.7800 C   0  0  1  0  0  3  0  0  0  0  0  0
  196.2860  172.7880  143.4100 C   0  0  0  0  0  1  0  0  0  0  0  0
  189.8900  174.8090  141.7680 C   0  0  1  0  0  3  0  0  0  0  0  0
  187.0240  172.5520  141.1840 O   0  0  0  0  0  0  0  0  0  0  0  0
  191.0090  173.9530  142.3410 C   0  0  2  0  0  3  0  0  0  0  0  0
  190.0550  177.7820  146.1040 O   0  0  0  0  0  0  0  0  0  0  0  0
  186.8700  176.3640  146.5510 C   0  0  0  0  0  3  0  0  0  0  0  0
  187.7820  177.0990  145.7840 C   0  0  0  0  0  0  0  0  0  0  0  0
  187.3260  178.1690  145.0010 C   0  0  0  0  0  3  0  0  0  0  0  0
  185.4060  179.8460  144.0220 Cl  0  0  0  0  0  0  0  0  0  0  0  0
  185.0650  177.7760  145.7710 C   0  0  0  0  0  3  0  0  0  0  0  0
  185.9700  178.5080  144.9980 C   0  0  0  0  0  0  0  0  0  0  0  0
  185.5140  176.7040  146.5470 C   0  0  0  0  0  3  0  0  0  0  0  0
  190.7320  169.5090  140.7730 O   0  0  0  0  0  1  0  0  0  0  0  0
  191.2890  170.7890  140.7520 C   0  0  0  0  0  2  0  0  0  0  0  0
  2 14  1  0  0  0  0
  2 22  1  0  0  0  0
  3 20  1  0  0  0  0
  4  1  1  0  0  0  0
  5 10  1  0  0  0  0
  6 11  2  0  0  0  0
  7 10  1  0  0  0  0
  7  3  1  0  0  0  0
  8 26  2  0  0  0  0
  9  3  2  0  0  0  0
  9  6  1  0  0  0  0
 10 23  1  0  0  0  0
 11 16  1  0  0  0  0
 12  8  1  0  0  0  0
 12  4  2  0  0  0  0
 13  9  1  0  0  0  0
 17 13  1  0  0  0  0
 17  2  1  0  0  0  0
 18  8  1  1  0  0  0
 18 25  1  0  0  0  0
 18 19  1  0  0  0  0
 19  5  1  6  0  0  0
 20 15  1  0  0  0  0
 20 16  2  0  0  0  0
 21 13  1  0  0  0  0
 21  7  2  0  0  0  0
 22  6  1  0  0  0  0
 23 30  1  6  0  0  0
 23 28  1  0  0  0  0
 24  2  1  0  0  0  0
 25 27  1  0  0  0  0
 25 19  1  0  0  0  0
 27  1  1  0  0  0  0
 27 21  1  0  0  0  0
 28 15  1  0  0  0  0
 30 29  2  0  0  0  0
 31 30  1  0  0  0  0
 32 34  1  0  0  0  0
 33 35  2  0  0  0  0
 34 31  2  0  0  0  0
 34 33  1  0  0  0  0
 35 29  1  0  0  0  0
 37 36  1  0  0  0  0
 37  4  1  0  0  0  0
M  END
>  <MODEL>
1

>  <REMARK>
 VINA RESULT:      -8.5      0.000      0.000
  Name = 
  2 active torsions:
  status: ('A' for Active; 'I' for Inactive)
    1  A    between atoms: CA_4  and  C_37
    2  A    between atoms: C_23  and  C_30
                            x       y       z     vdW  Elec       q    Type
                         _______ _______ _______ _____ _____    ______ ____

>  <TORSDO>
F 2

$$$$
=
 OpenBabel11112417193D

 37 44  0  0  1  0  0  0  0  0999 V2000
  189.8150  174.0160  140.6450 C   0  0  0  0  0  2  0  0  0  0  0  0
  187.0310  177.0300  143.0520 C   0  0  0  0  0  0  0  0  0  0  0  0
  190.3620  175.4110  144.9420 C   0  0  0  0  0  0  0  0  0  0  0  0
  189.3410  173.1610  139.5100 C   0  0  0  0  0  0  0  0  0  0  0  0
  191.9740  172.1780  143.6090 C   0  0  0  0  0  2  0  0  0  0  0  0
  188.5510  176.9780  145.0840 C   0  0  0  0  0  0  0  0  0  0  0  0
  190.6890  174.3460  144.1030 C   0  0  0  0  0  0  0  0  0  0  0  0
  191.0750  171.5030  139.8980 C   0  0  0  0  0  0  0  0  0  0  0  0
  189.1810  175.9070  144.4900 C   0  0  0  0  0  0  0  0  0  0  0  0
  191.8690  173.4980  144.2460 N   0  0  0  0  0  0  0  0  0  0  0  0
  189.1340  177.5410  146.1820 N   0  0  0  0  0  0  0  0  0  0  0  0
  189.9550  172.0610  139.1970 N   0  0  0  0  0  0  0  0  0  0  0  0
  188.7380  175.2670  143.4090 N   0  0  0  0  0  0  0  0  0  0  0  0
  187.8300  177.9710  142.1670 C   0  0  0  0  0  1  0  0  0  0  0  0
  192.3370  175.5530  146.5430 C   0  0  0  0  0  2  0  0  0  0  0  0
  190.3310  177.0760  146.6710 C   0  0  0  0  0  3  0  0  0  0  0  0
  187.4610  175.5710  142.7630 C   0  0  0  0  0  2  0  0  0  0  0  0
  191.0480  171.1710  141.3670 C   0  0  1  0  0  3  0  0  0  0  0  0
  191.6100  172.3230  142.1660 C   0  0  1  0  0  3  0  0  0  0  0  0
  190.9830  175.9800  146.0640 C   0  0  0  0  0  0  0  0  0  0  0  0
  189.6320  174.2860  143.1430 C   0  0  0  0  0  0  0  0  0  0  0  0
  187.2240  177.4290  144.5380 C   0  0  0  0  0  2  0  0  0  0  0  0
  192.9660  173.9890  145.0980 C   0  0  1  0  0  3  0  0  0  0  0  0
  185.5660  177.1780  142.7000 C   0  0  0  0  0  1  0  0  0  0  0  0
  190.1270  172.0130  142.2470 C   0  0  1  0  0  3  0  0  0  0  0  0
  192.0880  171.1570  139.2350 O   0  0  0  0  0  0  0  0  0  0  0  0
  189.4590  173.3490  141.9660 C   0  0  2  0  0  3  0  0  0  0  0  0
  192.5100  174.1710  146.4100 O   0  0  0  0  0  0  0  0  0  0  0  0
  195.2990  173.5410  144.3020 C   0  0  0  0  0  3  0  0  0  0  0  0
  194.2020  173.1330  145.0690 C   0  0  0  0  0  0  0  0  0  0  0  0
  194.2540  171.9150  145.7630 C   0  0  0  0  0  3  0  0  0  0  0  0
  195.4640  169.6040  146.5690 Cl  0  0  0  0  0  0  0  0  0  0  0  0
  196.4980  171.5360  144.9380 C   0  0  0  0  0  3  0  0  0  0  0  0
  195.4020  171.1210  145.6990 C   0  0  0  0  0  0  0  0  0  0  0  0
  196.4460  172.7450  144.2390 C   0  0  0  0  0  3  0  0  0  0  0  0
  187.8160  174.9160  138.9420 O   0  0  0  0  0  1  0  0  0  0  0  0
  188.1910  173.6010  138.6580 C   0  0  0  0  0  2  0  0  0  0  0  0
  1 27  1  0  0  0  0
  2 22  1  0  0  0  0
  3 20  1  0  0  0  0
  4  1  1  0  0  0  0
  5 10  1  0  0  0  0
  6 11  2  0  0  0  0
  7 10  1  0  0  0  0
  7  3  1  0  0  0  0
  9  3  2  0  0  0  0
  9  6  1  0  0  0  0
 10 23  1  0  0  0  0
 11 16  1  0  0  0  0
 12  4  2  0  0  0  0
 12  8  1  0  0  0  0
 13  9  1  0  0  0  0
 14  2  1  0  0  0  0
 17  2  1  0  0  0  0
 17 13  1  0  0  0  0
 18  8  1  6  0  0  0
 18 19  1  0  0  0  0
 18 25  1  0  0  0  0
 19 25  1  0  0  0  0
 19  5  1  1  0  0  0
 20 15  1  0  0  0  0
 20 16  2  0  0  0  0
 21 13  1  0  0  0  0
 21  7  2  0  0  0  0
 22  6  1  0  0  0  0
 23 30  1  1  0  0  0
 23 28  1  0  0  0  0
 24  2  1  0  0  0  0
 26  8  2  0  0  0  0
 27 25  1  0  0  0  0
 27 21  1  0  0  0  0
 28 15  1  0  0  0  0
 29 30  1  0  0  0  0
 30 31  2  0  0  0  0
 33 34  2  0  0  0  0
 34 31  1  0  0  0  0
 34 32  1  0  0  0  0
 35 29  2  0  0  0  0
 35 33  1  0  0  0  0
 37 36  1  0  0  0  0
 37  4  1  0  0  0  0
M  END
>  <MODEL>
2

>  <REMARK>
 VINA RESULT:      -8.2      3.006      6.771
  Name = 
  2 active torsions:
  status: ('A' for Active; 'I' for Inactive)
    1  A    between atoms: CA_4  and  C_37
    2  A    between atoms: C_23  and  C_30
                            x       y       z     vdW  Elec       q    Type
                         _______ _______ _______ _____ _____    ______ ____

>  <TORSDO>
F 2

$$$$
=
 OpenBabel11112417193D

 37 44  0  0  1  0  0  0  0  0999 V2000
  187.9500  176.1480  140.5800 C   0  0  0  0  0  2  0  0  0  0  0  0
  185.2630  178.3710  143.8160 C   0  0  0  0  0  0  0  0  0  0  0  0
  188.5900  176.2220  145.0850 C   0  0  0  0  0  0  0  0  0  0  0  0
  187.4410  175.6680  139.2550 C   0  0  0  0  0  0  0  0  0  0  0  0
  190.1160  173.4940  142.8360 C   0  0  0  0  0  2  0  0  0  0  0  0
  186.8120  177.7060  145.7140 C   0  0  0  0  0  0  0  0  0  0  0  0
  188.8830  175.4430  143.9660 C   0  0  0  0  0  0  0  0  0  0  0  0
  189.1480  173.9440  139.1090 C   0  0  0  0  0  0  0  0  0  0  0  0
  187.4120  176.8450  144.8200 C   0  0  0  0  0  0  0  0  0  0  0  0
  190.0480  174.5740  143.8320 N   0  0  0  0  0  0  0  0  0  0  0  0
  187.4230  177.9160  146.9160 N   0  0  0  0  0  0  0  0  0  0  0  0
  188.0290  174.6980  138.6230 N   0  0  0  0  0  0  0  0  0  0  0  0
  186.9400  176.5550  143.6090 N   0  0  0  0  0  0  0  0  0  0  0  0
  186.0670  179.5160  143.2280 C   0  0  0  0  0  1  0  0  0  0  0  0
  190.5910  175.8620  146.6170 C   0  0  0  0  0  2  0  0  0  0  0  0
  188.6180  177.3110  147.2240 C   0  0  0  0  0  3  0  0  0  0  0  0
  185.6590  177.0530  143.1060 C   0  0  0  0  0  2  0  0  0  0  0  0
  189.1370  173.1980  140.4170 C   0  0  1  0  0  3  0  0  0  0  0  0
  189.7330  174.0590  141.5050 C   0  0  1  0  0  3  0  0  0  0  0  0
  189.2390  176.4300  146.3110 C   0  0  0  0  0  0  0  0  0  0  0  0
  187.8100  175.6810  143.0510 C   0  0  0  0  0  0  0  0  0  0  0  0
  185.4860  178.3160  145.3500 C   0  0  0  0  0  2  0  0  0  0  0  0
  191.1670  174.7780  144.7670 C   0  0  1  0  0  3  0  0  0  0  0  0
  183.7970  178.6350  143.5520 C   0  0  0  0  0  1  0  0  0  0  0  0
  188.2460  173.7600  141.5230 C   0  0  1  0  0  3  0  0  0  0  0  0
  190.1430  173.7910  138.3530 O   0  0  0  0  0  0  0  0  0  0  0  0
  187.6000  175.1310  141.6570 C   0  0  2  0  0  3  0  0  0  0  0  0
  190.7340  174.5760  146.0840 O   0  0  0  0  0  0  0  0  0  0  0  0
  192.4920  172.6660  145.0130 C   0  0  0  0  0  3  0  0  0  0  0  0
  192.3840  173.9500  144.4650 C   0  0  0  0  0  0  0  0  0  0  0  0
  193.4290  174.4590  143.6800 C   0  0  0  0  0  3  0  0  0  0  0  0
  195.8630  174.3190  142.4510 Cl  0  0  0  0  0  0  0  0  0  0  0  0
  194.6640  172.3980  143.9780 C   0  0  0  0  0  3  0  0  0  0  0  0
  194.5640  173.6810  143.4340 C   0  0  0  0  0  0  0  0  0  0  0  0
  193.6280  171.8910  144.7670 C   0  0  0  0  0  3  0  0  0  0  0  0
  186.2200  176.0410  137.2320 O   0  0  0  0  0  1  0  0  0  0  0  0
  186.2880  176.3540  138.5910 C   0  0  0  0  0  2  0  0  0  0  0  0
  1 27  1  0  0  0  0
  2 22  1  0  0  0  0
  3 20  1  0  0  0  0
  4  1  1  0  0  0  0
  5 10  1  0  0  0  0
  6 11  2  0  0  0  0
  7  3  1  0  0  0  0
  9  3  2  0  0  0  0
  9  6  1  0  0  0  0
 10  7  1  0  0  0  0
 10 23  1  0  0  0  0
 11 16  1  0  0  0  0
 12  8  1  0  0  0  0
 12  4  2  0  0  0  0
 13  9  1  0  0  0  0
 14  2  1  0  0  0  0
 17 13  1  0  0  0  0
 17  2  1  0  0  0  0
 18  8  1  6  0  0  0
 18 19  1  0  0  0  0
 18 25  1  0  0  0  0
 19 25  1  0  0  0  0
 19  5  1  1  0  0  0
 20 15  1  0  0  0  0
 20 16  2  0  0  0  0
 21 13  1  0  0  0  0
 21  7  2  0  0  0  0
 22  6  1  0  0  0  0
 23 30  1  6  0  0  0
 23 28  1  0  0  0  0
 24  2  1  0  0  0  0
 25 27  1  0  0  0  0
 26  8  2  0  0  0  0
 27 21  1  0  0  0  0
 28 15  1  0  0  0  0
 30 29  2  0  0  0  0
 31 30  1  0  0  0  0
 32 34  1  0  0  0  0
 33 35  2  0  0  0  0
 34 31  2  0  0  0  0
 34 33  1  0  0  0  0
 35 29  1  0  0  0  0
 36 37  1  0  0  0  0
 37  4  1  0  0  0  0
M  END
>  <MODEL>
3

>  <REMARK>
 VINA RESULT:      -8.1      2.933      6.920
  Name = 
  2 active torsions:
  status: ('A' for Active; 'I' for Inactive)
    1  A    between atoms: CA_4  and  C_37
    2  A    between atoms: C_23  and  C_30
                            x       y       z     vdW  Elec       q    Type
                         _______ _______ _______ _____ _____    ______ ____

>  <TORSDO>
F 2

$$$$
=
 OpenBabel11112417193D

 37 44  0  0  1  0  0  0  0  0999 V2000
  194.2690  175.5180  143.5680 C   0  0  0  0  0  2  0  0  0  0  0  0
  194.0210  173.0170  139.5290 C   0  0  0  0  0  0  0  0  0  0  0  0
  190.4960  174.1680  141.4110 C   0  0  0  0  0  0  0  0  0  0  0  0
  195.4230  175.4580  144.5210 C   0  0  0  0  0  0  0  0  0  0  0  0
  190.5040  175.1120  145.1440 C   0  0  0  0  0  2  0  0  0  0  0  0
  191.4870  173.1530  139.4760 C   0  0  0  0  0  0  0  0  0  0  0  0
  190.9430  174.5250  142.6830 C   0  0  0  0  0  0  0  0  0  0  0  0
  194.0320  176.1080  146.4060 C   0  0  0  0  0  0  0  0  0  0  0  0
  191.5610  173.6220  140.7690 C   0  0  0  0  0  0  0  0  0  0  0  0
  190.1130  175.1190  143.7270 N   0  0  0  0  0  0  0  0  0  0  0  0
  190.2850  173.2260  138.8320 N   0  0  0  0  0  0  0  0  0  0  0  0
  195.2720  175.7600  145.7750 N   0  0  0  0  0  0  0  0  0  0  0  0
  192.6650  173.6280  141.5140 N   0  0  0  0  0  0  0  0  0  0  0  0
  194.3560  174.4080  139.0220 C   0  0  0  0  0  1  0  0  0  0  0  0
  188.0730  174.9520  141.3770 C   0  0  0  0  0  2  0  0  0  0  0  0
  189.1820  173.7750  139.4400 C   0  0  0  0  0  3  0  0  0  0  0  0
  193.9340  173.0450  141.0750 C   0  0  0  0  0  2  0  0  0  0  0  0
  192.8160  175.2200  146.3850 C   0  0  1  0  0  3  0  0  0  0  0  0
  191.9080  175.6180  145.2460 C   0  0  1  0  0  3  0  0  0  0  0  0
  189.2540  174.2600  140.7650 C   0  0  0  0  0  0  0  0  0  0  0  0
  192.3260  174.1640  142.7100 C   0  0  0  0  0  0  0  0  0  0  0  0
  192.7090  172.5260  138.8630 C   0  0  0  0  0  2  0  0  0  0  0  0
  188.8220  175.7030  143.3260 C   0  0  1  0  0  3  0  0  0  0  0  0
  195.1420  172.0830  139.1280 C   0  0  0  0  0  1  0  0  0  0  0  0
  192.6560  174.3000  145.1770 C   0  0  1  0  0  3  0  0  0  0  0  0
  193.9910  177.1460  147.1180 O   0  0  0  0  0  0  0  0  0  0  0  0
  193.3400  174.3390  143.8200 C   0  0  2  0  0  3  0  0  0  0  0  0
  188.0070  174.7190  142.7550 O   0  0  0  0  0  0  0  0  0  0  0  0
  188.1510  175.9140  145.7310 C   0  0  0  0  0  3  0  0  0  0  0  0
  188.1030  176.4280  144.4300 C   0  0  0  0  0  0  0  0  0  0  0  0
  187.3520  177.5830  144.1680 C   0  0  0  0  0  3  0  0  0  0  0  0
  185.7360  179.6680  144.8730 Cl  0  0  0  0  0  0  0  0  0  0  0  0
  186.7250  177.7120  146.5030 C   0  0  0  0  0  3  0  0  0  0  0  0
  186.6680  178.2250  145.2040 C   0  0  0  0  0  0  0  0  0  0  0  0
  187.4660  176.5560  146.7660 C   0  0  0  0  0  3  0  0  0  0  0  0
  197.3410  176.1770  143.2860 O   0  0  0  0  0  1  0  0  0  0  0  0
  196.7970  175.1280  144.0290 C   0  0  0  0  0  2  0  0  0  0  0  0
  1 27  1  0  0  0  0
  1  4  1  0  0  0  0
  2 17  1  0  0  0  0
  3  7  1  0  0  0  0
  4 12  2  0  0  0  0
  6  9  2  0  0  0  0
  7 21  2  0  0  0  0
  7 10  1  0  0  0  0
  8 26  2  0  0  0  0
  9  3  1  0  0  0  0
  9 13  1  0  0  0  0
 10  5  1  0  0  0  0
 11 16  2  0  0  0  0
 11  6  1  0  0  0  0
 12  8  1  0  0  0  0
 13 21  1  0  0  0  0
 14  2  1  0  0  0  0
 15 28  1  0  0  0  0
 16 20  1  0  0  0  0
 17 13  1  0  0  0  0
 18  8  1  6  0  0  0
 19  5  1  1  0  0  0
 19 18  1  0  0  0  0
 20 15  1  0  0  0  0
 20  3  2  0  0  0  0
 21 27  1  0  0  0  0
 22  6  1  0  0  0  0
 22  2  1  0  0  0  0
 23 10  1  0  0  0  0
 23 30  1  1  0  0  0
 24  2  1  0  0  0  0
 25 19  1  0  0  0  0
 25 18  1  0  0  0  0
 27 25  1  0  0  0  0
 28 23  1  0  0  0  0
 29 35  1  0  0  0  0
 30 29  2  0  0  0  0
 31 30  1  0  0  0  0
 31 34  2  0  0  0  0
 32 34  1  0  0  0  0
 33 35  2  0  0  0  0
 34 33  1  0  0  0  0
 36 37  1  0  0  0  0
 37  4  1  0  0  0  0
M  END
>  <MODEL>
4

>  <REMARK>
 VINA RESULT:      -8.1      2.385      5.548
  Name = 
  2 active torsions:
  status: ('A' for Active; 'I' for Inactive)
    1  A    between atoms: CA_4  and  C_37
    2  A    between atoms: C_23  and  C_30
                            x       y       z     vdW  Elec       q    Type
                         _______ _______ _______ _____ _____    ______ ____

>  <TORSDO>
F 2

$$$$
=
 OpenBabel11112417193D

 37 44  0  0  1  0  0  0  0  0999 V2000
  192.6380  175.3260  144.5430 C   0  0  0  0  0  2  0  0  0  0  0  0
  192.6590  172.7270  140.5590 C   0  0  0  0  0  0  0  0  0  0  0  0
  189.1830  174.7370  141.6400 C   0  0  0  0  0  0  0  0  0  0  0  0
  193.5260  175.0620  145.7200 C   0  0  0  0  0  0  0  0  0  0  0  0
  188.6390  175.8570  145.2840 C   0  0  0  0  0  2  0  0  0  0  0  0
  190.2910  173.4230  139.9670 C   0  0  0  0  0  0  0  0  0  0  0  0
  189.4280  175.0530  142.9770 C   0  0  0  0  0  0  0  0  0  0  0  0
  191.9640  176.1080  147.2620 C   0  0  0  0  0  0  0  0  0  0  0  0
  190.2030  173.9330  141.2440 C   0  0  0  0  0  0  0  0  0  0  0  0
  188.5610  175.8730  143.8170 N   0  0  0  0  0  0  0  0  0  0  0  0
  189.2970  173.7260  139.0820 N   0  0  0  0  0  0  0  0  0  0  0  0
  193.1940  175.4580  146.9120 N   0  0  0  0  0  0  0  0  0  0  0  0
  191.1010  173.7320  142.2060 N   0  0  0  0  0  0  0  0  0  0  0  0
  193.4020  173.9790  140.1270 C   0  0  0  0  0  1  0  0  0  0  0  0
  187.0660  176.0380  141.0870 C   0  0  0  0  0  2  0  0  0  0  0  0
  188.2490  174.5410  139.4380 C   0  0  0  0  0  3  0  0  0  0  0  0
  192.2650  172.8580  142.0500 C   0  0  0  0  0  2  0  0  0  0  0  0
  190.6080  175.5130  146.9880 C   0  0  1  0  0  3  0  0  0  0  0  0
  190.0700  176.0410  145.6800 C   0  0  1  0  0  3  0  0  0  0  0  0
  188.1560  175.0680  140.7450 C   0  0  0  0  0  0  0  0  0  0  0  0
  190.6550  174.3950  143.2990 C   0  0  0  0  0  0  0  0  0  0  0  0
  191.4350  172.5060  139.6320 C   0  0  0  0  0  2  0  0  0  0  0  0
  187.5490  176.7090  143.1470 C   0  0  1  0  0  3  0  0  0  0  0  0
  193.5940  171.5460  140.4110 C   0  0  0  0  0  1  0  0  0  0  0  0
  190.4930  174.5880  145.7790 C   0  0  1  0  0  3  0  0  0  0  0  0
  192.0170  177.1660  147.9430 O   0  0  0  0  0  0  0  0  0  0  0  0
  191.4320  174.3990  144.5980 C   0  0  2  0  0  3  0  0  0  0  0  0
  186.6650  175.9010  142.4200 O   0  0  0  0  0  0  0  0  0  0  0  0
  186.2390  178.8060  143.5510 C   0  0  0  0  0  3  0  0  0  0  0  0
  186.8040  177.6340  144.0680 C   0  0  0  0  0  0  0  0  0  0  0  0
  186.7030  177.3620  145.4400 C   0  0  0  0  0  3  0  0  0  0  0  0
  185.9030  177.9050  147.9940 Cl  0  0  0  0  0  0  0  0  0  0  0  0
  185.4620  179.4150  145.7610 C   0  0  0  0  0  3  0  0  0  0  0  0
  186.0300  178.2500  146.2830 C   0  0  0  0  0  0  0  0  0  0  0  0
  185.5670  179.6930  144.3960 C   0  0  0  0  0  3  0  0  0  0  0  0
  195.8000  175.2990  145.0170 O   0  0  0  0  0  1  0  0  0  0  0  0
  194.8590  174.4070  145.5340 C   0  0  0  0  0  2  0  0  0  0  0  0
  1 27  1  0  0  0  0
  1  4  1  0  0  0  0
  2 17  1  0  0  0  0
  3  7  1  0  0  0  0
  4 12  2  0  0  0  0
  6  9  2  0  0  0  0
  7 21  2  0  0  0  0
  7 10  1  0  0  0  0
  8 26  2  0  0  0  0
  9  3  1  0  0  0  0
  9 13  1  0  0  0  0
 10  5  1  0  0  0  0
 11 16  2  0  0  0  0
 11  6  1  0  0  0  0
 12  8  1  0  0  0  0
 13 21  1  0  0  0  0
 14  2  1  0  0  0  0
 15 28  1  0  0  0  0
 16 20  1  0  0  0  0
 17 13  1  0  0  0  0
 18  8  1  6  0  0  0
 19  5  1  1  0  0  0
 19 25  1  0  0  0  0
 19 18  1  0  0  0  0
 20 15  1  0  0  0  0
 20  3  2  0  0  0  0
 21 27  1  0  0  0  0
 22  6  1  0  0  0  0
 22  2  1  0  0  0  0
 23 10  1  0  0  0  0
 23 30  1  1  0  0  0
 24  2  1  0  0  0  0
 25 18  1  0  0  0  0
 27 25  1  0  0  0  0
 28 23  1  0  0  0  0
 29 30  2  0  0  0  0
 29 35  1  0  0  0  0
 30 31  1  0  0  0  0
 31 34  2  0  0  0  0
 33 34  1  0  0  0  0
 34 32  1  0  0  0  0
 35 33  2  0  0  0  0
 36 37  1  0  0  0  0
 37  4  1  0  0  0  0
M  END
>  <MODEL>
5

>  <REMARK>
 VINA RESULT:      -8.1      2.222      5.443
  Name = 
  2 active torsions:
  status: ('A' for Active; 'I' for Inactive)
    1  A    between atoms: CA_4  and  C_37
    2  A    between atoms: C_23  and  C_30
                            x       y       z     vdW  Elec       q    Type
                         _______ _______ _______ _____ _____    ______ ____

>  <TORSDO>
F 2

$$$$
=
 OpenBabel11112417193D

 37 44  0  0  1  0  0  0  0  0999 V2000
  187.4570  175.3410  140.3280 C   0  0  0  0  0  2  0  0  0  0  0  0
  191.4190  172.7770  140.9210 C   0  0  0  0  0  0  0  0  0  0  0  0
  189.7990  174.7740  144.1890 C   0  0  0  0  0  0  0  0  0  0  0  0
  187.0480  175.9630  139.0280 C   0  0  0  0  0  0  0  0  0  0  0  0
  187.3900  177.7320  143.6600 C   0  0  0  0  0  2  0  0  0  0  0  0
  191.4660  173.2300  143.4180 C   0  0  0  0  0  0  0  0  0  0  0  0
  188.9200  175.6710  143.5810 C   0  0  0  0  0  0  0  0  0  0  0  0
  185.7560  177.6930  140.1440 C   0  0  0  0  0  0  0  0  0  0  0  0
  190.4980  174.1840  143.1850 C   0  0  0  0  0  0  0  0  0  0  0  0
  187.9960  176.5500  144.2900 N   0  0  0  0  0  0  0  0  0  0  0  0
  191.7370  172.8900  144.7120 N   0  0  0  0  0  0  0  0  0  0  0  0
  186.2620  176.9960  138.9970 N   0  0  0  0  0  0  0  0  0  0  0  0
  190.1200  174.6050  141.9800 N   0  0  0  0  0  0  0  0  0  0  0  0
  190.3480  171.7030  140.8820 C   0  0  0  0  0  1  0  0  0  0  0  0
  189.2430  174.9640  146.6660 C   0  0  0  0  0  2  0  0  0  0  0  0
  191.0500  173.4570  145.7580 C   0  0  0  0  0  3  0  0  0  0  0  0
  190.7570  174.1640  140.7380 C   0  0  0  0  0  2  0  0  0  0  0  0
  186.6420  178.2910  141.2050 C   0  0  1  0  0  3  0  0  0  0  0  0
  186.8070  177.3160  142.3470 C   0  0  1  0  0  3  0  0  0  0  0  0
  190.0560  174.4330  145.5240 C   0  0  0  0  0  0  0  0  0  0  0  0
  189.1560  175.5340  142.1770 C   0  0  0  0  0  0  0  0  0  0  0  0
  192.2180  172.6630  142.2460 C   0  0  0  0  0  2  0  0  0  0  0  0
  187.7070  176.2440  145.7020 C   0  0  1  0  0  3  0  0  0  0  0  0
  192.3680  172.5420  139.7660 C   0  0  0  0  0  1  0  0  0  0  0  0
  187.9880  177.6110  141.4420 C   0  0  1  0  0  3  0  0  0  0  0  0
  184.5210  177.9280  140.2080 O   0  0  0  0  0  0  0  0  0  0  0  0
  188.4770  176.2340  141.0190 C   0  0  2  0  0  3  0  0  0  0  0  0
  188.8860  176.3010  146.4560 O   0  0  0  0  0  0  0  0  0  0  0  0
  185.2900  176.7920  146.0690 C   0  0  0  0  0  3  0  0  0  0  0  0
  186.6330  177.1010  146.3120 C   0  0  0  0  0  0  0  0  0  0  0  0
  186.9570  178.2270  147.0840 C   0  0  0  0  0  3  0  0  0  0  0  0
  186.3520  180.4270  148.5840 Cl  0  0  0  0  0  0  0  0  0  0  0  0
  184.6030  178.7090  147.3790 C   0  0  0  0  0  3  0  0  0  0  0  0
  185.9430  179.0260  147.6190 C   0  0  0  0  0  0  0  0  0  0  0  0
  184.2770  177.5920  146.6040 C   0  0  0  0  0  3  0  0  0  0  0  0
  188.2050  174.1820  137.9270 O   0  0  0  0  0  1  0  0  0  0  0  0
  187.4720  175.3530  137.7280 C   0  0  0  0  0  2  0  0  0  0  0  0
  1 27  1  0  0  0  0
  2 22  1  0  0  0  0
  3 20  1  0  0  0  0
  4  1  1  0  0  0  0
  5 10  1  0  0  0  0
  6 11  2  0  0  0  0
  7  3  1  0  0  0  0
  7 10  1  0  0  0  0
  8 26  2  0  0  0  0
  9  6  1  0  0  0  0
  9  3  2  0  0  0  0
 10 23  1  0  0  0  0
 11 16  1  0  0  0  0
 12  4  2  0  0  0  0
 12  8  1  0  0  0  0
 13 21  1  0  0  0  0
 13  9  1  0  0  0  0
 14  2  1  0  0  0  0
 17  2  1  0  0  0  0
 17 13  1  0  0  0  0
 18  8  1  6  0  0  0
 18 25  1  0  0  0  0
 18 19  1  0  0  0  0
 19  5  1  1  0  0  0
 20 16  2  0  0  0  0
 20 15  1  0  0  0  0
 21  7  2  0  0  0  0
 22  6  1  0  0  0  0
 23 30  1  1  0  0  0
 23 28  1  0  0  0  0
 24  2  1  0  0  0  0
 25 19  1  0  0  0  0
 27 25  1  0  0  0  0
 27 21  1  0  0  0  0
 28 15  1  0  0  0  0
 29 30  2  0  0  0  0
 29 35  1  0  0  0  0
 30 31  1  0  0  0  0
 31 34  2  0  0  0  0
 33 34  1  0  0  0  0
 34 32  1  0  0  0  0
 35 33  2  0  0  0  0
 37 36  1  0  0  0  0
 37  4  1  0  0  0  0
M  END
>  <MODEL>
6

>  <REMARK>
 VINA RESULT:      -8.0      2.747      4.026
  Name = 
  2 active torsions:
  status: ('A' for Active; 'I' for Inactive)
    1  A    between atoms: CA_4  and  C_37
    2  A    between atoms: C_23  and  C_30
                            x       y       z     vdW  Elec       q    Type
                         _______ _______ _______ _____ _____    ______ ____

>  <TORSDO>
F 2

$$$$
=
 OpenBabel11112417193D

 37 44  0  0  1  0  0  0  0  0999 V2000
  189.6790  175.3830  145.9360 C   0  0  0  0  0  2  0  0  0  0  0  0
  186.5830  178.6060  147.5660 C   0  0  0  0  0  0  0  0  0  0  0  0
  186.5820  177.6740  143.5130 C   0  0  0  0  0  0  0  0  0  0  0  0
  190.9970  175.0860  146.5810 C   0  0  0  0  0  0  0  0  0  0  0  0
  189.6760  176.0560  141.8890 C   0  0  0  0  0  2  0  0  0  0  0  0
  185.4970  178.8710  145.2870 C   0  0  0  0  0  0  0  0  0  0  0  0
  187.8050  177.0210  143.3590 C   0  0  0  0  0  0  0  0  0  0  0  0
  191.9650  174.3140  144.4890 C   0  0  0  0  0  0  0  0  0  0  0  0
  186.5640  178.1620  144.7810 C   0  0  0  0  0  0  0  0  0  0  0  0
  188.2620  176.3760  142.1330 N   0  0  0  0  0  0  0  0  0  0  0  0
  184.4310  179.1050  144.4670 N   0  0  0  0  0  0  0  0  0  0  0  0
  191.9800  174.5810  145.8990 N   0  0  0  0  0  0  0  0  0  0  0  0
  187.6620  177.8480  145.4650 N   0  0  0  0  0  0  0  0  0  0  0  0
  185.9410  177.3000  147.9980 C   0  0  0  0  0  1  0  0  0  0  0  0
  185.4050  177.2910  141.2880 C   0  0  0  0  0  2  0  0  0  0  0  0
  184.4030  178.6260  143.1790 C   0  0  0  0  0  3  0  0  0  0  0  0
  187.9130  178.3020  146.8340 C   0  0  0  0  0  2  0  0  0  0  0  0
  191.6710  175.3660  143.4520 C   0  0  1  0  0  3  0  0  0  0  0  0
  190.2060  175.3320  143.0860 C   0  0  1  0  0  3  0  0  0  0  0  0
  185.4940  177.8960  142.6560 C   0  0  0  0  0  0  0  0  0  0  0  0
  188.4620  177.1550  144.6220 C   0  0  0  0  0  0  0  0  0  0  0  0
  185.5860  179.4080  146.6890 C   0  0  0  0  0  2  0  0  0  0  0  0
  187.2560  176.0810  141.0980 C   0  0  1  0  0  3  0  0  0  0  0  0
  186.8920  179.4160  148.8060 C   0  0  0  0  0  1  0  0  0  0  0  0
  190.7510  176.5100  143.8720 C   0  0  1  0  0  3  0  0  0  0  0  0
  192.3370  173.1800  144.0890 O   0  0  0  0  0  0  0  0  0  0  0  0
  189.8100  176.6220  145.0610 C   0  0  2  0  0  3  0  0  0  0  0  0
  186.6560  177.2680  140.6610 O   0  0  0  0  0  0  0  0  0  0  0  0
  187.4410  175.6620  138.6350 C   0  0  0  0  0  3  0  0  0  0  0  0
  187.7800  175.2810  139.9370 C   0  0  0  0  0  0  0  0  0  0  0  0
  188.5670  174.1380  140.1430 C   0  0  0  0  0  3  0  0  0  0  0  0
  190.0040  171.9700  139.3130 Cl  0  0  0  0  0  0  0  0  0  0  0  0
  188.6830  173.7820  137.7520 C   0  0  0  0  0  3  0  0  0  0  0  0
  189.0200  173.3930  139.0510 C   0  0  0  0  0  0  0  0  0  0  0  0
  187.8940  174.9160  137.5430 C   0  0  0  0  0  3  0  0  0  0  0  0
  191.2190  176.6450  148.3820 O   0  0  0  0  0  1  0  0  0  0  0  0
  191.1850  175.2890  148.0530 C   0  0  0  0  0  2  0  0  0  0  0  0
  1  4  1  0  0  0  0
  2 14  1  0  0  0  0
  2 24  1  0  0  0  0
  3  9  1  0  0  0  0
  4 37  1  0  0  0  0
  5 10  1  0  0  0  0
  6 22  1  0  0  0  0
  7  3  1  0  0  0  0
  7 21  2  0  0  0  0
  8 12  1  0  0  0  0
  9  6  2  0  0  0  0
  9 13  1  0  0  0  0
 10  7  1  0  0  0  0
 11  6  1  0  0  0  0
 12  4  2  0  0  0  0
 13 17  1  0  0  0  0
 15 20  1  0  0  0  0
 16 11  2  0  0  0  0
 17  2  1  0  0  0  0
 18 25  1  0  0  0  0
 18  8  1  1  0  0  0
 19  5  1  6  0  0  0
 19 18  1  0  0  0  0
 19 25  1  0  0  0  0
 20 16  1  0  0  0  0
 20  3  2  0  0  0  0
 21 27  1  0  0  0  0
 21 13  1  0  0  0  0
 22  2  1  0  0  0  0
 23 30  1  6  0  0  0
 23 10  1  0  0  0  0
 25 27  1  0  0  0  0
 26  8  2  0  0  0  0
 27  1  1  0  0  0  0
 28 23  1  0  0  0  0
 28 15  1  0  0  0  0
 29 30  1  0  0  0  0
 30 31  2  0  0  0  0
 33 34  2  0  0  0  0
 34 32  1  0  0  0  0
 34 31  1  0  0  0  0
 35 33  1  0  0  0  0
 35 29  2  0  0  0  0
 37 36  1  0  0  0  0
M  END
>  <MODEL>
7

>  <REMARK>
 VINA RESULT:      -7.8      3.117      7.616
  Name = 
  2 active torsions:
  status: ('A' for Active; 'I' for Inactive)
    1  A    between atoms: CA_4  and  C_37
    2  A    between atoms: C_23  and  C_30
                            x       y       z     vdW  Elec       q    Type
                         _______ _______ _______ _____ _____    ______ ____

>  <TORSDO>
F 2

$$$$
=
 OpenBabel11112417193D

 37 44  0  0  1  0  0  0  0  0999 V2000
  193.5030  173.5530  144.4550 C   0  0  0  0  0  2  0  0  0  0  0  0
  191.1540  176.5810  147.2730 C   0  0  0  0  0  0  0  0  0  0  0  0
  189.5440  175.6130  143.5630 C   0  0  0  0  0  0  0  0  0  0  0  0
  194.9870  173.3500  144.4950 C   0  0  0  0  0  0  0  0  0  0  0  0
  191.7920  174.1870  140.7810 C   0  0  0  0  0  2  0  0  0  0  0  0
  189.2110  176.7520  145.6480 C   0  0  0  0  0  0  0  0  0  0  0  0
  190.6340  175.0400  142.9080 C   0  0  0  0  0  0  0  0  0  0  0  0
  195.0540  172.6240  142.1770 C   0  0  0  0  0  0  0  0  0  0  0  0
  190.0190  176.1100  144.7350 C   0  0  0  0  0  0  0  0  0  0  0  0
  190.5870  174.4150  141.5900 N   0  0  0  0  0  0  0  0  0  0  0  0
  187.8900  176.9080  145.3440 N   0  0  0  0  0  0  0  0  0  0  0  0
  195.6310  172.9040  143.4600 N   0  0  0  0  0  0  0  0  0  0  0  0
  191.3190  175.8760  144.9010 N   0  0  0  0  0  0  0  0  0  0  0  0
  190.8310  175.2400  147.9070 C   0  0  0  0  0  1  0  0  0  0  0  0
  187.5830  175.1310  142.0130 C   0  0  0  0  0  2  0  0  0  0  0  0
  187.3650  176.4160  144.1730 C   0  0  0  0  0  3  0  0  0  0  0  0
  192.0810  176.3580  146.0540 C   0  0  0  0  0  2  0  0  0  0  0  0
  194.2930  173.6440  141.3720 C   0  0  1  0  0  3  0  0  0  0  0  0
  192.8130  173.5100  141.6400 C   0  0  1  0  0  3  0  0  0  0  0  0
  188.1880  175.7540  143.2340 C   0  0  0  0  0  0  0  0  0  0  0  0
  191.7430  175.2290  143.7900 C   0  0  0  0  0  0  0  0  0  0  0  0
  189.8350  177.3070  146.9000 C   0  0  0  0  0  2  0  0  0  0  0  0
  189.2650  174.0440  141.0550 C   0  0  1  0  0  3  0  0  0  0  0  0
  191.8940  177.4210  148.2910 C   0  0  0  0  0  1  0  0  0  0  0  0
  193.5570  174.7290  142.1540 C   0  0  1  0  0  3  0  0  0  0  0  0
  195.3000  171.5120  141.6380 O   0  0  0  0  0  0  0  0  0  0  0  0
  193.1830  174.7900  143.6270 C   0  0  2  0  0  3  0  0  0  0  0  0
  188.4630  175.1860  140.9260 O   0  0  0  0  0  0  0  0  0  0  0  0
  188.9500  173.9030  138.5740 C   0  0  0  0  0  3  0  0  0  0  0  0
  189.3140  173.2700  139.7680 C   0  0  0  0  0  0  0  0  0  0  0  0
  189.6790  171.9150  139.7520 C   0  0  0  0  0  3  0  0  0  0  0  0
  190.1500  169.5180  138.5330 Cl  0  0  0  0  0  0  0  0  0  0  0  0
  189.3330  171.8450  137.3570 C   0  0  0  0  0  3  0  0  0  0  0  0
  189.6910  171.2070  138.5480 C   0  0  0  0  0  0  0  0  0  0  0  0
  188.9620  173.1920  137.3700 C   0  0  0  0  0  3  0  0  0  0  0  0
  195.6920  174.9160  146.1610 O   0  0  0  0  0  1  0  0  0  0  0  0
  195.7500  173.5790  145.7630 C   0  0  0  0  0  2  0  0  0  0  0  0
  1  4  1  0  0  0  0
  2 14  1  0  0  0  0
  2 24  1  0  0  0  0
  3  9  1  0  0  0  0
  4 37  1  0  0  0  0
  5 10  1  0  0  0  0
  6 22  1  0  0  0  0
  7  3  1  0  0  0  0
  7 21  2  0  0  0  0
  8 12  1  0  0  0  0
  9 13  1  0  0  0  0
  9  6  2  0  0  0  0
 10  7  1  0  0  0  0
 11  6  1  0  0  0  0
 12  4  2  0  0  0  0
 13 17  1  0  0  0  0
 15 20  1  0  0  0  0
 16 11  2  0  0  0  0
 17  2  1  0  0  0  0
 18 19  1  0  0  0  0
 18 25  1  0  0  0  0
 18  8  1  1  0  0  0
 19  5  1  6  0  0  0
 19 25  1  0  0  0  0
 20  3  2  0  0  0  0
 20 16  1  0  0  0  0
 21 13  1  0  0  0  0
 22  2  1  0  0  0  0
 23 30  1  6  0  0  0
 23 10  1  0  0  0  0
 25 27  1  0  0  0  0
 26  8  2  0  0  0  0
 27 21  1  0  0  0  0
 27  1  1  0  0  0  0
 28 23  1  0  0  0  0
 28 15  1  0  0  0  0
 29 30  1  0  0  0  0
 31 30  2  0  0  0  0
 32 34  1  0  0  0  0
 33 35  1  0  0  0  0
 33 34  2  0  0  0  0
 34 31  1  0  0  0  0
 35 29  2  0  0  0  0
 37 36  1  0  0  0  0
M  END
>  <MODEL>
8

>  <REMARK>
 VINA RESULT:      -7.7      3.089      6.645
  Name = 
  2 active torsions:
  status: ('A' for Active; 'I' for Inactive)
    1  A    between atoms: CA_4  and  C_37
    2  A    between atoms: C_23  and  C_30
                            x       y       z     vdW  Elec       q    Type
                         _______ _______ _______ _____ _____    ______ ____

>  <TORSDO>
F 2

$$$$
=
 OpenBabel11112417193D

 37 44  0  0  1  0  0  0  0  0999 V2000
  191.1500  172.1540  142.0720 C   0  0  0  0  0  2  0  0  0  0  0  0
  195.3780  172.7390  144.1710 C   0  0  0  0  0  0  0  0  0  0  0  0
  192.3790  175.5370  144.8560 C   0  0  0  0  0  0  0  0  0  0  0  0
  190.9480  171.4170  140.7830 C   0  0  0  0  0  0  0  0  0  0  0  0
  189.4270  175.8620  142.4050 C   0  0  0  0  0  2  0  0  0  0  0  0
  194.5850  174.7920  145.4350 C   0  0  0  0  0  0  0  0  0  0  0  0
  191.4740  175.2570  143.8330 C   0  0  0  0  0  0  0  0  0  0  0  0
  188.9310  172.6680  140.2630 C   0  0  0  0  0  0  0  0  0  0  0  0
  193.4770  174.7740  144.6160 C   0  0  0  0  0  0  0  0  0  0  0  0
  190.1650  175.8840  143.6760 N   0  0  0  0  0  0  0  0  0  0  0  0
  194.5760  175.6300  146.5130 N   0  0  0  0  0  0  0  0  0  0  0  0
  189.9250  171.6620  140.0230 N   0  0  0  0  0  0  0  0  0  0  0  0
  193.3390  174.0010  143.5400 N   0  0  0  0  0  0  0  0  0  0  0  0
  194.7430  171.6580  145.0280 C   0  0  0  0  0  1  0  0  0  0  0  0
  191.1250  177.1800  146.3430 C   0  0  0  0  0  2  0  0  0  0  0  0
  193.4850  176.4160  146.7970 C   0  0  0  0  0  3  0  0  0  0  0  0
  194.4000  173.1290  143.0360 C   0  0  0  0  0  2  0  0  0  0  0  0
  189.2580  174.1270  140.4400 C   0  0  1  0  0  3  0  0  0  0  0  0
  189.3890  174.4510  141.9090 C   0  0  1  0  0  3  0  0  0  0  0  0
  192.3460  176.3980  145.9620 C   0  0  0  0  0  0  0  0  0  0  0  0
  192.1210  174.2770  143.0170 C   0  0  0  0  0  0  0  0  0  0  0  0
  195.7710  173.9440  145.0650 C   0  0  0  0  0  2  0  0  0  0  0  0
  189.6030  176.5950  144.8370 C   0  0  1  0  0  3  0  0  0  0  0  0
  196.6350  172.1720  143.5480 C   0  0  0  0  0  1  0  0  0  0  0  0
  190.6260  174.4600  141.0300 C   0  0  1  0  0  3  0  0  0  0  0  0
  187.7170  172.3410  140.1980 O   0  0  0  0  0  0  0  0  0  0  0  0
  191.6110  173.5740  141.7770 C   0  0  2  0  0  3  0  0  0  0  0  0
  190.4480  177.6470  145.2100 O   0  0  0  0  0  0  0  0  0  0  0  0
  187.8970  177.9050  143.5530 C   0  0  0  0  0  3  0  0  0  0  0  0
  188.1920  177.0770  144.6420 C   0  0  0  0  0  0  0  0  0  0  0  0
  187.1810  176.7460  145.5570 C   0  0  0  0  0  3  0  0  0  0  0  0
  184.6250  176.8090  146.5120 Cl  0  0  0  0  0  0  0  0  0  0  0  0
  185.5910  178.0490  144.2780 C   0  0  0  0  0  3  0  0  0  0  0  0
  185.8830  177.2280  145.3710 C   0  0  0  0  0  0  0  0  0  0  0  0
  186.5970  178.3870  143.3700 C   0  0  0  0  0  3  0  0  0  0  0  0
  192.9890  170.2510  141.2340 O   0  0  0  0  0  1  0  0  0  0  0  0
  191.8840  170.3180  140.3830 C   0  0  0  0  0  2  0  0  0  0  0  0
  2 14  1  0  0  0  0
  2 22  1  0  0  0  0
  3 20  1  0  0  0  0
  4  1  1  0  0  0  0
  5 10  1  0  0  0  0
  6 11  2  0  0  0  0
  7  3  1  0  0  0  0
  9  3  2  0  0  0  0
  9  6  1  0  0  0  0
 10  7  1  0  0  0  0
 10 23  1  0  0  0  0
 11 16  1  0  0  0  0
 12  8  1  0  0  0  0
 12  4  2  0  0  0  0
 13  9  1  0  0  0  0
 17 13  1  0  0  0  0
 17  2  1  0  0  0  0
 18  8  1  1  0  0  0
 18 25  1  0  0  0  0
 18 19  1  0  0  0  0
 19  5  1  6  0  0  0
 20 15  1  0  0  0  0
 20 16  2  0  0  0  0
 21 13  1  0  0  0  0
 21  7  2  0  0  0  0
 22  6  1  0  0  0  0
 23 30  1  6  0  0  0
 23 28  1  0  0  0  0
 24  2  1  0  0  0  0
 25 27  1  0  0  0  0
 25 19  1  0  0  0  0
 26  8  2  0  0  0  0
 27  1  1  0  0  0  0
 27 21  1  0  0  0  0
 28 15  1  0  0  0  0
 29 30  1  0  0  0  0
 30 31  2  0  0  0  0
 33 34  2  0  0  0  0
 34 31  1  0  0  0  0
 34 32  1  0  0  0  0
 35 29  2  0  0  0  0
 35 33  1  0  0  0  0
 37  4  1  0  0  0  0
 37 36  1  0  0  0  0
M  END
>  <MODEL>
9

>  <REMARK>
 VINA RESULT:      -7.6      1.182      1.453
  Name = 
  2 active torsions:
  status: ('A' for Active; 'I' for Inactive)
    1  A    between atoms: CA_4  and  C_37
    2  A    between atoms: C_23  and  C_30
                            x       y       z     vdW  Elec       q    Type
                         _______ _______ _______ _____ _____    ______ ____

>  <TORSDO>
F 2

$$$$
