=
 OpenBabel11112416193D

 30 35  0  0  1  0  0  0  0  0999 V2000
  187.8320  177.1570  145.6620 C   0  0  0  0  0  0  0  0  0  0  0  0
  185.6100  177.8150  146.8360 C   0  0  0  0  0  0  0  0  0  0  0  0
  185.6300  177.8410  141.6490 S   0  0  0  0  0  0  0  0  0  0  0  0
  188.2980  176.5530  144.3850 C   0  0  0  0  0  0  0  0  0  0  0  0
  188.6220  177.0730  146.7330 C   0  0  0  0  0  3  0  0  0  0  0  0
  191.5470  174.8610  145.6700 C   0  0  0  0  0  1  0  0  0  0  0  0
  188.7150  174.0920  142.6480 C   0  0  1  0  0  3  0  0  0  0  0  0
  190.2730  175.6510  145.6320 C   0  0  0  0  0  0  0  0  0  0  0  0
  187.8880  174.9400  141.6760 C   0  0  2  0  0  3  0  0  0  0  0  0
  187.1520  177.2160  140.9520 C   0  0  0  0  0  0  0  0  0  0  0  0
  189.8800  176.3040  146.7370 C   0  0  0  0  0  0  0  0  0  0  0  0
  189.4790  175.7000  144.4220 N   0  0  0  0  0  0  0  0  0  0  0  0
  184.3700  178.3120  146.7380 C   0  0  0  0  0  3  0  0  0  0  0  0
  188.3090  174.4910  140.2910 C   0  0  0  0  0  2  0  0  0  0  0  0
  189.2240  172.8970  141.8570 C   0  0  0  0  0  2  0  0  0  0  0  0
  186.0660  177.1260  148.3870 Cl  0  0  0  0  0  0  0  0  0  0  0  0
  186.4200  177.6880  143.2500 C   0  0  0  0  0  0  0  0  0  0  0  0
  183.8790  178.9380  145.4950 C   0  0  0  0  0  3  0  0  0  0  0  0
  186.6110  178.0560  145.7080 C   0  0  0  0  0  0  0  0  0  0  0  0
  187.6360  176.8630  143.2470 C   0  0  0  0  0  0  0  0  0  0  0  0
  187.4830  177.4820  139.8080 O   0  0  0  0  0  0  0  0  0  0  0  0
  188.0530  176.4500  141.8710 C   0  0  1  0  0  3  0  0  0  0  0  0
  188.6770  173.0340  140.4500 C   0  0  0  0  0  2  0  0  0  0  0  0
  190.8550  175.5230  142.3620 C   0  0  0  0  0  1  0  0  0  0  0  0
  184.5940  178.8750  144.3700 C   0  0  0  0  0  2  0  0  0  0  0  0
  185.9020  178.1980  144.3760 C   0  0  0  0  0  0  0  0  0  0  0  0
  189.8910  174.8230  143.3160 C   0  0  2  0  0  3  0  0  0  0  0  0
  190.6660  176.2470  147.8950 O   0  0  0  0  0  0  0  0  0  0  0  0
  191.4030  177.9170  149.4470 C   0  0  0  0  0  1  0  0  0  0  0  0
  191.7050  177.1770  148.1610 C   0  0  0  0  0  2  0  0  0  0  0  0
  1 19  1  0  0  0  0
  1  5  2  0  0  0  0
  2 16  1  0  0  0  0
  3 17  1  0  0  0  0
  4 12  1  0  0  0  0
  4  1  1  0  0  0  0
  5 11  1  0  0  0  0
  7 15  1  6  0  0  0
  7 27  1  0  0  0  0
  8  6  1  0  0  0  0
  8 11  2  0  0  0  0
  9 14  1  6  0  0  0
  9 22  1  0  0  0  0
  9  7  1  0  0  0  0
 10  3  1  0  0  0  0
 11 28  1  0  0  0  0
 12  8  1  0  0  0  0
 13  2  1  0  0  0  0
 14 23  1  0  0  0  0
 17 26  2  0  0  0  0
 18 13  2  0  0  0  0
 19  2  2  0  0  0  0
 20 17  1  0  0  0  0
 20  4  2  0  0  0  0
 21 10  2  0  0  0  0
 22 10  1  6  0  0  0
 22 20  1  0  0  0  0
 23 15  1  0  0  0  0
 25 26  1  0  0  0  0
 25 18  1  0  0  0  0
 26 19  1  0  0  0  0
 27 24  1  6  0  0  0
 27 12  1  0  0  0  0
 28 30  1  0  0  0  0
 30 29  1  0  0  0  0
M  END
>  <MODEL>
1

>  <REMARK>
 VINA RESULT:      -8.8      0.000      0.000
  Name = 
  2 active torsions:
  status: ('A' for Active; 'I' for Inactive)
    1  A    between atoms: C_11  and  O_28
    2  A    between atoms: O_28  and  C_30
                            x       y       z     vdW  Elec       q    Type
                         _______ _______ _______ _____ _____    ______ ____

>  <TORSDO>
F 2

$$$$
=
 OpenBabel11112416193D

 30 35  0  0  1  0  0  0  0  0999 V2000
  188.1520  175.4870  142.2980 C   0  0  0  0  0  0  0  0  0  0  0  0
  189.0180  173.0390  142.2200 C   0  0  0  0  0  0  0  0  0  0  0  0
  189.5280  175.5750  146.7160 S   0  0  0  0  0  0  0  0  0  0  0  0
  187.6090  176.4620  143.2810 C   0  0  0  0  0  0  0  0  0  0  0  0
  187.8520  175.6480  141.0080 C   0  0  0  0  0  3  0  0  0  0  0  0
  185.3430  178.5230  140.8980 C   0  0  0  0  0  1  0  0  0  0  0  0
  185.2880  177.4590  144.9730 C   0  0  1  0  0  3  0  0  0  0  0  0
  186.3120  177.4990  141.4080 C   0  0  0  0  0  0  0  0  0  0  0  0
  186.3360  177.2830  146.0770 C   0  0  2  0  0  3  0  0  0  0  0  0
  188.7530  177.1860  146.7030 C   0  0  0  0  0  0  0  0  0  0  0  0
  186.9090  176.6770  140.5320 C   0  0  0  0  0  0  0  0  0  0  0  0
  186.5910  177.4000  142.8260 N   0  0  0  0  0  0  0  0  0  0  0  0
  189.6990  172.0490  142.8110 C   0  0  0  0  0  3  0  0  0  0  0  0
  185.9620  178.2840  147.1520 C   0  0  0  0  0  2  0  0  0  0  0  0
  184.1100  178.1860  145.6050 C   0  0  0  0  0  2  0  0  0  0  0  0
  188.1260  172.6250  140.7630 Cl  0  0  0  0  0  0  0  0  0  0  0  0
  189.1100  175.4730  144.9760 C   0  0  0  0  0  0  0  0  0  0  0  0
  190.5050  172.2780  144.0270 C   0  0  0  0  0  3  0  0  0  0  0  0
  189.2130  174.4770  142.6930 C   0  0  2  0  0  3  0  0  0  0  0  0
  188.1190  176.4630  144.5340 C   0  0  0  0  0  0  0  0  0  0  0  0
  189.0740  178.0500  147.5010 O   0  0  0  0  0  0  0  0  0  0  0  0
  187.7800  177.4590  145.5980 C   0  0  1  0  0  3  0  0  0  0  0  0
  184.4580  178.4040  147.0640 C   0  0  0  0  0  2  0  0  0  0  0  0
  186.4070  179.5820  143.9970 C   0  0  0  0  0  1  0  0  0  0  0  0
  190.4430  173.4400  144.6780 C   0  0  0  0  0  3  0  0  0  0  0  0
  189.5830  174.5190  144.1620 C   0  0  0  0  0  0  0  0  0  0  0  0
  185.7700  178.2210  143.7280 C   0  0  2  0  0  3  0  0  0  0  0  0
  186.6280  176.7930  139.1650 O   0  0  0  0  0  0  0  0  0  0  0  0
  186.3350  176.0390  136.9100 C   0  0  0  0  0  1  0  0  0  0  0  0
  187.1010  175.8610  138.2040 C   0  0  0  0  0  2  0  0  0  0  0  0
  1 19  1  0  0  0  0
  1  4  1  0  0  0  0
  2 13  2  0  0  0  0
  4 20  2  0  0  0  0
  5  1  2  0  0  0  0
  6  8  1  0  0  0  0
  7 15  1  1  0  0  0
  7  9  1  0  0  0  0
  8 12  1  0  0  0  0
  9 14  1  1  0  0  0
 10  3  1  0  0  0  0
 10 21  2  0  0  0  0
 11  5  1  0  0  0  0
 11  8  2  0  0  0  0
 12  4  1  0  0  0  0
 12 27  1  0  0  0  0
 13 18  1  0  0  0  0
 15 23  1  0  0  0  0
 16  2  1  0  0  0  0
 17  3  1  0  0  0  0
 18 25  2  0  0  0  0
 19  2  1  1  0  0  0
 19 26  1  0  0  0  0
 20 17  1  0  0  0  0
 22 20  1  6  0  0  0
 22  9  1  0  0  0  0
 22 10  1  0  0  0  0
 23 14  1  0  0  0  0
 26 25  1  0  0  0  0
 26 17  2  0  0  0  0
 27 24  1  1  0  0  0
 27  7  1  0  0  0  0
 28 11  1  0  0  0  0
 29 30  1  0  0  0  0
 30 28  1  0  0  0  0
M  END
>  <MODEL>
2

>  <REMARK>
 VINA RESULT:      -8.6      2.620      7.261
  Name = 
  2 active torsions:
  status: ('A' for Active; 'I' for Inactive)
    1  A    between atoms: C_11  and  O_28
    2  A    between atoms: O_28  and  C_30
                            x       y       z     vdW  Elec       q    Type
                         _______ _______ _______ _____ _____    ______ ____

>  <TORSDO>
F 2

$$$$
=
 OpenBabel11112416193D

 30 35  0  0  1  0  0  0  0  0999 V2000
  188.0410  175.5710  142.2070 C   0  0  0  0  0  0  0  0  0  0  0  0
  186.2890  177.4240  141.7100 C   0  0  0  0  0  0  0  0  0  0  0  0
  187.5680  176.6650  146.6790 S   0  0  0  0  0  0  0  0  0  0  0  0
  189.0770  175.2400  143.2210 C   0  0  0  0  0  0  0  0  0  0  0  0
  188.1600  175.0560  140.9820 C   0  0  0  0  0  3  0  0  0  0  0  0
  191.5340  173.2710  140.9510 C   0  0  0  0  0  1  0  0  0  0  0  0
  191.8510  175.6980  144.3790 C   0  0  1  0  0  3  0  0  0  0  0  0
  190.3420  174.0540  141.4160 C   0  0  0  0  0  0  0  0  0  0  0  0
  191.0170  175.9270  145.6440 C   0  0  2  0  0  3  0  0  0  0  0  0
  188.8960  175.4860  146.8880 C   0  0  0  0  0  0  0  0  0  0  0  0
  189.3350  174.2730  140.5570 C   0  0  0  0  0  0  0  0  0  0  0  0
  190.2880  174.5670  142.7690 N   0  0  0  0  0  0  0  0  0  0  0  0
  185.3850  178.2960  142.1750 C   0  0  0  0  0  3  0  0  0  0  0  0
  191.9260  175.5530  146.7980 C   0  0  0  0  0  2  0  0  0  0  0  0
  193.3060  175.6560  144.8190 C   0  0  0  0  0  2  0  0  0  0  0  0
  186.6910  177.5370  140.0030 Cl  0  0  0  0  0  0  0  0  0  0  0  0
  187.6160  176.2550  144.9350 C   0  0  0  0  0  0  0  0  0  0  0  0
  184.9480  178.2840  143.5850 C   0  0  0  0  0  3  0  0  0  0  0  0
  186.7530  176.2710  142.5960 C   0  0  2  0  0  3  0  0  0  0  0  0
  188.8250  175.5330  144.5170 C   0  0  0  0  0  0  0  0  0  0  0  0
  189.0760  174.9160  147.9510 O   0  0  0  0  0  0  0  0  0  0  0  0
  189.6980  175.1490  145.6700 C   0  0  1  0  0  3  0  0  0  0  0  0
  193.3200  175.8840  146.3180 C   0  0  0  0  0  2  0  0  0  0  0  0
  191.5010  173.1320  144.3920 C   0  0  0  0  0  1  0  0  0  0  0  0
  185.5660  177.5180  144.4850 C   0  0  0  0  0  3  0  0  0  0  0  0
  186.6790  176.6510  144.0620 C   0  0  0  0  0  0  0  0  0  0  0  0
  191.5020  174.4280  143.5860 C   0  0  2  0  0  3  0  0  0  0  0  0
  189.4060  173.7630  139.2550 O   0  0  0  0  0  0  0  0  0  0  0  0
  188.1910  174.5410  137.3420 C   0  0  0  0  0  1  0  0  0  0  0  0
  188.2520  173.5250  138.4620 C   0  0  0  0  0  2  0  0  0  0  0  0
  1 19  1  0  0  0  0
  1  4  1  0  0  0  0
  2 13  2  0  0  0  0
  3 10  1  0  0  0  0
  4 20  2  0  0  0  0
  5  1  2  0  0  0  0
  6  8  1  0  0  0  0
  7 15  1  1  0  0  0
  7  9  1  0  0  0  0
  8 12  1  0  0  0  0
  9 22  1  0  0  0  0
  9 14  1  1  0  0  0
 10 21  2  0  0  0  0
 11  5  1  0  0  0  0
 11  8  2  0  0  0  0
 12  4  1  0  0  0  0
 12 27  1  0  0  0  0
 13 18  1  0  0  0  0
 15 23  1  0  0  0  0
 16  2  1  0  0  0  0
 17  3  1  0  0  0  0
 18 25  2  0  0  0  0
 19  2  1  6  0  0  0
 19 26  1  0  0  0  0
 20 17  1  0  0  0  0
 22 20  1  6  0  0  0
 22 10  1  0  0  0  0
 23 14  1  0  0  0  0
 26 25  1  0  0  0  0
 26 17  2  0  0  0  0
 27  7  1  0  0  0  0
 27 24  1  1  0  0  0
 28 11  1  0  0  0  0
 29 30  1  0  0  0  0
 30 28  1  0  0  0  0
M  END
>  <MODEL>
3

>  <REMARK>
 VINA RESULT:      -8.4      2.543      5.909
  Name = 
  2 active torsions:
  status: ('A' for Active; 'I' for Inactive)
    1  A    between atoms: C_11  and  O_28
    2  A    between atoms: O_28  and  C_30
                            x       y       z     vdW  Elec       q    Type
                         _______ _______ _______ _____ _____    ______ ____

>  <TORSDO>
F 2

$$$$
=
 OpenBabel11112416193D

 30 35  0  0  1  0  0  0  0  0999 V2000
  188.2500  175.9640  142.6250 C   0  0  0  0  0  0  0  0  0  0  0  0
  186.5440  177.9070  142.3810 C   0  0  0  0  0  0  0  0  0  0  0  0
  189.1240  177.5900  146.8690 S   0  0  0  0  0  0  0  0  0  0  0  0
  189.5090  175.6520  143.3530 C   0  0  0  0  0  0  0  0  0  0  0  0
  187.9890  175.3060  141.4940 C   0  0  0  0  0  3  0  0  0  0  0  0
  191.1050  173.2190  140.7840 C   0  0  0  0  0  1  0  0  0  0  0  0
  192.5190  175.9730  143.6410 C   0  0  1  0  0  3  0  0  0  0  0  0
  190.1420  174.1570  141.4470 C   0  0  0  0  0  0  0  0  0  0  0  0
  192.0910  176.4190  145.0430 C   0  0  2  0  0  3  0  0  0  0  0  0
  190.3840  176.3220  146.8640 C   0  0  0  0  0  0  0  0  0  0  0  0
  188.9480  174.3740  140.8740 C   0  0  0  0  0  0  0  0  0  0  0  0
  190.5010  174.8220  142.6820 N   0  0  0  0  0  0  0  0  0  0  0  0
  185.8610  178.9060  142.9530 C   0  0  0  0  0  3  0  0  0  0  0  0
  193.2640  176.0920  145.9450 C   0  0  0  0  0  2  0  0  0  0  0  0
  194.0340  175.8420  143.6700 C   0  0  0  0  0  2  0  0  0  0  0  0
  186.4550  177.7900  140.6290 Cl  0  0  0  0  0  0  0  0  0  0  0  0
  188.6540  176.9850  145.2490 C   0  0  0  0  0  0  0  0  0  0  0  0
  185.8390  179.0930  144.4180 C   0  0  0  0  0  3  0  0  0  0  0  0
  187.1690  176.8210  143.2530 C   0  0  2  0  0  3  0  0  0  0  0  0
  189.6510  176.1100  144.6180 C   0  0  0  0  0  0  0  0  0  0  0  0
  190.8220  175.8590  147.9040 O   0  0  0  0  0  0  0  0  0  0  0  0
  190.7890  175.7770  145.5300 C   0  0  1  0  0  3  0  0  0  0  0  0
  194.4840  176.2340  145.0640 C   0  0  0  0  0  2  0  0  0  0  0  0
  192.0350  173.4680  144.0910 C   0  0  0  0  0  1  0  0  0  0  0  0
  186.6390  178.3780  145.2100 C   0  0  0  0  0  3  0  0  0  0  0  0
  187.5340  177.3680  144.6190 C   0  0  0  0  0  0  0  0  0  0  0  0
  191.8860  174.6610  143.1500 C   0  0  2  0  0  3  0  0  0  0  0  0
  188.6180  173.7170  139.6820 O   0  0  0  0  0  0  0  0  0  0  0  0
  189.0460  173.9850  137.3390 C   0  0  0  0  0  1  0  0  0  0  0  0
  188.1950  174.4110  138.5170 C   0  0  0  0  0  2  0  0  0  0  0  0
  1 19  1  0  0  0  0
  1  4  1  0  0  0  0
  2 13  2  0  0  0  0
  4 20  2  0  0  0  0
  5  1  2  0  0  0  0
  6  8  1  0  0  0  0
  7 15  1  1  0  0  0
  7  9  1  0  0  0  0
  8 12  1  0  0  0  0
  9 22  1  0  0  0  0
  9 14  1  1  0  0  0
 10  3  1  0  0  0  0
 10 21  2  0  0  0  0
 11  8  2  0  0  0  0
 11  5  1  0  0  0  0
 12 27  1  0  0  0  0
 12  4  1  0  0  0  0
 13 18  1  0  0  0  0
 15 23  1  0  0  0  0
 16  2  1  0  0  0  0
 17  3  1  0  0  0  0
 18 25  2  0  0  0  0
 19  2  1  6  0  0  0
 19 26  1  0  0  0  0
 20 17  1  0  0  0  0
 22 20  1  6  0  0  0
 22 10  1  0  0  0  0
 23 14  1  0  0  0  0
 26 25  1  0  0  0  0
 26 17  2  0  0  0  0
 27  7  1  0  0  0  0
 27 24  1  1  0  0  0
 28 11  1  0  0  0  0
 29 30  1  0  0  0  0
 30 28  1  0  0  0  0
M  END
>  <MODEL>
4

>  <REMARK>
 VINA RESULT:      -8.4      2.538      5.884
  Name = 
  2 active torsions:
  status: ('A' for Active; 'I' for Inactive)
    1  A    between atoms: C_11  and  O_28
    2  A    between atoms: O_28  and  C_30
                            x       y       z     vdW  Elec       q    Type
                         _______ _______ _______ _____ _____    ______ ____

>  <TORSDO>
F 2

$$$$
=
 OpenBabel11112416193D

 30 35  0  0  1  0  0  0  0  0999 V2000
  189.9640  174.9790  143.3190 C   0  0  0  0  0  0  0  0  0  0  0  0
  191.5570  172.9570  143.6670 C   0  0  0  0  0  0  0  0  0  0  0  0
  191.1230  176.3150  147.5960 S   0  0  0  0  0  0  0  0  0  0  0  0
  189.1160  175.9000  144.1230 C   0  0  0  0  0  0  0  0  0  0  0  0
  189.6630  174.7960  142.0330 C   0  0  0  0  0  3  0  0  0  0  0  0
  186.3820  176.6650  141.4760 C   0  0  0  0  0  1  0  0  0  0  0  0
  186.5540  176.4160  145.6780 C   0  0  1  0  0  3  0  0  0  0  0  0
  187.6100  176.1110  142.1350 C   0  0  0  0  0  0  0  0  0  0  0  0
  187.5750  176.7850  146.7600 C   0  0  2  0  0  3  0  0  0  0  0  0
  189.8820  177.5690  147.3110 C   0  0  0  0  0  0  0  0  0  0  0  0
  188.4580  175.3690  141.4060 C   0  0  0  0  0  0  0  0  0  0  0  0
  187.8670  176.3690  143.5360 N   0  0  0  0  0  0  0  0  0  0  0  0
  192.4990  172.3590  144.4070 C   0  0  0  0  0  3  0  0  0  0  0  0
  186.8760  177.8000  147.6420 C   0  0  0  0  0  2  0  0  0  0  0  0
  185.1910  176.8400  146.2030 C   0  0  0  0  0  2  0  0  0  0  0  0
  190.8800  172.0210  142.3420 Cl  0  0  0  0  0  0  0  0  0  0  0  0
  190.8050  175.7650  145.9200 C   0  0  0  0  0  0  0  0  0  0  0  0
  193.1590  173.0510  145.5320 C   0  0  0  0  0  3  0  0  0  0  0  0
  191.2770  174.4460  143.8590 C   0  0  2  0  0  3  0  0  0  0  0  0
  189.5650  176.2940  145.3360 C   0  0  0  0  0  0  0  0  0  0  0  0
  189.8930  178.6240  147.9250 O   0  0  0  0  0  0  0  0  0  0  0  0
  188.9030  177.3130  146.2080 C   0  0  1  0  0  3  0  0  0  0  0  0
  185.4140  177.4240  147.5850 C   0  0  0  0  0  2  0  0  0  0  0  0
  186.9760  178.5610  144.2890 C   0  0  0  0  0  1  0  0  0  0  0  0
  192.7170  174.2350  145.9590 C   0  0  0  0  0  3  0  0  0  0  0  0
  191.5760  174.8740  145.2820 C   0  0  0  0  0  0  0  0  0  0  0  0
  186.8060  177.0450  144.2980 C   0  0  2  0  0  3  0  0  0  0  0  0
  188.1910  175.1350  140.0510 O   0  0  0  0  0  0  0  0  0  0  0  0
  188.1910  172.8300  139.4000 C   0  0  0  0  0  1  0  0  0  0  0  0
  188.8950  174.1660  139.2890 C   0  0  0  0  0  2  0  0  0  0  0  0
  1  4  1  0  0  0  0
  2 19  1  0  0  0  0
  2 13  2  0  0  0  0
  4 20  2  0  0  0  0
  5  1  2  0  0  0  0
  6  8  1  0  0  0  0
  7 15  1  1  0  0  0
  7  9  1  0  0  0  0
  8 12  1  0  0  0  0
  9 14  1  1  0  0  0
 10  3  1  0  0  0  0
 10 21  2  0  0  0  0
 11  5  1  0  0  0  0
 11  8  2  0  0  0  0
 12  4  1  0  0  0  0
 12 27  1  0  0  0  0
 13 18  1  0  0  0  0
 15 23  1  0  0  0  0
 16  2  1  0  0  0  0
 17  3  1  0  0  0  0
 18 25  2  0  0  0  0
 19  1  1  1  0  0  0
 19 26  1  0  0  0  0
 20 17  1  0  0  0  0
 22 20  1  6  0  0  0
 22  9  1  0  0  0  0
 22 10  1  0  0  0  0
 23 14  1  0  0  0  0
 26 17  2  0  0  0  0
 26 25  1  0  0  0  0
 27 24  1  1  0  0  0
 27  7  1  0  0  0  0
 28 11  1  0  0  0  0
 30 29  1  0  0  0  0
 30 28  1  0  0  0  0
M  END
>  <MODEL>
5

>  <REMARK>
 VINA RESULT:      -7.8      2.719      7.168
  Name = 
  2 active torsions:
  status: ('A' for Active; 'I' for Inactive)
    1  A    between atoms: C_11  and  O_28
    2  A    between atoms: O_28  and  C_30
                            x       y       z     vdW  Elec       q    Type
                         _______ _______ _______ _____ _____    ______ ____

>  <TORSDO>
F 2

$$$$
=
 OpenBabel11112416193D

 30 35  0  0  1  0  0  0  0  0999 V2000
  187.7530  175.2660  142.7200 C   0  0  0  0  0  0  0  0  0  0  0  0
  186.9490  176.5780  140.6270 C   0  0  0  0  0  0  0  0  0  0  0  0
  186.1830  178.8130  145.2450 S   0  0  0  0  0  0  0  0  0  0  0  0
  188.2300  175.5310  144.1040 C   0  0  0  0  0  0  0  0  0  0  0  0
  188.1060  174.1220  142.1320 C   0  0  0  0  0  3  0  0  0  0  0  0
  190.5510  172.4500  144.5400 C   0  0  0  0  0  1  0  0  0  0  0  0
  190.4510  176.4050  145.9880 C   0  0  1  0  0  3  0  0  0  0  0  0
  189.5840  173.4310  143.9470 C   0  0  0  0  0  0  0  0  0  0  0  0
  189.3590  177.3880  146.4240 C   0  0  2  0  0  3  0  0  0  0  0  0
  186.9200  177.9010  146.5940 C   0  0  0  0  0  0  0  0  0  0  0  0
  189.0460  173.1660  142.7470 C   0  0  0  0  0  0  0  0  0  0  0  0
  189.2450  174.6450  144.6600 N   0  0  0  0  0  0  0  0  0  0  0  0
  186.2650  177.6120  140.1200 C   0  0  0  0  0  3  0  0  0  0  0  0
  189.6630  177.7080  147.8740 C   0  0  0  0  0  2  0  0  0  0  0  0
  191.5820  176.5370  146.9950 C   0  0  0  0  0  2  0  0  0  0  0  0
  187.9120  175.6380  139.4980 Cl  0  0  0  0  0  0  0  0  0  0  0  0
  186.6800  177.4520  144.1890 C   0  0  0  0  0  0  0  0  0  0  0  0
  185.4010  178.4620  140.9640 C   0  0  0  0  0  3  0  0  0  0  0  0
  186.7000  176.1420  142.0690 C   0  0  2  0  0  3  0  0  0  0  0  0
  187.6660  176.5470  144.7950 C   0  0  0  0  0  0  0  0  0  0  0  0
  186.5450  178.0570  147.7440 O   0  0  0  0  0  0  0  0  0  0  0  0
  187.9340  176.8610  146.2330 C   0  0  1  0  0  3  0  0  0  0  0  0
  191.1660  177.6030  147.9900 C   0  0  0  0  0  2  0  0  0  0  0  0
  189.3270  174.3670  147.1260 C   0  0  0  0  0  1  0  0  0  0  0  0
  185.4080  178.3360  142.2920 C   0  0  0  0  0  3  0  0  0  0  0  0
  186.2650  177.3160  142.9230 C   0  0  0  0  0  0  0  0  0  0  0  0
  190.0060  174.9370  145.8830 C   0  0  2  0  0  3  0  0  0  0  0  0
  189.3830  171.9840  142.0770 O   0  0  0  0  0  0  0  0  0  0  0  0
  191.2920  171.0390  140.9800 C   0  0  0  0  0  1  0  0  0  0  0  0
  190.1090  171.9750  140.8570 C   0  0  0  0  0  2  0  0  0  0  0  0
  1  4  1  0  0  0  0
  3 10  1  0  0  0  0
  4 12  1  0  0  0  0
  4 20  2  0  0  0  0
  5  1  2  0  0  0  0
  5 11  1  0  0  0  0
  7  9  1  0  0  0  0
  7 15  1  1  0  0  0
  8  6  1  0  0  0  0
  8 12  1  0  0  0  0
  9 14  1  1  0  0  0
 10 21  2  0  0  0  0
 11  8  2  0  0  0  0
 12 27  1  0  0  0  0
 13  2  2  0  0  0  0
 13 18  1  0  0  0  0
 14 23  1  0  0  0  0
 15 23  1  0  0  0  0
 16  2  1  0  0  0  0
 17 20  1  0  0  0  0
 17  3  1  0  0  0  0
 18 25  2  0  0  0  0
 19  2  1  6  0  0  0
 19  1  1  0  0  0  0
 19 26  1  0  0  0  0
 22 20  1  6  0  0  0
 22  9  1  0  0  0  0
 22 10  1  0  0  0  0
 25 26  1  0  0  0  0
 26 17  2  0  0  0  0
 27  7  1  0  0  0  0
 27 24  1  1  0  0  0
 28 11  1  0  0  0  0
 30 29  1  0  0  0  0
 30 28  1  0  0  0  0
M  END
>  <MODEL>
6

>  <REMARK>
 VINA RESULT:      -7.6      2.711      5.719
  Name = 
  2 active torsions:
  status: ('A' for Active; 'I' for Inactive)
    1  A    between atoms: C_11  and  O_28
    2  A    between atoms: O_28  and  C_30
                            x       y       z     vdW  Elec       q    Type
                         _______ _______ _______ _____ _____    ______ ____

>  <TORSDO>
F 2

$$$$
=
 OpenBabel11112416193D

 30 35  0  0  1  0  0  0  0  0999 V2000
  189.5210  174.7680  141.5860 C   0  0  0  0  0  0  0  0  0  0  0  0
  189.6780  172.7050  140.0150 C   0  0  0  0  0  0  0  0  0  0  0  0
  193.8010  173.7130  142.9960 S   0  0  0  0  0  0  0  0  0  0  0  0
  190.0720  175.2430  142.8840 C   0  0  0  0  0  0  0  0  0  0  0  0
  188.3590  175.2700  141.1650 C   0  0  0  0  0  3  0  0  0  0  0  0
  187.0920  177.4520  144.0300 C   0  0  0  0  0  1  0  0  0  0  0  0
  190.0690  175.1490  145.9230 C   0  0  1  0  0  3  0  0  0  0  0  0
  187.9550  176.5390  143.2100 C   0  0  0  0  0  0  0  0  0  0  0  0
  191.5500  174.8460  145.6710 C   0  0  2  0  0  3  0  0  0  0  0  0
  193.5210  175.0480  144.1500 C   0  0  0  0  0  0  0  0  0  0  0  0
  187.5400  176.1810  141.9850 C   0  0  0  0  0  0  0  0  0  0  0  0
  189.2100  176.0490  143.7400 N   0  0  0  0  0  0  0  0  0  0  0  0
  190.4280  171.7390  139.4690 C   0  0  0  0  0  3  0  0  0  0  0  0
  192.2790  175.3510  146.9000 C   0  0  0  0  0  2  0  0  0  0  0  0
  189.9210  175.3780  147.4200 C   0  0  0  0  0  2  0  0  0  0  0  0
  187.9440  172.6080  139.7440 Cl  0  0  0  0  0  0  0  0  0  0  0  0
  192.1840  174.0910  142.3230 C   0  0  0  0  0  0  0  0  0  0  0  0
  191.8980  171.7250  139.6070 C   0  0  0  0  0  3  0  0  0  0  0  0
  190.3530  173.9240  140.6400 C   0  0  0  0  0  0  0  0  0  0  0  0
  191.3570  174.9470  143.1840 C   0  0  0  0  0  0  0  0  0  0  0  0
  194.4510  175.6580  144.6530 O   0  0  0  0  0  0  0  0  0  0  0  0
  192.0990  175.4570  144.3790 C   0  0  1  0  0  3  0  0  0  0  0  0
  191.2940  175.1830  148.0330 C   0  0  0  0  0  2  0  0  0  0  0  0
  190.2880  177.6540  145.2990 C   0  0  0  0  0  1  0  0  0  0  0  0
  192.5150  172.5780  140.4250 C   0  0  0  0  0  2  0  0  0  0  0  0
  191.7240  173.5670  141.1790 C   0  0  0  0  0  0  0  0  0  0  0  0
  189.5060  176.3520  145.1480 C   0  0  2  0  0  3  0  0  0  0  0  0
  186.3250  176.6700  141.4910 O   0  0  0  0  0  0  0  0  0  0  0  0
  184.9060  178.2840  140.4310 C   0  0  0  0  0  1  0  0  0  0  0  0
  186.2520  177.5910  140.4130 C   0  0  0  0  0  2  0  0  0  0  0  0
  1  4  1  0  0  0  0
  2 19  2  0  0  0  0
  3 10  1  0  0  0  0
  4 20  2  0  0  0  0
  4 12  1  0  0  0  0
  5  1  2  0  0  0  0
  5 11  1  0  0  0  0
  7 15  1  1  0  0  0
  8 12  1  0  0  0  0
  8  6  1  0  0  0  0
  9  7  1  0  0  0  0
  9 14  1  1  0  0  0
 10 22  1  0  0  0  0
 10 21  2  0  0  0  0
 11  8  2  0  0  0  0
 12 27  1  0  0  0  0
 13 18  2  0  0  0  0
 13  2  1  0  0  0  0
 14 23  1  0  0  0  0
 15 23  1  0  0  0  0
 16  2  1  0  0  0  0
 17  3  1  0  0  0  0
 17 20  1  0  0  0  0
 18 25  1  0  0  0  0
 19 26  1  0  0  0  0
 19  1  1  0  0  0  0
 22 20  1  6  0  0  0
 22  9  1  0  0  0  0
 25 26  1  0  0  0  0
 26 17  2  0  0  0  0
 27 24  1  6  0  0  0
 27  7  1  0  0  0  0
 28 11  1  0  0  0  0
 30 29  1  0  0  0  0
 30 28  1  0  0  0  0
M  END
>  <MODEL>
7

>  <REMARK>
 VINA RESULT:      -7.4      3.197      7.429
  Name = 
  2 active torsions:
  status: ('A' for Active; 'I' for Inactive)
    1  A    between atoms: C_11  and  O_28
    2  A    between atoms: O_28  and  C_30
                            x       y       z     vdW  Elec       q    Type
                         _______ _______ _______ _____ _____    ______ ____

>  <TORSDO>
F 2

$$$$
=
 OpenBabel11112416193D

 30 35  0  0  1  0  0  0  0  0999 V2000
  189.6750  174.6370  142.8100 C   0  0  0  0  0  0  0  0  0  0  0  0
  187.5630  175.8760  141.9420 C   0  0  0  0  0  0  0  0  0  0  0  0
  189.2260  177.1080  146.6970 S   0  0  0  0  0  0  0  0  0  0  0  0
  190.8080  174.8590  143.7480 C   0  0  0  0  0  0  0  0  0  0  0  0
  189.8310  173.7590  141.8180 C   0  0  0  0  0  3  0  0  0  0  0  0
  193.4890  172.6790  141.9780 C   0  0  0  0  0  1  0  0  0  0  0  0
  193.4890  176.1560  144.3560 C   0  0  1  0  0  3  0  0  0  0  0  0
  192.1900  173.3580  142.2970 C   0  0  0  0  0  0  0  0  0  0  0  0
  192.6940  176.6610  145.5650 C   0  0  2  0  0  3  0  0  0  0  0  0
  190.7720  176.3200  147.1240 C   0  0  0  0  0  0  0  0  0  0  0  0
  191.1150  173.0920  141.5380 C   0  0  0  0  0  0  0  0  0  0  0  0
  192.1040  174.2890  143.4020 N   0  0  0  0  0  0  0  0  0  0  0  0
  186.5280  176.6860  142.1970 C   0  0  0  0  0  3  0  0  0  0  0  0
  193.7190  176.8690  146.6630 C   0  0  0  0  0  2  0  0  0  0  0  0
  194.9450  176.5180  144.6120 C   0  0  0  0  0  2  0  0  0  0  0  0
  187.8450  175.4600  140.2570 Cl  0  0  0  0  0  0  0  0  0  0  0  0
  189.2640  176.1360  145.1920 C   0  0  0  0  0  0  0  0  0  0  0  0
  186.1760  177.0860  143.5740 C   0  0  0  0  0  3  0  0  0  0  0  0
  188.2940  175.1960  143.0970 C   0  0  2  0  0  3  0  0  0  0  0  0
  190.5710  175.5330  144.8960 C   0  0  0  0  0  0  0  0  0  0  0  0
  191.1190  176.1910  148.2870 O   0  0  0  0  0  0  0  0  0  0  0  0
  191.5620  175.7260  145.9990 C   0  0  1  0  0  3  0  0  0  0  0  0
  194.9910  177.2480  145.9400 C   0  0  0  0  0  2  0  0  0  0  0  0
  193.6640  173.7320  145.2520 C   0  0  0  0  0  1  0  0  0  0  0  0
  186.9820  176.7960  144.5970 C   0  0  0  0  0  3  0  0  0  0  0  0
  188.2230  176.0400  144.3540 C   0  0  0  0  0  0  0  0  0  0  0  0
  193.3630  174.6510  144.0720 C   0  0  2  0  0  3  0  0  0  0  0  0
  191.2200  172.1840  140.4770 O   0  0  0  0  0  0  0  0  0  0  0  0
  190.8100  170.0600  141.5080 C   0  0  0  0  0  1  0  0  0  0  0  0
  190.4260  171.0100  140.3940 C   0  0  0  0  0  2  0  0  0  0  0  0
  1 19  1  0  0  0  0
  1  4  1  0  0  0  0
  2 13  2  0  0  0  0
  3 10  1  0  0  0  0
  4 20  2  0  0  0  0
  5  1  2  0  0  0  0
  6  8  1  0  0  0  0
  7 15  1  1  0  0  0
  7  9  1  0  0  0  0
  8 12  1  0  0  0  0
  9 22  1  0  0  0  0
  9 14  1  1  0  0  0
 10 21  2  0  0  0  0
 11  5  1  0  0  0  0
 11  8  2  0  0  0  0
 12  4  1  0  0  0  0
 12 27  1  0  0  0  0
 13 18  1  0  0  0  0
 15 23  1  0  0  0  0
 16  2  1  0  0  0  0
 17  3  1  0  0  0  0
 18 25  2  0  0  0  0
 19  2  1  6  0  0  0
 19 26  1  0  0  0  0
 20 17  1  0  0  0  0
 22 20  1  6  0  0  0
 22 10  1  0  0  0  0
 23 14  1  0  0  0  0
 26 25  1  0  0  0  0
 26 17  2  0  0  0  0
 27  7  1  0  0  0  0
 27 24  1  1  0  0  0
 28 11  1  0  0  0  0
 30 28  1  0  0  0  0
 30 29  1  0  0  0  0
M  END
>  <MODEL>
8

>  <REMARK>
 VINA RESULT:      -7.4      3.062      6.295
  Name = 
  2 active torsions:
  status: ('A' for Active; 'I' for Inactive)
    1  A    between atoms: C_11  and  O_28
    2  A    between atoms: O_28  and  C_30
                            x       y       z     vdW  Elec       q    Type
                         _______ _______ _______ _____ _____    ______ ____

>  <TORSDO>
F 2

$$$$
=
 OpenBabel11112416193D

 30 35  0  0  1  0  0  0  0  0999 V2000
  191.0440  174.3600  143.4720 C   0  0  0  0  0  0  0  0  0  0  0  0
  189.8160  172.8620  141.7410 C   0  0  0  0  0  0  0  0  0  0  0  0
  194.4300  174.7750  140.3440 S   0  0  0  0  0  0  0  0  0  0  0  0
  192.4300  174.7490  143.8460 C   0  0  0  0  0  0  0  0  0  0  0  0
  190.0860  174.4490  144.3950 C   0  0  0  0  0  3  0  0  0  0  0  0
  191.8760  175.3790  147.6360 C   0  0  0  0  0  1  0  0  0  0  0  0
  195.0630  174.0750  145.2090 C   0  0  1  0  0  3  0  0  0  0  0  0
  191.6220  175.0440  146.1960 C   0  0  0  0  0  0  0  0  0  0  0  0
  195.5920  174.4170  143.8120 C   0  0  2  0  0  3  0  0  0  0  0  0
  195.2540  175.6510  141.6660 C   0  0  0  0  0  0  0  0  0  0  0  0
  190.3630  174.7990  145.8010 C   0  0  0  0  0  0  0  0  0  0  0  0
  192.7200  174.9810  145.2550 N   0  0  0  0  0  0  0  0  0  0  0  0
  189.7430  172.3830  140.4920 C   0  0  0  0  0  3  0  0  0  0  0  0
  197.0070  174.9150  144.0290 C   0  0  0  0  0  2  0  0  0  0  0  0
  196.2790  173.9350  146.1120 C   0  0  0  0  0  2  0  0  0  0  0  0
  188.7180  172.1620  142.9210 Cl  0  0  0  0  0  0  0  0  0  0  0  0
  193.0290  174.6270  141.4530 C   0  0  0  0  0  0  0  0  0  0  0  0
  190.5970  172.9080  139.4080 C   0  0  0  0  0  3  0  0  0  0  0  0
  190.6620  174.1000  142.0270 C   0  0  0  0  0  0  0  0  0  0  0  0
  193.3400  174.9160  142.8590 C   0  0  0  0  0  0  0  0  0  0  0  0
  196.1380  176.4600  141.4370 O   0  0  0  0  0  0  0  0  0  0  0  0
  194.7320  175.4300  143.0520 C   0  0  1  0  0  3  0  0  0  0  0  0
  197.5010  174.1660  145.2450 C   0  0  0  0  0  2  0  0  0  0  0  0
  194.5660  176.5410  145.8250 C   0  0  0  0  0  1  0  0  0  0  0  0
  191.5910  173.7560  139.6710 C   0  0  0  0  0  2  0  0  0  0  0  0
  191.8230  174.1990  141.0580 C   0  0  0  0  0  0  0  0  0  0  0  0
  194.0790  175.0950  145.8050 C   0  0  2  0  0  3  0  0  0  0  0  0
  189.3150  174.8710  146.7270 O   0  0  0  0  0  0  0  0  0  0  0  0
  188.6420  177.1660  146.5810 C   0  0  0  0  0  1  0  0  0  0  0  0
  188.1920  175.7210  146.5480 C   0  0  0  0  0  2  0  0  0  0  0  0
  1  4  1  0  0  0  0
  1  5  2  0  0  0  0
  2 19  2  0  0  0  0
  2 16  1  0  0  0  0
  3 17  1  0  0  0  0
  3 10  1  0  0  0  0
  4 12  1  0  0  0  0
  5 11  1  0  0  0  0
  7 27  1  0  0  0  0
  7 15  1  1  0  0  0
  8  6  1  0  0  0  0
  9 14  1  1  0  0  0
  9  7  1  0  0  0  0
 11  8  2  0  0  0  0
 11 28  1  0  0  0  0
 12 27  1  0  0  0  0
 12  8  1  0  0  0  0
 13  2  1  0  0  0  0
 14 23  1  0  0  0  0
 17 20  1  0  0  0  0
 18 25  1  0  0  0  0
 18 13  2  0  0  0  0
 19  1  1  0  0  0  0
 20 22  1  0  0  0  0
 20  4  2  0  0  0  0
 21 10  2  0  0  0  0
 22 10  1  6  0  0  0
 22  9  1  0  0  0  0
 23 15  1  0  0  0  0
 25 26  1  0  0  0  0
 26 17  2  0  0  0  0
 26 19  1  0  0  0  0
 27 24  1  6  0  0  0
 30 29  1  0  0  0  0
 30 28  1  0  0  0  0
M  END
>  <MODEL>
9

>  <REMARK>
 VINA RESULT:      -7.2      3.947      7.007
  Name = 
  2 active torsions:
  status: ('A' for Active; 'I' for Inactive)
    1  A    between atoms: C_11  and  O_28
    2  A    between atoms: O_28  and  C_30
                            x       y       z     vdW  Elec       q    Type
                         _______ _______ _______ _____ _____    ______ ____

>  <TORSDO>
F 2

$$$$
