=
 OpenBabel11112416293D

 32 37  0  0  1  0  0  0  0  0999 V2000
  195.6190  175.1430  145.3890 C   0  0  0  0  0  3  0  0  0  0  0  0
  190.1650  175.9030  145.2100 C   0  0  1  0  0  3  0  0  0  0  0  0
  189.0470  174.4240  140.5940 C   0  0  0  0  0  3  0  0  0  0  0  0
  187.9060  175.2230  140.6020 C   0  0  0  0  0  3  0  0  0  0  0  0
  188.6390  177.5650  146.3130 C   0  0  0  0  0  0  0  0  0  0  0  0
  187.2480  177.8670  146.3930 N   0  0  0  0  0  0  0  0  0  0  0  0
  192.4260  175.2240  146.0690 C   0  0  1  0  0  3  0  0  0  0  0  0
  191.4890  174.1010  144.0620 C   0  0  0  0  0  2  0  0  0  0  0  0
  185.2210  178.3530  145.5530 C   0  0  0  0  0  0  0  0  0  0  0  0
  193.7850  173.5070  144.8360 C   0  0  0  0  0  2  0  0  0  0  0  0
  189.8970  174.4130  141.7010 C   0  0  0  0  0  3  0  0  0  0  0  0
  190.4880  175.1690  143.9740 N   0  0  0  0  0  0  0  0  0  0  0  0
  189.6180  175.2050  142.8300 C   0  0  0  0  0  0  0  0  0  0  0  0
  188.1840  176.8530  143.9740 N   0  0  0  0  0  0  0  0  0  0  0  0
  185.0920  178.5870  147.0250 C   0  0  0  0  0  3  0  0  0  0  0  0
  194.7460  176.2290  145.9510 C   0  0  0  0  0  2  0  0  0  0  0  0
  192.7650  174.6280  144.6990 C   0  0  2  0  0  3  0  0  0  0  0  0
  186.4980  178.2800  147.5670 C   0  0  0  0  0  3  0  0  0  0  0  0
  193.6570  175.6750  146.8590 C   0  0  0  0  0  2  0  0  0  0  0  0
  195.2170  173.9800  144.8380 C   0  0  0  0  0  0  0  0  0  0  0  0
  187.6230  176.0160  141.7150 C   0  0  0  0  0  3  0  0  0  0  0  0
  188.4760  176.0220  142.8350 C   0  0  0  0  0  0  0  0  0  0  0  0
  187.0010  177.7240  143.8970 C   0  0  0  0  0  2  0  0  0  0  0  0
  191.4600  176.3830  145.8790 C   0  0  0  0  0  2  0  0  0  0  0  0
  189.3700  177.7230  147.3260 O   0  0  0  0  0  0  0  0  0  0  0  0
  184.1320  178.5990  144.5660 C   0  0  0  0  0  1  0  0  0  0  0  0
  189.2360  177.1160  144.9870 C   0  0  2  0  0  3  0  0  0  0  0  0
  186.4350  177.9390  145.2550 C   0  0  0  0  0  0  0  0  0  0  0  0
  196.1870  173.0510  144.3320 N   0  0  0  0  0  2  0  0  0  0  0  0
  196.9900  172.1330  145.0870 C   0  0  0  0  0  0  0  0  0  0  0  0
  196.9380  172.0960  146.3440 O   0  0  0  0  0  0  0  0  0  0  0  0
  197.9110  171.2140  144.3690 C   0  0  0  0  0  1  0  0  0  0  0  0
  1 16  1  0  0  0  0
  2 24  1  6  0  0  0
  3  4  2  0  0  0  0
  3 11  1  0  0  0  0
  4 21  1  0  0  0  0
  5  6  1  0  0  0  0
  5 25  2  0  0  0  0
  6 18  1  0  0  0  0
  7 24  1  6  0  0  0
  7 19  1  0  0  0  0
  9 15  1  0  0  0  0
 10 20  1  0  0  0  0
 11 13  2  0  0  0  0
 12  8  1  0  0  0  0
 12  2  1  0  0  0  0
 13 22  1  0  0  0  0
 13 12  1  0  0  0  0
 14 27  1  0  0  0  0
 15 18  2  0  0  0  0
 16 19  1  0  0  0  0
 17  8  1  1  0  0  0
 17 10  1  0  0  0  0
 17  7  1  0  0  0  0
 20  1  2  0  0  0  0
 21 22  2  0  0  0  0
 22 14  1  0  0  0  0
 23 14  1  0  0  0  0
 23 28  1  0  0  0  0
 26  9  1  0  0  0  0
 27  2  1  0  0  0  0
 27  5  1  1  0  0  0
 28  9  2  0  0  0  0
 28  6  1  0  0  0  0
 29 20  1  0  0  0  0
 29 30  1  0  0  0  0
 30 31  2  0  0  0  0
 32 30  1  0  0  0  0
M  END
>  <MODEL>
1

>  <REMARK>
 VINA RESULT:      -9.0      0.000      0.000
  Name = 
  1 active torsions:
  status: ('A' for Active; 'I' for Inactive)
    1  A    between atoms: C_20  and  N_29
                            x       y       z     vdW  Elec       q    Type
                         _______ _______ _______ _____ _____    ______ ____

>  <TORSDO>
F 1

$$$$
=
 OpenBabel11112416293D

 32 37  0  0  1  0  0  0  0  0999 V2000
  194.9650  175.2910  146.1350 C   0  0  0  0  0  3  0  0  0  0  0  0
  189.6670  175.8110  144.7140 C   0  0  1  0  0  3  0  0  0  0  0  0
  189.5810  173.7300  140.1960 C   0  0  0  0  0  3  0  0  0  0  0  0
  188.4550  174.4790  139.8610 C   0  0  0  0  0  3  0  0  0  0  0  0
  187.9210  177.5350  145.2470 C   0  0  0  0  0  0  0  0  0  0  0  0
  186.5420  177.7900  144.9930 N   0  0  0  0  0  0  0  0  0  0  0  0
  191.7000  175.3310  146.1100 C   0  0  1  0  0  3  0  0  0  0  0  0
  191.2280  173.9340  144.1130 C   0  0  0  0  0  2  0  0  0  0  0  0
  184.7360  178.0900  143.6890 C   0  0  0  0  0  0  0  0  0  0  0  0
  193.3110  173.5300  145.4240 C   0  0  0  0  0  2  0  0  0  0  0  0
  190.1740  173.8900  141.4490 C   0  0  0  0  0  3  0  0  0  0  0  0
  190.2560  174.9430  143.6790 N   0  0  0  0  0  0  0  0  0  0  0  0
  189.6510  174.8030  142.3830 C   0  0  0  0  0  0  0  0  0  0  0  0
  187.9860  176.5230  142.9770 N   0  0  0  0  0  0  0  0  0  0  0  0
  184.2920  178.4980  145.0580 C   0  0  0  0  0  3  0  0  0  0  0  0
  193.9790  176.4040  146.3560 C   0  0  0  0  0  2  0  0  0  0  0  0
  192.3320  174.5840  144.9320 C   0  0  2  0  0  3  0  0  0  0  0  0
  185.5530  178.3150  145.9190 C   0  0  0  0  0  3  0  0  0  0  0  0
  192.7270  175.9240  147.0780 C   0  0  0  0  0  2  0  0  0  0  0  0
  194.7040  174.0550  145.6670 C   0  0  0  0  0  0  0  0  0  0  0  0
  187.9310  175.3920  140.7770 C   0  0  0  0  0  3  0  0  0  0  0  0
  188.5250  175.5700  142.0410 C   0  0  0  0  0  0  0  0  0  0  0  0
  186.8360  177.3300  142.5400 C   0  0  0  0  0  2  0  0  0  0  0  0
  190.7830  176.4200  145.5730 C   0  0  0  0  0  2  0  0  0  0  0  0
  188.4160  177.8450  146.3630 O   0  0  0  0  0  0  0  0  0  0  0  0
  183.8810  178.1680  142.4710 C   0  0  0  0  0  1  0  0  0  0  0  0
  188.7930  176.9490  144.1460 C   0  0  2  0  0  3  0  0  0  0  0  0
  185.9900  177.6890  143.7090 C   0  0  0  0  0  0  0  0  0  0  0  0
  195.7710  173.1090  145.5010 N   0  0  0  0  0  2  0  0  0  0  0  0
  196.6610  172.9880  144.3830 C   0  0  0  0  0  0  0  0  0  0  0  0
  196.5440  173.7230  143.3680 O   0  0  0  0  0  0  0  0  0  0  0  0
  197.7390  171.9650  144.4210 C   0  0  0  0  0  1  0  0  0  0  0  0
  1 16  1  0  0  0  0
  2 24  1  6  0  0  0
  3 11  1  0  0  0  0
  4  3  2  0  0  0  0
  4 21  1  0  0  0  0
  5 25  2  0  0  0  0
  6  5  1  0  0  0  0
  6 18  1  0  0  0  0
  7 24  1  6  0  0  0
  7 19  1  0  0  0  0
  9 28  2  0  0  0  0
  9 15  1  0  0  0  0
 10 20  1  0  0  0  0
 11 13  2  0  0  0  0
 12  8  1  0  0  0  0
 12  2  1  0  0  0  0
 13 12  1  0  0  0  0
 14 27  1  0  0  0  0
 15 18  2  0  0  0  0
 16 19  1  0  0  0  0
 17  8  1  1  0  0  0
 17 10  1  0  0  0  0
 17  7  1  0  0  0  0
 20  1  2  0  0  0  0
 21 22  2  0  0  0  0
 22 13  1  0  0  0  0
 22 14  1  0  0  0  0
 23 14  1  0  0  0  0
 23 28  1  0  0  0  0
 26  9  1  0  0  0  0
 27  2  1  0  0  0  0
 27  5  1  1  0  0  0
 28  6  1  0  0  0  0
 29 20  1  0  0  0  0
 30 32  1  0  0  0  0
 30 29  1  0  0  0  0
 31 30  2  0  0  0  0
M  END
>  <MODEL>
2

>  <REMARK>
 VINA RESULT:      -9.0      1.155      1.324
  Name = 
  1 active torsions:
  status: ('A' for Active; 'I' for Inactive)
    1  A    between atoms: C_20  and  N_29
                            x       y       z     vdW  Elec       q    Type
                         _______ _______ _______ _____ _____    ______ ____

>  <TORSDO>
F 1

$$$$
=
 OpenBabel11112416293D

 32 37  0  0  1  0  0  0  0  0999 V2000
  183.7040  178.6660  144.8300 C   0  0  0  0  0  3  0  0  0  0  0  0
  188.8230  176.6790  144.3830 C   0  0  1  0  0  3  0  0  0  0  0  0
  188.2480  173.0290  141.0510 C   0  0  0  0  0  3  0  0  0  0  0  0
  189.3740  172.3790  141.5520 C   0  0  0  0  0  3  0  0  0  0  0  0
  190.7280  176.4960  146.0080 C   0  0  0  0  0  0  0  0  0  0  0  0
  192.0820  176.0510  146.0410 N   0  0  0  0  0  0  0  0  0  0  0  0
  186.9400  178.3330  144.5420 C   0  0  1  0  0  3  0  0  0  0  0  0
  187.0850  176.8270  142.5730 C   0  0  0  0  0  2  0  0  0  0  0  0
  193.7400  174.5600  145.7600 C   0  0  0  0  0  0  0  0  0  0  0  0
  185.1460  178.3820  142.7840 C   0  0  0  0  0  2  0  0  0  0  0  0
  187.8160  174.2210  141.6340 C   0  0  0  0  0  3  0  0  0  0  0  0
  188.0630  176.0180  143.3070 N   0  0  0  0  0  0  0  0  0  0  0  0
  188.5030  174.7780  142.7290 C   0  0  0  0  0  0  0  0  0  0  0  0
  190.3340  174.6610  144.3760 N   0  0  0  0  0  0  0  0  0  0  0  0
  194.3660  175.6910  146.5130 C   0  0  0  0  0  3  0  0  0  0  0  0
  184.7790  178.4430  145.8560 C   0  0  0  0  0  2  0  0  0  0  0  0
  186.1280  177.5030  143.5430 C   0  0  2  0  0  3  0  0  0  0  0  0
  193.2040  176.6770  146.7180 C   0  0  0  0  0  3  0  0  0  0  0  0
  186.0730  179.1610  145.4940 C   0  0  0  0  0  2  0  0  0  0  0  0
  183.8280  178.5780  143.4910 C   0  0  0  0  0  0  0  0  0  0  0  0
  190.0590  172.9200  142.6410 C   0  0  0  0  0  3  0  0  0  0  0  0
  189.6290  174.1170  143.2450 C   0  0  0  0  0  0  0  0  0  0  0  0
  191.4760  173.8950  144.9010 C   0  0  0  0  0  2  0  0  0  0  0  0
  187.8570  177.4070  145.3260 C   0  0  0  0  0  2  0  0  0  0  0  0
  190.3870  177.5020  146.6840 O   0  0  0  0  0  0  0  0  0  0  0  0
  194.4510  173.3040  145.3880 C   0  0  0  0  0  1  0  0  0  0  0  0
  189.6980  175.7110  145.2090 C   0  0  2  0  0  3  0  0  0  0  0  0
  192.4740  174.8150  145.5080 C   0  0  0  0  0  0  0  0  0  0  0  0
  182.6890  178.8080  142.6470 N   0  0  0  0  0  2  0  0  0  0  0  0
  182.5010  178.3610  141.2970 C   0  0  0  0  0  0  0  0  0  0  0  0
  183.3990  177.7250  140.6850 O   0  0  0  0  0  0  0  0  0  0  0  0
  181.2230  178.6660  140.6030 C   0  0  0  0  0  1  0  0  0  0  0  0
  1 16  1  0  0  0  0
  2 27  1  0  0  0  0
  2 24  1  1  0  0  0
  3  4  2  0  0  0  0
  3 11  1  0  0  0  0
  4 21  1  0  0  0  0
  5  6  1  0  0  0  0
  5 25  2  0  0  0  0
  6 18  1  0  0  0  0
  7 24  1  1  0  0  0
  7 19  1  0  0  0  0
  8 12  1  0  0  0  0
  9 15  1  0  0  0  0
 10 20  1  0  0  0  0
 10 17  1  0  0  0  0
 11 13  2  0  0  0  0
 12  2  1  0  0  0  0
 13 22  1  0  0  0  0
 13 12  1  0  0  0  0
 14 23  1  0  0  0  0
 14 27  1  0  0  0  0
 15 18  2  0  0  0  0
 17  8  1  6  0  0  0
 17  7  1  0  0  0  0
 19 16  1  0  0  0  0
 20  1  2  0  0  0  0
 21 22  2  0  0  0  0
 22 14  1  0  0  0  0
 23 28  1  0  0  0  0
 26  9  1  0  0  0  0
 27  5  1  6  0  0  0
 28  9  2  0  0  0  0
 28  6  1  0  0  0  0
 29 20  1  0  0  0  0
 30 29  1  0  0  0  0
 31 30  2  0  0  0  0
 32 30  1  0  0  0  0
M  END
>  <MODEL>
3

>  <REMARK>
 VINA RESULT:      -8.8      2.492      8.561
  Name = 
  1 active torsions:
  status: ('A' for Active; 'I' for Inactive)
    1  A    between atoms: C_20  and  N_29
                            x       y       z     vdW  Elec       q    Type
                         _______ _______ _______ _____ _____    ______ ____

>  <TORSDO>
F 1

$$$$
=
 OpenBabel11112416293D

 32 37  0  0  1  0  0  0  0  0999 V2000
  186.5950  177.0900  145.5860 C   0  0  0  0  0  3  0  0  0  0  0  0
  191.4340  174.6730  144.5400 C   0  0  1  0  0  3  0  0  0  0  0  0
  190.0880  170.7910  141.7350 C   0  0  0  0  0  3  0  0  0  0  0  0
  191.2380  170.1040  142.1160 C   0  0  0  0  0  3  0  0  0  0  0  0
  193.5670  174.4910  145.8530 C   0  0  0  0  0  0  0  0  0  0  0  0
  194.8770  173.9460  145.7160 N   0  0  0  0  0  0  0  0  0  0  0  0
  189.7110  176.4790  144.8240 C   0  0  1  0  0  3  0  0  0  0  0  0
  189.4330  174.7920  143.0230 C   0  0  0  0  0  2  0  0  0  0  0  0
  196.3690  172.3090  145.3310 C   0  0  0  0  0  0  0  0  0  0  0  0
  187.6570  176.5080  143.3770 C   0  0  0  0  0  2  0  0  0  0  0  0
  189.8340  172.0620  142.2540 C   0  0  0  0  0  3  0  0  0  0  0  0
  190.4660  173.9790  143.6720 N   0  0  0  0  0  0  0  0  0  0  0  0
  190.7260  172.6600  143.1620 C   0  0  0  0  0  0  0  0  0  0  0  0
  192.7940  172.5520  144.5020 N   0  0  0  0  0  0  0  0  0  0  0  0
  197.1800  173.4510  145.8550 C   0  0  0  0  0  3  0  0  0  0  0  0
  187.8090  176.8790  146.4450 C   0  0  0  0  0  2  0  0  0  0  0  0
  188.6940  175.6270  144.0570 C   0  0  2  0  0  3  0  0  0  0  0  0
  196.1330  174.5410  146.1390 C   0  0  0  0  0  3  0  0  0  0  0  0
  189.0670  177.4560  145.8110 C   0  0  0  0  0  2  0  0  0  0  0  0
  186.4890  176.8700  144.2610 C   0  0  0  0  0  0  0  0  0  0  0  0
  192.1270  170.6860  143.0210 C   0  0  0  0  0  3  0  0  0  0  0  0
  191.8780  171.9630  143.5590 C   0  0  0  0  0  0  0  0  0  0  0  0
  193.9560  171.7490  144.9150 C   0  0  0  0  0  2  0  0  0  0  0  0
  190.6850  175.5590  145.5440 C   0  0  0  0  0  2  0  0  0  0  0  0
  193.4060  175.5790  146.4670 O   0  0  0  0  0  0  0  0  0  0  0  0
  196.9280  170.9720  144.9820 C   0  0  0  0  0  1  0  0  0  0  0  0
  192.3710  173.7200  145.3120 C   0  0  2  0  0  3  0  0  0  0  0  0
  195.0960  172.6390  145.2580 C   0  0  0  0  0  0  0  0  0  0  0  0
  185.2440  177.1110  143.5880 N   0  0  0  0  0  2  0  0  0  0  0  0
  184.7790  178.3490  143.0320 C   0  0  0  0  0  0  0  0  0  0  0  0
  185.4530  179.4080  143.1330 O   0  0  0  0  0  0  0  0  0  0  0  0
  183.4700  178.3840  142.3300 C   0  0  0  0  0  1  0  0  0  0  0  0
  1 16  1  0  0  0  0
  2 27  1  0  0  0  0
  2 24  1  1  0  0  0
  3  4  2  0  0  0  0
  3 11  1  0  0  0  0
  4 21  1  0  0  0  0
  5 25  2  0  0  0  0
  6  5  1  0  0  0  0
  6 18  1  0  0  0  0
  7 24  1  1  0  0  0
  7 19  1  0  0  0  0
  8 12  1  0  0  0  0
  9 15  1  0  0  0  0
 10 17  1  0  0  0  0
 10 20  1  0  0  0  0
 11 13  2  0  0  0  0
 12  2  1  0  0  0  0
 13 22  1  0  0  0  0
 13 12  1  0  0  0  0
 14 23  1  0  0  0  0
 14 27  1  0  0  0  0
 15 18  2  0  0  0  0
 17  8  1  6  0  0  0
 17  7  1  0  0  0  0
 19 16  1  0  0  0  0
 20  1  2  0  0  0  0
 21 22  2  0  0  0  0
 22 14  1  0  0  0  0
 23 28  1  0  0  0  0
 26  9  1  0  0  0  0
 27  5  1  6  0  0  0
 28  9  2  0  0  0  0
 28  6  1  0  0  0  0
 29 20  1  0  0  0  0
 30 31  2  0  0  0  0
 30 29  1  0  0  0  0
 32 30  1  0  0  0  0
M  END
>  <MODEL>
4

>  <REMARK>
 VINA RESULT:      -8.2      2.338      8.506
  Name = 
  1 active torsions:
  status: ('A' for Active; 'I' for Inactive)
    1  A    between atoms: C_20  and  N_29
                            x       y       z     vdW  Elec       q    Type
                         _______ _______ _______ _____ _____    ______ ____

>  <TORSDO>
F 1

$$$$
=
 OpenBabel11112416293D

 32 37  0  0  1  0  0  0  0  0999 V2000
  195.0940  174.0260  145.6190 C   0  0  0  0  0  3  0  0  0  0  0  0
  190.0170  175.3120  143.9070 C   0  0  1  0  0  3  0  0  0  0  0  0
  189.4830  172.3970  139.9120 C   0  0  0  0  0  3  0  0  0  0  0  0
  188.5370  173.2740  139.3850 C   0  0  0  0  0  3  0  0  0  0  0  0
  188.6710  177.4300  144.0040 C   0  0  0  0  0  0  0  0  0  0  0  0
  187.3750  177.9040  143.6480 N   0  0  0  0  0  0  0  0  0  0  0  0
  191.9090  174.7280  145.4540 C   0  0  1  0  0  3  0  0  0  0  0  0
  191.1490  173.0720  143.7680 C   0  0  0  0  0  2  0  0  0  0  0  0
  185.6670  178.2880  142.2380 C   0  0  0  0  0  0  0  0  0  0  0  0
  193.1060  172.5320  145.2170 C   0  0  0  0  0  2  0  0  0  0  0  0
  190.1010  172.6890  141.1290 C   0  0  0  0  0  3  0  0  0  0  0  0
  190.4080  174.1450  143.0970 N   0  0  0  0  0  0  0  0  0  0  0  0
  189.7830  173.8650  141.8330 C   0  0  0  0  0  0  0  0  0  0  0  0
  188.5160  175.9750  141.9940 N   0  0  0  0  0  0  0  0  0  0  0  0
  185.3230  179.0560  143.4750 C   0  0  0  0  0  3  0  0  0  0  0  0
  194.3630  175.3380  145.5660 C   0  0  0  0  0  2  0  0  0  0  0  0
  192.3670  173.6390  144.4800 C   0  0  2  0  0  3  0  0  0  0  0  0
  186.5210  178.8010  144.4050 C   0  0  0  0  0  3  0  0  0  0  0  0
  193.0410  175.2870  146.3200 C   0  0  0  0  0  2  0  0  0  0  0  0
  194.5790  172.8000  145.4030 C   0  0  0  0  0  0  0  0  0  0  0  0
  188.2190  174.4450  140.0730 C   0  0  0  0  0  3  0  0  0  0  0  0
  188.8410  174.7570  141.2970 C   0  0  0  0  0  0  0  0  0  0  0  0
  187.5590  176.8910  141.3550 C   0  0  0  0  0  2  0  0  0  0  0  0
  191.2380  175.8450  144.6680 C   0  0  0  0  0  2  0  0  0  0  0  0
  189.2240  177.8580  145.0520 O   0  0  0  0  0  0  0  0  0  0  0  0
  184.8440  178.2840  140.9960 C   0  0  0  0  0  1  0  0  0  0  0  0
  189.3980  176.4610  143.0830 C   0  0  2  0  0  3  0  0  0  0  0  0
  186.8100  177.6520  142.3900 C   0  0  0  0  0  0  0  0  0  0  0  0
  195.4240  171.6420  145.4780 N   0  0  0  0  0  2  0  0  0  0  0  0
  196.5820  171.3550  144.6820 C   0  0  0  0  0  0  0  0  0  0  0  0
  196.9520  172.1280  143.7600 O   0  0  0  0  0  0  0  0  0  0  0  0
  197.3550  170.1140  144.9450 C   0  0  0  0  0  1  0  0  0  0  0  0
  2 24  1  6  0  0  0
  3 11  1  0  0  0  0
  4  3  2  0  0  0  0
  4 21  1  0  0  0  0
  5 25  2  0  0  0  0
  6  5  1  0  0  0  0
  6 18  1  0  0  0  0
  7 24  1  6  0  0  0
  7 19  1  0  0  0  0
  9 28  2  0  0  0  0
  9 15  1  0  0  0  0
 10 20  1  0  0  0  0
 11 13  2  0  0  0  0
 12  8  1  0  0  0  0
 12  2  1  0  0  0  0
 13 12  1  0  0  0  0
 14 27  1  0  0  0  0
 15 18  2  0  0  0  0
 16  1  1  0  0  0  0
 16 19  1  0  0  0  0
 17  8  1  1  0  0  0
 17 10  1  0  0  0  0
 17  7  1  0  0  0  0
 20 29  1  0  0  0  0
 20  1  2  0  0  0  0
 21 22  2  0  0  0  0
 22 13  1  0  0  0  0
 22 14  1  0  0  0  0
 23 14  1  0  0  0  0
 23 28  1  0  0  0  0
 26  9  1  0  0  0  0
 27  2  1  0  0  0  0
 27  5  1  1  0  0  0
 28  6  1  0  0  0  0
 30 32  1  0  0  0  0
 30 29  1  0  0  0  0
 31 30  2  0  0  0  0
M  END
>  <MODEL>
5

>  <REMARK>
 VINA RESULT:      -8.1      1.599      2.139
  Name = 
  1 active torsions:
  status: ('A' for Active; 'I' for Inactive)
    1  A    between atoms: C_20  and  N_29
                            x       y       z     vdW  Elec       q    Type
                         _______ _______ _______ _____ _____    ______ ____

>  <TORSDO>
F 1

$$$$
=
 OpenBabel11112416293D

 32 37  0  0  1  0  0  0  0  0999 V2000
  191.3010  171.7180  140.1980 C   0  0  0  0  0  3  0  0  0  0  0  0
  189.1430  175.7690  143.2460 C   0  0  1  0  0  3  0  0  0  0  0  0
  192.5050  176.2570  146.8800 C   0  0  0  0  0  3  0  0  0  0  0  0
  191.5320  176.7910  147.7230 C   0  0  0  0  0  3  0  0  0  0  0  0
  186.7790  176.4620  143.7320 C   0  0  0  0  0  0  0  0  0  0  0  0
  186.0750  177.4720  144.4500 N   0  0  0  0  0  0  0  0  0  0  0  0
  189.8850  174.4760  141.2240 C   0  0  1  0  0  3  0  0  0  0  0  0
  191.5790  175.3020  142.8390 C   0  0  0  0  0  2  0  0  0  0  0  0
  185.5440  178.6760  146.2720 C   0  0  0  0  0  0  0  0  0  0  0  0
  192.3120  173.9150  140.9000 C   0  0  0  0  0  2  0  0  0  0  0  0
  192.1590  175.8470  145.5920 C   0  0  0  0  0  3  0  0  0  0  0  0
  190.4950  175.5600  143.7920 N   0  0  0  0  0  0  0  0  0  0  0  0
  190.8360  175.9630  145.1300 C   0  0  0  0  0  0  0  0  0  0  0  0
  188.4870  176.5980  145.5340 N   0  0  0  0  0  0  0  0  0  0  0  0
  184.5070  179.0410  145.2570 C   0  0  0  0  0  3  0  0  0  0  0  0
  189.8810  172.0270  140.5820 C   0  0  0  0  0  2  0  0  0  0  0  0
  191.2090  174.1480  141.9210 C   0  0  2  0  0  3  0  0  0  0  0  0
  184.8760  178.1800  144.0370 C   0  0  0  0  0  3  0  0  0  0  0  0
  189.4740  173.4370  140.1770 C   0  0  0  0  0  2  0  0  0  0  0  0
  192.3830  172.4980  140.3890 C   0  0  0  0  0  0  0  0  0  0  0  0
  190.2150  176.9060  147.2770 C   0  0  0  0  0  3  0  0  0  0  0  0
  189.8510  176.4880  145.9830 C   0  0  0  0  0  0  0  0  0  0  0  0
  187.4940  177.1080  146.4920 C   0  0  0  0  0  2  0  0  0  0  0  0
  188.7970  174.6320  142.2760 C   0  0  0  0  0  2  0  0  0  0  0  0
  186.3180  176.0400  142.6380 O   0  0  0  0  0  0  0  0  0  0  0  0
  185.5680  179.1930  147.6690 C   0  0  0  0  0  1  0  0  0  0  0  0
  188.0440  175.8590  144.3260 C   0  0  2  0  0  3  0  0  0  0  0  0
  186.4010  177.8130  145.7700 C   0  0  0  0  0  0  0  0  0  0  0  0
  193.6790  172.0430  139.9730 N   0  0  0  0  0  2  0  0  0  0  0  0
  194.7100  171.4800  140.7960 C   0  0  0  0  0  0  0  0  0  0  0  0
  194.5690  171.3710  142.0430 O   0  0  0  0  0  0  0  0  0  0  0  0
  195.9760  171.0240  140.1650 C   0  0  0  0  0  1  0  0  0  0  0  0
  1 20  2  0  0  0  0
  1 16  1  0  0  0  0
  2 24  1  6  0  0  0
  2 12  1  0  0  0  0
  2 27  1  0  0  0  0
  3  4  1  0  0  0  0
  5  6  1  0  0  0  0
  6 28  1  0  0  0  0
  7 19  1  6  0  0  0
  7 17  1  0  0  0  0
  7 24  1  0  0  0  0
  8 12  1  0  0  0  0
  9 26  1  0  0  0  0
 11  3  2  0  0  0  0
 12 13  1  0  0  0  0
 13 11  1  0  0  0  0
 13 22  2  0  0  0  0
 14 22  1  0  0  0  0
 14 23  1  0  0  0  0
 15  9  1  0  0  0  0
 17 10  1  6  0  0  0
 17  8  1  0  0  0  0
 18  6  1  0  0  0  0
 18 15  2  0  0  0  0
 19 16  1  0  0  0  0
 20 10  1  0  0  0  0
 21  4  2  0  0  0  0
 22 21  1  0  0  0  0
 25  5  2  0  0  0  0
 27  5  1  6  0  0  0
 27 14  1  0  0  0  0
 28  9  2  0  0  0  0
 28 23  1  0  0  0  0
 29 20  1  0  0  0  0
 29 30  1  0  0  0  0
 30 31  2  0  0  0  0
 32 30  1  0  0  0  0
M  END
>  <MODEL>
6

>  <REMARK>
 VINA RESULT:      -8.1      2.541      4.705
  Name = 
  1 active torsions:
  status: ('A' for Active; 'I' for Inactive)
    1  A    between atoms: C_20  and  N_29
                            x       y       z     vdW  Elec       q    Type
                         _______ _______ _______ _____ _____    ______ ____

>  <TORSDO>
F 1

$$$$
=
 OpenBabel11112416293D

 32 37  0  0  1  0  0  0  0  0999 V2000
  193.7070  172.7960  142.7610 C   0  0  0  0  0  3  0  0  0  0  0  0
  189.4140  176.2490  142.7550 C   0  0  1  0  0  3  0  0  0  0  0  0
  189.0890  177.5330  147.5500 C   0  0  0  0  0  3  0  0  0  0  0  0
  187.7370  177.8300  147.3900 C   0  0  0  0  0  3  0  0  0  0  0  0
  187.3280  176.3720  141.3620 C   0  0  0  0  0  0  0  0  0  0  0  0
  186.1730  177.1940  141.2170 N   0  0  0  0  0  0  0  0  0  0  0  0
  191.5610  175.1530  142.0500 C   0  0  1  0  0  3  0  0  0  0  0  0
  191.4560  176.3630  144.2160 C   0  0  0  0  0  2  0  0  0  0  0  0
  184.3260  178.2520  141.9400 C   0  0  0  0  0  0  0  0  0  0  0  0
  193.5550  175.1740  143.5790 C   0  0  0  0  0  2  0  0  0  0  0  0
  189.8260  177.0460  146.4700 C   0  0  0  0  0  3  0  0  0  0  0  0
  189.9940  176.3650  144.1040 N   0  0  0  0  0  0  0  0  0  0  0  0
  189.2200  176.8460  145.2160 C   0  0  0  0  0  0  0  0  0  0  0  0
  187.2120  176.9160  143.7860 N   0  0  0  0  0  0  0  0  0  0  0  0
  184.2680  178.3570  140.4490 C   0  0  0  0  0  3  0  0  0  0  0  0
  192.4070  172.7670  142.0090 C   0  0  0  0  0  2  0  0  0  0  0  0
  192.0360  175.1490  143.5070 C   0  0  2  0  0  3  0  0  0  0  0  0
  185.5230  177.5990  139.9830 C   0  0  0  0  0  3  0  0  0  0  0  0
  192.1840  174.0400  141.2030 C   0  0  0  0  0  2  0  0  0  0  0  0
  194.1930  173.8090  143.5060 C   0  0  0  0  0  0  0  0  0  0  0  0
  187.1250  177.6300  146.1520 C   0  0  0  0  0  3  0  0  0  0  0  0
  187.8540  177.1310  145.0570 C   0  0  0  0  0  0  0  0  0  0  0  0
  185.7690  177.1850  143.6980 C   0  0  0  0  0  2  0  0  0  0  0  0
  190.0430  175.0560  142.0240 C   0  0  0  0  0  2  0  0  0  0  0  0
  187.8500  175.8470  140.3430 O   0  0  0  0  0  0  0  0  0  0  0  0
  183.2730  178.7690  142.8590 C   0  0  0  0  0  1  0  0  0  0  0  0
  187.8780  176.0860  142.7520 C   0  0  2  0  0  3  0  0  0  0  0  0
  185.4110  177.6100  142.3180 C   0  0  0  0  0  0  0  0  0  0  0  0
  195.4540  173.6680  144.1770 N   0  0  0  0  0  2  0  0  0  0  0  0
  195.7660  172.7950  145.2710 C   0  0  0  0  0  0  0  0  0  0  0  0
  194.8870  172.0630  145.7970 O   0  0  0  0  0  0  0  0  0  0  0  0
  197.1540  172.7620  145.8020 C   0  0  0  0  0  1  0  0  0  0  0  0
  1 20  2  0  0  0  0
  2 24  1  1  0  0  0
  2 12  1  0  0  0  0
  4  3  1  0  0  0  0
  6  5  1  0  0  0  0
  6 28  1  0  0  0  0
  7 19  1  6  0  0  0
  7 17  1  0  0  0  0
  9 28  2  0  0  0  0
  9 26  1  0  0  0  0
 11  3  2  0  0  0  0
 12  8  1  0  0  0  0
 12 13  1  0  0  0  0
 13 11  1  0  0  0  0
 14 22  1  0  0  0  0
 15  9  1  0  0  0  0
 16  1  1  0  0  0  0
 17 10  1  6  0  0  0
 17  8  1  0  0  0  0
 18 15  2  0  0  0  0
 18  6  1  0  0  0  0
 19 16  1  0  0  0  0
 20 10  1  0  0  0  0
 20 29  1  0  0  0  0
 21  4  2  0  0  0  0
 22 13  2  0  0  0  0
 22 21  1  0  0  0  0
 23 14  1  0  0  0  0
 24  7  1  0  0  0  0
 25  5  2  0  0  0  0
 27  5  1  6  0  0  0
 27  2  1  0  0  0  0
 27 14  1  0  0  0  0
 28 23  1  0  0  0  0
 29 30  1  0  0  0  0
 30 31  2  0  0  0  0
 30 32  1  0  0  0  0
M  END
>  <MODEL>
7

>  <REMARK>
 VINA RESULT:      -7.8      2.250      4.282
  Name = 
  1 active torsions:
  status: ('A' for Active; 'I' for Inactive)
    1  A    between atoms: C_20  and  N_29
                            x       y       z     vdW  Elec       q    Type
                         _______ _______ _______ _____ _____    ______ ____

>  <TORSDO>
F 1

$$$$
=
 OpenBabel11112416293D

 32 37  0  0  1  0  0  0  0  0999 V2000
  193.1770  170.4130  142.9700 C   0  0  0  0  0  3  0  0  0  0  0  0
  190.3190  175.1110  143.3250 C   0  0  1  0  0  3  0  0  0  0  0  0
  191.5980  176.7820  147.8330 C   0  0  0  0  0  3  0  0  0  0  0  0
  190.4120  177.5080  147.9120 C   0  0  0  0  0  3  0  0  0  0  0  0
  188.1040  175.8330  142.3900 C   0  0  0  0  0  0  0  0  0  0  0  0
  187.2660  176.9860  142.3630 N   0  0  0  0  0  0  0  0  0  0  0  0
  191.7730  173.3000  142.3680 C   0  0  1  0  0  3  0  0  0  0  0  0
  192.5870  174.6310  144.2990 C   0  0  0  0  0  2  0  0  0  0  0  0
  186.0810  178.6600  143.2820 C   0  0  0  0  0  0  0  0  0  0  0  0
  193.9830  172.7550  143.4320 C   0  0  0  0  0  2  0  0  0  0  0  0
  191.8570  175.9940  146.7110 C   0  0  0  0  0  3  0  0  0  0  0  0
  191.2190  175.1230  144.4920 N   0  0  0  0  0  0  0  0  0  0  0  0
  190.9320  175.9190  145.6540 C   0  0  0  0  0  0  0  0  0  0  0  0
  188.7610  176.5620  144.6740 N   0  0  0  0  0  0  0  0  0  0  0  0
  185.6970  178.6670  141.8360 C   0  0  0  0  0  3  0  0  0  0  0  0
  191.7900  170.7730  142.5150 C   0  0  0  0  0  2  0  0  0  0  0  0
  192.5640  173.2430  143.6780 C   0  0  2  0  0  3  0  0  0  0  0  0
  186.4950  177.4950  141.2420 C   0  0  0  0  0  3  0  0  0  0  0  0
  191.7880  171.9820  141.5890 C   0  0  0  0  0  2  0  0  0  0  0  0
  194.1220  171.2530  143.4360 C   0  0  0  0  0  0  0  0  0  0  0  0
  189.4850  177.4380  146.8720 C   0  0  0  0  0  3  0  0  0  0  0  0
  189.7290  176.6400  145.7380 C   0  0  0  0  0  0  0  0  0  0  0  0
  187.5000  177.3000  144.8450 C   0  0  0  0  0  2  0  0  0  0  0  0
  190.3440  173.7240  142.6690 C   0  0  0  0  0  2  0  0  0  0  0  0
  188.1690  175.0870  141.3760 O   0  0  0  0  0  0  0  0  0  0  0  0
  185.5020  179.5720  144.3090 C   0  0  0  0  0  1  0  0  0  0  0  0
  188.8590  175.4810  143.6630 C   0  0  2  0  0  3  0  0  0  0  0  0
  186.9680  177.7170  143.5210 C   0  0  0  0  0  0  0  0  0  0  0  0
  195.3990  170.7410  143.8460 N   0  0  0  0  0  2  0  0  0  0  0  0
  195.8200  170.4170  145.1780 C   0  0  0  0  0  0  0  0  0  0  0  0
  195.0680  170.6080  146.1700 O   0  0  0  0  0  0  0  0  0  0  0  0
  197.1780  169.8510  145.3930 C   0  0  0  0  0  1  0  0  0  0  0  0
  1 20  2  0  0  0  0
  2 24  1  1  0  0  0
  2 27  1  0  0  0  0
  2 12  1  0  0  0  0
  3  4  1  0  0  0  0
  6  5  1  0  0  0  0
  6 28  1  0  0  0  0
  7 19  1  1  0  0  0
  7 24  1  0  0  0  0
  7 17  1  0  0  0  0
  8 12  1  0  0  0  0
  9 28  2  0  0  0  0
  9 26  1  0  0  0  0
 10 20  1  0  0  0  0
 11  3  2  0  0  0  0
 12 13  1  0  0  0  0
 13 22  2  0  0  0  0
 13 11  1  0  0  0  0
 14 23  1  0  0  0  0
 14 22  1  0  0  0  0
 15  9  1  0  0  0  0
 16  1  1  0  0  0  0
 17 10  1  6  0  0  0
 17  8  1  0  0  0  0
 18 15  2  0  0  0  0
 18  6  1  0  0  0  0
 19 16  1  0  0  0  0
 20 29  1  0  0  0  0
 21  4  2  0  0  0  0
 22 21  1  0  0  0  0
 25  5  2  0  0  0  0
 27  5  1  6  0  0  0
 27 14  1  0  0  0  0
 28 23  1  0  0  0  0
 29 30  1  0  0  0  0
 30 32  1  0  0  0  0
 30 31  2  0  0  0  0
M  END
>  <MODEL>
8

>  <REMARK>
 VINA RESULT:      -7.8      2.200      4.287
  Name = 
  1 active torsions:
  status: ('A' for Active; 'I' for Inactive)
    1  A    between atoms: C_20  and  N_29
                            x       y       z     vdW  Elec       q    Type
                         _______ _______ _______ _____ _____    ______ ____

>  <TORSDO>
F 1

$$$$
=
 OpenBabel11112416293D

 32 37  0  0  1  0  0  0  0  0999 V2000
  185.9390  177.9880  141.0000 C   0  0  0  0  0  3  0  0  0  0  0  0
  190.0840  175.4240  143.5690 C   0  0  1  0  0  3  0  0  0  0  0  0
  190.0250  177.5670  148.0590 C   0  0  0  0  0  3  0  0  0  0  0  0
  191.3720  177.2580  148.2360 C   0  0  0  0  0  3  0  0  0  0  0  0
  192.2550  174.4580  142.7580 C   0  0  0  0  0  0  0  0  0  0  0  0
  193.3840  173.7560  143.2710 N   0  0  0  0  0  0  0  0  0  0  0  0
  188.0350  175.7670  142.1570 C   0  0  1  0  0  3  0  0  0  0  0  0
  187.9420  176.2550  144.5890 C   0  0  0  0  0  2  0  0  0  0  0  0
  195.1340  173.4490  144.6490 C   0  0  0  0  0  0  0  0  0  0  0  0
  185.9410  176.7130  143.1720 C   0  0  0  0  0  2  0  0  0  0  0  0
  189.3840  177.2240  146.8670 C   0  0  0  0  0  3  0  0  0  0  0  0
  189.4070  176.2030  144.6210 N   0  0  0  0  0  0  0  0  0  0  0  0
  190.0830  176.5710  145.8360 C   0  0  0  0  0  0  0  0  0  0  0  0
  192.1810  175.6200  144.9540 N   0  0  0  0  0  0  0  0  0  0  0  0
  195.2900  172.4020  143.5930 C   0  0  0  0  0  3  0  0  0  0  0  0
  187.2890  177.5410  140.5130 C   0  0  0  0  0  2  0  0  0  0  0  0
  187.4610  176.7090  143.2200 C   0  0  2  0  0  3  0  0  0  0  0  0
  194.1020  172.6570  142.6500 C   0  0  0  0  0  3  0  0  0  0  0  0
  187.5170  176.0530  140.7450 C   0  0  0  0  0  2  0  0  0  0  0  0
  185.3640  177.6940  142.1820 C   0  0  0  0  0  0  0  0  0  0  0  0
  192.0760  176.6150  147.2170 C   0  0  0  0  0  3  0  0  0  0  0  0
  191.4440  176.2720  146.0070 C   0  0  0  0  0  0  0  0  0  0  0  0
  193.6150  175.3800  145.1760 C   0  0  0  0  0  2  0  0  0  0  0  0
  189.5540  175.8460  142.1930 C   0  0  0  0  0  2  0  0  0  0  0  0
  191.8250  174.1870  141.6050 O   0  0  0  0  0  0  0  0  0  0  0  0
  196.0990  173.6690  145.7630 C   0  0  0  0  0  1  0  0  0  0  0  0
  191.6210  175.5690  143.5820 C   0  0  2  0  0  3  0  0  0  0  0  0
  194.0510  174.1660  144.4340 C   0  0  0  0  0  0  0  0  0  0  0  0
  184.0650  178.2180  142.5000 N   0  0  0  0  0  2  0  0  0  0  0  0
  182.9210  178.2910  141.6390 C   0  0  0  0  0  0  0  0  0  0  0  0
  182.9780  177.9160  140.4380 O   0  0  0  0  0  0  0  0  0  0  0  0
  181.6430  178.8300  142.1730 C   0  0  0  0  0  1  0  0  0  0  0  0
  1 20  2  0  0  0  0
  2 24  1  6  0  0  0
  2 27  1  0  0  0  0
  2 12  1  0  0  0  0
  3  4  1  0  0  0  0
  5  6  1  0  0  0  0
  6 28  1  0  0  0  0
  7 19  1  6  0  0  0
  7 24  1  0  0  0  0
  7 17  1  0  0  0  0
  8 12  1  0  0  0  0
  9 26  1  0  0  0  0
 11  3  2  0  0  0  0
 12 13  1  0  0  0  0
 13 22  2  0  0  0  0
 13 11  1  0  0  0  0
 14 23  1  0  0  0  0
 14 22  1  0  0  0  0
 15  9  1  0  0  0  0
 16 19  1  0  0  0  0
 16  1  1  0  0  0  0
 17 10  1  1  0  0  0
 17  8  1  0  0  0  0
 18  6  1  0  0  0  0
 18 15  2  0  0  0  0
 20 29  1  0  0  0  0
 20 10  1  0  0  0  0
 21  4  2  0  0  0  0
 22 21  1  0  0  0  0
 25  5  2  0  0  0  0
 27  5  1  6  0  0  0
 27 14  1  0  0  0  0
 28  9  2  0  0  0  0
 28 23  1  0  0  0  0
 30 32  1  0  0  0  0
 30 29  1  0  0  0  0
 31 30  2  0  0  0  0
M  END
>  <MODEL>
9

>  <REMARK>
 VINA RESULT:      -7.8      2.846      9.221
  Name = 
  1 active torsions:
  status: ('A' for Active; 'I' for Inactive)
    1  A    between atoms: C_20  and  N_29
                            x       y       z     vdW  Elec       q    Type
                         _______ _______ _______ _____ _____    ______ ____

>  <TORSDO>
F 1

$$$$
