=
 OpenBabel11112417363D

 28 31  0  0  1  0  0  0  0  0999 V2000
  187.8290  177.6350  144.6080 C   0  0  0  0  0  0  0  0  0  0  0  0
  190.7970  177.7830  147.4370 O   0  0  0  0  0  0  0  0  0  0  0  0
  185.7310  177.0080  146.3520 C   0  0  0  0  0  3  0  0  0  0  0  0
  188.8790  177.9380  143.7390 O   0  0  0  0  0  0  0  0  0  0  0  0
  190.4750  175.4020  147.9670 O   0  0  0  0  0  0  0  0  0  0  0  0
  191.0640  176.3750  146.9860 S   0  0  0  0  0  0  0  0  0  0  0  0
  193.2070  176.5140  145.5010 C   0  0  1  0  0  3  0  0  0  0  0  0
  190.4010  176.1180  145.3620 C   0  0  1  0  0  3  0  0  0  0  0  0
  186.7130  177.2010  141.3840 C   0  0  0  0  0  1  0  0  0  0  0  0
  189.1040  174.6450  144.0030 C   0  0  2  0  0  3  0  0  0  0  0  0
  192.6430  175.6070  144.3820 C   0  0  0  0  0  2  0  0  0  0  0  0
  192.7790  176.1050  146.8460 N   0  0  0  0  0  2  0  0  0  0  0  0
  188.2280  177.2900  141.4820 C   0  0  2  0  0  3  0  0  0  0  0  0
  187.9030  176.4770  145.4060 C   0  0  0  0  0  0  0  0  0  0  0  0
  194.7190  176.5330  145.4280 C   0  0  0  0  0  1  0  0  0  0  0  0
  188.9090  175.9430  141.7730 C   0  0  0  0  0  2  0  0  0  0  0  0
  186.8470  176.1700  146.2710 C   0  0  0  0  0  3  0  0  0  0  0  0
  186.7020  178.4650  144.6840 C   0  0  0  0  0  3  0  0  0  0  0  0
  185.6580  178.1530  145.5580 C   0  0  0  0  0  3  0  0  0  0  0  0
  188.6690  178.4170  142.4170 C   0  0  0  0  0  2  0  0  0  0  0  0
  190.5140  174.5300  143.5960 N   0  0  0  0  0  0  0  0  0  0  0  0
  188.1930  175.1060  142.8440 C   0  0  1  0  0  3  0  0  0  0  0  0
  191.2550  175.0650  144.7300 C   0  0  2  0  0  3  0  0  0  0  0  0
  189.0390  175.4900  145.2950 C   0  0  2  0  0  3  0  0  0  0  0  0
  188.3020  173.8090  141.0530 C   0  0  0  0  0  1  0  0  0  0  0  0
  187.5990  173.9930  142.2440 O   0  0  0  0  0  0  0  0  0  0  0  0
  190.8220  173.1100  143.5190 C   0  0  0  0  0  2  0  0  0  0  0  0
  190.0340  172.3560  144.5720 C   0  0  0  0  0  1  0  0  0  0  0  0
  1 18  2  0  0  0  0
  1 14  1  0  0  0  0
  4  1  1  0  0  0  0
  6  2  2  0  0  0  0
  6  5  2  0  0  0  0
  7 15  1  1  0  0  0
  7 12  1  0  0  0  0
  8  6  1  1  0  0  0
 10 21  1  6  0  0  0
 10 24  1  0  0  0  0
 11  7  1  0  0  0  0
 12  6  1  0  0  0  0
 13  9  1  1  0  0  0
 13 16  1  0  0  0  0
 13 20  1  0  0  0  0
 14 17  2  0  0  0  0
 16 22  1  0  0  0  0
 17  3  1  0  0  0  0
 18 19  1  0  0  0  0
 19  3  2  0  0  0  0
 20  4  1  0  0  0  0
 21 23  1  0  0  0  0
 22 26  1  6  0  0  0
 22 10  1  0  0  0  0
 23 11  1  6  0  0  0
 23  8  1  0  0  0  0
 24  8  1  0  0  0  0
 24 14  1  6  0  0  0
 25 26  1  0  0  0  0
 27 21  1  0  0  0  0
 27 28  1  0  0  0  0
M  END
>  <MODEL>
1

>  <REMARK>
 VINA RESULT:      -7.2      0.000      0.000
  Name = 
  2 active torsions:
  status: ('A' for Active; 'I' for Inactive)
    1  A    between atoms: C_5  and  N_24
    2  A    between atoms: O_17  and  C_25
                            x       y       z     vdW  Elec       q    Type
                         _______ _______ _______ _____ _____    ______ ____

>  <TORSDO>
F 2

$$$$
=
 OpenBabel11112417363D

 28 31  0  0  1  0  0  0  0  0999 V2000
  189.3520  176.3270  144.7530 C   0  0  0  0  0  0  0  0  0  0  0  0
  193.3460  176.7680  145.5870 O   0  0  0  0  0  0  0  0  0  0  0  0
  188.6220  175.1800  147.2010 C   0  0  0  0  0  3  0  0  0  0  0  0
  189.7210  176.8900  143.5310 O   0  0  0  0  0  0  0  0  0  0  0  0
  193.6200  174.3310  145.7910 O   0  0  0  0  0  0  0  0  0  0  0  0
  193.4730  175.4770  144.8290 S   0  0  0  0  0  0  0  0  0  0  0  0
  194.4340  176.1310  142.4920 C   0  0  1  0  0  3  0  0  0  0  0  0
  192.0650  175.2450  143.7780 C   0  0  1  0  0  3  0  0  0  0  0  0
  186.7160  175.9770  142.5730 C   0  0  0  0  0  1  0  0  0  0  0  0
  190.4030  173.6830  143.0700 C   0  0  2  0  0  3  0  0  0  0  0  0
  193.4530  175.2370  141.6990 C   0  0  0  0  0  2  0  0  0  0  0  0
  194.8520  175.5360  143.7690 N   0  0  0  0  0  2  0  0  0  0  0  0
  188.0210  176.3310  141.8770 C   0  0  2  0  0  3  0  0  0  0  0  0
  189.9720  175.1370  145.1840 C   0  0  0  0  0  0  0  0  0  0  0  0
  195.6500  176.4310  141.6430 C   0  0  0  0  0  1  0  0  0  0  0  0
  188.8890  175.1110  141.5330 C   0  0  0  0  0  2  0  0  0  0  0  0
  189.5960  174.5700  146.4060 C   0  0  0  0  0  3  0  0  0  0  0  0
  188.3670  176.9290  145.5490 C   0  0  0  0  0  3  0  0  0  0  0  0
  188.0060  176.3570  146.7720 C   0  0  0  0  0  3  0  0  0  0  0  0
  188.7760  177.4350  142.6200 C   0  0  0  0  0  2  0  0  0  0  0  0
  191.3680  173.8620  141.9730 N   0  0  0  0  0  0  0  0  0  0  0  0
  188.9660  174.0680  142.6590 C   0  0  1  0  0  3  0  0  0  0  0  0
  192.5450  174.4230  142.6230 C   0  0  2  0  0  3  0  0  0  0  0  0
  190.9630  174.3870  144.3270 C   0  0  2  0  0  3  0  0  0  0  0  0
  188.1490  173.0140  140.8910 C   0  0  0  0  0  1  0  0  0  0  0  0
  188.2640  172.9220  142.2790 O   0  0  0  0  0  0  0  0  0  0  0  0
  191.7340  172.5330  141.5040 C   0  0  0  0  0  2  0  0  0  0  0  0
  191.6530  172.4840  139.9910 C   0  0  0  0  0  1  0  0  0  0  0  0
  1 14  2  0  0  0  0
  1 18  1  0  0  0  0
  4  1  1  0  0  0  0
  6  2  2  0  0  0  0
  6  5  2  0  0  0  0
  7 15  1  6  0  0  0
  7 12  1  0  0  0  0
  8 24  1  0  0  0  0
  8  6  1  1  0  0  0
 10 21  1  6  0  0  0
 10 24  1  0  0  0  0
 11  7  1  0  0  0  0
 12  6  1  0  0  0  0
 13  9  1  1  0  0  0
 13 20  1  0  0  0  0
 14 17  1  0  0  0  0
 16 13  1  0  0  0  0
 16 22  1  0  0  0  0
 17  3  2  0  0  0  0
 18 19  2  0  0  0  0
 19  3  1  0  0  0  0
 20  4  1  0  0  0  0
 21 23  1  0  0  0  0
 22 26  1  6  0  0  0
 22 10  1  0  0  0  0
 23 11  1  6  0  0  0
 23  8  1  0  0  0  0
 24 14  1  6  0  0  0
 25 26  1  0  0  0  0
 27 21  1  0  0  0  0
 28 27  1  0  0  0  0
M  END
>  <MODEL>
2

>  <REMARK>
 VINA RESULT:      -7.1      2.184      2.679
  Name = 
  2 active torsions:
  status: ('A' for Active; 'I' for Inactive)
    1  A    between atoms: C_5  and  N_24
    2  A    between atoms: O_17  and  C_25
                            x       y       z     vdW  Elec       q    Type
                         _______ _______ _______ _____ _____    ______ ____

>  <TORSDO>
F 2

$$$$
=
 OpenBabel11112417363D

 28 31  0  0  1  0  0  0  0  0999 V2000
  188.6940  175.7900  145.0670 C   0  0  0  0  0  0  0  0  0  0  0  0
  187.5550  173.1870  142.1060 O   0  0  0  0  0  0  0  0  0  0  0  0
  187.4700  178.0710  143.9980 C   0  0  0  0  0  3  0  0  0  0  0  0
  189.3100  174.6540  145.5920 O   0  0  0  0  0  0  0  0  0  0  0  0
  188.8440  174.4510  140.4340 O   0  0  0  0  0  0  0  0  0  0  0  0
  188.9300  173.4660  141.5660 S   0  0  0  0  0  0  0  0  0  0  0  0
  190.3490  171.3530  142.1440 C   0  0  1  0  0  3  0  0  0  0  0  0
  189.9810  174.0740  142.8580 C   0  0  1  0  0  3  0  0  0  0  0  0
  190.7790  176.7830  147.6140 C   0  0  0  0  0  1  0  0  0  0  0  0
  191.5710  175.7580  143.4390 C   0  0  2  0  0  3  0  0  0  0  0  0
  191.5710  172.1560  142.6480 C   0  0  0  0  0  2  0  0  0  0  0  0
  189.6680  171.9910  141.0090 N   0  0  0  0  0  2  0  0  0  0  0  0
  191.0530  175.3640  147.1390 C   0  0  2  0  0  3  0  0  0  0  0  0
  189.0340  176.2280  143.7710 C   0  0  0  0  0  0  0  0  0  0  0  0
  190.7820  169.9540  141.7610 C   0  0  0  0  0  1  0  0  0  0  0  0
  192.0160  175.2870  145.9440 C   0  0  0  0  0  2  0  0  0  0  0  0
  188.4200  177.3720  143.2490 C   0  0  0  0  0  3  0  0  0  0  0  0
  187.7490  176.5030  145.8190 C   0  0  0  0  0  3  0  0  0  0  0  0
  187.1360  177.6380  145.2830 C   0  0  0  0  0  3  0  0  0  0  0  0
  189.7580  174.5760  146.9390 C   0  0  0  0  0  2  0  0  0  0  0  0
  192.2870  174.4840  143.2650 N   0  0  0  0  0  0  0  0  0  0  0  0
  191.7420  176.3400  144.8590 C   0  0  1  0  0  3  0  0  0  0  0  0
  191.3710  173.6640  142.4840 C   0  0  2  0  0  3  0  0  0  0  0  0
  190.1160  175.5660  142.9540 C   0  0  2  0  0  3  0  0  0  0  0  0
  193.8080  176.6880  145.5750 C   0  0  0  0  0  1  0  0  0  0  0  0
  192.7710  177.2840  144.8580 O   0  0  0  0  0  0  0  0  0  0  0  0
  193.4410  174.7540  142.4200 C   0  0  0  0  0  2  0  0  0  0  0  0
  194.6890  174.1740  143.0560 C   0  0  0  0  0  1  0  0  0  0  0  0
  1  4  1  0  0  0  0
  1 18  1  0  0  0  0
  3 19  1  0  0  0  0
  4 20  1  0  0  0  0
  5  6  2  0  0  0  0
  6  2  2  0  0  0  0
  7 15  1  6  0  0  0
  7 11  1  0  0  0  0
  8  6  1  6  0  0  0
  8 24  1  0  0  0  0
 10 21  1  1  0  0  0
 10 22  1  0  0  0  0
 12  6  1  0  0  0  0
 12  7  1  0  0  0  0
 13  9  1  6  0  0  0
 14  1  2  0  0  0  0
 16 13  1  0  0  0  0
 17 14  1  0  0  0  0
 17  3  2  0  0  0  0
 19 18  2  0  0  0  0
 20 13  1  0  0  0  0
 22 26  1  6  0  0  0
 22 16  1  0  0  0  0
 23 11  1  1  0  0  0
 23  8  1  0  0  0  0
 23 21  1  0  0  0  0
 24 10  1  0  0  0  0
 24 14  1  1  0  0  0
 26 25  1  0  0  0  0
 27 28  1  0  0  0  0
 27 21  1  0  0  0  0
M  END
>  <MODEL>
3

>  <REMARK>
 VINA RESULT:      -7.1      2.318      5.244
  Name = 
  2 active torsions:
  status: ('A' for Active; 'I' for Inactive)
    1  A    between atoms: C_5  and  N_24
    2  A    between atoms: O_17  and  C_25
                            x       y       z     vdW  Elec       q    Type
                         _______ _______ _______ _____ _____    ______ ____

>  <TORSDO>
F 2

$$$$
=
 OpenBabel11112417363D

 28 31  0  0  1  0  0  0  0  0999 V2000
  192.5110  174.1290  143.7070 C   0  0  0  0  0  0  0  0  0  0  0  0
  189.6310  174.0570  140.7860 O   0  0  0  0  0  0  0  0  0  0  0  0
  192.6750  171.3600  144.0870 C   0  0  0  0  0  3  0  0  0  0  0  0
  192.4220  175.5090  143.5220 O   0  0  0  0  0  0  0  0  0  0  0  0
  188.0090  173.0590  142.3440 O   0  0  0  0  0  0  0  0  0  0  0  0
  188.7000  174.3280  141.9340 S   0  0  0  0  0  0  0  0  0  0  0  0
  188.0750  176.8560  141.7430 C   0  0  1  0  0  3  0  0  0  0  0  0
  189.5960  175.0300  143.2930 C   0  0  1  0  0  3  0  0  0  0  0  0
  194.2180  175.6680  146.2650 C   0  0  0  0  0  1  0  0  0  0  0  0
  189.9560  174.9150  145.6510 C   0  0  2  0  0  3  0  0  0  0  0  0
  188.2670  177.1460  143.2500 C   0  0  0  0  0  2  0  0  0  0  0  0
  187.5170  175.5230  141.4790 N   0  0  0  0  0  2  0  0  0  0  0  0
  193.3030  176.6160  145.5050 C   0  0  2  0  0  3  0  0  0  0  0  0
  191.3610  173.4010  144.0700 C   0  0  0  0  0  0  0  0  0  0  0  0
  187.1850  177.9150  141.1290 C   0  0  0  0  0  1  0  0  0  0  0  0
  191.8570  176.6300  146.0260 C   0  0  0  0  0  2  0  0  0  0  0  0
  191.4550  172.0180  144.2620 C   0  0  0  0  0  3  0  0  0  0  0  0
  193.7360  173.4650  143.5450 C   0  0  0  0  0  3  0  0  0  0  0  0
  193.8140  172.0830  143.7310 C   0  0  0  0  0  3  0  0  0  0  0  0
  193.4110  176.4140  143.9930 C   0  0  0  0  0  2  0  0  0  0  0  0
  189.1740  176.1280  145.3590 N   0  0  0  0  0  0  0  0  0  0  0  0
  191.2990  175.2330  146.3430 C   0  0  1  0  0  3  0  0  0  0  0  0
  188.6160  175.8820  144.0370 C   0  0  2  0  0  3  0  0  0  0  0  0
  190.0400  174.0710  144.3590 C   0  0  2  0  0  3  0  0  0  0  0  0
  191.1920  176.3930  148.2260 C   0  0  0  0  0  1  0  0  0  0  0  0
  191.1590  175.0910  147.7250 O   0  0  0  0  0  0  0  0  0  0  0  0
  188.0570  176.1510  146.2940 C   0  0  0  0  0  2  0  0  0  0  0  0
  187.9150  177.5390  146.8870 C   0  0  0  0  0  1  0  0  0  0  0  0
  1 14  1  0  0  0  0
  2  6  2  0  0  0  0
  3 17  1  0  0  0  0
  4  1  1  0  0  0  0
  4 20  1  0  0  0  0
  6  5  2  0  0  0  0
  7 15  1  1  0  0  0
  7 11  1  0  0  0  0
  8  6  1  6  0  0  0
  8 23  1  0  0  0  0
  8 24  1  0  0  0  0
 10 21  1  6  0  0  0
 10 22  1  0  0  0  0
 12  7  1  0  0  0  0
 12  6  1  0  0  0  0
 13 16  1  0  0  0  0
 13  9  1  1  0  0  0
 14 17  2  0  0  0  0
 16 22  1  0  0  0  0
 18  1  2  0  0  0  0
 18 19  1  0  0  0  0
 19  3  2  0  0  0  0
 20 13  1  0  0  0  0
 21 27  1  0  0  0  0
 22 26  1  1  0  0  0
 23 11  1  6  0  0  0
 23 21  1  0  0  0  0
 24 14  1  6  0  0  0
 24 10  1  0  0  0  0
 26 25  1  0  0  0  0
 27 28  1  0  0  0  0
M  END
>  <MODEL>
4

>  <REMARK>
 VINA RESULT:      -6.9      2.252      6.342
  Name = 
  2 active torsions:
  status: ('A' for Active; 'I' for Inactive)
    1  A    between atoms: C_5  and  N_24
    2  A    between atoms: O_17  and  C_25
                            x       y       z     vdW  Elec       q    Type
                         _______ _______ _______ _____ _____    ______ ____

>  <TORSDO>
F 2

$$$$
=
 OpenBabel11112417363D

 28 31  0  0  1  0  0  0  0  0999 V2000
  190.8690  176.8090  145.0380 C   0  0  0  0  0  0  0  0  0  0  0  0
  194.8980  177.5330  145.3260 O   0  0  0  0  0  0  0  0  0  0  0  0
  190.4420  176.1990  147.7370 C   0  0  0  0  0  3  0  0  0  0  0  0
  191.0870  177.1040  143.6920 O   0  0  0  0  0  0  0  0  0  0  0  0
  195.3140  175.2070  146.0130 O   0  0  0  0  0  0  0  0  0  0  0  0
  195.0150  176.1120  144.8510 S   0  0  0  0  0  0  0  0  0  0  0  0
  195.7070  176.2730  142.3390 C   0  0  1  0  0  3  0  0  0  0  0  0
  193.5240  175.6190  144.0300 C   0  0  1  0  0  3  0  0  0  0  0  0
  188.0530  175.9210  143.2770 C   0  0  0  0  0  1  0  0  0  0  0  0
  191.8820  173.8940  143.8520 C   0  0  2  0  0  3  0  0  0  0  0  0
  194.6990  175.2000  141.8630 C   0  0  0  0  0  2  0  0  0  0  0  0
  196.2790  175.9800  143.6610 N   0  0  0  0  0  2  0  0  0  0  0  0
  189.2630  176.1530  142.3860 C   0  0  2  0  0  3  0  0  0  0  0  0
  191.5880  175.7580  145.6420 C   0  0  0  0  0  0  0  0  0  0  0  0
  196.8170  176.4160  141.3200 C   0  0  0  0  0  1  0  0  0  0  0  0
  190.1540  174.9120  142.2180 C   0  0  0  0  0  2  0  0  0  0  0  0
  191.3630  175.4590  146.9910 C   0  0  0  0  0  3  0  0  0  0  0  0
  189.9380  177.5410  145.7880 C   0  0  0  0  0  3  0  0  0  0  0  0
  189.7290  177.2380  147.1360 C   0  0  0  0  0  3  0  0  0  0  0  0
  190.0300  177.4120  142.7920 C   0  0  0  0  0  2  0  0  0  0  0  0
  192.7240  173.8590  142.6460 N   0  0  0  0  0  0  0  0  0  0  0  0
  190.3940  174.1410  143.5250 C   0  0  1  0  0  3  0  0  0  0  0  0
  193.9290  174.5810  143.0310 C   0  0  2  0  0  3  0  0  0  0  0  0
  192.5260  174.8690  144.8640 C   0  0  2  0  0  3  0  0  0  0  0  0
  189.7100  172.4580  144.7920 C   0  0  0  0  0  1  0  0  0  0  0  0
  189.7170  172.9200  143.4750 O   0  0  0  0  0  0  0  0  0  0  0  0
  193.1090  172.4710  142.4330 C   0  0  0  0  0  2  0  0  0  0  0  0
  192.3840  171.9180  141.2220 C   0  0  0  0  0  1  0  0  0  0  0  0
  1 14  2  0  0  0  0
  1 18  1  0  0  0  0
  4  1  1  0  0  0  0
  6  2  2  0  0  0  0
  6  5  2  0  0  0  0
  7 15  1  6  0  0  0
  7 12  1  0  0  0  0
  8  6  1  1  0  0  0
  8 24  1  0  0  0  0
 10 21  1  6  0  0  0
 10 24  1  0  0  0  0
 11  7  1  0  0  0  0
 12  6  1  0  0  0  0
 13 20  1  0  0  0  0
 13  9  1  1  0  0  0
 14 17  1  0  0  0  0
 16 13  1  0  0  0  0
 16 22  1  0  0  0  0
 17  3  2  0  0  0  0
 18 19  2  0  0  0  0
 19  3  1  0  0  0  0
 20  4  1  0  0  0  0
 21 23  1  0  0  0  0
 22 26  1  6  0  0  0
 22 10  1  0  0  0  0
 23 11  1  6  0  0  0
 23  8  1  0  0  0  0
 24 14  1  6  0  0  0
 26 25  1  0  0  0  0
 27 21  1  0  0  0  0
 28 27  1  0  0  0  0
M  END
>  <MODEL>
5

>  <REMARK>
 VINA RESULT:      -6.8      2.703      3.627
  Name = 
  2 active torsions:
  status: ('A' for Active; 'I' for Inactive)
    1  A    between atoms: C_5  and  N_24
    2  A    between atoms: O_17  and  C_25
                            x       y       z     vdW  Elec       q    Type
                         _______ _______ _______ _____ _____    ______ ____

>  <TORSDO>
F 2

$$$$
=
 OpenBabel11112417363D

 28 31  0  0  1  0  0  0  0  0999 V2000
  191.0340  173.7100  144.3230 C   0  0  0  0  0  0  0  0  0  0  0  0
  189.7870  176.7270  146.8090 O   0  0  0  0  0  0  0  0  0  0  0  0
  193.6270  174.6750  143.8960 C   0  0  0  0  0  3  0  0  0  0  0  0
  189.7380  173.2360  144.5310 O   0  0  0  0  0  0  0  0  0  0  0  0
  190.0670  178.3860  145.0130 O   0  0  0  0  0  0  0  0  0  0  0  0
  189.1910  177.2890  145.5490 S   0  0  0  0  0  0  0  0  0  0  0  0
  186.6290  176.8130  145.7180 C   0  0  1  0  0  3  0  0  0  0  0  0
  188.9780  176.0020  144.3490 C   0  0  1  0  0  3  0  0  0  0  0  0
  190.4440  171.1790  142.0720 C   0  0  0  0  0  1  0  0  0  0  0  0
  189.3160  175.4020  142.0620 C   0  0  2  0  0  3  0  0  0  0  0  0
  186.4990  176.3110  144.2610 C   0  0  0  0  0  2  0  0  0  0  0  0
  187.5950  177.9110  145.8660 N   0  0  0  0  0  2  0  0  0  0  0  0
  189.1740  171.7060  142.7210 C   0  0  2  0  0  3  0  0  0  0  0  0
  191.2240  174.9980  143.7840 C   0  0  0  0  0  0  0  0  0  0  0  0
  185.2740  177.2510  146.2290 C   0  0  0  0  0  1  0  0  0  0  0  0
  188.5720  172.9250  142.0030 C   0  0  0  0  0  2  0  0  0  0  0  0
  192.5240  175.4680  143.5700 C   0  0  0  0  0  3  0  0  0  0  0  0
  192.1440  172.9140  144.6380 C   0  0  0  0  0  3  0  0  0  0  0  0
  193.4380  173.3990  144.4280 C   0  0  0  0  0  3  0  0  0  0  0  0
  189.3490  171.9030  144.2270 C   0  0  0  0  0  2  0  0  0  0  0  0
  187.8780  175.6340  142.2730 N   0  0  0  0  0  0  0  0  0  0  0  0
  189.6160  173.9680  141.5740 C   0  0  1  0  0  3  0  0  0  0  0  0
  187.8200  176.4200  143.4980 C   0  0  2  0  0  3  0  0  0  0  0  0
  190.0720  175.8610  143.3300 C   0  0  2  0  0  3  0  0  0  0  0  0
  188.5670  173.3500  139.7240 C   0  0  0  0  0  1  0  0  0  0  0  0
  189.7350  173.9620  140.1830 O   0  0  0  0  0  0  0  0  0  0  0  0
  187.4210  176.4960  141.1920 C   0  0  0  0  0  2  0  0  0  0  0  0
  187.8950  177.9160  141.4340 C   0  0  0  0  0  1  0  0  0  0  0  0
  1  4  1  0  0  0  0
  1 18  1  0  0  0  0
  3 19  1  0  0  0  0
  5  6  2  0  0  0  0
  6 12  1  0  0  0  0
  6  2  2  0  0  0  0
  7 12  1  0  0  0  0
  7 15  1  6  0  0  0
  8  6  1  1  0  0  0
 10 21  1  1  0  0  0
 10 24  1  0  0  0  0
 11  7  1  0  0  0  0
 13  9  1  6  0  0  0
 13 20  1  0  0  0  0
 14  1  2  0  0  0  0
 16 13  1  0  0  0  0
 17 14  1  0  0  0  0
 17  3  2  0  0  0  0
 19 18  2  0  0  0  0
 20  4  1  0  0  0  0
 21 23  1  0  0  0  0
 22 26  1  6  0  0  0
 22 16  1  0  0  0  0
 22 10  1  0  0  0  0
 23 11  1  1  0  0  0
 23  8  1  0  0  0  0
 24 14  1  1  0  0  0
 24  8  1  0  0  0  0
 25 26  1  0  0  0  0
 27 28  1  0  0  0  0
 27 21  1  0  0  0  0
M  END
>  <MODEL>
6

>  <REMARK>
 VINA RESULT:      -6.7      1.978      5.413
  Name = 
  2 active torsions:
  status: ('A' for Active; 'I' for Inactive)
    1  A    between atoms: C_5  and  N_24
    2  A    between atoms: O_17  and  C_25
                            x       y       z     vdW  Elec       q    Type
                         _______ _______ _______ _____ _____    ______ ____

>  <TORSDO>
F 2

$$$$
=
 OpenBabel11112417363D

 28 31  0  0  1  0  0  0  0  0999 V2000
  189.4980  175.5830  144.9170 C   0  0  0  0  0  0  0  0  0  0  0  0
  189.4270  172.3000  142.4570 O   0  0  0  0  0  0  0  0  0  0  0  0
  188.6160  177.4450  143.0210 C   0  0  0  0  0  3  0  0  0  0  0  0
  189.9450  174.6550  145.8580 O   0  0  0  0  0  0  0  0  0  0  0  0
  191.1460  173.2950  141.0030 O   0  0  0  0  0  0  0  0  0  0  0  0
  190.8940  172.5920  142.3070 S   0  0  0  0  0  0  0  0  0  0  0  0
  192.1120  170.8060  143.7700 C   0  0  1  0  0  3  0  0  0  0  0  0
  191.4640  173.5670  143.6740 C   0  0  1  0  0  3  0  0  0  0  0  0
  190.6400  177.3070  147.6650 C   0  0  0  0  0  1  0  0  0  0  0  0
  192.7420  175.4860  144.2920 C   0  0  2  0  0  3  0  0  0  0  0  0
  193.0890  171.8180  144.4150 C   0  0  0  0  0  2  0  0  0  0  0  0
  191.8100  171.1120  142.3660 N   0  0  0  0  0  2  0  0  0  0  0  0
  191.0880  175.8530  147.6450 C   0  0  2  0  0  3  0  0  0  0  0  0
  190.2200  175.7620  143.7210 C   0  0  0  0  0  0  0  0  0  0  0  0
  192.6820  169.4080  143.8790 C   0  0  0  0  0  1  0  0  0  0  0  0
  192.3820  175.6160  146.8510 C   0  0  0  0  0  2  0  0  0  0  0  0
  189.7730  176.6980  142.7820 C   0  0  0  0  0  3  0  0  0  0  0  0
  188.3440  176.3440  145.1570 C   0  0  0  0  0  3  0  0  0  0  0  0
  187.9040  177.2690  144.2080 C   0  0  0  0  0  3  0  0  0  0  0  0
  189.9450  174.9150  147.2550 C   0  0  0  0  0  2  0  0  0  0  0  0
  193.5110  174.2830  144.6500 N   0  0  0  0  0  0  0  0  0  0  0  0
  192.4380  176.3760  145.5170 C   0  0  1  0  0  3  0  0  0  0  0  0
  192.9110  173.2270  143.8460 C   0  0  2  0  0  3  0  0  0  0  0  0
  191.5220  175.0500  143.4500 C   0  0  2  0  0  3  0  0  0  0  0  0
  194.1910  177.0490  146.6910 C   0  0  0  0  0  1  0  0  0  0  0  0
  193.3890  177.3960  145.6030 O   0  0  0  0  0  0  0  0  0  0  0  0
  194.8660  174.4780  144.1540 C   0  0  0  0  0  2  0  0  0  0  0  0
  195.8620  174.1780  145.2570 C   0  0  0  0  0  1  0  0  0  0  0  0
  1 18  1  0  0  0  0
  1  4  1  0  0  0  0
  3 19  1  0  0  0  0
  4 20  1  0  0  0  0
  5  6  2  0  0  0  0
  6 12  1  0  0  0  0
  6  2  2  0  0  0  0
  7 15  1  6  0  0  0
  7 11  1  0  0  0  0
  8  6  1  6  0  0  0
  8 23  1  0  0  0  0
 10 21  1  1  0  0  0
 10 22  1  0  0  0  0
 12  7  1  0  0  0  0
 13  9  1  6  0  0  0
 14  1  2  0  0  0  0
 16 13  1  0  0  0  0
 17  3  2  0  0  0  0
 17 14  1  0  0  0  0
 19 18  2  0  0  0  0
 20 13  1  0  0  0  0
 22 26  1  1  0  0  0
 22 16  1  0  0  0  0
 23 11  1  1  0  0  0
 23 21  1  0  0  0  0
 24  8  1  0  0  0  0
 24 14  1  1  0  0  0
 24 10  1  0  0  0  0
 26 25  1  0  0  0  0
 27 21  1  0  0  0  0
 27 28  1  0  0  0  0
M  END
>  <MODEL>
7

>  <REMARK>
 VINA RESULT:      -6.6      2.517      5.461
  Name = 
  2 active torsions:
  status: ('A' for Active; 'I' for Inactive)
    1  A    between atoms: C_5  and  N_24
    2  A    between atoms: O_17  and  C_25
                            x       y       z     vdW  Elec       q    Type
                         _______ _______ _______ _____ _____    ______ ____

>  <TORSDO>
F 2

$$$$
=
 OpenBabel11112417363D

 28 31  0  0  1  0  0  0  0  0999 V2000
  193.3680  176.2220  143.1900 C   0  0  0  0  0  0  0  0  0  0  0  0
  189.7710  177.9160  142.1740 O   0  0  0  0  0  0  0  0  0  0  0  0
  193.9730  175.1770  140.6630 C   0  0  0  0  0  3  0  0  0  0  0  0
  193.0600  176.7360  144.4490 O   0  0  0  0  0  0  0  0  0  0  0  0
  188.8290  175.7060  141.6380 O   0  0  0  0  0  0  0  0  0  0  0  0
  189.2050  176.6470  142.7480 S   0  0  0  0  0  0  0  0  0  0  0  0
  188.2490  177.3060  145.0860 C   0  0  1  0  0  3  0  0  0  0  0  0
  190.3770  175.8970  143.8460 C   0  0  1  0  0  3  0  0  0  0  0  0
  195.5670  174.8760  145.4650 C   0  0  0  0  0  1  0  0  0  0  0  0
  191.4430  173.8460  144.4450 C   0  0  2  0  0  3  0  0  0  0  0  0
  188.8500  176.0810  145.8160 C   0  0  0  0  0  2  0  0  0  0  0  0
  187.8040  177.0010  143.7200 N   0  0  0  0  0  2  0  0  0  0  0  0
  194.3570  175.5250  146.1190 C   0  0  2  0  0  3  0  0  0  0  0  0
  192.4780  175.3220  142.5700 C   0  0  0  0  0  0  0  0  0  0  0  0
  187.0940  177.8610  145.8900 C   0  0  0  0  0  1  0  0  0  0  0  0
  193.1460  174.5890  146.2460 C   0  0  0  0  0  2  0  0  0  0  0  0
  192.7930  174.8030  141.3100 C   0  0  0  0  0  3  0  0  0  0  0  0
  194.5580  176.5850  142.5420 C   0  0  0  0  0  3  0  0  0  0  0  0
  194.8560  176.0650  141.2800 C   0  0  0  0  0  3  0  0  0  0  0  0
  194.0280  176.8760  145.4810 C   0  0  0  0  0  2  0  0  0  0  0  0
  190.4680  174.1870  145.4940 N   0  0  0  0  0  0  0  0  0  0  0  0
  192.8830  173.7410  144.9910 C   0  0  1  0  0  3  0  0  0  0  0  0
  189.5710  175.1380  144.8520 C   0  0  2  0  0  3  0  0  0  0  0  0
  191.2350  174.8140  143.2580 C   0  0  2  0  0  3  0  0  0  0  0  0
  193.4270  171.8310  144.0130 C   0  0  0  0  0  1  0  0  0  0  0  0
  193.1850  172.4050  145.2620 O   0  0  0  0  0  0  0  0  0  0  0  0
  189.6910  172.9850  145.7630 C   0  0  0  0  0  2  0  0  0  0  0  0
  189.6910  172.0910  144.5380 C   0  0  0  0  0  1  0  0  0  0  0  0
  1  4  1  0  0  0  0
  2  6  2  0  0  0  0
  3 19  2  0  0  0  0
  3 17  1  0  0  0  0
  4 20  1  0  0  0  0
  5  6  2  0  0  0  0
  6 12  1  0  0  0  0
  7 11  1  0  0  0  0
  7 15  1  1  0  0  0
  8  6  1  6  0  0  0
  8 23  1  0  0  0  0
 10 22  1  0  0  0  0
 10 21  1  1  0  0  0
 12  7  1  0  0  0  0
 13  9  1  6  0  0  0
 13 16  1  0  0  0  0
 14  1  1  0  0  0  0
 17 14  2  0  0  0  0
 18  1  2  0  0  0  0
 19 18  1  0  0  0  0
 20 13  1  0  0  0  0
 21 27  1  0  0  0  0
 22 26  1  1  0  0  0
 22 16  1  0  0  0  0
 23 21  1  0  0  0  0
 23 11  1  1  0  0  0
 24 14  1  1  0  0  0
 24  8  1  0  0  0  0
 24 10  1  0  0  0  0
 25 26  1  0  0  0  0
 28 27  1  0  0  0  0
M  END
>  <MODEL>
8

>  <REMARK>
 VINA RESULT:      -6.6      2.495      6.100
  Name = 
  2 active torsions:
  status: ('A' for Active; 'I' for Inactive)
    1  A    between atoms: C_5  and  N_24
    2  A    between atoms: O_17  and  C_25
                            x       y       z     vdW  Elec       q    Type
                         _______ _______ _______ _____ _____    ______ ____

>  <TORSDO>
F 2

$$$$
=
 OpenBabel11112417363D

 28 31  0  0  1  0  0  0  0  0999 V2000
  189.8170  175.5380  143.7250 C   0  0  0  0  0  0  0  0  0  0  0  0
  192.6520  174.2790  141.0390 O   0  0  0  0  0  0  0  0  0  0  0  0
  189.1390  177.9150  142.4100 C   0  0  0  0  0  3  0  0  0  0  0  0
  190.1630  174.3570  144.3820 O   0  0  0  0  0  0  0  0  0  0  0  0
  194.0500  176.2460  141.5220 O   0  0  0  0  0  0  0  0  0  0  0  0
  193.6100  174.8980  142.0180 S   0  0  0  0  0  0  0  0  0  0  0  0
  194.6950  172.8940  143.2920 C   0  0  1  0  0  3  0  0  0  0  0  0
  192.8510  175.0260  143.6150 C   0  0  1  0  0  3  0  0  0  0  0  0
  188.4110  175.6050  146.8620 C   0  0  0  0  0  1  0  0  0  0  0  0
  192.4620  176.4770  145.4710 C   0  0  2  0  0  3  0  0  0  0  0  0
  194.5520  173.5420  144.6890 C   0  0  0  0  0  2  0  0  0  0  0  0
  194.9970  173.8680  142.2330 N   0  0  0  0  0  2  0  0  0  0  0  0
  189.4910  174.5450  146.7170 C   0  0  2  0  0  3  0  0  0  0  0  0
  190.8090  176.5020  143.4620 C   0  0  0  0  0  0  0  0  0  0  0  0
  195.7710  171.8300  143.3320 C   0  0  0  0  0  1  0  0  0  0  0  0
  190.9100  175.0670  146.9870 C   0  0  0  0  0  2  0  0  0  0  0  0
  190.4580  177.6890  142.8080 C   0  0  0  0  0  3  0  0  0  0  0  0
  188.4910  175.7750  143.3340 C   0  0  0  0  0  3  0  0  0  0  0  0
  188.1550  176.9600  142.6740 C   0  0  0  0  0  3  0  0  0  0  0  0
  189.3560  173.7780  145.4000 C   0  0  0  0  0  2  0  0  0  0  0  0
  193.4580  175.4700  145.8710 N   0  0  0  0  0  0  0  0  0  0  0  0
  191.1970  176.4380  146.3550 C   0  0  1  0  0  3  0  0  0  0  0  0
  193.9680  174.9540  144.6080 C   0  0  2  0  0  3  0  0  0  0  0  0
  192.2300  176.3520  143.9480 C   0  0  2  0  0  3  0  0  0  0  0  0
  191.5660  176.6790  148.5260 C   0  0  0  0  0  1  0  0  0  0  0  0
  191.2990  177.4010  147.3620 O   0  0  0  0  0  0  0  0  0  0  0  0
  194.5530  176.1830  146.5130 C   0  0  0  0  0  2  0  0  0  0  0  0
  194.7320  177.5400  145.8610 C   0  0  0  0  0  1  0  0  0  0  0  0
  1  4  1  0  0  0  0
  2  6  2  0  0  0  0
  3 19  2  0  0  0  0
  3 17  1  0  0  0  0
  4 20  1  0  0  0  0
  5  6  2  0  0  0  0
  6 12  1  0  0  0  0
  7 15  1  1  0  0  0
  7 11  1  0  0  0  0
  8  6  1  6  0  0  0
  8 24  1  0  0  0  0
  8 23  1  0  0  0  0
 10 21  1  1  0  0  0
 10 22  1  0  0  0  0
 12  7  1  0  0  0  0
 13  9  1  6  0  0  0
 13 16  1  0  0  0  0
 14  1  1  0  0  0  0
 17 14  2  0  0  0  0
 18  1  2  0  0  0  0
 19 18  1  0  0  0  0
 20 13  1  0  0  0  0
 21 27  1  0  0  0  0
 22 16  1  0  0  0  0
 22 26  1  1  0  0  0
 23 11  1  1  0  0  0
 23 21  1  0  0  0  0
 24 14  1  1  0  0  0
 24 10  1  0  0  0  0
 26 25  1  0  0  0  0
 28 27  1  0  0  0  0
M  END
>  <MODEL>
9

>  <REMARK>
 VINA RESULT:      -6.3      2.816      5.281
  Name = 
  2 active torsions:
  status: ('A' for Active; 'I' for Inactive)
    1  A    between atoms: C_5  and  N_24
    2  A    between atoms: O_17  and  C_25
                            x       y       z     vdW  Elec       q    Type
                         _______ _______ _______ _____ _____    ______ ____

>  <TORSDO>
F 2

$$$$
