=
 OpenBabel11112417063D

 31 35  0  0  1  0  0  0  0  0999 V2000
  194.4040  176.4190  144.7920 C   0  0  0  0  0  0  0  0  0  0  0  0
  190.9930  176.9420  143.3290 C   0  0  2  0  0  3  0  0  0  0  0  0
  190.6970  175.6790  142.5360 C   0  0  0  0  0  0  0  0  0  0  0  0
  191.4460  173.6510  141.4200 C   0  0  0  0  0  0  0  0  0  0  0  0
  192.0870  176.7430  144.3530 C   0  0  0  0  0  0  0  0  0  0  0  0
  194.1490  176.2570  146.1540 C   0  0  0  0  0  3  0  0  0  0  0  0
  191.7250  174.7940  142.1730 C   0  0  0  0  0  3  0  0  0  0  0  0
  189.3190  176.7090  145.2020 C   0  0  2  0  0  3  0  0  0  0  0  0
  195.7960  176.3280  144.2810 C   0  0  0  0  0  1  0  0  0  0  0  0
  188.3480  176.3080  142.3900 O   0  0  0  0  0  0  0  0  0  0  0  0
  192.5420  172.7170  141.0560 C   0  0  0  0  0  1  0  0  0  0  0  0
  190.4090  176.7910  146.2710 C   0  0  0  0  0  2  0  0  0  0  0  0
  189.7240  177.5360  143.9760 C   0  0  2  0  0  3  0  0  0  0  0  0
  193.3790  176.6570  143.9310 N   0  0  0  0  0  0  0  0  0  0  0  0
  190.1380  173.3880  141.0090 C   0  0  0  0  0  3  0  0  0  0  0  0
  191.7920  176.5800  145.7220 C   0  0  0  0  0  0  0  0  0  0  0  0
  192.8370  176.3470  146.6180 C   0  0  0  0  0  3  0  0  0  0  0  0
  188.6010  177.6000  142.9380 C   0  0  0  0  0  2  0  0  0  0  0  0
  189.3850  175.4240  142.0840 C   0  0  0  0  0  0  0  0  0  0  0  0
  189.1100  174.2740  141.3390 C   0  0  0  0  0  3  0  0  0  0  0  0
  187.8830  175.5010  147.3480 O   0  0  0  0  0  0  0  0  0  0  0  0
  187.3970  176.5480  146.8390 C   0  0  0  0  0  0  0  0  0  0  0  0
  188.0650  177.2000  145.7560 N   0  0  0  0  0  2  0  0  0  0  0  0
  184.8560  179.0530  145.5600 N   0  0  0  0  0  0  0  0  0  0  0  0
  184.9330  176.7580  146.4340 C   0  0  0  0  0  2  0  0  0  0  0  0
  187.3580  179.0710  148.4070 C   0  0  0  0  0  1  0  0  0  0  0  0
  184.8570  179.8150  144.3250 C   0  0  0  0  0  1  0  0  0  0  0  0
  184.9260  177.6420  145.1830 C   0  0  0  0  0  2  0  0  0  0  0  0
  186.1490  178.6410  147.5930 C   0  0  2  0  0  3  0  0  0  0  0  0
  186.1050  177.1220  147.3500 C   0  0  2  0  0  3  0  0  0  0  0  0
  186.0800  179.4080  146.2740 C   0  0  0  0  0  2  0  0  0  0  0  0
  1  6  1  0  0  0  0
  2  3  1  1  0  0  0
  2 13  1  0  0  0  0
  2  5  1  0  0  0  0
  4  7  2  0  0  0  0
  5 16  2  0  0  0  0
  6 17  2  0  0  0  0
  7  3  1  0  0  0  0
  8 23  1  1  0  0  0
  8 12  1  0  0  0  0
  9  1  1  0  0  0  0
 10 18  1  0  0  0  0
 11  4  1  0  0  0  0
 13 18  1  6  0  0  0
 13  8  1  0  0  0  0
 14  5  1  0  0  0  0
 14  1  2  0  0  0  0
 15 20  2  0  0  0  0
 15  4  1  0  0  0  0
 16 12  1  0  0  0  0
 16 17  1  0  0  0  0
 19 10  1  0  0  0  0
 19  3  2  0  0  0  0
 20 19  1  0  0  0  0
 22 21  2  0  0  0  0
 23 22  1  0  0  0  0
 24 31  1  0  0  0  0
 25 30  1  0  0  0  0
 27 24  1  0  0  0  0
 28 24  1  0  0  0  0
 28 25  1  0  0  0  0
 29 26  1  6  0  0  0
 30 22  1  6  0  0  0
 30 29  1  0  0  0  0
 31 29  1  0  0  0  0
M  END
>  <MODEL>
1

>  <REMARK>
 VINA RESULT:      -8.9      0.000      0.000
  Name = 
  2 active torsions:
  status: ('A' for Active; 'I' for Inactive)
    1  A    between atoms: C_5  and  C_30
    2  A    between atoms: C_10  and  N_16
                            x       y       z     vdW  Elec       q    Type
                         _______ _______ _______ _____ _____    ______ ____

>  <TORSDO>
F 2

$$$$
=
 OpenBabel11112417063D

 31 35  0  0  1  0  0  0  0  0999 V2000
  185.1650  178.1150  146.8980 C   0  0  0  0  0  0  0  0  0  0  0  0
  187.7070  175.7530  145.4820 C   0  0  2  0  0  3  0  0  0  0  0  0
  187.7500  176.0530  143.9920 C   0  0  0  0  0  0  0  0  0  0  0  0
  186.7520  177.0170  141.9930 C   0  0  0  0  0  0  0  0  0  0  0  0
  187.1070  176.8840  146.2860 C   0  0  0  0  0  0  0  0  0  0  0  0
  185.9350  179.0130  147.6380 C   0  0  0  0  0  3  0  0  0  0  0  0
  186.7170  176.7720  143.3690 C   0  0  0  0  0  3  0  0  0  0  0  0
  189.9850  176.5810  146.1810 C   0  0  2  0  0  3  0  0  0  0  0  0
  183.6910  178.2910  146.8190 C   0  0  0  0  0  1  0  0  0  0  0  0
  189.8180  174.7820  143.7840 O   0  0  0  0  0  0  0  0  0  0  0  0
  185.6600  177.7920  141.3500 C   0  0  0  0  0  1  0  0  0  0  0  0
  189.3900  177.5410  147.2120 C   0  0  0  0  0  2  0  0  0  0  0  0
  189.0890  175.3460  146.0350 C   0  0  2  0  0  3  0  0  0  0  0  0
  185.7610  177.0820  146.2460 N   0  0  0  0  0  0  0  0  0  0  0  0
  187.8140  176.5350  141.2250 C   0  0  0  0  0  3  0  0  0  0  0  0
  187.9180  177.7740  147.0210 C   0  0  0  0  0  0  0  0  0  0  0  0
  187.3160  178.8320  147.7030 C   0  0  0  0  0  3  0  0  0  0  0  0
  189.7180  174.2930  145.1200 C   0  0  0  0  0  2  0  0  0  0  0  0
  188.7980  175.5390  143.2010 C   0  0  0  0  0  0  0  0  0  0  0  0
  188.8330  175.7950  141.8270 C   0  0  0  0  0  3  0  0  0  0  0  0
  192.3480  176.8330  144.6050 O   0  0  0  0  0  0  0  0  0  0  0  0
  192.4700  176.3510  145.7640 C   0  0  0  0  0  0  0  0  0  0  0  0
  191.3240  176.1930  146.6030 N   0  0  0  0  0  2  0  0  0  0  0  0
  195.9210  175.8980  144.2620 N   0  0  0  0  0  0  0  0  0  0  0  0
  194.8460  177.0490  146.1480 C   0  0  0  0  0  2  0  0  0  0  0  0
  193.3200  173.5080  145.6400 C   0  0  0  0  0  1  0  0  0  0  0  0
  196.3610  176.0950  142.8940 C   0  0  0  0  0  1  0  0  0  0  0  0
  195.3430  177.1660  144.7040 C   0  0  0  0  0  2  0  0  0  0  0  0
  194.3470  174.6280  145.6360 C   0  0  2  0  0  3  0  0  0  0  0  0
  193.8160  175.9230  146.2790 C   0  0  2  0  0  3  0  0  0  0  0  0
  194.8620  174.8910  144.2230 C   0  0  0  0  0  2  0  0  0  0  0  0
  1  6  1  0  0  0  0
  2  3  1  6  0  0  0
  2 13  1  0  0  0  0
  2  5  1  0  0  0  0
  4  7  2  0  0  0  0
  5 16  2  0  0  0  0
  6 17  2  0  0  0  0
  7  3  1  0  0  0  0
  8 23  1  1  0  0  0
  8 12  1  0  0  0  0
  9  1  1  0  0  0  0
 10 18  1  0  0  0  0
 11  4  1  0  0  0  0
 13 18  1  6  0  0  0
 13  8  1  0  0  0  0
 14  5  1  0  0  0  0
 14  1  2  0  0  0  0
 15 20  2  0  0  0  0
 15  4  1  0  0  0  0
 16 12  1  0  0  0  0
 16 17  1  0  0  0  0
 19 10  1  0  0  0  0
 19  3  2  0  0  0  0
 20 19  1  0  0  0  0
 21 22  2  0  0  0  0
 22 23  1  0  0  0  0
 24 28  1  0  0  0  0
 25 30  1  0  0  0  0
 27 24  1  0  0  0  0
 28 25  1  0  0  0  0
 29 26  1  6  0  0  0
 29 30  1  0  0  0  0
 30 22  1  6  0  0  0
 31 24  1  0  0  0  0
 31 29  1  0  0  0  0
M  END
>  <MODEL>
2

>  <REMARK>
 VINA RESULT:      -8.7      2.145      7.138
  Name = 
  2 active torsions:
  status: ('A' for Active; 'I' for Inactive)
    1  A    between atoms: C_5  and  C_30
    2  A    between atoms: C_10  and  N_16
                            x       y       z     vdW  Elec       q    Type
                         _______ _______ _______ _____ _____    ______ ____

>  <TORSDO>
F 2

$$$$
=
 OpenBabel11112417063D

 31 35  0  0  1  0  0  0  0  0999 V2000
  187.1380  177.1110  141.0100 C   0  0  0  0  0  0  0  0  0  0  0  0
  188.8160  177.6680  144.3150 C   0  0  2  0  0  3  0  0  0  0  0  0
  187.6860  177.8040  145.3230 C   0  0  0  0  0  0  0  0  0  0  0  0
  185.3450  178.2190  145.8410 C   0  0  0  0  0  0  0  0  0  0  0  0
  188.3780  176.9880  143.0380 C   0  0  0  0  0  0  0  0  0  0  0  0
  187.4280  175.7770  140.7220 C   0  0  0  0  0  3  0  0  0  0  0  0
  186.3710  178.0670  144.9050 C   0  0  0  0  0  3  0  0  0  0  0  0
  189.8140  175.4680  145.0410 C   0  0  2  0  0  3  0  0  0  0  0  0
  186.3040  177.9080  140.0740 C   0  0  0  0  0  1  0  0  0  0  0  0
  189.2700  177.5300  147.1530 O   0  0  0  0  0  0  0  0  0  0  0  0
  183.9570  178.4820  145.3840 C   0  0  0  0  0  1  0  0  0  0  0  0
  189.6300  174.8540  143.6520 C   0  0  0  0  0  2  0  0  0  0  0  0
  190.0560  176.9770  144.9190 C   0  0  2  0  0  3  0  0  0  0  0  0
  187.6140  177.6810  142.1480 N   0  0  0  0  0  0  0  0  0  0  0  0
  185.6250  178.1220  147.2060 C   0  0  0  0  0  3  0  0  0  0  0  0
  188.6880  175.6360  142.7810 C   0  0  0  0  0  0  0  0  0  0  0  0
  188.2140  175.0430  141.6100 C   0  0  0  0  0  3  0  0  0  0  0  0
  190.3880  177.6100  146.2720 C   0  0  0  0  0  2  0  0  0  0  0  0
  187.9650  177.7460  146.7040 C   0  0  0  0  0  0  0  0  0  0  0  0
  186.9330  177.8890  147.6360 C   0  0  0  0  0  3  0  0  0  0  0  0
  192.5000  175.4440  144.0830 O   0  0  0  0  0  0  0  0  0  0  0  0
  192.2640  174.8530  145.1730 C   0  0  0  0  0  0  0  0  0  0  0  0
  190.9380  174.8230  145.7050 N   0  0  0  0  0  2  0  0  0  0  0  0
  195.9680  174.2730  144.6120 N   0  0  0  0  0  0  0  0  0  0  0  0
  194.4610  175.1480  146.3440 C   0  0  0  0  0  2  0  0  0  0  0  0
  192.9280  172.0090  144.6340 C   0  0  0  0  0  1  0  0  0  0  0  0
  196.8050  174.6840  143.5000 C   0  0  0  0  0  1  0  0  0  0  0  0
  195.3690  175.4890  145.1590 C   0  0  0  0  0  2  0  0  0  0  0  0
  193.9800  172.9650  145.1700 C   0  0  2  0  0  3  0  0  0  0  0  0
  193.3670  174.1600  145.9230 C   0  0  2  0  0  3  0  0  0  0  0  0
  194.9060  173.4390  144.0520 C   0  0  0  0  0  2  0  0  0  0  0  0
  1 14  1  0  0  0  0
  2  5  1  6  0  0  0
  2 13  1  0  0  0  0
  2  3  1  0  0  0  0
  3 19  1  0  0  0  0
  4 15  2  0  0  0  0
  6  1  2  0  0  0  0
  6 17  1  0  0  0  0
  7  3  2  0  0  0  0
  7  4  1  0  0  0  0
  8 23  1  6  0  0  0
  9  1  1  0  0  0  0
 11  4  1  0  0  0  0
 12  8  1  0  0  0  0
 13  8  1  0  0  0  0
 13 18  1  1  0  0  0
 14  5  2  0  0  0  0
 15 20  1  0  0  0  0
 16  5  1  0  0  0  0
 16 12  1  0  0  0  0
 17 16  2  0  0  0  0
 18 10  1  0  0  0  0
 19 10  1  0  0  0  0
 19 20  2  0  0  0  0
 21 22  2  0  0  0  0
 22 23  1  0  0  0  0
 24 28  1  0  0  0  0
 27 24  1  0  0  0  0
 28 25  1  0  0  0  0
 29 26  1  6  0  0  0
 29 30  1  0  0  0  0
 30 22  1  6  0  0  0
 30 25  1  0  0  0  0
 31 24  1  0  0  0  0
 31 29  1  0  0  0  0
M  END
>  <MODEL>
3

>  <REMARK>
 VINA RESULT:      -8.3      2.297      7.720
  Name = 
  2 active torsions:
  status: ('A' for Active; 'I' for Inactive)
    1  A    between atoms: C_5  and  C_30
    2  A    between atoms: C_10  and  N_16
                            x       y       z     vdW  Elec       q    Type
                         _______ _______ _______ _____ _____    ______ ____

>  <TORSDO>
F 2

$$$$
=
 OpenBabel11112417063D

 31 35  0  0  1  0  0  0  0  0999 V2000
  185.5390  177.7650  146.9470 C   0  0  0  0  0  0  0  0  0  0  0  0
  187.6170  175.7140  144.5970 C   0  0  2  0  0  3  0  0  0  0  0  0
  187.3000  176.2480  143.2090 C   0  0  0  0  0  0  0  0  0  0  0  0
  185.8620  177.4950  141.6930 C   0  0  0  0  0  0  0  0  0  0  0  0
  187.2510  176.6890  145.6930 C   0  0  0  0  0  0  0  0  0  0  0  0
  186.4820  178.5500  147.6110 C   0  0  0  0  0  3  0  0  0  0  0  0
  186.1590  177.0340  142.9790 C   0  0  0  0  0  3  0  0  0  0  0  0
  190.0110  176.4700  144.8420 C   0  0  2  0  0  3  0  0  0  0  0  0
  184.0940  177.9190  147.2590 C   0  0  0  0  0  1  0  0  0  0  0  0
  189.2310  175.0710  142.3030 O   0  0  0  0  0  0  0  0  0  0  0  0
  184.6600  178.3380  141.4680 C   0  0  0  0  0  1  0  0  0  0  0  0
  189.7020  177.2400  146.1270 C   0  0  0  0  0  2  0  0  0  0  0  0
  189.0840  175.2540  144.7240 C   0  0  2  0  0  3  0  0  0  0  0  0
  185.9390  176.8620  146.0140 N   0  0  0  0  0  0  0  0  0  0  0  0
  186.6950  177.1650  140.6230 C   0  0  0  0  0  3  0  0  0  0  0  0
  188.2330  177.4690  146.3400 C   0  0  0  0  0  0  0  0  0  0  0  0
  187.8350  178.3920  147.3080 C   0  0  0  0  0  3  0  0  0  0  0  0
  189.4520  174.3740  143.5270 C   0  0  0  0  0  2  0  0  0  0  0  0
  188.1140  175.8890  142.1150 C   0  0  0  0  0  0  0  0  0  0  0  0
  187.8170  176.3610  140.8330 C   0  0  0  0  0  3  0  0  0  0  0  0
  192.0740  177.5410  143.1910 O   0  0  0  0  0  0  0  0  0  0  0  0
  192.3920  176.6320  144.0060 C   0  0  0  0  0  0  0  0  0  0  0  0
  191.4050  176.0490  144.8580 N   0  0  0  0  0  2  0  0  0  0  0  0
  194.0580  173.2990  144.7050 N   0  0  0  0  0  0  0  0  0  0  0  0
  194.0920  175.0800  143.0130 C   0  0  0  0  0  2  0  0  0  0  0  0
  193.8500  176.5800  146.5930 C   0  0  0  0  0  1  0  0  0  0  0  0
  193.4540  172.0160  145.0130 C   0  0  0  0  0  1  0  0  0  0  0  0
  193.5080  173.7240  143.4190 C   0  0  0  0  0  2  0  0  0  0  0  0
  194.2100  175.6140  145.4770 C   0  0  2  0  0  3  0  0  0  0  0  0
  193.8100  176.1370  144.0860 C   0  0  2  0  0  3  0  0  0  0  0  0
  193.6110  174.2340  145.7360 C   0  0  0  0  0  2  0  0  0  0  0  0
  1  9  1  0  0  0  0
  1  6  1  0  0  0  0
  2  3  1  6  0  0  0
  2 13  1  0  0  0  0
  2  5  1  0  0  0  0
  4  7  2  0  0  0  0
  5 14  1  0  0  0  0
  5 16  2  0  0  0  0
  7  3  1  0  0  0  0
  8 23  1  1  0  0  0
  8 12  1  0  0  0  0
 10 18  1  0  0  0  0
 11  4  1  0  0  0  0
 12 16  1  0  0  0  0
 13 18  1  6  0  0  0
 13  8  1  0  0  0  0
 14  1  2  0  0  0  0
 15 20  2  0  0  0  0
 15  4  1  0  0  0  0
 16 17  1  0  0  0  0
 17  6  2  0  0  0  0
 19 10  1  0  0  0  0
 19  3  2  0  0  0  0
 20 19  1  0  0  0  0
 21 22  2  0  0  0  0
 22 23  1  0  0  0  0
 24 27  1  0  0  0  0
 24 31  1  0  0  0  0
 25 28  1  0  0  0  0
 25 30  1  0  0  0  0
 28 24  1  0  0  0  0
 29 31  1  0  0  0  0
 29 26  1  1  0  0  0
 30 22  1  1  0  0  0
 30 29  1  0  0  0  0
M  END
>  <MODEL>
4

>  <REMARK>
 VINA RESULT:      -8.1      2.130      6.960
  Name = 
  2 active torsions:
  status: ('A' for Active; 'I' for Inactive)
    1  A    between atoms: C_5  and  C_30
    2  A    between atoms: C_10  and  N_16
                            x       y       z     vdW  Elec       q    Type
                         _______ _______ _______ _____ _____    ______ ____

>  <TORSDO>
F 2

$$$$
=
 OpenBabel11112417063D

 31 35  0  0  1  0  0  0  0  0999 V2000
  186.8980  178.3770  147.5560 C   0  0  0  0  0  0  0  0  0  0  0  0
  188.4750  175.4970  145.7490 C   0  0  2  0  0  3  0  0  0  0  0  0
  188.4060  175.8610  144.2740 C   0  0  0  0  0  0  0  0  0  0  0  0
  187.4660  177.1760  142.4560 C   0  0  0  0  0  0  0  0  0  0  0  0
  188.3240  176.7000  146.6520 C   0  0  0  0  0  0  0  0  0  0  0  0
  187.9770  178.9850  148.1980 C   0  0  0  0  0  3  0  0  0  0  0  0
  187.5430  176.8700  143.8170 C   0  0  0  0  0  3  0  0  0  0  0  0
  190.9640  175.6280  146.1370 C   0  0  2  0  0  3  0  0  0  0  0  0
  185.5350  178.9530  147.6890 C   0  0  0  0  0  1  0  0  0  0  0  0
  189.9920  174.0870  143.7510 O   0  0  0  0  0  0  0  0  0  0  0  0
  186.5600  178.2560  141.9890 C   0  0  0  0  0  1  0  0  0  0  0  0
  190.7990  176.6520  147.2610 C   0  0  0  0  0  2  0  0  0  0  0  0
  189.7480  174.6960  146.0930 C   0  0  2  0  0  3  0  0  0  0  0  0
  187.0930  177.2600  146.8060 N   0  0  0  0  0  0  0  0  0  0  0  0
  188.2430  176.4690  141.5360 C   0  0  0  0  0  3  0  0  0  0  0  0
  189.4390  177.2900  147.2830 C   0  0  0  0  0  0  0  0  0  0  0  0
  189.2500  178.4300  148.0650 C   0  0  0  0  0  3  0  0  0  0  0  0
  189.9340  173.5670  145.0770 C   0  0  0  0  0  2  0  0  0  0  0  0
  189.1580  175.1270  143.3330 C   0  0  0  0  0  0  0  0  0  0  0  0
  189.0850  175.4440  141.9740 C   0  0  0  0  0  3  0  0  0  0  0  0
  193.1610  175.4720  144.3260 O   0  0  0  0  0  0  0  0  0  0  0  0
  193.2530  174.8330  145.4100 C   0  0  0  0  0  0  0  0  0  0  0  0
  192.1840  174.8640  146.3590 N   0  0  0  0  0  2  0  0  0  0  0  0
  196.4010  173.8650  143.5330 N   0  0  0  0  0  0  0  0  0  0  0  0
  195.7450  174.8770  145.6730 C   0  0  0  0  0  2  0  0  0  0  0  0
  193.3700  171.9400  144.7490 C   0  0  0  0  0  1  0  0  0  0  0  0
  196.8020  174.1960  142.1780 C   0  0  0  0  0  1  0  0  0  0  0  0
  196.1770  175.1320  144.2260 C   0  0  0  0  0  2  0  0  0  0  0  0
  194.6390  172.7720  144.8280 C   0  0  2  0  0  3  0  0  0  0  0  0
  194.4780  174.0170  145.7180 C   0  0  2  0  0  3  0  0  0  0  0  0
  195.1260  173.1560  143.4330 C   0  0  0  0  0  2  0  0  0  0  0  0
  1  9  1  0  0  0  0
  1  6  1  0  0  0  0
  2  3  1  6  0  0  0
  2 13  1  0  0  0  0
  2  5  1  0  0  0  0
  4  7  2  0  0  0  0
  5 14  1  0  0  0  0
  5 16  2  0  0  0  0
  7  3  1  0  0  0  0
  8 23  1  1  0  0  0
  8 12  1  0  0  0  0
 10 18  1  0  0  0  0
 11  4  1  0  0  0  0
 12 16  1  0  0  0  0
 13 18  1  6  0  0  0
 13  8  1  0  0  0  0
 14  1  2  0  0  0  0
 15 20  2  0  0  0  0
 15  4  1  0  0  0  0
 16 17  1  0  0  0  0
 17  6  2  0  0  0  0
 19 10  1  0  0  0  0
 19  3  2  0  0  0  0
 20 19  1  0  0  0  0
 21 22  2  0  0  0  0
 22 23  1  0  0  0  0
 24 28  1  0  0  0  0
 25 30  1  0  0  0  0
 27 24  1  0  0  0  0
 28 25  1  0  0  0  0
 29 26  1  6  0  0  0
 29 30  1  0  0  0  0
 30 22  1  6  0  0  0
 31 24  1  0  0  0  0
 31 29  1  0  0  0  0
M  END
>  <MODEL>
5

>  <REMARK>
 VINA RESULT:      -7.9      2.385      7.342
  Name = 
  2 active torsions:
  status: ('A' for Active; 'I' for Inactive)
    1  A    between atoms: C_5  and  C_30
    2  A    between atoms: C_10  and  N_16
                            x       y       z     vdW  Elec       q    Type
                         _______ _______ _______ _____ _____    ______ ____

>  <TORSDO>
F 2

$$$$
=
 OpenBabel11112417063D

 31 35  0  0  1  0  0  0  0  0999 V2000
  187.1230  177.3510  141.2140 C   0  0  0  0  0  0  0  0  0  0  0  0
  188.5680  174.1430  142.5040 C   0  0  2  0  0  3  0  0  0  0  0  0
  189.0510  173.3940  141.2720 C   0  0  0  0  0  0  0  0  0  0  0  0
  189.0340  173.0370  138.8660 C   0  0  0  0  0  0  0  0  0  0  0  0
  188.3870  175.6230  142.2520 C   0  0  0  0  0  0  0  0  0  0  0  0
  188.0410  178.3130  141.6380 C   0  0  0  0  0  3  0  0  0  0  0  0
  188.6060  173.7500  139.9890 C   0  0  0  0  0  3  0  0  0  0  0  0
  190.7730  174.6900  143.6010 C   0  0  2  0  0  3  0  0  0  0  0  0
  185.9380  177.7590  140.4150 C   0  0  0  0  0  1  0  0  0  0  0  0
  190.3210  171.8680  142.6840 O   0  0  0  0  0  0  0  0  0  0  0  0
  188.5660  173.4340  137.5130 C   0  0  0  0  0  1  0  0  0  0  0  0
  190.4720  176.1890  143.6050 C   0  0  0  0  0  2  0  0  0  0  0  0
  189.4710  173.8920  143.7310 C   0  0  2  0  0  3  0  0  0  0  0  0
  187.3140  176.0430  141.5270 N   0  0  0  0  0  0  0  0  0  0  0  0
  189.9010  171.9520  139.0160 C   0  0  0  0  0  3  0  0  0  0  0  0
  189.3380  176.5660  142.6950 C   0  0  0  0  0  0  0  0  0  0  0  0
  189.1470  177.9140  142.3890 C   0  0  0  0  0  3  0  0  0  0  0  0
  189.7360  172.3920  143.8740 C   0  0  0  0  0  2  0  0  0  0  0  0
  189.8960  172.2750  141.4160 C   0  0  0  0  0  0  0  0  0  0  0  0
  190.3280  171.5700  140.2890 C   0  0  0  0  0  3  0  0  0  0  0  0
  193.6180  174.5950  143.4250 O   0  0  0  0  0  0  0  0  0  0  0  0
  193.0950  174.3530  144.5470 C   0  0  0  0  0  0  0  0  0  0  0  0
  191.6740  174.3780  144.7020 N   0  0  0  0  0  2  0  0  0  0  0  0
  196.8150  174.0110  145.1900 N   0  0  0  0  0  0  0  0  0  0  0  0
  194.8660  175.1920  146.1100 C   0  0  0  0  0  2  0  0  0  0  0  0
  193.9280  171.5560  145.0980 C   0  0  0  0  0  1  0  0  0  0  0  0
  197.9250  174.1650  144.2690 C   0  0  0  0  0  1  0  0  0  0  0  0
  196.0670  175.2660  145.1610 C   0  0  0  0  0  2  0  0  0  0  0  0
  194.7700  172.7270  145.5750 C   0  0  2  0  0  3  0  0  0  0  0  0
  193.9520  174.0200  145.7370 C   0  0  2  0  0  3  0  0  0  0  0  0
  195.9670  172.9490  144.6520 C   0  0  0  0  0  2  0  0  0  0  0  0
  1 14  2  0  0  0  0
  1  6  1  0  0  0  0
  2  3  1  6  0  0  0
  2 13  1  0  0  0  0
  3 19  1  0  0  0  0
  4 15  2  0  0  0  0
  4  7  1  0  0  0  0
  5  2  1  0  0  0  0
  5 16  2  0  0  0  0
  6 17  2  0  0  0  0
  7  3  2  0  0  0  0
  8 12  1  0  0  0  0
  8 13  1  0  0  0  0
  8 23  1  1  0  0  0
  9  1  1  0  0  0  0
 10 18  1  0  0  0  0
 11  4  1  0  0  0  0
 13 18  1  6  0  0  0
 14  5  1  0  0  0  0
 15 20  1  0  0  0  0
 16 12  1  0  0  0  0
 17 16  1  0  0  0  0
 19 10  1  0  0  0  0
 20 19  2  0  0  0  0
 21 22  2  0  0  0  0
 22 23  1  0  0  0  0
 27 24  1  0  0  0  0
 28 24  1  0  0  0  0
 28 25  1  0  0  0  0
 29 26  1  6  0  0  0
 29 30  1  0  0  0  0
 30 22  1  6  0  0  0
 30 25  1  0  0  0  0
 31 24  1  0  0  0  0
 31 29  1  0  0  0  0
M  END
>  <MODEL>
6

>  <REMARK>
 VINA RESULT:      -7.8      3.631      7.406
  Name = 
  2 active torsions:
  status: ('A' for Active; 'I' for Inactive)
    1  A    between atoms: C_5  and  C_30
    2  A    between atoms: C_10  and  N_16
                            x       y       z     vdW  Elec       q    Type
                         _______ _______ _______ _____ _____    ______ ____

>  <TORSDO>
F 2

$$$$
=
 OpenBabel11112417063D

 31 35  0  0  1  0  0  0  0  0999 V2000
  188.4460  175.9350  141.6370 C   0  0  0  0  0  0  0  0  0  0  0  0
  191.7200  176.3740  143.4070 C   0  0  2  0  0  3  0  0  0  0  0  0
  191.3690  176.4810  144.8830 C   0  0  0  0  0  0  0  0  0  0  0  0
  189.7510  176.8880  146.6540 C   0  0  0  0  0  0  0  0  0  0  0  0
  190.6170  175.7400  142.5910 C   0  0  0  0  0  0  0  0  0  0  0  0
  188.4900  174.6110  141.2010 C   0  0  0  0  0  3  0  0  0  0  0  0
  190.0570  176.7640  145.2960 C   0  0  0  0  0  3  0  0  0  0  0  0
  192.9040  174.1470  143.3790 C   0  0  2  0  0  3  0  0  0  0  0  0
  187.2460  176.7670  141.3630 C   0  0  0  0  0  1  0  0  0  0  0  0
  193.7070  176.1390  145.4760 O   0  0  0  0  0  0  0  0  0  0  0  0
  188.3550  177.1720  147.0760 C   0  0  0  0  0  1  0  0  0  0  0  0
  191.9480  173.5810  142.3290 C   0  0  0  0  0  2  0  0  0  0  0  0
  193.0680  175.6580  143.1790 C   0  0  2  0  0  3  0  0  0  0  0  0
  189.4990  176.4650  142.3140 N   0  0  0  0  0  0  0  0  0  0  0  0
  190.7560  176.7440  147.6120 C   0  0  0  0  0  3  0  0  0  0  0  0
  190.6960  174.3960  142.1700 C   0  0  0  0  0  0  0  0  0  0  0  0
  189.6260  173.8440  141.4640 C   0  0  0  0  0  3  0  0  0  0  0  0
  194.1260  176.2440  144.1170 C   0  0  0  0  0  2  0  0  0  0  0  0
  192.3840  176.3760  145.8570 C   0  0  0  0  0  0  0  0  0  0  0  0
  192.0700  176.4910  147.2140 C   0  0  0  0  0  3  0  0  0  0  0  0
  193.9620  172.2900  145.2660 O   0  0  0  0  0  0  0  0  0  0  0  0
  194.6610  172.5490  144.2490 C   0  0  0  0  0  0  0  0  0  0  0  0
  194.1920  173.4760  143.2670 N   0  0  0  0  0  2  0  0  0  0  0  0
  196.5620  169.7190  145.9070 N   0  0  0  0  0  0  0  0  0  0  0  0
  195.8600  170.4270  143.6610 C   0  0  0  0  0  2  0  0  0  0  0  0
  197.0390  173.4770  145.7670 C   0  0  0  0  0  1  0  0  0  0  0  0
  196.1710  168.8790  147.0230 C   0  0  0  0  0  1  0  0  0  0  0  0
  195.5280  169.5680  144.8850 C   0  0  0  0  0  2  0  0  0  0  0  0
  196.9470  172.0460  145.2640 C   0  0  2  0  0  3  0  0  0  0  0  0
  196.0040  171.9010  144.0560 C   0  0  2  0  0  3  0  0  0  0  0  0
  196.5420  171.0980  146.3910 C   0  0  0  0  0  2  0  0  0  0  0  0
  1 14  1  0  0  0  0
  2  5  1  6  0  0  0
  2  3  1  0  0  0  0
  3  7  2  0  0  0  0
  3 19  1  0  0  0  0
  4 11  1  0  0  0  0
  4 15  2  0  0  0  0
  6 17  1  0  0  0  0
  6  1  2  0  0  0  0
  7  4  1  0  0  0  0
  8 23  1  6  0  0  0
  9  1  1  0  0  0  0
 10 19  1  0  0  0  0
 12  8  1  0  0  0  0
 13  8  1  0  0  0  0
 13  2  1  0  0  0  0
 13 18  1  1  0  0  0
 14  5  2  0  0  0  0
 16 12  1  0  0  0  0
 16  5  1  0  0  0  0
 17 16  2  0  0  0  0
 18 10  1  0  0  0  0
 19 20  2  0  0  0  0
 20 15  1  0  0  0  0
 22 21  2  0  0  0  0
 23 22  1  0  0  0  0
 24 31  1  0  0  0  0
 24 27  1  0  0  0  0
 25 30  1  0  0  0  0
 25 28  1  0  0  0  0
 28 24  1  0  0  0  0
 29 26  1  1  0  0  0
 29 31  1  0  0  0  0
 30 22  1  1  0  0  0
 30 29  1  0  0  0  0
M  END
>  <MODEL>
7

>  <REMARK>
 VINA RESULT:      -7.5      3.667      8.609
  Name = 
  2 active torsions:
  status: ('A' for Active; 'I' for Inactive)
    1  A    between atoms: C_5  and  C_30
    2  A    between atoms: C_10  and  N_16
                            x       y       z     vdW  Elec       q    Type
                         _______ _______ _______ _____ _____    ______ ____

>  <TORSDO>
F 2

$$$$
=
 OpenBabel11112417063D

 31 35  0  0  1  0  0  0  0  0999 V2000
  186.0410  178.9310  143.1950 C   0  0  0  0  0  0  0  0  0  0  0  0
  189.1890  176.9160  143.4640 C   0  0  2  0  0  3  0  0  0  0  0  0
  189.0790  176.1710  144.7850 C   0  0  0  0  0  0  0  0  0  0  0  0
  188.0860  175.8980  146.9890 C   0  0  0  0  0  0  0  0  0  0  0  0
  187.8510  177.4050  142.9580 C   0  0  0  0  0  0  0  0  0  0  0  0
  185.3360  178.2950  142.1730 C   0  0  0  0  0  3  0  0  0  0  0  0
  188.1590  176.5710  145.7670 C   0  0  0  0  0  3  0  0  0  0  0  0
  189.0020  174.9950  141.8390 C   0  0  2  0  0  3  0  0  0  0  0  0
  185.4460  180.1040  143.8880 C   0  0  0  0  0  1  0  0  0  0  0  0
  190.9200  174.7160  144.1310 O   0  0  0  0  0  0  0  0  0  0  0  0
  187.0980  176.3230  148.0130 C   0  0  0  0  0  1  0  0  0  0  0  0
  187.8030  175.6270  141.1310 C   0  0  0  0  0  2  0  0  0  0  0  0
  189.9250  176.0900  142.3880 C   0  0  2  0  0  3  0  0  0  0  0  0
  187.2680  178.4780  143.5610 N   0  0  0  0  0  0  0  0  0  0  0  0
  188.9410  174.8240  147.2470 C   0  0  0  0  0  3  0  0  0  0  0  0
  187.1660  176.7340  141.9230 C   0  0  0  0  0  0  0  0  0  0  0  0
  185.9100  177.1970  141.5310 C   0  0  0  0  0  3  0  0  0  0  0  0
  191.2100  175.5060  142.9790 C   0  0  0  0  0  2  0  0  0  0  0  0
  189.9640  175.1100  145.0690 C   0  0  0  0  0  0  0  0  0  0  0  0
  189.8800  174.4330  146.2900 C   0  0  0  0  0  3  0  0  0  0  0  0
  188.9480  172.1450  141.8190 O   0  0  0  0  0  0  0  0  0  0  0  0
  189.6470  172.7200  140.9410 C   0  0  0  0  0  0  0  0  0  0  0  0
  189.7220  174.1460  140.8990 N   0  0  0  0  0  2  0  0  0  0  0  0
  192.6450  173.3550  138.7100 N   0  0  0  0  0  0  0  0  0  0  0  0
  191.8760  171.7220  140.3770 C   0  0  0  0  0  2  0  0  0  0  0  0
  188.9520  172.8090  138.0540 C   0  0  0  0  0  1  0  0  0  0  0  0
  193.4420  174.5590  138.5610 C   0  0  0  0  0  1  0  0  0  0  0  0
  192.6970  172.9890  140.1240 C   0  0  0  0  0  2  0  0  0  0  0  0
  190.3680  172.4910  138.5040 C   0  0  2  0  0  3  0  0  0  0  0  0
  190.4230  171.9190  139.9320 C   0  0  2  0  0  3  0  0  0  0  0  0
  191.2700  173.7150  138.3710 C   0  0  0  0  0  2  0  0  0  0  0  0
  1 14  1  0  0  0  0
  1  9  1  0  0  0  0
  2  5  1  6  0  0  0
  2  3  1  0  0  0  0
  3 19  2  0  0  0  0
  3  7  1  0  0  0  0
  4 15  1  0  0  0  0
  4 11  1  0  0  0  0
  5 14  2  0  0  0  0
  6  1  2  0  0  0  0
  7  4  2  0  0  0  0
  8 23  1  6  0  0  0
  8 13  1  0  0  0  0
 10 19  1  0  0  0  0
 12  8  1  0  0  0  0
 12 16  1  0  0  0  0
 13 18  1  1  0  0  0
 13  2  1  0  0  0  0
 16  5  1  0  0  0  0
 17 16  2  0  0  0  0
 17  6  1  0  0  0  0
 18 10  1  0  0  0  0
 19 20  1  0  0  0  0
 20 15  2  0  0  0  0
 22 21  2  0  0  0  0
 23 22  1  0  0  0  0
 24 28  1  0  0  0  0
 27 24  1  0  0  0  0
 28 25  1  0  0  0  0
 29 26  1  1  0  0  0
 29 30  1  0  0  0  0
 30 25  1  0  0  0  0
 30 22  1  1  0  0  0
 31 29  1  0  0  0  0
 31 24  1  0  0  0  0
M  END
>  <MODEL>
8

>  <REMARK>
 VINA RESULT:      -7.4      2.624      7.905
  Name = 
  2 active torsions:
  status: ('A' for Active; 'I' for Inactive)
    1  A    between atoms: C_5  and  C_30
    2  A    between atoms: C_10  and  N_16
                            x       y       z     vdW  Elec       q    Type
                         _______ _______ _______ _____ _____    ______ ____

>  <TORSDO>
F 2

$$$$
=
 OpenBabel11112417063D

 31 35  0  0  1  0  0  0  0  0999 V2000
  193.7670  172.7650  140.5720 C   0  0  0  0  0  0  0  0  0  0  0  0
  191.9640  173.6660  143.7320 C   0  0  2  0  0  3  0  0  0  0  0  0
  192.7280  174.8470  144.3090 C   0  0  0  0  0  0  0  0  0  0  0  0
  194.7350  176.2180  144.4360 C   0  0  0  0  0  0  0  0  0  0  0  0
  192.2390  173.4580  142.2610 C   0  0  0  0  0  0  0  0  0  0  0  0
  192.8760  173.1530  139.5710 C   0  0  0  0  0  3  0  0  0  0  0  0
  194.0300  175.1470  143.8780 C   0  0  0  0  0  3  0  0  0  0  0  0
  189.8040  174.7930  143.0800 C   0  0  2  0  0  3  0  0  0  0  0  0
  195.0840  172.1820  140.2090 C   0  0  0  0  0  1  0  0  0  0  0  0
  190.8840  175.3110  145.8320 O   0  0  0  0  0  0  0  0  0  0  0  0
  196.1060  176.5320  143.9590 C   0  0  0  0  0  1  0  0  0  0  0  0
  189.9340  174.3410  141.6240 C   0  0  0  0  0  2  0  0  0  0  0  0
  190.4490  173.7590  144.0100 C   0  0  2  0  0  3  0  0  0  0  0  0
  193.4320  172.9240  141.8800 N   0  0  0  0  0  0  0  0  0  0  0  0
  194.1480  176.9920  145.4390 C   0  0  0  0  0  3  0  0  0  0  0  0
  191.3150  173.8650  141.2750 C   0  0  0  0  0  0  0  0  0  0  0  0
  191.6430  173.6970  139.9290 C   0  0  0  0  0  3  0  0  0  0  0  0
  190.2180  174.0990  145.4840 C   0  0  0  0  0  2  0  0  0  0  0  0
  192.1600  175.6110  145.3500 C   0  0  0  0  0  0  0  0  0  0  0  0
  192.8650  176.6870  145.8970 C   0  0  0  0  0  3  0  0  0  0  0  0
  188.5360  177.2790  143.6620 O   0  0  0  0  0  0  0  0  0  0  0  0
  187.8190  176.2410  143.6830 C   0  0  0  0  0  0  0  0  0  0  0  0
  188.3940  174.9620  143.4050 N   0  0  0  0  0  2  0  0  0  0  0  0
  185.3240  179.0450  144.2120 N   0  0  0  0  0  0  0  0  0  0  0  0
  185.5680  176.9960  142.8800 C   0  0  0  0  0  2  0  0  0  0  0  0
  186.8940  176.4590  146.4970 C   0  0  0  0  0  1  0  0  0  0  0  0
  185.5310  180.4810  144.1630 C   0  0  0  0  0  1  0  0  0  0  0  0
  185.7490  178.5160  142.9180 C   0  0  0  0  0  2  0  0  0  0  0  0
  186.0550  177.0130  145.3560 C   0  0  2  0  0  3  0  0  0  0  0  0
  186.3550  176.3260  144.0120 C   0  0  2  0  0  3  0  0  0  0  0  0
  186.2180  178.5270  145.2460 C   0  0  0  0  0  2  0  0  0  0  0  0
  1 14  1  0  0  0  0
  2  5  1  6  0  0  0
  2 13  1  0  0  0  0
  2  3  1  0  0  0  0
  3 19  1  0  0  0  0
  4 15  2  0  0  0  0
  6 17  1  0  0  0  0
  6  1  2  0  0  0  0
  7  3  2  0  0  0  0
  7  4  1  0  0  0  0
  8 23  1  1  0  0  0
  8 13  1  0  0  0  0
  9  1  1  0  0  0  0
 11  4  1  0  0  0  0
 12  8  1  0  0  0  0
 13 18  1  1  0  0  0
 14  5  2  0  0  0  0
 15 20  1  0  0  0  0
 16 12  1  0  0  0  0
 16  5  1  0  0  0  0
 17 16  2  0  0  0  0
 18 10  1  0  0  0  0
 19 10  1  0  0  0  0
 19 20  2  0  0  0  0
 21 22  2  0  0  0  0
 23 22  1  0  0  0  0
 24 31  1  0  0  0  0
 25 28  1  0  0  0  0
 25 30  1  0  0  0  0
 27 24  1  0  0  0  0
 28 24  1  0  0  0  0
 29 26  1  1  0  0  0
 30 22  1  6  0  0  0
 30 29  1  0  0  0  0
 31 29  1  0  0  0  0
M  END
>  <MODEL>
9

>  <REMARK>
 VINA RESULT:      -7.4      1.912      4.461
  Name = 
  2 active torsions:
  status: ('A' for Active; 'I' for Inactive)
    1  A    between atoms: C_5  and  C_30
    2  A    between atoms: C_10  and  N_16
                            x       y       z     vdW  Elec       q    Type
                         _______ _______ _______ _____ _____    ______ ____

>  <TORSDO>
F 2

$$$$
