=
 OpenBabel11112417193D

 37 42  0  0  1  0  0  0  0  0999 V2000
  190.8550  172.9910  142.4480 C   0  0  0  0  0  2  0  0  0  0  0  0
  195.7650  174.5730  143.4900 S   0  0  0  0  0  0  0  0  0  0  0  0
  191.6050  175.5840  144.6720 C   0  0  0  0  0  0  0  0  0  0  0  0
  189.8530  171.8920  142.0570 C   0  0  1  0  0  3  0  0  0  0  0  0
  188.6930  176.2270  142.4770 C   0  0  0  0  0  2  0  0  0  0  0  0
  193.6900  174.4270  145.2200 C   0  0  0  0  0  0  0  0  0  0  0  0
  190.7390  176.1190  143.7100 O   0  0  0  0  0  0  0  0  0  0  0  0
  188.9140  172.6540  139.9050 C   0  0  0  0  0  0  0  0  0  0  0  0
  192.7900  174.9210  144.2440 C   0  0  0  0  0  0  0  0  0  0  0  0
  189.3310  176.2250  143.8600 C   0  0  1  0  0  3  0  0  0  0  0  0
  193.4010  174.5550  146.5780 C   0  0  0  0  0  3  0  0  0  0  0  0
  189.8030  171.6400  140.5530 C   0  0  0  0  0  2  0  0  0  0  0  0
  193.1620  174.6990  142.7740 C   0  0  2  0  0  3  0  0  0  0  0  0
  196.5690  173.5910  142.6850 O   0  0  0  0  0  0  0  0  0  0  0  0
  190.1120  176.3920  146.6060 C   0  0  0  0  0  2  0  0  0  0  0  0
  192.2360  175.1940  146.9920 C   0  0  0  0  0  3  0  0  0  0  0  0
  194.5160  175.3210  142.4600 C   0  0  0  0  0  2  0  0  0  0  0  0
  189.3890  174.0640  139.6670 C   0  0  0  0  0  2  0  0  0  0  0  0
  188.7630  174.8350  141.8650 C   0  0  0  0  0  2  0  0  0  0  0  0
  191.3400  175.7180  146.0610 C   0  0  0  0  0  0  0  0  0  0  0  0
  192.1370  175.1390  141.7280 C   0  0  0  0  0  2  0  0  0  0  0  0
  194.9560  173.7200  144.8360 C   0  0  0  0  0  2  0  0  0  0  0  0
  188.9660  177.4970  144.6340 C   0  0  2  0  0  3  0  0  0  0  0  0
  196.6720  175.6410  144.0350 O   0  0  0  0  0  0  0  0  0  0  0  0
  189.8510  174.7430  140.8830 N   0  0  1  0  0  0  0  0  0  0  0  0
  187.7830  172.3410  139.5790 O   0  0  0  0  0  0  0  0  0  0  0  0
  191.0750  174.0880  141.3820 C   0  0  2  0  0  3  0  0  0  0  0  0
  189.8240  177.7060  145.8840 C   0  0  0  0  0  2  0  0  0  0  0  0
  186.9110  176.6050  145.8160 C   0  0  0  0  0  3  0  0  0  0  0  0
  187.5060  177.5540  144.9700 C   0  0  0  0  0  0  0  0  0  0  0  0
  186.7250  178.5820  144.4300 C   0  0  0  0  0  3  0  0  0  0  0  0
  184.5930  179.6820  144.1860 O   0  0  0  0  0  1  0  0  0  0  0  0
  184.7730  177.7110  145.5650 C   0  0  0  0  0  3  0  0  0  0  0  0
  185.3620  178.6600  144.7250 C   0  0  0  0  0  0  0  0  0  0  0  0
  185.5480  176.6840  146.1100 C   0  0  0  0  0  3  0  0  0  0  0  0
  190.7690  169.8970  141.7390 C   0  0  0  0  0  1  0  0  0  0  0  0
  190.1900  170.7080  142.7150 O   0  0  0  0  0  0  0  0  0  0  0  0
  2 24  2  0  0  0  0
  2 22  1  0  0  0  0
  3 20  1  0  0  0  0
  4  1  1  0  0  0  0
  4 37  1  1  0  0  0
  6 11  2  0  0  0  0
  7 10  1  0  0  0  0
  7  3  1  0  0  0  0
  8 12  1  0  0  0  0
  9  3  2  0  0  0  0
  9  6  1  0  0  0  0
 10  5  1  6  0  0  0
 10 23  1  0  0  0  0
 11 16  1  0  0  0  0
 12  4  1  0  0  0  0
 13 21  1  6  0  0  0
 13  9  1  0  0  0  0
 14  2  2  0  0  0  0
 17 13  1  0  0  0  0
 17  2  1  0  0  0  0
 18  8  1  0  0  0  0
 19  5  1  0  0  0  0
 20 15  1  0  0  0  0
 20 16  2  0  0  0  0
 22  6  1  0  0  0  0
 23 30  1  1  0  0  0
 23 28  1  0  0  0  0
 25 18  1  6  0  0  0
 25 27  1  0  0  0  0
 25 19  1  0  0  0  0
 26  8  2  0  0  0  0
 27 21  1  1  0  0  0
 27  1  1  0  0  0  0
 28 15  1  0  0  0  0
 29 35  1  0  0  0  0
 30 29  2  0  0  0  0
 31 34  2  0  0  0  0
 31 30  1  0  0  0  0
 32 34  1  0  0  0  0
 33 35  2  0  0  0  0
 34 33  1  0  0  0  0
 36 37  1  0  0  0  0
M  END
>  <MODEL>
1

>  <REMARK>
 VINA RESULT:      -8.9      0.000      0.000
  Name = 
  2 active torsions:
  status: ('A' for Active; 'I' for Inactive)
    1  A    between atoms: C_4  and  O_37
    2  A    between atoms: C_23  and  C_30
                            x       y       z     vdW  Elec       q    Type
                         _______ _______ _______ _____ _____    ______ ____

>  <TORSDO>
F 2

$$$$
=
 OpenBabel11112417193D

 37 42  0  0  1  0  0  0  0  0999 V2000
  192.1530  173.0920  142.7210 C   0  0  0  0  0  2  0  0  0  0  0  0
  196.6510  175.7920  143.1390 S   0  0  0  0  0  0  0  0  0  0  0  0
  192.4070  176.1520  144.3950 C   0  0  0  0  0  0  0  0  0  0  0  0
  191.3930  171.7610  142.5980 C   0  0  1  0  0  3  0  0  0  0  0  0
  189.3640  175.7760  142.3190 C   0  0  0  0  0  2  0  0  0  0  0  0
  194.7020  175.5590  145.0010 C   0  0  0  0  0  0  0  0  0  0  0  0
  191.4210  176.3120  143.4130 O   0  0  0  0  0  0  0  0  0  0  0  0
  190.2550  171.9030  140.4120 C   0  0  0  0  0  0  0  0  0  0  0  0
  193.6920  175.6710  144.0140 C   0  0  0  0  0  0  0  0  0  0  0  0
  190.0270  176.1610  143.6340 C   0  0  1  0  0  3  0  0  0  0  0  0
  194.4300  175.8790  146.3300 C   0  0  0  0  0  3  0  0  0  0  0  0
  191.3540  171.2270  141.1700 C   0  0  0  0  0  2  0  0  0  0  0  0
  194.0610  175.2570  142.5860 C   0  0  2  0  0  3  0  0  0  0  0  0
  197.6200  174.8580  142.4700 O   0  0  0  0  0  0  0  0  0  0  0  0
  190.8330  176.9920  146.2490 C   0  0  0  0  0  2  0  0  0  0  0  0
  193.1700  176.3370  146.7010 C   0  0  0  0  0  3  0  0  0  0  0  0
  195.2450  176.0670  142.0780 C   0  0  0  0  0  2  0  0  0  0  0  0
  190.4190  173.3090  139.8960 C   0  0  0  0  0  2  0  0  0  0  0  0
  189.7070  174.3370  141.9600 C   0  0  0  0  0  2  0  0  0  0  0  0
  192.1580  176.4880  145.7530 C   0  0  0  0  0  0  0  0  0  0  0  0
  192.9370  175.2790  141.5480 C   0  0  0  0  0  2  0  0  0  0  0  0
  196.0760  175.0610  144.6660 C   0  0  0  0  0  2  0  0  0  0  0  0
  189.4260  177.4560  144.1930 C   0  0  2  0  0  3  0  0  0  0  0  0
  197.3300  177.1030  143.4250 O   0  0  0  0  0  0  0  0  0  0  0  0
  190.7610  174.2820  140.9400 N   0  0  1  0  0  0  0  0  0  0  0  0
  189.2060  171.3140  140.2220 O   0  0  0  0  0  0  0  0  0  0  0  0
  192.1090  173.9910  141.4660 C   0  0  2  0  0  3  0  0  0  0  0  0
  190.2560  178.0630  145.3270 C   0  0  0  0  0  2  0  0  0  0  0  0
  187.6580  176.7430  145.8610 C   0  0  0  0  0  3  0  0  0  0  0  0
  187.9970  177.2810  144.6090 C   0  0  0  0  0  0  0  0  0  0  0  0
  186.9810  177.6700  143.7280 C   0  0  0  0  0  3  0  0  0  0  0  0
  184.6380  177.9070  143.2120 O   0  0  0  0  0  1  0  0  0  0  0  0
  185.3070  176.9790  145.3350 C   0  0  0  0  0  3  0  0  0  0  0  0
  185.6400  177.5190  144.0900 C   0  0  0  0  0  0  0  0  0  0  0  0
  186.3160  176.5920  146.2210 C   0  0  0  0  0  3  0  0  0  0  0  0
  192.8290  171.5410  144.2740 C   0  0  0  0  0  1  0  0  0  0  0  0
  191.9890  170.8130  143.4330 O   0  0  0  0  0  0  0  0  0  0  0  0
  2 24  2  0  0  0  0
  2 22  1  0  0  0  0
  3 20  1  0  0  0  0
  4  1  1  0  0  0  0
  4 37  1  1  0  0  0
  6 11  2  0  0  0  0
  7 10  1  0  0  0  0
  7  3  1  0  0  0  0
  8 12  1  0  0  0  0
  9  3  2  0  0  0  0
  9  6  1  0  0  0  0
 10  5  1  6  0  0  0
 10 23  1  0  0  0  0
 11 16  1  0  0  0  0
 12  4  1  0  0  0  0
 13 21  1  6  0  0  0
 13  9  1  0  0  0  0
 14  2  2  0  0  0  0
 17 13  1  0  0  0  0
 17  2  1  0  0  0  0
 18  8  1  0  0  0  0
 19  5  1  0  0  0  0
 20 15  1  0  0  0  0
 20 16  2  0  0  0  0
 22  6  1  0  0  0  0
 23 30  1  1  0  0  0
 23 28  1  0  0  0  0
 25 18  1  6  0  0  0
 25 27  1  0  0  0  0
 25 19  1  0  0  0  0
 26  8  2  0  0  0  0
 27 21  1  1  0  0  0
 27  1  1  0  0  0  0
 28 15  1  0  0  0  0
 29 35  1  0  0  0  0
 30 29  2  0  0  0  0
 31 34  2  0  0  0  0
 31 30  1  0  0  0  0
 32 34  1  0  0  0  0
 33 35  2  0  0  0  0
 34 33  1  0  0  0  0
 37 36  1  0  0  0  0
M  END
>  <MODEL>
2

>  <REMARK>
 VINA RESULT:      -8.5      1.335      1.422
  Name = 
  2 active torsions:
  status: ('A' for Active; 'I' for Inactive)
    1  A    between atoms: C_4  and  O_37
    2  A    between atoms: C_23  and  C_30
                            x       y       z     vdW  Elec       q    Type
                         _______ _______ _______ _____ _____    ______ ____

>  <TORSDO>
F 2

$$$$
=
 OpenBabel11112417193D

 37 42  0  0  1  0  0  0  0  0999 V2000
  192.6230  174.9680  143.5740 C   0  0  0  0  0  2  0  0  0  0  0  0
  191.8010  170.2710  141.3450 S   0  0  0  0  0  0  0  0  0  0  0  0
  189.5440  173.9910  142.2320 C   0  0  0  0  0  0  0  0  0  0  0  0
  193.5490  176.1440  143.9240 C   0  0  1  0  0  3  0  0  0  0  0  0
  189.3180  175.8230  145.4420 C   0  0  0  0  0  2  0  0  0  0  0  0
  190.7580  172.6490  140.5860 C   0  0  0  0  0  0  0  0  0  0  0  0
  189.3070  174.3370  143.5690 O   0  0  0  0  0  0  0  0  0  0  0  0
  193.6080  176.1650  146.3920 C   0  0  0  0  0  0  0  0  0  0  0  0
  190.5560  173.0350  141.9340 C   0  0  0  0  0  0  0  0  0  0  0  0
  188.8580  175.6110  144.0060 C   0  0  1  0  0  3  0  0  0  0  0  0
  190.0020  173.2230  139.5650 C   0  0  0  0  0  3  0  0  0  0  0  0
  194.4060  175.8790  145.1590 C   0  0  0  0  0  2  0  0  0  0  0  0
  191.4590  172.3880  142.9890 C   0  0  2  0  0  3  0  0  0  0  0  0
  193.1770  169.6680  141.4110 O   0  0  0  0  0  0  0  0  0  0  0  0
  187.6940  175.5710  141.3940 C   0  0  0  0  0  2  0  0  0  0  0  0
  189.0220  174.1660  139.8590 C   0  0  0  0  0  3  0  0  0  0  0  0
  191.3280  170.8720  142.9560 C   0  0  0  0  0  2  0  0  0  0  0  0
  192.5700  175.1920  146.8880 C   0  0  0  0  0  2  0  0  0  0  0  0
  190.8190  176.0730  145.4820 C   0  0  0  0  0  2  0  0  0  0  0  0
  188.7750  174.5500  141.1770 C   0  0  0  0  0  0  0  0  0  0  0  0
  191.3090  172.8880  144.4270 C   0  0  0  0  0  2  0  0  0  0  0  0
  191.8060  171.6460  140.2040 C   0  0  0  0  0  2  0  0  0  0  0  0
  187.3320  175.7100  143.8980 C   0  0  2  0  0  3  0  0  0  0  0  0
  190.8160  169.2310  140.8880 O   0  0  0  0  0  0  0  0  0  0  0  0
  191.5460  174.8640  145.8890 N   0  0  1  0  0  0  0  0  0  0  0  0
  193.7890  177.2060  146.9970 O   0  0  0  0  0  0  0  0  0  0  0  0
  192.1610  174.1140  144.7770 C   0  0  2  0  0  3  0  0  0  0  0  0
  186.7890  175.1930  142.5640 C   0  0  0  0  0  2  0  0  0  0  0  0
  186.7840  178.0740  143.1720 C   0  0  0  0  0  3  0  0  0  0  0  0
  186.8350  177.0970  144.1780 C   0  0  0  0  0  0  0  0  0  0  0  0
  186.4090  177.4160  145.4730 C   0  0  0  0  0  3  0  0  0  0  0  0
  185.5200  179.0110  147.0480 O   0  0  0  0  0  1  0  0  0  0  0  0
  185.8960  179.6720  144.7580 C   0  0  0  0  0  3  0  0  0  0  0  0
  185.9410  178.7000  145.7630 C   0  0  0  0  0  0  0  0  0  0  0  0
  186.3170  179.3580  143.4640 C   0  0  0  0  0  3  0  0  0  0  0  0
  195.6620  176.0680  143.2520 C   0  0  0  0  0  1  0  0  0  0  0  0
  194.3770  176.4160  142.8340 O   0  0  0  0  0  0  0  0  0  0  0  0
  1  4  1  0  0  0  0
  2 14  2  0  0  0  0
  2 17  1  0  0  0  0
  3  7  1  0  0  0  0
  4 37  1  6  0  0  0
  4 12  1  0  0  0  0
  5 19  1  0  0  0  0
  6  9  2  0  0  0  0
  7 10  1  0  0  0  0
  8 18  1  0  0  0  0
  8 26  2  0  0  0  0
  9  3  1  0  0  0  0
  9 13  1  0  0  0  0
 10  5  1  1  0  0  0
 11 16  2  0  0  0  0
 11  6  1  0  0  0  0
 12  8  1  0  0  0  0
 13 17  1  1  0  0  0
 13 21  1  0  0  0  0
 15 28  1  0  0  0  0
 16 20  1  0  0  0  0
 20 15  1  0  0  0  0
 20  3  2  0  0  0  0
 21 27  1  0  0  0  0
 22  6  1  0  0  0  0
 22  2  1  0  0  0  0
 23 10  1  0  0  0  0
 23 30  1  6  0  0  0
 24  2  2  0  0  0  0
 25 19  1  6  0  0  0
 25 18  1  0  0  0  0
 27  1  1  6  0  0  0
 27 25  1  0  0  0  0
 28 23  1  0  0  0  0
 29 35  2  0  0  0  0
 29 30  1  0  0  0  0
 30 31  2  0  0  0  0
 31 34  1  0  0  0  0
 33 34  2  0  0  0  0
 34 32  1  0  0  0  0
 35 33  1  0  0  0  0
 37 36  1  0  0  0  0
M  END
>  <MODEL>
3

>  <REMARK>
 VINA RESULT:      -8.1      2.204      5.490
  Name = 
  2 active torsions:
  status: ('A' for Active; 'I' for Inactive)
    1  A    between atoms: C_4  and  O_37
    2  A    between atoms: C_23  and  C_30
                            x       y       z     vdW  Elec       q    Type
                         _______ _______ _______ _____ _____    ______ ____

>  <TORSDO>
F 2

$$$$
=
 OpenBabel11112417193D

 37 42  0  0  1  0  0  0  0  0999 V2000
  193.9170  174.6570  143.3570 C   0  0  0  0  0  2  0  0  0  0  0  0
  193.7460  169.4110  142.9670 S   0  0  0  0  0  0  0  0  0  0  0  0
  191.0720  172.8990  142.3290 C   0  0  0  0  0  0  0  0  0  0  0  0
  194.6920  175.9830  143.2940 C   0  0  1  0  0  3  0  0  0  0  0  0
  190.3970  175.7190  144.6330 C   0  0  0  0  0  2  0  0  0  0  0  0
  192.5470  171.2140  141.3440 C   0  0  0  0  0  0  0  0  0  0  0  0
  190.6900  173.6710  143.4340 O   0  0  0  0  0  0  0  0  0  0  0  0
  194.5370  176.8950  145.5820 C   0  0  0  0  0  0  0  0  0  0  0  0
  192.1940  172.0300  142.4470 C   0  0  0  0  0  0  0  0  0  0  0  0
  190.0840  174.9520  143.3550 C   0  0  1  0  0  3  0  0  0  0  0  0
  191.8300  171.2870  140.1510 C   0  0  0  0  0  3  0  0  0  0  0  0
  195.4610  176.2840  144.5760 C   0  0  0  0  0  2  0  0  0  0  0  0
  193.0620  171.9190  143.7050 C   0  0  2  0  0  3  0  0  0  0  0  0
  195.1620  169.0430  143.3100 O   0  0  0  0  0  0  0  0  0  0  0  0
  189.1580  173.8380  140.8890 C   0  0  0  0  0  2  0  0  0  0  0  0
  190.7410  172.1470  140.0360 C   0  0  0  0  0  3  0  0  0  0  0  0
  193.0800  170.4880  144.2230 C   0  0  0  0  0  2  0  0  0  0  0  0
  193.5590  176.0460  146.3530 C   0  0  0  0  0  2  0  0  0  0  0  0
  191.8580  176.1460  144.6450 C   0  0  0  0  0  2  0  0  0  0  0  0
  190.3460  172.9460  141.1090 C   0  0  0  0  0  0  0  0  0  0  0  0
  192.7410  172.8790  144.8520 C   0  0  0  0  0  2  0  0  0  0  0  0
  193.7160  170.2750  141.4030 C   0  0  0  0  0  2  0  0  0  0  0  0
  188.5700  174.8210  143.1490 C   0  0  2  0  0  3  0  0  0  0  0  0
  192.9080  168.1660  142.8780 O   0  0  0  0  0  0  0  0  0  0  0  0
  192.6610  175.2610  145.4980 N   0  0  1  0  0  0  0  0  0  0  0  0
  194.5640  178.0970  145.7720 O   0  0  0  0  0  0  0  0  0  0  0  0
  193.4380  174.2430  144.7660 C   0  0  2  0  0  3  0  0  0  0  0  0
  188.1970  173.7990  142.0740 C   0  0  0  0  0  2  0  0  0  0  0  0
  188.5260  177.1040  142.0540 C   0  0  0  0  0  3  0  0  0  0  0  0
  187.9200  176.1450  142.8800 C   0  0  0  0  0  0  0  0  0  0  0  0
  186.6790  176.4220  143.4650 C   0  0  0  0  0  3  0  0  0  0  0  0
  184.8190  177.9170  143.8130 O   0  0  0  0  0  1  0  0  0  0  0  0
  186.6590  178.6020  142.4110 C   0  0  0  0  0  3  0  0  0  0  0  0
  186.0500  177.6480  143.2310 C   0  0  0  0  0  0  0  0  0  0  0  0
  187.8960  178.3300  141.8230 C   0  0  0  0  0  3  0  0  0  0  0  0
  196.7900  176.4220  142.7220 C   0  0  0  0  0  1  0  0  0  0  0  0
  195.5810  175.9440  142.2170 O   0  0  0  0  0  0  0  0  0  0  0  0
  2 14  2  0  0  0  0
  2 17  1  0  0  0  0
  3  9  1  0  0  0  0
  3  7  1  0  0  0  0
  4 37  1  6  0  0  0
  4  1  1  0  0  0  0
  4 12  1  0  0  0  0
  5 19  1  0  0  0  0
  6 22  1  0  0  0  0
  6  9  2  0  0  0  0
  8 26  2  0  0  0  0
  8 18  1  0  0  0  0
  9 13  1  0  0  0  0
 10  7  1  0  0  0  0
 10  5  1  1  0  0  0
 11  6  1  0  0  0  0
 12  8  1  0  0  0  0
 13 17  1  1  0  0  0
 13 21  1  0  0  0  0
 15 20  1  0  0  0  0
 15 28  1  0  0  0  0
 16 11  2  0  0  0  0
 16 20  1  0  0  0  0
 20  3  2  0  0  0  0
 22  2  1  0  0  0  0
 23 30  1  6  0  0  0
 23 10  1  0  0  0  0
 24  2  2  0  0  0  0
 25 19  1  6  0  0  0
 25 18  1  0  0  0  0
 27  1  1  6  0  0  0
 27 21  1  0  0  0  0
 27 25  1  0  0  0  0
 28 23  1  0  0  0  0
 29 30  1  0  0  0  0
 30 31  2  0  0  0  0
 33 34  2  0  0  0  0
 34 31  1  0  0  0  0
 34 32  1  0  0  0  0
 35 29  2  0  0  0  0
 35 33  1  0  0  0  0
 37 36  1  0  0  0  0
M  END
>  <MODEL>
4

>  <REMARK>
 VINA RESULT:      -7.9      2.460      5.622
  Name = 
  2 active torsions:
  status: ('A' for Active; 'I' for Inactive)
    1  A    between atoms: C_4  and  O_37
    2  A    between atoms: C_23  and  C_30
                            x       y       z     vdW  Elec       q    Type
                         _______ _______ _______ _____ _____    ______ ____

>  <TORSDO>
F 2

$$$$
=
 OpenBabel11112417193D

 37 42  0  0  1  0  0  0  0  0999 V2000
  190.8840  173.8130  140.4620 C   0  0  0  0  0  2  0  0  0  0  0  0
  187.1050  176.9640  142.3300 S   0  0  0  0  0  0  0  0  0  0  0  0
  191.0260  175.3200  143.6150 C   0  0  0  0  0  0  0  0  0  0  0  0
  191.6860  173.2280  139.2870 C   0  0  1  0  0  3  0  0  0  0  0  0
  192.1710  171.8000  143.5340 C   0  0  0  0  0  2  0  0  0  0  0  0
  189.7750  177.2120  142.6980 C   0  0  0  0  0  0  0  0  0  0  0  0
  191.1460  173.9410  143.8240 O   0  0  0  0  0  0  0  0  0  0  0  0
  191.1960  170.8100  139.3510 C   0  0  0  0  0  0  0  0  0  0  0  0
  189.9210  175.8120  142.8640 C   0  0  0  0  0  0  0  0  0  0  0  0
  192.3780  173.2480  143.9580 C   0  0  1  0  0  3  0  0  0  0  0  0
  190.7170  178.0900  143.2300 C   0  0  0  0  0  3  0  0  0  0  0  0
  190.9670  172.0780  138.5900 C   0  0  0  0  0  2  0  0  0  0  0  0
  188.8650  174.9160  142.2090 C   0  0  2  0  0  3  0  0  0  0  0  0
  186.1680  177.0280  141.1580 O   0  0  0  0  0  0  0  0  0  0  0  0
  193.1650  175.8080  144.9590 C   0  0  0  0  0  2  0  0  0  0  0  0
  191.8020  177.6040  143.9540 C   0  0  0  0  0  3  0  0  0  0  0  0
  187.4730  175.2620  142.7180 C   0  0  0  0  0  2  0  0  0  0  0  0
  190.4450  170.5240  140.6260 C   0  0  0  0  0  2  0  0  0  0  0  0
  192.0120  171.7130  142.0230 C   0  0  0  0  0  2  0  0  0  0  0  0
  191.9650  176.2350  144.1620 C   0  0  0  0  0  0  0  0  0  0  0  0
  189.0880  173.4060  142.3010 C   0  0  0  0  0  2  0  0  0  0  0  0
  188.6330  177.7950  141.9190 C   0  0  0  0  0  2  0  0  0  0  0  0
  192.8880  173.3290  145.4020 C   0  0  2  0  0  3  0  0  0  0  0  0
  186.4690  177.6240  143.5220 O   0  0  0  0  0  0  0  0  0  0  0  0
  190.6000  171.5670  141.6470 N   0  0  1  0  0  0  0  0  0  0  0  0
  192.0110  170.0030  138.9440 O   0  0  0  0  0  0  0  0  0  0  0  0
  189.9560  172.8110  141.1860 C   0  0  2  0  0  3  0  0  0  0  0  0
  192.8070  174.7400  145.9890 C   0  0  0  0  0  2  0  0  0  0  0  0
  194.4840  171.3970  145.7680 C   0  0  0  0  0  3  0  0  0  0  0  0
  194.2700  172.7660  145.5450 C   0  0  0  0  0  0  0  0  0  0  0  0
  195.3670  173.6290  145.4500 C   0  0  0  0  0  3  0  0  0  0  0  0
  197.7510  173.9940  145.4830 O   0  0  0  0  0  1  0  0  0  0  0  0
  196.8750  171.7690  145.8040 C   0  0  0  0  0  3  0  0  0  0  0  0
  196.6670  173.1330  145.5790 C   0  0  0  0  0  0  0  0  0  0  0  0
  195.7840  170.9020  145.8980 C   0  0  0  0  0  3  0  0  0  0  0  0
  191.1400  173.9520  137.2630 C   0  0  0  0  0  1  0  0  0  0  0  0
  191.9480  174.2410  138.3620 O   0  0  0  0  0  0  0  0  0  0  0  0
  2 17  1  0  0  0  0
  2 24  2  0  0  0  0
  3  7  1  0  0  0  0
  3 20  1  0  0  0  0
  4 37  1  6  0  0  0
  4  1  1  0  0  0  0
  6  9  1  0  0  0  0
  6 11  2  0  0  0  0
  7 10  1  0  0  0  0
  8 18  1  0  0  0  0
  9  3  2  0  0  0  0
 10  5  1  1  0  0  0
 10 23  1  0  0  0  0
 11 16  1  0  0  0  0
 12  4  1  0  0  0  0
 12  8  1  0  0  0  0
 13 21  1  1  0  0  0
 13 17  1  0  0  0  0
 13  9  1  0  0  0  0
 14  2  2  0  0  0  0
 15 28  1  0  0  0  0
 16 20  2  0  0  0  0
 19  5  1  0  0  0  0
 20 15  1  0  0  0  0
 22  2  1  0  0  0  0
 22  6  1  0  0  0  0
 23 30  1  6  0  0  0
 23 28  1  0  0  0  0
 25 18  1  6  0  0  0
 25 19  1  0  0  0  0
 26  8  2  0  0  0  0
 27  1  1  1  0  0  0
 27 25  1  0  0  0  0
 27 21  1  0  0  0  0
 29 35  1  0  0  0  0
 30 29  2  0  0  0  0
 31 30  1  0  0  0  0
 31 34  2  0  0  0  0
 32 34  1  0  0  0  0
 33 35  2  0  0  0  0
 34 33  1  0  0  0  0
 36 37  1  0  0  0  0
M  END
>  <MODEL>
5

>  <REMARK>
 VINA RESULT:      -7.8      2.910      6.948
  Name = 
  2 active torsions:
  status: ('A' for Active; 'I' for Inactive)
    1  A    between atoms: C_4  and  O_37
    2  A    between atoms: C_23  and  C_30
                            x       y       z     vdW  Elec       q    Type
                         _______ _______ _______ _____ _____    ______ ____

>  <TORSDO>
F 2

$$$$
=
 OpenBabel11112417193D

 37 42  0  0  1  0  0  0  0  0999 V2000
  189.6770  173.7120  143.1600 C   0  0  0  0  0  2  0  0  0  0  0  0
  193.5090  175.9330  146.0040 S   0  0  0  0  0  0  0  0  0  0  0  0
  189.2990  176.7520  144.8490 C   0  0  0  0  0  0  0  0  0  0  0  0
  188.9730  172.4660  142.5970 C   0  0  1  0  0  3  0  0  0  0  0  0
  187.7950  176.6670  141.4660 C   0  0  0  0  0  2  0  0  0  0  0  0
  190.8580  175.9300  146.5460 C   0  0  0  0  0  0  0  0  0  0  0  0
  189.0030  177.0010  143.5020 O   0  0  0  0  0  0  0  0  0  0  0  0
  189.1830  172.6960  140.1480 C   0  0  0  0  0  0  0  0  0  0  0  0
  190.5380  176.1340  145.1810 C   0  0  0  0  0  0  0  0  0  0  0  0
  187.6950  176.9980  142.9490 C   0  0  1  0  0  3  0  0  0  0  0  0
  189.9570  176.2950  147.5450 C   0  0  0  0  0  3  0  0  0  0  0  0
  189.6450  171.9200  141.3410 C   0  0  0  0  0  2  0  0  0  0  0  0
  191.5650  175.6640  144.1450 C   0  0  2  0  0  3  0  0  0  0  0  0
  194.5900  174.8940  145.9050 O   0  0  0  0  0  0  0  0  0  0  0  0
  187.0720  177.7760  145.6290 C   0  0  0  0  0  2  0  0  0  0  0  0
  188.7410  176.8870  147.2160 C   0  0  0  0  0  3  0  0  0  0  0  0
  192.9100  176.3400  144.3740 C   0  0  0  0  0  2  0  0  0  0  0  0
  189.7290  174.0710  139.8580 C   0  0  0  0  0  2  0  0  0  0  0  0
  188.1360  175.1950  141.2790 C   0  0  0  0  0  2  0  0  0  0  0  0
  188.4040  177.1300  145.8850 C   0  0  0  0  0  0  0  0  0  0  0  0
  191.1680  175.7890  142.6730 C   0  0  0  0  0  2  0  0  0  0  0  0
  192.1470  175.2870  146.9640 C   0  0  0  0  0  2  0  0  0  0  0  0
  187.0170  178.3560  143.1630 C   0  0  2  0  0  3  0  0  0  0  0  0
  194.0550  177.1700  146.6610 O   0  0  0  0  0  0  0  0  0  0  0  0
  189.5590  175.0170  140.9670 N   0  0  1  0  0  0  0  0  0  0  0  0
  188.3430  172.2180  139.4080 O   0  0  0  0  0  0  0  0  0  0  0  0
  190.3900  174.5940  142.1100 C   0  0  2  0  0  3  0  0  0  0  0  0
  187.1760  178.8890  144.5890 C   0  0  0  0  0  2  0  0  0  0  0  0
  184.5550  178.7030  143.6490 C   0  0  0  0  0  3  0  0  0  0  0  0
  185.5740  178.3380  142.7550 C   0  0  0  0  0  0  0  0  0  0  0  0
  185.2430  177.9510  141.4520 C   0  0  0  0  0  3  0  0  0  0  0  0
  183.5840  177.5400  139.7500 O   0  0  0  0  0  1  0  0  0  0  0  0
  182.8950  178.2860  141.9380 C   0  0  0  0  0  3  0  0  0  0  0  0
  183.9070  177.9240  141.0440 C   0  0  0  0  0  0  0  0  0  0  0  0
  183.2200  178.6760  143.2400 C   0  0  0  0  0  3  0  0  0  0  0  0
  189.7420  171.9570  144.6140 C   0  0  0  0  0  1  0  0  0  0  0  0
  188.9440  171.4730  143.5770 O   0  0  0  0  0  0  0  0  0  0  0  0
  2 24  2  0  0  0  0
  2 22  1  0  0  0  0
  3  9  2  0  0  0  0
  3 20  1  0  0  0  0
  4  1  1  0  0  0  0
  4 37  1  1  0  0  0
  6 22  1  0  0  0  0
  6 11  2  0  0  0  0
  7  3  1  0  0  0  0
  8 12  1  0  0  0  0
  9  6  1  0  0  0  0
 10  5  1  6  0  0  0
 10 23  1  0  0  0  0
 10  7  1  0  0  0  0
 12  4  1  0  0  0  0
 13 21  1  6  0  0  0
 13 17  1  0  0  0  0
 13  9  1  0  0  0  0
 14  2  2  0  0  0  0
 15 20  1  0  0  0  0
 16 11  1  0  0  0  0
 17  2  1  0  0  0  0
 18  8  1  0  0  0  0
 19  5  1  0  0  0  0
 20 16  2  0  0  0  0
 23 30  1  1  0  0  0
 23 28  1  0  0  0  0
 25 18  1  6  0  0  0
 25 19  1  0  0  0  0
 25 27  1  0  0  0  0
 26  8  2  0  0  0  0
 27 21  1  1  0  0  0
 27  1  1  0  0  0  0
 28 15  1  0  0  0  0
 30 29  2  0  0  0  0
 31 30  1  0  0  0  0
 32 34  1  0  0  0  0
 33 35  2  0  0  0  0
 34 31  2  0  0  0  0
 34 33  1  0  0  0  0
 35 29  1  0  0  0  0
 37 36  1  0  0  0  0
M  END
>  <MODEL>
6

>  <REMARK>
 VINA RESULT:      -7.6      2.059      2.928
  Name = 
  2 active torsions:
  status: ('A' for Active; 'I' for Inactive)
    1  A    between atoms: C_4  and  O_37
    2  A    between atoms: C_23  and  C_30
                            x       y       z     vdW  Elec       q    Type
                         _______ _______ _______ _____ _____    ______ ____

>  <TORSDO>
F 2

$$$$
=
 OpenBabel11112417193D

 37 42  0  0  1  0  0  0  0  0999 V2000
  190.8770  175.6680  144.9780 C   0  0  0  0  0  2  0  0  0  0  0  0
  186.9920  177.9170  142.2300 S   0  0  0  0  0  0  0  0  0  0  0  0
  189.8310  174.5240  141.8420 C   0  0  0  0  0  0  0  0  0  0  0  0
  191.5360  175.3020  146.3180 C   0  0  1  0  0  3  0  0  0  0  0  0
  193.5020  174.5410  142.3340 C   0  0  0  0  0  2  0  0  0  0  0  0
  187.5700  175.2780  142.3910 C   0  0  0  0  0  0  0  0  0  0  0  0
  191.2010  174.7960  141.7340 O   0  0  0  0  0  0  0  0  0  0  0  0
  193.7000  176.4880  146.2840 C   0  0  0  0  0  0  0  0  0  0  0  0
  188.9610  175.5390  142.3310 C   0  0  0  0  0  0  0  0  0  0  0  0
  192.2310  173.8320  141.8850 C   0  0  1  0  0  3  0  0  0  0  0  0
  187.0660  174.0350  142.0130 C   0  0  0  0  0  3  0  0  0  0  0  0
  192.3450  176.4480  146.9170 C   0  0  0  0  0  2  0  0  0  0  0  0
  189.4350  176.9160  142.8080 C   0  0  2  0  0  3  0  0  0  0  0  0
  186.5300  178.9800  143.1870 O   0  0  0  0  0  0  0  0  0  0  0  0
  190.1350  172.1380  140.9300 C   0  0  0  0  0  2  0  0  0  0  0  0
  187.9220  173.0410  141.5470 C   0  0  0  0  0  3  0  0  0  0  0  0
  188.7590  178.0250  142.0130 C   0  0  0  0  0  2  0  0  0  0  0  0
  193.8950  177.0550  144.9010 C   0  0  0  0  0  2  0  0  0  0  0  0
  193.3720  174.9810  143.7860 C   0  0  0  0  0  2  0  0  0  0  0  0
  189.2940  173.2700  141.4470 C   0  0  0  0  0  0  0  0  0  0  0  0
  190.9460  177.1530  142.8410 C   0  0  0  0  0  2  0  0  0  0  0  0
  186.5990  176.3050  142.8940 C   0  0  0  0  0  2  0  0  0  0  0  0
  192.4610  173.0770  140.5700 C   0  0  2  0  0  3  0  0  0  0  0  0
  186.3110  178.1020  140.9030 O   0  0  0  0  0  0  0  0  0  0  0  0
  193.0600  176.4130  143.8790 N   0  0  1  0  0  0  0  0  0  0  0  0
  194.6590  176.0420  146.8880 O   0  0  0  0  0  0  0  0  0  0  0  0
  191.6400  176.7170  144.1370 C   0  0  2  0  0  3  0  0  0  0  0  0
  191.1600  172.6190  139.9070 C   0  0  0  0  0  2  0  0  0  0  0  0
  194.4000  171.6530  139.7780 C   0  0  0  0  0  3  0  0  0  0  0  0
  193.4120  171.9300  140.7360 C   0  0  0  0  0  0  0  0  0  0  0  0
  193.3100  171.1230  141.8750 C   0  0  0  0  0  3  0  0  0  0  0  0
  194.0780  169.2520  143.1870 O   0  0  0  0  0  1  0  0  0  0  0  0
  195.1630  169.7730  141.0970 C   0  0  0  0  0  3  0  0  0  0  0  0
  194.1830  170.0470  142.0550 C   0  0  0  0  0  0  0  0  0  0  0  0
  195.2720  170.5770  139.9590 C   0  0  0  0  0  3  0  0  0  0  0  0
  189.4040  174.7050  146.4510 C   0  0  0  0  0  1  0  0  0  0  0  0
  190.5470  174.9090  147.2230 O   0  0  0  0  0  0  0  0  0  0  0  0
  1  4  1  0  0  0  0
  2 22  1  0  0  0  0
  2 14  2  0  0  0  0
  3  9  1  0  0  0  0
  4 12  1  0  0  0  0
  4 37  1  1  0  0  0
  5 19  1  0  0  0  0
  6 22  1  0  0  0  0
  7  3  1  0  0  0  0
  7 10  1  0  0  0  0
  8 26  2  0  0  0  0
  8 12  1  0  0  0  0
  9  6  2  0  0  0  0
  9 13  1  0  0  0  0
 10  5  1  6  0  0  0
 11  6  1  0  0  0  0
 13 17  1  6  0  0  0
 13 21  1  0  0  0  0
 15 20  1  0  0  0  0
 16 11  2  0  0  0  0
 17  2  1  0  0  0  0
 18  8  1  0  0  0  0
 20 16  1  0  0  0  0
 20  3  2  0  0  0  0
 23 30  1  1  0  0  0
 23 10  1  0  0  0  0
 24  2  2  0  0  0  0
 25 19  1  1  0  0  0
 25 27  1  0  0  0  0
 25 18  1  0  0  0  0
 27 21  1  6  0  0  0
 27  1  1  0  0  0  0
 28 23  1  0  0  0  0
 28 15  1  0  0  0  0
 29 35  2  0  0  0  0
 29 30  1  0  0  0  0
 30 31  2  0  0  0  0
 31 34  1  0  0  0  0
 33 34  2  0  0  0  0
 34 32  1  0  0  0  0
 35 33  1  0  0  0  0
 36 37  1  0  0  0  0
M  END
>  <MODEL>
7

>  <REMARK>
 VINA RESULT:      -7.3      2.991      8.159
  Name = 
  2 active torsions:
  status: ('A' for Active; 'I' for Inactive)
    1  A    between atoms: C_4  and  O_37
    2  A    between atoms: C_23  and  C_30
                            x       y       z     vdW  Elec       q    Type
                         _______ _______ _______ _____ _____    ______ ____

>  <TORSDO>
F 2

$$$$
=
 OpenBabel11112417193D

 37 42  0  0  1  0  0  0  0  0999 V2000
  190.9060  175.6170  144.9840 C   0  0  0  0  0  2  0  0  0  0  0  0
  187.0060  177.7880  142.1960 S   0  0  0  0  0  0  0  0  0  0  0  0
  189.9770  174.5120  141.7980 C   0  0  0  0  0  0  0  0  0  0  0  0
  191.5460  175.2420  146.3310 C   0  0  1  0  0  3  0  0  0  0  0  0
  193.6320  174.6510  142.3800 C   0  0  0  0  0  2  0  0  0  0  0  0
  187.6770  175.1690  142.3090 C   0  0  0  0  0  0  0  0  0  0  0  0
  191.3380  174.8360  141.7300 O   0  0  0  0  0  0  0  0  0  0  0  0
  193.6650  176.5070  146.3780 C   0  0  0  0  0  0  0  0  0  0  0  0
  189.0590  175.4820  142.2900 C   0  0  0  0  0  0  0  0  0  0  0  0
  192.4000  173.9060  141.8830 C   0  0  1  0  0  3  0  0  0  0  0  0
  187.2290  173.9180  141.8900 C   0  0  0  0  0  3  0  0  0  0  0  0
  192.2980  176.4020  146.9760 C   0  0  0  0  0  2  0  0  0  0  0  0
  189.4700  176.8640  142.8090 C   0  0  2  0  0  3  0  0  0  0  0  0
  186.4830  178.8100  143.1660 O   0  0  0  0  0  0  0  0  0  0  0  0
  190.3900  172.1610  140.8380 C   0  0  0  0  0  2  0  0  0  0  0  0
  188.1320  172.9670  141.4220 C   0  0  0  0  0  3  0  0  0  0  0  0
  188.7720  177.9660  142.0250 C   0  0  0  0  0  2  0  0  0  0  0  0
  193.8710  177.1140  145.0140 C   0  0  0  0  0  2  0  0  0  0  0  0
  193.4520  175.0500  143.8380 C   0  0  0  0  0  2  0  0  0  0  0  0
  189.4960  173.2490  141.3610 C   0  0  0  0  0  0  0  0  0  0  0  0
  190.9700  177.1540  142.8850 C   0  0  0  0  0  2  0  0  0  0  0  0
  186.6570  176.1470  142.8120 C   0  0  0  0  0  2  0  0  0  0  0  0
  192.6880  173.1930  140.5570 C   0  0  2  0  0  3  0  0  0  0  0  0
  186.3500  177.9810  140.8570 O   0  0  0  0  0  0  0  0  0  0  0  0
  193.0850  176.4670  143.9570 N   0  0  1  0  0  0  0  0  0  0  0  0
  194.6250  176.0820  146.9940 O   0  0  0  0  0  0  0  0  0  0  0  0
  191.6490  176.7120  144.1870 C   0  0  2  0  0  3  0  0  0  0  0  0
  191.4210  172.7040  139.8510 C   0  0  0  0  0  2  0  0  0  0  0  0
  193.5790  171.1590  141.7760 C   0  0  0  0  0  3  0  0  0  0  0  0
  193.6760  172.0770  140.7190 C   0  0  0  0  0  0  0  0  0  0  0  0
  194.7150  171.9510  139.7890 C   0  0  0  0  0  3  0  0  0  0  0  0
  196.6780  170.8010  138.9890 O   0  0  0  0  0  1  0  0  0  0  0  0
  195.5520  170.0110  140.9710 C   0  0  0  0  0  3  0  0  0  0  0  0
  195.6500  170.9210  139.9150 C   0  0  0  0  0  0  0  0  0  0  0  0
  194.5160  170.1300  141.9010 C   0  0  0  0  0  3  0  0  0  0  0  0
  189.3650  175.3450  146.7230 C   0  0  0  0  0  1  0  0  0  0  0  0
  190.5520  174.7920  147.2020 O   0  0  0  0  0  0  0  0  0  0  0  0
  1  4  1  0  0  0  0
  2 22  1  0  0  0  0
  2 14  2  0  0  0  0
  3  9  1  0  0  0  0
  4 12  1  0  0  0  0
  4 37  1  1  0  0  0
  5 19  1  0  0  0  0
  6 22  1  0  0  0  0
  7  3  1  0  0  0  0
  7 10  1  0  0  0  0
  8 12  1  0  0  0  0
  8 26  2  0  0  0  0
  9  6  2  0  0  0  0
  9 13  1  0  0  0  0
 10  5  1  6  0  0  0
 11  6  1  0  0  0  0
 13 17  1  6  0  0  0
 13 21  1  0  0  0  0
 15 20  1  0  0  0  0
 16 11  2  0  0  0  0
 17  2  1  0  0  0  0
 18  8  1  0  0  0  0
 20 16  1  0  0  0  0
 20  3  2  0  0  0  0
 23 30  1  1  0  0  0
 23 10  1  0  0  0  0
 24  2  2  0  0  0  0
 25 19  1  1  0  0  0
 25 27  1  0  0  0  0
 25 18  1  0  0  0  0
 27 21  1  6  0  0  0
 27  1  1  0  0  0  0
 28 23  1  0  0  0  0
 28 15  1  0  0  0  0
 29 35  1  0  0  0  0
 30 29  2  0  0  0  0
 31 34  2  0  0  0  0
 31 30  1  0  0  0  0
 32 34  1  0  0  0  0
 33 35  2  0  0  0  0
 34 33  1  0  0  0  0
 36 37  1  0  0  0  0
M  END
>  <MODEL>
8

>  <REMARK>
 VINA RESULT:      -7.3      3.057      8.270
  Name = 
  2 active torsions:
  status: ('A' for Active; 'I' for Inactive)
    1  A    between atoms: C_4  and  O_37
    2  A    between atoms: C_23  and  C_30
                            x       y       z     vdW  Elec       q    Type
                         _______ _______ _______ _____ _____    ______ ____

>  <TORSDO>
F 2

$$$$
=
 OpenBabel11112417193D

 37 42  0  0  1  0  0  0  0  0999 V2000
  194.1680  174.8480  143.9830 C   0  0  0  0  0  2  0  0  0  0  0  0
  189.8490  176.6640  146.3820 S   0  0  0  0  0  0  0  0  0  0  0  0
  190.9250  173.9010  143.0750 C   0  0  0  0  0  0  0  0  0  0  0  0
  195.6540  174.4540  144.0110 C   0  0  1  0  0  3  0  0  0  0  0  0
  193.2080  174.5190  140.2260 C   0  0  0  0  0  2  0  0  0  0  0  0
  190.2590  174.1710  145.4140 C   0  0  0  0  0  0  0  0  0  0  0  0
  191.5280  174.4250  141.9240 O   0  0  0  0  0  0  0  0  0  0  0  0
  196.7300  176.0050  142.4200 C   0  0  0  0  0  0  0  0  0  0  0  0
  190.9140  174.6820  144.2670 C   0  0  0  0  0  0  0  0  0  0  0  0
  192.1720  173.6500  140.9250 C   0  0  1  0  0  3  0  0  0  0  0  0
  189.6680  172.9090  145.3880 C   0  0  0  0  0  3  0  0  0  0  0  0
  196.5890  175.6510  143.8670 C   0  0  0  0  0  2  0  0  0  0  0  0
  191.5760  176.0570  144.3940 C   0  0  2  0  0  3  0  0  0  0  0  0
  190.4490  177.5100  147.4690 O   0  0  0  0  0  0  0  0  0  0  0  0
  190.2720  171.7280  141.8620 C   0  0  0  0  0  2  0  0  0  0  0  0
  189.6910  172.1440  144.2250 C   0  0  0  0  0  3  0  0  0  0  0  0
  190.5580  177.1110  144.8070 C   0  0  0  0  0  2  0  0  0  0  0  0
  195.6410  176.7520  141.6950 C   0  0  0  0  0  2  0  0  0  0  0  0
  194.3980  174.7600  141.1450 C   0  0  0  0  0  2  0  0  0  0  0  0
  190.3020  172.6250  143.0670 C   0  0  0  0  0  0  0  0  0  0  0  0
  192.3720  176.5560  143.1860 C   0  0  0  0  0  2  0  0  0  0  0  0
  190.2090  174.9420  146.6990 C   0  0  0  0  0  2  0  0  0  0  0  0
  191.1480  173.1040  139.9230 C   0  0  2  0  0  3  0  0  0  0  0  0
  188.3620  176.8750  146.3410 O   0  0  0  0  0  0  0  0  0  0  0  0
  194.3320  176.0920  141.7580 N   0  0  1  0  0  0  0  0  0  0  0  0
  197.7330  175.6720  141.8150 O   0  0  0  0  0  0  0  0  0  0  0  0
  193.8370  176.1050  143.1480 C   0  0  2  0  0  3  0  0  0  0  0  0
  189.9130  172.4990  140.5950 C   0  0  0  0  0  2  0  0  0  0  0  0
  192.6960  171.1740  139.3800 C   0  0  0  0  0  3  0  0  0  0  0  0
  191.7630  172.1340  138.9580 C   0  0  0  0  0  0  0  0  0  0  0  0
  191.3910  172.1900  137.6100 C   0  0  0  0  0  3  0  0  0  0  0  0
  191.5750  171.3590  135.3540 O   0  0  0  0  0  1  0  0  0  0  0  0
  192.8790  170.3460  137.1130 C   0  0  0  0  0  3  0  0  0  0  0  0
  191.9480  171.2990  136.6900 C   0  0  0  0  0  0  0  0  0  0  0  0
  193.2520  170.2840  138.4580 C   0  0  0  0  0  3  0  0  0  0  0  0
  197.3200  173.7900  145.3150 C   0  0  0  0  0  1  0  0  0  0  0  0
  195.9300  173.7900  145.2080 O   0  0  0  0  0  0  0  0  0  0  0  0
  1  4  1  0  0  0  0
  2 22  1  0  0  0  0
  2 14  2  0  0  0  0
  3  9  1  0  0  0  0
  4 37  1  1  0  0  0
  5 19  1  0  0  0  0
  6 22  1  0  0  0  0
  7  3  1  0  0  0  0
  8 12  1  0  0  0  0
  9 13  1  0  0  0  0
  9  6  2  0  0  0  0
 10  5  1  6  0  0  0
 10  7  1  0  0  0  0
 11  6  1  0  0  0  0
 12  4  1  0  0  0  0
 13 21  1  6  0  0  0
 13 17  1  0  0  0  0
 15 20  1  0  0  0  0
 16 11  2  0  0  0  0
 17  2  1  0  0  0  0
 18 25  1  0  0  0  0
 18  8  1  0  0  0  0
 20  3  2  0  0  0  0
 20 16  1  0  0  0  0
 23 30  1  1  0  0  0
 23 28  1  0  0  0  0
 23 10  1  0  0  0  0
 24  2  2  0  0  0  0
 25 19  1  1  0  0  0
 25 27  1  0  0  0  0
 26  8  2  0  0  0  0
 27 21  1  6  0  0  0
 27  1  1  0  0  0  0
 28 15  1  0  0  0  0
 30 29  1  0  0  0  0
 31 30  2  0  0  0  0
 32 34  1  0  0  0  0
 33 35  1  0  0  0  0
 34 33  2  0  0  0  0
 34 31  1  0  0  0  0
 35 29  2  0  0  0  0
 37 36  1  0  0  0  0
M  END
>  <MODEL>
9

>  <REMARK>
 VINA RESULT:      -7.1      3.081      7.573
  Name = 
  2 active torsions:
  status: ('A' for Active; 'I' for Inactive)
    1  A    between atoms: C_4  and  O_37
    2  A    between atoms: C_23  and  C_30
                            x       y       z     vdW  Elec       q    Type
                         _______ _______ _______ _____ _____    ______ ____

>  <TORSDO>
F 2

$$$$
