=
 OpenBabel11112416423D

 32 37  0  0  1  0  0  0  0  0999 V2000
  190.4050  174.4290  143.4980 C   0  0  1  0  0  3  0  0  0  0  0  0
  191.3020  176.5010  147.8570 C   0  0  0  0  0  3  0  0  0  0  0  0
  190.2760  177.4170  147.6190 C   0  0  0  0  0  3  0  0  0  0  0  0
  188.2470  174.8790  142.2290 C   0  0  2  0  0  3  0  0  0  0  0  0
  187.2720  175.9760  142.0700 N   0  0  2  0  0  0  0  0  0  0  0  0
  192.0250  173.2310  142.4900 C   0  0  2  0  0  3  0  0  0  0  0  0
  192.2060  173.5490  144.9690 O   0  0  0  0  0  0  0  0  0  0  0  0
  186.1440  177.8700  142.9490 C   0  0  2  0  0  3  0  0  0  0  0  0
  191.5210  175.4470  146.9680 C   0  0  0  0  0  3  0  0  0  0  0  0
  190.9060  174.1300  144.9080 C   0  0  1  0  0  3  0  0  0  0  0  0
  190.7210  175.3070  145.8250 C   0  0  0  0  0  0  0  0  0  0  0  0
  188.8150  176.1340  144.3380 C   0  0  2  0  0  3  0  0  0  0  0  0
  187.2490  178.3870  142.0580 C   0  0  0  0  0  2  0  0  0  0  0  0
  192.8990  173.5920  143.7260 C   0  0  2  0  0  3  0  0  0  0  0  0
  187.9390  177.1490  141.5090 C   0  0  0  0  0  2  0  0  0  0  0  0
  189.4600  177.2750  146.4940 C   0  0  0  0  0  3  0  0  0  0  0  0
  189.6490  176.2080  145.6050 C   0  0  0  0  0  0  0  0  0  0  0  0
  187.3380  176.3440  144.5920 C   0  0  0  0  0  2  0  0  0  0  0  0
  190.6320  173.2840  142.7290 O   0  0  0  0  0  0  0  0  0  0  0  0
  187.5790  173.5540  141.9160 C   0  0  0  0  0  1  0  0  0  0  0  0
  186.0120  178.6680  144.0890 O   0  0  0  0  0  1  0  0  0  0  0  0
  188.9330  174.8040  143.6000 C   0  0  2  0  0  3  0  0  0  0  0  0
  186.5410  176.4360  143.2690 C   0  0  2  0  0  3  0  0  0  0  0  0
  194.5480  175.1980  144.6660 C   0  0  0  0  0  2  0  0  0  0  0  0
  193.5740  174.9420  143.5330 C   0  0  1  0  0  3  0  0  0  0  0  0
  195.0600  174.7300  143.3200 C   0  0  1  0  0  3  0  0  0  0  0  0
  195.6190  175.9100  142.5520 C   0  0  0  0  0  2  0  0  0  0  0  0
  197.0020  176.2060  143.0160 C   0  0  0  0  0  0  0  0  0  0  0  0
  197.3120  177.3740  143.3670 O   0  0  0  0  0  1  0  0  0  0  0  0
  197.9410  175.1860  143.0970 O   0  0  0  0  0  0  0  0  0  0  0  0
  191.6700  170.8810  142.6730 O   0  0  0  0  0  1  0  0  0  0  0  0
  192.4060  171.8500  141.9930 C   0  0  0  0  0  2  0  0  0  0  0  0
  1 19  1  6  0  0  0
  1 22  1  0  0  0  0
  1 10  1  0  0  0  0
  3  2  1  0  0  0  0
  4 20  1  1  0  0  0
  4 22  1  0  0  0  0
  5 15  1  1  0  0  0
  5  4  1  0  0  0  0
  5 23  1  0  0  0  0
  6 32  1  1  0  0  0
  6 19  1  0  0  0  0
  6 14  1  0  0  0  0
  8 23  1  0  0  0  0
  8 21  1  1  0  0  0
  9  2  2  0  0  0  0
 10  7  1  6  0  0  0
 10 11  1  0  0  0  0
 11  9  1  0  0  0  0
 12 18  1  1  0  0  0
 12 17  1  0  0  0  0
 13  8  1  0  0  0  0
 14  7  1  1  0  0  0
 15 13  1  0  0  0  0
 16  3  2  0  0  0  0
 17 11  2  0  0  0  0
 17 16  1  0  0  0  0
 22 12  1  0  0  0  0
 23 18  1  0  0  0  0
 25 14  1  0  0  0  0
 25 24  1  0  0  0  0
 26 25  1  0  0  0  0
 26 24  1  0  0  0  0
 27 28  1  0  0  0  0
 27 26  1  0  0  0  0
 28 30  2  0  0  0  0
 28 29  1  0  0  0  0
 32 31  1  0  0  0  0
M  END
>  <MODEL>
1

>  <REMARK>
 VINA RESULT:      -7.2      0.000      0.000
  Name = 
  4 active torsions:
  status: ('A' for Active; 'I' for Inactive)
    1  A    between atoms: C_7  and  C_19
    2  A    between atoms: C_10  and  C_17
    3  A    between atoms: C_20  and  C_29
    4  A    between atoms: C_29  and  C_30
                            x       y       z     vdW  Elec       q    Type
                         _______ _______ _______ _____ _____    ______ ____

>  <TORSDO>
F 4

$$$$
=
 OpenBabel11112416423D

 32 37  0  0  1  0  0  0  0  0999 V2000
  191.0600  175.0610  142.9130 C   0  0  1  0  0  3  0  0  0  0  0  0
  194.3040  176.6200  146.2530 C   0  0  0  0  0  3  0  0  0  0  0  0
  194.8960  175.3560  146.2490 C   0  0  0  0  0  3  0  0  0  0  0  0
  191.4400  172.9260  141.5840 C   0  0  2  0  0  3  0  0  0  0  0  0
  192.0960  171.6160  141.7690 N   0  0  2  0  0  0  0  0  0  0  0  0
  189.0890  176.1320  142.7050 C   0  0  2  0  0  3  0  0  0  0  0  0
  190.9750  177.3950  143.7650 O   0  0  0  0  0  0  0  0  0  0  0  0
  193.7980  170.2890  142.7560 C   0  0  2  0  0  3  0  0  0  0  0  0
  193.2880  176.9200  145.3430 C   0  0  0  0  0  3  0  0  0  0  0  0
  191.8080  176.3000  143.3980 C   0  0  1  0  0  3  0  0  0  0  0  0
  192.8480  175.9530  144.4280 C   0  0  0  0  0  0  0  0  0  0  0  0
  192.9740  173.5880  143.4690 C   0  0  2  0  0  3  0  0  0  0  0  0
  192.5350  170.0480  143.5480 C   0  0  0  0  0  2  0  0  0  0  0  0
  189.5970  177.0470  143.8550 C   0  0  2  0  0  3  0  0  0  0  0  0
  191.4710  170.9060  142.8830 C   0  0  0  0  0  2  0  0  0  0  0  0
  194.4800  174.3910  145.3290 C   0  0  0  0  0  3  0  0  0  0  0  0
  193.4790  174.6850  144.3910 C   0  0  0  0  0  0  0  0  0  0  0  0
  194.0930  172.8110  142.8100 C   0  0  0  0  0  2  0  0  0  0  0  0
  190.1170  175.4910  141.9750 O   0  0  0  0  0  0  0  0  0  0  0  0
  191.3550  173.2490  140.1050 C   0  0  0  0  0  1  0  0  0  0  0  0
  194.9110  170.3370  143.5990 O   0  0  0  0  0  1  0  0  0  0  0  0
  192.0870  174.0970  142.3370 C   0  0  2  0  0  3  0  0  0  0  0  0
  193.5530  171.5980  142.0180 C   0  0  2  0  0  3  0  0  0  0  0  0
  189.6860  177.3890  146.3170 C   0  0  0  0  0  2  0  0  0  0  0  0
  189.2870  176.4310  145.2120 C   0  0  1  0  0  3  0  0  0  0  0  0
  188.2330  177.2680  145.9090 C   0  0  1  0  0  3  0  0  0  0  0  0
  187.4970  176.3980  146.9080 C   0  0  0  0  0  2  0  0  0  0  0  0
  186.1590  176.9840  147.2000 C   0  0  0  0  0  0  0  0  0  0  0  0
  186.0240  177.8020  148.1460 O   0  0  0  0  0  1  0  0  0  0  0  0
  185.0690  176.6570  146.4050 O   0  0  0  0  0  0  0  0  0  0  0  0
  188.7080  178.2490  141.6780 O   0  0  0  0  0  1  0  0  0  0  0  0
  188.2240  176.9450  141.7610 C   0  0  0  0  0  2  0  0  0  0  0  0
  1 19  1  6  0  0  0
  1 10  1  0  0  0  0
  3  2  1  0  0  0  0
  4 20  1  6  0  0  0
  4  5  1  0  0  0  0
  4 22  1  0  0  0  0
  5 23  1  0  0  0  0
  5 15  1  1  0  0  0
  6 32  1  6  0  0  0
  6 14  1  0  0  0  0
  8 13  1  0  0  0  0
  8 21  1  1  0  0  0
  9  2  2  0  0  0  0
 10  7  1  1  0  0  0
 10 11  1  0  0  0  0
 11  9  1  0  0  0  0
 12 18  1  6  0  0  0
 12 17  1  0  0  0  0
 14  7  1  6  0  0  0
 14 25  1  0  0  0  0
 15 13  1  0  0  0  0
 16  3  2  0  0  0  0
 17 11  2  0  0  0  0
 17 16  1  0  0  0  0
 19  6  1  0  0  0  0
 22  1  1  0  0  0  0
 22 12  1  0  0  0  0
 23  8  1  0  0  0  0
 23 18  1  0  0  0  0
 25 26  1  0  0  0  0
 25 24  1  0  0  0  0
 26 24  1  0  0  0  0
 26 27  1  0  0  0  0
 27 28  1  0  0  0  0
 28 29  1  0  0  0  0
 30 28  2  0  0  0  0
 31 32  1  0  0  0  0
M  END
>  <MODEL>
2

>  <REMARK>
 VINA RESULT:      -7.0      2.809      7.106
  Name = 
  4 active torsions:
  status: ('A' for Active; 'I' for Inactive)
    1  A    between atoms: C_7  and  C_19
    2  A    between atoms: C_10  and  C_17
    3  A    between atoms: C_20  and  C_29
    4  A    between atoms: C_29  and  C_30
                            x       y       z     vdW  Elec       q    Type
                         _______ _______ _______ _____ _____    ______ ____

>  <TORSDO>
F 4

$$$$
=
 OpenBabel11112416423D

 32 37  0  0  1  0  0  0  0  0999 V2000
  191.5490  175.3850  144.8400 C   0  0  1  0  0  3  0  0  0  0  0  0
  189.5890  171.6490  142.3300 C   0  0  0  0  0  3  0  0  0  0  0  0
  190.8120  171.4550  141.6870 C   0  0  0  0  0  3  0  0  0  0  0  0
  194.0660  175.7220  144.9740 C   0  0  2  0  0  3  0  0  0  0  0  0
  195.2570  175.4710  144.1380 N   0  0  2  0  0  0  0  0  0  0  0  0
  190.1960  176.9640  145.7070 C   0  0  2  0  0  3  0  0  0  0  0  0
  189.1750  174.7350  145.1890 O   0  0  0  0  0  0  0  0  0  0  0  0
  196.3800  174.1810  142.4920 C   0  0  2  0  0  3  0  0  0  0  0  0
  189.4800  172.5800  143.3640 C   0  0  0  0  0  3  0  0  0  0  0  0
  190.4990  174.2810  144.9220 C   0  0  1  0  0  3  0  0  0  0  0  0
  190.5950  173.3340  143.7580 C   0  0  0  0  0  0  0  0  0  0  0  0
  193.0570  173.9600  143.4840 C   0  0  2  0  0  3  0  0  0  0  0  0
  195.8470  175.4140  141.8010 C   0  0  0  0  0  2  0  0  0  0  0  0
  189.0320  176.1470  145.0750 C   0  0  2  0  0  3  0  0  0  0  0  0
  195.1450  176.2140  142.8860 C   0  0  0  0  0  2  0  0  0  0  0  0
  191.9340  172.1860  142.0840 C   0  0  0  0  0  3  0  0  0  0  0  0
  191.8490  173.1060  143.1390 C   0  0  0  0  0  0  0  0  0  0  0  0
  194.3350  173.1570  143.5960 C   0  0  0  0  0  2  0  0  0  0  0  0
  191.3670  176.2110  145.9530 O   0  0  0  0  0  0  0  0  0  0  0  0
  194.4730  175.7900  146.4330 C   0  0  0  0  0  1  0  0  0  0  0  0
  196.2560  173.0580  141.6700 O   0  0  0  0  0  1  0  0  0  0  0  0
  192.9180  174.7190  144.7990 C   0  0  2  0  0  3  0  0  0  0  0  0
  195.5680  174.0720  143.7750 C   0  0  2  0  0  3  0  0  0  0  0  0
  187.6020  175.8330  143.0650 C   0  0  0  0  0  2  0  0  0  0  0  0
  188.8150  176.5490  143.6230 C   0  0  1  0  0  3  0  0  0  0  0  0
  187.4920  177.2780  143.5020 C   0  0  1  0  0  3  0  0  0  0  0  0
  187.5390  178.1800  142.2850 C   0  0  0  0  0  2  0  0  0  0  0  0
  186.1980  178.2290  141.6390 C   0  0  0  0  0  0  0  0  0  0  0  0
  185.2090  178.6750  142.2750 O   0  0  0  0  0  1  0  0  0  0  0  0
  186.0460  177.8180  140.3220 O   0  0  0  0  0  0  0  0  0  0  0  0
  188.3270  177.5590  147.0620 O   0  0  0  0  0  1  0  0  0  0  0  0
  189.7190  177.6030  146.9960 C   0  0  0  0  0  2  0  0  0  0  0  0
  1 10  1  0  0  0  0
  1 19  1  1  0  0  0
  2  9  1  0  0  0  0
  3 16  1  0  0  0  0
  3  2  2  0  0  0  0
  4 20  1  1  0  0  0
  5 15  1  6  0  0  0
  5  4  1  0  0  0  0
  6 19  1  0  0  0  0
  6 32  1  1  0  0  0
  8 21  1  6  0  0  0
  8 23  1  0  0  0  0
  9 11  2  0  0  0  0
 10 11  1  6  0  0  0
 10  7  1  0  0  0  0
 12 18  1  1  0  0  0
 12 22  1  0  0  0  0
 13  8  1  0  0  0  0
 13 15  1  0  0  0  0
 14  7  1  6  0  0  0
 14  6  1  0  0  0  0
 16 17  2  0  0  0  0
 17 12  1  0  0  0  0
 17 11  1  0  0  0  0
 18 23  1  0  0  0  0
 22  1  1  0  0  0  0
 22  4  1  0  0  0  0
 23  5  1  0  0  0  0
 24 26  1  0  0  0  0
 24 25  1  0  0  0  0
 25 14  1  0  0  0  0
 26 25  1  0  0  0  0
 27 26  1  0  0  0  0
 28 29  1  0  0  0  0
 28 27  1  0  0  0  0
 30 28  2  0  0  0  0
 32 31  1  0  0  0  0
M  END
>  <MODEL>
3

>  <REMARK>
 VINA RESULT:      -6.8      2.445      7.641
  Name = 
  4 active torsions:
  status: ('A' for Active; 'I' for Inactive)
    1  A    between atoms: C_7  and  C_19
    2  A    between atoms: C_10  and  C_17
    3  A    between atoms: C_20  and  C_29
    4  A    between atoms: C_29  and  C_30
                            x       y       z     vdW  Elec       q    Type
                         _______ _______ _______ _____ _____    ______ ____

>  <TORSDO>
F 4

$$$$
=
 OpenBabel11112416423D

 32 37  0  0  1  0  0  0  0  0999 V2000
  188.9400  175.6650  141.8920 C   0  0  1  0  0  3  0  0  0  0  0  0
  192.3960  177.2240  145.0110 C   0  0  0  0  0  3  0  0  0  0  0  0
  193.0000  175.9670  144.9500 C   0  0  0  0  0  3  0  0  0  0  0  0
  189.2470  173.5500  140.5140 C   0  0  2  0  0  3  0  0  0  0  0  0
  189.9290  172.2460  140.6350 N   0  0  2  0  0  0  0  0  0  0  0  0
  186.9470  176.7140  141.8380 C   0  0  2  0  0  3  0  0  0  0  0  0
  188.8890  177.9880  142.7760 O   0  0  0  0  0  0  0  0  0  0  0  0
  191.7130  170.9280  141.4820 C   0  0  2  0  0  3  0  0  0  0  0  0
  191.3140  177.5230  144.1800 C   0  0  0  0  0  3  0  0  0  0  0  0
  189.7070  176.9070  142.3380 C   0  0  1  0  0  3  0  0  0  0  0  0
  190.8210  176.5610  143.2870 C   0  0  0  0  0  0  0  0  0  0  0  0
  190.9050  174.2090  142.2920 C   0  0  2  0  0  3  0  0  0  0  0  0
  190.5120  170.6630  142.3590 C   0  0  0  0  0  2  0  0  0  0  0  0
  187.5260  177.6220  142.9610 C   0  0  2  0  0  3  0  0  0  0  0  0
  189.3930  171.5150  141.7820 C   0  0  0  0  0  2  0  0  0  0  0  0
  192.5300  175.0080  144.0490 C   0  0  0  0  0  3  0  0  0  0  0  0
  191.4620  175.3010  143.1890 C   0  0  0  0  0  0  0  0  0  0  0  0
  191.9820  173.4530  141.5460 C   0  0  0  0  0  2  0  0  0  0  0  0
  187.9270  176.0940  141.0290 O   0  0  0  0  0  0  0  0  0  0  0  0
  189.0530  173.8890  139.0490 C   0  0  0  0  0  1  0  0  0  0  0  0
  192.8820  170.9800  142.2440 O   0  0  0  0  0  1  0  0  0  0  0  0
  189.9340  174.7190  141.2320 C   0  0  2  0  0  3  0  0  0  0  0  0
  191.4000  172.2420  140.7790 C   0  0  2  0  0  3  0  0  0  0  0  0
  187.8910  177.8870  145.4060 C   0  0  0  0  0  2  0  0  0  0  0  0
  187.3200  176.9870  144.3290 C   0  0  1  0  0  3  0  0  0  0  0  0
  186.3980  177.8660  145.1510 C   0  0  1  0  0  3  0  0  0  0  0  0
  185.7170  177.0130  146.2020 C   0  0  0  0  0  2  0  0  0  0  0  0
  185.2540  177.8710  147.3270 C   0  0  0  0  0  0  0  0  0  0  0  0
  185.9300  177.9410  148.3850 O   0  0  0  0  0  1  0  0  0  0  0  0
  184.0940  178.6240  147.1950 O   0  0  0  0  0  0  0  0  0  0  0  0
  186.4720  177.5450  139.6550 O   0  0  0  0  0  1  0  0  0  0  0  0
  186.0080  177.5270  140.9690 C   0  0  0  0  0  2  0  0  0  0  0  0
  1 19  1  6  0  0  0
  1 10  1  0  0  0  0
  3  2  1  0  0  0  0
  4 20  1  6  0  0  0
  4  5  1  0  0  0  0
  4 22  1  0  0  0  0
  5 23  1  0  0  0  0
  5 15  1  1  0  0  0
  6 32  1  6  0  0  0
  6 14  1  0  0  0  0
  8 21  1  1  0  0  0
  8 13  1  0  0  0  0
  9  2  2  0  0  0  0
 10  7  1  1  0  0  0
 10 11  1  0  0  0  0
 11  9  1  0  0  0  0
 12 18  1  6  0  0  0
 12 17  1  0  0  0  0
 14  7  1  6  0  0  0
 14 25  1  0  0  0  0
 15 13  1  0  0  0  0
 16  3  2  0  0  0  0
 17 11  2  0  0  0  0
 17 16  1  0  0  0  0
 19  6  1  0  0  0  0
 22  1  1  0  0  0  0
 22 12  1  0  0  0  0
 23  8  1  0  0  0  0
 23 18  1  0  0  0  0
 25 26  1  0  0  0  0
 25 24  1  0  0  0  0
 26 24  1  0  0  0  0
 26 27  1  0  0  0  0
 27 28  1  0  0  0  0
 28 29  1  0  0  0  0
 30 28  2  0  0  0  0
 31 32  1  0  0  0  0
M  END
>  <MODEL>
4

>  <REMARK>
 VINA RESULT:      -6.7      2.979      7.209
  Name = 
  4 active torsions:
  status: ('A' for Active; 'I' for Inactive)
    1  A    between atoms: C_7  and  C_19
    2  A    between atoms: C_10  and  C_17
    3  A    between atoms: C_20  and  C_29
    4  A    between atoms: C_29  and  C_30
                            x       y       z     vdW  Elec       q    Type
                         _______ _______ _______ _____ _____    ______ ____

>  <TORSDO>
F 4

$$$$
=
 OpenBabel11112416423D

 32 37  0  0  1  0  0  0  0  0999 V2000
  192.0770  175.4260  144.7760 C   0  0  1  0  0  3  0  0  0  0  0  0
  191.5360  170.7550  143.3610 C   0  0  0  0  0  3  0  0  0  0  0  0
  192.8630  170.7450  142.9310 C   0  0  0  0  0  3  0  0  0  0  0  0
  194.3770  176.4770  145.0420 C   0  0  2  0  0  3  0  0  0  0  0  0
  195.7210  176.3520  144.4430 N   0  0  2  0  0  0  0  0  0  0  0  0
  190.2560  176.7360  144.9790 C   0  0  2  0  0  3  0  0  0  0  0  0
  189.9030  174.2580  145.0770 O   0  0  0  0  0  0  0  0  0  0  0  0
  197.3900  175.0320  143.3910 C   0  0  2  0  0  3  0  0  0  0  0  0
  191.0280  171.8630  144.0430 C   0  0  0  0  0  3  0  0  0  0  0  0
  191.3230  174.1370  145.0920 C   0  0  1  0  0  3  0  0  0  0  0  0
  191.8440  172.9760  144.2910 C   0  0  0  0  0  0  0  0  0  0  0  0
  194.0940  174.1680  144.0770 C   0  0  2  0  0  3  0  0  0  0  0  0
  196.7070  175.8310  142.3050 C   0  0  0  0  0  2  0  0  0  0  0  0
  189.4500  175.4870  144.5210 C   0  0  2  0  0  3  0  0  0  0  0  0
  195.6560  176.6660  143.0180 C   0  0  0  0  0  2  0  0  0  0  0  0
  193.6910  171.8400  143.1900 C   0  0  0  0  0  3  0  0  0  0  0  0
  193.2060  172.9500  143.8970 C   0  0  0  0  0  0  0  0  0  0  0  0
  195.4870  173.8160  144.5540 C   0  0  0  0  0  2  0  0  0  0  0  0
  191.5110  176.4370  145.5570 O   0  0  0  0  0  0  0  0  0  0  0  0
  194.4940  177.0490  146.4420 C   0  0  0  0  0  1  0  0  0  0  0  0
  197.6830  173.7410  142.9460 O   0  0  0  0  0  1  0  0  0  0  0  0
  193.5500  175.1850  145.0750 C   0  0  2  0  0  3  0  0  0  0  0  0
  196.4160  175.0520  144.5610 C   0  0  2  0  0  3  0  0  0  0  0  0
  188.6160  174.1780  142.5780 C   0  0  0  0  0  2  0  0  0  0  0  0
  189.4000  175.4030  143.0020 C   0  0  1  0  0  3  0  0  0  0  0  0
  187.9630  175.5440  142.5420 C   0  0  1  0  0  3  0  0  0  0  0  0
  187.9520  176.0630  141.1190 C   0  0  0  0  0  2  0  0  0  0  0  0
  187.2040  177.3490  141.0550 C   0  0  0  0  0  0  0  0  0  0  0  0
  187.4780  178.2770  141.8580 O   0  0  0  0  0  1  0  0  0  0  0  0
  186.2290  177.5380  140.0840 O   0  0  0  0  0  0  0  0  0  0  0  0
  189.7220  177.1580  147.2640 O   0  0  0  0  0  1  0  0  0  0  0  0
  189.4220  177.5410  145.9570 C   0  0  0  0  0  2  0  0  0  0  0  0
  1 22  1  0  0  0  0
  1 10  1  0  0  0  0
  1 19  1  1  0  0  0
  2  9  1  0  0  0  0
  3 16  1  0  0  0  0
  3  2  2  0  0  0  0
  4 22  1  0  0  0  0
  4 20  1  1  0  0  0
  5 15  1  6  0  0  0
  5 23  1  0  0  0  0
  5  4  1  0  0  0  0
  6 19  1  0  0  0  0
  6 32  1  1  0  0  0
  7 10  1  0  0  0  0
  8 21  1  6  0  0  0
  8 23  1  0  0  0  0
  9 11  2  0  0  0  0
 10 11  1  6  0  0  0
 12 18  1  1  0  0  0
 12 22  1  0  0  0  0
 13 15  1  0  0  0  0
 13  8  1  0  0  0  0
 14  6  1  0  0  0  0
 14  7  1  1  0  0  0
 16 17  2  0  0  0  0
 17 12  1  0  0  0  0
 17 11  1  0  0  0  0
 18 23  1  0  0  0  0
 24 25  1  0  0  0  0
 25 14  1  0  0  0  0
 26 24  1  0  0  0  0
 26 25  1  0  0  0  0
 27 26  1  0  0  0  0
 28 27  1  0  0  0  0
 28 29  1  0  0  0  0
 30 28  2  0  0  0  0
 32 31  1  0  0  0  0
M  END
>  <MODEL>
5

>  <REMARK>
 VINA RESULT:      -6.5      2.437      7.592
  Name = 
  4 active torsions:
  status: ('A' for Active; 'I' for Inactive)
    1  A    between atoms: C_7  and  C_19
    2  A    between atoms: C_10  and  C_17
    3  A    between atoms: C_20  and  C_29
    4  A    between atoms: C_29  and  C_30
                            x       y       z     vdW  Elec       q    Type
                         _______ _______ _______ _____ _____    ______ ____

>  <TORSDO>
F 4

$$$$
=
 OpenBabel11112416423D

 32 37  0  0  1  0  0  0  0  0999 V2000
  191.9830  175.7010  143.3020 C   0  0  1  0  0  3  0  0  0  0  0  0
  190.1060  172.1420  140.4880 C   0  0  0  0  0  3  0  0  0  0  0  0
  188.8240  172.5210  140.8860 C   0  0  0  0  0  3  0  0  0  0  0  0
  190.5370  177.5930  144.1950 C   0  0  2  0  0  3  0  0  0  0  0  0
  189.1360  177.8070  144.6090 N   0  0  2  0  0  0  0  0  0  0  0  0
  194.1180  175.5430  144.0040 C   0  0  2  0  0  3  0  0  0  0  0  0
  193.4750  174.2170  141.9790 O   0  0  0  0  0  0  0  0  0  0  0  0
  186.8290  177.2850  144.4090 C   0  0  2  0  0  3  0  0  0  0  0  0
  191.2130  172.9010  140.8750 C   0  0  0  0  0  3  0  0  0  0  0  0
  192.2270  174.9020  142.0240 C   0  0  1  0  0  3  0  0  0  0  0  0
  191.0450  174.0410  141.6720 C   0  0  0  0  0  0  0  0  0  0  0  0
  189.5280  175.6380  142.9670 C   0  0  2  0  0  3  0  0  0  0  0  0
  187.3420  176.5610  145.6310 C   0  0  0  0  0  2  0  0  0  0  0  0
  194.1490  174.1930  143.2320 C   0  0  2  0  0  3  0  0  0  0  0  0
  188.8140  176.9260  145.7300 C   0  0  0  0  0  2  0  0  0  0  0  0
  188.6430  173.6670  141.6630 C   0  0  0  0  0  3  0  0  0  0  0  0
  189.7400  174.4560  142.0380 C   0  0  0  0  0  0  0  0  0  0  0  0
  188.3740  176.5210  142.5430 C   0  0  0  0  0  2  0  0  0  0  0  0
  193.1360  176.4520  143.5450 O   0  0  0  0  0  0  0  0  0  0  0  0
  191.1540  178.9150  143.7840 C   0  0  0  0  0  1  0  0  0  0  0  0
  185.9150  176.4920  143.7100 O   0  0  0  0  0  1  0  0  0  0  0  0
  190.7420  176.5550  143.0830 C   0  0  2  0  0  3  0  0  0  0  0  0
  188.0750  177.6120  143.5980 C   0  0  2  0  0  3  0  0  0  0  0  0
  193.8020  171.7360  143.3890 C   0  0  0  0  0  2  0  0  0  0  0  0
  193.6240  173.0600  144.1030 C   0  0  1  0  0  3  0  0  0  0  0  0
  194.7740  172.1450  144.4750 C   0  0  1  0  0  3  0  0  0  0  0  0
  194.4290  171.4230  145.7620 C   0  0  0  0  0  2  0  0  0  0  0  0
  195.2300  170.1720  145.8700 C   0  0  0  0  0  0  0  0  0  0  0  0
  194.6670  169.0530  145.7590 O   0  0  0  0  0  0  0  0  0  0  0  0
  196.6040  170.2410  146.0560 O   0  0  0  0  0  1  0  0  0  0  0  0
  195.7940  176.5150  142.6170 O   0  0  0  0  0  1  0  0  0  0  0  0
  195.4860  176.1920  143.9370 C   0  0  0  0  0  2  0  0  0  0  0  0
  1 19  1  6  0  0  0
  2  9  2  0  0  0  0
  2  3  1  0  0  0  0
  3 16  2  0  0  0  0
  4 20  1  6  0  0  0
  4  5  1  0  0  0  0
  5 15  1  1  0  0  0
  6 32  1  6  0  0  0
  7 10  1  0  0  0  0
  8 21  1  6  0  0  0
  8 13  1  0  0  0  0
  9 11  1  0  0  0  0
 10 11  1  1  0  0  0
 10  1  1  0  0  0  0
 11 17  2  0  0  0  0
 12 18  1  6  0  0  0
 12 22  1  0  0  0  0
 13 15  1  0  0  0  0
 14  7  1  6  0  0  0
 14  6  1  0  0  0  0
 14 25  1  0  0  0  0
 16 17  1  0  0  0  0
 17 12  1  0  0  0  0
 18 23  1  0  0  0  0
 19  6  1  0  0  0  0
 22  1  1  0  0  0  0
 22  4  1  0  0  0  0
 23  8  1  0  0  0  0
 23  5  1  0  0  0  0
 24 25  1  0  0  0  0
 24 26  1  0  0  0  0
 25 26  1  0  0  0  0
 26 27  1  0  0  0  0
 27 28  1  0  0  0  0
 28 30  1  0  0  0  0
 29 28  2  0  0  0  0
 31 32  1  0  0  0  0
M  END
>  <MODEL>
6

>  <REMARK>
 VINA RESULT:      -6.4      2.516      4.866
  Name = 
  4 active torsions:
  status: ('A' for Active; 'I' for Inactive)
    1  A    between atoms: C_7  and  C_19
    2  A    between atoms: C_10  and  C_17
    3  A    between atoms: C_20  and  C_29
    4  A    between atoms: C_29  and  C_30
                            x       y       z     vdW  Elec       q    Type
                         _______ _______ _______ _____ _____    ______ ____

>  <TORSDO>
F 4

$$$$
=
 OpenBabel11112416423D

 32 37  0  0  1  0  0  0  0  0999 V2000
  192.7600  174.5940  144.7420 C   0  0  1  0  0  3  0  0  0  0  0  0
  190.4620  172.2630  141.0830 C   0  0  0  0  0  3  0  0  0  0  0  0
  191.5760  172.4700  140.2680 C   0  0  0  0  0  3  0  0  0  0  0  0
  195.2670  175.0170  144.6830 C   0  0  2  0  0  3  0  0  0  0  0  0
  196.3200  175.2580  143.6760 N   0  0  2  0  0  0  0  0  0  0  0  0
  191.5450  175.5080  146.4040 C   0  0  2  0  0  3  0  0  0  0  0  0
  190.4690  173.6860  145.0640 O   0  0  0  0  0  0  0  0  0  0  0  0
  197.1890  174.9360  141.4910 C   0  0  2  0  0  3  0  0  0  0  0  0
  190.5060  172.6160  142.4330 C   0  0  0  0  0  3  0  0  0  0  0  0
  191.7390  173.4990  144.4470 C   0  0  1  0  0  3  0  0  0  0  0  0
  191.6630  173.1890  142.9770 C   0  0  0  0  0  0  0  0  0  0  0  0
  194.0530  174.0500  142.6990 C   0  0  2  0  0  3  0  0  0  0  0  0
  196.5520  176.3060  141.5170 C   0  0  0  0  0  2  0  0  0  0  0  0
  190.3030  174.9820  145.6280 C   0  0  2  0  0  3  0  0  0  0  0  0
  196.0180  176.4760  142.9300 C   0  0  0  0  0  2  0  0  0  0  0  0
  192.7420  173.0220  140.8040 C   0  0  0  0  0  3  0  0  0  0  0  0
  192.8120  173.3580  142.1640 C   0  0  0  0  0  0  0  0  0  0  0  0
  195.3370  173.3770  142.2620 C   0  0  0  0  0  2  0  0  0  0  0  0
  192.7430  174.8120  146.1220 O   0  0  0  0  0  0  0  0  0  0  0  0
  195.8880  174.4470  145.9440 C   0  0  0  0  0  1  0  0  0  0  0  0
  196.9480  174.3000  140.2700 O   0  0  0  0  0  1  0  0  0  0  0  0
  194.1100  174.1200  144.2220 C   0  0  2  0  0  3  0  0  0  0  0  0
  196.5790  174.2000  142.6760 C   0  0  2  0  0  3  0  0  0  0  0  0
  188.6870  175.4290  143.7930 C   0  0  0  0  0  2  0  0  0  0  0  0
  189.8690  175.9800  144.5640 C   0  0  1  0  0  3  0  0  0  0  0  0
  188.4660  176.4620  144.8770 C   0  0  1  0  0  3  0  0  0  0  0  0
  188.2640  177.8240  144.2460 C   0  0  0  0  0  2  0  0  0  0  0  0
  186.8320  178.0040  143.8800 C   0  0  0  0  0  0  0  0  0  0  0  0
  185.9300  177.5220  144.6110 O   0  0  0  0  0  1  0  0  0  0  0  0
  186.4910  178.7380  142.7510 O   0  0  0  0  0  0  0  0  0  0  0  0
  191.3420  176.7410  148.4340 O   0  0  0  0  0  1  0  0  0  0  0  0
  191.2640  175.4590  147.8930 C   0  0  0  0  0  2  0  0  0  0  0  0
  1 19  1  1  0  0  0
  2  9  1  0  0  0  0
  3 16  1  0  0  0  0
  3  2  2  0  0  0  0
  4 20  1  1  0  0  0
  5 15  1  6  0  0  0
  5  4  1  0  0  0  0
  6 32  1  1  0  0  0
  8 21  1  6  0  0  0
  8 13  1  0  0  0  0
  8 23  1  0  0  0  0
  9 11  2  0  0  0  0
 10 11  1  6  0  0  0
 10  1  1  0  0  0  0
 10  7  1  0  0  0  0
 12 18  1  1  0  0  0
 12 22  1  0  0  0  0
 13 15  1  0  0  0  0
 14  7  1  6  0  0  0
 14  6  1  0  0  0  0
 16 17  2  0  0  0  0
 17 12  1  0  0  0  0
 17 11  1  0  0  0  0
 18 23  1  0  0  0  0
 19  6  1  0  0  0  0
 22  4  1  0  0  0  0
 22  1  1  0  0  0  0
 23  5  1  0  0  0  0
 24 25  1  0  0  0  0
 24 26  1  0  0  0  0
 25 26  1  0  0  0  0
 25 14  1  0  0  0  0
 27 26  1  0  0  0  0
 28 27  1  0  0  0  0
 28 29  1  0  0  0  0
 30 28  2  0  0  0  0
 32 31  1  0  0  0  0
M  END
>  <MODEL>
7

>  <REMARK>
 VINA RESULT:      -6.3      2.470      7.745
  Name = 
  4 active torsions:
  status: ('A' for Active; 'I' for Inactive)
    1  A    between atoms: C_7  and  C_19
    2  A    between atoms: C_10  and  C_17
    3  A    between atoms: C_20  and  C_29
    4  A    between atoms: C_29  and  C_30
                            x       y       z     vdW  Elec       q    Type
                         _______ _______ _______ _____ _____    ______ ____

>  <TORSDO>
F 4

$$$$
=
 OpenBabel11112416423D

 32 37  0  0  1  0  0  0  0  0999 V2000
  191.7710  174.8130  144.2290 C   0  0  1  0  0  3  0  0  0  0  0  0
  189.5680  172.9100  140.2740 C   0  0  0  0  0  3  0  0  0  0  0  0
  190.7210  173.1580  139.5290 C   0  0  0  0  0  3  0  0  0  0  0  0
  194.2890  175.1590  144.3110 C   0  0  2  0  0  3  0  0  0  0  0  0
  195.3910  175.4600  143.3750 N   0  0  2  0  0  0  0  0  0  0  0  0
  190.5110  175.6040  145.9210 C   0  0  2  0  0  3  0  0  0  0  0  0
  189.4430  173.9510  144.3700 O   0  0  0  0  0  0  0  0  0  0  0  0
  196.3430  175.3180  141.2050 C   0  0  2  0  0  3  0  0  0  0  0  0
  189.5640  173.1330  141.6530 C   0  0  0  0  0  3  0  0  0  0  0  0
  190.7330  173.7830  143.7900 C   0  0  1  0  0  3  0  0  0  0  0  0
  190.7120  173.6160  142.2950 C   0  0  0  0  0  0  0  0  0  0  0  0
  193.1350  174.4220  142.1970 C   0  0  2  0  0  3  0  0  0  0  0  0
  195.7440  176.6990  141.3370 C   0  0  0  0  0  2  0  0  0  0  0  0
  189.2900  175.1930  145.0490 C   0  0  2  0  0  3  0  0  0  0  0  0
  195.1540  176.7530  142.7370 C   0  0  0  0  0  2  0  0  0  0  0  0
  191.8780  173.6200  140.1610 C   0  0  0  0  0  3  0  0  0  0  0  0
  191.8990  173.8240  141.5490 C   0  0  0  0  0  0  0  0  0  0  0  0
  194.4170  173.7540  141.7490 C   0  0  0  0  0  2  0  0  0  0  0  0
  191.7010  174.9000  145.6220 O   0  0  0  0  0  0  0  0  0  0  0  0
  194.8390  174.4540  145.5360 C   0  0  0  0  0  1  0  0  0  0  0  0
  196.1370  174.8090  139.9210 O   0  0  0  0  0  1  0  0  0  0  0  0
  193.1280  174.3470  143.7200 C   0  0  2  0  0  3  0  0  0  0  0  0
  195.6630  174.4940  142.2900 C   0  0  2  0  0  3  0  0  0  0  0  0
  187.9090  175.7920  143.0700 C   0  0  0  0  0  2  0  0  0  0  0  0
  188.9290  176.3000  144.0680 C   0  0  1  0  0  3  0  0  0  0  0  0
  187.4650  176.6530  144.2330 C   0  0  1  0  0  3  0  0  0  0  0  0
  187.2470  178.0750  143.7570 C   0  0  0  0  0  2  0  0  0  0  0  0
  186.1040  178.6850  144.4930 C   0  0  0  0  0  0  0  0  0  0  0  0
  185.5390  178.0480  145.4170 O   0  0  0  0  0  1  0  0  0  0  0  0
  185.6880  179.9730  144.1830 O   0  0  0  0  0  0  0  0  0  0  0  0
  189.0960  174.5400  147.5160 O   0  0  0  0  0  1  0  0  0  0  0  0
  190.1660  175.4230  147.3860 C   0  0  0  0  0  2  0  0  0  0  0  0
  1 19  1  1  0  0  0
  2  9  1  0  0  0  0
  3 16  1  0  0  0  0
  3  2  2  0  0  0  0
  4 20  1  1  0  0  0
  5 15  1  6  0  0  0
  5  4  1  0  0  0  0
  6 32  1  1  0  0  0
  8 21  1  6  0  0  0
  8 13  1  0  0  0  0
  8 23  1  0  0  0  0
  9 11  2  0  0  0  0
 10 11  1  6  0  0  0
 10  1  1  0  0  0  0
 10  7  1  0  0  0  0
 12 18  1  6  0  0  0
 12 22  1  0  0  0  0
 13 15  1  0  0  0  0
 14  7  1  6  0  0  0
 14  6  1  0  0  0  0
 16 17  2  0  0  0  0
 17 12  1  0  0  0  0
 17 11  1  0  0  0  0
 18 23  1  0  0  0  0
 19  6  1  0  0  0  0
 22  1  1  0  0  0  0
 22  4  1  0  0  0  0
 23  5  1  0  0  0  0
 24 25  1  0  0  0  0
 24 26  1  0  0  0  0
 25 26  1  0  0  0  0
 25 14  1  0  0  0  0
 27 26  1  0  0  0  0
 27 28  1  0  0  0  0
 28 29  1  0  0  0  0
 30 28  2  0  0  0  0
 32 31  1  0  0  0  0
M  END
>  <MODEL>
8

>  <REMARK>
 VINA RESULT:      -6.2      2.348      7.607
  Name = 
  4 active torsions:
  status: ('A' for Active; 'I' for Inactive)
    1  A    between atoms: C_7  and  C_19
    2  A    between atoms: C_10  and  C_17
    3  A    between atoms: C_20  and  C_29
    4  A    between atoms: C_29  and  C_30
                            x       y       z     vdW  Elec       q    Type
                         _______ _______ _______ _____ _____    ______ ____

>  <TORSDO>
F 4

$$$$
=
 OpenBabel11112416423D

 32 37  0  0  1  0  0  0  0  0999 V2000
  190.9070  174.1140  143.0090 C   0  0  1  0  0  3  0  0  0  0  0  0
  192.5390  175.7810  147.3290 C   0  0  0  0  0  3  0  0  0  0  0  0
  191.5160  176.7300  147.3350 C   0  0  0  0  0  3  0  0  0  0  0  0
  188.5910  174.7070  142.1430 C   0  0  2  0  0  3  0  0  0  0  0  0
  187.6360  175.8300  142.2330 N   0  0  2  0  0  0  0  0  0  0  0  0
  192.3130  172.9840  141.6590 C   0  0  2  0  0  3  0  0  0  0  0  0
  192.8900  173.0810  144.0950 O   0  0  0  0  0  0  0  0  0  0  0  0
  186.7160  177.6570  143.4380 C   0  0  2  0  0  3  0  0  0  0  0  0
  192.5850  174.8060  146.3310 C   0  0  0  0  0  3  0  0  0  0  0  0
  191.6150  173.6850  144.2910 C   0  0  1  0  0  3  0  0  0  0  0  0
  191.6110  174.7800  145.3220 C   0  0  0  0  0  0  0  0  0  0  0  0
  189.5200  175.7640  144.2320 C   0  0  2  0  0  3  0  0  0  0  0  0
  187.6820  178.2330  142.4280 C   0  0  0  0  0  2  0  0  0  0  0  0
  193.3800  173.2220  142.7660 C   0  0  2  0  0  3  0  0  0  0  0  0
  188.2400  177.0360  141.6750 C   0  0  0  0  0  2  0  0  0  0  0  0
  190.5290  176.7010  146.3470 C   0  0  0  0  0  3  0  0  0  0  0  0
  190.5450  175.7120  145.3520 C   0  0  0  0  0  0  0  0  0  0  0  0
  188.1080  175.9730  144.7340 C   0  0  0  0  0  2  0  0  0  0  0  0
  190.9770  173.0380  142.1200 O   0  0  0  0  0  0  0  0  0  0  0  0
  187.8440  173.4260  141.8290 C   0  0  0  0  0  1  0  0  0  0  0  0
  186.7890  178.3530  144.6460 O   0  0  0  0  0  1  0  0  0  0  0  0
  189.4820  174.5020  143.3750 C   0  0  2  0  0  3  0  0  0  0  0  0
  187.1160  176.1930  143.5680 C   0  0  2  0  0  3  0  0  0  0  0  0
  195.1580  174.7410  143.6100 C   0  0  0  0  0  2  0  0  0  0  0  0
  194.0570  174.5730  142.5830 C   0  0  1  0  0  3  0  0  0  0  0  0
  195.5030  174.3560  142.1870 C   0  0  1  0  0  3  0  0  0  0  0  0
  195.9950  175.5770  141.4360 C   0  0  0  0  0  2  0  0  0  0  0  0
  196.6330  175.1610  140.1560 C   0  0  0  0  0  0  0  0  0  0  0  0
  196.0010  175.2670  139.0740 O   0  0  0  0  0  0  0  0  0  0  0  0
  197.9390  174.6900  140.1520 O   0  0  0  0  0  1  0  0  0  0  0  0
  191.5310  171.3470  140.1130 O   0  0  0  0  0  1  0  0  0  0  0  0
  192.5700  171.6460  140.9930 C   0  0  0  0  0  2  0  0  0  0  0  0
  1 19  1  6  0  0  0
  1 22  1  0  0  0  0
  1 10  1  0  0  0  0
  2  3  1  0  0  0  0
  4 20  1  1  0  0  0
  4  5  1  0  0  0  0
  4 22  1  0  0  0  0
  5 15  1  1  0  0  0
  5 23  1  0  0  0  0
  6 32  1  1  0  0  0
  6 19  1  0  0  0  0
  6 14  1  0  0  0  0
  8 23  1  0  0  0  0
  8 21  1  1  0  0  0
  9  2  2  0  0  0  0
 10  7  1  6  0  0  0
 10 11  1  0  0  0  0
 11 17  2  0  0  0  0
 11  9  1  0  0  0  0
 12 18  1  1  0  0  0
 12 17  1  0  0  0  0
 13  8  1  0  0  0  0
 14  7  1  1  0  0  0
 15 13  1  0  0  0  0
 16  3  2  0  0  0  0
 17 16  1  0  0  0  0
 22 12  1  0  0  0  0
 23 18  1  0  0  0  0
 25 14  1  0  0  0  0
 25 24  1  0  0  0  0
 26 25  1  0  0  0  0
 26 24  1  0  0  0  0
 27 26  1  0  0  0  0
 28 27  1  0  0  0  0
 29 28  2  0  0  0  0
 30 28  1  0  0  0  0
 31 32  1  0  0  0  0
M  END
>  <MODEL>
9

>  <REMARK>
 VINA RESULT:      -6.1      1.433      1.559
  Name = 
  4 active torsions:
  status: ('A' for Active; 'I' for Inactive)
    1  A    between atoms: C_7  and  C_19
    2  A    between atoms: C_10  and  C_17
    3  A    between atoms: C_20  and  C_29
    4  A    between atoms: C_29  and  C_30
                            x       y       z     vdW  Elec       q    Type
                         _______ _______ _______ _____ _____    ______ ____

>  <TORSDO>
F 4

$$$$
