=
 OpenBabel11112417043D

 31 35  0  0  1  0  0  0  0  0999 V2000
  184.6940  177.9630  146.7650 C   0  0  0  0  0  0  0  0  0  0  0  0
  187.0490  176.1930  144.3520 C   0  0  2  0  0  3  0  0  0  0  0  0
  186.7730  176.8170  142.9970 C   0  0  0  0  0  0  0  0  0  0  0  0
  185.2520  177.8760  141.4210 C   0  0  0  0  0  0  0  0  0  0  0  0
  186.5610  177.0280  145.5180 C   0  0  0  0  0  0  0  0  0  0  0  0
  185.5830  178.6000  147.6310 C   0  0  0  0  0  3  0  0  0  0  0  0
  185.5190  177.3700  142.6970 C   0  0  0  0  0  3  0  0  0  0  0  0
  189.4100  176.9500  144.9870 C   0  0  2  0  0  3  0  0  0  0  0  0
  183.3580  178.1070  146.9390 F   0  0  0  0  0  0  0  0  0  0  0  0
  189.0850  176.1430  142.2760 C   0  0  0  0  0  2  0  0  0  0  0  0
  184.0130  178.4350  141.1420 O   0  0  0  0  0  1  0  0  0  0  0  0
  188.9350  177.4170  146.3570 C   0  0  0  0  0  2  0  0  0  0  0  0
  188.5330  175.7860  144.4970 C   0  0  2  0  0  3  0  0  0  0  0  0
  185.1800  177.1780  145.7190 C   0  0  0  0  0  3  0  0  0  0  0  0
  186.2320  177.8170  140.4270 C   0  0  0  0  0  3  0  0  0  0  0  0
  187.4580  177.6680  146.4050 C   0  0  0  0  0  0  0  0  0  0  0  0
  186.9600  178.4430  147.4580 C   0  0  0  0  0  3  0  0  0  0  0  0
  189.0180  175.1810  143.3090 O   0  0  0  0  0  0  0  0  0  0  0  0
  187.7380  176.7250  141.9760 C   0  0  0  0  0  0  0  0  0  0  0  0
  187.4750  177.2430  140.7050 C   0  0  0  0  0  3  0  0  0  0  0  0
  191.6060  178.2260  143.6890 O   0  0  0  0  0  0  0  0  0  0  0  0
  191.8550  177.2160  144.4020 C   0  0  0  0  0  0  0  0  0  0  0  0
  190.8000  176.5250  145.0720 N   0  0  0  0  0  2  0  0  0  0  0  0
  193.7710  173.8800  145.0560 N   0  0  0  0  0  0  0  0  0  0  0  0
  193.6220  175.7190  143.4490 C   0  0  0  0  0  2  0  0  0  0  0  0
  193.8260  176.8480  146.8480 O   0  0  0  0  0  0  0  0  0  0  0  0
  193.3810  172.6010  145.2680 O   0  0  0  0  0  1  0  0  0  0  0  0
  193.1570  174.3050  143.8000 C   0  0  0  0  0  2  0  0  0  0  0  0
  193.4860  176.1340  145.9190 C   0  0  0  0  0  0  0  0  0  0  0  0
  193.2600  176.7210  144.5530 C   0  0  2  0  0  3  0  0  0  0  0  0
  193.2110  174.6760  146.1480 C   0  0  0  0  0  2  0  0  0  0  0  0
  1  9  1  0  0  0  0
  1  6  1  0  0  0  0
  2  3  1  6  0  0  0
  2 13  1  0  0  0  0
  2  5  1  0  0  0  0
  4  7  2  0  0  0  0
  5 14  1  0  0  0  0
  5 16  2  0  0  0  0
  7  3  1  0  0  0  0
  8 23  1  1  0  0  0
  8 12  1  0  0  0  0
 10 18  1  0  0  0  0
 11  4  1  0  0  0  0
 12 16  1  0  0  0  0
 13 18  1  6  0  0  0
 13  8  1  0  0  0  0
 14  1  2  0  0  0  0
 15 20  2  0  0  0  0
 15  4  1  0  0  0  0
 16 17  1  0  0  0  0
 17  6  2  0  0  0  0
 19 10  1  0  0  0  0
 19  3  2  0  0  0  0
 20 19  1  0  0  0  0
 21 22  2  0  0  0  0
 22 23  1  0  0  0  0
 24 27  1  0  0  0  0
 24 31  1  0  0  0  0
 25 28  1  0  0  0  0
 25 30  1  0  0  0  0
 28 24  1  0  0  0  0
 29 31  1  0  0  0  0
 29 26  2  0  0  0  0
 30 22  1  1  0  0  0
 30 29  1  0  0  0  0
M  END
>  <MODEL>
1

>  <REMARK>
 VINA RESULT:      -9.3      0.000      0.000
  Name = 
  2 active torsions:
  status: ('A' for Active; 'I' for Inactive)
    1  A    between atoms: C_5  and  C_30
    2  A    between atoms: C_10  and  N_16
                            x       y       z     vdW  Elec       q    Type
                         _______ _______ _______ _____ _____    ______ ____

>  <TORSDO>
F 2

$$$$
=
 OpenBabel11112417043D

 31 35  0  0  1  0  0  0  0  0999 V2000
  185.9210  178.1740  140.7860 C   0  0  0  0  0  0  0  0  0  0  0  0
  188.1430  178.1510  143.8780 C   0  0  2  0  0  3  0  0  0  0  0  0
  187.1990  177.9240  145.0450 C   0  0  0  0  0  0  0  0  0  0  0  0
  185.0130  178.1770  146.0820 C   0  0  0  0  0  0  0  0  0  0  0  0
  187.5570  177.7600  142.5370 C   0  0  0  0  0  0  0  0  0  0  0  0
  186.3910  177.0680  140.0760 C   0  0  0  0  0  3  0  0  0  0  0  0
  185.8550  178.3220  144.9760 C   0  0  0  0  0  3  0  0  0  0  0  0
  189.5550  176.0220  143.7170 C   0  0  2  0  0  3  0  0  0  0  0  0
  184.8980  178.9110  140.2910 F   0  0  0  0  0  0  0  0  0  0  0  0
  189.1310  176.9970  146.3580 C   0  0  0  0  0  2  0  0  0  0  0  0
  183.6820  178.5590  145.9950 O   0  0  0  0  0  1  0  0  0  0  0  0
  189.2640  175.8930  142.2270 C   0  0  0  0  0  2  0  0  0  0  0  0
  189.5220  177.5020  144.1320 C   0  0  2  0  0  3  0  0  0  0  0  0
  186.5050  178.5200  142.0050 C   0  0  0  0  0  3  0  0  0  0  0  0
  185.5120  177.6480  147.2750 C   0  0  0  0  0  3  0  0  0  0  0  0
  188.0370  176.6460  141.8080 C   0  0  0  0  0  0  0  0  0  0  0  0
  187.4530  176.3150  140.5810 C   0  0  0  0  0  3  0  0  0  0  0  0
  189.9550  177.7190  145.4660 O   0  0  0  0  0  0  0  0  0  0  0  0
  187.7010  177.4320  146.2640 C   0  0  0  0  0  0  0  0  0  0  0  0
  186.8550  177.2750  147.3660 C   0  0  0  0  0  3  0  0  0  0  0  0
  190.0240  173.7270  145.3460 O   0  0  0  0  0  0  0  0  0  0  0  0
  191.0260  174.2910  144.8270 C   0  0  0  0  0  0  0  0  0  0  0  0
  190.8610  175.4500  144.0090 N   0  0  0  0  0  2  0  0  0  0  0  0
  194.7230  175.5410  144.8630 N   0  0  0  0  0  0  0  0  0  0  0  0
  193.0620  174.4330  146.2790 C   0  0  0  0  0  2  0  0  0  0  0  0
  193.2610  173.0160  142.9900 O   0  0  0  0  0  0  0  0  0  0  0  0
  195.3100  176.7370  144.6280 O   0  0  0  0  0  1  0  0  0  0  0  0
  193.7130  175.7630  145.8960 C   0  0  0  0  0  2  0  0  0  0  0  0
  193.2600  173.8930  143.8380 C   0  0  0  0  0  0  0  0  0  0  0  0
  192.4050  173.7600  145.0680 C   0  0  2  0  0  3  0  0  0  0  0  0
  194.0510  175.1510  143.6240 C   0  0  0  0  0  2  0  0  0  0  0  0
  1 14  1  0  0  0  0
  2  5  1  6  0  0  0
  2 13  1  0  0  0  0
  2  3  1  0  0  0  0
  3 19  1  0  0  0  0
  4 15  2  0  0  0  0
  6 17  1  0  0  0  0
  6  1  2  0  0  0  0
  7  3  2  0  0  0  0
  7  4  1  0  0  0  0
  8 23  1  6  0  0  0
  8 13  1  0  0  0  0
  9  1  1  0  0  0  0
 11  4  1  0  0  0  0
 12  8  1  0  0  0  0
 13 18  1  1  0  0  0
 14  5  2  0  0  0  0
 15 20  1  0  0  0  0
 16 12  1  0  0  0  0
 16  5  1  0  0  0  0
 17 16  2  0  0  0  0
 18 10  1  0  0  0  0
 19 10  1  0  0  0  0
 19 20  2  0  0  0  0
 22 21  2  0  0  0  0
 23 22  1  0  0  0  0
 24 28  1  0  0  0  0
 26 29  2  0  0  0  0
 27 24  1  0  0  0  0
 28 25  1  0  0  0  0
 29 30  1  0  0  0  0
 30 22  1  6  0  0  0
 30 25  1  0  0  0  0
 31 29  1  0  0  0  0
 31 24  1  0  0  0  0
M  END
>  <MODEL>
2

>  <REMARK>
 VINA RESULT:      -9.0      2.063      4.441
  Name = 
  2 active torsions:
  status: ('A' for Active; 'I' for Inactive)
    1  A    between atoms: C_5  and  C_30
    2  A    between atoms: C_10  and  N_16
                            x       y       z     vdW  Elec       q    Type
                         _______ _______ _______ _____ _____    ______ ____

>  <TORSDO>
F 2

$$$$
=
 OpenBabel11112417043D

 31 35  0  0  1  0  0  0  0  0999 V2000
  184.7390  178.0210  146.7460 C   0  0  0  0  0  0  0  0  0  0  0  0
  186.8120  176.1770  144.1380 C   0  0  2  0  0  3  0  0  0  0  0  0
  186.4690  176.8390  142.8170 C   0  0  0  0  0  0  0  0  0  0  0  0
  184.8930  178.0030  141.3750 C   0  0  0  0  0  0  0  0  0  0  0  0
  186.4570  177.0150  145.3490 C   0  0  0  0  0  0  0  0  0  0  0  0
  185.7230  178.5970  147.5520 C   0  0  0  0  0  3  0  0  0  0  0  0
  185.2270  177.4610  142.6200 C   0  0  0  0  0  3  0  0  0  0  0  0
  189.2500  176.8000  144.6040 C   0  0  2  0  0  3  0  0  0  0  0  0
  183.4300  178.2300  147.0230 F   0  0  0  0  0  0  0  0  0  0  0  0
  188.6830  176.0610  141.9150 C   0  0  0  0  0  2  0  0  0  0  0  0
  183.6680  178.6300  141.1980 O   0  0  0  0  0  1  0  0  0  0  0  0
  188.9040  177.2660  146.0130 C   0  0  0  0  0  2  0  0  0  0  0  0
  188.2790  175.6920  144.1650 C   0  0  2  0  0  3  0  0  0  0  0  0
  185.1050  177.2310  145.6560 C   0  0  0  0  0  3  0  0  0  0  0  0
  185.7920  177.9120  140.3100 C   0  0  0  0  0  3  0  0  0  0  0  0
  187.4500  177.5910  146.1760 C   0  0  0  0  0  0  0  0  0  0  0  0
  187.0730  178.3720  147.2740 C   0  0  0  0  0  3  0  0  0  0  0  0
  188.6430  175.0850  142.9360 O   0  0  0  0  0  0  0  0  0  0  0  0
  187.3500  176.7160  141.7260 C   0  0  0  0  0  0  0  0  0  0  0  0
  187.0200  177.2700  140.4850 C   0  0  0  0  0  3  0  0  0  0  0  0
  190.2180  174.5560  146.0760 O   0  0  0  0  0  0  0  0  0  0  0  0
  191.0360  175.1650  145.3350 C   0  0  0  0  0  0  0  0  0  0  0  0
  190.6190  176.3030  144.5790 N   0  0  0  0  0  2  0  0  0  0  0  0
  194.6400  176.6540  145.4850 N   0  0  0  0  0  0  0  0  0  0  0  0
  193.2170  174.9720  146.5500 C   0  0  0  0  0  2  0  0  0  0  0  0
  193.1050  174.8310  142.9680 O   0  0  0  0  0  0  0  0  0  0  0  0
  195.1310  177.9050  145.6440 O   0  0  0  0  0  1  0  0  0  0  0  0
  193.7480  176.4050  146.6150 C   0  0  0  0  0  2  0  0  0  0  0  0
  193.1570  175.3480  144.0710 C   0  0  0  0  0  0  0  0  0  0  0  0
  192.4600  174.7120  145.2420 C   0  0  2  0  0  3  0  0  0  0  0  0
  193.8490  176.6670  144.2550 C   0  0  0  0  0  2  0  0  0  0  0  0
  1  9  1  0  0  0  0
  1  6  1  0  0  0  0
  2  3  1  6  0  0  0
  2 13  1  0  0  0  0
  2  5  1  0  0  0  0
  4  7  2  0  0  0  0
  5 14  1  0  0  0  0
  5 16  2  0  0  0  0
  7  3  1  0  0  0  0
  8 23  1  1  0  0  0
  8 12  1  0  0  0  0
 10 18  1  0  0  0  0
 11  4  1  0  0  0  0
 12 16  1  0  0  0  0
 13 18  1  6  0  0  0
 13  8  1  0  0  0  0
 14  1  2  0  0  0  0
 15 20  2  0  0  0  0
 15  4  1  0  0  0  0
 16 17  1  0  0  0  0
 17  6  2  0  0  0  0
 19 10  1  0  0  0  0
 19  3  2  0  0  0  0
 20 19  1  0  0  0  0
 22 21  2  0  0  0  0
 23 22  1  0  0  0  0
 24 27  1  0  0  0  0
 24 28  1  0  0  0  0
 25 28  1  0  0  0  0
 26 29  2  0  0  0  0
 29 31  1  0  0  0  0
 29 30  1  0  0  0  0
 30 22  1  1  0  0  0
 30 25  1  0  0  0  0
 31 24  1  0  0  0  0
M  END
>  <MODEL>
3

>  <REMARK>
 VINA RESULT:      -8.7      1.245      2.045
  Name = 
  2 active torsions:
  status: ('A' for Active; 'I' for Inactive)
    1  A    between atoms: C_5  and  C_30
    2  A    between atoms: C_10  and  N_16
                            x       y       z     vdW  Elec       q    Type
                         _______ _______ _______ _____ _____    ______ ____

>  <TORSDO>
F 2

$$$$
=
 OpenBabel11112417043D

 31 35  0  0  1  0  0  0  0  0999 V2000
  194.6420  176.2050  145.0800 C   0  0  0  0  0  0  0  0  0  0  0  0
  191.2420  176.8960  143.5100 C   0  0  2  0  0  3  0  0  0  0  0  0
  190.9740  175.7090  142.6040 C   0  0  0  0  0  0  0  0  0  0  0  0
  191.7710  173.9310  141.1480 C   0  0  0  0  0  0  0  0  0  0  0  0
  192.3060  176.6350  144.5560 C   0  0  0  0  0  0  0  0  0  0  0  0
  194.3250  176.1030  146.4360 C   0  0  0  0  0  3  0  0  0  0  0  0
  192.0290  174.9760  142.0400 C   0  0  0  0  0  3  0  0  0  0  0  0
  189.5360  176.7090  145.4080 C   0  0  2  0  0  3  0  0  0  0  0  0
  195.9220  176.0420  144.6700 F   0  0  0  0  0  0  0  0  0  0  0  0
  188.5130  176.1810  142.8040 C   0  0  0  0  0  2  0  0  0  0  0  0
  192.8240  173.2030  140.6110 O   0  0  0  0  0  1  0  0  0  0  0  0
  190.6280  176.8680  146.4590 C   0  0  0  0  0  2  0  0  0  0  0  0
  189.9350  177.4490  144.1210 C   0  0  2  0  0  3  0  0  0  0  0  0
  193.6390  176.4760  144.1480 C   0  0  0  0  0  3  0  0  0  0  0  0
  190.4560  173.6200  140.7980 C   0  0  0  0  0  3  0  0  0  0  0  0
  191.9930  176.5420  145.9330 C   0  0  0  0  0  0  0  0  0  0  0  0
  193.0070  176.2820  146.8600 C   0  0  0  0  0  3  0  0  0  0  0  0
  188.8950  177.4950  143.1570 O   0  0  0  0  0  0  0  0  0  0  0  0
  189.6550  175.4150  142.2110 C   0  0  0  0  0  0  0  0  0  0  0  0
  189.3970  174.3610  141.3290 C   0  0  0  0  0  3  0  0  0  0  0  0
  187.8420  175.4070  147.2980 O   0  0  0  0  0  0  0  0  0  0  0  0
  187.4850  176.5410  146.8780 C   0  0  0  0  0  0  0  0  0  0  0  0
  188.2830  177.2430  145.9230 N   0  0  0  0  0  2  0  0  0  0  0  0
  184.7210  179.0010  145.6360 N   0  0  0  0  0  0  0  0  0  0  0  0
  185.0150  176.7350  146.5150 C   0  0  0  0  0  2  0  0  0  0  0  0
  186.7800  179.2110  148.4170 O   0  0  0  0  0  0  0  0  0  0  0  0
  184.5300  179.6930  144.4890 O   0  0  0  0  0  1  0  0  0  0  0  0
  184.8790  177.5970  145.2580 C   0  0  0  0  0  2  0  0  0  0  0  0
  186.3360  178.6660  147.4210 C   0  0  0  0  0  0  0  0  0  0  0  0
  186.2160  177.1680  147.3650 C   0  0  2  0  0  3  0  0  0  0  0  0
  185.9790  179.4770  146.2100 C   0  0  0  0  0  2  0  0  0  0  0  0
  1  6  1  0  0  0  0
  2  3  1  1  0  0  0
  2 13  1  0  0  0  0
  2  5  1  0  0  0  0
  4  7  1  0  0  0  0
  5 16  2  0  0  0  0
  6 17  2  0  0  0  0
  7  3  2  0  0  0  0
  8 23  1  1  0  0  0
  8 12  1  0  0  0  0
  9  1  1  0  0  0  0
 10 18  1  0  0  0  0
 11  4  1  0  0  0  0
 13 18  1  6  0  0  0
 13  8  1  0  0  0  0
 14  5  1  0  0  0  0
 14  1  2  0  0  0  0
 15  4  2  0  0  0  0
 15 20  1  0  0  0  0
 16 12  1  0  0  0  0
 16 17  1  0  0  0  0
 19  3  1  0  0  0  0
 19 10  1  0  0  0  0
 20 19  2  0  0  0  0
 22 21  2  0  0  0  0
 23 22  1  0  0  0  0
 24 31  1  0  0  0  0
 25 30  1  0  0  0  0
 27 24  1  0  0  0  0
 28 24  1  0  0  0  0
 28 25  1  0  0  0  0
 29 26  2  0  0  0  0
 30 22  1  6  0  0  0
 30 29  1  0  0  0  0
 31 29  1  0  0  0  0
M  END
>  <MODEL>
4

>  <REMARK>
 VINA RESULT:      -8.6      3.500      7.114
  Name = 
  2 active torsions:
  status: ('A' for Active; 'I' for Inactive)
    1  A    between atoms: C_5  and  C_30
    2  A    between atoms: C_10  and  N_16
                            x       y       z     vdW  Elec       q    Type
                         _______ _______ _______ _____ _____    ______ ____

>  <TORSDO>
F 2

$$$$
=
 OpenBabel11112417043D

 31 35  0  0  1  0  0  0  0  0999 V2000
  185.4460  177.9930  146.9300 C   0  0  0  0  0  0  0  0  0  0  0  0
  186.7940  175.9550  144.0100 C   0  0  2  0  0  3  0  0  0  0  0  0
  186.3950  176.7290  142.7670 C   0  0  0  0  0  0  0  0  0  0  0  0
  184.8640  178.2090  141.5930 C   0  0  0  0  0  0  0  0  0  0  0  0
  186.7570  176.7810  145.2790 C   0  0  0  0  0  0  0  0  0  0  0  0
  186.6150  178.3540  147.6020 C   0  0  0  0  0  3  0  0  0  0  0  0
  185.2650  177.5590  142.7640 C   0  0  0  0  0  3  0  0  0  0  0  0
  189.3440  176.1360  144.1400 C   0  0  2  0  0  3  0  0  0  0  0  0
  184.2420  178.4050  147.3950 F   0  0  0  0  0  0  0  0  0  0  0  0
  188.2970  175.6340  141.5410 C   0  0  0  0  0  2  0  0  0  0  0  0
  183.7530  179.0410  141.6070 O   0  0  0  0  0  1  0  0  0  0  0  0
  189.2780  176.5850  145.5950 C   0  0  0  0  0  2  0  0  0  0  0  0
  188.1450  175.2290  143.8160 C   0  0  2  0  0  3  0  0  0  0  0  0
  185.5180  177.2060  145.7800 C   0  0  0  0  0  3  0  0  0  0  0  0
  185.5800  178.0200  140.4090 C   0  0  0  0  0  3  0  0  0  0  0  0
  187.9380  177.1410  145.9700 C   0  0  0  0  0  0  0  0  0  0  0  0
  187.8550  177.9200  147.1290 C   0  0  0  0  0  3  0  0  0  0  0  0
  188.2280  174.6300  142.5330 O   0  0  0  0  0  0  0  0  0  0  0  0
  187.0850  176.5120  141.5590 C   0  0  0  0  0  0  0  0  0  0  0  0
  186.6910  177.1730  140.3920 C   0  0  0  0  0  3  0  0  0  0  0  0
  191.6160  177.1770  142.7650 O   0  0  0  0  0  0  0  0  0  0  0  0
  191.6950  176.0030  143.2180 C   0  0  0  0  0  0  0  0  0  0  0  0
  190.5890  175.4180  143.9080 N   0  0  0  0  0  2  0  0  0  0  0  0
  194.8760  174.9590  145.2240 N   0  0  0  0  0  0  0  0  0  0  0  0
  192.9890  174.0030  143.9920 C   0  0  0  0  0  2  0  0  0  0  0  0
  194.6200  176.6560  142.2120 O   0  0  0  0  0  0  0  0  0  0  0  0
  195.3220  175.2200  146.4740 O   0  0  0  0  0  1  0  0  0  0  0  0
  193.5300  174.4050  145.3650 C   0  0  0  0  0  2  0  0  0  0  0  0
  194.1700  176.0610  143.1760 C   0  0  0  0  0  0  0  0  0  0  0  0
  192.9450  175.2000  143.0330 C   0  0  2  0  0  3  0  0  0  0  0  0
  194.7850  176.2440  144.5330 C   0  0  0  0  0  2  0  0  0  0  0  0
  1  9  1  0  0  0  0
  1  6  1  0  0  0  0
  2  3  1  6  0  0  0
  2  5  1  0  0  0  0
  4 11  1  0  0  0  0
  4  7  2  0  0  0  0
  5 14  1  0  0  0  0
  5 16  2  0  0  0  0
  7  3  1  0  0  0  0
  8 23  1  1  0  0  0
  8 12  1  0  0  0  0
 10 19  1  0  0  0  0
 10 18  1  0  0  0  0
 12 16  1  0  0  0  0
 13 18  1  6  0  0  0
 13  2  1  0  0  0  0
 13  8  1  0  0  0  0
 14  1  2  0  0  0  0
 15  4  1  0  0  0  0
 16 17  1  0  0  0  0
 17  6  2  0  0  0  0
 19  3  2  0  0  0  0
 20 15  2  0  0  0  0
 20 19  1  0  0  0  0
 21 22  2  0  0  0  0
 22 23  1  0  0  0  0
 24 28  1  0  0  0  0
 24 27  1  0  0  0  0
 25 28  1  0  0  0  0
 26 29  2  0  0  0  0
 29 31  1  0  0  0  0
 30 29  1  0  0  0  0
 30 22  1  1  0  0  0
 30 25  1  0  0  0  0
 31 24  1  0  0  0  0
M  END
>  <MODEL>
5

>  <REMARK>
 VINA RESULT:      -8.2      1.230      1.661
  Name = 
  2 active torsions:
  status: ('A' for Active; 'I' for Inactive)
    1  A    between atoms: C_5  and  C_30
    2  A    between atoms: C_10  and  N_16
                            x       y       z     vdW  Elec       q    Type
                         _______ _______ _______ _____ _____    ______ ____

>  <TORSDO>
F 2

$$$$
=
 OpenBabel11112417043D

 31 35  0  0  1  0  0  0  0  0999 V2000
  186.1990  177.9400  140.7280 C   0  0  0  0  0  0  0  0  0  0  0  0
  188.2530  178.0700  143.9320 C   0  0  2  0  0  3  0  0  0  0  0  0
  187.2450  177.9200  145.0570 C   0  0  0  0  0  0  0  0  0  0  0  0
  185.0110  178.2540  145.9590 C   0  0  0  0  0  0  0  0  0  0  0  0
  187.7340  177.6100  142.5850 C   0  0  0  0  0  0  0  0  0  0  0  0
  186.6910  176.7910  140.1080 C   0  0  0  0  0  3  0  0  0  0  0  0
  185.9120  178.3270  144.8930 C   0  0  0  0  0  3  0  0  0  0  0  0
  189.6430  175.9210  143.9680 C   0  0  2  0  0  3  0  0  0  0  0  0
  185.2130  178.6580  140.1380 F   0  0  0  0  0  0  0  0  0  0  0  0
  189.0920  177.0490  146.5230 C   0  0  0  0  0  2  0  0  0  0  0  0
  183.6910  178.6440  145.7790 O   0  0  0  0  0  1  0  0  0  0  0  0
  189.4300  175.7110  142.4730 C   0  0  0  0  0  2  0  0  0  0  0  0
  189.6080  177.4230  144.2960 C   0  0  2  0  0  3  0  0  0  0  0  0
  186.7220  178.3490  141.9550 C   0  0  0  0  0  3  0  0  0  0  0  0
  185.4390  177.7890  147.2050 C   0  0  0  0  0  3  0  0  0  0  0  0
  188.2380  176.4520  141.9470 C   0  0  0  0  0  0  0  0  0  0  0  0
  187.7150  176.0570  140.7110 C   0  0  0  0  0  3  0  0  0  0  0  0
  189.9720  177.7110  145.6370 O   0  0  0  0  0  0  0  0  0  0  0  0
  187.6750  177.4930  146.3270 C   0  0  0  0  0  0  0  0  0  0  0  0
  186.7700  177.4080  147.3890 C   0  0  0  0  0  3  0  0  0  0  0  0
  192.1830  176.7190  142.9440 O   0  0  0  0  0  0  0  0  0  0  0  0
  192.1640  175.8080  143.8150 C   0  0  0  0  0  0  0  0  0  0  0  0
  190.9240  175.3540  144.3610 N   0  0  0  0  0  2  0  0  0  0  0  0
  193.8480  172.2920  143.9960 N   0  0  0  0  0  0  0  0  0  0  0  0
  194.2140  174.5480  143.1200 C   0  0  0  0  0  2  0  0  0  0  0  0
  193.1360  174.5350  146.5410 O   0  0  0  0  0  0  0  0  0  0  0  0
  193.4590  171.0470  143.6340 O   0  0  0  0  0  1  0  0  0  0  0  0
  193.7100  173.1370  142.8120 C   0  0  0  0  0  2  0  0  0  0  0  0
  193.1820  174.1780  145.3760 C   0  0  0  0  0  0  0  0  0  0  0  0
  193.4390  175.1790  144.2840 C   0  0  2  0  0  3  0  0  0  0  0  0
  192.9010  172.7490  145.0130 C   0  0  0  0  0  2  0  0  0  0  0  0
  1 14  1  0  0  0  0
  2  5  1  6  0  0  0
  2 13  1  0  0  0  0
  2  3  1  0  0  0  0
  3 19  1  0  0  0  0
  4 15  2  0  0  0  0
  6 17  1  0  0  0  0
  6  1  2  0  0  0  0
  7  3  2  0  0  0  0
  7  4  1  0  0  0  0
  8 13  1  0  0  0  0
  8 23  1  6  0  0  0
  9  1  1  0  0  0  0
 11  4  1  0  0  0  0
 12  8  1  0  0  0  0
 13 18  1  1  0  0  0
 14  5  2  0  0  0  0
 15 20  1  0  0  0  0
 16 12  1  0  0  0  0
 16  5  1  0  0  0  0
 17 16  2  0  0  0  0
 18 10  1  0  0  0  0
 19 10  1  0  0  0  0
 19 20  2  0  0  0  0
 21 22  2  0  0  0  0
 22 23  1  0  0  0  0
 24 31  1  0  0  0  0
 25 30  1  0  0  0  0
 27 24  1  0  0  0  0
 28 25  1  0  0  0  0
 28 24  1  0  0  0  0
 29 26  2  0  0  0  0
 30 22  1  6  0  0  0
 30 29  1  0  0  0  0
 31 29  1  0  0  0  0
M  END
>  <MODEL>
6

>  <REMARK>
 VINA RESULT:      -8.0      2.086      4.082
  Name = 
  2 active torsions:
  status: ('A' for Active; 'I' for Inactive)
    1  A    between atoms: C_5  and  C_30
    2  A    between atoms: C_10  and  N_16
                            x       y       z     vdW  Elec       q    Type
                         _______ _______ _______ _____ _____    ______ ____

>  <TORSDO>
F 2

$$$$
=
 OpenBabel11112417043D

 31 35  0  0  1  0  0  0  0  0999 V2000
  191.9340  173.2040  141.2110 C   0  0  0  0  0  0  0  0  0  0  0  0
  191.5510  174.0150  144.9120 C   0  0  2  0  0  3  0  0  0  0  0  0
  192.6800  174.9790  145.2270 C   0  0  0  0  0  0  0  0  0  0  0  0
  194.9340  175.8060  144.8320 C   0  0  0  0  0  0  0  0  0  0  0  0
  191.2390  173.9050  143.4340 C   0  0  0  0  0  0  0  0  0  0  0  0
  190.7480  173.7080  140.6750 C   0  0  0  0  0  3  0  0  0  0  0  0
  193.8720  174.9640  144.4860 C   0  0  0  0  0  3  0  0  0  0  0  0
  189.4010  175.3890  145.1160 C   0  0  2  0  0  3  0  0  0  0  0  0
  192.8510  172.6240  140.4010 F   0  0  0  0  0  0  0  0  0  0  0  0
  191.3280  175.8460  147.1610 C   0  0  0  0  0  2  0  0  0  0  0  0
  196.1010  175.7920  144.0810 O   0  0  0  0  0  1  0  0  0  0  0  0
  188.9190  174.9110  143.7510 C   0  0  0  0  0  2  0  0  0  0  0  0
  190.2950  174.3170  145.7610 C   0  0  2  0  0  3  0  0  0  0  0  0
  192.1740  173.2970  142.5830 C   0  0  0  0  0  3  0  0  0  0  0  0
  194.8200  176.6570  145.9330 C   0  0  0  0  0  3  0  0  0  0  0  0
  190.0340  174.4050  142.8860 C   0  0  0  0  0  0  0  0  0  0  0  0
  189.7970  174.2960  141.5120 C   0  0  0  0  0  3  0  0  0  0  0  0
  190.6410  174.6130  147.1050 O   0  0  0  0  0  0  0  0  0  0  0  0
  192.5920  175.8110  146.3590 C   0  0  0  0  0  0  0  0  0  0  0  0
  193.6500  176.6610  146.6960 C   0  0  0  0  0  3  0  0  0  0  0  0
  188.7090  177.9430  146.1810 O   0  0  0  0  0  0  0  0  0  0  0  0
  187.9580  176.9690  146.4620 C   0  0  0  0  0  0  0  0  0  0  0  0
  188.2540  175.6620  145.9690 N   0  0  0  0  0  2  0  0  0  0  0  0
  184.4210  178.6090  146.2870 N   0  0  0  0  0  0  0  0  0  0  0  0
  185.5190  176.4680  146.7330 C   0  0  0  0  0  2  0  0  0  0  0  0
  187.0270  179.2040  148.4950 O   0  0  0  0  0  0  0  0  0  0  0  0
  183.7540  179.2980  145.3320 O   0  0  0  0  0  1  0  0  0  0  0  0
  184.8300  177.3420  145.6840 C   0  0  0  0  0  2  0  0  0  0  0  0
  186.4870  178.6270  147.5670 C   0  0  0  0  0  0  0  0  0  0  0  0
  186.7510  177.1660  147.3250 C   0  0  2  0  0  3  0  0  0  0  0  0
  185.6180  179.3860  146.6070 C   0  0  0  0  0  2  0  0  0  0  0  0
  1 14  1  0  0  0  0
  2  5  1  6  0  0  0
  2  3  1  0  0  0  0
  2 13  1  0  0  0  0
  3 19  1  0  0  0  0
  4 15  2  0  0  0  0
  6  1  2  0  0  0  0
  6 17  1  0  0  0  0
  7  4  1  0  0  0  0
  7  3  2  0  0  0  0
  8 13  1  0  0  0  0
  8 23  1  1  0  0  0
  9  1  1  0  0  0  0
 11  4  1  0  0  0  0
 12  8  1  0  0  0  0
 13 18  1  1  0  0  0
 14  5  2  0  0  0  0
 15 20  1  0  0  0  0
 16  5  1  0  0  0  0
 16 12  1  0  0  0  0
 17 16  2  0  0  0  0
 18 10  1  0  0  0  0
 19 20  2  0  0  0  0
 19 10  1  0  0  0  0
 21 22  2  0  0  0  0
 23 22  1  0  0  0  0
 24 31  1  0  0  0  0
 25 30  1  0  0  0  0
 27 24  1  0  0  0  0
 28 24  1  0  0  0  0
 28 25  1  0  0  0  0
 29 26  2  0  0  0  0
 30 22  1  6  0  0  0
 30 29  1  0  0  0  0
 31 29  1  0  0  0  0
M  END
>  <MODEL>
7

>  <REMARK>
 VINA RESULT:      -7.8      3.613      7.975
  Name = 
  2 active torsions:
  status: ('A' for Active; 'I' for Inactive)
    1  A    between atoms: C_5  and  C_30
    2  A    between atoms: C_10  and  N_16
                            x       y       z     vdW  Elec       q    Type
                         _______ _______ _______ _____ _____    ______ ____

>  <TORSDO>
F 2

$$$$
=
 OpenBabel11112417043D

 31 35  0  0  1  0  0  0  0  0999 V2000
  187.0890  177.8560  147.3080 C   0  0  0  0  0  0  0  0  0  0  0  0
  188.0090  175.6480  144.3450 C   0  0  2  0  0  3  0  0  0  0  0  0
  187.4490  176.3610  143.1280 C   0  0  0  0  0  0  0  0  0  0  0  0
  185.7810  177.8000  142.0960 C   0  0  0  0  0  0  0  0  0  0  0  0
  188.1520  176.5400  145.5610 C   0  0  0  0  0  0  0  0  0  0  0  0
  188.3410  178.2350  147.7930 C   0  0  0  0  0  3  0  0  0  0  0  0
  186.3340  177.2060  143.2350 C   0  0  0  0  0  3  0  0  0  0  0  0
  190.5540  175.7980  144.1150 C   0  0  2  0  0  3  0  0  0  0  0  0
  185.9630  178.3090  147.9100 F   0  0  0  0  0  0  0  0  0  0  0  0
  189.1560  175.1760  141.7140 C   0  0  0  0  0  2  0  0  0  0  0  0
  184.6890  178.6470  142.2170 O   0  0  0  0  0  1  0  0  0  0  0  0
  190.6910  176.3240  145.5390 C   0  0  0  0  0  2  0  0  0  0  0  0
  189.3150  174.8930  144.0080 C   0  0  2  0  0  3  0  0  0  0  0  0
  186.9960  177.0090  146.2030 C   0  0  0  0  0  3  0  0  0  0  0  0
  186.3270  177.5380  140.8370 C   0  0  0  0  0  3  0  0  0  0  0  0
  189.4190  176.9190  146.0640 C   0  0  0  0  0  0  0  0  0  0  0  0
  189.5010  177.7580  147.1800 C   0  0  0  0  0  3  0  0  0  0  0  0
  189.2170  174.2260  142.7600 O   0  0  0  0  0  0  0  0  0  0  0  0
  187.9640  176.0710  141.8510 C   0  0  0  0  0  0  0  0  0  0  0  0
  187.4180  176.6760  140.7140 C   0  0  0  0  0  3  0  0  0  0  0  0
  192.6960  176.7900  142.5140 O   0  0  0  0  0  0  0  0  0  0  0  0
  192.7920  175.6120  142.9550 C   0  0  0  0  0  0  0  0  0  0  0  0
  191.7500  175.0510  143.7540 N   0  0  0  0  0  2  0  0  0  0  0  0
  196.6800  175.9340  142.8580 N   0  0  0  0  0  0  0  0  0  0  0  0
  194.8930  174.6030  143.8720 C   0  0  0  0  0  2  0  0  0  0  0  0
  194.4730  175.0460  140.3370 O   0  0  0  0  0  0  0  0  0  0  0  0
  197.5430  176.9450  143.1100 O   0  0  0  0  0  1  0  0  0  0  0  0
  195.8430  175.7900  144.0470 C   0  0  0  0  0  2  0  0  0  0  0  0
  194.7650  175.3520  141.4810 C   0  0  0  0  0  0  0  0  0  0  0  0
  193.9960  174.7790  142.6400 C   0  0  2  0  0  3  0  0  0  0  0  0
  195.8410  176.3650  141.7410 C   0  0  0  0  0  2  0  0  0  0  0  0
  1  6  1  0  0  0  0
  1  9  1  0  0  0  0
  2  3  1  6  0  0  0
  2  5  1  0  0  0  0
  3  7  1  0  0  0  0
  4 11  1  0  0  0  0
  4  7  2  0  0  0  0
  5 16  2  0  0  0  0
  5 14  1  0  0  0  0
  8 23  1  1  0  0  0
  8 12  1  0  0  0  0
 10 19  1  0  0  0  0
 10 18  1  0  0  0  0
 12 16  1  0  0  0  0
 13 18  1  6  0  0  0
 13  8  1  0  0  0  0
 13  2  1  0  0  0  0
 14  1  2  0  0  0  0
 15  4  1  0  0  0  0
 16 17  1  0  0  0  0
 17  6  2  0  0  0  0
 19  3  2  0  0  0  0
 20 15  2  0  0  0  0
 20 19  1  0  0  0  0
 21 22  2  0  0  0  0
 22 23  1  0  0  0  0
 24 27  1  0  0  0  0
 24 28  1  0  0  0  0
 25 28  1  0  0  0  0
 26 29  2  0  0  0  0
 29 31  1  0  0  0  0
 29 30  1  0  0  0  0
 30 22  1  1  0  0  0
 30 25  1  0  0  0  0
 31 24  1  0  0  0  0
M  END
>  <MODEL>
8

>  <REMARK>
 VINA RESULT:      -7.7      2.109      2.836
  Name = 
  2 active torsions:
  status: ('A' for Active; 'I' for Inactive)
    1  A    between atoms: C_5  and  C_30
    2  A    between atoms: C_10  and  N_16
                            x       y       z     vdW  Elec       q    Type
                         _______ _______ _______ _____ _____    ______ ____

>  <TORSDO>
F 2

$$$$
=
 OpenBabel11112417043D

 31 35  0  0  1  0  0  0  0  0999 V2000
  186.5890  178.1800  145.4440 C   0  0  0  0  0  0  0  0  0  0  0  0
  189.7170  176.8410  143.7340 C   0  0  2  0  0  3  0  0  0  0  0  0
  190.5660  176.2650  144.8520 C   0  0  0  0  0  0  0  0  0  0  0  0
  191.3070  176.2720  147.1690 C   0  0  0  0  0  0  0  0  0  0  0  0
  188.2600  177.0240  144.1090 C   0  0  0  0  0  0  0  0  0  0  0  0
  185.5860  177.3880  144.8860 C   0  0  0  0  0  3  0  0  0  0  0  0
  190.4680  176.7580  146.1620 C   0  0  0  0  0  3  0  0  0  0  0  0
  188.9570  174.8280  142.3470 C   0  0  2  0  0  3  0  0  0  0  0  0
  186.2750  179.1220  146.3660 F   0  0  0  0  0  0  0  0  0  0  0  0
  191.6830  174.7750  143.1640 C   0  0  0  0  0  2  0  0  0  0  0  0
  191.1880  176.7560  148.4640 O   0  0  0  0  0  1  0  0  0  0  0  0
  187.5050  175.2870  142.4030 C   0  0  0  0  0  2  0  0  0  0  0  0
  189.8940  176.0450  142.4210 C   0  0  2  0  0  3  0  0  0  0  0  0
  187.9170  178.0020  145.0530 C   0  0  0  0  0  3  0  0  0  0  0  0
  192.2660  175.3020  146.8710 C   0  0  0  0  0  3  0  0  0  0  0  0
  187.2370  176.2300  143.5370 C   0  0  0  0  0  0  0  0  0  0  0  0
  185.9080  176.4250  143.9270 C   0  0  0  0  0  3  0  0  0  0  0  0
  191.2560  175.7150  142.1990 O   0  0  0  0  0  0  0  0  0  0  0  0
  191.5640  175.3180  144.5540 C   0  0  0  0  0  0  0  0  0  0  0  0
  192.3940  174.8230  145.5650 C   0  0  0  0  0  3  0  0  0  0  0  0
  189.3840  172.0150  142.1550 O   0  0  0  0  0  0  0  0  0  0  0  0
  189.3860  172.6800  141.0840 C   0  0  0  0  0  0  0  0  0  0  0  0
  189.1880  174.0950  141.1110 N   0  0  0  0  0  2  0  0  0  0  0  0
  191.6490  172.9980  137.9210 N   0  0  0  0  0  0  0  0  0  0  0  0
  191.0170  171.4090  139.6710 C   0  0  0  0  0  2  0  0  0  0  0  0
  188.1920  173.0410  138.1790 O   0  0  0  0  0  0  0  0  0  0  0  0
  192.6260  173.8580  137.5510 O   0  0  0  0  0  1  0  0  0  0  0  0
  192.0350  172.4580  139.2230 C   0  0  0  0  0  2  0  0  0  0  0  0
  189.3230  172.9340  138.6220 C   0  0  0  0  0  0  0  0  0  0  0  0
  189.6050  172.0010  139.7680 C   0  0  2  0  0  3  0  0  0  0  0  0
  190.4310  173.7910  138.0820 C   0  0  0  0  0  2  0  0  0  0  0  0
  1  9  1  0  0  0  0
  2  5  1  1  0  0  0
  2  3  1  0  0  0  0
  3  7  1  0  0  0  0
  4 11  1  0  0  0  0
  5 14  2  0  0  0  0
  6  1  2  0  0  0  0
  7  4  2  0  0  0  0
  8 23  1  6  0  0  0
  8 12  1  0  0  0  0
  8 13  1  0  0  0  0
 10 19  1  0  0  0  0
 12 16  1  0  0  0  0
 13 18  1  1  0  0  0
 13  2  1  0  0  0  0
 14  1  1  0  0  0  0
 15  4  1  0  0  0  0
 16 17  2  0  0  0  0
 16  5  1  0  0  0  0
 17  6  1  0  0  0  0
 18 10  1  0  0  0  0
 19  3  2  0  0  0  0
 19 20  1  0  0  0  0
 20 15  2  0  0  0  0
 22 23  1  0  0  0  0
 22 21  2  0  0  0  0
 24 31  1  0  0  0  0
 24 28  1  0  0  0  0
 25 30  1  0  0  0  0
 26 29  2  0  0  0  0
 27 24  1  0  0  0  0
 28 25  1  0  0  0  0
 29 30  1  0  0  0  0
 30 22  1  1  0  0  0
 31 29  1  0  0  0  0
M  END
>  <MODEL>
9

>  <REMARK>
 VINA RESULT:      -7.6      3.472      6.094
  Name = 
  2 active torsions:
  status: ('A' for Active; 'I' for Inactive)
    1  A    between atoms: C_5  and  C_30
    2  A    between atoms: C_10  and  N_16
                            x       y       z     vdW  Elec       q    Type
                         _______ _______ _______ _____ _____    ______ ____

>  <TORSDO>
F 2

$$$$
