=
 OpenBabel11112418033D

 34 40  0  0  1  0  0  0  0  0999 V2000
  189.7080  174.8080  142.6430 C   0  0  0  0  0  0  0  0  0  0  0  0
  192.0880  174.0330  142.2520 C   0  0  0  0  0  2  0  0  0  0  0  0
  184.9730  177.9490  145.9810 C   0  0  1  0  0  3  0  0  0  0  0  0
  187.6400  175.9760  143.0370 C   0  0  0  0  0  0  0  0  0  0  0  0
  187.1300  176.6730  145.4230 C   0  0  2  0  0  3  0  0  0  0  0  0
  186.5880  177.3120  147.6570 O   0  0  0  0  0  1  0  0  0  0  0  0
  184.2850  178.4400  147.0920 O   0  0  0  0  0  1  0  0  0  0  0  0
  185.2670  178.3760  143.5090 C   0  0  0  0  0  2  0  0  0  0  0  0
  191.3170  174.3370  144.5320 C   0  0  2  0  0  3  0  0  0  0  0  0
  193.5150  175.5660  146.5650 C   0  0  0  0  0  2  0  0  0  0  0  0
  188.5830  176.7870  145.5570 N   0  0  0  0  0  2  0  0  0  0  0  0
  186.6340  178.0830  143.5090 O   0  0  0  0  0  0  0  0  0  0  0  0
  190.7010  175.5690  145.2270 C   0  0  1  0  0  3  0  0  0  0  0  0
  193.2680  173.7720  143.1720 C   0  0  0  0  0  2  0  0  0  0  0  0
  186.7120  176.7520  143.9340 C   0  0  1  0  0  3  0  0  0  0  0  0
  184.8500  178.9690  144.8510 C   0  0  0  0  0  2  0  0  0  0  0  0
  193.5980  175.4530  145.0470 C   0  0  2  0  0  3  0  0  0  0  0  0
  188.8500  175.4690  143.5280 C   0  0  0  0  0  0  0  0  0  0  0  0
  186.4520  177.7150  146.3270 C   0  0  2  0  0  3  0  0  0  0  0  0
  189.1830  175.5760  144.9970 C   0  0  2  0  0  3  0  0  0  0  0  0
  188.1830  175.1780  140.8750 C   0  0  0  0  0  3  0  0  0  0  0  0
  192.2730  176.3270  147.0050 C   0  0  0  0  0  2  0  0  0  0  0  0
  187.3340  175.8210  141.7210 N   0  0  0  0  0  0  0  0  0  0  0  0
  191.0020  175.5430  146.7180 C   0  0  0  0  0  2  0  0  0  0  0  0
  192.8470  174.1920  144.5850 C   0  0  1  0  0  3  0  0  0  0  0  0
  189.3620  174.6830  141.3350 N   0  0  0  0  0  0  0  0  0  0  0  0
  190.9680  174.3240  143.1210 N   0  0  0  0  0  0  0  0  0  0  0  0
  194.9470  175.3820  144.6850 O   0  0  0  0  0  0  0  0  0  0  0  0
  195.5990  174.9180  145.8300 C   0  0  0  0  0  2  0  0  0  0  0  0
  197.3030  171.7990  145.0930 C   0  0  0  0  0  2  0  0  0  0  0  0
  196.8380  173.8840  144.0020 N   0  0  0  0  0  2  0  0  0  0  0  0
  196.8340  174.1290  145.4360 C   0  0  2  0  0  3  0  0  0  0  0  0
  197.5190  172.6100  143.8340 C   0  0  0  0  0  2  0  0  0  0  0  0
  196.8280  172.7870  146.1310 C   0  0  0  0  0  2  0  0  0  0  0  0
  1 27  1  0  0  0  0
  1 18  1  0  0  0  0
  2 27  1  0  0  0  0
  2 14  1  0  0  0  0
  3 19  1  0  0  0  0
  3  7  1  1  0  0  0
  4 18  2  0  0  0  0
  5 11  1  6  0  0  0
  5 19  1  0  0  0  0
  8 12  1  0  0  0  0
  8 16  1  0  0  0  0
  9 27  1  6  0  0  0
  9 25  1  0  0  0  0
  9 13  1  0  0  0  0
 10 22  1  0  0  0  0
 12 15  1  0  0  0  0
 13 24  1  1  0  0  0
 15  4  1  6  0  0  0
 15  5  1  0  0  0  0
 16  3  1  0  0  0  0
 17 28  1  1  0  0  0
 17 10  1  0  0  0  0
 19  6  1  1  0  0  0
 20 18  1  6  0  0  0
 20 13  1  0  0  0  0
 20 11  1  0  0  0  0
 21 26  1  0  0  0  0
 21 23  2  0  0  0  0
 23  4  1  0  0  0  0
 24 22  1  0  0  0  0
 25 14  1  6  0  0  0
 25 17  1  0  0  0  0
 26  1  2  0  0  0  0
 28 29  1  0  0  0  0
 30 34  1  0  0  0  0
 31 32  1  0  0  0  0
 32 29  1  6  0  0  0
 32 34  1  0  0  0  0
 33 31  1  0  0  0  0
 33 30  1  0  0  0  0
M  END
>  <MODEL>
1

>  <REMARK>
 VINA RESULT:      -8.7      0.000      0.000
  Name = 
  3 active torsions:
  status: ('A' for Active; 'I' for Inactive)
    1  A    between atoms: C_17  and  O_28
    2  A    between atoms: O_28  and  C_29
    3  A    between atoms: C_29  and  C_32
                            x       y       z     vdW  Elec       q    Type
                         _______ _______ _______ _____ _____    ______ ____

>  <TORSDO>
F 3

$$$$
=
 OpenBabel11112418033D

 34 40  0  0  1  0  0  0  0  0999 V2000
  189.7530  174.8050  142.6350 C   0  0  0  0  0  0  0  0  0  0  0  0
  192.1140  173.9830  142.2290 C   0  0  0  0  0  2  0  0  0  0  0  0
  185.1120  178.0760  145.9810 C   0  0  1  0  0  3  0  0  0  0  0  0
  187.7100  176.0150  143.0350 C   0  0  0  0  0  0  0  0  0  0  0  0
  187.2390  176.7540  145.4170 C   0  0  2  0  0  3  0  0  0  0  0  0
  186.7340  177.4330  147.6480 O   0  0  0  0  0  1  0  0  0  0  0  0
  184.4450  178.5930  147.0930 O   0  0  0  0  0  1  0  0  0  0  0  0
  185.3850  178.4630  143.5010 C   0  0  0  0  0  2  0  0  0  0  0  0
  191.3740  174.3330  144.5130 C   0  0  2  0  0  3  0  0  0  0  0  0
  193.6170  175.5510  146.5040 C   0  0  0  0  0  2  0  0  0  0  0  0
  188.6950  176.8440  145.5340 N   0  0  0  0  0  2  0  0  0  0  0  0
  186.7470  178.1460  143.4890 O   0  0  0  0  0  0  0  0  0  0  0  0
  190.7890  175.5840  145.1970 C   0  0  1  0  0  3  0  0  0  0  0  0
  193.3000  173.7140  143.1390 C   0  0  0  0  0  2  0  0  0  0  0  0
  186.8070  176.8200  143.9320 C   0  0  1  0  0  3  0  0  0  0  0  0
  184.9930  179.0810  144.8390 C   0  0  0  0  0  2  0  0  0  0  0  0
  193.6810  175.4150  144.9870 C   0  0  2  0  0  3  0  0  0  0  0  0
  188.9160  175.4940  143.5200 C   0  0  0  0  0  0  0  0  0  0  0  0
  186.5900  177.8210  146.3140 C   0  0  2  0  0  3  0  0  0  0  0  0
  189.2680  175.6160  144.9840 C   0  0  2  0  0  3  0  0  0  0  0  0
  188.2140  175.1790  140.8790 C   0  0  0  0  0  3  0  0  0  0  0  0
  192.3930  176.3390  146.9460 C   0  0  0  0  0  2  0  0  0  0  0  0
  187.3870  175.8480  141.7260 N   0  0  0  0  0  0  0  0  0  0  0  0
  191.1050  175.5740  146.6840 C   0  0  0  0  0  2  0  0  0  0  0  0
  192.9030  174.1610  144.5500 C   0  0  1  0  0  3  0  0  0  0  0  0
  189.3900  174.6680  141.3330 N   0  0  0  0  0  0  0  0  0  0  0  0
  191.0100  174.3060  143.1060 N   0  0  0  0  0  0  0  0  0  0  0  0
  195.0240  175.3150  144.6110 O   0  0  0  0  0  0  0  0  0  0  0  0
  195.3970  176.6170  144.2700 C   0  0  0  0  0  2  0  0  0  0  0  0
  197.5700  174.8480  141.9640 C   0  0  0  0  0  2  0  0  0  0  0  0
  195.9970  176.6570  141.9070 N   0  0  0  0  0  2  0  0  0  0  0  0
  196.5280  176.5800  143.2590 C   0  0  2  0  0  3  0  0  0  0  0  0
  196.9300  175.9010  141.0870 C   0  0  0  0  0  2  0  0  0  0  0  0
  197.2830  175.2770  143.3820 C   0  0  0  0  0  2  0  0  0  0  0  0
  1 27  1  0  0  0  0
  1 18  1  0  0  0  0
  2 27  1  0  0  0  0
  2 14  1  0  0  0  0
  3 19  1  0  0  0  0
  3  7  1  1  0  0  0
  4 18  2  0  0  0  0
  5 11  1  6  0  0  0
  5 19  1  0  0  0  0
  8 16  1  0  0  0  0
  9 27  1  6  0  0  0
  9 25  1  0  0  0  0
  9 13  1  0  0  0  0
 10 22  1  0  0  0  0
 12  8  1  0  0  0  0
 12 15  1  0  0  0  0
 13 24  1  1  0  0  0
 15  4  1  6  0  0  0
 15  5  1  0  0  0  0
 16  3  1  0  0  0  0
 17 28  1  1  0  0  0
 17 10  1  0  0  0  0
 19  6  1  1  0  0  0
 20 18  1  6  0  0  0
 20 13  1  0  0  0  0
 20 11  1  0  0  0  0
 21 26  1  0  0  0  0
 21 23  2  0  0  0  0
 23  4  1  0  0  0  0
 24 22  1  0  0  0  0
 25 14  1  6  0  0  0
 25 17  1  0  0  0  0
 26  1  2  0  0  0  0
 29 28  1  0  0  0  0
 30 34  1  0  0  0  0
 31 32  1  0  0  0  0
 32 34  1  0  0  0  0
 32 29  1  1  0  0  0
 33 31  1  0  0  0  0
 33 30  1  0  0  0  0
M  END
>  <MODEL>
2

>  <REMARK>
 VINA RESULT:      -8.6      1.346      1.546
  Name = 
  3 active torsions:
  status: ('A' for Active; 'I' for Inactive)
    1  A    between atoms: C_17  and  O_28
    2  A    between atoms: O_28  and  C_29
    3  A    between atoms: C_29  and  C_32
                            x       y       z     vdW  Elec       q    Type
                         _______ _______ _______ _____ _____    ______ ____

>  <TORSDO>
F 3

$$$$
=
 OpenBabel11112418033D

 34 40  0  0  1  0  0  0  0  0999 V2000
  190.0790  174.0130  142.4290 C   0  0  0  0  0  0  0  0  0  0  0  0
  192.3200  173.2270  143.3120 C   0  0  0  0  0  2  0  0  0  0  0  0
  184.6850  177.7970  142.4890 C   0  0  1  0  0  3  0  0  0  0  0  0
  188.1540  175.1870  141.5840 C   0  0  0  0  0  0  0  0  0  0  0  0
  186.7490  176.4790  143.2570 C   0  0  2  0  0  3  0  0  0  0  0  0
  185.3740  177.6720  144.7980 O   0  0  0  0  0  1  0  0  0  0  0  0
  183.6390  178.5460  143.0320 O   0  0  0  0  0  1  0  0  0  0  0  0
  186.0320  177.5600  140.3670 C   0  0  0  0  0  2  0  0  0  0  0  0
  190.6890  174.1050  144.8780 C   0  0  2  0  0  3  0  0  0  0  0  0
  191.9240  175.8900  147.2790 C   0  0  0  0  0  2  0  0  0  0  0  0
  188.0130  176.6640  143.9710 N   0  0  0  0  0  2  0  0  0  0  0  0
  187.2390  177.3150  141.0300 O   0  0  0  0  0  0  0  0  0  0  0  0
  189.9520  175.4600  144.9050 C   0  0  1  0  0  3  0  0  0  0  0  0
  192.9720  173.2530  144.6830 C   0  0  0  0  0  2  0  0  0  0  0  0
  187.0090  176.1480  141.7670 C   0  0  1  0  0  3  0  0  0  0  0  0
  185.1430  178.4760  141.2010 C   0  0  0  0  0  2  0  0  0  0  0  0
  192.6300  175.3800  146.0280 C   0  0  2  0  0  3  0  0  0  0  0  0
  188.9920  174.8620  142.6590 C   0  0  0  0  0  0  0  0  0  0  0  0
  185.8510  177.7040  143.4860 C   0  0  2  0  0  3  0  0  0  0  0  0
  188.6810  175.3650  144.0490 C   0  0  2  0  0  3  0  0  0  0  0  0
  189.4850  173.8590  140.1460 C   0  0  0  0  0  3  0  0  0  0  0  0
  190.6870  176.7060  146.9330 C   0  0  0  0  0  2  0  0  0  0  0  0
  188.4210  174.6790  140.3520 N   0  0  0  0  0  0  0  0  0  0  0  0
  189.5910  175.8390  146.3330 C   0  0  0  0  0  2  0  0  0  0  0  0
  192.0340  174.0210  145.6200 C   0  0  1  0  0  3  0  0  0  0  0  0
  190.3090  173.5350  141.1770 N   0  0  0  0  0  0  0  0  0  0  0  0
  190.9700  173.7080  143.5080 N   0  0  0  0  0  0  0  0  0  0  0  0
  193.9920  175.2520  146.3140 O   0  0  0  0  0  0  0  0  0  0  0  0
  194.5620  176.4530  145.8830 C   0  0  0  0  0  2  0  0  0  0  0  0
  196.2970  174.2050  143.6230 C   0  0  0  0  0  2  0  0  0  0  0  0
  194.8750  176.1310  143.4860 N   0  0  0  0  0  2  0  0  0  0  0  0
  195.5570  176.1800  144.7700 C   0  0  2  0  0  3  0  0  0  0  0  0
  195.6400  175.1910  142.6820 C   0  0  0  0  0  2  0  0  0  0  0  0
  196.2170  174.8380  144.9900 C   0  0  0  0  0  2  0  0  0  0  0  0
  1 18  1  0  0  0  0
  1 27  1  0  0  0  0
  2 27  1  0  0  0  0
  2 14  1  0  0  0  0
  3  7  1  1  0  0  0
  3 19  1  0  0  0  0
  4 15  1  0  0  0  0
  4 18  2  0  0  0  0
  5 19  1  0  0  0  0
  5 11  1  1  0  0  0
  8 12  1  0  0  0  0
  8 16  1  0  0  0  0
  9 27  1  6  0  0  0
  9 13  1  0  0  0  0
  9 25  1  0  0  0  0
 11 20  1  0  0  0  0
 13 24  1  1  0  0  0
 15 12  1  6  0  0  0
 15  5  1  0  0  0  0
 16  3  1  0  0  0  0
 17 28  1  1  0  0  0
 17 10  1  0  0  0  0
 19  6  1  1  0  0  0
 20 18  1  6  0  0  0
 20 13  1  0  0  0  0
 21 23  2  0  0  0  0
 21 26  1  0  0  0  0
 22 10  1  0  0  0  0
 23  4  1  0  0  0  0
 24 22  1  0  0  0  0
 25 14  1  6  0  0  0
 25 17  1  0  0  0  0
 26  1  2  0  0  0  0
 29 28  1  0  0  0  0
 30 34  1  0  0  0  0
 31 32  1  0  0  0  0
 32 34  1  0  0  0  0
 32 29  1  1  0  0  0
 33 31  1  0  0  0  0
 33 30  1  0  0  0  0
M  END
>  <MODEL>
3

>  <REMARK>
 VINA RESULT:      -8.4      1.738      2.273
  Name = 
  3 active torsions:
  status: ('A' for Active; 'I' for Inactive)
    1  A    between atoms: C_17  and  O_28
    2  A    between atoms: O_28  and  C_29
    3  A    between atoms: C_29  and  C_32
                            x       y       z     vdW  Elec       q    Type
                         _______ _______ _______ _____ _____    ______ ____

>  <TORSDO>
F 3

$$$$
=
 OpenBabel11112418033D

 34 40  0  0  1  0  0  0  0  0999 V2000
  188.2870  176.6450  142.0550 C   0  0  0  0  0  0  0  0  0  0  0  0
  186.3300  176.9840  140.4830 C   0  0  0  0  0  2  0  0  0  0  0  0
  191.2630  176.8170  147.9320 C   0  0  1  0  0  3  0  0  0  0  0  0
  189.8410  176.0620  143.8000 C   0  0  0  0  0  0  0  0  0  0  0  0
  189.6860  177.3530  145.9790 C   0  0  2  0  0  3  0  0  0  0  0  0
  189.6060  178.5680  148.0300 O   0  0  0  0  0  1  0  0  0  0  0  0
  191.5710  177.2870  149.2110 O   0  0  0  0  0  1  0  0  0  0  0  0
  191.3270  174.7050  146.5500 C   0  0  0  0  0  2  0  0  0  0  0  0
  186.5500  178.4430  142.4080 C   0  0  2  0  0  3  0  0  0  0  0  0
  183.7590  179.2480  143.8380 C   0  0  0  0  0  2  0  0  0  0  0  0
  188.2600  177.4480  145.6650 N   0  0  0  0  0  2  0  0  0  0  0  0
  190.1190  174.9650  145.8950 O   0  0  0  0  0  0  0  0  0  0  0  0
  186.6600  178.1130  143.9100 C   0  0  1  0  0  3  0  0  0  0  0  0
  185.1180  177.8990  140.5020 C   0  0  0  0  0  2  0  0  0  0  0  0
  190.3340  176.1710  145.2180 C   0  0  1  0  0  3  0  0  0  0  0  0
  191.3080  175.2920  147.9570 C   0  0  0  0  0  2  0  0  0  0  0  0
  183.9940  178.1960  142.7600 C   0  0  2  0  0  3  0  0  0  0  0  0
  188.7490  176.8230  143.3630 C   0  0  0  0  0  0  0  0  0  0  0  0
  189.8690  177.3020  147.5040 C   0  0  2  0  0  3  0  0  0  0  0  0
  188.1320  177.8640  144.2680 C   0  0  2  0  0  3  0  0  0  0  0  0
  189.9510  175.0070  141.6830 C   0  0  0  0  0  3  0  0  0  0  0  0
  184.6390  179.0100  145.0570 C   0  0  0  0  0  2  0  0  0  0  0  0
  190.4160  175.1700  142.9510 N   0  0  0  0  0  0  0  0  0  0  0  0
  186.1070  179.2560  144.7470 C   0  0  0  0  0  2  0  0  0  0  0  0
  185.1360  178.6530  141.8360 C   0  0  1  0  0  3  0  0  0  0  0  0
  188.8900  175.7360  141.2450 N   0  0  0  0  0  0  0  0  0  0  0  0
  187.1430  177.3840  141.6100 N   0  0  0  0  0  0  0  0  0  0  0  0
  182.8090  178.0380  142.0350 O   0  0  0  0  0  0  0  0  0  0  0  0
  181.9200  178.9560  142.6000 C   0  0  0  0  0  2  0  0  0  0  0  0
  179.4920  177.9190  140.1100 C   0  0  0  0  0  2  0  0  0  0  0  0
  179.5070  178.9970  142.2510 N   0  0  0  0  0  2  0  0  0  0  0  0
  180.7950  179.2500  141.6250 C   0  0  2  0  0  3  0  0  0  0  0  0
  178.6330  178.5710  141.1700 C   0  0  0  0  0  2  0  0  0  0  0  0
  180.9070  178.3400  140.4230 C   0  0  0  0  0  2  0  0  0  0  0  0
  1 18  1  0  0  0  0
  2 14  1  0  0  0  0
  2 27  1  0  0  0  0
  3 16  1  0  0  0  0
  3  7  1  1  0  0  0
  5 11  1  1  0  0  0
  5 19  1  0  0  0  0
  8 16  1  0  0  0  0
  9 27  1  6  0  0  0
  9 13  1  0  0  0  0
 10 22  1  0  0  0  0
 12  8  1  0  0  0  0
 13 20  1  0  0  0  0
 13 24  1  1  0  0  0
 15  4  1  6  0  0  0
 15 12  1  0  0  0  0
 15  5  1  0  0  0  0
 17 28  1  6  0  0  0
 17 10  1  0  0  0  0
 18  4  2  0  0  0  0
 19  3  1  0  0  0  0
 19  6  1  6  0  0  0
 20 18  1  6  0  0  0
 20 11  1  0  0  0  0
 21 23  2  0  0  0  0
 23  4  1  0  0  0  0
 24 22  1  0  0  0  0
 25 14  1  6  0  0  0
 25  9  1  0  0  0  0
 25 17  1  0  0  0  0
 26 21  1  0  0  0  0
 26  1  2  0  0  0  0
 27  1  1  0  0  0  0
 28 29  1  0  0  0  0
 30 34  1  0  0  0  0
 30 33  1  0  0  0  0
 32 31  1  0  0  0  0
 32 29  1  1  0  0  0
 33 31  1  0  0  0  0
 34 32  1  0  0  0  0
M  END
>  <MODEL>
4

>  <REMARK>
 VINA RESULT:      -8.3      3.360      9.529
  Name = 
  3 active torsions:
  status: ('A' for Active; 'I' for Inactive)
    1  A    between atoms: C_17  and  O_28
    2  A    between atoms: O_28  and  C_29
    3  A    between atoms: C_29  and  C_32
                            x       y       z     vdW  Elec       q    Type
                         _______ _______ _______ _____ _____    ______ ____

>  <TORSDO>
F 3

$$$$
=
 OpenBabel11112418033D

 34 40  0  0  1  0  0  0  0  0999 V2000
  189.2820  174.6610  142.2490 C   0  0  0  0  0  0  0  0  0  0  0  0
  191.4500  173.4480  141.7550 C   0  0  0  0  0  2  0  0  0  0  0  0
  185.3050  178.4340  145.9070 C   0  0  1  0  0  3  0  0  0  0  0  0
  187.4990  176.1940  142.7700 C   0  0  0  0  0  0  0  0  0  0  0  0
  187.1510  176.7910  145.2120 C   0  0  2  0  0  3  0  0  0  0  0  0
  186.7590  177.3490  147.4980 O   0  0  0  0  0  1  0  0  0  0  0  0
  184.7360  178.9660  147.0660 O   0  0  0  0  0  1  0  0  0  0  0  0
  185.6730  178.9850  143.4700 C   0  0  0  0  0  2  0  0  0  0  0  0
  190.7640  173.7240  144.0650 C   0  0  2  0  0  3  0  0  0  0  0  0
  193.1750  174.3120  146.1440 C   0  0  0  0  0  2  0  0  0  0  0  0
  188.5960  176.5940  145.3270 N   0  0  0  0  0  2  0  0  0  0  0  0
  186.9510  178.4190  143.4210 O   0  0  0  0  0  0  0  0  0  0  0  0
  190.4180  174.9970  144.8640 C   0  0  1  0  0  3  0  0  0  0  0  0
  192.5530  172.8790  142.6290 C   0  0  0  0  0  2  0  0  0  0  0  0
  186.7540  177.0710  143.7420 C   0  0  1  0  0  3  0  0  0  0  0  0
  185.3900  179.5430  144.8610 C   0  0  0  0  0  2  0  0  0  0  0  0
  193.2290  174.3040  144.6200 C   0  0  2  0  0  3  0  0  0  0  0  0
  188.5810  175.4130  143.1980 C   0  0  0  0  0  0  0  0  0  0  0  0
  186.7050  177.8760  146.2060 C   0  0  2  0  0  3  0  0  0  0  0  0
  188.9330  175.3340  144.6640 C   0  0  2  0  0  3  0  0  0  0  0  0
  187.8600  175.4750  140.5440 C   0  0  0  0  0  3  0  0  0  0  0  0
  192.1180  175.2750  146.6640 C   0  0  0  0  0  2  0  0  0  0  0  0
  187.1650  176.2090  141.4530 N   0  0  0  0  0  0  0  0  0  0  0  0
  190.7110  174.7930  146.3420 C   0  0  0  0  0  2  0  0  0  0  0  0
  192.2330  173.2640  144.0770 C   0  0  1  0  0  3  0  0  0  0  0  0
  188.9140  174.7130  140.9420 N   0  0  0  0  0  0  0  0  0  0  0  0
  190.4170  173.8930  142.6640 N   0  0  0  0  0  0  0  0  0  0  0  0
  194.5320  173.9870  144.2290 O   0  0  0  0  0  0  0  0  0  0  0  0
  195.3480  174.5460  145.2150 C   0  0  0  0  0  2  0  0  0  0  0  0
  197.4270  175.3710  142.3580 C   0  0  0  0  0  2  0  0  0  0  0  0
  196.0020  176.5040  143.9170 N   0  0  0  0  0  2  0  0  0  0  0  0
  196.4950  175.3010  144.5690 C   0  0  2  0  0  3  0  0  0  0  0  0
  196.8910  176.7180  142.7870 C   0  0  0  0  0  2  0  0  0  0  0  0
  197.1430  174.4390  143.5100 C   0  0  0  0  0  2  0  0  0  0  0  0
  1 27  1  0  0  0  0
  1 18  1  0  0  0  0
  2 14  1  0  0  0  0
  2 27  1  0  0  0  0
  3 19  1  0  0  0  0
  3  7  1  1  0  0  0
  4 18  2  0  0  0  0
  5 11  1  6  0  0  0
  5 19  1  0  0  0  0
  8 16  1  0  0  0  0
  9 27  1  6  0  0  0
  9 25  1  0  0  0  0
  9 13  1  0  0  0  0
 10 22  1  0  0  0  0
 12  8  1  0  0  0  0
 12 15  1  0  0  0  0
 13 24  1  1  0  0  0
 15  4  1  6  0  0  0
 15  5  1  0  0  0  0
 16  3  1  0  0  0  0
 17 28  1  1  0  0  0
 17 10  1  0  0  0  0
 19  6  1  1  0  0  0
 20 18  1  6  0  0  0
 20 13  1  0  0  0  0
 20 11  1  0  0  0  0
 21 26  1  0  0  0  0
 21 23  2  0  0  0  0
 23  4  1  0  0  0  0
 24 22  1  0  0  0  0
 25 14  1  6  0  0  0
 25 17  1  0  0  0  0
 26  1  2  0  0  0  0
 28 29  1  0  0  0  0
 30 33  1  0  0  0  0
 30 34  1  0  0  0  0
 31 32  1  0  0  0  0
 32 29  1  6  0  0  0
 33 31  1  0  0  0  0
 34 32  1  0  0  0  0
M  END
>  <MODEL>
5

>  <REMARK>
 VINA RESULT:      -8.1      1.267      1.508
  Name = 
  3 active torsions:
  status: ('A' for Active; 'I' for Inactive)
    1  A    between atoms: C_17  and  O_28
    2  A    between atoms: O_28  and  C_29
    3  A    between atoms: C_29  and  C_32
                            x       y       z     vdW  Elec       q    Type
                         _______ _______ _______ _____ _____    ______ ____

>  <TORSDO>
F 3

$$$$
=
 OpenBabel11112418033D

 34 40  0  0  1  0  0  0  0  0999 V2000
  190.0400  174.6500  142.2250 C   0  0  0  0  0  0  0  0  0  0  0  0
  187.6400  175.3920  142.5420 C   0  0  0  0  0  2  0  0  0  0  0  0
  196.2600  173.7120  144.1910 C   0  0  1  0  0  3  0  0  0  0  0  0
  192.2430  173.6810  142.3110 C   0  0  0  0  0  0  0  0  0  0  0  0
  193.8870  174.6660  143.9760 C   0  0  2  0  0  3  0  0  0  0  0  0
  195.4790  175.5860  145.4950 O   0  0  0  0  0  1  0  0  0  0  0  0
  197.4510  173.9680  144.8750 O   0  0  0  0  0  1  0  0  0  0  0  0
  194.9780  171.8160  143.1240 C   0  0  0  0  0  2  0  0  0  0  0  0
  189.3900  176.5420  143.7650 C   0  0  2  0  0  3  0  0  0  0  0  0
  188.6050  177.4090  146.7840 C   0  0  0  0  0  2  0  0  0  0  0  0
  192.6970  174.9420  144.7820 N   0  0  0  0  0  2  0  0  0  0  0  0
  193.7270  172.2820  143.5420 O   0  0  0  0  0  0  0  0  0  0  0  0
  190.4690  175.9970  144.7240 C   0  0  1  0  0  3  0  0  0  0  0  0
  186.9700  176.4100  143.4480 C   0  0  0  0  0  2  0  0  0  0  0  0
  193.6010  173.5430  142.9490 C   0  0  1  0  0  3  0  0  0  0  0  0
  196.0530  172.2010  144.1350 C   0  0  0  0  0  2  0  0  0  0  0  0
  187.8320  176.4980  145.8360 C   0  0  2  0  0  3  0  0  0  0  0  0
  191.3100  174.5980  142.8100 C   0  0  0  0  0  0  0  0  0  0  0  0
  195.0770  174.3850  144.9050 C   0  0  2  0  0  3  0  0  0  0  0  0
  191.6950  175.5580  143.9110 C   0  0  2  0  0  3  0  0  0  0  0  0
  190.6530  172.9250  140.7290 C   0  0  0  0  0  3  0  0  0  0  0  0
  190.0300  176.9190  146.9960 C   0  0  0  0  0  2  0  0  0  0  0  0
  191.8930  172.8640  141.2830 N   0  0  0  0  0  0  0  0  0  0  0  0
  190.8680  177.0610  145.7350 C   0  0  0  0  0  2  0  0  0  0  0  0
  188.0480  176.9660  144.3850 C   0  0  1  0  0  3  0  0  0  0  0  0
  189.7340  173.8070  141.2030 N   0  0  0  0  0  0  0  0  0  0  0  0
  189.0610  175.5510  142.7550 N   0  0  0  0  0  0  0  0  0  0  0  0
  186.4780  176.5600  146.1750 O   0  0  0  0  0  0  0  0  0  0  0  0
  186.3500  177.7310  146.9250 C   0  0  0  0  0  2  0  0  0  0  0  0
  185.0960  179.8380  144.2490 C   0  0  0  0  0  2  0  0  0  0  0  0
  184.4370  177.8510  145.4190 N   0  0  0  0  0  2  0  0  0  0  0  0
  185.2870  178.6230  146.3110 C   0  0  2  0  0  3  0  0  0  0  0  0
  184.0180  178.7860  144.3860 C   0  0  0  0  0  2  0  0  0  0  0  0
  185.9420  179.7120  145.4930 C   0  0  0  0  0  2  0  0  0  0  0  0
  1 27  1  0  0  0  0
  1 18  1  0  0  0  0
  2 27  1  0  0  0  0
  2 14  1  0  0  0  0
  3  7  1  1  0  0  0
  3 19  1  0  0  0  0
  4 18  2  0  0  0  0
  5 11  1  1  0  0  0
  5 19  1  0  0  0  0
  8 12  1  0  0  0  0
  8 16  1  0  0  0  0
  9 27  1  6  0  0  0
  9 25  1  0  0  0  0
  9 13  1  0  0  0  0
 10 22  1  0  0  0  0
 13 24  1  1  0  0  0
 15  4  1  1  0  0  0
 15 12  1  0  0  0  0
 15  5  1  0  0  0  0
 16  3  1  0  0  0  0
 17 28  1  1  0  0  0
 17 10  1  0  0  0  0
 19  6  1  6  0  0  0
 20 18  1  6  0  0  0
 20 13  1  0  0  0  0
 20 11  1  0  0  0  0
 21 26  1  0  0  0  0
 21 23  2  0  0  0  0
 23  4  1  0  0  0  0
 24 22  1  0  0  0  0
 25 14  1  6  0  0  0
 25 17  1  0  0  0  0
 26  1  2  0  0  0  0
 28 29  1  0  0  0  0
 30 33  1  0  0  0  0
 30 34  1  0  0  0  0
 31 32  1  0  0  0  0
 32 29  1  6  0  0  0
 33 31  1  0  0  0  0
 34 32  1  0  0  0  0
M  END
>  <MODEL>
6

>  <REMARK>
 VINA RESULT:      -8.1      1.780      8.424
  Name = 
  3 active torsions:
  status: ('A' for Active; 'I' for Inactive)
    1  A    between atoms: C_17  and  O_28
    2  A    between atoms: O_28  and  C_29
    3  A    between atoms: C_29  and  C_32
                            x       y       z     vdW  Elec       q    Type
                         _______ _______ _______ _____ _____    ______ ____

>  <TORSDO>
F 3

$$$$
=
 OpenBabel11112418033D

 34 40  0  0  1  0  0  0  0  0999 V2000
  192.0400  175.8370  145.7270 C   0  0  0  0  0  0  0  0  0  0  0  0
  190.2430  177.5870  145.3700 C   0  0  0  0  0  2  0  0  0  0  0  0
  195.0680  170.1160  144.4890 C   0  0  1  0  0  3  0  0  0  0  0  0
  193.8250  174.2250  145.6020 C   0  0  0  0  0  0  0  0  0  0  0  0
  193.2550  171.9220  144.7010 C   0  0  2  0  0  3  0  0  0  0  0  0
  192.7590  169.7300  143.9010 O   0  0  0  0  0  1  0  0  0  0  0  0
  195.1910  168.7700  144.1380 O   0  0  0  0  0  1  0  0  0  0  0  0
  196.4010  172.2590  144.5480 C   0  0  0  0  0  2  0  0  0  0  0  0
  189.7080  175.2580  144.9510 C   0  0  2  0  0  3  0  0  0  0  0  0
  187.7660  174.7380  142.4140 C   0  0  0  0  0  2  0  0  0  0  0  0
  192.2590  172.6300  143.8970 N   0  0  0  0  0  2  0  0  0  0  0  0
  195.3270  173.0680  144.1620 O   0  0  0  0  0  0  0  0  0  0  0  0
  190.3820  174.2240  144.0270 C   0  0  1  0  0  3  0  0  0  0  0  0
  188.8230  177.5340  144.8340 C   0  0  0  0  0  2  0  0  0  0  0  0
  194.3700  172.8910  145.1670 C   0  0  1  0  0  3  0  0  0  0  0  0
  196.2710  170.8710  143.9310 C   0  0  0  0  0  2  0  0  0  0  0  0
  188.4590  176.0350  142.8160 C   0  0  2  0  0  3  0  0  0  0  0  0
  192.4870  174.5630  145.3600 C   0  0  0  0  0  0  0  0  0  0  0  0
  193.7640  170.7000  143.9210 C   0  0  2  0  0  3  0  0  0  0  0  0
  191.5340  173.5450  144.7800 C   0  0  2  0  0  3  0  0  0  0  0  0
  194.2010  176.3740  146.5220 C   0  0  0  0  0  3  0  0  0  0  0  0
  188.7600  173.5990  142.2420 C   0  0  0  0  0  2  0  0  0  0  0  0
  194.6520  175.1390  146.1760 N   0  0  0  0  0  0  0  0  0  0  0  0
  189.3720  173.1820  143.5700 C   0  0  0  0  0  2  0  0  0  0  0  0
  188.5700  176.1030  144.3500 C   0  0  1  0  0  3  0  0  0  0  0  0
  192.9060  176.7190  146.2920 N   0  0  0  0  0  0  0  0  0  0  0  0
  190.6860  176.2120  145.4450 N   0  0  0  0  0  0  0  0  0  0  0  0
  187.7030  177.1060  142.3310 O   0  0  0  0  0  0  0  0  0  0  0  0
  186.3850  176.6440  142.3360 C   0  0  0  0  0  2  0  0  0  0  0  0
  185.1920  178.7830  145.0130 C   0  0  0  0  0  2  0  0  0  0  0  0
  186.1140  179.0200  142.8120 N   0  0  0  0  0  2  0  0  0  0  0  0
  185.4640  177.7200  142.8780 C   0  0  2  0  0  3  0  0  0  0  0  0
  185.5780  179.7720  143.9360 C   0  0  0  0  0  2  0  0  0  0  0  0
  185.1450  177.4390  144.3280 C   0  0  0  0  0  2  0  0  0  0  0  0
  1 26  1  0  0  0  0
  2 27  1  0  0  0  0
  3  7  1  6  0  0  0
  4 23  2  0  0  0  0
  5 11  1  6  0  0  0
  5 15  1  0  0  0  0
  9 27  1  6  0  0  0
 10 17  1  0  0  0  0
 12  8  1  0  0  0  0
 13 24  1  1  0  0  0
 13 20  1  0  0  0  0
 13  9  1  0  0  0  0
 14  2  1  0  0  0  0
 15 12  1  6  0  0  0
 15  4  1  0  0  0  0
 16  3  1  0  0  0  0
 16  8  1  0  0  0  0
 17 28  1  1  0  0  0
 17 25  1  0  0  0  0
 18  4  1  0  0  0  0
 18  1  2  0  0  0  0
 19  6  1  1  0  0  0
 19  3  1  0  0  0  0
 19  5  1  0  0  0  0
 20 11  1  6  0  0  0
 20 18  1  0  0  0  0
 22 10  1  0  0  0  0
 22 24  1  0  0  0  0
 23 21  1  0  0  0  0
 25 14  1  6  0  0  0
 25  9  1  0  0  0  0
 26 21  2  0  0  0  0
 27  1  1  0  0  0  0
 28 29  1  0  0  0  0
 31 32  1  0  0  0  0
 31 33  1  0  0  0  0
 32 29  1  1  0  0  0
 32 34  1  0  0  0  0
 33 30  1  0  0  0  0
 34 30  1  0  0  0  0
M  END
>  <MODEL>
7

>  <REMARK>
 VINA RESULT:      -8.1      2.484      9.005
  Name = 
  3 active torsions:
  status: ('A' for Active; 'I' for Inactive)
    1  A    between atoms: C_17  and  O_28
    2  A    between atoms: O_28  and  C_29
    3  A    between atoms: C_29  and  C_32
                            x       y       z     vdW  Elec       q    Type
                         _______ _______ _______ _____ _____    ______ ____

>  <TORSDO>
F 3

$$$$
=
 OpenBabel11112418033D

 34 40  0  0  1  0  0  0  0  0999 V2000
  190.1930  172.9650  142.3670 C   0  0  0  0  0  0  0  0  0  0  0  0
  187.9330  174.0680  142.0700 C   0  0  0  0  0  2  0  0  0  0  0  0
  196.0610  172.1650  145.2570 C   0  0  1  0  0  3  0  0  0  0  0  0
  192.2010  171.8530  143.0970 C   0  0  0  0  0  0  0  0  0  0  0  0
  193.8910  173.2310  144.3960 C   0  0  2  0  0  3  0  0  0  0  0  0
  195.5280  174.4950  145.5840 O   0  0  0  0  0  1  0  0  0  0  0  0
  197.2390  172.5320  145.9120 O   0  0  0  0  0  1  0  0  0  0  0  0
  194.5460  170.1750  144.9140 C   0  0  0  0  0  2  0  0  0  0  0  0
  189.7800  175.3950  142.9140 C   0  0  2  0  0  3  0  0  0  0  0  0
  188.9850  177.5420  145.2030 C   0  0  0  0  0  2  0  0  0  0  0  0
  192.7210  173.9680  144.8740 N   0  0  0  0  0  2  0  0  0  0  0  0
  193.3670  170.9270  144.9550 O   0  0  0  0  0  0  0  0  0  0  0  0
  190.7010  175.1720  144.1310 C   0  0  1  0  0  3  0  0  0  0  0  0
  187.3910  175.4490  142.3980 C   0  0  0  0  0  2  0  0  0  0  0  0
  193.4810  171.8260  143.8900 C   0  0  1  0  0  3  0  0  0  0  0  0
  195.6130  170.8100  145.7980 C   0  0  0  0  0  2  0  0  0  0  0  0
  188.1260  176.4230  144.6250 C   0  0  2  0  0  3  0  0  0  0  0  0
  191.4040  173.0050  143.0660 C   0  0  0  0  0  0  0  0  0  0  0  0
  194.9680  173.2190  145.4910 C   0  0  2  0  0  3  0  0  0  0  0  0
  191.8810  174.2820  143.7170 C   0  0  2  0  0  3  0  0  0  0  0  0
  190.5960  170.7090  141.7860 C   0  0  0  0  0  3  0  0  0  0  0  0
  190.2970  177.0120  145.7620 C   0  0  0  0  0  2  0  0  0  0  0  0
  191.7780  170.7300  142.4580 N   0  0  0  0  0  0  0  0  0  0  0  0
  191.2140  176.5030  144.6590 C   0  0  0  0  0  2  0  0  0  0  0  0
  188.4930  176.2060  143.1460 C   0  0  1  0  0  3  0  0  0  0  0  0
  189.8090  171.8170  141.7480 N   0  0  0  0  0  0  0  0  0  0  0  0
  189.3480  174.1210  142.3640 N   0  0  0  0  0  0  0  0  0  0  0  0
  186.7840  176.7920  144.7490 O   0  0  0  0  0  0  0  0  0  0  0  0
  186.8050  178.1840  144.8620 C   0  0  0  0  0  2  0  0  0  0  0  0
  185.1150  178.5120  141.6670 C   0  0  0  0  0  2  0  0  0  0  0  0
  184.5670  177.9260  143.9270 N   0  0  0  0  0  2  0  0  0  0  0  0
  185.7370  178.7890  143.9690 C   0  0  2  0  0  3  0  0  0  0  0  0
  183.9930  178.1240  142.6050 C   0  0  0  0  0  2  0  0  0  0  0  0
  186.2630  178.9190  142.5580 C   0  0  0  0  0  2  0  0  0  0  0  0
  1 18  1  0  0  0  0
  2 27  1  0  0  0  0
  2 14  1  0  0  0  0
  3 19  1  0  0  0  0
  3 16  1  0  0  0  0
  3  7  1  1  0  0  0
  5 11  1  1  0  0  0
  5 19  1  0  0  0  0
  8 12  1  0  0  0  0
  8 16  1  0  0  0  0
  9 27  1  1  0  0  0
  9 25  1  0  0  0  0
  9 13  1  0  0  0  0
 10 22  1  0  0  0  0
 13 24  1  6  0  0  0
 15  4  1  1  0  0  0
 15  5  1  0  0  0  0
 15 12  1  0  0  0  0
 17 28  1  6  0  0  0
 17 10  1  0  0  0  0
 18  4  2  0  0  0  0
 19  6  1  6  0  0  0
 20 18  1  1  0  0  0
 20 13  1  0  0  0  0
 20 11  1  0  0  0  0
 21 23  2  0  0  0  0
 23  4  1  0  0  0  0
 24 22  1  0  0  0  0
 25 14  1  6  0  0  0
 25 17  1  0  0  0  0
 26 21  1  0  0  0  0
 26  1  2  0  0  0  0
 27  1  1  0  0  0  0
 28 29  1  0  0  0  0
 30 34  1  0  0  0  0
 30 33  1  0  0  0  0
 31 32  1  0  0  0  0
 32 29  1  1  0  0  0
 33 31  1  0  0  0  0
 34 32  1  0  0  0  0
M  END
>  <MODEL>
8

>  <REMARK>
 VINA RESULT:      -8.0      2.221      8.571
  Name = 
  3 active torsions:
  status: ('A' for Active; 'I' for Inactive)
    1  A    between atoms: C_17  and  O_28
    2  A    between atoms: O_28  and  C_29
    3  A    between atoms: C_29  and  C_32
                            x       y       z     vdW  Elec       q    Type
                         _______ _______ _______ _____ _____    ______ ____

>  <TORSDO>
F 3

$$$$
=
 OpenBabel11112418033D

 34 40  0  0  1  0  0  0  0  0999 V2000
  189.4330  174.9380  142.0460 C   0  0  0  0  0  0  0  0  0  0  0  0
  188.1710  176.9930  142.8210 C   0  0  0  0  0  2  0  0  0  0  0  0
  193.1600  169.5800  142.9570 C   0  0  1  0  0  3  0  0  0  0  0  0
  190.3660  172.7580  141.6280 C   0  0  0  0  0  0  0  0  0  0  0  0
  192.1030  171.8990  143.2670 C   0  0  2  0  0  3  0  0  0  0  0  0
  193.7710  171.0680  144.7560 O   0  0  0  0  0  1  0  0  0  0  0  0
  194.1470  168.7760  143.5320 O   0  0  0  0  0  1  0  0  0  0  0  0
  191.0160  169.4120  141.6340 C   0  0  0  0  0  2  0  0  0  0  0  0
  190.1340  176.2890  144.0600 C   0  0  2  0  0  3  0  0  0  0  0  0
  189.9220  176.6440  147.2710 C   0  0  0  0  0  2  0  0  0  0  0  0
  191.3650  172.6870  144.2540 N   0  0  0  0  0  2  0  0  0  0  0  0
  190.3930  170.4730  142.3000 O   0  0  0  0  0  0  0  0  0  0  0  0
  190.4710  174.9380  144.7220 C   0  0  1  0  0  3  0  0  0  0  0  0
  188.3100  177.9160  144.0190 C   0  0  0  0  0  2  0  0  0  0  0  0
  191.2080  171.5810  142.0440 C   0  0  1  0  0  3  0  0  0  0  0  0
  191.9820  168.6910  142.5680 C   0  0  0  0  0  2  0  0  0  0  0  0
  188.8120  176.7810  146.2350 C   0  0  2  0  0  3  0  0  0  0  0  0
  190.2750  173.8940  142.4420 C   0  0  0  0  0  0  0  0  0  0  0  0
  192.7050  170.6620  143.9500 C   0  0  2  0  0  3  0  0  0  0  0  0
  191.1250  174.0140  143.6850 C   0  0  2  0  0  3  0  0  0  0  0  0
  188.8160  173.7160  140.1180 C   0  0  0  0  0  3  0  0  0  0  0  0
  190.6070  175.2880  147.1850 C   0  0  0  0  0  2  0  0  0  0  0  0
  189.6320  172.6930  140.4860 N   0  0  0  0  0  0  0  0  0  0  0  0
  191.4100  175.1430  145.9010 C   0  0  0  0  0  2  0  0  0  0  0  0
  189.4000  177.3310  144.9230 C   0  0  1  0  0  3  0  0  0  0  0  0
  188.7140  174.8260  140.8980 N   0  0  0  0  0  0  0  0  0  0  0  0
  189.2960  176.0870  142.8900 N   0  0  0  0  0  0  0  0  0  0  0  0
  187.8440  177.6520  146.7420 O   0  0  0  0  0  0  0  0  0  0  0  0
  186.7600  176.8330  147.0650 C   0  0  0  0  0  2  0  0  0  0  0  0
  184.9490  179.4150  145.2700 C   0  0  0  0  0  2  0  0  0  0  0  0
  185.2700  177.0420  145.1460 N   0  0  0  0  0  2  0  0  0  0  0  0
  185.4770  177.4400  146.5290 C   0  0  2  0  0  3  0  0  0  0  0  0
  184.5640  178.1540  144.5290 C   0  0  0  0  0  2  0  0  0  0  0  0
  185.5710  178.9480  146.5640 C   0  0  0  0  0  2  0  0  0  0  0  0
  1 18  1  0  0  0  0
  1 27  1  0  0  0  0
  2 27  1  0  0  0  0
  2 14  1  0  0  0  0
  3  7  1  1  0  0  0
  3 19  1  0  0  0  0
  4 18  2  0  0  0  0
  5 19  1  0  0  0  0
  5 11  1  1  0  0  0
  8 12  1  0  0  0  0
  8 16  1  0  0  0  0
  9 27  1  6  0  0  0
  9 13  1  0  0  0  0
  9 25  1  0  0  0  0
 13 24  1  1  0  0  0
 15  4  1  1  0  0  0
 15 12  1  0  0  0  0
 15  5  1  0  0  0  0
 16  3  1  0  0  0  0
 17 28  1  1  0  0  0
 17 10  1  0  0  0  0
 19  6  1  6  0  0  0
 20 18  1  6  0  0  0
 20 11  1  0  0  0  0
 20 13  1  0  0  0  0
 21 23  2  0  0  0  0
 21 26  1  0  0  0  0
 22 10  1  0  0  0  0
 23  4  1  0  0  0  0
 24 22  1  0  0  0  0
 25 14  1  6  0  0  0
 25 17  1  0  0  0  0
 26  1  2  0  0  0  0
 28 29  1  0  0  0  0
 30 34  1  0  0  0  0
 31 32  1  0  0  0  0
 32 34  1  0  0  0  0
 32 29  1  6  0  0  0
 33 31  1  0  0  0  0
 33 30  1  0  0  0  0
M  END
>  <MODEL>
9

>  <REMARK>
 VINA RESULT:      -8.0      2.811      8.096
  Name = 
  3 active torsions:
  status: ('A' for Active; 'I' for Inactive)
    1  A    between atoms: C_17  and  O_28
    2  A    between atoms: O_28  and  C_29
    3  A    between atoms: C_29  and  C_32
                            x       y       z     vdW  Elec       q    Type
                         _______ _______ _______ _____ _____    ______ ____

>  <TORSDO>
F 3

$$$$
