=
 OpenBabel11112417443D

 34 41  0  0  1  0  0  0  0  0999 V2000
  189.4320  174.5880  142.0790 C   0  0  1  0  0  3  0  0  0  0  0  0
  191.7740  173.7390  142.7750 C   0  0  0  0  0  3  0  0  0  0  0  0
  184.4100  178.3830  142.9190 C   0  0  1  0  0  3  0  0  0  0  0  0
  187.5270  176.1500  141.3190 C   0  0  0  0  0  0  0  0  0  0  0  0
  186.6880  177.8440  142.8000 N   0  0  0  0  0  0  0  0  0  0  0  0
  185.4860  179.4380  144.4050 C   0  0  0  0  0  2  0  0  0  0  0  0
  184.0010  179.1880  144.1310 C   0  0  0  0  0  2  0  0  0  0  0  0
  184.5250  178.2230  140.4520 C   0  0  0  0  0  3  0  0  0  0  0  0
  190.6910  175.2650  144.1210 C   0  0  0  0  0  0  0  0  0  0  0  0
  190.9830  175.2250  147.1570 C   0  0  0  0  0  3  0  0  0  0  0  0
  187.6700  177.5330  143.7540 N   0  0  0  0  0  2  0  0  0  0  0  0
  185.6840  177.5150  140.4260 C   0  0  0  0  0  3  0  0  0  0  0  0
  189.5910  176.1470  144.6150 C   0  0  1  0  0  3  0  0  0  0  0  0
  192.4660  173.8950  144.0540 N   0  0  0  0  0  0  0  0  0  0  0  0
  186.6440  177.1410  141.5330 C   0  0  0  0  0  0  0  0  0  0  0  0
  183.8840  178.7540  141.6300 N   0  0  0  0  0  2  0  0  0  0  0  0
  191.9720  175.1090  146.2600 C   0  0  0  0  0  0  0  0  0  0  0  0
  188.5280  175.7780  142.3550 C   0  0  0  0  0  0  0  0  0  0  0  0
  185.7840  178.9550  142.9990 C   0  0  2  0  0  3  0  0  0  0  0  0
  188.5900  176.4620  143.5250 C   0  0  0  0  0  0  0  0  0  0  0  0
  188.4000  174.2970  139.8350 C   0  0  0  0  0  2  0  0  0  0  0  0
  189.5240  175.1660  146.9120 C   0  0  0  0  0  3  0  0  0  0  0  0
  187.5560  175.4640  140.0570 N   0  0  0  0  0  2  0  0  0  0  0  0
  188.8990  175.5280  145.7900 C   0  0  0  0  0  3  0  0  0  0  0  0
  191.7130  174.8240  144.8240 C   0  0  0  0  0  0  0  0  0  0  0  0
  189.7180  174.4530  140.5850 C   0  0  0  0  0  2  0  0  0  0  0  0
  190.6760  174.6950  142.8290 N   0  0  0  0  0  0  0  0  0  0  0  0
  193.3090  175.1900  146.7670 N   0  0  0  0  0  2  0  0  0  0  0  0
  194.2270  176.3070  146.5730 C   0  0  0  0  0  2  0  0  0  0  0  0
  195.9600  174.0060  144.3100 N   0  0  0  0  0  2  0  0  0  0  0  0
  195.0230  176.2170  144.1940 C   0  0  0  0  0  2  0  0  0  0  0  0
  195.3600  175.9250  145.6290 C   0  0  2  0  0  3  0  0  0  0  0  0
  195.8080  175.1710  143.4400 C   0  0  0  0  0  2  0  0  0  0  0  0
  195.5730  174.4290  145.6530 C   0  0  0  0  0  2  0  0  0  0  0  0
  1 26  1  6  0  0  0
  1 18  1  0  0  0  0
  1 27  1  0  0  0  0
  2 27  1  0  0  0  0
  2 14  2  0  0  0  0
  3 19  1  0  0  0  0
  3  7  1  1  0  0  0
  4 15  2  0  0  0  0
  4 18  1  0  0  0  0
  5 19  1  0  0  0  0
  5 11  1  0  0  0  0
  7  6  1  0  0  0  0
  8 16  1  0  0  0  0
  9 13  1  0  0  0  0
  9 25  2  0  0  0  0
 12  8  2  0  0  0  0
 12 15  1  0  0  0  0
 13 24  1  1  0  0  0
 14 25  1  0  0  0  0
 15  5  1  0  0  0  0
 16  3  1  0  0  0  0
 17 28  1  0  0  0  0
 17 10  2  0  0  0  0
 18 20  2  0  0  0  0
 19  6  1  1  0  0  0
 20 11  1  0  0  0  0
 20 13  1  0  0  0  0
 21 23  1  0  0  0  0
 21 26  1  0  0  0  0
 22 10  1  0  0  0  0
 23  4  1  0  0  0  0
 24 22  2  0  0  0  0
 25 17  1  0  0  0  0
 27  9  1  0  0  0  0
 29 28  1  0  0  0  0
 30 34  1  0  0  0  0
 31 32  1  0  0  0  0
 32 34  1  0  0  0  0
 32 29  1  1  0  0  0
 33 31  1  0  0  0  0
 33 30  1  0  0  0  0
M  END
>  <MODEL>
1

>  <REMARK>
 VINA RESULT:      -8.3      0.000      0.000
  Name = 
  3 active torsions:
  status: ('A' for Active; 'I' for Inactive)
    1  A    between atoms: C_17  and  N_28
    2  A    between atoms: N_28  and  C_29
    3  A    between atoms: C_29  and  C_32
                            x       y       z     vdW  Elec       q    Type
                         _______ _______ _______ _____ _____    ______ ____

>  <TORSDO>
F 3

$$$$
=
 OpenBabel11112417443D

 34 41  0  0  1  0  0  0  0  0999 V2000
  189.3440  175.5740  142.8410 C   0  0  1  0  0  3  0  0  0  0  0  0
  191.8380  174.9680  142.5160 C   0  0  0  0  0  3  0  0  0  0  0  0
  184.6520  178.2380  146.1900 C   0  0  1  0  0  3  0  0  0  0  0  0
  187.1860  176.9490  143.1600 C   0  0  0  0  0  0  0  0  0  0  0  0
  186.7850  178.1060  145.2260 N   0  0  0  0  0  0  0  0  0  0  0  0
  186.0930  179.0820  147.4910 C   0  0  0  0  0  2  0  0  0  0  0  0
  184.6260  178.6710  147.6380 C   0  0  0  0  0  2  0  0  0  0  0  0
  183.9270  178.6660  143.8630 C   0  0  0  0  0  3  0  0  0  0  0  0
  191.1740  175.9570  144.4900 C   0  0  0  0  0  0  0  0  0  0  0  0
  192.4890  175.2730  147.1560 C   0  0  0  0  0  3  0  0  0  0  0  0
  188.0540  177.7440  145.7050 N   0  0  0  0  0  2  0  0  0  0  0  0
  185.0560  178.1730  143.2870 C   0  0  0  0  0  3  0  0  0  0  0  0
  190.2480  176.5180  145.5200 C   0  0  1  0  0  3  0  0  0  0  0  0
  192.9120  174.9350  143.5080 N   0  0  0  0  0  0  0  0  0  0  0  0
  186.3600  177.7130  143.8970 C   0  0  0  0  0  0  0  0  0  0  0  0
  183.6910  178.8060  145.2790 N   0  0  0  0  0  2  0  0  0  0  0  0
  193.1160  175.5210  145.9970 C   0  0  0  0  0  0  0  0  0  0  0  0
  188.5060  176.5120  143.6930 C   0  0  0  0  0  0  0  0  0  0  0  0
  185.9250  178.9860  145.9870 C   0  0  2  0  0  3  0  0  0  0  0  0
  188.9150  176.9120  144.9230 C   0  0  0  0  0  0  0  0  0  0  0  0
  187.6300  175.6430  141.0400 C   0  0  0  0  0  2  0  0  0  0  0  0
  191.0430  175.0420  147.3720 C   0  0  0  0  0  3  0  0  0  0  0  0
  186.8310  176.5820  141.8180 N   0  0  0  0  0  2  0  0  0  0  0  0
  190.0460  175.5470  146.6410 C   0  0  0  0  0  3  0  0  0  0  0  0
  192.4030  175.5340  144.6940 C   0  0  0  0  0  0  0  0  0  0  0  0
  189.1110  175.8300  141.3530 C   0  0  0  0  0  2  0  0  0  0  0  0
  190.7580  175.7020  143.1650 N   0  0  0  0  0  0  0  0  0  0  0  0
  194.5370  175.6930  146.0640 N   0  0  0  0  0  2  0  0  0  0  0  0
  195.5340  174.6720  145.7630 C   0  0  0  0  0  2  0  0  0  0  0  0
  196.5000  174.9490  142.2400 N   0  0  0  0  0  2  0  0  0  0  0  0
  196.0390  176.4480  144.0620 C   0  0  0  0  0  2  0  0  0  0  0  0
  196.4560  175.1250  144.6380 C   0  0  2  0  0  3  0  0  0  0  0  0
  196.5040  176.3580  142.6290 C   0  0  0  0  0  2  0  0  0  0  0  0
  196.3540  174.1730  143.4680 C   0  0  0  0  0  2  0  0  0  0  0  0
  1 26  1  6  0  0  0
  1 27  1  0  0  0  0
  1 18  1  0  0  0  0
  2 27  1  0  0  0  0
  2 14  2  0  0  0  0
  3  7  1  1  0  0  0
  4 18  1  0  0  0  0
  4 15  2  0  0  0  0
  5 11  1  0  0  0  0
  5 19  1  0  0  0  0
  6  7  1  0  0  0  0
  8 16  1  0  0  0  0
  9 25  2  0  0  0  0
  9 13  1  0  0  0  0
 10 22  1  0  0  0  0
 12  8  2  0  0  0  0
 12 15  1  0  0  0  0
 13 24  1  1  0  0  0
 14 25  1  0  0  0  0
 15  5  1  0  0  0  0
 16  3  1  0  0  0  0
 17 28  1  0  0  0  0
 17 10  2  0  0  0  0
 18 20  2  0  0  0  0
 19  3  1  0  0  0  0
 19  6  1  1  0  0  0
 20 13  1  0  0  0  0
 20 11  1  0  0  0  0
 21 26  1  0  0  0  0
 21 23  1  0  0  0  0
 23  4  1  0  0  0  0
 24 22  2  0  0  0  0
 25 17  1  0  0  0  0
 27  9  1  0  0  0  0
 29 28  1  0  0  0  0
 30 33  1  0  0  0  0
 30 34  1  0  0  0  0
 31 32  1  0  0  0  0
 32 29  1  1  0  0  0
 33 31  1  0  0  0  0
 34 32  1  0  0  0  0
M  END
>  <MODEL>
2

>  <REMARK>
 VINA RESULT:      -8.2      1.612      2.140
  Name = 
  3 active torsions:
  status: ('A' for Active; 'I' for Inactive)
    1  A    between atoms: C_17  and  N_28
    2  A    between atoms: N_28  and  C_29
    3  A    between atoms: C_29  and  C_32
                            x       y       z     vdW  Elec       q    Type
                         _______ _______ _______ _____ _____    ______ ____

>  <TORSDO>
F 3

$$$$
=
 OpenBabel11112417443D

 34 41  0  0  1  0  0  0  0  0999 V2000
  192.4310  175.9610  145.3900 C   0  0  1  0  0  3  0  0  0  0  0  0
  190.3030  177.0020  146.4290 C   0  0  0  0  0  3  0  0  0  0  0  0
  195.8640  174.1670  140.3580 C   0  0  1  0  0  3  0  0  0  0  0  0
  194.5910  175.6850  144.0100 C   0  0  0  0  0  0  0  0  0  0  0  0
  194.4910  175.5940  141.6120 N   0  0  0  0  0  0  0  0  0  0  0  0
  194.4710  175.1340  139.0920 C   0  0  0  0  0  2  0  0  0  0  0  0
  195.4370  173.9600  138.9230 C   0  0  0  0  0  2  0  0  0  0  0  0
  197.6180  174.9190  141.9340 C   0  0  0  0  0  3  0  0  0  0  0  0
  190.3890  176.6720  144.1490 C   0  0  0  0  0  0  0  0  0  0  0  0
  187.9090  175.9320  142.5340 C   0  0  0  0  0  3  0  0  0  0  0  0
  193.1110  175.8530  141.6350 N   0  0  0  0  0  2  0  0  0  0  0  0
  196.7520  175.3800  142.8750 C   0  0  0  0  0  2  0  0  0  0  0  0
  190.9230  176.2130  142.8310 C   0  0  1  0  0  3  0  0  0  0  0  0
  188.9920  177.2180  145.8170 N   0  0  0  0  0  0  0  0  0  0  0  0
  195.2500  175.5390  142.8470 C   0  0  0  0  0  0  0  0  0  0  0  0
  197.2600  174.3880  140.6410 N   0  0  0  0  0  0  0  0  0  0  0  0
  187.9930  176.8810  143.4780 C   0  0  0  0  0  0  0  0  0  0  0  0
  193.1180  175.8970  144.0360 C   0  0  0  0  0  0  0  0  0  0  0  0
  195.2120  175.5070  140.3620 C   0  0  2  0  0  3  0  0  0  0  0  0
  192.4170  175.9840  142.8780 C   0  0  0  0  0  0  0  0  0  0  0  0
  194.6210  175.7080  146.5390 C   0  0  0  0  0  2  0  0  0  0  0  0
  188.9010  174.8810  142.2160 C   0  0  0  0  0  3  0  0  0  0  0  0
  195.3090  175.6920  145.2540 N   0  0  0  0  0  2  0  0  0  0  0  0
  190.2230  174.9700  142.3760 C   0  0  0  0  0  3  0  0  0  0  0  0
  189.1350  176.9620  144.4250 C   0  0  0  0  0  0  0  0  0  0  0  0
  193.3580  176.5560  146.4470 C   0  0  0  0  0  2  0  0  0  0  0  0
  191.1930  176.7240  145.3090 N   0  0  0  0  0  0  0  0  0  0  0  0
  186.8780  177.7740  143.5880 N   0  0  0  0  0  2  0  0  0  0  0  0
  185.4920  177.3810  143.8200 C   0  0  0  0  0  2  0  0  0  0  0  0
  185.7640  177.5220  147.4710 N   0  0  0  0  0  2  0  0  0  0  0  0
  185.6960  179.0890  145.6490 C   0  0  0  0  0  2  0  0  0  0  0  0
  185.0250  177.8210  145.2020 C   0  0  2  0  0  3  0  0  0  0  0  0
  185.7250  178.9480  147.1520 C   0  0  0  0  0  2  0  0  0  0  0  0
  185.4450  176.8050  146.2390 C   0  0  0  0  0  2  0  0  0  0  0  0
  1 26  1  1  0  0  0
  3  7  1  6  0  0  0
  3 19  1  0  0  0  0
  3 16  1  0  0  0  0
  4 18  1  0  0  0  0
  4 23  1  0  0  0  0
  5 11  1  0  0  0  0
  5 15  1  0  0  0  0
  7  6  1  0  0  0  0
  8 12  1  0  0  0  0
  9 25  2  0  0  0  0
  9 27  1  0  0  0  0
 10 17  2  0  0  0  0
 11 20  1  0  0  0  0
 13 24  1  1  0  0  0
 13 20  1  0  0  0  0
 13  9  1  0  0  0  0
 14  2  2  0  0  0  0
 15 12  1  0  0  0  0
 15  4  2  0  0  0  0
 16  8  2  0  0  0  0
 17 28  1  0  0  0  0
 17 25  1  0  0  0  0
 18  1  1  0  0  0  0
 19  6  1  6  0  0  0
 19  5  1  0  0  0  0
 20 18  2  0  0  0  0
 22 24  2  0  0  0  0
 22 10  1  0  0  0  0
 23 21  1  0  0  0  0
 25 14  1  0  0  0  0
 26 21  1  0  0  0  0
 27  1  1  0  0  0  0
 27  2  1  0  0  0  0
 28 29  1  0  0  0  0
 31 33  1  0  0  0  0
 32 29  1  6  0  0  0
 32 31  1  0  0  0  0
 32 34  1  0  0  0  0
 33 30  1  0  0  0  0
 34 30  1  0  0  0  0
M  END
>  <MODEL>
3

>  <REMARK>
 VINA RESULT:      -8.1      2.387      8.592
  Name = 
  3 active torsions:
  status: ('A' for Active; 'I' for Inactive)
    1  A    between atoms: C_17  and  N_28
    2  A    between atoms: N_28  and  C_29
    3  A    between atoms: C_29  and  C_32
                            x       y       z     vdW  Elec       q    Type
                         _______ _______ _______ _____ _____    ______ ____

>  <TORSDO>
F 3

$$$$
=
 OpenBabel11112417443D

 34 41  0  0  1  0  0  0  0  0999 V2000
  191.8910  175.9320  145.4380 C   0  0  1  0  0  3  0  0  0  0  0  0
  189.4670  176.5120  146.1300 C   0  0  0  0  0  3  0  0  0  0  0  0
  196.2790  174.7270  141.0080 C   0  0  1  0  0  3  0  0  0  0  0  0
  194.2250  176.0880  144.3530 C   0  0  0  0  0  0  0  0  0  0  0  0
  194.4700  175.8630  141.9750 N   0  0  0  0  0  0  0  0  0  0  0  0
  194.8900  175.2910  139.5140 C   0  0  0  0  0  2  0  0  0  0  0  0
  196.1040  174.3600  139.5520 C   0  0  0  0  0  2  0  0  0  0  0  0
  197.5970  175.9320  142.7210 C   0  0  0  0  0  3  0  0  0  0  0  0
  189.9290  176.1020  143.9100 C   0  0  0  0  0  0  0  0  0  0  0  0
  187.9110  174.7420  142.0700 C   0  0  0  0  0  3  0  0  0  0  0  0
  193.0770  175.8030  141.8110 N   0  0  0  0  0  2  0  0  0  0  0  0
  196.5330  176.2280  143.5130 C   0  0  0  0  0  2  0  0  0  0  0  0
  190.7220  175.7140  142.7040 C   0  0  1  0  0  3  0  0  0  0  0  0
  188.2350  176.3940  145.3500 N   0  0  0  0  0  0  0  0  0  0  0  0
  195.0490  176.0400  143.2920 C   0  0  0  0  0  0  0  0  0  0  0  0
  197.5410  175.2720  141.4400 N   0  0  0  0  0  0  0  0  0  0  0  0
  187.6570  175.7290  142.9410 C   0  0  0  0  0  0  0  0  0  0  0  0
  192.7510  175.9610  144.1860 C   0  0  0  0  0  0  0  0  0  0  0  0
  195.3540  175.8830  140.8310 C   0  0  2  0  0  3  0  0  0  0  0  0
  192.2100  175.8320  142.9480 C   0  0  0  0  0  0  0  0  0  0  0  0
  193.9090  176.2380  146.8590 C   0  0  0  0  0  2  0  0  0  0  0  0
  189.1430  173.9290  141.9540 C   0  0  0  0  0  3  0  0  0  0  0  0
  194.7500  176.3180  145.6710 N   0  0  0  0  0  2  0  0  0  0  0  0
  190.3790  174.3230  142.2650 C   0  0  0  0  0  3  0  0  0  0  0  0
  188.6160  176.1120  144.0090 C   0  0  0  0  0  0  0  0  0  0  0  0
  192.5140  176.7720  146.5510 C   0  0  0  0  0  2  0  0  0  0  0  0
  190.5380  176.3900  145.1500 N   0  0  0  0  0  0  0  0  0  0  0  0
  186.3700  176.3490  142.8470 N   0  0  0  0  0  2  0  0  0  0  0  0
  185.9730  177.3400  141.8530 C   0  0  0  0  0  2  0  0  0  0  0  0
  183.9420  179.0760  144.3600 N   0  0  0  0  0  2  0  0  0  0  0  0
  186.2500  179.0290  143.6890 C   0  0  0  0  0  2  0  0  0  0  0  0
  185.4140  178.5900  142.5210 C   0  0  2  0  0  3  0  0  0  0  0  0
  185.2440  179.6950  144.5970 C   0  0  0  0  0  2  0  0  0  0  0  0
  184.0650  178.2910  143.1340 C   0  0  0  0  0  2  0  0  0  0  0  0
  1 26  1  1  0  0  0
  3  7  1  6  0  0  0
  3 16  1  0  0  0  0
  4 23  1  0  0  0  0
  5 15  1  0  0  0  0
  6  7  1  0  0  0  0
  8 12  1  0  0  0  0
  9 25  2  0  0  0  0
  9 27  1  0  0  0  0
 10 17  2  0  0  0  0
 11  5  1  0  0  0  0
 11 20  1  0  0  0  0
 13 24  1  1  0  0  0
 13 20  1  0  0  0  0
 13  9  1  0  0  0  0
 14  2  2  0  0  0  0
 15 12  1  0  0  0  0
 15  4  2  0  0  0  0
 16  8  2  0  0  0  0
 17 25  1  0  0  0  0
 18  4  1  0  0  0  0
 18  1  1  0  0  0  0
 19  6  1  6  0  0  0
 19  3  1  0  0  0  0
 19  5  1  0  0  0  0
 20 18  2  0  0  0  0
 22 10  1  0  0  0  0
 22 24  2  0  0  0  0
 23 21  1  0  0  0  0
 25 14  1  0  0  0  0
 26 21  1  0  0  0  0
 27  1  1  0  0  0  0
 27  2  1  0  0  0  0
 28 17  1  0  0  0  0
 29 28  1  0  0  0  0
 30 33  1  0  0  0  0
 31 33  1  0  0  0  0
 32 29  1  1  0  0  0
 32 34  1  0  0  0  0
 32 31  1  0  0  0  0
 34 30  1  0  0  0  0
M  END
>  <MODEL>
4

>  <REMARK>
 VINA RESULT:      -8.0      1.987      8.732
  Name = 
  3 active torsions:
  status: ('A' for Active; 'I' for Inactive)
    1  A    between atoms: C_17  and  N_28
    2  A    between atoms: N_28  and  C_29
    3  A    between atoms: C_29  and  C_32
                            x       y       z     vdW  Elec       q    Type
                         _______ _______ _______ _____ _____    ______ ____

>  <TORSDO>
F 3

$$$$
=
 OpenBabel11112417443D

 34 41  0  0  1  0  0  0  0  0999 V2000
  193.7160  176.1170  143.4810 C   0  0  1  0  0  3  0  0  0  0  0  0
  191.5650  177.5330  143.2330 C   0  0  0  0  0  3  0  0  0  0  0  0
  196.8160  171.0450  145.7140 C   0  0  1  0  0  3  0  0  0  0  0  0
  195.3680  174.1410  143.3530 C   0  0  0  0  0  0  0  0  0  0  0  0
  195.0320  172.1950  144.7190 N   0  0  0  0  0  0  0  0  0  0  0  0
  194.9730  170.2370  146.3700 C   0  0  0  0  0  2  0  0  0  0  0  0
  196.4280  170.0860  146.8170 C   0  0  0  0  0  2  0  0  0  0  0  0
  197.9000  171.3810  143.5160 C   0  0  0  0  0  3  0  0  0  0  0  0
  191.5380  175.6880  144.6150 C   0  0  0  0  0  0  0  0  0  0  0  0
  189.8830  175.6200  147.1760 C   0  0  0  0  0  3  0  0  0  0  0  0
  193.8130  172.7050  145.1910 N   0  0  0  0  0  2  0  0  0  0  0  0
  197.0710  172.3810  143.1180 C   0  0  0  0  0  3  0  0  0  0  0  0
  192.0620  174.5100  145.3690 C   0  0  1  0  0  3  0  0  0  0  0  0
  190.3430  177.4950  144.0340 N   0  0  0  0  0  0  0  0  0  0  0  0
  195.8120  172.9350  143.7460 C   0  0  0  0  0  0  0  0  0  0  0  0
  197.7880  170.6230  144.7380 N   0  0  0  0  0  2  0  0  0  0  0  0
  189.4770  176.0590  145.9760 C   0  0  0  0  0  0  0  0  0  0  0  0
  194.1060  174.7100  143.9020 C   0  0  0  0  0  0  0  0  0  0  0  0
  195.4760  170.8690  145.0860 C   0  0  2  0  0  3  0  0  0  0  0  0
  193.3610  173.9990  144.7840 C   0  0  0  0  0  0  0  0  0  0  0  0
  195.7090  176.2510  142.0000 C   0  0  0  0  0  2  0  0  0  0  0  0
  191.2610  175.2920  147.6030 C   0  0  0  0  0  3  0  0  0  0  0  0
  196.0790  174.8850  142.3510 N   0  0  0  0  0  2  0  0  0  0  0  0
  192.2430  174.8410  146.8180 C   0  0  0  0  0  3  0  0  0  0  0  0
  190.4290  176.3490  144.8720 C   0  0  0  0  0  0  0  0  0  0  0  0
  194.1950  176.4170  142.0620 C   0  0  0  0  0  2  0  0  0  0  0  0
  192.2760  176.3100  143.5840 N   0  0  0  0  0  0  0  0  0  0  0  0
  188.0760  176.3170  145.8290 N   0  0  0  0  0  2  0  0  0  0  0  0
  187.1740  176.7460  146.8920 C   0  0  0  0  0  2  0  0  0  0  0  0
  185.4070  178.8030  144.4280 N   0  0  0  0  0  2  0  0  0  0  0  0
  184.8920  177.7210  146.5130 C   0  0  0  0  0  2  0  0  0  0  0  0
  186.3730  177.9700  146.4670 C   0  0  2  0  0  3  0  0  0  0  0  0
  184.3600  178.6330  145.4340 C   0  0  0  0  0  2  0  0  0  0  0  0
  186.6410  178.2880  145.0150 C   0  0  0  0  0  2  0  0  0  0  0  0
  1 26  1  6  0  0  0
  1 27  1  0  0  0  0
  1 18  1  0  0  0  0
  2 27  1  0  0  0  0
  2 14  2  0  0  0  0
  3  7  1  1  0  0  0
  4 15  2  0  0  0  0
  4 18  1  0  0  0  0
  5 19  1  0  0  0  0
  5 11  1  0  0  0  0
  6  7  1  0  0  0  0
  8 16  1  0  0  0  0
  9 25  2  0  0  0  0
  9 13  1  0  0  0  0
 10 22  1  0  0  0  0
 12  8  2  0  0  0  0
 12 15  1  0  0  0  0
 13 24  1  1  0  0  0
 14 25  1  0  0  0  0
 15  5  1  0  0  0  0
 16  3  1  0  0  0  0
 17 10  2  0  0  0  0
 18 20  2  0  0  0  0
 19  3  1  0  0  0  0
 19  6  1  1  0  0  0
 20 11  1  0  0  0  0
 20 13  1  0  0  0  0
 21 26  1  0  0  0  0
 21 23  1  0  0  0  0
 23  4  1  0  0  0  0
 24 22  2  0  0  0  0
 25 17  1  0  0  0  0
 27  9  1  0  0  0  0
 28 17  1  0  0  0  0
 28 29  1  0  0  0  0
 30 34  1  0  0  0  0
 30 33  1  0  0  0  0
 32 31  1  0  0  0  0
 32 29  1  6  0  0  0
 33 31  1  0  0  0  0
 34 32  1  0  0  0  0
M  END
>  <MODEL>
5

>  <REMARK>
 VINA RESULT:      -7.9      2.872      9.071
  Name = 
  3 active torsions:
  status: ('A' for Active; 'I' for Inactive)
    1  A    between atoms: C_17  and  N_28
    2  A    between atoms: N_28  and  C_29
    3  A    between atoms: C_29  and  C_32
                            x       y       z     vdW  Elec       q    Type
                         _______ _______ _______ _____ _____    ______ ____

>  <TORSDO>
F 3

$$$$
=
 OpenBabel11112417443D

 34 41  0  0  1  0  0  0  0  0999 V2000
  188.4610  177.9520  146.5520 C   0  0  1  0  0  3  0  0  0  0  0  0
  190.3360  177.1510  148.1460 C   0  0  0  0  0  3  0  0  0  0  0  0
  185.7370  178.1540  140.8200 C   0  0  1  0  0  3  0  0  0  0  0  0
  186.4820  177.9220  144.9010 C   0  0  0  0  0  0  0  0  0  0  0  0
  186.7970  177.1440  142.6510 N   0  0  0  0  0  0  0  0  0  0  0  0
  187.0920  176.6740  140.1500 C   0  0  0  0  0  2  0  0  0  0  0  0
  186.3080  177.7970  139.4670 C   0  0  0  0  0  2  0  0  0  0  0  0
  183.7710  178.1810  142.3230 C   0  0  0  0  0  3  0  0  0  0  0  0
  190.4880  176.6560  145.9000 C   0  0  0  0  0  0  0  0  0  0  0  0
  193.1730  176.5360  144.4560 C   0  0  0  0  0  3  0  0  0  0  0  0
  188.1230  176.7810  142.9340 N   0  0  0  0  0  2  0  0  0  0  0  0
  184.4850  178.0060  143.4660 C   0  0  0  0  0  2  0  0  0  0  0  0
  190.1350  176.6640  144.4480 C   0  0  1  0  0  3  0  0  0  0  0  0
  191.6530  176.6100  147.8150 N   0  0  0  0  0  0  0  0  0  0  0  0
  185.9500  177.7060  143.6840 C   0  0  0  0  0  0  0  0  0  0  0  0
  184.3060  178.1820  140.9830 N   0  0  0  0  0  0  0  0  0  0  0  0
  192.8840  175.9970  145.6500 C   0  0  0  0  0  0  0  0  0  0  0  0
  187.9060  177.5950  145.1840 C   0  0  0  0  0  0  0  0  0  0  0  0
  186.2030  176.8480  141.3660 C   0  0  2  0  0  3  0  0  0  0  0  0
  188.6850  177.0350  144.2240 C   0  0  0  0  0  0  0  0  0  0  0  0
  186.2340  178.8020  147.2590 C   0  0  0  0  0  2  0  0  0  0  0  0
  192.3600  177.4940  143.6740 C   0  0  0  0  0  3  0  0  0  0  0  0
  185.6660  178.4250  145.9700 N   0  0  0  0  0  2  0  0  0  0  0  0
  191.0290  177.5930  143.6860 C   0  0  0  0  0  3  0  0  0  0  0  0
  191.6650  176.3660  146.4140 C   0  0  0  0  0  0  0  0  0  0  0  0
  187.3770  177.8620  147.6240 C   0  0  0  0  0  2  0  0  0  0  0  0
  189.5890  177.0960  146.8950 N   0  0  0  0  0  0  0  0  0  0  0  0
  193.8570  175.1010  146.1990 N   0  0  0  0  0  2  0  0  0  0  0  0
  195.2930  175.1440  145.9470 C   0  0  0  0  0  2  0  0  0  0  0  0
  196.8470  171.8300  146.1020 N   0  0  0  0  0  2  0  0  0  0  0  0
  194.7410  172.7560  145.4050 C   0  0  0  0  0  2  0  0  0  0  0  0
  195.7780  173.8400  145.3260 C   0  0  2  0  0  3  0  0  0  0  0  0
  195.5690  171.4960  145.4760 C   0  0  0  0  0  2  0  0  0  0  0  0
  196.9390  173.2870  146.1210 C   0  0  0  0  0  2  0  0  0  0  0  0
  1 27  1  0  0  0  0
  1 26  1  1  0  0  0
  3  7  1  6  0  0  0
  3 16  1  0  0  0  0
  3 19  1  0  0  0  0
  4 18  1  0  0  0  0
  4 23  1  0  0  0  0
  5 11  1  0  0  0  0
  5 15  1  0  0  0  0
  7  6  1  0  0  0  0
  8 12  1  0  0  0  0
  9 25  2  0  0  0  0
  9 27  1  0  0  0  0
 10 17  2  0  0  0  0
 11 20  1  0  0  0  0
 12 15  1  0  0  0  0
 13 24  1  6  0  0  0
 13  9  1  0  0  0  0
 14  2  2  0  0  0  0
 15  4  2  0  0  0  0
 16  8  2  0  0  0  0
 17 28  1  0  0  0  0
 17 25  1  0  0  0  0
 18  1  1  0  0  0  0
 19  6  1  6  0  0  0
 19  5  1  0  0  0  0
 20 13  1  0  0  0  0
 20 18  2  0  0  0  0
 21 26  1  0  0  0  0
 22 24  2  0  0  0  0
 22 10  1  0  0  0  0
 23 21  1  0  0  0  0
 25 14  1  0  0  0  0
 27  2  1  0  0  0  0
 29 28  1  0  0  0  0
 30 34  1  0  0  0  0
 31 33  1  0  0  0  0
 32 31  1  0  0  0  0
 32 29  1  1  0  0  0
 32 34  1  0  0  0  0
 33 30  1  0  0  0  0
M  END
>  <MODEL>
6

>  <REMARK>
 VINA RESULT:      -7.7      1.981      4.034
  Name = 
  3 active torsions:
  status: ('A' for Active; 'I' for Inactive)
    1  A    between atoms: C_17  and  N_28
    2  A    between atoms: N_28  and  C_29
    3  A    between atoms: C_29  and  C_32
                            x       y       z     vdW  Elec       q    Type
                         _______ _______ _______ _____ _____    ______ ____

>  <TORSDO>
F 3

$$$$
=
 OpenBabel11112417443D

 34 41  0  0  1  0  0  0  0  0999 V2000
  190.5930  172.8100  142.3960 C   0  0  1  0  0  3  0  0  0  0  0  0
  188.2400  173.8780  142.2760 C   0  0  0  0  0  3  0  0  0  0  0  0
  196.5530  172.7040  144.5850 C   0  0  1  0  0  3  0  0  0  0  0  0
  192.7250  171.6960  143.3250 C   0  0  0  0  0  0  0  0  0  0  0  0
  194.2250  172.9390  144.7280 N   0  0  0  0  0  0  0  0  0  0  0  0
  196.0600  174.2600  145.9330 C   0  0  0  0  0  2  0  0  0  0  0  0
  197.3530  173.7960  145.2580 C   0  0  0  0  0  2  0  0  0  0  0  0
  196.0240  170.2920  144.4210 C   0  0  0  0  0  3  0  0  0  0  0  0
  189.9030  174.9630  143.4460 C   0  0  0  0  0  0  0  0  0  0  0  0
  190.0770  178.0070  143.5470 C   0  0  0  0  0  3  0  0  0  0  0  0
  193.3520  174.0390  144.7320 N   0  0  0  0  0  2  0  0  0  0  0  0
  194.7210  170.4720  144.0790 C   0  0  0  0  0  3  0  0  0  0  0  0
  191.2700  175.2430  143.9790 C   0  0  1  0  0  3  0  0  0  0  0  0
  187.8230  175.2290  142.6490 N   0  0  0  0  0  0  0  0  0  0  0  0
  193.8750  171.7240  144.0200 C   0  0  0  0  0  0  0  0  0  0  0  0
  196.9610  171.3340  144.7640 N   0  0  0  0  0  2  0  0  0  0  0  0
  188.9710  177.2650  143.7060 C   0  0  0  0  0  0  0  0  0  0  0  0
  191.8280  172.8840  143.2770 C   0  0  0  0  0  0  0  0  0  0  0  0
  195.4270  172.9410  145.5320 C   0  0  2  0  0  3  0  0  0  0  0  0
  192.1420  174.0070  143.9710 C   0  0  0  0  0  0  0  0  0  0  0  0
  191.1460  170.4660  141.7780 C   0  0  0  0  0  2  0  0  0  0  0  0
  191.4030  177.5640  143.0630 C   0  0  0  0  0  3  0  0  0  0  0  0
  192.3110  170.4950  142.6540 N   0  0  0  0  0  2  0  0  0  0  0  0
  191.9280  176.3450  143.2070 C   0  0  0  0  0  3  0  0  0  0  0  0
  188.9170  175.8280  143.3330 C   0  0  0  0  0  0  0  0  0  0  0  0
  190.0560  171.3820  142.3230 C   0  0  0  0  0  2  0  0  0  0  0  0
  189.5590  173.7190  142.8730 N   0  0  0  0  0  0  0  0  0  0  0  0
  187.8050  177.9490  144.1810 N   0  0  0  0  0  2  0  0  0  0  0  0
  186.6570  178.3380  143.3710 C   0  0  0  0  0  2  0  0  0  0  0  0
  184.6950  177.4360  146.3310 N   0  0  0  0  0  2  0  0  0  0  0  0
  184.7900  179.2630  144.7710 C   0  0  0  0  0  2  0  0  0  0  0  0
  185.3510  178.0420  144.0970 C   0  0  2  0  0  3  0  0  0  0  0  0
  184.0450  178.6890  145.9510 C   0  0  0  0  0  2  0  0  0  0  0  0
  185.5970  177.0820  145.2380 C   0  0  0  0  0  2  0  0  0  0  0  0
  1 26  1  1  0  0  0
  1 27  1  0  0  0  0
  1 18  1  0  0  0  0
  2 14  2  0  0  0  0
  2 27  1  0  0  0  0
  3 16  1  0  0  0  0
  3  7  1  1  0  0  0
  3 19  1  0  0  0  0
  4 15  2  0  0  0  0
  5 11  1  0  0  0  0
  5 19  1  0  0  0  0
  7  6  1  0  0  0  0
  8 16  1  0  0  0  0
  9 13  1  0  0  0  0
 10 17  2  0  0  0  0
 12  8  2  0  0  0  0
 13 24  1  6  0  0  0
 14 25  1  0  0  0  0
 15 12  1  0  0  0  0
 15  5  1  0  0  0  0
 17 28  1  0  0  0  0
 18  4  1  0  0  0  0
 18 20  2  0  0  0  0
 19  6  1  6  0  0  0
 20 13  1  0  0  0  0
 20 11  1  0  0  0  0
 21 26  1  0  0  0  0
 21 23  1  0  0  0  0
 22 24  2  0  0  0  0
 22 10  1  0  0  0  0
 23  4  1  0  0  0  0
 25  9  2  0  0  0  0
 25 17  1  0  0  0  0
 27  9  1  0  0  0  0
 29 28  1  0  0  0  0
 31 33  1  0  0  0  0
 32 29  1  1  0  0  0
 32 31  1  0  0  0  0
 32 34  1  0  0  0  0
 33 30  1  0  0  0  0
 34 30  1  0  0  0  0
M  END
>  <MODEL>
7

>  <REMARK>
 VINA RESULT:      -7.6      2.276      8.655
  Name = 
  3 active torsions:
  status: ('A' for Active; 'I' for Inactive)
    1  A    between atoms: C_17  and  N_28
    2  A    between atoms: N_28  and  C_29
    3  A    between atoms: C_29  and  C_32
                            x       y       z     vdW  Elec       q    Type
                         _______ _______ _______ _____ _____    ______ ____

>  <TORSDO>
F 3

$$$$
=
 OpenBabel11112417443D

 34 41  0  0  1  0  0  0  0  0999 V2000
  193.7330  175.0890  145.2590 C   0  0  1  0  0  3  0  0  0  0  0  0
  192.0170  176.0830  146.9210 C   0  0  0  0  0  3  0  0  0  0  0  0
  195.7260  173.9300  139.3430 C   0  0  1  0  0  3  0  0  0  0  0  0
  195.4820  174.9020  143.3750 C   0  0  0  0  0  0  0  0  0  0  0  0
  194.8300  175.2170  141.0850 N   0  0  0  0  0  0  0  0  0  0  0  0
  194.1890  175.1840  138.6050 C   0  0  0  0  0  2  0  0  0  0  0  0
  194.9640  173.9920  138.0390 C   0  0  0  0  0  2  0  0  0  0  0  0
  197.8610  174.2910  140.5410 C   0  0  0  0  0  3  0  0  0  0  0  0
  191.5480  176.1320  144.6650 C   0  0  0  0  0  0  0  0  0  0  0  0
  188.7030  175.8370  143.6050 C   0  0  0  0  0  3  0  0  0  0  0  0
  193.5260  175.5600  141.4770 N   0  0  0  0  0  2  0  0  0  0  0  0
  197.2840  174.6450  141.7200 C   0  0  0  0  0  2  0  0  0  0  0  0
  191.7170  175.8630  143.2050 C   0  0  1  0  0  3  0  0  0  0  0  0
  190.6310  176.4850  146.6810 N   0  0  0  0  0  0  0  0  0  0  0  0
  195.8390  174.9070  142.0790 C   0  0  0  0  0  0  0  0  0  0  0  0
  197.1640  174.0060  139.3110 N   0  0  0  0  0  0  0  0  0  0  0  0
  189.0970  176.6080  144.6290 C   0  0  0  0  0  0  0  0  0  0  0  0
  194.0830  175.2050  143.7860 C   0  0  0  0  0  0  0  0  0  0  0  0
  195.2350  175.2910  139.6990 C   0  0  2  0  0  3  0  0  0  0  0  0
  193.1510  175.5300  142.8560 C   0  0  0  0  0  0  0  0  0  0  0  0
  196.0890  174.5030  145.7980 C   0  0  0  0  0  2  0  0  0  0  0  0
  189.4800  174.7890  142.9080 C   0  0  0  0  0  3  0  0  0  0  0  0
  196.4610  174.6540  144.3970 N   0  0  0  0  0  2  0  0  0  0  0  0
  190.8060  174.7620  142.7560 C   0  0  0  0  0  3  0  0  0  0  0  0
  190.4260  176.4550  145.2740 C   0  0  0  0  0  0  0  0  0  0  0  0
  194.9320  175.4370  146.1380 C   0  0  0  0  0  2  0  0  0  0  0  0
  192.5950  175.9360  145.5910 N   0  0  0  0  0  0  0  0  0  0  0  0
  188.1360  177.5430  145.1330 N   0  0  0  0  0  2  0  0  0  0  0  0
  187.0920  177.2490  146.1090 C   0  0  0  0  0  2  0  0  0  0  0  0
  183.9150  179.0410  145.7600 N   0  0  0  0  0  2  0  0  0  0  0  0
  185.7370  178.3920  144.3310 C   0  0  0  0  0  2  0  0  0  0  0  0
  185.7080  177.4570  145.5080 C   0  0  2  0  0  3  0  0  0  0  0  0
  184.3710  179.0330  144.3720 C   0  0  0  0  0  2  0  0  0  0  0  0
  184.8100  178.1560  146.5020 C   0  0  0  0  0  2  0  0  0  0  0  0
  1 27  1  0  0  0  0
  1 26  1  1  0  0  0
  3  7  1  6  0  0  0
  3 19  1  0  0  0  0
  4 18  1  0  0  0  0
  4 23  1  0  0  0  0
  5 11  1  0  0  0  0
  5 15  1  0  0  0  0
  7  6  1  0  0  0  0
  8 12  1  0  0  0  0
  9 25  2  0  0  0  0
  9 27  1  0  0  0  0
 10 17  2  0  0  0  0
 11 20  1  0  0  0  0
 12 15  1  0  0  0  0
 13 24  1  1  0  0  0
 13  9  1  0  0  0  0
 14  2  2  0  0  0  0
 15  4  2  0  0  0  0
 16  3  1  0  0  0  0
 16  8  2  0  0  0  0
 17 28  1  0  0  0  0
 17 25  1  0  0  0  0
 18  1  1  0  0  0  0
 19  6  1  6  0  0  0
 19  5  1  0  0  0  0
 20 13  1  0  0  0  0
 20 18  2  0  0  0  0
 21 26  1  0  0  0  0
 22 10  1  0  0  0  0
 23 21  1  0  0  0  0
 24 22  2  0  0  0  0
 25 14  1  0  0  0  0
 27  2  1  0  0  0  0
 28 29  1  0  0  0  0
 30 34  1  0  0  0  0
 31 33  1  0  0  0  0
 31 32  1  0  0  0  0
 32 29  1  1  0  0  0
 32 34  1  0  0  0  0
 33 30  1  0  0  0  0
M  END
>  <MODEL>
8

>  <REMARK>
 VINA RESULT:      -7.6      2.612      8.733
  Name = 
  3 active torsions:
  status: ('A' for Active; 'I' for Inactive)
    1  A    between atoms: C_17  and  N_28
    2  A    between atoms: N_28  and  C_29
    3  A    between atoms: C_29  and  C_32
                            x       y       z     vdW  Elec       q    Type
                         _______ _______ _______ _____ _____    ______ ____

>  <TORSDO>
F 3

$$$$
=
 OpenBabel11112417443D

 34 41  0  0  1  0  0  0  0  0999 V2000
  190.2300  174.5520  142.5990 C   0  0  1  0  0  3  0  0  0  0  0  0
  192.6600  174.1060  141.8310 C   0  0  0  0  0  3  0  0  0  0  0  0
  186.0390  177.3300  146.4780 C   0  0  1  0  0  3  0  0  0  0  0  0
  188.0400  175.7810  143.1830 C   0  0  0  0  0  0  0  0  0  0  0  0
  187.9350  177.2180  145.1040 N   0  0  0  0  0  0  0  0  0  0  0  0
  187.6070  178.4860  147.3060 C   0  0  0  0  0  2  0  0  0  0  0  0
  186.2560  177.9850  147.8220 C   0  0  0  0  0  2  0  0  0  0  0  0
  184.8160  177.3180  144.3270 C   0  0  0  0  0  3  0  0  0  0  0  0
  192.2990  175.3420  143.7430 C   0  0  0  0  0  0  0  0  0  0  0  0
  194.1930  175.2030  146.1300 C   0  0  0  0  0  3  0  0  0  0  0  0
  189.3070  177.0420  145.3430 N   0  0  0  0  0  2  0  0  0  0  0  0
  185.8540  176.8330  143.5950 C   0  0  0  0  0  3  0  0  0  0  0  0
  191.5430  175.9840  144.8600 C   0  0  1  0  0  3  0  0  0  0  0  0
  193.9080  174.3200  142.5610 N   0  0  0  0  0  0  0  0  0  0  0  0
  187.2980  176.5840  143.9660 C   0  0  0  0  0  0  0  0  0  0  0  0
  184.8560  177.6640  145.7260 N   0  0  0  0  0  2  0  0  0  0  0  0
  194.5430  175.3120  144.8400 C   0  0  0  0  0  0  0  0  0  0  0  0
  189.4800  175.5440  143.4730 C   0  0  0  0  0  0  0  0  0  0  0  0
  187.1520  178.1360  145.9020 C   0  0  2  0  0  3  0  0  0  0  0  0
  190.0810  176.1670  144.5170 C   0  0  0  0  0  0  0  0  0  0  0  0
  188.1920  174.1920  141.2200 C   0  0  0  0  0  2  0  0  0  0  0  0
  192.8560  174.8930  146.6840 C   0  0  0  0  0  3  0  0  0  0  0  0
  187.4650  175.1750  142.0140 N   0  0  0  0  0  2  0  0  0  0  0  0
  191.6820  175.1920  146.1240 C   0  0  0  0  0  3  0  0  0  0  0  0
  193.5850  175.0580  143.7330 C   0  0  0  0  0  0  0  0  0  0  0  0
  189.6750  174.5460  141.1770 C   0  0  0  0  0  2  0  0  0  0  0  0
  191.6570  174.8440  142.5880 N   0  0  0  0  0  0  0  0  0  0  0  0
  195.9180  175.6080  144.5730 N   0  0  0  0  0  2  0  0  0  0  0  0
  196.4160  176.7950  143.8880 C   0  0  0  0  0  2  0  0  0  0  0  0
  197.4380  174.4570  141.2580 N   0  0  0  0  0  2  0  0  0  0  0  0
  196.3780  176.6110  141.3840 C   0  0  0  0  0  2  0  0  0  0  0  0
  197.1910  176.4160  142.6320 C   0  0  2  0  0  3  0  0  0  0  0  0
  196.9310  175.5640  140.4490 C   0  0  0  0  0  2  0  0  0  0  0  0
  197.4950  174.9350  142.6370 C   0  0  0  0  0  2  0  0  0  0  0  0
  1 26  1  6  0  0  0
  1 18  1  0  0  0  0
  2 14  2  0  0  0  0
  2 27  1  0  0  0  0
  3  7  1  1  0  0  0
  4 18  1  0  0  0  0
  4 15  2  0  0  0  0
  5 11  1  0  0  0  0
  5 19  1  0  0  0  0
  6  7  1  0  0  0  0
  8 16  1  0  0  0  0
  9 13  1  0  0  0  0
 10 22  1  0  0  0  0
 12 15  1  0  0  0  0
 12  8  2  0  0  0  0
 13 24  1  1  0  0  0
 14 25  1  0  0  0  0
 15  5  1  0  0  0  0
 16  3  1  0  0  0  0
 17 10  2  0  0  0  0
 18 20  2  0  0  0  0
 19  3  1  0  0  0  0
 19  6  1  1  0  0  0
 20 13  1  0  0  0  0
 20 11  1  0  0  0  0
 21 23  1  0  0  0  0
 23  4  1  0  0  0  0
 24 22  2  0  0  0  0
 25  9  2  0  0  0  0
 25 17  1  0  0  0  0
 26 21  1  0  0  0  0
 27  1  1  0  0  0  0
 27  9  1  0  0  0  0
 28 17  1  0  0  0  0
 29 28  1  0  0  0  0
 30 34  1  0  0  0  0
 31 32  1  0  0  0  0
 32 34  1  0  0  0  0
 32 29  1  1  0  0  0
 33 30  1  0  0  0  0
 33 31  1  0  0  0  0
M  END
>  <MODEL>
9

>  <REMARK>
 VINA RESULT:      -7.5      2.040      2.881
  Name = 
  3 active torsions:
  status: ('A' for Active; 'I' for Inactive)
    1  A    between atoms: C_17  and  N_28
    2  A    between atoms: N_28  and  C_29
    3  A    between atoms: C_29  and  C_32
                            x       y       z     vdW  Elec       q    Type
                         _______ _______ _______ _____ _____    ______ ____

>  <TORSDO>
F 3

$$$$
