=
 OpenBabel11112418043D

 34 40  0  0  1  0  0  0  0  0999 V2000
  187.4260  177.0330  145.6000 C   0  0  0  0  0  0  0  0  0  0  0  0
  185.4330  178.4080  145.7010 O   0  0  0  0  0  0  0  0  0  0  0  0
  192.8260  175.7940  143.4810 C   0  0  1  0  0  3  0  0  0  0  0  0
  189.1510  175.3380  145.3010 C   0  0  0  0  0  0  0  0  0  0  0  0
  190.4100  175.2140  143.1320 N   0  0  2  0  0  0  0  0  0  0  0  0
  191.3130  177.3200  142.4720 O   0  0  0  0  0  1  0  0  0  0  0  0
  193.6500  176.7910  144.0030 O   0  0  0  0  0  1  0  0  0  0  0  0
  192.1700  174.5050  145.4000 O   0  0  0  0  0  0  0  0  0  0  0  0
  186.5610  178.3860  143.6310 C   0  0  1  0  0  3  0  0  0  0  0  0
  185.0280  178.5550  141.0160 C   0  0  0  0  0  2  0  0  0  0  0  0
  189.1840  175.7220  142.4870 C   0  0  0  0  0  2  0  0  0  0  0  0
  191.1100  173.6840  145.0130 C   0  0  0  0  0  2  0  0  0  0  0  0
  187.1570  177.2610  142.7520 C   0  0  2  0  0  3  0  0  0  0  0  0
  184.4430  178.3290  144.7110 C   0  0  0  0  0  2  0  0  0  0  0  0
  189.9890  174.5000  144.3570 C   0  0  1  0  0  3  0  0  0  0  0  0
  193.0120  174.5140  144.2870 C   0  0  0  0  0  2  0  0  0  0  0  0
  184.4880  177.9940  142.2480 N   0  0  0  0  0  0  0  0  0  0  0  0
  188.3390  176.3600  144.7730 C   0  0  0  0  0  0  0  0  0  0  0  0
  191.3770  176.3010  143.4310 C   0  0  2  0  0  3  0  0  0  0  0  0
  188.4940  176.8030  143.3420 C   0  0  1  0  0  3  0  0  0  0  0  0
  188.1260  175.6660  147.4780 C   0  0  0  0  0  3  0  0  0  0  0  0
  186.1400  177.6670  140.4870 C   0  0  0  0  0  2  0  0  0  0  0  0
  189.0220  174.9850  146.6520 C   0  0  0  0  0  3  0  0  0  0  0  0
  187.3890  177.8000  141.3420 C   0  0  0  0  0  2  0  0  0  0  0  0
  185.0890  178.7210  143.3780 C   0  0  2  0  0  3  0  0  0  0  0  0
  187.3270  176.6830  146.9520 C   0  0  0  0  0  3  0  0  0  0  0  0
  186.5600  178.0370  145.0450 N   0  0  0  0  0  0  0  0  0  0  0  0
  183.0620  178.2910  142.2050 C   0  0  0  0  0  2  0  0  0  0  0  0
  182.5750  178.2480  140.7670 C   0  0  0  0  0  2  0  0  0  0  0  0
  179.0800  178.0480  140.8230 N   0  0  0  0  0  2  0  0  0  0  0  0
  180.8170  179.1580  142.0170 C   0  0  0  0  0  2  0  0  0  0  0  0
  181.2810  178.9000  140.6650 N   0  0  0  0  0  0  0  0  0  0  0  0
  179.4040  178.6340  142.1100 C   0  0  0  0  0  2  0  0  0  0  0  0
  180.3520  177.9160  140.1330 C   0  0  0  0  0  2  0  0  0  0  0  0
  1 26  1  0  0  0  0
  3  7  1  1  0  0  0
  3 16  1  0  0  0  0
  4 23  2  0  0  0  0
  5 11  1  1  0  0  0
  5 19  1  0  0  0  0
  5 15  1  0  0  0  0
  9 27  1  1  0  0  0
 10 17  1  0  0  0  0
 12  8  1  0  0  0  0
 13 24  1  6  0  0  0
 13 20  1  0  0  0  0
 13  9  1  0  0  0  0
 14  2  1  0  0  0  0
 15 12  1  1  0  0  0
 15  4  1  0  0  0  0
 16  8  1  0  0  0  0
 17 25  1  0  0  0  0
 18  4  1  0  0  0  0
 18  1  2  0  0  0  0
 19  6  1  6  0  0  0
 19  3  1  0  0  0  0
 20 11  1  6  0  0  0
 20 18  1  0  0  0  0
 22 10  1  0  0  0  0
 22 24  1  0  0  0  0
 23 21  1  0  0  0  0
 25  9  1  0  0  0  0
 25 14  1  1  0  0  0
 26 21  2  0  0  0  0
 27  1  1  0  0  0  0
 27  2  1  0  0  0  0
 28 17  1  0  0  0  0
 29 28  1  0  0  0  0
 30 33  1  0  0  0  0
 31 33  1  0  0  0  0
 32 29  1  0  0  0  0
 32 31  1  0  0  0  0
 34 32  1  0  0  0  0
 34 30  1  0  0  0  0
M  END
>  <MODEL>
1

>  <REMARK>
 VINA RESULT:      -9.1      0.000      0.000
  Name = 
  3 active torsions:
  status: ('A' for Active; 'I' for Inactive)
    1  A    between atoms: N_17  and  C_28
    2  A    between atoms: C_28  and  C_29
    3  A    between atoms: C_29  and  N_32
                            x       y       z     vdW  Elec       q    Type
                         _______ _______ _______ _____ _____    ______ ____

>  <TORSDO>
F 3

$$$$
=
 OpenBabel11112418043D

 34 40  0  0  1  0  0  0  0  0999 V2000
  189.7070  177.6600  143.4000 C   0  0  0  0  0  0  0  0  0  0  0  0
  191.9410  177.5470  142.4680 O   0  0  0  0  0  0  0  0  0  0  0  0
  185.9450  178.7680  147.8510 C   0  0  1  0  0  3  0  0  0  0  0  0
  187.4710  177.3120  144.3050 C   0  0  0  0  0  0  0  0  0  0  0  0
  187.1770  176.8740  146.7600 N   0  0  2  0  0  0  0  0  0  0  0  0
  188.2870  178.4880  148.1200 O   0  0  0  0  0  1  0  0  0  0  0  0
  185.9850  180.1530  148.0130 O   0  0  0  0  0  1  0  0  0  0  0  0
  184.9110  178.4560  145.7040 O   0  0  0  0  0  0  0  0  0  0  0  0
  191.7760  177.1550  144.7860 C   0  0  1  0  0  3  0  0  0  0  0  0
  193.6050  175.1630  146.1660 C   0  0  0  0  0  2  0  0  0  0  0  0
  188.5050  176.2340  146.7200 C   0  0  0  0  0  2  0  0  0  0  0  0
  185.1120  177.1260  145.3310 C   0  0  0  0  0  2  0  0  0  0  0  0
  190.8330  176.2930  145.6590 C   0  0  2  0  0  3  0  0  0  0  0  0
  192.7940  176.4700  142.7490 C   0  0  0  0  0  2  0  0  0  0  0  0
  186.5960  176.7470  145.4050 C   0  0  1  0  0  3  0  0  0  0  0  0
  184.6860  178.3890  147.0790 C   0  0  0  0  0  2  0  0  0  0  0  0
  193.2090  175.0780  144.7660 N   0  0  0  0  0  0  0  0  0  0  0  0
  188.8690  177.3060  144.4700 C   0  0  0  0  0  0  0  0  0  0  0  0
  187.2510  178.2910  147.1980 C   0  0  2  0  0  3  0  0  0  0  0  0
  189.4840  177.0030  145.8100 C   0  0  1  0  0  3  0  0  0  0  0  0
  187.7590  178.0200  142.0000 C   0  0  0  0  0  3  0  0  0  0  0  0
  192.4030  174.9160  147.0600 C   0  0  0  0  0  2  0  0  0  0  0  0
  186.9270  177.6520  143.0580 C   0  0  0  0  0  3  0  0  0  0  0  0
  191.4610  176.1080  147.0380 C   0  0  0  0  0  2  0  0  0  0  0  0
  193.0300  176.4500  144.2630 C   0  0  2  0  0  3  0  0  0  0  0  0
  189.1460  178.0190  142.1690 C   0  0  0  0  0  3  0  0  0  0  0  0
  191.1340  177.5990  143.5560 N   0  0  0  0  0  0  0  0  0  0  0  0
  194.3470  174.4740  144.0870 C   0  0  0  0  0  2  0  0  0  0  0  0
  195.6380  175.0300  144.6610 C   0  0  0  0  0  2  0  0  0  0  0  0
  196.3260  175.4470  141.2530 N   0  0  0  0  0  2  0  0  0  0  0  0
  196.5940  176.6630  143.2840 C   0  0  0  0  0  2  0  0  0  0  0  0
  196.6010  175.2450  143.5940 N   0  0  0  0  0  0  0  0  0  0  0  0
  196.4410  176.7910  141.7870 C   0  0  0  0  0  2  0  0  0  0  0  0
  196.0650  174.6000  142.4060 C   0  0  0  0  0  2  0  0  0  0  0  0
  1 27  1  0  0  0  0
  1 18  1  0  0  0  0
  2 14  1  0  0  0  0
  2 27  1  0  0  0  0
  3  7  1  6  0  0  0
  4 18  2  0  0  0  0
  4 15  1  0  0  0  0
  5 11  1  6  0  0  0
  5 19  1  0  0  0  0
  8 16  1  0  0  0  0
  9 27  1  6  0  0  0
  9 13  1  0  0  0  0
 10 22  1  0  0  0  0
 12  8  1  0  0  0  0
 13 20  1  0  0  0  0
 13 24  1  1  0  0  0
 15 12  1  1  0  0  0
 15  5  1  0  0  0  0
 16  3  1  0  0  0  0
 17 10  1  0  0  0  0
 18 20  1  0  0  0  0
 19  3  1  0  0  0  0
 19  6  1  1  0  0  0
 20 11  1  1  0  0  0
 21 26  1  0  0  0  0
 21 23  2  0  0  0  0
 23  4  1  0  0  0  0
 24 22  1  0  0  0  0
 25 14  1  6  0  0  0
 25 17  1  0  0  0  0
 25  9  1  0  0  0  0
 26  1  2  0  0  0  0
 28 29  1  0  0  0  0
 28 17  1  0  0  0  0
 30 33  1  0  0  0  0
 30 34  1  0  0  0  0
 31 32  1  0  0  0  0
 32 29  1  0  0  0  0
 33 31  1  0  0  0  0
 34 32  1  0  0  0  0
M  END
>  <MODEL>
2

>  <REMARK>
 VINA RESULT:      -8.9      3.712      9.332
  Name = 
  3 active torsions:
  status: ('A' for Active; 'I' for Inactive)
    1  A    between atoms: N_17  and  C_28
    2  A    between atoms: C_28  and  C_29
    3  A    between atoms: C_29  and  N_32
                            x       y       z     vdW  Elec       q    Type
                         _______ _______ _______ _____ _____    ______ ____

>  <TORSDO>
F 3

$$$$
=
 OpenBabel11112418043D

 34 40  0  0  1  0  0  0  0  0999 V2000
  189.7320  177.6790  143.4000 C   0  0  0  0  0  0  0  0  0  0  0  0
  191.9630  177.5620  142.4580 O   0  0  0  0  0  0  0  0  0  0  0  0
  185.9940  178.7460  147.8790 C   0  0  1  0  0  3  0  0  0  0  0  0
  187.4960  177.3340  144.3060 C   0  0  0  0  0  0  0  0  0  0  0  0
  187.2060  176.8600  146.7540 N   0  0  2  0  0  0  0  0  0  0  0  0
  188.3340  178.4420  148.1360 O   0  0  0  0  0  1  0  0  0  0  0  0
  186.0460  180.1270  148.0630 O   0  0  0  0  0  1  0  0  0  0  0  0
  184.9500  178.4760  145.7310 O   0  0  0  0  0  0  0  0  0  0  0  0
  191.8020  177.1340  144.7700 C   0  0  1  0  0  3  0  0  0  0  0  0
  193.6190  175.1060  146.1120 C   0  0  0  0  0  2  0  0  0  0  0  0
  188.5290  176.2090  146.7000 C   0  0  0  0  0  2  0  0  0  0  0  0
  185.1390  177.1510  145.3360 C   0  0  0  0  0  2  0  0  0  0  0  0
  190.8540  176.2660  145.6320 C   0  0  2  0  0  3  0  0  0  0  0  0
  192.8070  176.4750  142.7190 C   0  0  0  0  0  2  0  0  0  0  0  0
  186.6210  176.7590  145.3990 C   0  0  1  0  0  3  0  0  0  0  0  0
  184.7290  178.3890  147.1060 C   0  0  0  0  0  2  0  0  0  0  0  0
  193.2170  175.0470  144.7130 N   0  0  0  0  0  0  0  0  0  0  0  0
  188.8950  177.3140  144.4660 C   0  0  0  0  0  0  0  0  0  0  0  0
  187.2930  178.2690  147.2140 C   0  0  2  0  0  3  0  0  0  0  0  0
  189.5110  176.9840  145.8000 C   0  0  1  0  0  3  0  0  0  0  0  0
  187.7830  178.0770  142.0110 C   0  0  0  0  0  3  0  0  0  0  0  0
  192.4180  174.8540  147.0060 C   0  0  0  0  0  2  0  0  0  0  0  0
  186.9510  177.6990  143.0660 C   0  0  0  0  0  3  0  0  0  0  0  0
  191.4850  176.0540  147.0060 C   0  0  0  0  0  2  0  0  0  0  0  0
  193.0480  176.4280  144.2320 C   0  0  2  0  0  3  0  0  0  0  0  0
  189.1700  178.0620  142.1760 C   0  0  0  0  0  3  0  0  0  0  0  0
  191.1590  177.6030  143.5490 N   0  0  0  0  0  0  0  0  0  0  0  0
  194.3490  174.4440  144.0200 C   0  0  0  0  0  2  0  0  0  0  0  0
  195.6250  174.7140  144.7970 C   0  0  0  0  0  2  0  0  0  0  0  0
  196.8970  171.7060  146.0590 N   0  0  0  0  0  2  0  0  0  0  0  0
  195.7680  172.4820  144.1100 C   0  0  0  0  0  2  0  0  0  0  0  0
  196.5290  173.5840  144.6690 N   0  0  0  0  0  0  0  0  0  0  0  0
  196.0210  171.2770  144.9850 C   0  0  0  0  0  2  0  0  0  0  0  0
  196.8680  173.1580  146.0170 C   0  0  0  0  0  2  0  0  0  0  0  0
  1 27  1  0  0  0  0
  1 18  1  0  0  0  0
  2 14  1  0  0  0  0
  2 27  1  0  0  0  0
  3  7  1  6  0  0  0
  4 18  2  0  0  0  0
  4 15  1  0  0  0  0
  5 11  1  6  0  0  0
  5 19  1  0  0  0  0
  8 16  1  0  0  0  0
  9 27  1  6  0  0  0
  9 13  1  0  0  0  0
 10 22  1  0  0  0  0
 12  8  1  0  0  0  0
 13 20  1  0  0  0  0
 13 24  1  1  0  0  0
 15 12  1  1  0  0  0
 15  5  1  0  0  0  0
 16  3  1  0  0  0  0
 17 10  1  0  0  0  0
 18 20  1  0  0  0  0
 19  3  1  0  0  0  0
 19  6  1  1  0  0  0
 20 11  1  6  0  0  0
 21 26  1  0  0  0  0
 21 23  2  0  0  0  0
 23  4  1  0  0  0  0
 24 22  1  0  0  0  0
 25 14  1  6  0  0  0
 25 17  1  0  0  0  0
 25  9  1  0  0  0  0
 26  1  2  0  0  0  0
 28 17  1  0  0  0  0
 28 29  1  0  0  0  0
 31 32  1  0  0  0  0
 31 33  1  0  0  0  0
 32 29  1  0  0  0  0
 32 34  1  0  0  0  0
 33 30  1  0  0  0  0
 34 30  1  0  0  0  0
M  END
>  <MODEL>
3

>  <REMARK>
 VINA RESULT:      -8.5      3.721      9.688
  Name = 
  3 active torsions:
  status: ('A' for Active; 'I' for Inactive)
    1  A    between atoms: N_17  and  C_28
    2  A    between atoms: C_28  and  C_29
    3  A    between atoms: C_29  and  N_32
                            x       y       z     vdW  Elec       q    Type
                         _______ _______ _______ _____ _____    ______ ____

>  <TORSDO>
F 3

$$$$
=
 OpenBabel11112418043D

 34 40  0  0  1  0  0  0  0  0999 V2000
  189.7010  177.6880  143.3860 C   0  0  0  0  0  0  0  0  0  0  0  0
  191.9410  177.5550  142.4710 O   0  0  0  0  0  0  0  0  0  0  0  0
  185.9190  178.7770  147.8250 C   0  0  1  0  0  3  0  0  0  0  0  0
  187.4520  177.3600  144.2650 C   0  0  0  0  0  0  0  0  0  0  0  0
  187.1290  176.8830  146.7090 N   0  0  2  0  0  0  0  0  0  0  0  0
  188.2530  178.4520  148.1080 O   0  0  0  0  0  1  0  0  0  0  0  0
  185.9810  180.1580  148.0130 O   0  0  0  0  0  1  0  0  0  0  0  0
  184.8990  178.5210  145.6640 O   0  0  0  0  0  0  0  0  0  0  0  0
  191.7490  177.1230  144.7790 C   0  0  1  0  0  3  0  0  0  0  0  0
  193.5330  175.0770  146.1380 C   0  0  0  0  0  2  0  0  0  0  0  0
  188.4470  176.2210  146.6690 C   0  0  0  0  0  2  0  0  0  0  0  0
  185.0810  177.1950  145.2680 C   0  0  0  0  0  2  0  0  0  0  0  0
  190.7840  176.2610  145.6290 C   0  0  2  0  0  3  0  0  0  0  0  0
  192.7730  176.4590  142.7390 C   0  0  0  0  0  2  0  0  0  0  0  0
  186.5580  176.7900  145.3470 C   0  0  1  0  0  3  0  0  0  0  0  0
  184.6610  178.4320  147.0360 C   0  0  0  0  0  2  0  0  0  0  0  0
  193.1470  175.0240  144.7340 N   0  0  0  0  0  0  0  0  0  0  0  0
  188.8480  177.3280  144.4420 C   0  0  0  0  0  0  0  0  0  0  0  0
  187.2220  178.2900  147.1740 C   0  0  2  0  0  3  0  0  0  0  0  0
  189.4460  176.9900  145.7820 C   0  0  1  0  0  3  0  0  0  0  0  0
  187.7720  178.1060  141.9760 C   0  0  0  0  0  3  0  0  0  0  0  0
  192.3200  174.8330  147.0180 C   0  0  0  0  0  2  0  0  0  0  0  0
  186.9240  177.7330  143.0200 C   0  0  0  0  0  3  0  0  0  0  0  0
  191.3970  176.0400  147.0100 C   0  0  0  0  0  2  0  0  0  0  0  0
  192.9960  176.4070  144.2540 C   0  0  2  0  0  3  0  0  0  0  0  0
  189.1560  178.0790  142.1570 C   0  0  0  0  0  3  0  0  0  0  0  0
  191.1250  177.6000  143.5530 N   0  0  0  0  0  0  0  0  0  0  0  0
  194.2820  174.4130  144.0530 C   0  0  0  0  0  2  0  0  0  0  0  0
  193.9230  173.0000  143.6310 C   0  0  0  0  0  2  0  0  0  0  0  0
  191.2810  171.8700  141.6300 N   0  0  0  0  0  2  0  0  0  0  0  0
  192.0480  171.6210  143.8720 C   0  0  0  0  0  2  0  0  0  0  0  0
  192.4960  172.9090  143.3740 N   0  0  0  0  0  0  0  0  0  0  0  0
  191.2530  170.9680  142.7660 C   0  0  0  0  0  2  0  0  0  0  0  0
  192.3300  172.8290  141.9310 C   0  0  0  0  0  2  0  0  0  0  0  0
  1 27  1  0  0  0  0
  1 18  1  0  0  0  0
  2 14  1  0  0  0  0
  2 27  1  0  0  0  0
  3  7  1  6  0  0  0
  4 18  2  0  0  0  0
  4 15  1  0  0  0  0
  5 11  1  6  0  0  0
  5 19  1  0  0  0  0
  8 16  1  0  0  0  0
  9 27  1  6  0  0  0
  9 13  1  0  0  0  0
 10 22  1  0  0  0  0
 12  8  1  0  0  0  0
 13 20  1  0  0  0  0
 13 24  1  1  0  0  0
 15 12  1  1  0  0  0
 15  5  1  0  0  0  0
 16  3  1  0  0  0  0
 17 10  1  0  0  0  0
 18 20  1  0  0  0  0
 19  3  1  0  0  0  0
 19  6  1  1  0  0  0
 20 11  1  6  0  0  0
 21 26  1  0  0  0  0
 21 23  2  0  0  0  0
 23  4  1  0  0  0  0
 24 22  1  0  0  0  0
 25 14  1  6  0  0  0
 25 17  1  0  0  0  0
 25  9  1  0  0  0  0
 26  1  2  0  0  0  0
 28 17  1  0  0  0  0
 29 28  1  0  0  0  0
 30 34  1  0  0  0  0
 30 33  1  0  0  0  0
 32 29  1  0  0  0  0
 32 31  1  0  0  0  0
 33 31  1  0  0  0  0
 34 32  1  0  0  0  0
M  END
>  <MODEL>
4

>  <REMARK>
 VINA RESULT:      -8.2      3.674      8.520
  Name = 
  3 active torsions:
  status: ('A' for Active; 'I' for Inactive)
    1  A    between atoms: N_17  and  C_28
    2  A    between atoms: C_28  and  C_29
    3  A    between atoms: C_29  and  N_32
                            x       y       z     vdW  Elec       q    Type
                         _______ _______ _______ _____ _____    ______ ____

>  <TORSDO>
F 3

$$$$
=
 OpenBabel11112418043D

 34 40  0  0  1  0  0  0  0  0999 V2000
  190.4560  174.9500  143.8750 C   0  0  0  0  0  0  0  0  0  0  0  0
  190.1120  177.0930  144.9540 O   0  0  0  0  0  0  0  0  0  0  0  0
  191.1300  171.5730  139.0460 C   0  0  1  0  0  3  0  0  0  0  0  0
  190.3750  172.7000  142.9420 C   0  0  0  0  0  0  0  0  0  0  0  0
  189.3740  172.3320  140.6690 N   0  0  2  0  0  0  0  0  0  0  0  0
  190.2850  173.7910  139.0170 O   0  0  0  0  0  1  0  0  0  0  0  0
  192.3780  171.9290  138.5350 O   0  0  0  0  0  1  0  0  0  0  0  0
  191.6340  170.4790  141.1250 O   0  0  0  0  0  0  0  0  0  0  0  0
  189.1610  176.8600  142.8100 C   0  0  1  0  0  3  0  0  0  0  0  0
  186.5250  178.1960  142.1170 C   0  0  0  0  0  2  0  0  0  0  0  0
  188.4940  173.4790  140.9620 C   0  0  0  0  0  2  0  0  0  0  0  0
  190.4410  170.3690  141.8420 C   0  0  0  0  0  2  0  0  0  0  0  0
  188.3250  175.7510  142.1270 C   0  0  2  0  0  3  0  0  0  0  0  0
  188.8400  177.6800  145.0180 C   0  0  0  0  0  2  0  0  0  0  0  0
  189.7420  171.7280  141.9680 C   0  0  1  0  0  3  0  0  0  0  0  0
  191.2540  170.2550  139.8020 C   0  0  0  0  0  2  0  0  0  0  0  0
  186.9050  177.7810  143.4610 N   0  0  0  0  0  0  0  0  0  0  0  0
  190.0210  174.0620  142.8790 C   0  0  0  0  0  0  0  0  0  0  0  0
  190.5720  172.7310  139.8860 C   0  0  2  0  0  3  0  0  0  0  0  0
  189.2450  174.6010  141.7070 C   0  0  1  0  0  3  0  0  0  0  0  0
  191.5920  173.1260  145.0000 C   0  0  0  0  0  3  0  0  0  0  0  0
  186.3160  176.9760  141.2380 C   0  0  0  0  0  2  0  0  0  0  0  0
  191.1460  172.2400  144.0190 C   0  0  0  0  0  3  0  0  0  0  0  0
  187.6470  176.3300  140.8880 C   0  0  0  0  0  2  0  0  0  0  0  0
  188.3660  177.9160  143.5810 C   0  0  2  0  0  3  0  0  0  0  0  0
  191.2440  174.4770  144.9310 C   0  0  0  0  0  3  0  0  0  0  0  0
  190.0460  176.3270  143.8380 N   0  0  0  0  0  0  0  0  0  0  0  0
  186.2700  178.7470  144.3490 C   0  0  0  0  0  2  0  0  0  0  0  0
  184.8460  178.3100  144.6440 C   0  0  0  0  0  2  0  0  0  0  0  0
  185.9420  176.8630  147.6380 N   0  0  0  0  0  2  0  0  0  0  0  0
  185.5600  179.0410  146.7490 C   0  0  0  0  0  2  0  0  0  0  0  0
  184.6780  178.1070  146.0720 N   0  0  0  0  0  0  0  0  0  0  0  0
  186.3500  178.2500  147.7640 C   0  0  0  0  0  2  0  0  0  0  0  0
  185.2180  176.7930  146.3790 C   0  0  0  0  0  2  0  0  0  0  0  0
  1 26  1  0  0  0  0
  2 14  1  0  0  0  0
  3  7  1  1  0  0  0
  3 16  1  0  0  0  0
  3 19  1  0  0  0  0
  4 23  2  0  0  0  0
  5 11  1  1  0  0  0
  5 15  1  0  0  0  0
  8 12  1  0  0  0  0
  9 25  1  0  0  0  0
  9 27  1  1  0  0  0
 10 17  1  0  0  0  0
 13 24  1  6  0  0  0
 13  9  1  0  0  0  0
 15 12  1  6  0  0  0
 15  4  1  0  0  0  0
 16  8  1  0  0  0  0
 17 25  1  0  0  0  0
 17 28  1  0  0  0  0
 18  4  1  0  0  0  0
 18  1  2  0  0  0  0
 19  6  1  6  0  0  0
 19  5  1  0  0  0  0
 20 11  1  1  0  0  0
 20 13  1  0  0  0  0
 20 18  1  0  0  0  0
 22 10  1  0  0  0  0
 23 21  1  0  0  0  0
 24 22  1  0  0  0  0
 25 14  1  1  0  0  0
 26 21  2  0  0  0  0
 27  1  1  0  0  0  0
 27  2  1  0  0  0  0
 28 29  1  0  0  0  0
 29 32  1  0  0  0  0
 30 33  1  0  0  0  0
 31 33  1  0  0  0  0
 32 34  1  0  0  0  0
 32 31  1  0  0  0  0
 34 30  1  0  0  0  0
M  END
>  <MODEL>
5

>  <REMARK>
 VINA RESULT:      -7.9      3.197      5.031
  Name = 
  3 active torsions:
  status: ('A' for Active; 'I' for Inactive)
    1  A    between atoms: N_17  and  C_28
    2  A    between atoms: C_28  and  C_29
    3  A    between atoms: C_29  and  N_32
                            x       y       z     vdW  Elec       q    Type
                         _______ _______ _______ _____ _____    ______ ____

>  <TORSDO>
F 3

$$$$
=
 OpenBabel11112418043D

 34 40  0  0  1  0  0  0  0  0999 V2000
  191.8220  174.7600  142.6150 C   0  0  0  0  0  0  0  0  0  0  0  0
  189.4020  174.6320  142.6610 O   0  0  0  0  0  0  0  0  0  0  0  0
  197.1420  174.1660  145.1700 C   0  0  1  0  0  3  0  0  0  0  0  0
  194.1860  175.3460  142.5440 C   0  0  0  0  0  0  0  0  0  0  0  0
  195.3950  175.8970  144.6740 N   0  0  2  0  0  0  0  0  0  0  0  0
  195.0890  174.2380  146.3600 O   0  0  0  0  0  1  0  0  0  0  0  0
  197.3080  172.7900  145.3290 O   0  0  0  0  0  1  0  0  0  0  0  0
  197.1920  174.4940  142.7900 O   0  0  0  0  0  0  0  0  0  0  0  0
  190.4420  175.1210  144.7180 C   0  0  1  0  0  3  0  0  0  0  0  0
  189.1320  176.9840  146.7250 C   0  0  0  0  0  2  0  0  0  0  0  0
  194.1060  176.4100  145.1760 C   0  0  0  0  0  2  0  0  0  0  0  0
  196.7270  175.7860  142.5340 C   0  0  0  0  0  2  0  0  0  0  0  0
  191.5660  176.0980  145.1410 C   0  0  2  0  0  3  0  0  0  0  0  0
  188.6310  175.6340  143.2650 C   0  0  0  0  0  2  0  0  0  0  0  0
  195.3680  176.0280  143.2010 C   0  0  1  0  0  3  0  0  0  0  0  0
  197.9410  174.6320  143.9590 C   0  0  0  0  0  2  0  0  0  0  0  0
  188.9240  177.0540  145.2850 N   0  0  0  0  0  0  0  0  0  0  0  0
  192.9780  175.2280  143.2580 C   0  0  0  0  0  0  0  0  0  0  0  0
  195.6430  174.4960  145.0990 C   0  0  2  0  0  3  0  0  0  0  0  0
  192.9260  175.5220  144.7340 C   0  0  1  0  0  3  0  0  0  0  0  0
  193.0700  174.5300  140.5470 C   0  0  0  0  0  3  0  0  0  0  0  0
  190.5610  177.3730  147.0610 C   0  0  0  0  0  2  0  0  0  0  0  0
  194.2150  175.0120  141.1820 C   0  0  0  0  0  3  0  0  0  0  0  0
  191.5290  176.2740  146.6570 C   0  0  0  0  0  2  0  0  0  0  0  0
  189.0210  175.6880  144.7460 C   0  0  2  0  0  3  0  0  0  0  0  0
  191.8750  174.4100  141.2600 C   0  0  0  0  0  3  0  0  0  0  0  0
  190.5780  174.6940  143.3310 N   0  0  0  0  0  0  0  0  0  0  0  0
  187.5550  177.5260  145.1240 C   0  0  0  0  0  2  0  0  0  0  0  0
  186.6790  176.9310  146.2120 C   0  0  0  0  0  2  0  0  0  0  0  0
  183.7820  178.8570  145.8110 N   0  0  0  0  0  2  0  0  0  0  0  0
  185.2390  177.5340  144.4680 C   0  0  0  0  0  2  0  0  0  0  0  0
  185.2810  177.0270  145.8280 N   0  0  0  0  0  0  0  0  0  0  0  0
  184.2650  178.6880  144.4540 C   0  0  0  0  0  2  0  0  0  0  0  0
  184.6910  178.0800  146.6380 C   0  0  0  0  0  2  0  0  0  0  0  0
  1 18  1  0  0  0  0
  1 27  1  0  0  0  0
  2 14  1  0  0  0  0
  2 27  1  0  0  0  0
  3  7  1  6  0  0  0
  4 15  1  0  0  0  0
  4 18  2  0  0  0  0
  5 19  1  0  0  0  0
  5 11  1  1  0  0  0
  8 16  1  0  0  0  0
  9 27  1  6  0  0  0
  9 25  1  0  0  0  0
  9 13  1  0  0  0  0
 10 22  1  0  0  0  0
 12  8  1  0  0  0  0
 13 24  1  1  0  0  0
 15 12  1  6  0  0  0
 15  5  1  0  0  0  0
 16  3  1  0  0  0  0
 17 10  1  0  0  0  0
 18 20  1  0  0  0  0
 19  3  1  0  0  0  0
 19  6  1  1  0  0  0
 20 13  1  0  0  0  0
 20 11  1  6  0  0  0
 21 23  2  0  0  0  0
 21 26  1  0  0  0  0
 23  4  1  0  0  0  0
 24 22  1  0  0  0  0
 25 14  1  6  0  0  0
 25 17  1  0  0  0  0
 26  1  2  0  0  0  0
 28 17  1  0  0  0  0
 28 29  1  0  0  0  0
 30 34  1  0  0  0  0
 31 32  1  0  0  0  0
 32 29  1  0  0  0  0
 32 34  1  0  0  0  0
 33 31  1  0  0  0  0
 33 30  1  0  0  0  0
M  END
>  <MODEL>
6

>  <REMARK>
 VINA RESULT:      -7.9      3.193      6.115
  Name = 
  3 active torsions:
  status: ('A' for Active; 'I' for Inactive)
    1  A    between atoms: N_17  and  C_28
    2  A    between atoms: C_28  and  C_29
    3  A    between atoms: C_29  and  N_32
                            x       y       z     vdW  Elec       q    Type
                         _______ _______ _______ _____ _____    ______ ____

>  <TORSDO>
F 3

$$$$
=
 OpenBabel11112418043D

 34 40  0  0  1  0  0  0  0  0999 V2000
  191.4750  174.3020  141.5650 C   0  0  0  0  0  0  0  0  0  0  0  0
  189.1310  173.9350  141.0700 O   0  0  0  0  0  0  0  0  0  0  0  0
  196.0510  174.5510  145.3310 C   0  0  1  0  0  3  0  0  0  0  0  0
  193.7390  175.1130  141.9600 C   0  0  0  0  0  0  0  0  0  0  0  0
  194.3560  176.0270  144.2160 N   0  0  2  0  0  0  0  0  0  0  0  0
  193.7720  174.5520  145.9960 O   0  0  0  0  0  1  0  0  0  0  0  0
  196.2710  173.2270  145.7100 O   0  0  0  0  0  1  0  0  0  0  0  0
  196.6500  174.6060  143.0040 O   0  0  0  0  0  0  0  0  0  0  0  0
  189.6070  174.7620  143.2250 C   0  0  1  0  0  3  0  0  0  0  0  0
  187.7230  176.7020  144.6040 C   0  0  0  0  0  2  0  0  0  0  0  0
  192.9510  176.4610  144.3330 C   0  0  0  0  0  2  0  0  0  0  0  0
  196.1700  175.8050  142.4750 C   0  0  0  0  0  2  0  0  0  0  0  0
  190.5240  175.8900  143.7580 C   0  0  2  0  0  3  0  0  0  0  0  0
  188.1680  174.9180  141.3390 C   0  0  0  0  0  2  0  0  0  0  0  0
  194.6760  175.9840  142.7720 C   0  0  1  0  0  3  0  0  0  0  0  0
  197.0840  174.9530  144.2840 C   0  0  0  0  0  2  0  0  0  0  0  0
  187.8630  176.5840  143.1590 N   0  0  0  0  0  0  0  0  0  0  0  0
  192.4060  174.9570  142.3860 C   0  0  0  0  0  0  0  0  0  0  0  0
  194.5940  174.7170  144.8740 C   0  0  2  0  0  3  0  0  0  0  0  0
  191.9790  175.4120  143.7570 C   0  0  1  0  0  3  0  0  0  0  0  0
  193.1980  173.9630  139.8910 C   0  0  0  0  0  3  0  0  0  0  0  0
  188.9970  177.2710  145.2030 C   0  0  0  0  0  2  0  0  0  0  0  0
  194.1190  174.6290  140.7000 C   0  0  0  0  0  3  0  0  0  0  0  0
  190.1100  176.2360  145.1860 C   0  0  0  0  0  2  0  0  0  0  0  0
  188.1850  175.1810  142.8490 C   0  0  2  0  0  3  0  0  0  0  0  0
  191.8780  173.8050  140.3190 C   0  0  0  0  0  3  0  0  0  0  0  0
  190.1030  174.1940  141.9790 N   0  0  0  0  0  0  0  0  0  0  0  0
  186.5430  176.8920  142.6250 C   0  0  0  0  0  2  0  0  0  0  0  0
  186.5140  178.3290  142.1340 C   0  0  0  0  0  2  0  0  0  0  0  0
  184.0520  178.5080  144.6170 N   0  0  0  0  0  2  0  0  0  0  0  0
  185.9430  179.7630  143.8930 C   0  0  0  0  0  2  0  0  0  0  0  0
  185.4080  179.0390  142.7530 N   0  0  0  0  0  0  0  0  0  0  0  0
  185.0630  179.4410  145.0770 C   0  0  0  0  0  2  0  0  0  0  0  0
  184.5290  178.0340  143.3290 C   0  0  0  0  0  2  0  0  0  0  0  0
  1 27  1  0  0  0  0
  1 18  1  0  0  0  0
  2 14  1  0  0  0  0
  2 27  1  0  0  0  0
  3  7  1  6  0  0  0
  4 18  2  0  0  0  0
  4 15  1  0  0  0  0
  5 11  1  6  0  0  0
  5 19  1  0  0  0  0
  8 16  1  0  0  0  0
  9 27  1  6  0  0  0
  9 13  1  0  0  0  0
 10 22  1  0  0  0  0
 12  8  1  0  0  0  0
 13 24  1  1  0  0  0
 15 12  1  1  0  0  0
 15  5  1  0  0  0  0
 16  3  1  0  0  0  0
 17 10  1  0  0  0  0
 18 20  1  0  0  0  0
 19  3  1  0  0  0  0
 19  6  1  1  0  0  0
 20 13  1  0  0  0  0
 20 11  1  6  0  0  0
 21 26  1  0  0  0  0
 21 23  2  0  0  0  0
 23  4  1  0  0  0  0
 24 22  1  0  0  0  0
 25 14  1  6  0  0  0
 25 17  1  0  0  0  0
 25  9  1  0  0  0  0
 26  1  2  0  0  0  0
 28 17  1  0  0  0  0
 29 28  1  0  0  0  0
 29 32  1  0  0  0  0
 30 33  1  0  0  0  0
 31 33  1  0  0  0  0
 32 34  1  0  0  0  0
 32 31  1  0  0  0  0
 34 30  1  0  0  0  0
M  END
>  <MODEL>
7

>  <REMARK>
 VINA RESULT:      -7.8      2.944      5.489
  Name = 
  3 active torsions:
  status: ('A' for Active; 'I' for Inactive)
    1  A    between atoms: N_17  and  C_28
    2  A    between atoms: C_28  and  C_29
    3  A    between atoms: C_29  and  N_32
                            x       y       z     vdW  Elec       q    Type
                         _______ _______ _______ _____ _____    ______ ____

>  <TORSDO>
F 3

$$$$
=
 OpenBabel11112418043D

 34 40  0  0  1  0  0  0  0  0999 V2000
  191.6120  174.5960  142.5070 C   0  0  0  0  0  0  0  0  0  0  0  0
  191.6920  176.4470  144.0690 O   0  0  0  0  0  0  0  0  0  0  0  0
  189.9750  172.1720  137.3460 C   0  0  1  0  0  3  0  0  0  0  0  0
  191.2560  172.5370  141.2510 C   0  0  0  0  0  0  0  0  0  0  0  0
  189.2580  172.3290  139.7450 N   0  0  2  0  0  0  0  0  0  0  0  0
  189.0470  174.1660  138.2390 O   0  0  0  0  0  1  0  0  0  0  0  0
  190.7400  172.8320  136.3850 O   0  0  0  0  0  1  0  0  0  0  0  0
  191.5780  170.8960  138.6020 O   0  0  0  0  0  0  0  0  0  0  0  0
  189.7920  176.3600  142.6780 C   0  0  1  0  0  3  0  0  0  0  0  0
  187.0730  177.2570  143.6900 C   0  0  0  0  0  2  0  0  0  0  0  0
  188.5610  173.2300  140.6830 C   0  0  0  0  0  2  0  0  0  0  0  0
  190.9450  170.4530  139.7640 C   0  0  0  0  0  2  0  0  0  0  0  0
  188.8230  175.2270  142.2620 C   0  0  2  0  0  3  0  0  0  0  0  0
  190.5920  176.7630  144.8800 C   0  0  0  0  0  2  0  0  0  0  0  0
  190.2980  171.6190  140.5220 C   0  0  1  0  0  3  0  0  0  0  0  0
  190.5870  170.8040  137.6240 C   0  0  0  0  0  2  0  0  0  0  0  0
  188.1300  176.7250  144.5400 N   0  0  0  0  0  0  0  0  0  0  0  0
  190.8030  173.8000  141.6800 C   0  0  0  0  0  0  0  0  0  0  0  0
  189.8350  173.0620  138.5900 C   0  0  2  0  0  3  0  0  0  0  0  0
  189.4880  174.3500  141.1960 C   0  0  1  0  0  3  0  0  0  0  0  0
  193.3220  172.8750  142.4830 C   0  0  0  0  0  3  0  0  0  0  0  0
  186.5460  176.1650  142.7760 C   0  0  0  0  0  2  0  0  0  0  0  0
  192.5110  172.0760  141.6760 C   0  0  0  0  0  3  0  0  0  0  0  0
  187.5520  175.8450  141.6820 C   0  0  0  0  0  2  0  0  0  0  0  0
  189.4220  177.1170  143.9550 C   0  0  2  0  0  3  0  0  0  0  0  0
  192.8710  174.1280  142.9020 C   0  0  0  0  0  3  0  0  0  0  0  0
  191.1230  175.8580  142.9880 N   0  0  0  0  0  0  0  0  0  0  0  0
  187.9660  177.4070  145.8170 C   0  0  0  0  0  2  0  0  0  0  0  0
  187.4430  176.4300  146.8550 C   0  0  0  0  0  2  0  0  0  0  0  0
  185.1740  179.0660  147.2630 N   0  0  0  0  0  2  0  0  0  0  0  0
  185.1500  176.7910  146.5560 C   0  0  0  0  0  2  0  0  0  0  0  0
  186.2510  176.9710  147.4850 N   0  0  0  0  0  0  0  0  0  0  0  0
  184.4500  178.1230  146.4320 C   0  0  0  0  0  2  0  0  0  0  0  0
  186.4350  178.4110  147.5720 C   0  0  0  0  0  2  0  0  0  0  0  0
  1 26  1  0  0  0  0
  1 27  1  0  0  0  0
  2 14  1  0  0  0  0
  3  7  1  6  0  0  0
  3 16  1  0  0  0  0
  3 19  1  0  0  0  0
  4 23  2  0  0  0  0
  4 18  1  0  0  0  0
  5 15  1  0  0  0  0
  5 11  1  1  0  0  0
  8 12  1  0  0  0  0
  9 27  1  1  0  0  0
  9 25  1  0  0  0  0
 10 17  1  0  0  0  0
 13 24  1  6  0  0  0
 13  9  1  0  0  0  0
 15 12  1  6  0  0  0
 15  4  1  0  0  0  0
 16  8  1  0  0  0  0
 17 28  1  0  0  0  0
 18  1  2  0  0  0  0
 19  6  1  6  0  0  0
 19  5  1  0  0  0  0
 20 11  1  1  0  0  0
 20 18  1  0  0  0  0
 20 13  1  0  0  0  0
 21 26  2  0  0  0  0
 22 10  1  0  0  0  0
 23 21  1  0  0  0  0
 24 22  1  0  0  0  0
 25 17  1  0  0  0  0
 25 14  1  1  0  0  0
 27  2  1  0  0  0  0
 28 29  1  0  0  0  0
 29 32  1  0  0  0  0
 30 34  1  0  0  0  0
 31 32  1  0  0  0  0
 32 34  1  0  0  0  0
 33 31  1  0  0  0  0
 33 30  1  0  0  0  0
M  END
>  <MODEL>
8

>  <REMARK>
 VINA RESULT:      -7.6      3.679      6.240
  Name = 
  3 active torsions:
  status: ('A' for Active; 'I' for Inactive)
    1  A    between atoms: N_17  and  C_28
    2  A    between atoms: C_28  and  C_29
    3  A    between atoms: C_29  and  N_32
                            x       y       z     vdW  Elec       q    Type
                         _______ _______ _______ _____ _____    ______ ____

>  <TORSDO>
F 3

$$$$
=
 OpenBabel11112418043D

 34 40  0  0  1  0  0  0  0  0999 V2000
  192.7940  176.3550  144.6420 C   0  0  0  0  0  0  0  0  0  0  0  0
  191.0630  178.0260  144.3450 O   0  0  0  0  0  0  0  0  0  0  0  0
  196.1800  171.9180  142.6350 C   0  0  1  0  0  3  0  0  0  0  0  0
  194.2270  174.4720  145.2210 C   0  0  0  0  0  0  0  0  0  0  0  0
  194.0620  172.3350  143.9130 N   0  0  2  0  0  0  0  0  0  0  0  0
  194.2080  172.6850  141.5590 O   0  0  0  0  0  1  0  0  0  0  0  0
  197.0420  172.5170  141.7150 O   0  0  0  0  0  1  0  0  0  0  0  0
  196.8550  172.8290  144.7540 O   0  0  0  0  0  0  0  0  0  0  0  0
  190.8350  176.0720  143.0480 C   0  0  1  0  0  3  0  0  0  0  0  0
  188.0940  174.9310  142.4140 C   0  0  0  0  0  2  0  0  0  0  0  0
  192.6390  172.6660  143.7100 C   0  0  0  0  0  2  0  0  0  0  0  0
  195.8550  172.5240  145.6790 C   0  0  0  0  0  2  0  0  0  0  0  0
  190.9550  174.5610  143.3620 C   0  0  2  0  0  3  0  0  0  0  0  0
  189.7050  177.6820  144.3840 C   0  0  0  0  0  2  0  0  0  0  0  0
  194.4780  172.9790  145.1790 C   0  0  1  0  0  3  0  0  0  0  0  0
  196.9230  171.6930  143.9470 C   0  0  0  0  0  2  0  0  0  0  0  0
  188.4000  175.7150  143.6030 N   0  0  0  0  0  0  0  0  0  0  0  0
  193.1540  175.0080  144.4840 C   0  0  0  0  0  0  0  0  0  0  0  0
  194.9070  172.7660  142.7700 C   0  0  2  0  0  3  0  0  0  0  0  0
  192.4340  174.1730  143.4580 C   0  0  1  0  0  3  0  0  0  0  0  0
  194.5670  176.6340  146.2730 C   0  0  0  0  0  3  0  0  0  0  0  0
  188.8080  173.5920  142.4790 C   0  0  0  0  0  2  0  0  0  0  0  0
  194.9150  175.2910  146.1290 C   0  0  0  0  0  3  0  0  0  0  0  0
  190.2990  173.7640  142.2370 C   0  0  0  0  0  2  0  0  0  0  0  0
  189.4470  176.6860  143.2480 C   0  0  2  0  0  3  0  0  0  0  0  0
  193.5060  177.1640  145.5360 C   0  0  0  0  0  3  0  0  0  0  0  0
  191.6630  176.8840  143.9290 N   0  0  0  0  0  0  0  0  0  0  0  0
  187.1720  176.4390  143.9050 C   0  0  0  0  0  2  0  0  0  0  0  0
  186.4060  176.7020  142.6200 C   0  0  0  0  0  2  0  0  0  0  0  0
  184.7820  178.9130  144.7950 N   0  0  0  0  0  2  0  0  0  0  0  0
  185.9540  178.9960  142.7230 C   0  0  0  0  0  2  0  0  0  0  0  0
  185.3580  177.6790  142.8610 N   0  0  0  0  0  0  0  0  0  0  0  0
  185.5660  179.7900  143.9470 C   0  0  0  0  0  2  0  0  0  0  0  0
  185.0000  177.5770  144.2670 C   0  0  0  0  0  2  0  0  0  0  0  0
  1 26  1  0  0  0  0
  2 14  1  0  0  0  0
  3  7  1  6  0  0  0
  3 19  1  0  0  0  0
  3 16  1  0  0  0  0
  4 23  2  0  0  0  0
  5 11  1  6  0  0  0
  5 15  1  0  0  0  0
  8 12  1  0  0  0  0
  9 25  1  0  0  0  0
  9 13  1  0  0  0  0
  9 27  1  1  0  0  0
 10 22  1  0  0  0  0
 10 17  1  0  0  0  0
 13 24  1  6  0  0  0
 13 20  1  0  0  0  0
 15  4  1  0  0  0  0
 15 12  1  6  0  0  0
 16  8  1  0  0  0  0
 17 28  1  0  0  0  0
 18  1  2  0  0  0  0
 18  4  1  0  0  0  0
 19  6  1  6  0  0  0
 19  5  1  0  0  0  0
 20 11  1  1  0  0  0
 20 18  1  0  0  0  0
 23 21  1  0  0  0  0
 24 22  1  0  0  0  0
 25 17  1  0  0  0  0
 25 14  1  1  0  0  0
 26 21  2  0  0  0  0
 27  2  1  0  0  0  0
 27  1  1  0  0  0  0
 29 32  1  0  0  0  0
 29 28  1  0  0  0  0
 31 32  1  0  0  0  0
 31 33  1  0  0  0  0
 32 34  1  0  0  0  0
 33 30  1  0  0  0  0
 34 30  1  0  0  0  0
M  END
>  <MODEL>
9

>  <REMARK>
 VINA RESULT:      -7.5      3.158      5.332
  Name = 
  3 active torsions:
  status: ('A' for Active; 'I' for Inactive)
    1  A    between atoms: N_17  and  C_28
    2  A    between atoms: C_28  and  C_29
    3  A    between atoms: C_29  and  N_32
                            x       y       z     vdW  Elec       q    Type
                         _______ _______ _______ _____ _____    ______ ____

>  <TORSDO>
F 3

$$$$
