=
 OpenBabel11112416193D

 30 35  0  0  1  0  0  0  0  0999 V2000
  186.6140  177.2090  143.8910 C   0  0  0  0  0  0  0  0  0  0  0  0
  184.9510  178.3060  145.4470 C   0  0  0  0  0  0  0  0  0  0  0  0
  189.0270  176.3010  147.0410 N   0  0  0  0  0  0  0  0  0  0  0  0
  187.8240  176.4690  143.7130 C   0  0  0  0  0  0  0  0  0  0  0  0
  185.8780  177.5390  142.7520 C   0  0  0  0  0  3  0  0  0  0  0  0
  187.7680  175.9810  140.1970 O   0  0  0  0  0  0  0  0  0  0  0  0
  190.6040  175.5730  142.6510 C   0  0  1  0  0  3  0  0  0  0  0  0
  187.4270  176.3670  141.3510 C   0  0  0  0  0  0  0  0  0  0  0  0
  190.8120  175.3140  144.0560 N   0  0  0  0  0  0  0  0  0  0  0  0
  190.0860  175.7360  146.4340 C   0  0  0  0  0  0  0  0  0  0  0  0
  186.2800  177.1450  141.4830 C   0  0  0  0  0  0  0  0  0  0  0  0
  188.1690  176.0110  142.4510 N   0  0  0  0  0  0  0  0  0  0  0  0
  184.5900  178.6370  146.7550 C   0  0  0  0  0  3  0  0  0  0  0  0
  192.0490  174.6070  144.3230 C   0  0  0  0  0  2  0  0  0  0  0  0
  191.7220  174.8460  141.9260 C   0  0  0  0  0  2  0  0  0  0  0  0
  184.0600  178.6970  144.4050 N   0  0  0  0  0  1  0  0  0  0  0  0
  188.1470  176.6030  146.0970 N   0  0  0  0  0  0  0  0  0  0  0  0
  185.4010  178.2900  147.8300 C   0  0  0  0  0  3  0  0  0  0  0  0
  186.1660  177.5970  145.1930 C   0  0  0  0  0  0  0  0  0  0  0  0
  188.5980  176.2370  144.8800 C   0  0  0  0  0  0  0  0  0  0  0  0
  191.3130  175.3160  147.1670 C   0  0  0  0  0  1  0  0  0  0  0  0
  189.8660  175.6910  145.0640 C   0  0  0  0  0  0  0  0  0  0  0  0
  192.7550  174.4950  142.9860 C   0  0  0  0  0  2  0  0  0  0  0  0
  188.8940  173.6550  142.7180 C   0  0  0  0  0  1  0  0  0  0  0  0
  186.5890  177.6030  147.6070 C   0  0  0  0  0  3  0  0  0  0  0  0
  186.9760  177.2530  146.3060 C   0  0  0  0  0  0  0  0  0  0  0  0
  189.2490  175.0490  142.2040 C   0  0  2  0  0  3  0  0  0  0  0  0
  185.5450  177.4990  140.3450 O   0  0  0  0  0  0  0  0  0  0  0  0
  183.2200  178.0690  140.4660 C   0  0  0  0  0  1  0  0  0  0  0  0
  184.6350  178.5900  140.3260 C   0  0  0  0  0  2  0  0  0  0  0  0
  1 19  1  0  0  0  0
  2 13  1  0  0  0  0
  4  1  2  0  0  0  0
  4 20  1  0  0  0  0
  5  1  1  0  0  0  0
  6  8  2  0  0  0  0
  7 15  1  6  0  0  0
  7  9  1  0  0  0  0
  8 11  1  0  0  0  0
  8 12  1  0  0  0  0
  9 14  1  0  0  0  0
  9 22  1  0  0  0  0
 10  3  2  0  0  0  0
 10 21  1  0  0  0  0
 11  5  2  0  0  0  0
 12  4  1  0  0  0  0
 13 18  2  0  0  0  0
 15 23  1  0  0  0  0
 16  2  1  0  0  0  0
 17 26  1  0  0  0  0
 17  3  1  0  0  0  0
 19  2  2  0  0  0  0
 19 26  1  0  0  0  0
 20 22  2  0  0  0  0
 20 17  1  0  0  0  0
 22 10  1  0  0  0  0
 23 14  1  0  0  0  0
 25 18  1  0  0  0  0
 26 25  2  0  0  0  0
 27 12  1  0  0  0  0
 27  7  1  0  0  0  0
 27 24  1  1  0  0  0
 28 11  1  0  0  0  0
 30 28  1  0  0  0  0
 30 29  1  0  0  0  0
M  END
>  <MODEL>
1

>  <REMARK>
 VINA RESULT:      -8.7      0.000      0.000
  Name = 
  2 active torsions:
  status: ('A' for Active; 'I' for Inactive)
    1  A    between atoms: C_11  and  O_28
    2  A    between atoms: O_28  and  C_30
                            x       y       z     vdW  Elec       q    Type
                         _______ _______ _______ _____ _____    ______ ____

>  <TORSDO>
F 2

$$$$
=
 OpenBabel11112416193D

 30 35  0  0  1  0  0  0  0  0999 V2000
  189.5190  175.5060  143.9380 C   0  0  0  0  0  0  0  0  0  0  0  0
  191.4010  174.6970  145.4190 C   0  0  0  0  0  0  0  0  0  0  0  0
  187.9240  177.6050  147.0400 N   0  0  0  0  0  0  0  0  0  0  0  0
  188.3530  176.3160  143.7680 C   0  0  0  0  0  0  0  0  0  0  0  0
  189.9620  174.7630  142.8430 C   0  0  0  0  0  3  0  0  0  0  0  0
  187.6720  175.7480  140.3310 O   0  0  0  0  0  0  0  0  0  0  0  0
  185.4780  177.2280  143.0200 C   0  0  1  0  0  3  0  0  0  0  0  0
  188.2290  175.6730  141.4620 C   0  0  0  0  0  0  0  0  0  0  0  0
  185.6010  177.9090  144.2860 N   0  0  0  0  0  0  0  0  0  0  0  0
  186.7990  178.1040  146.4970 C   0  0  0  0  0  0  0  0  0  0  0  0
  189.3200  174.8210  141.6130 C   0  0  0  0  0  0  0  0  0  0  0  0
  187.7730  176.4290  142.5140 N   0  0  0  0  0  0  0  0  0  0  0  0
  192.0150  174.7150  146.6730 C   0  0  0  0  0  3  0  0  0  0  0  0
  184.5050  178.8220  144.5450 C   0  0  0  0  0  2  0  0  0  0  0  0
  184.2820  177.8550  142.3260 C   0  0  0  0  0  2  0  0  0  0  0  0
  192.0120  173.9040  144.4040 N   0  0  0  0  0  1  0  0  0  0  0  0
  188.5520  176.9260  146.0910 N   0  0  0  0  0  0  0  0  0  0  0  0
  191.4860  175.4650  147.7170 C   0  0  0  0  0  3  0  0  0  0  0  0
  190.2120  175.4570  145.1890 C   0  0  0  0  0  0  0  0  0  0  0  0
  187.8720  176.9790  144.9270 C   0  0  0  0  0  0  0  0  0  0  0  0
  185.7950  178.8790  147.2770 C   0  0  0  0  0  1  0  0  0  0  0  0
  186.7170  177.7190  145.1650 C   0  0  0  0  0  0  0  0  0  0  0  0
  183.5330  178.6340  143.3970 C   0  0  0  0  0  2  0  0  0  0  0  0
  187.2910  178.8370  142.1630 C   0  0  0  0  0  1  0  0  0  0  0  0
  190.3290  176.2090  147.5170 C   0  0  0  0  0  3  0  0  0  0  0  0
  189.6920  176.2150  146.2690 C   0  0  0  0  0  0  0  0  0  0  0  0
  186.7360  177.4140  142.1860 C   0  0  2  0  0  3  0  0  0  0  0  0
  189.7620  174.0560  140.5260 O   0  0  0  0  0  0  0  0  0  0  0  0
  188.3390  172.5370  139.3390 C   0  0  0  0  0  1  0  0  0  0  0  0
  189.4370  172.6820  140.3710 C   0  0  0  0  0  2  0  0  0  0  0  0
  1 19  1  0  0  0  0
  2 13  1  0  0  0  0
  4  1  2  0  0  0  0
  4 20  1  0  0  0  0
  5  1  1  0  0  0  0
  6  8  2  0  0  0  0
  7 15  1  6  0  0  0
  7  9  1  0  0  0  0
  8 11  1  0  0  0  0
  8 12  1  0  0  0  0
  9 14  1  0  0  0  0
  9 22  1  0  0  0  0
 10  3  2  0  0  0  0
 10 21  1  0  0  0  0
 11  5  2  0  0  0  0
 12  4  1  0  0  0  0
 13 18  2  0  0  0  0
 15 23  1  0  0  0  0
 16  2  1  0  0  0  0
 17 26  1  0  0  0  0
 17  3  1  0  0  0  0
 19  2  2  0  0  0  0
 19 26  1  0  0  0  0
 20 22  2  0  0  0  0
 20 17  1  0  0  0  0
 22 10  1  0  0  0  0
 23 14  1  0  0  0  0
 25 18  1  0  0  0  0
 26 25  2  0  0  0  0
 27 24  1  1  0  0  0
 27 12  1  0  0  0  0
 27  7  1  0  0  0  0
 28 11  1  0  0  0  0
 29 30  1  0  0  0  0
 30 28  1  0  0  0  0
M  END
>  <MODEL>
2

>  <REMARK>
 VINA RESULT:      -8.2      1.468      5.550
  Name = 
  2 active torsions:
  status: ('A' for Active; 'I' for Inactive)
    1  A    between atoms: C_11  and  O_28
    2  A    between atoms: O_28  and  C_30
                            x       y       z     vdW  Elec       q    Type
                         _______ _______ _______ _____ _____    ______ ____

>  <TORSDO>
F 2

$$$$
=
 OpenBabel11112416193D

 30 35  0  0  1  0  0  0  0  0999 V2000
  187.2470  177.0460  144.0780 C   0  0  0  0  0  0  0  0  0  0  0  0
  185.2170  178.1680  145.0800 C   0  0  0  0  0  0  0  0  0  0  0  0
  189.2020  177.3060  147.6400 N   0  0  0  0  0  0  0  0  0  0  0  0
  188.5590  176.5030  144.2490 C   0  0  0  0  0  0  0  0  0  0  0  0
  186.6740  176.9770  142.8080 C   0  0  0  0  0  3  0  0  0  0  0  0
  189.1560  175.2240  140.9920 O   0  0  0  0  0  0  0  0  0  0  0  0
  191.5720  175.8770  143.8150 C   0  0  1  0  0  3  0  0  0  0  0  0
  188.5790  175.7980  141.9580 C   0  0  0  0  0  0  0  0  0  0  0  0
  191.5760  175.9850  145.2540 N   0  0  0  0  0  0  0  0  0  0  0  0
  190.4130  176.8080  147.3360 C   0  0  0  0  0  0  0  0  0  0  0  0
  187.3310  176.3780  141.7410 C   0  0  0  0  0  0  0  0  0  0  0  0
  189.1680  175.8350  143.1980 N   0  0  0  0  0  0  0  0  0  0  0  0
  184.6010  178.7230  146.2050 C   0  0  0  0  0  3  0  0  0  0  0  0
  192.8350  175.5790  145.8480 C   0  0  0  0  0  2  0  0  0  0  0  0
  192.8820  175.2050  143.4460 C   0  0  0  0  0  2  0  0  0  0  0  0
  184.4670  178.1530  143.8670 N   0  0  0  0  0  1  0  0  0  0  0  0
  188.4590  177.2310  146.5440 N   0  0  0  0  0  0  0  0  0  0  0  0
  185.2610  178.7730  147.4280 C   0  0  0  0  0  3  0  0  0  0  0  0
  186.5410  177.6390  145.1720 C   0  0  0  0  0  0  0  0  0  0  0  0
  189.1520  176.6790  145.5270 C   0  0  0  0  0  0  0  0  0  0  0  0
  191.5460  176.7820  148.3020 C   0  0  0  0  0  1  0  0  0  0  0  0
  190.4330  176.4140  146.0040 C   0  0  0  0  0  0  0  0  0  0  0  0
  193.7620  175.2880  144.6850 C   0  0  0  0  0  2  0  0  0  0  0  0
  190.1480  173.7610  144.1410 C   0  0  0  0  0  1  0  0  0  0  0  0
  186.5510  178.2680  147.5390 C   0  0  0  0  0  3  0  0  0  0  0  0
  187.1930  177.7010  146.4300 C   0  0  0  0  0  0  0  0  0  0  0  0
  190.3930  175.0410  143.3430 C   0  0  2  0  0  3  0  0  0  0  0  0
  186.7560  176.3320  140.4650 O   0  0  0  0  0  0  0  0  0  0  0  0
  185.0450  177.9700  140.0970 C   0  0  0  0  0  1  0  0  0  0  0  0
  186.4360  177.5010  139.7240 C   0  0  0  0  0  2  0  0  0  0  0  0
  1  4  2  0  0  0  0
  1 19  1  0  0  0  0
  2 19  2  0  0  0  0
  2 13  1  0  0  0  0
  4 20  1  0  0  0  0
  5  1  1  0  0  0  0
  6  8  2  0  0  0  0
  7 15  1  1  0  0  0
  7  9  1  0  0  0  0
  8 12  1  0  0  0  0
  9 14  1  0  0  0  0
  9 22  1  0  0  0  0
 10  3  2  0  0  0  0
 10 21  1  0  0  0  0
 11  8  1  0  0  0  0
 11  5  2  0  0  0  0
 12 27  1  0  0  0  0
 12  4  1  0  0  0  0
 13 18  2  0  0  0  0
 15 23  1  0  0  0  0
 16  2  1  0  0  0  0
 17  3  1  0  0  0  0
 18 25  1  0  0  0  0
 19 26  1  0  0  0  0
 20 22  2  0  0  0  0
 20 17  1  0  0  0  0
 22 10  1  0  0  0  0
 23 14  1  0  0  0  0
 26 17  1  0  0  0  0
 26 25  2  0  0  0  0
 27  7  1  0  0  0  0
 27 24  1  1  0  0  0
 28 11  1  0  0  0  0
 30 29  1  0  0  0  0
 30 28  1  0  0  0  0
M  END
>  <MODEL>
3

>  <REMARK>
 VINA RESULT:      -8.2      1.182      1.390
  Name = 
  2 active torsions:
  status: ('A' for Active; 'I' for Inactive)
    1  A    between atoms: C_11  and  O_28
    2  A    between atoms: O_28  and  C_30
                            x       y       z     vdW  Elec       q    Type
                         _______ _______ _______ _____ _____    ______ ____

>  <TORSDO>
F 2

$$$$
=
 OpenBabel11112416193D

 30 35  0  0  1  0  0  0  0  0999 V2000
  187.8990  176.5040  144.6540 C   0  0  0  0  0  0  0  0  0  0  0  0
  186.5410  178.3450  145.7280 C   0  0  0  0  0  0  0  0  0  0  0  0
  186.4580  177.5210  140.9860 N   0  0  0  0  0  0  0  0  0  0  0  0
  188.3360  175.8320  143.4700 C   0  0  0  0  0  0  0  0  0  0  0  0
  188.3890  176.0500  145.8800 C   0  0  0  0  0  3  0  0  0  0  0  0
  190.6030  173.4820  144.8630 O   0  0  0  0  0  0  0  0  0  0  0  0
  189.0250  173.5850  141.4380 C   0  0  1  0  0  3  0  0  0  0  0  0
  189.7520  174.4130  144.7840 C   0  0  0  0  0  0  0  0  0  0  0  0
  188.4520  174.5410  140.5210 N   0  0  0  0  0  0  0  0  0  0  0  0
  187.0100  176.5840  140.1940 C   0  0  0  0  0  0  0  0  0  0  0  0
  189.2940  175.0000  145.9610 C   0  0  0  0  0  0  0  0  0  0  0  0
  189.3030  174.8420  143.5600 N   0  0  0  0  0  0  0  0  0  0  0  0
  185.6580  179.4160  145.5680 C   0  0  0  0  0  3  0  0  0  0  0  0
  188.6220  174.1640  139.1320 C   0  0  0  0  0  2  0  0  0  0  0  0
  189.7610  172.5740  140.5760 C   0  0  0  0  0  2  0  0  0  0  0  0
  186.9640  178.0410  147.0550 N   0  0  0  0  0  1  0  0  0  0  0  0
  186.8990  177.3060  142.2170 N   0  0  0  0  0  0  0  0  0  0  0  0
  185.2000  179.7820  144.3070 C   0  0  0  0  0  3  0  0  0  0  0  0
  186.9920  177.6080  144.5900 C   0  0  0  0  0  0  0  0  0  0  0  0
  187.7430  176.2550  142.2510 C   0  0  0  0  0  0  0  0  0  0  0  0
  186.7010  176.4640  138.7420 C   0  0  0  0  0  1  0  0  0  0  0  0
  187.8180  175.7500  140.9560 C   0  0  0  0  0  0  0  0  0  0  0  0
  189.2640  172.7910  139.1540 C   0  0  0  0  0  2  0  0  0  0  0  0
  190.9390  175.2740  141.7460 C   0  0  0  0  0  1  0  0  0  0  0  0
  185.6220  179.0770  143.1860 C   0  0  0  0  0  3  0  0  0  0  0  0
  186.5110  178.0010  143.3140 C   0  0  0  0  0  0  0  0  0  0  0  0
  189.9870  174.2700  142.3950 C   0  0  2  0  0  3  0  0  0  0  0  0
  189.7640  174.5390  147.1970 O   0  0  0  0  0  0  0  0  0  0  0  0
  191.9350  175.5520  147.2550 C   0  0  0  0  0  1  0  0  0  0  0  0
  190.6500  175.2930  148.0130 C   0  0  0  0  0  2  0  0  0  0  0  0
  1  5  1  0  0  0  0
  2 16  1  0  0  0  0
  3 17  1  0  0  0  0
  4 12  1  0  0  0  0
  4  1  2  0  0  0  0
  5 11  2  0  0  0  0
  7 15  1  6  0  0  0
  7 27  1  0  0  0  0
  8  6  2  0  0  0  0
  8 11  1  0  0  0  0
  9 22  1  0  0  0  0
  9  7  1  0  0  0  0
 10 22  1  0  0  0  0
 10  3  2  0  0  0  0
 11 28  1  0  0  0  0
 12  8  1  0  0  0  0
 13  2  1  0  0  0  0
 14 23  1  0  0  0  0
 14  9  1  0  0  0  0
 17 20  1  0  0  0  0
 17 26  1  0  0  0  0
 18 13  2  0  0  0  0
 19  1  1  0  0  0  0
 19  2  2  0  0  0  0
 20  4  1  0  0  0  0
 21 10  1  0  0  0  0
 22 20  2  0  0  0  0
 23 15  1  0  0  0  0
 25 26  2  0  0  0  0
 25 18  1  0  0  0  0
 26 19  1  0  0  0  0
 27 24  1  6  0  0  0
 27 12  1  0  0  0  0
 28 30  1  0  0  0  0
 29 30  1  0  0  0  0
M  END
>  <MODEL>
4

>  <REMARK>
 VINA RESULT:      -8.1      2.563      5.299
  Name = 
  2 active torsions:
  status: ('A' for Active; 'I' for Inactive)
    1  A    between atoms: C_11  and  O_28
    2  A    between atoms: O_28  and  C_30
                            x       y       z     vdW  Elec       q    Type
                         _______ _______ _______ _____ _____    ______ ____

>  <TORSDO>
F 2

$$$$
=
 OpenBabel11112416193D

 30 35  0  0  1  0  0  0  0  0999 V2000
  188.8030  176.8290  145.6580 C   0  0  0  0  0  0  0  0  0  0  0  0
  186.6240  177.9290  146.3140 C   0  0  0  0  0  0  0  0  0  0  0  0
  187.2920  175.9280  141.9870 N   0  0  0  0  0  0  0  0  0  0  0  0
  189.6010  176.1830  144.6620 C   0  0  0  0  0  0  0  0  0  0  0  0
  189.3730  177.0400  146.9140 C   0  0  0  0  0  3  0  0  0  0  0  0
  192.6540  175.8000  146.4330 O   0  0  0  0  0  0  0  0  0  0  0  0
  191.4790  174.1500  143.2500 C   0  0  1  0  0  3  0  0  0  0  0  0
  191.4530  176.1040  146.1820 C   0  0  0  0  0  0  0  0  0  0  0  0
  190.5590  174.3890  142.1640 N   0  0  0  0  0  0  0  0  0  0  0  0
  188.2980  175.2320  141.4290 C   0  0  0  0  0  0  0  0  0  0  0  0
  190.6820  176.6680  147.1940 C   0  0  0  0  0  0  0  0  0  0  0  0
  190.9300  175.8930  144.9300 N   0  0  0  0  0  0  0  0  0  0  0  0
  185.3300  178.3080  145.9510 C   0  0  0  0  0  3  0  0  0  0  0  0
  190.9910  173.7910  140.9160 C   0  0  0  0  0  2  0  0  0  0  0  0
  192.6850  173.4680  142.6290 C   0  0  0  0  0  2  0  0  0  0  0  0
  187.0540  178.2550  147.6340 N   0  0  0  0  0  1  0  0  0  0  0  0
  187.6980  176.3110  143.1890 N   0  0  0  0  0  0  0  0  0  0  0  0
  184.8340  178.0310  144.6820 C   0  0  0  0  0  3  0  0  0  0  0  0
  187.4640  177.2480  145.3790 C   0  0  0  0  0  0  0  0  0  0  0  0
  188.9580  175.8940  143.4300 C   0  0  0  0  0  0  0  0  0  0  0  0
  188.1930  174.5820  140.0930 C   0  0  0  0  0  1  0  0  0  0  0  0
  189.3670  175.1700  142.3140 C   0  0  0  0  0  0  0  0  0  0  0  0
  192.2440  173.0060  141.2480 C   0  0  0  0  0  2  0  0  0  0  0  0
  192.2290  176.5890  142.9350 C   0  0  0  0  0  1  0  0  0  0  0  0
  185.6320  177.3670  143.7570 C   0  0  0  0  0  3  0  0  0  0  0  0
  186.9360  176.9780  144.0900 C   0  0  0  0  0  0  0  0  0  0  0  0
  191.8870  175.4600  143.9050 C   0  0  2  0  0  3  0  0  0  0  0  0
  191.2380  176.8660  148.4640 O   0  0  0  0  0  0  0  0  0  0  0  0
  191.5670  177.9160  150.5930 C   0  0  0  0  0  1  0  0  0  0  0  0
  191.1800  178.1140  149.1420 C   0  0  0  0  0  2  0  0  0  0  0  0
  1  5  1  0  0  0  0
  2 16  1  0  0  0  0
  3 17  1  0  0  0  0
  4 12  1  0  0  0  0
  4  1  2  0  0  0  0
  5 11  2  0  0  0  0
  7 15  1  6  0  0  0
  7 27  1  0  0  0  0
  8  6  2  0  0  0  0
  8 11  1  0  0  0  0
  9 22  1  0  0  0  0
  9  7  1  0  0  0  0
 10  3  2  0  0  0  0
 10 22  1  0  0  0  0
 11 28  1  0  0  0  0
 12  8  1  0  0  0  0
 13  2  1  0  0  0  0
 14 23  1  0  0  0  0
 14  9  1  0  0  0  0
 17 20  1  0  0  0  0
 17 26  1  0  0  0  0
 18 13  2  0  0  0  0
 19  1  1  0  0  0  0
 19  2  2  0  0  0  0
 20  4  1  0  0  0  0
 21 10  1  0  0  0  0
 22 20  2  0  0  0  0
 23 15  1  0  0  0  0
 25 26  2  0  0  0  0
 25 18  1  0  0  0  0
 26 19  1  0  0  0  0
 27 24  1  6  0  0  0
 27 12  1  0  0  0  0
 28 30  1  0  0  0  0
 30 29  1  0  0  0  0
M  END
>  <MODEL>
5

>  <REMARK>
 VINA RESULT:      -7.8      2.908      5.342
  Name = 
  2 active torsions:
  status: ('A' for Active; 'I' for Inactive)
    1  A    between atoms: C_11  and  O_28
    2  A    between atoms: O_28  and  C_30
                            x       y       z     vdW  Elec       q    Type
                         _______ _______ _______ _____ _____    ______ ____

>  <TORSDO>
F 2

$$$$
=
 OpenBabel11112416193D

 30 35  0  0  1  0  0  0  0  0999 V2000
  187.1410  176.8080  143.7130 C   0  0  0  0  0  0  0  0  0  0  0  0
  185.4440  178.2720  142.5440 C   0  0  0  0  0  0  0  0  0  0  0  0
  188.1980  175.1240  140.1600 N   0  0  0  0  0  0  0  0  0  0  0  0
  188.1870  175.8370  143.6310 C   0  0  0  0  0  0  0  0  0  0  0  0
  186.7920  177.2870  144.9760 C   0  0  0  0  0  3  0  0  0  0  0  0
  189.1280  175.6170  147.0470 O   0  0  0  0  0  0  0  0  0  0  0  0
  189.9150  173.3100  144.1670 C   0  0  1  0  0  3  0  0  0  0  0  0
  188.5100  175.9700  146.0030 C   0  0  0  0  0  0  0  0  0  0  0  0
  190.0200  173.3470  142.7280 N   0  0  0  0  0  0  0  0  0  0  0  0
  189.0980  174.1990  140.5410 C   0  0  0  0  0  0  0  0  0  0  0  0
  187.4500  176.8640  146.1240 C   0  0  0  0  0  0  0  0  0  0  0  0
  188.8900  175.4880  144.7740 N   0  0  0  0  0  0  0  0  0  0  0  0
  184.8510  178.6770  141.3460 C   0  0  0  0  0  3  0  0  0  0  0  0
  190.9810  172.3930  142.2080 C   0  0  0  0  0  2  0  0  0  0  0  0
  191.0010  172.3610  144.6390 C   0  0  0  0  0  2  0  0  0  0  0  0
  184.9830  178.8920  143.7420 N   0  0  0  0  0  1  0  0  0  0  0  0
  187.8120  175.7700  141.2510 N   0  0  0  0  0  0  0  0  0  0  0  0
  185.2450  178.1250  140.1310 C   0  0  0  0  0  3  0  0  0  0  0  0
  186.4730  177.2800  142.5390 C   0  0  0  0  0  0  0  0  0  0  0  0
  188.4490  175.3000  142.3430 C   0  0  0  0  0  0  0  0  0  0  0  0
  189.7160  173.2300  139.5940 C   0  0  0  0  0  1  0  0  0  0  0  0
  189.2740  174.2620  141.9180 C   0  0  0  0  0  0  0  0  0  0  0  0
  191.4570  171.5950  143.4060 C   0  0  0  0  0  2  0  0  0  0  0  0
  191.2940  175.4800  144.1610 C   0  0  0  0  0  1  0  0  0  0  0  0
  186.2410  177.1550  140.1030 C   0  0  0  0  0  3  0  0  0  0  0  0
  186.8570  176.7320  141.2880 C   0  0  0  0  0  0  0  0  0  0  0  0
  190.1250  174.6960  144.7560 C   0  0  2  0  0  3  0  0  0  0  0  0
  187.0790  177.3350  147.3900 O   0  0  0  0  0  0  0  0  0  0  0  0
  185.9430  179.4320  147.6250 C   0  0  0  0  0  1  0  0  0  0  0  0
  185.8120  177.9230  147.6500 C   0  0  0  0  0  2  0  0  0  0  0  0
  1  5  1  0  0  0  0
  2 16  1  0  0  0  0
  3 10  2  0  0  0  0
  3 17  1  0  0  0  0
  4  1  2  0  0  0  0
  4 12  1  0  0  0  0
  5 11  2  0  0  0  0
  7 15  1  1  0  0  0
  7 27  1  0  0  0  0
  8 11  1  0  0  0  0
  8  6  2  0  0  0  0
  9  7  1  0  0  0  0
 10 22  1  0  0  0  0
 11 28  1  0  0  0  0
 12  8  1  0  0  0  0
 13  2  2  0  0  0  0
 14  9  1  0  0  0  0
 14 23  1  0  0  0  0
 17 26  1  0  0  0  0
 17 20  1  0  0  0  0
 18 13  1  0  0  0  0
 19  2  1  0  0  0  0
 19  1  1  0  0  0  0
 20  4  1  0  0  0  0
 21 10  1  0  0  0  0
 22 20  2  0  0  0  0
 22  9  1  0  0  0  0
 23 15  1  0  0  0  0
 25 18  2  0  0  0  0
 25 26  1  0  0  0  0
 26 19  2  0  0  0  0
 27 24  1  6  0  0  0
 27 12  1  0  0  0  0
 28 30  1  0  0  0  0
 29 30  1  0  0  0  0
M  END
>  <MODEL>
6

>  <REMARK>
 VINA RESULT:      -7.7      2.409      4.923
  Name = 
  2 active torsions:
  status: ('A' for Active; 'I' for Inactive)
    1  A    between atoms: C_11  and  O_28
    2  A    between atoms: O_28  and  C_30
                            x       y       z     vdW  Elec       q    Type
                         _______ _______ _______ _____ _____    ______ ____

>  <TORSDO>
F 2

$$$$
=
 OpenBabel11112416193D

 30 35  0  0  1  0  0  0  0  0999 V2000
  187.9180  176.3790  142.7100 C   0  0  0  0  0  0  0  0  0  0  0  0
  185.8960  177.8840  142.5230 C   0  0  0  0  0  0  0  0  0  0  0  0
  188.6200  177.7200  146.4890 N   0  0  0  0  0  0  0  0  0  0  0  0
  188.9890  175.8540  143.4990 C   0  0  0  0  0  0  0  0  0  0  0  0
  187.7860  175.9160  141.4000 C   0  0  0  0  0  3  0  0  0  0  0  0
  190.3830  173.5180  141.2200 O   0  0  0  0  0  0  0  0  0  0  0  0
  191.8230  174.9520  144.3980 C   0  0  1  0  0  3  0  0  0  0  0  0
  189.6310  174.4160  141.6920 C   0  0  0  0  0  0  0  0  0  0  0  0
  191.3770  175.5400  145.6380 N   0  0  0  0  0  0  0  0  0  0  0  0
  189.7600  177.0820  146.8090 C   0  0  0  0  0  0  0  0  0  0  0  0
  188.6420  174.9560  140.8750 C   0  0  0  0  0  0  0  0  0  0  0  0
  189.7820  174.8370  142.9900 N   0  0  0  0  0  0  0  0  0  0  0  0
  185.0530  178.8190  143.1280 C   0  0  0  0  0  3  0  0  0  0  0  0
  192.2850  175.2910  146.7400 C   0  0  0  0  0  2  0  0  0  0  0  0
  193.0470  174.1250  144.7480 C   0  0  0  0  0  2  0  0  0  0  0  0
  185.5920  177.5010  141.1840 N   0  0  0  0  0  1  0  0  0  0  0  0
  188.2730  177.3190  145.2740 N   0  0  0  0  0  0  0  0  0  0  0  0
  185.2770  179.2440  144.4330 C   0  0  0  0  0  3  0  0  0  0  0  0
  187.0070  177.3440  143.2430 C   0  0  0  0  0  0  0  0  0  0  0  0
  189.1530  176.4190  144.7910 C   0  0  0  0  0  0  0  0  0  0  0  0
  190.4950  177.3220  148.0820 C   0  0  0  0  0  1  0  0  0  0  0  0
  190.1440  176.2610  145.7570 C   0  0  0  0  0  0  0  0  0  0  0  0
  193.4760  174.5720  146.1370 C   0  0  0  0  0  2  0  0  0  0  0  0
  190.0300  173.1530  144.7940 C   0  0  0  0  0  1  0  0  0  0  0  0
  186.3530  178.7350  145.1510 C   0  0  0  0  0  3  0  0  0  0  0  0
  187.2140  177.7930  144.5730 C   0  0  0  0  0  0  0  0  0  0  0  0
  190.7370  174.0730  143.8000 C   0  0  2  0  0  3  0  0  0  0  0  0
  188.5140  174.5140  139.5520 O   0  0  0  0  0  0  0  0  0  0  0  0
  188.9920  172.7480  138.0050 C   0  0  0  0  0  1  0  0  0  0  0  0
  188.1920  173.1710  139.2190 C   0  0  0  0  0  2  0  0  0  0  0  0
  1 19  1  0  0  0  0
  1  4  2  0  0  0  0
  2 13  2  0  0  0  0
  2 19  1  0  0  0  0
  3 10  2  0  0  0  0
  4 20  1  0  0  0  0
  5  1  1  0  0  0  0
  6  8  2  0  0  0  0
  7 15  1  1  0  0  0
  7  9  1  0  0  0  0
  8 12  1  0  0  0  0
  9 22  1  0  0  0  0
  9 14  1  0  0  0  0
 10 21  1  0  0  0  0
 11  5  2  0  0  0  0
 11  8  1  0  0  0  0
 12  4  1  0  0  0  0
 12 27  1  0  0  0  0
 13 18  1  0  0  0  0
 15 23  1  0  0  0  0
 16  2  1  0  0  0  0
 17  3  1  0  0  0  0
 18 25  2  0  0  0  0
 19 26  2  0  0  0  0
 20 17  1  0  0  0  0
 20 22  2  0  0  0  0
 22 10  1  0  0  0  0
 23 14  1  0  0  0  0
 26 25  1  0  0  0  0
 26 17  1  0  0  0  0
 27  7  1  0  0  0  0
 27 24  1  1  0  0  0
 28 11  1  0  0  0  0
 29 30  1  0  0  0  0
 30 28  1  0  0  0  0
M  END
>  <MODEL>
7

>  <REMARK>
 VINA RESULT:      -7.7      1.941      3.186
  Name = 
  2 active torsions:
  status: ('A' for Active; 'I' for Inactive)
    1  A    between atoms: C_11  and  O_28
    2  A    between atoms: O_28  and  C_30
                            x       y       z     vdW  Elec       q    Type
                         _______ _______ _______ _____ _____    ______ ____

>  <TORSDO>
F 2

$$$$
=
 OpenBabel11112416193D

 30 35  0  0  1  0  0  0  0  0999 V2000
  187.8030  175.7630  140.6810 C   0  0  0  0  0  0  0  0  0  0  0  0
  187.8910  174.7440  138.3700 C   0  0  0  0  0  0  0  0  0  0  0  0
  190.3740  172.9320  142.0740 N   0  0  0  0  0  0  0  0  0  0  0  0
  188.2640  175.7770  142.0340 C   0  0  0  0  0  0  0  0  0  0  0  0
  186.8690  176.7280  140.3000 C   0  0  0  0  0  3  0  0  0  0  0  0
  186.5450  178.6270  143.2700 O   0  0  0  0  0  0  0  0  0  0  0  0
  188.2920  175.8550  145.1410 C   0  0  1  0  0  3  0  0  0  0  0  0
  186.9360  177.7230  142.4780 C   0  0  0  0  0  0  0  0  0  0  0  0
  189.3380  174.8820  144.9370 N   0  0  0  0  0  0  0  0  0  0  0  0
  190.4410  173.2280  143.3840 C   0  0  0  0  0  0  0  0  0  0  0  0
  186.4150  177.6950  141.1880 C   0  0  0  0  0  0  0  0  0  0  0  0
  187.8660  176.7980  142.8840 N   0  0  0  0  0  0  0  0  0  0  0  0
  188.4170  173.7650  137.5240 C   0  0  0  0  0  3  0  0  0  0  0  0
  190.0400  174.5430  146.1590 C   0  0  0  0  0  2  0  0  0  0  0  0
  188.4170  176.3010  146.5860 C   0  0  0  0  0  2  0  0  0  0  0  0
  186.9690  175.6710  137.8010 N   0  0  0  0  0  1  0  0  0  0  0  0
  189.5830  173.8300  141.5070 N   0  0  0  0  0  0  0  0  0  0  0  0
  189.3250  172.8240  137.9980 C   0  0  0  0  0  3  0  0  0  0  0  0
  188.2820  174.7950  139.7430 C   0  0  0  0  0  0  0  0  0  0  0  0
  189.1370  174.7230  142.4130 C   0  0  0  0  0  0  0  0  0  0  0  0
  191.1940  172.4000  144.3670 C   0  0  0  0  0  1  0  0  0  0  0  0
  189.6590  174.3460  143.6470 C   0  0  0  0  0  0  0  0  0  0  0  0
  189.3140  175.2790  147.2680 C   0  0  0  0  0  2  0  0  0  0  0  0
  189.8980  177.5620  144.0840 C   0  0  0  0  0  1  0  0  0  0  0  0
  189.7180  172.8530  139.3310 C   0  0  0  0  0  3  0  0  0  0  0  0
  189.2100  173.8250  140.2030 C   0  0  0  0  0  0  0  0  0  0  0  0
  188.4680  177.0370  144.2010 C   0  0  2  0  0  3  0  0  0  0  0  0
  185.4620  178.6460  140.8010 O   0  0  0  0  0  0  0  0  0  0  0  0
  183.3100  178.2870  141.7920 C   0  0  0  0  0  1  0  0  0  0  0  0
  184.1130  178.3080  140.5080 C   0  0  0  0  0  2  0  0  0  0  0  0
  1  4  2  0  0  0  0
  2 19  1  0  0  0  0
  3 10  2  0  0  0  0
  4 20  1  0  0  0  0
  4 12  1  0  0  0  0
  5  1  1  0  0  0  0
  5 11  2  0  0  0  0
  7 15  1  1  0  0  0
  8 12  1  0  0  0  0
  8  6  2  0  0  0  0
  9  7  1  0  0  0  0
  9 14  1  0  0  0  0
 10 22  1  0  0  0  0
 10 21  1  0  0  0  0
 11  8  1  0  0  0  0
 12 27  1  0  0  0  0
 13 18  1  0  0  0  0
 13  2  2  0  0  0  0
 14 23  1  0  0  0  0
 15 23  1  0  0  0  0
 16  2  1  0  0  0  0
 17  3  1  0  0  0  0
 17 20  1  0  0  0  0
 18 25  2  0  0  0  0
 19 26  2  0  0  0  0
 19  1  1  0  0  0  0
 20 22  2  0  0  0  0
 22  9  1  0  0  0  0
 25 26  1  0  0  0  0
 26 17  1  0  0  0  0
 27 24  1  6  0  0  0
 27  7  1  0  0  0  0
 28 11  1  0  0  0  0
 30 28  1  0  0  0  0
 30 29  1  0  0  0  0
M  END
>  <MODEL>
8

>  <REMARK>
 VINA RESULT:      -7.5      2.365      5.398
  Name = 
  2 active torsions:
  status: ('A' for Active; 'I' for Inactive)
    1  A    between atoms: C_11  and  O_28
    2  A    between atoms: O_28  and  C_30
                            x       y       z     vdW  Elec       q    Type
                         _______ _______ _______ _____ _____    ______ ____

>  <TORSDO>
F 2

$$$$
=
 OpenBabel11112416193D

 30 35  0  0  1  0  0  0  0  0999 V2000
  189.3780  174.9610  143.7530 C   0  0  0  0  0  0  0  0  0  0  0  0
  190.6210  173.3350  142.2710 C   0  0  0  0  0  0  0  0  0  0  0  0
  187.1300  176.1910  140.5890 N   0  0  0  0  0  0  0  0  0  0  0  0
  188.3370  175.9290  143.9100 C   0  0  0  0  0  0  0  0  0  0  0  0
  190.1480  174.6440  144.8730 C   0  0  0  0  0  3  0  0  0  0  0  0
  188.6030  176.6010  147.3860 O   0  0  0  0  0  0  0  0  0  0  0  0
  186.8190  178.5300  144.6780 C   0  0  1  0  0  3  0  0  0  0  0  0
  188.8410  176.1080  146.2470 C   0  0  0  0  0  0  0  0  0  0  0  0
  186.2330  178.3100  143.3780 N   0  0  0  0  0  0  0  0  0  0  0  0
  186.3860  177.1700  141.1330 C   0  0  0  0  0  0  0  0  0  0  0  0
  189.9050  175.2200  146.1130 C   0  0  0  0  0  0  0  0  0  0  0  0
  188.0530  176.4330  145.1700 N   0  0  0  0  0  0  0  0  0  0  0  0
  190.7850  172.7700  141.0040 C   0  0  0  0  0  3  0  0  0  0  0  0
  185.1260  179.2030  143.0990 C   0  0  0  0  0  2  0  0  0  0  0  0
  185.9290  179.5480  145.3680 C   0  0  0  0  0  2  0  0  0  0  0  0
  191.4790  172.8670  143.3090 N   0  0  0  0  0  1  0  0  0  0  0  0
  187.8820  175.6850  141.5560 N   0  0  0  0  0  0  0  0  0  0  0  0
  189.9870  173.1680  139.9360 C   0  0  0  0  0  3  0  0  0  0  0  0
  189.6230  174.3330  142.4910 C   0  0  0  0  0  0  0  0  0  0  0  0
  187.6390  176.3010  142.7310 C   0  0  0  0  0  0  0  0  0  0  0  0
  185.4540  178.0180  140.3390 C   0  0  0  0  0  1  0  0  0  0  0  0
  186.6880  177.2870  142.4840 C   0  0  0  0  0  0  0  0  0  0  0  0
  185.0590  180.1550  144.2770 C   0  0  0  0  0  2  0  0  0  0  0  0
  185.5850  176.3980  145.4140 C   0  0  0  0  0  1  0  0  0  0  0  0
  189.0120  174.1400  140.1260 C   0  0  0  0  0  3  0  0  0  0  0  0
  188.8210  174.7210  141.3870 C   0  0  0  0  0  0  0  0  0  0  0  0
  186.8620  177.2340  145.4730 C   0  0  2  0  0  3  0  0  0  0  0  0
  190.6970  174.9110  147.2250 O   0  0  0  0  0  0  0  0  0  0  0  0
  192.5080  176.4430  146.8870 C   0  0  0  0  0  1  0  0  0  0  0  0
  192.1140  175.0180  147.2150 C   0  0  0  0  0  2  0  0  0  0  0  0
  1  4  2  0  0  0  0
  1  5  1  0  0  0  0
  2 19  1  0  0  0  0
  2 16  1  0  0  0  0
  3 10  2  0  0  0  0
  3 17  1  0  0  0  0
  4 12  1  0  0  0  0
  5 11  2  0  0  0  0
  7 15  1  1  0  0  0
  7 27  1  0  0  0  0
  8  6  2  0  0  0  0
  9  7  1  0  0  0  0
 10 22  1  0  0  0  0
 11  8  1  0  0  0  0
 11 28  1  0  0  0  0
 12 27  1  0  0  0  0
 12  8  1  0  0  0  0
 13  2  2  0  0  0  0
 14  9  1  0  0  0  0
 14 23  1  0  0  0  0
 17 20  1  0  0  0  0
 18 25  2  0  0  0  0
 18 13  1  0  0  0  0
 19  1  1  0  0  0  0
 20  4  1  0  0  0  0
 21 10  1  0  0  0  0
 22 20  2  0  0  0  0
 22  9  1  0  0  0  0
 23 15  1  0  0  0  0
 25 26  1  0  0  0  0
 26 17  1  0  0  0  0
 26 19  2  0  0  0  0
 27 24  1  6  0  0  0
 29 30  1  0  0  0  0
 30 28  1  0  0  0  0
M  END
>  <MODEL>
9

>  <REMARK>
 VINA RESULT:      -7.5      2.489      7.224
  Name = 
  2 active torsions:
  status: ('A' for Active; 'I' for Inactive)
    1  A    between atoms: C_11  and  O_28
    2  A    between atoms: O_28  and  C_30
                            x       y       z     vdW  Elec       q    Type
                         _______ _______ _______ _____ _____    ______ ____

>  <TORSDO>
F 2

$$$$
