=
 OpenBabel11112417353D

 28 32  0  0  1  0  0  0  0  0999 V2000
  186.7740  178.2460  144.3440 C   0  0  0  0  0  0  0  0  0  0  0  0
  189.6290  177.4560  147.3340 O   0  0  0  0  0  0  0  0  0  0  0  0
  187.2900  173.6760  141.6600 O   0  0  0  0  0  0  0  0  0  0  0  0
  185.7050  176.8270  146.5130 C   0  0  0  0  0  3  0  0  0  0  0  0
  189.4330  174.2070  142.4640 N   0  0  0  0  0  0  0  0  0  0  0  0
  187.2660  178.9850  143.1360 C   0  0  0  0  0  2  0  0  0  0  0  0
  190.0490  175.0730  147.7720 O   0  0  0  0  0  0  0  0  0  0  0  0
  190.2840  176.2060  146.8150 S   0  0  0  0  0  0  0  0  0  0  0  0
  192.5760  176.4930  145.3530 C   0  0  0  0  0  0  0  0  0  0  0  0
  189.6390  175.7600  145.2140 C   0  0  2  0  0  3  0  0  0  0  0  0
  185.3160  177.4340  140.3960 N   0  0  0  0  0  2  0  0  0  0  0  0
  189.0570  176.5090  142.9810 C   0  0  1  0  0  3  0  0  0  0  0  0
  191.9730  176.0030  144.3100 N   0  0  0  0  0  0  0  0  0  0  0  0
  191.9750  176.4720  146.6430 N   0  0  0  0  0  2  0  0  0  0  0  0
  186.3110  177.5950  141.2010 C   0  0  0  0  0  0  0  0  0  0  0  0
  187.5330  177.2140  144.9460 C   0  0  0  0  0  0  0  0  0  0  0  0
  188.1000  174.5230  142.1230 C   0  0  0  0  0  0  0  0  0  0  0  0
  193.8440  177.1130  145.1920 N   0  0  0  0  0  1  0  0  0  0  0  0
  187.4780  176.6660  141.0800 C   0  0  0  0  0  2  0  0  0  0  0  0
  186.9730  176.5090  146.0260 C   0  0  0  0  0  3  0  0  0  0  0  0
  185.5060  178.5640  144.8490 C   0  0  0  0  0  3  0  0  0  0  0  0
  184.9740  177.8590  145.9300 C   0  0  0  0  0  3  0  0  0  0  0  0
  186.3560  178.7750  142.0160 N   0  0  0  0  0  2  0  0  0  0  0  0
  190.1310  175.4050  142.8840 C   0  0  1  0  0  3  0  0  0  0  0  0
  187.7580  175.9370  142.3830 C   0  0  2  0  0  3  0  0  0  0  0  0
  190.7200  175.2360  144.2750 C   0  0  2  0  0  3  0  0  0  0  0  0
  190.0940  172.9570  142.1260 C   0  0  0  0  0  1  0  0  0  0  0  0
  188.9430  176.8900  144.4670 C   0  0  1  0  0  3  0  0  0  0  0  0
  1 21  2  0  0  0  0
  1 16  1  0  0  0  0
  3 17  2  0  0  0  0
  5 24  1  0  0  0  0
  6  1  1  0  0  0  0
  8  2  2  0  0  0  0
  8  7  2  0  0  0  0
  9 14  1  0  0  0  0
 10  8  1  1  0  0  0
 11 15  2  0  0  0  0
 12 28  1  0  0  0  0
 13  9  2  0  0  0  0
 14  8  1  0  0  0  0
 15 23  1  0  0  0  0
 16 20  2  0  0  0  0
 17 25  1  0  0  0  0
 17  5  1  0  0  0  0
 18  9  1  0  0  0  0
 19 15  1  0  0  0  0
 19 25  1  0  0  0  0
 20  4  1  0  0  0  0
 21 22  1  0  0  0  0
 22  4  2  0  0  0  0
 23  6  1  0  0  0  0
 24 12  1  0  0  0  0
 24 26  1  0  0  0  0
 25 12  1  0  0  0  0
 26 13  1  0  0  0  0
 26 10  1  0  0  0  0
 27  5  1  0  0  0  0
 28 16  1  0  0  0  0
 28 10  1  0  0  0  0
M  END
>  <MODEL>
1

>  <REMARK>
 VINA RESULT:      -8.7      0.000      0.000
  Name = 
  0 active torsions:
  status: ('A' for Active; 'I' for Inactive)
                            x       y       z     vdW  Elec       q    Type
                         _______ _______ _______ _____ _____    ______ ____

>  <TORSDO>
F 0

$$$$
=
 OpenBabel11112417353D

 28 32  0  0  1  0  0  0  0  0999 V2000
  189.0920  176.6640  145.3260 C   0  0  0  0  0  0  0  0  0  0  0  0
  192.9990  175.4820  146.3570 O   0  0  0  0  0  0  0  0  0  0  0  0
  188.2880  173.1060  141.4470 O   0  0  0  0  0  0  0  0  0  0  0  0
  189.1340  174.5790  147.2010 C   0  0  0  0  0  3  0  0  0  0  0  0
  190.5640  173.6810  141.3440 N   0  0  0  0  0  0  0  0  0  0  0  0
  188.9780  177.7620  144.3120 C   0  0  0  0  0  2  0  0  0  0  0  0
  193.5590  173.1480  145.8210 O   0  0  0  0  0  0  0  0  0  0  0  0
  193.3340  174.5200  145.2520 S   0  0  0  0  0  0  0  0  0  0  0  0
  194.6970  175.4970  143.0940 C   0  0  0  0  0  0  0  0  0  0  0  0
  192.0210  174.4430  144.0480 C   0  0  2  0  0  3  0  0  0  0  0  0
  185.9770  176.7660  142.3850 N   0  0  0  0  0  2  0  0  0  0  0  0
  190.4810  175.6850  142.6430 C   0  0  1  0  0  3  0  0  0  0  0  0
  193.6790  175.2330  142.3290 N   0  0  0  0  0  0  0  0  0  0  0  0
  194.7580  175.0470  144.4430 N   0  0  0  0  0  2  0  0  0  0  0  0
  187.2320  176.8350  142.6760 C   0  0  0  0  0  0  0  0  0  0  0  0
  190.0370  175.6190  145.1880 C   0  0  0  0  0  0  0  0  0  0  0  0
  189.2260  173.8970  141.7380 C   0  0  0  0  0  0  0  0  0  0  0  0
  195.7530  176.3030  142.5870 N   0  0  0  0  0  1  0  0  0  0  0  0
  188.2070  176.1380  141.7780 C   0  0  0  0  0  2  0  0  0  0  0  0
  190.0330  174.5780  146.1340 C   0  0  0  0  0  3  0  0  0  0  0  0
  188.2020  176.6590  146.4080 C   0  0  0  0  0  3  0  0  0  0  0  0
  188.2220  175.6230  147.3420 C   0  0  0  0  0  3  0  0  0  0  0  0
  187.6540  177.7430  143.7030 N   0  0  0  0  0  2  0  0  0  0  0  0
  191.3840  174.8030  141.7540 C   0  0  1  0  0  3  0  0  0  0  0  0
  189.0500  175.1270  142.5360 C   0  0  2  0  0  3  0  0  0  0  0  0
  192.5460  174.3440  142.6190 C   0  0  2  0  0  3  0  0  0  0  0  0
  190.9870  172.6710  140.3880 C   0  0  0  0  0  1  0  0  0  0  0  0
  191.0670  175.6290  144.0650 C   0  0  1  0  0  3  0  0  0  0  0  0
  1 21  1  0  0  0  0
  3 17  2  0  0  0  0
  4 22  1  0  0  0  0
  5 17  1  0  0  0  0
  5 24  1  0  0  0  0
  6  1  1  0  0  0  0
  8  7  2  0  0  0  0
  8  2  2  0  0  0  0
  9 14  1  0  0  0  0
 10 28  1  0  0  0  0
 10  8  1  1  0  0  0
 11 15  2  0  0  0  0
 12 28  1  0  0  0  0
 13 26  1  0  0  0  0
 13  9  2  0  0  0  0
 14  8  1  0  0  0  0
 15 23  1  0  0  0  0
 16  1  2  0  0  0  0
 16 20  1  0  0  0  0
 17 25  1  0  0  0  0
 18  9  1  0  0  0  0
 19 25  1  0  0  0  0
 19 15  1  0  0  0  0
 20  4  2  0  0  0  0
 21 22  2  0  0  0  0
 23  6  1  0  0  0  0
 24 26  1  0  0  0  0
 24 12  1  0  0  0  0
 25 12  1  0  0  0  0
 26 10  1  0  0  0  0
 27  5  1  0  0  0  0
 28 16  1  0  0  0  0
M  END
>  <MODEL>
2

>  <REMARK>
 VINA RESULT:      -7.9      2.261      2.895
  Name = 
  0 active torsions:
  status: ('A' for Active; 'I' for Inactive)
                            x       y       z     vdW  Elec       q    Type
                         _______ _______ _______ _____ _____    ______ ____

>  <TORSDO>
F 0

$$$$
=
 OpenBabel11112417353D

 28 32  0  0  1  0  0  0  0  0999 V2000
  190.1640  177.4100  144.8810 C   0  0  0  0  0  0  0  0  0  0  0  0
  194.3000  177.4360  145.6650 O   0  0  0  0  0  0  0  0  0  0  0  0
  189.8060  172.3770  143.1830 O   0  0  0  0  0  0  0  0  0  0  0  0
  190.7850  176.4770  147.4520 C   0  0  0  0  0  3  0  0  0  0  0  0
  191.8990  173.1630  142.4580 N   0  0  0  0  0  0  0  0  0  0  0  0
  189.7450  177.8760  143.5190 C   0  0  0  0  0  2  0  0  0  0  0  0
  195.2860  175.2340  146.1380 O   0  0  0  0  0  0  0  0  0  0  0  0
  194.7380  176.1290  145.0640 S   0  0  0  0  0  0  0  0  0  0  0  0
  195.6930  176.1710  142.5030 C   0  0  0  0  0  0  0  0  0  0  0  0
  193.3780  175.3060  144.2570 C   0  0  2  0  0  3  0  0  0  0  0  0
  186.8710  175.6660  142.7660 N   0  0  0  0  0  2  0  0  0  0  0  0
  191.5070  175.5050  142.7250 C   0  0  1  0  0  3  0  0  0  0  0  0
  194.6940  175.4340  142.1180 N   0  0  0  0  0  0  0  0  0  0  0  0
  195.9530  176.4190  143.8810 N   0  0  0  0  0  2  0  0  0  0  0  0
  188.1030  176.0460  142.7830 C   0  0  0  0  0  0  0  0  0  0  0  0
  191.2910  176.5740  145.0680 C   0  0  0  0  0  0  0  0  0  0  0  0
  190.5810  173.3390  142.9320 C   0  0  0  0  0  0  0  0  0  0  0  0
  196.5150  176.7910  141.5240 N   0  0  0  0  0  1  0  0  0  0  0  0
  189.1260  175.1620  142.1400 C   0  0  0  0  0  2  0  0  0  0  0  0
  191.5770  176.1090  146.3640 C   0  0  0  0  0  3  0  0  0  0  0  0
  189.3830  177.7820  145.9830 C   0  0  0  0  0  3  0  0  0  0  0  0
  189.6910  177.3200  147.2630 C   0  0  0  0  0  3  0  0  0  0  0  0
  188.4080  177.3800  143.2120 N   0  0  0  0  0  2  0  0  0  0  0  0
  192.4990  174.4530  142.1840 C   0  0  1  0  0  3  0  0  0  0  0  0
  190.2180  174.7600  143.1170 C   0  0  2  0  0  3  0  0  0  0  0  0
  193.7960  174.6280  142.9560 C   0  0  2  0  0  3  0  0  0  0  0  0
  192.4440  171.8970  141.9960 C   0  0  0  0  0  1  0  0  0  0  0  0
  192.2030  176.2080  143.9030 C   0  0  1  0  0  3  0  0  0  0  0  0
  1 16  2  0  0  0  0
  1 21  1  0  0  0  0
  5 17  1  0  0  0  0
  6  1  1  0  0  0  0
  8  2  2  0  0  0  0
  8  7  2  0  0  0  0
  9 14  1  0  0  0  0
 10  8  1  6  0  0  0
 11 15  2  0  0  0  0
 12 25  1  0  0  0  0
 12 28  1  0  0  0  0
 13  9  2  0  0  0  0
 13 26  1  0  0  0  0
 14  8  1  0  0  0  0
 15 23  1  0  0  0  0
 16 20  1  0  0  0  0
 17 25  1  0  0  0  0
 17  3  2  0  0  0  0
 18  9  1  0  0  0  0
 19 15  1  0  0  0  0
 19 25  1  0  0  0  0
 20  4  2  0  0  0  0
 21 22  2  0  0  0  0
 22  4  1  0  0  0  0
 23  6  1  0  0  0  0
 24  5  1  0  0  0  0
 24 12  1  0  0  0  0
 24 26  1  0  0  0  0
 26 10  1  0  0  0  0
 27  5  1  0  0  0  0
 28 10  1  0  0  0  0
 28 16  1  0  0  0  0
M  END
>  <MODEL>
3

>  <REMARK>
 VINA RESULT:      -7.6      3.037      3.788
  Name = 
  0 active torsions:
  status: ('A' for Active; 'I' for Inactive)
                            x       y       z     vdW  Elec       q    Type
                         _______ _______ _______ _____ _____    ______ ____

>  <TORSDO>
F 0

$$$$
=
 OpenBabel11112417353D

 28 32  0  0  1  0  0  0  0  0999 V2000
  188.5660  175.7900  145.6990 C   0  0  0  0  0  0  0  0  0  0  0  0
  187.6450  173.8200  142.0950 O   0  0  0  0  0  0  0  0  0  0  0  0
  193.5640  177.1660  144.4860 O   0  0  0  0  0  0  0  0  0  0  0  0
  187.6260  177.5380  143.7190 C   0  0  0  0  0  3  0  0  0  0  0  0
  193.1970  175.0780  143.4720 N   0  0  0  0  0  0  0  0  0  0  0  0
  189.0960  174.9300  146.8080 C   0  0  0  0  0  2  0  0  0  0  0  0
  188.9600  174.5410  140.1460 O   0  0  0  0  0  0  0  0  0  0  0  0
  188.9890  173.7540  141.4250 S   0  0  0  0  0  0  0  0  0  0  0  0
  190.4580  171.4720  141.7570 C   0  0  0  0  0  0  0  0  0  0  0  0
  190.2660  174.4080  142.4830 C   0  0  2  0  0  3  0  0  0  0  0  0
  191.5660  177.1560  148.4380 N   0  0  0  0  0  2  0  0  0  0  0  0
  191.2540  174.4260  144.6990 C   0  0  1  0  0  3  0  0  0  0  0  0
  191.3700  172.1500  142.3890 N   0  0  0  0  0  0  0  0  0  0  0  0
  189.3810  172.1140  141.0820 N   0  0  0  0  0  2  0  0  0  0  0  0
  191.1380  176.2560  147.6180 C   0  0  0  0  0  0  0  0  0  0  0  0
  188.9860  175.6180  144.3590 C   0  0  0  0  0  0  0  0  0  0  0  0
  192.8970  176.1000  144.3980 C   0  0  0  0  0  0  0  0  0  0  0  0
  190.5060  170.0520  141.7860 N   0  0  0  0  0  1  0  0  0  0  0  0
  192.1220  175.6210  146.6860 C   0  0  0  0  0  2  0  0  0  0  0  0
  188.5100  176.5130  143.3840 C   0  0  0  0  0  3  0  0  0  0  0  0
  187.6690  176.8170  146.0220 C   0  0  0  0  0  3  0  0  0  0  0  0
  187.2000  177.6860  145.0370 C   0  0  0  0  0  3  0  0  0  0  0  0
  189.8050  175.7520  147.7810 N   0  0  0  0  0  2  0  0  0  0  0  0
  192.3080  173.9520  143.6760 C   0  0  1  0  0  3  0  0  0  0  0  0
  191.7170  175.7950  145.2320 C   0  0  2  0  0  3  0  0  0  0  0  0
  191.5620  173.6070  142.3980 C   0  0  2  0  0  3  0  0  0  0  0  0
  194.4130  175.0210  142.6760 C   0  0  0  0  0  1  0  0  0  0  0  0
  189.9050  174.4690  143.9610 C   0  0  1  0  0  3  0  0  0  0  0  0
  1 21  1  0  0  0  0
  1  6  1  0  0  0  0
  4 22  1  0  0  0  0
  5 24  1  0  0  0  0
  5 17  1  0  0  0  0
  6 23  1  0  0  0  0
  7  8  2  0  0  0  0
  8  2  2  0  0  0  0
  9 18  1  0  0  0  0
  9 13  2  0  0  0  0
 10  8  1  6  0  0  0
 10 28  1  0  0  0  0
 12 25  1  0  0  0  0
 13 26  1  0  0  0  0
 14  8  1  0  0  0  0
 14  9  1  0  0  0  0
 15 23  1  0  0  0  0
 15 11  2  0  0  0  0
 16  1  2  0  0  0  0
 17  3  2  0  0  0  0
 17 25  1  0  0  0  0
 19 15  1  0  0  0  0
 20  4  2  0  0  0  0
 20 16  1  0  0  0  0
 22 21  2  0  0  0  0
 24 12  1  0  0  0  0
 25 19  1  0  0  0  0
 26 10  1  0  0  0  0
 26 24  1  0  0  0  0
 27  5  1  0  0  0  0
 28 16  1  0  0  0  0
 28 12  1  0  0  0  0
M  END
>  <MODEL>
4

>  <REMARK>
 VINA RESULT:      -7.5      3.028      5.645
  Name = 
  0 active torsions:
  status: ('A' for Active; 'I' for Inactive)
                            x       y       z     vdW  Elec       q    Type
                         _______ _______ _______ _____ _____    ______ ____

>  <TORSDO>
F 0

$$$$
=
 OpenBabel11112417353D

 28 32  0  0  1  0  0  0  0  0999 V2000
  186.8010  176.8410  143.5930 C   0  0  0  0  0  0  0  0  0  0  0  0
  189.8870  174.8560  141.5300 O   0  0  0  0  0  0  0  0  0  0  0  0
  189.6900  178.4980  147.7460 O   0  0  0  0  0  0  0  0  0  0  0  0
  188.2610  178.5530  141.9200 C   0  0  0  0  0  3  0  0  0  0  0  0
  190.5630  176.4030  147.1380 N   0  0  0  0  0  0  0  0  0  0  0  0
  185.9810  176.0010  144.5260 C   0  0  0  0  0  2  0  0  0  0  0  0
  192.1570  175.6660  142.0180 O   0  0  0  0  0  0  0  0  0  0  0  0
  190.9970  174.8700  142.5440 S   0  0  0  0  0  0  0  0  0  0  0  0
  191.2790  172.6690  144.1400 C   0  0  0  0  0  0  0  0  0  0  0  0
  190.4510  175.5840  144.0830 C   0  0  2  0  0  3  0  0  0  0  0  0
  185.2860  178.3430  147.3090 N   0  0  0  0  0  2  0  0  0  0  0  0
  188.7380  175.6350  145.8010 C   0  0  1  0  0  3  0  0  0  0  0  0
  190.9980  173.3900  145.1860 N   0  0  0  0  0  0  0  0  0  0  0  0
  191.5040  173.2580  142.8630 N   0  0  0  0  0  2  0  0  0  0  0  0
  185.9220  177.4290  146.6570 C   0  0  0  0  0  0  0  0  0  0  0  0
  188.2070  176.7040  143.5090 C   0  0  0  0  0  0  0  0  0  0  0  0
  189.5620  177.3990  147.1440 C   0  0  0  0  0  0  0  0  0  0  0  0
  191.3100  171.2540  144.2630 N   0  0  0  0  0  1  0  0  0  0  0  0
  187.1630  176.8570  147.2690 C   0  0  0  0  0  2  0  0  0  0  0  0
  188.9200  177.5810  142.6720 C   0  0  0  0  0  3  0  0  0  0  0  0
  186.1480  177.8140  142.8240 C   0  0  0  0  0  3  0  0  0  0  0  0
  186.8730  178.6660  141.9910 C   0  0  0  0  0  3  0  0  0  0  0  0
  185.3050  176.8510  145.4990 N   0  0  0  0  0  2  0  0  0  0  0  0
  190.0840  175.2290  146.4370 C   0  0  1  0  0  3  0  0  0  0  0  0
  188.3680  177.0220  146.3590 C   0  0  2  0  0  3  0  0  0  0  0  0
  191.0180  174.8540  145.2970 C   0  0  2  0  0  3  0  0  0  0  0  0
  191.7430  176.4200  147.9870 C   0  0  0  0  0  1  0  0  0  0  0  0
  188.9400  175.6110  144.2760 C   0  0  1  0  0  3  0  0  0  0  0  0
  1  6  1  0  0  0  0
  2  8  2  0  0  0  0
  4 22  2  0  0  0  0
  4 20  1  0  0  0  0
  5 17  1  0  0  0  0
  5 27  1  0  0  0  0
  6 23  1  0  0  0  0
  7  8  2  0  0  0  0
  8 14  1  0  0  0  0
  9 18  1  0  0  0  0
  9 13  2  0  0  0  0
 10  8  1  6  0  0  0
 10 28  1  0  0  0  0
 10 26  1  0  0  0  0
 12 25  1  0  0  0  0
 12 24  1  0  0  0  0
 13 26  1  0  0  0  0
 14  9  1  0  0  0  0
 15 19  1  0  0  0  0
 15 11  2  0  0  0  0
 16  1  1  0  0  0  0
 16 28  1  0  0  0  0
 17  3  2  0  0  0  0
 20 16  2  0  0  0  0
 21  1  2  0  0  0  0
 22 21  1  0  0  0  0
 23 15  1  0  0  0  0
 24  5  1  0  0  0  0
 25 17  1  0  0  0  0
 25 19  1  0  0  0  0
 26 24  1  0  0  0  0
 28 12  1  0  0  0  0
M  END
>  <MODEL>
5

>  <REMARK>
 VINA RESULT:      -7.1      2.542      4.772
  Name = 
  0 active torsions:
  status: ('A' for Active; 'I' for Inactive)
                            x       y       z     vdW  Elec       q    Type
                         _______ _______ _______ _____ _____    ______ ____

>  <TORSDO>
F 0

$$$$
=
 OpenBabel11112417353D

 28 32  0  0  1  0  0  0  0  0999 V2000
  194.7550  175.8110  144.3230 C   0  0  0  0  0  0  0  0  0  0  0  0
  191.5270  178.4410  143.7000 O   0  0  0  0  0  0  0  0  0  0  0  0
  192.1200  171.2600  143.4890 O   0  0  0  0  0  0  0  0  0  0  0  0
  194.4100  176.4820  141.6220 C   0  0  0  0  0  3  0  0  0  0  0  0
  190.5960  172.7170  144.5250 N   0  0  0  0  0  0  0  0  0  0  0  0
  194.9980  175.3850  145.7400 C   0  0  0  0  0  2  0  0  0  0  0  0
  189.7260  177.5620  142.2740 O   0  0  0  0  0  0  0  0  0  0  0  0
  190.3620  177.4920  143.6320 S   0  0  0  0  0  0  0  0  0  0  0  0
  188.9560  177.0490  145.9340 C   0  0  0  0  0  0  0  0  0  0  0  0
  190.8810  175.8150  143.9460 C   0  0  2  0  0  3  0  0  0  0  0  0
  196.0960  171.8700  145.3410 N   0  0  0  0  0  2  0  0  0  0  0  0
  192.1550  174.3180  145.3700 C   0  0  1  0  0  3  0  0  0  0  0  0
  189.3220  175.8020  145.9200 N   0  0  0  0  0  0  0  0  0  0  0  0
  189.2050  177.9160  144.8320 N   0  0  0  0  0  2  0  0  0  0  0  0
  195.2660  172.8420  145.5200 C   0  0  0  0  0  0  0  0  0  0  0  0
  193.4480  175.8990  143.7860 C   0  0  0  0  0  0  0  0  0  0  0  0
  191.8950  172.2970  144.1680 C   0  0  0  0  0  0  0  0  0  0  0  0
  188.3390  177.5770  147.1010 N   0  0  0  0  0  1  0  0  0  0  0  0
  193.8160  172.5120  145.6940 C   0  0  0  0  0  2  0  0  0  0  0  0
  193.2990  176.2270  142.4270 C   0  0  0  0  0  3  0  0  0  0  0  0
  195.8620  176.0810  143.5080 C   0  0  0  0  0  3  0  0  0  0  0  0
  195.6920  176.4160  142.1640 C   0  0  0  0  0  3  0  0  0  0  0  0
  195.7850  174.1570  145.7630 N   0  0  0  0  0  2  0  0  0  0  0  0
  190.6730  173.8880  145.3750 C   0  0  1  0  0  3  0  0  0  0  0  0
  192.9510  173.2080  144.6580 C   0  0  2  0  0  3  0  0  0  0  0  0
  189.8730  175.0410  144.7900 C   0  0  2  0  0  3  0  0  0  0  0  0
  189.3970  171.9120  144.3560 C   0  0  0  0  0  1  0  0  0  0  0  0
  192.2200  175.6820  144.6620 C   0  0  1  0  0  3  0  0  0  0  0  0
  1  6  1  0  0  0  0
  3 17  2  0  0  0  0
  4 22  2  0  0  0  0
  4 20  1  0  0  0  0
  5 24  1  0  0  0  0
  6 23  1  0  0  0  0
  7  8  2  0  0  0  0
  8  2  2  0  0  0  0
  8 14  1  0  0  0  0
  9 18  1  0  0  0  0
 10  8  1  1  0  0  0
 10 28  1  0  0  0  0
 10 26  1  0  0  0  0
 11 15  2  0  0  0  0
 12 24  1  0  0  0  0
 13  9  2  0  0  0  0
 14  9  1  0  0  0  0
 15 19  1  0  0  0  0
 15 23  1  0  0  0  0
 16  1  1  0  0  0  0
 16 28  1  0  0  0  0
 17  5  1  0  0  0  0
 17 25  1  0  0  0  0
 20 16  2  0  0  0  0
 21  1  2  0  0  0  0
 22 21  1  0  0  0  0
 25 12  1  0  0  0  0
 25 19  1  0  0  0  0
 26 24  1  0  0  0  0
 26 13  1  0  0  0  0
 27  5  1  0  0  0  0
 28 12  1  0  0  0  0
M  END
>  <MODEL>
6

>  <REMARK>
 VINA RESULT:      -7.1      3.454      7.006
  Name = 
  0 active torsions:
  status: ('A' for Active; 'I' for Inactive)
                            x       y       z     vdW  Elec       q    Type
                         _______ _______ _______ _____ _____    ______ ____

>  <TORSDO>
F 0

$$$$
=
 OpenBabel11112417353D

 28 32  0  0  1  0  0  0  0  0999 V2000
  193.0740  174.4980  142.9570 C   0  0  0  0  0  0  0  0  0  0  0  0
  189.7410  173.9080  140.4540 O   0  0  0  0  0  0  0  0  0  0  0  0
  190.4220  174.9890  147.5480 O   0  0  0  0  0  0  0  0  0  0  0  0
  192.2880  171.8100  142.8150 C   0  0  0  0  0  3  0  0  0  0  0  0
  189.0570  175.9580  145.8980 N   0  0  0  0  0  0  0  0  0  0  0  0
  193.5490  175.9120  143.1050 C   0  0  0  0  0  2  0  0  0  0  0  0
  187.7510  172.9860  141.5660 O   0  0  0  0  0  0  0  0  0  0  0  0
  188.5980  174.2120  141.3820 S   0  0  0  0  0  0  0  0  0  0  0  0
  187.5870  176.7520  141.3540 C   0  0  0  0  0  0  0  0  0  0  0  0
  189.1910  174.7550  142.9740 C   0  0  2  0  0  3  0  0  0  0  0  0
  194.6320  176.0260  146.6450 N   0  0  0  0  0  2  0  0  0  0  0  0
  190.7030  176.2160  144.1850 C   0  0  1  0  0  3  0  0  0  0  0  0
  187.9680  176.9190  142.5860 N   0  0  0  0  0  0  0  0  0  0  0  0
  187.6400  175.4780  140.7200 N   0  0  0  0  0  2  0  0  0  0  0  0
  193.8240  176.1460  145.6460 C   0  0  0  0  0  0  0  0  0  0  0  0
  191.6960  174.1710  142.9560 C   0  0  0  0  0  0  0  0  0  0  0  0
  190.2900  175.4840  146.3960 C   0  0  0  0  0  0  0  0  0  0  0  0
  187.1560  177.8790  140.6030 N   0  0  0  0  0  1  0  0  0  0  0  0
  192.4270  176.6110  145.9170 C   0  0  0  0  0  2  0  0  0  0  0  0
  191.3260  172.8160  142.8950 C   0  0  0  0  0  3  0  0  0  0  0  0
  194.0310  173.4790  142.8640 C   0  0  0  0  0  3  0  0  0  0  0  0
  193.6420  172.1410  142.7920 C   0  0  0  0  0  3  0  0  0  0  0  0
  194.3510  176.0440  144.3160 N   0  0  0  0  0  2  0  0  0  0  0  0
  189.2480  176.5430  144.5860 C   0  0  1  0  0  3  0  0  0  0  0  0
  191.3940  175.6130  145.4220 C   0  0  2  0  0  3  0  0  0  0  0  0
  188.3450  175.8830  143.5570 C   0  0  2  0  0  3  0  0  0  0  0  0
  187.8610  176.1410  146.7040 C   0  0  0  0  0  1  0  0  0  0  0  0
  190.6280  175.2580  142.9840 C   0  0  1  0  0  3  0  0  0  0  0  0
  1  6  1  0  0  0  0
  2  8  2  0  0  0  0
  4 20  1  0  0  0  0
  5 17  1  0  0  0  0
  5 27  1  0  0  0  0
  6 23  1  0  0  0  0
  8  7  2  0  0  0  0
  9 13  2  0  0  0  0
 10  8  1  6  0  0  0
 10 28  1  0  0  0  0
 10 26  1  0  0  0  0
 12 24  1  0  0  0  0
 12 25  1  0  0  0  0
 13 26  1  0  0  0  0
 14  9  1  0  0  0  0
 14  8  1  0  0  0  0
 15 19  1  0  0  0  0
 15 11  2  0  0  0  0
 16  1  1  0  0  0  0
 16 28  1  0  0  0  0
 17  3  2  0  0  0  0
 18  9  1  0  0  0  0
 20 16  2  0  0  0  0
 21  1  2  0  0  0  0
 22  4  2  0  0  0  0
 22 21  1  0  0  0  0
 23 15  1  0  0  0  0
 24  5  1  0  0  0  0
 25 19  1  0  0  0  0
 25 17  1  0  0  0  0
 26 24  1  0  0  0  0
 28 12  1  0  0  0  0
M  END
>  <MODEL>
7

>  <REMARK>
 VINA RESULT:      -6.9      2.281      6.841
  Name = 
  0 active torsions:
  status: ('A' for Active; 'I' for Inactive)
                            x       y       z     vdW  Elec       q    Type
                         _______ _______ _______ _____ _____    ______ ____

>  <TORSDO>
F 0

$$$$
=
 OpenBabel11112417353D

 28 32  0  0  1  0  0  0  0  0999 V2000
  191.1170  176.5760  143.2590 C   0  0  0  0  0  0  0  0  0  0  0  0
  187.5260  177.7230  141.3850 O   0  0  0  0  0  0  0  0  0  0  0  0
  188.9680  174.4120  147.6230 O   0  0  0  0  0  0  0  0  0  0  0  0
  189.9970  174.5210  141.7140 C   0  0  0  0  0  3  0  0  0  0  0  0
  187.5900  176.2270  147.0480 N   0  0  0  0  0  0  0  0  0  0  0  0
  191.7740  177.6110  144.1220 C   0  0  0  0  0  2  0  0  0  0  0  0
  185.5450  176.4200  142.0400 O   0  0  0  0  0  0  0  0  0  0  0  0
  186.5170  177.4800  142.4730 S   0  0  0  0  0  0  0  0  0  0  0  0
  185.8280  179.6000  144.0550 C   0  0  0  0  0  0  0  0  0  0  0  0
  187.3120  176.9600  143.9810 C   0  0  2  0  0  3  0  0  0  0  0  0
  193.1750  175.5780  146.8830 N   0  0  0  0  0  2  0  0  0  0  0  0
  189.0950  177.3610  145.5780 C   0  0  1  0  0  3  0  0  0  0  0  0
  186.3360  178.9960  145.0880 N   0  0  0  0  0  0  0  0  0  0  0  0
  185.6670  178.9380  142.8050 N   0  0  0  0  0  2  0  0  0  0  0  0
  192.3020  176.2990  146.2630 C   0  0  0  0  0  0  0  0  0  0  0  0
  189.7150  176.3770  143.2700 C   0  0  0  0  0  0  0  0  0  0  0  0
  188.7950  175.4930  146.9980 C   0  0  0  0  0  0  0  0  0  0  0  0
  185.4730  180.9730  144.1600 N   0  0  0  0  0  1  0  0  0  0  0  0
  191.0030  176.5840  146.9510 C   0  0  0  0  0  2  0  0  0  0  0  0
  189.1760  175.3340  142.4960 C   0  0  0  0  0  3  0  0  0  0  0  0
  191.9290  175.7590  142.4600 C   0  0  0  0  0  3  0  0  0  0  0  0
  191.3730  174.7380  141.6900 C   0  0  0  0  0  3  0  0  0  0  0  0
  192.6910  176.9710  145.0570 N   0  0  0  0  0  2  0  0  0  0  0  0
  187.7340  177.4590  146.2990 C   0  0  1  0  0  3  0  0  0  0  0  0
  189.8150  176.1150  146.1280 C   0  0  2  0  0  3  0  0  0  0  0  0
  186.6680  177.5720  145.2210 C   0  0  2  0  0  3  0  0  0  0  0  0
  186.5030  175.9600  147.9750 C   0  0  0  0  0  1  0  0  0  0  0  0
  188.7960  177.2920  144.0710 C   0  0  1  0  0  3  0  0  0  0  0  0
  1 16  1  0  0  0  0
  1  6  1  0  0  0  0
  2  8  2  0  0  0  0
  4 20  1  0  0  0  0
  5 27  1  0  0  0  0
  6 23  1  0  0  0  0
  7  8  2  0  0  0  0
  8 14  1  0  0  0  0
  9 18  1  0  0  0  0
  9 13  2  0  0  0  0
 10  8  1  6  0  0  0
 10 28  1  0  0  0  0
 10 26  1  0  0  0  0
 12 25  1  0  0  0  0
 12 24  1  0  0  0  0
 13 26  1  0  0  0  0
 14  9  1  0  0  0  0
 15 11  2  0  0  0  0
 15 19  1  0  0  0  0
 16 28  1  0  0  0  0
 17  5  1  0  0  0  0
 17  3  2  0  0  0  0
 20 16  2  0  0  0  0
 21  1  2  0  0  0  0
 22  4  2  0  0  0  0
 22 21  1  0  0  0  0
 23 15  1  0  0  0  0
 24  5  1  0  0  0  0
 25 19  1  0  0  0  0
 25 17  1  0  0  0  0
 26 24  1  0  0  0  0
 28 12  1  0  0  0  0
M  END
>  <MODEL>
8

>  <REMARK>
 VINA RESULT:      -6.8      2.281      6.311
  Name = 
  0 active torsions:
  status: ('A' for Active; 'I' for Inactive)
                            x       y       z     vdW  Elec       q    Type
                         _______ _______ _______ _____ _____    ______ ____

>  <TORSDO>
F 0

$$$$
=
 OpenBabel11112417353D

 28 32  0  0  1  0  0  0  0  0999 V2000
  189.7030  175.7310  144.2870 C   0  0  0  0  0  0  0  0  0  0  0  0
  193.4660  177.0540  145.6320 O   0  0  0  0  0  0  0  0  0  0  0  0
  191.0820  170.7080  143.1830 O   0  0  0  0  0  0  0  0  0  0  0  0
  190.1180  175.2240  147.0140 C   0  0  0  0  0  3  0  0  0  0  0  0
  192.9560  172.0280  142.6680 N   0  0  0  0  0  0  0  0  0  0  0  0
  189.4050  175.9460  142.8330 C   0  0  0  0  0  2  0  0  0  0  0  0
  194.9410  175.2910  146.5040 O   0  0  0  0  0  0  0  0  0  0  0  0
  194.3510  175.8970  145.2630 S   0  0  0  0  0  0  0  0  0  0  0  0
  195.6750  176.0290  142.8750 C   0  0  0  0  0  0  0  0  0  0  0  0
  193.4390  174.6460  144.3810 C   0  0  2  0  0  3  0  0  0  0  0  0
  187.4480  172.9250  141.9610 N   0  0  0  0  0  2  0  0  0  0  0  0
  191.8770  174.1590  142.5880 C   0  0  1  0  0  3  0  0  0  0  0  0
  195.0070  174.9990  142.4460 N   0  0  0  0  0  0  0  0  0  0  0  0
  195.6160  176.4470  144.2350 N   0  0  0  0  0  2  0  0  0  0  0  0
  188.5010  173.6580  142.1040 C   0  0  0  0  0  0  0  0  0  0  0  0
  190.9720  175.2870  144.7300 C   0  0  0  0  0  0  0  0  0  0  0  0
  191.5820  171.8360  142.9270 C   0  0  0  0  0  0  0  0  0  0  0  0
  196.4420  176.7910  141.9520 N   0  0  0  0  0  1  0  0  0  0  0  0
  189.8260  173.0750  141.7230 C   0  0  0  0  0  2  0  0  0  0  0  0
  191.1540  175.0290  146.1000 C   0  0  0  0  0  3  0  0  0  0  0  0
  188.6720  175.9340  145.2150 C   0  0  0  0  0  3  0  0  0  0  0  0
  188.8780  175.6830  146.5720 C   0  0  0  0  0  3  0  0  0  0  0  0
  188.3370  175.0500  142.4050 N   0  0  0  0  0  2  0  0  0  0  0  0
  193.2030  173.4150  142.3250 C   0  0  1  0  0  3  0  0  0  0  0  0
  190.8050  173.0930  142.8850 C   0  0  2  0  0  3  0  0  0  0  0  0
  194.2470  174.0280  143.2440 C   0  0  2  0  0  3  0  0  0  0  0  0
  193.9080  170.9530  142.4450 C   0  0  0  0  0  1  0  0  0  0  0  0
  192.1340  175.1250  143.7580 C   0  0  1  0  0  3  0  0  0  0  0  0
  1 16  2  0  0  0  0
  1 21  1  0  0  0  0
  5 17  1  0  0  0  0
  6  1  1  0  0  0  0
  8  2  2  0  0  0  0
  8  7  2  0  0  0  0
  9 14  1  0  0  0  0
 10  8  1  6  0  0  0
 11 15  2  0  0  0  0
 12 25  1  0  0  0  0
 12 28  1  0  0  0  0
 13  9  2  0  0  0  0
 13 26  1  0  0  0  0
 14  8  1  0  0  0  0
 15 23  1  0  0  0  0
 16 20  1  0  0  0  0
 17  3  2  0  0  0  0
 18  9  1  0  0  0  0
 19 15  1  0  0  0  0
 19 25  1  0  0  0  0
 20  4  2  0  0  0  0
 21 22  2  0  0  0  0
 22  4  1  0  0  0  0
 23  6  1  0  0  0  0
 24 12  1  0  0  0  0
 24  5  1  0  0  0  0
 24 26  1  0  0  0  0
 25 17  1  0  0  0  0
 26 10  1  0  0  0  0
 27  5  1  0  0  0  0
 28 10  1  0  0  0  0
 28 16  1  0  0  0  0
M  END
>  <MODEL>
9

>  <REMARK>
 VINA RESULT:      -6.7      3.104      4.263
  Name = 
  0 active torsions:
  status: ('A' for Active; 'I' for Inactive)
                            x       y       z     vdW  Elec       q    Type
                         _______ _______ _______ _____ _____    ______ ____

>  <TORSDO>
F 0

$$$$
