=
 OpenBabel11112417583D

 34 40  0  0  1  0  0  0  0  0999 V2000
  190.0510  176.9400  146.5610 C   0  0  0  0  0  0  0  0  0  0  0  0
  187.4750  177.4630  146.7720 C   0  0  0  0  0  2  0  0  0  0  0  0
  195.6090  176.1550  143.1070 C   0  0  2  0  0  3  0  0  0  0  0  0
  192.4140  176.4300  146.1800 C   0  0  0  0  0  0  0  0  0  0  0  0
  193.1770  176.0190  143.8960 C   0  0  0  0  0  0  0  0  0  0  0  0
  193.7430  175.9830  141.5720 O   0  0  0  0  0  1  0  0  0  0  0  0
  196.4180  176.3340  141.8320 C   0  0  0  0  0  1  0  0  0  0  0  0
  195.6000  174.7860  145.2600 C   0  0  0  0  0  2  0  0  0  0  0  0
  188.4650  176.9820  144.7180 C   0  0  0  0  0  0  0  0  0  0  0  0
  186.8720  177.1910  141.9840 C   0  0  0  0  0  2  0  0  0  0  0  0
  191.8930  176.1980  143.4720 N   0  0  0  0  0  0  0  0  0  0  0  0
  194.8570  175.9660  145.8570 C   0  0  0  0  0  2  0  0  0  0  0  0
  189.5310  176.6930  143.7870 N   0  0  0  0  0  0  0  0  0  0  0  0
  186.4340  177.7100  145.6830 C   0  0  0  0  0  2  0  0  0  0  0  0
  193.4640  176.1110  145.2910 C   0  0  0  0  0  0  0  0  0  0  0  0
  196.3910  175.2230  144.0310 C   0  0  0  0  0  2  0  0  0  0  0  0
  186.8690  178.0100  143.2040 N   0  0  0  0  0  0  0  0  0  0  0  0
  191.1080  176.6200  145.6840 C   0  0  0  0  0  0  0  0  0  0  0  0
  194.1960  175.6090  142.8440 C   0  0  1  0  0  3  0  0  0  0  0  0
  190.8650  176.4980  144.3070 C   0  0  0  0  0  0  0  0  0  0  0  0
  191.5900  176.8820  148.4290 C   0  0  0  0  0  3  0  0  0  0  0  0
  188.0460  176.2100  141.8830 C   0  0  0  0  0  2  0  0  0  0  0  0
  192.6390  176.5650  147.5610 C   0  0  0  0  0  3  0  0  0  0  0  0
  189.3490  176.8430  142.3410 C   0  0  0  0  0  2  0  0  0  0  0  0
  187.0210  177.1330  144.3790 C   0  0  1  0  0  3  0  0  0  0  0  0
  190.2990  177.0690  147.9310 C   0  0  0  0  0  3  0  0  0  0  0  0
  188.6970  177.1200  146.0080 C   0  0  0  0  0  0  0  0  0  0  0  0
  185.5650  178.6640  143.2040 C   0  0  0  0  0  2  0  0  0  0  0  0
  184.5660  177.8080  142.4460 C   0  0  0  0  0  2  0  0  0  0  0  0
  182.8070  177.4790  139.8490 O   0  0  0  0  0  0  0  0  0  0  0  0
  182.2330  178.4360  141.9000 C   0  0  0  0  0  2  0  0  0  0  0  0
  183.6750  178.6800  141.5790 C   0  0  2  0  0  3  0  0  0  0  0  0
  181.7070  177.9290  140.5900 C   0  0  0  0  0  2  0  0  0  0  0  0
  183.8390  178.3070  140.1820 N   0  0  0  0  0  2  0  0  0  0  0  0
  1 26  1  0  0  0  0
  3  7  1  6  0  0  0
  3 16  1  0  0  0  0
  4 23  2  0  0  0  0
  5 15  2  0  0  0  0
  8 12  1  0  0  0  0
  9 27  2  0  0  0  0
 10 17  1  0  0  0  0
 11  5  1  0  0  0  0
 11 20  2  0  0  0  0
 13 20  1  0  0  0  0
 13  9  1  0  0  0  0
 14  2  1  0  0  0  0
 15 12  1  0  0  0  0
 15  4  1  0  0  0  0
 16  8  1  0  0  0  0
 17 25  1  0  0  0  0
 18  4  1  0  0  0  0
 18  1  2  0  0  0  0
 19  6  1  6  0  0  0
 19  3  1  0  0  0  0
 19  5  1  0  0  0  0
 20 18  1  0  0  0  0
 22 10  1  0  0  0  0
 22 24  1  0  0  0  0
 23 21  1  0  0  0  0
 24 13  1  0  0  0  0
 25  9  1  0  0  0  0
 25 14  1  1  0  0  0
 26 21  2  0  0  0  0
 27  1  1  0  0  0  0
 27  2  1  0  0  0  0
 28 17  1  0  0  0  0
 29 28  1  0  0  0  0
 30 34  1  0  0  0  0
 30 33  1  0  0  0  0
 32 31  1  0  0  0  0
 32 29  1  1  0  0  0
 33 31  1  0  0  0  0
 34 32  1  0  0  0  0
M  END
>  <MODEL>
1

>  <REMARK>
 VINA RESULT:      -8.9      0.000      0.000
  Name = 
  3 active torsions:
  status: ('A' for Active; 'I' for Inactive)
    1  A    between atoms: N_17  and  C_28
    2  A    between atoms: C_28  and  C_29
    3  A    between atoms: C_29  and  C_32
                            x       y       z     vdW  Elec       q    Type
                         _______ _______ _______ _____ _____    ______ ____

>  <TORSDO>
F 3

$$$$
=
 OpenBabel11112417583D

 34 40  0  0  1  0  0  0  0  0999 V2000
  192.3630  176.0460  145.4810 C   0  0  0  0  0  0  0  0  0  0  0  0
  190.0670  176.4230  146.7200 C   0  0  0  0  0  2  0  0  0  0  0  0
  196.0240  175.0940  140.0830 C   0  0  2  0  0  3  0  0  0  0  0  0
  194.3960  175.6400  144.1790 C   0  0  0  0  0  0  0  0  0  0  0  0
  194.1820  174.9230  141.8540 C   0  0  0  0  0  0  0  0  0  0  0  0
  193.7270  174.5560  139.5350 O   0  0  0  0  0  1  0  0  0  0  0  0
  196.1970  175.1220  138.5730 C   0  0  0  0  0  1  0  0  0  0  0  0
  197.0900  174.0870  142.1710 C   0  0  0  0  0  2  0  0  0  0  0  0
  190.1620  175.6890  144.5110 C   0  0  0  0  0  0  0  0  0  0  0  0
  187.5620  175.3540  142.7270 C   0  0  0  0  0  2  0  0  0  0  0  0
  192.8270  174.9470  142.0070 N   0  0  0  0  0  0  0  0  0  0  0  0
  196.5190  175.2940  142.8900 C   0  0  0  0  0  2  0  0  0  0  0  0
  190.7700  175.3270  143.2500 N   0  0  0  0  0  0  0  0  0  0  0  0
  188.6440  176.4240  146.1660 C   0  0  0  0  0  2  0  0  0  0  0  0
  195.0110  175.2550  142.9680 C   0  0  0  0  0  0  0  0  0  0  0  0
  197.2330  174.3740  140.6800 C   0  0  0  0  0  2  0  0  0  0  0  0
  187.9630  176.3540  143.7250 N   0  0  0  0  0  0  0  0  0  0  0  0
  192.9900  175.6620  144.2760 C   0  0  0  0  0  0  0  0  0  0  0  0
  194.7120  174.4200  140.5200 C   0  0  1  0  0  3  0  0  0  0  0  0
  192.2130  175.3060  143.1630 C   0  0  0  0  0  0  0  0  0  0  0  0
  194.5350  176.3870  146.4950 C   0  0  0  0  0  3  0  0  0  0  0  0
  188.7010  174.4500  142.2430 C   0  0  0  0  0  2  0  0  0  0  0  0
  195.1570  176.0070  145.3030 C   0  0  0  0  0  3  0  0  0  0  0  0
  189.9840  175.2330  142.0180 C   0  0  0  0  0  2  0  0  0  0  0  0
  188.7020  175.6880  144.8120 C   0  0  1  0  0  3  0  0  0  0  0  0
  193.1410  176.4070  146.5850 C   0  0  0  0  0  3  0  0  0  0  0  0
  190.8910  176.0450  145.5490 C   0  0  0  0  0  0  0  0  0  0  0  0
  186.7060  176.9120  144.2130 C   0  0  0  0  0  2  0  0  0  0  0  0
  186.5180  178.3100  143.6510 C   0  0  0  0  0  2  0  0  0  0  0  0
  183.6590  179.0420  144.7640 O   0  0  0  0  0  0  0  0  0  0  0  0
  185.5870  178.4530  145.9420 C   0  0  0  0  0  2  0  0  0  0  0  0
  185.9280  179.2290  144.7080 C   0  0  2  0  0  3  0  0  0  0  0  0
  184.1050  178.6600  146.0360 C   0  0  0  0  0  2  0  0  0  0  0  0
  184.6710  179.7810  144.2260 N   0  0  0  0  0  2  0  0  0  0  0  0
  1 27  1  0  0  0  0
  1 26  1  0  0  0  0
  3  7  1  6  0  0  0
  3 19  1  0  0  0  0
  3 16  1  0  0  0  0
  4 18  1  0  0  0  0
  4 23  2  0  0  0  0
  5 11  1  0  0  0  0
  5 15  2  0  0  0  0
  8 12  1  0  0  0  0
  9 25  1  0  0  0  0
  9 27  2  0  0  0  0
 10 17  1  0  0  0  0
 11 20  2  0  0  0  0
 12 15  1  0  0  0  0
 13  9  1  0  0  0  0
 14  2  1  0  0  0  0
 15  4  1  0  0  0  0
 16  8  1  0  0  0  0
 17 28  1  0  0  0  0
 17 25  1  0  0  0  0
 18  1  2  0  0  0  0
 19  6  1  6  0  0  0
 19  5  1  0  0  0  0
 20 13  1  0  0  0  0
 20 18  1  0  0  0  0
 21 26  2  0  0  0  0
 22 10  1  0  0  0  0
 23 21  1  0  0  0  0
 24 22  1  0  0  0  0
 24 13  1  0  0  0  0
 25 14  1  1  0  0  0
 27  2  1  0  0  0  0
 29 28  1  0  0  0  0
 30 33  1  0  0  0  0
 31 33  1  0  0  0  0
 32 29  1  6  0  0  0
 32 31  1  0  0  0  0
 34 32  1  0  0  0  0
 34 30  1  0  0  0  0
M  END
>  <MODEL>
2

>  <REMARK>
 VINA RESULT:      -8.5      2.236      3.160
  Name = 
  3 active torsions:
  status: ('A' for Active; 'I' for Inactive)
    1  A    between atoms: N_17  and  C_28
    2  A    between atoms: C_28  and  C_29
    3  A    between atoms: C_29  and  C_32
                            x       y       z     vdW  Elec       q    Type
                         _______ _______ _______ _____ _____    ______ ____

>  <TORSDO>
F 3

$$$$
=
 OpenBabel11112417583D

 34 40  0  0  1  0  0  0  0  0999 V2000
  190.0160  174.8590  142.4680 C   0  0  0  0  0  0  0  0  0  0  0  0
  187.5040  175.6230  142.7140 C   0  0  0  0  0  2  0  0  0  0  0  0
  196.0580  173.7260  144.8440 C   0  0  2  0  0  3  0  0  0  0  0  0
  192.3810  174.2340  142.4060 C   0  0  0  0  0  0  0  0  0  0  0  0
  193.8040  174.8140  144.3040 C   0  0  0  0  0  0  0  0  0  0  0  0
  194.9060  175.1880  146.3940 O   0  0  0  0  0  1  0  0  0  0  0  0
  197.0100  173.5240  146.0120 C   0  0  0  0  0  1  0  0  0  0  0  0
  196.0820  174.2940  142.3570 C   0  0  0  0  0  2  0  0  0  0  0  0
  189.0950  176.0890  144.3520 C   0  0  0  0  0  0  0  0  0  0  0  0
  188.3240  177.4220  147.1250 C   0  0  0  0  0  2  0  0  0  0  0  0
  192.7220  175.4030  144.8900 N   0  0  0  0  0  0  0  0  0  0  0  0
  194.7810  173.5160  142.2970 C   0  0  0  0  0  2  0  0  0  0  0  0
  190.3810  176.0590  145.0090 N   0  0  0  0  0  0  0  0  0  0  0  0
  186.7750  176.2150  143.9180 C   0  0  0  0  0  2  0  0  0  0  0  0
  193.6560  174.2250  143.0130 C   0  0  0  0  0  0  0  0  0  0  0  0
  196.8970  173.8740  143.5760 C   0  0  0  0  0  2  0  0  0  0  0  0
  187.6600  176.4160  146.2840 N   0  0  0  0  0  0  0  0  0  0  0  0
  191.2940  174.8440  143.0640 C   0  0  0  0  0  0  0  0  0  0  0  0
  195.1320  174.9390  145.0350 C   0  0  1  0  0  3  0  0  0  0  0  0
  191.4890  175.4320  144.3230 C   0  0  0  0  0  0  0  0  0  0  0  0
  190.8970  173.6590  140.5590 C   0  0  0  0  0  3  0  0  0  0  0  0
  189.7870  177.6920  146.7530 C   0  0  0  0  0  2  0  0  0  0  0  0
  192.1640  173.6440  141.1480 C   0  0  0  0  0  3  0  0  0  0  0  0
  190.5300  176.4090  146.4230 C   0  0  0  0  0  2  0  0  0  0  0  0
  187.8640  176.7570  144.8650 C   0  0  1  0  0  3  0  0  0  0  0  0
  189.8250  174.2660  141.2160 C   0  0  0  0  0  3  0  0  0  0  0  0
  188.9060  175.5170  143.1800 C   0  0  0  0  0  0  0  0  0  0  0  0
  186.2500  176.5080  146.6470 C   0  0  0  0  0  2  0  0  0  0  0  0
  186.0620  177.5930  147.6920 C   0  0  0  0  0  2  0  0  0  0  0  0
  185.6790  179.5610  145.2560 O   0  0  0  0  0  0  0  0  0  0  0  0
  184.1720  178.0160  146.1480 C   0  0  0  0  0  2  0  0  0  0  0  0
  185.0330  178.6070  147.2210 C   0  0  2  0  0  3  0  0  0  0  0  0
  184.4620  178.9210  144.9880 C   0  0  0  0  0  2  0  0  0  0  0  0
  185.7100  179.7400  146.6080 N   0  0  0  0  0  2  0  0  0  0  0  0
  1 18  1  0  0  0  0
  1 27  1  0  0  0  0
  2 27  1  0  0  0  0
  2 14  1  0  0  0  0
  3 19  1  0  0  0  0
  3  7  1  1  0  0  0
  4 15  2  0  0  0  0
  4 18  1  0  0  0  0
  5 11  2  0  0  0  0
  5 19  1  0  0  0  0
  8 16  1  0  0  0  0
  9 25  1  0  0  0  0
  9 13  1  0  0  0  0
 12  8  1  0  0  0  0
 12 15  1  0  0  0  0
 13 24  1  0  0  0  0
 15  5  1  0  0  0  0
 16  3  1  0  0  0  0
 17 28  1  0  0  0  0
 17 10  1  0  0  0  0
 18 20  2  0  0  0  0
 19  6  1  1  0  0  0
 20 11  1  0  0  0  0
 20 13  1  0  0  0  0
 21 23  2  0  0  0  0
 21 26  1  0  0  0  0
 22 10  1  0  0  0  0
 23  4  1  0  0  0  0
 24 22  1  0  0  0  0
 25 14  1  6  0  0  0
 25 17  1  0  0  0  0
 26  1  2  0  0  0  0
 27  9  2  0  0  0  0
 28 29  1  0  0  0  0
 30 34  1  0  0  0  0
 31 32  1  0  0  0  0
 32 29  1  6  0  0  0
 33 30  1  0  0  0  0
 33 31  1  0  0  0  0
 34 32  1  0  0  0  0
M  END
>  <MODEL>
3

>  <REMARK>
 VINA RESULT:      -8.3      2.729      4.493
  Name = 
  3 active torsions:
  status: ('A' for Active; 'I' for Inactive)
    1  A    between atoms: N_17  and  C_28
    2  A    between atoms: C_28  and  C_29
    3  A    between atoms: C_29  and  C_32
                            x       y       z     vdW  Elec       q    Type
                         _______ _______ _______ _____ _____    ______ ____

>  <TORSDO>
F 3

$$$$
=
 OpenBabel11112417583D

 34 40  0  0  1  0  0  0  0  0999 V2000
  188.7450  176.1970  146.4980 C   0  0  0  0  0  0  0  0  0  0  0  0
  191.0000  175.2930  147.5230 C   0  0  0  0  0  2  0  0  0  0  0  0
  184.8790  177.9240  141.4470 C   0  0  2  0  0  3  0  0  0  0  0  0
  186.7450  177.0620  145.3840 C   0  0  0  0  0  0  0  0  0  0  0  0
  186.8820  177.6710  143.0220 C   0  0  0  0  0  0  0  0  0  0  0  0
  187.1690  177.8810  140.6570 O   0  0  0  0  0  1  0  0  0  0  0  0
  184.5490  177.9160  139.9620 C   0  0  0  0  0  1  0  0  0  0  0  0
  184.3080  179.1910  143.5860 C   0  0  0  0  0  2  0  0  0  0  0  0
  190.8540  175.9950  145.3050 C   0  0  0  0  0  0  0  0  0  0  0  0
  193.2600  175.6630  143.2660 C   0  0  0  0  0  2  0  0  0  0  0  0
  188.2000  177.3220  143.0440 N   0  0  0  0  0  0  0  0  0  0  0  0
  184.6450  177.8930  144.2940 C   0  0  0  0  0  2  0  0  0  0  0  0
  190.2240  176.4740  144.0970 N   0  0  0  0  0  0  0  0  0  0  0  0
  192.3160  174.9390  146.8340 C   0  0  0  0  0  2  0  0  0  0  0  0
  186.1180  177.5670  144.2240 C   0  0  0  0  0  0  0  0  0  0  0  0
  183.9460  178.9240  142.1290 C   0  0  0  0  0  2  0  0  0  0  0  0
  192.7370  174.8040  144.3380 N   0  0  0  0  0  0  0  0  0  0  0  0
  188.1070  176.7020  145.3450 C   0  0  0  0  0  0  0  0  0  0  0  0
  186.3520  178.2670  141.7270 C   0  0  1  0  0  3  0  0  0  0  0  0
  188.8270  176.8420  144.1490 C   0  0  0  0  0  0  0  0  0  0  0  0
  186.6720  176.4070  147.7310 C   0  0  0  0  0  3  0  0  0  0  0  0
  192.3260  176.8080  142.8590 C   0  0  0  0  0  2  0  0  0  0  0  0
  186.0390  176.9080  146.5900 C   0  0  0  0  0  3  0  0  0  0  0  0
  190.8770  176.3560  142.7910 C   0  0  0  0  0  2  0  0  0  0  0  0
  192.2960  175.6470  145.4640 C   0  0  1  0  0  3  0  0  0  0  0  0
  188.0220  176.0520  147.6860 C   0  0  0  0  0  3  0  0  0  0  0  0
  190.1730  175.8410  146.4230 C   0  0  0  0  0  0  0  0  0  0  0  0
  193.8670  173.9660  144.7230 C   0  0  0  0  0  2  0  0  0  0  0  0
  195.1640  174.7170  144.4770 C   0  0  0  0  0  2  0  0  0  0  0  0
  197.1910  173.4160  146.5130 O   0  0  0  0  0  0  0  0  0  0  0  0
  195.8990  172.3840  144.8640 C   0  0  0  0  0  2  0  0  0  0  0  0
  196.3340  173.7490  144.4290 C   0  0  2  0  0  3  0  0  0  0  0  0
  196.7570  172.1580  146.0740 C   0  0  0  0  0  2  0  0  0  0  0  0
  197.3500  174.1650  145.3840 N   0  0  0  0  0  2  0  0  0  0  0  0
  1 26  1  0  0  0  0
  3  7  1  6  0  0  0
  3 19  1  0  0  0  0
  3 16  1  0  0  0  0
  4 23  2  0  0  0  0
  5 11  1  0  0  0  0
  5 15  2  0  0  0  0
  8 12  1  0  0  0  0
  9 25  1  0  0  0  0
  9 27  2  0  0  0  0
 10 17  1  0  0  0  0
 11 20  2  0  0  0  0
 13 20  1  0  0  0  0
 13  9  1  0  0  0  0
 14  2  1  0  0  0  0
 15 12  1  0  0  0  0
 15  4  1  0  0  0  0
 16  8  1  0  0  0  0
 17 28  1  0  0  0  0
 17 25  1  0  0  0  0
 18  4  1  0  0  0  0
 18  1  2  0  0  0  0
 19  6  1  6  0  0  0
 19  5  1  0  0  0  0
 20 18  1  0  0  0  0
 22 10  1  0  0  0  0
 23 21  1  0  0  0  0
 24 22  1  0  0  0  0
 24 13  1  0  0  0  0
 25 14  1  1  0  0  0
 26 21  2  0  0  0  0
 27  1  1  0  0  0  0
 27  2  1  0  0  0  0
 29 28  1  0  0  0  0
 31 33  1  0  0  0  0
 32 29  1  1  0  0  0
 32 31  1  0  0  0  0
 32 34  1  0  0  0  0
 33 30  1  0  0  0  0
 34 30  1  0  0  0  0
M  END
>  <MODEL>
4

>  <REMARK>
 VINA RESULT:      -8.3      2.219      8.917
  Name = 
  3 active torsions:
  status: ('A' for Active; 'I' for Inactive)
    1  A    between atoms: N_17  and  C_28
    2  A    between atoms: C_28  and  C_29
    3  A    between atoms: C_29  and  C_32
                            x       y       z     vdW  Elec       q    Type
                         _______ _______ _______ _____ _____    ______ ____

>  <TORSDO>
F 3

$$$$
=
 OpenBabel11112417583D

 34 40  0  0  1  0  0  0  0  0999 V2000
  190.0460  175.2600  142.6900 C   0  0  0  0  0  0  0  0  0  0  0  0
  192.3530  174.3900  141.7550 C   0  0  0  0  0  2  0  0  0  0  0  0
  186.3640  178.6690  146.9640 C   0  0  2  0  0  3  0  0  0  0  0  0
  187.9950  176.1140  143.7180 C   0  0  0  0  0  0  0  0  0  0  0  0
  188.1190  177.1070  145.9460 C   0  0  0  0  0  0  0  0  0  0  0  0
  188.5420  178.3190  147.9640 O   0  0  0  0  0  1  0  0  0  0  0  0
  186.2230  179.7190  148.0540 C   0  0  0  0  0  1  0  0  0  0  0  0
  185.1070  176.6890  145.9600 C   0  0  0  0  0  2  0  0  0  0  0  0
  192.1670  175.3370  143.8760 C   0  0  0  0  0  0  0  0  0  0  0  0
  194.7000  175.9150  145.6960 C   0  0  0  0  0  2  0  0  0  0  0  0
  189.4550  176.8330  145.9560 N   0  0  0  0  0  0  0  0  0  0  0  0
  185.8660  177.0150  144.6880 C   0  0  0  0  0  2  0  0  0  0  0  0
  191.5270  175.9960  144.9910 N   0  0  0  0  0  0  0  0  0  0  0  0
  193.7630  174.5610  142.3150 C   0  0  0  0  0  2  0  0  0  0  0  0
  187.3420  176.7240  144.8120 C   0  0  0  0  0  0  0  0  0  0  0  0
  185.0390  177.9130  146.8670 C   0  0  0  0  0  2  0  0  0  0  0  0
  194.4610  176.0400  144.2510 N   0  0  0  0  0  0  0  0  0  0  0  0
  189.3820  175.8680  143.7770 C   0  0  0  0  0  0  0  0  0  0  0  0
  187.5320  177.7000  147.2170 C   0  0  1  0  0  3  0  0  0  0  0  0
  190.1040  176.2400  144.9210 C   0  0  0  0  0  0  0  0  0  0  0  0
  187.9500  175.1380  141.4840 C   0  0  0  0  0  3  0  0  0  0  0  0
  193.4290  175.7350  146.5340 C   0  0  0  0  0  2  0  0  0  0  0  0
  187.2910  175.7410  142.5600 C   0  0  0  0  0  3  0  0  0  0  0  0
  192.3050  176.6370  146.0540 C   0  0  0  0  0  2  0  0  0  0  0  0
  193.6000  174.9310  143.8030 C   0  0  1  0  0  3  0  0  0  0  0  0
  189.3240  174.8980  141.5490 C   0  0  0  0  0  3  0  0  0  0  0  0
  191.4940  175.0080  142.7920 C   0  0  0  0  0  0  0  0  0  0  0  0
  195.7880  175.9480  143.6500 C   0  0  0  0  0  2  0  0  0  0  0  0
  196.6360  174.9670  144.4390 C   0  0  0  0  0  2  0  0  0  0  0  0
  197.4230  173.1090  142.0140 O   0  0  0  0  0  0  0  0  0  0  0  0
  197.9340  175.3600  142.3670 C   0  0  0  0  0  2  0  0  0  0  0  0
  197.8920  174.6110  143.6620 C   0  0  2  0  0  3  0  0  0  0  0  0
  197.9240  174.2450  141.3640 C   0  0  0  0  0  2  0  0  0  0  0  0
  197.8600  173.2010  143.3030 N   0  0  0  0  0  2  0  0  0  0  0  0
  1 27  1  0  0  0  0
  1 18  1  0  0  0  0
  2 14  1  0  0  0  0
  2 27  1  0  0  0  0
  3 19  1  0  0  0  0
  3  7  1  1  0  0  0
  4 18  2  0  0  0  0
  4 15  1  0  0  0  0
  5 11  1  0  0  0  0
  5 19  1  0  0  0  0
  8 16  1  0  0  0  0
  9 13  1  0  0  0  0
 10 22  1  0  0  0  0
 12 15  1  0  0  0  0
 12  8  1  0  0  0  0
 13 24  1  0  0  0  0
 15  5  2  0  0  0  0
 16  3  1  0  0  0  0
 17 10  1  0  0  0  0
 18 20  1  0  0  0  0
 19  6  1  6  0  0  0
 20 13  1  0  0  0  0
 20 11  2  0  0  0  0
 21 26  1  0  0  0  0
 21 23  2  0  0  0  0
 23  4  1  0  0  0  0
 24 22  1  0  0  0  0
 25 14  1  6  0  0  0
 25  9  1  0  0  0  0
 25 17  1  0  0  0  0
 26  1  2  0  0  0  0
 27  9  2  0  0  0  0
 28 17  1  0  0  0  0
 28 29  1  0  0  0  0
 30 34  1  0  0  0  0
 31 32  1  0  0  0  0
 32 29  1  6  0  0  0
 33 30  1  0  0  0  0
 33 31  1  0  0  0  0
 34 32  1  0  0  0  0
M  END
>  <MODEL>
5

>  <REMARK>
 VINA RESULT:      -8.3      3.175      9.359
  Name = 
  3 active torsions:
  status: ('A' for Active; 'I' for Inactive)
    1  A    between atoms: N_17  and  C_28
    2  A    between atoms: C_28  and  C_29
    3  A    between atoms: C_29  and  C_32
                            x       y       z     vdW  Elec       q    Type
                         _______ _______ _______ _____ _____    ______ ____

>  <TORSDO>
F 3

$$$$
=
 OpenBabel11112417583D

 34 40  0  0  1  0  0  0  0  0999 V2000
  189.5320  174.4930  145.0740 C   0  0  0  0  0  0  0  0  0  0  0  0
  191.3080  172.6000  144.6080 C   0  0  0  0  0  2  0  0  0  0  0  0
  184.4260  178.2910  143.3620 C   0  0  2  0  0  3  0  0  0  0  0  0
  187.8510  176.2540  145.3220 C   0  0  0  0  0  0  0  0  0  0  0  0
  186.6500  177.0230  143.3390 C   0  0  0  0  0  0  0  0  0  0  0  0
  185.3870  177.3710  141.3380 O   0  0  0  0  0  1  0  0  0  0  0  0
  183.2450  178.6010  142.4550 C   0  0  0  0  0  1  0  0  0  0  0  0
  185.9410  179.4160  145.0780 C   0  0  0  0  0  2  0  0  0  0  0  0
  190.0530  173.5560  142.8920 C   0  0  0  0  0  0  0  0  0  0  0  0
  190.1660  172.4760  139.9120 C   0  0  0  0  0  2  0  0  0  0  0  0
  187.3840  176.1460  142.5960 N   0  0  0  0  0  0  0  0  0  0  0  0
  186.1060  178.0240  145.6570 C   0  0  0  0  0  2  0  0  0  0  0  0
  189.0480  174.3980  142.2840 N   0  0  0  0  0  0  0  0  0  0  0  0
  191.5780  171.8040  143.3330 C   0  0  0  0  0  2  0  0  0  0  0  0
  186.8900  177.1120  144.7430 C   0  0  0  0  0  0  0  0  0  0  0  0
  184.6560  179.5040  144.2630 C   0  0  0  0  0  2  0  0  0  0  0  0
  190.1800  171.8020  141.2170 N   0  0  0  0  0  0  0  0  0  0  0  0
  188.5710  175.3560  144.5080 C   0  0  0  0  0  0  0  0  0  0  0  0
  185.7010  177.9380  142.5790 C   0  0  1  0  0  3  0  0  0  0  0  0
  188.3190  175.3170  143.1280 C   0  0  0  0  0  0  0  0  0  0  0  0
  189.0660  175.4170  147.2630 C   0  0  0  0  0  3  0  0  0  0  0  0
  189.7470  173.9500  139.9660 C   0  0  0  0  0  2  0  0  0  0  0  0
  188.1120  176.2730  146.7030 C   0  0  0  0  0  3  0  0  0  0  0  0
  188.5810  174.1700  140.9150 C   0  0  0  0  0  2  0  0  0  0  0  0
  190.9560  172.6110  142.1740 C   0  0  1  0  0  3  0  0  0  0  0  0
  189.7750  174.5300  146.4510 C   0  0  0  0  0  3  0  0  0  0  0  0
  190.2740  173.5750  144.1910 C   0  0  0  0  0  0  0  0  0  0  0  0
  190.8350  170.5220  140.9630 C   0  0  0  0  0  2  0  0  0  0  0  0
  191.8410  170.6810  139.8380 C   0  0  0  0  0  2  0  0  0  0  0  0
  189.6920  169.5310  137.8360 O   0  0  0  0  0  0  0  0  0  0  0  0
  191.9480  170.0010  137.4580 C   0  0  0  0  0  2  0  0  0  0  0  0
  191.7260  169.5240  138.8600 C   0  0  2  0  0  3  0  0  0  0  0  0
  190.6350  169.6730  136.8100 C   0  0  0  0  0  2  0  0  0  0  0  0
  190.3710  168.9940  138.8900 N   0  0  0  0  0  2  0  0  0  0  0  0
  1 26  1  0  0  0  0
  3  7  1  6  0  0  0
  3 16  1  0  0  0  0
  4 23  2  0  0  0  0
  5 15  2  0  0  0  0
  8 12  1  0  0  0  0
  9 27  2  0  0  0  0
 10 22  1  0  0  0  0
 10 17  1  0  0  0  0
 11 20  2  0  0  0  0
 11  5  1  0  0  0  0
 13  9  1  0  0  0  0
 13 20  1  0  0  0  0
 14  2  1  0  0  0  0
 15  4  1  0  0  0  0
 15 12  1  0  0  0  0
 16  8  1  0  0  0  0
 17 25  1  0  0  0  0
 18  1  2  0  0  0  0
 18  4  1  0  0  0  0
 19  6  1  6  0  0  0
 19  5  1  0  0  0  0
 19  3  1  0  0  0  0
 20 18  1  0  0  0  0
 22 24  1  0  0  0  0
 23 21  1  0  0  0  0
 24 13  1  0  0  0  0
 25  9  1  0  0  0  0
 25 14  1  1  0  0  0
 26 21  2  0  0  0  0
 27  2  1  0  0  0  0
 27  1  1  0  0  0  0
 28 17  1  0  0  0  0
 29 28  1  0  0  0  0
 30 34  1  0  0  0  0
 31 32  1  0  0  0  0
 32 34  1  0  0  0  0
 32 29  1  1  0  0  0
 33 31  1  0  0  0  0
 33 30  1  0  0  0  0
M  END
>  <MODEL>
6

>  <REMARK>
 VINA RESULT:      -8.3      4.286      8.178
  Name = 
  3 active torsions:
  status: ('A' for Active; 'I' for Inactive)
    1  A    between atoms: N_17  and  C_28
    2  A    between atoms: C_28  and  C_29
    3  A    between atoms: C_29  and  C_32
                            x       y       z     vdW  Elec       q    Type
                         _______ _______ _______ _____ _____    ______ ____

>  <TORSDO>
F 3

$$$$
=
 OpenBabel11112417583D

 34 40  0  0  1  0  0  0  0  0999 V2000
  192.3370  176.3260  145.5130 C   0  0  0  0  0  0  0  0  0  0  0  0
  190.0500  176.7150  146.7670 C   0  0  0  0  0  2  0  0  0  0  0  0
  195.9510  175.2890  140.1000 C   0  0  2  0  0  3  0  0  0  0  0  0
  194.3590  175.9060  144.2000 C   0  0  0  0  0  0  0  0  0  0  0  0
  194.1270  175.1430  141.8910 C   0  0  0  0  0  0  0  0  0  0  0  0
  193.6510  174.7280  139.5840 O   0  0  0  0  0  1  0  0  0  0  0  0
  196.1090  175.2880  138.5870 C   0  0  0  0  0  1  0  0  0  0  0  0
  197.0420  174.3290  142.1960 C   0  0  0  0  0  2  0  0  0  0  0  0
  190.1290  175.9380  144.5720 C   0  0  0  0  0  0  0  0  0  0  0  0
  187.5130  175.5540  142.8200 C   0  0  0  0  0  2  0  0  0  0  0  0
  192.7740  175.1620  142.0570 N   0  0  0  0  0  0  0  0  0  0  0  0
  196.4710  175.5460  142.8970 C   0  0  0  0  0  2  0  0  0  0  0  0
  190.7260  175.5550  143.3130 N   0  0  0  0  0  0  0  0  0  0  0  0
  188.6220  176.6970  146.2270 C   0  0  0  0  0  2  0  0  0  0  0  0
  194.9650  175.5000  142.9900 C   0  0  0  0  0  0  0  0  0  0  0  0
  197.1690  174.5880  140.6990 C   0  0  0  0  0  2  0  0  0  0  0  0
  187.9180  176.5760  143.7950 N   0  0  0  0  0  0  0  0  0  0  0  0
  192.9540  175.9220  144.3100 C   0  0  0  0  0  0  0  0  0  0  0  0
  194.6470  174.6160  140.5620 C   0  0  1  0  0  3  0  0  0  0  0  0
  192.1680  175.5400  143.2120 C   0  0  0  0  0  0  0  0  0  0  0  0
  194.5160  176.6990  146.5000 C   0  0  0  0  0  3  0  0  0  0  0  0
  188.6530  174.6470  142.3430 C   0  0  0  0  0  2  0  0  0  0  0  0
  195.1280  176.2990  145.3090 C   0  0  0  0  0  3  0  0  0  0  0  0
  189.9290  175.4320  142.0900 C   0  0  0  0  0  2  0  0  0  0  0  0
  188.6710  175.9350  144.8870 C   0  0  1  0  0  3  0  0  0  0  0  0
  193.1230  176.7120  146.6020 C   0  0  0  0  0  3  0  0  0  0  0  0
  190.8650  176.3190  145.5960 C   0  0  0  0  0  0  0  0  0  0  0  0
  186.6630  177.1360  144.2840 C   0  0  0  0  0  2  0  0  0  0  0  0
  185.5700  176.9120  143.2530 C   0  0  0  0  0  2  0  0  0  0  0  0
  185.4000  178.2900  140.4210 O   0  0  0  0  0  0  0  0  0  0  0  0
  183.7500  178.0950  142.0620 C   0  0  0  0  0  2  0  0  0  0  0  0
  185.1050  178.2390  142.6790 C   0  0  2  0  0  3  0  0  0  0  0  0
  184.0230  178.4480  140.6300 C   0  0  0  0  0  2  0  0  0  0  0  0
  185.9930  178.6400  141.5980 N   0  0  0  0  0  2  0  0  0  0  0  0
  1 27  1  0  0  0  0
  1 26  1  0  0  0  0
  3  7  1  6  0  0  0
  3 19  1  0  0  0  0
  3 16  1  0  0  0  0
  4 18  1  0  0  0  0
  4 23  2  0  0  0  0
  5 11  1  0  0  0  0
  5 15  2  0  0  0  0
  8 12  1  0  0  0  0
  9 25  1  0  0  0  0
  9 27  2  0  0  0  0
 10 17  1  0  0  0  0
 11 20  2  0  0  0  0
 12 15  1  0  0  0  0
 13  9  1  0  0  0  0
 14  2  1  0  0  0  0
 15  4  1  0  0  0  0
 16  8  1  0  0  0  0
 17 28  1  0  0  0  0
 17 25  1  0  0  0  0
 18  1  2  0  0  0  0
 19  6  1  6  0  0  0
 19  5  1  0  0  0  0
 20 13  1  0  0  0  0
 20 18  1  0  0  0  0
 21 26  2  0  0  0  0
 22 10  1  0  0  0  0
 23 21  1  0  0  0  0
 24 22  1  0  0  0  0
 24 13  1  0  0  0  0
 25 14  1  1  0  0  0
 27  2  1  0  0  0  0
 29 28  1  0  0  0  0
 30 33  1  0  0  0  0
 30 34  1  0  0  0  0
 31 32  1  0  0  0  0
 32 29  1  6  0  0  0
 33 31  1  0  0  0  0
 34 32  1  0  0  0  0
M  END
>  <MODEL>
7

>  <REMARK>
 VINA RESULT:      -8.2      1.540      2.544
  Name = 
  3 active torsions:
  status: ('A' for Active; 'I' for Inactive)
    1  A    between atoms: N_17  and  C_28
    2  A    between atoms: C_28  and  C_29
    3  A    between atoms: C_29  and  C_32
                            x       y       z     vdW  Elec       q    Type
                         _______ _______ _______ _____ _____    ______ ____

>  <TORSDO>
F 3

$$$$
=
 OpenBabel11112417583D

 34 40  0  0  1  0  0  0  0  0999 V2000
  192.4630  175.9120  145.2940 C   0  0  0  0  0  0  0  0  0  0  0  0
  190.3170  177.4360  145.1390 C   0  0  0  0  0  2  0  0  0  0  0  0
  196.1830  170.8160  143.3890 C   0  0  2  0  0  3  0  0  0  0  0  0
  194.3630  174.3690  145.3340 C   0  0  0  0  0  0  0  0  0  0  0  0
  194.1980  172.2650  144.1050 C   0  0  0  0  0  0  0  0  0  0  0  0
  193.9330  170.4460  142.5740 O   0  0  0  0  0  1  0  0  0  0  0  0
  196.5410  169.7350  142.3810 C   0  0  0  0  0  1  0  0  0  0  0  0
  196.5530  171.4280  145.8380 C   0  0  0  0  0  2  0  0  0  0  0  0
  190.4180  175.3500  144.1050 C   0  0  0  0  0  0  0  0  0  0  0  0
  188.1110  174.2940  142.2020 C   0  0  0  0  0  2  0  0  0  0  0  0
  192.9320  172.6180  143.7380 N   0  0  0  0  0  0  0  0  0  0  0  0
  196.3650  172.8600  145.3770 C   0  0  0  0  0  2  0  0  0  0  0  0
  191.0080  174.1070  143.6650 N   0  0  0  0  0  0  0  0  0  0  0  0
  189.0690  177.2840  144.2740 C   0  0  0  0  0  2  0  0  0  0  0  0
  194.9450  173.1420  144.9470 C   0  0  0  0  0  0  0  0  0  0  0  0
  196.9730  170.5430  144.6690 C   0  0  0  0  0  2  0  0  0  0  0  0
  188.7150  175.6200  142.3940 N   0  0  0  0  0  0  0  0  0  0  0  0
  193.0560  174.6900  144.9140 C   0  0  0  0  0  0  0  0  0  0  0  0
  194.6750  170.8850  143.6780 C   0  0  1  0  0  3  0  0  0  0  0  0
  192.3470  173.7880  144.1050 C   0  0  0  0  0  0  0  0  0  0  0  0
  194.4700  176.5000  146.5140 C   0  0  0  0  0  3  0  0  0  0  0  0
  188.9050  173.1400  142.8260 C   0  0  0  0  0  2  0  0  0  0  0  0
  195.0590  175.2890  146.1380 C   0  0  0  0  0  3  0  0  0  0  0  0
  190.3990  173.3010  142.6050 C   0  0  0  0  0  2  0  0  0  0  0  0
  189.0280  175.8090  143.8220 C   0  0  1  0  0  3  0  0  0  0  0  0
  193.1750  176.8110  146.0940 C   0  0  0  0  0  3  0  0  0  0  0  0
  191.0910  176.2080  144.8450 C   0  0  0  0  0  0  0  0  0  0  0  0
  187.6900  176.5590  141.9540 C   0  0  0  0  0  2  0  0  0  0  0  0
  186.3630  176.2020  142.6000 C   0  0  0  0  0  2  0  0  0  0  0  0
  185.5160  178.4830  144.6080 O   0  0  0  0  0  0  0  0  0  0  0  0
  186.2170  178.6660  142.3880 C   0  0  0  0  0  2  0  0  0  0  0  0
  185.4360  177.4060  142.6020 C   0  0  2  0  0  3  0  0  0  0  0  0
  185.9410  179.4180  143.6550 C   0  0  0  0  0  2  0  0  0  0  0  0
  184.8160  177.5420  143.9120 N   0  0  0  0  0  2  0  0  0  0  0  0
  1 26  1  0  0  0  0
  3  7  1  6  0  0  0
  3 19  1  0  0  0  0
  3 16  1  0  0  0  0
  4 23  2  0  0  0  0
  5 15  2  0  0  0  0
  9 27  2  0  0  0  0
 10 17  1  0  0  0  0
 10 22  1  0  0  0  0
 11 20  2  0  0  0  0
 11  5  1  0  0  0  0
 12  8  1  0  0  0  0
 13 20  1  0  0  0  0
 13  9  1  0  0  0  0
 14  2  1  0  0  0  0
 15  4  1  0  0  0  0
 15 12  1  0  0  0  0
 16  8  1  0  0  0  0
 17 25  1  0  0  0  0
 18  1  2  0  0  0  0
 18  4  1  0  0  0  0
 19  6  1  6  0  0  0
 19  5  1  0  0  0  0
 20 18  1  0  0  0  0
 23 21  1  0  0  0  0
 24 22  1  0  0  0  0
 24 13  1  0  0  0  0
 25  9  1  0  0  0  0
 25 14  1  6  0  0  0
 26 21  2  0  0  0  0
 27  2  1  0  0  0  0
 27  1  1  0  0  0  0
 28 17  1  0  0  0  0
 28 29  1  0  0  0  0
 31 32  1  0  0  0  0
 31 33  1  0  0  0  0
 32 29  1  1  0  0  0
 32 34  1  0  0  0  0
 33 30  1  0  0  0  0
 34 30  1  0  0  0  0
M  END
>  <MODEL>
8

>  <REMARK>
 VINA RESULT:      -8.1      2.788      3.804
  Name = 
  3 active torsions:
  status: ('A' for Active; 'I' for Inactive)
    1  A    between atoms: N_17  and  C_28
    2  A    between atoms: C_28  and  C_29
    3  A    between atoms: C_29  and  C_32
                            x       y       z     vdW  Elec       q    Type
                         _______ _______ _______ _____ _____    ______ ____

>  <TORSDO>
F 3

$$$$
=
 OpenBabel11112417583D

 34 40  0  0  1  0  0  0  0  0999 V2000
  187.0530  176.3740  140.7930 C   0  0  0  0  0  0  0  0  0  0  0  0
  188.1490  174.8650  138.9290 C   0  0  0  0  0  2  0  0  0  0  0  0
  186.5100  178.5790  146.9810 C   0  0  2  0  0  3  0  0  0  0  0  0
  186.1200  177.6650  142.6520 C   0  0  0  0  0  0  0  0  0  0  0  0
  186.7360  177.0550  144.9360 C   0  0  0  0  0  0  0  0  0  0  0  0
  187.7330  176.4880  147.0350 O   0  0  0  0  0  1  0  0  0  0  0  0
  187.0640  178.7400  148.3870 C   0  0  0  0  0  1  0  0  0  0  0  0
  184.3060  178.7170  145.7020 C   0  0  0  0  0  2  0  0  0  0  0  0
  188.5200  174.4780  141.1970 C   0  0  0  0  0  0  0  0  0  0  0  0
  190.5830  172.2990  142.2230 C   0  0  0  0  0  2  0  0  0  0  0  0
  187.4900  176.0400  144.4250 N   0  0  0  0  0  0  0  0  0  0  0  0
  185.1690  179.0620  144.5040 C   0  0  0  0  0  2  0  0  0  0  0  0
  188.4440  174.7140  142.6200 N   0  0  0  0  0  0  0  0  0  0  0  0
  189.2260  173.7900  139.0480 C   0  0  0  0  0  2  0  0  0  0  0  0
  186.0020  177.8910  144.0410 C   0  0  0  0  0  0  0  0  0  0  0  0
  185.0480  179.0240  146.9990 C   0  0  0  0  0  2  0  0  0  0  0  0
  190.6110  173.2460  141.1010 N   0  0  0  0  0  0  0  0  0  0  0  0
  186.9270  176.6100  142.1780 C   0  0  0  0  0  0  0  0  0  0  0  0
  186.6390  177.1410  146.4510 C   0  0  1  0  0  3  0  0  0  0  0  0
  187.6120  175.7970  143.0940 C   0  0  0  0  0  0  0  0  0  0  0  0
  185.5730  178.2380  140.3460 C   0  0  0  0  0  3  0  0  0  0  0  0
  189.4920  172.5800  143.2620 C   0  0  0  0  0  2  0  0  0  0  0  0
  185.4470  178.4720  141.7190 C   0  0  0  0  0  3  0  0  0  0  0  0
  189.3650  174.0660  143.5570 C   0  0  0  0  0  2  0  0  0  0  0  0
  189.2570  173.3650  140.5310 C   0  0  1  0  0  3  0  0  0  0  0  0
  186.3740  177.1910  139.8840 C   0  0  0  0  0  3  0  0  0  0  0  0
  187.8950  175.2550  140.3350 C   0  0  0  0  0  0  0  0  0  0  0  0
  191.5320  172.6500  140.1390 C   0  0  0  0  0  2  0  0  0  0  0  0
  191.6700  171.1650  140.4200 C   0  0  0  0  0  2  0  0  0  0  0  0
  189.6910  170.0390  138.2380 O   0  0  0  0  0  0  0  0  0  0  0  0
  191.6270  171.3110  137.9480 C   0  0  0  0  0  2  0  0  0  0  0  0
  191.7620  170.3870  139.1180 C   0  0  2  0  0  3  0  0  0  0  0  0
  190.3910  170.7850  137.2810 C   0  0  0  0  0  2  0  0  0  0  0  0
  190.6440  169.4610  139.0240 N   0  0  0  0  0  2  0  0  0  0  0  0
  1 18  1  0  0  0  0
  2 14  1  0  0  0  0
  2 27  1  0  0  0  0
  3 16  1  0  0  0  0
  3  7  1  1  0  0  0
  4 15  1  0  0  0  0
  5 19  1  0  0  0  0
  8 16  1  0  0  0  0
  9 13  1  0  0  0  0
 10 22  1  0  0  0  0
 11  5  1  0  0  0  0
 12  8  1  0  0  0  0
 13 20  1  0  0  0  0
 13 24  1  0  0  0  0
 15 12  1  0  0  0  0
 15  5  2  0  0  0  0
 17 10  1  0  0  0  0
 18  4  2  0  0  0  0
 18 20  1  0  0  0  0
 19  3  1  0  0  0  0
 19  6  1  1  0  0  0
 20 11  2  0  0  0  0
 21 23  2  0  0  0  0
 22 24  1  0  0  0  0
 23  4  1  0  0  0  0
 25 14  1  6  0  0  0
 25 17  1  0  0  0  0
 25  9  1  0  0  0  0
 26 21  1  0  0  0  0
 26  1  2  0  0  0  0
 27  1  1  0  0  0  0
 27  9  2  0  0  0  0
 28 29  1  0  0  0  0
 28 17  1  0  0  0  0
 30 34  1  0  0  0  0
 31 32  1  0  0  0  0
 32 29  1  1  0  0  0
 33 31  1  0  0  0  0
 33 30  1  0  0  0  0
 34 32  1  0  0  0  0
M  END
>  <MODEL>
9

>  <REMARK>
 VINA RESULT:      -8.1      4.357      8.566
  Name = 
  3 active torsions:
  status: ('A' for Active; 'I' for Inactive)
    1  A    between atoms: N_17  and  C_28
    2  A    between atoms: C_28  and  C_29
    3  A    between atoms: C_29  and  C_32
                            x       y       z     vdW  Elec       q    Type
                         _______ _______ _______ _____ _____    ______ ____

>  <TORSDO>
F 3

$$$$
