=
 OpenBabel11112416163D

 30 35  0  0  1  0  0  0  0  0999 V2000
  187.2390  177.0570  143.9310 C   0  0  1  0  0  3  0  0  0  0  0  0
  185.1850  177.9870  145.1330 C   0  0  0  0  0  0  0  0  0  0  0  0
  189.1140  176.7160  147.5820 N   0  0  0  0  0  2  0  0  0  0  0  0
  188.4440  176.1620  144.2670 C   0  0  1  0  0  3  0  0  0  0  0  0
  186.3360  176.3380  143.1150 O   0  0  0  0  0  0  0  0  0  0  0  0
  188.7370  175.1470  140.6580 O   0  0  0  0  0  1  0  0  0  0  0  0
  191.5820  175.3830  143.6160 C   0  0  1  0  0  3  0  0  0  0  0  0
  188.1360  175.2510  141.9140 C   0  0  2  0  0  3  0  0  0  0  0  0
  191.6720  175.6530  145.1220 C   0  0  2  0  0  3  0  0  0  0  0  0
  190.1200  175.8350  147.1410 C   0  0  0  0  0  0  0  0  0  0  0  0
  186.9110  176.1660  141.8380 C   0  0  2  0  0  3  0  0  0  0  0  0
  189.1430  175.7640  142.9490 C   0  0  2  0  0  3  0  0  0  0  0  0
  184.5730  178.5020  146.2780 C   0  0  0  0  0  3  0  0  0  0  0  0
  192.3860  174.4450  145.6930 C   0  0  0  0  0  2  0  0  0  0  0  0
  192.7540  174.4700  143.2900 C   0  0  0  0  0  2  0  0  0  0  0  0
  184.4340  177.9020  143.9660 O   0  0  0  0  0  1  0  0  0  0  0  0
  188.7600  177.5350  146.4310 C   0  0  1  0  0  3  0  0  0  0  0  0
  185.2980  178.6590  147.4560 C   0  0  0  0  0  3  0  0  0  0  0  0
  186.5420  177.5800  145.1690 C   0  0  0  0  0  0  0  0  0  0  0  0
  189.4320  176.8790  145.1940 C   0  0  1  0  0  3  0  0  0  0  0  0
  190.7320  175.0630  147.9240 O   0  0  0  0  0  0  0  0  0  0  0  0
  190.3670  175.9000  145.7440 N   0  0  0  0  0  0  0  0  0  0  0  0
  193.3550  174.0190  144.6120 C   0  0  0  0  0  2  0  0  0  0  0  0
  189.8490  173.4840  143.8870 C   0  0  0  0  0  1  0  0  0  0  0  0
  186.6470  178.3140  147.4900 C   0  0  0  0  0  3  0  0  0  0  0  0
  187.2780  177.7800  146.3590 C   0  0  0  0  0  0  0  0  0  0  0  0
  190.2730  174.7410  143.1260 C   0  0  2  0  0  3  0  0  0  0  0  0
  187.2160  177.3980  141.2380 O   0  0  0  0  0  0  0  0  0  0  0  0
  185.1220  178.2710  140.5320 C   0  0  0  0  0  1  0  0  0  0  0  0
  186.3550  177.4840  140.1430 C   0  0  0  0  0  2  0  0  0  0  0  0
  1  5  1  1  0  0  0
  1  4  1  0  0  0  0
  1 19  1  0  0  0  0
  2 19  2  0  0  0  0
  2 13  1  0  0  0  0
  4 20  1  0  0  0  0
  6  8  1  0  0  0  0
  7  9  1  0  0  0  0
  8 12  1  0  0  0  0
  9 14  1  0  0  0  0
  9 22  1  0  0  0  0
 10  3  1  0  0  0  0
 10 21  2  0  0  0  0
 11  8  1  0  0  0  0
 11  5  1  0  0  0  0
 12 27  1  0  0  0  0
 12  4  1  0  0  0  0
 13 18  2  0  0  0  0
 15  7  1  0  0  0  0
 15 23  1  0  0  0  0
 16  2  1  0  0  0  0
 17  3  1  0  0  0  0
 18 25  1  0  0  0  0
 19 26  1  0  0  0  0
 20 22  1  0  0  0  0
 20 17  1  0  0  0  0
 22 10  1  0  0  0  0
 23 14  1  0  0  0  0
 26 17  1  0  0  0  0
 26 25  2  0  0  0  0
 27  7  1  0  0  0  0
 27 24  1  0  0  0  0
 28 11  1  0  0  0  0
 30 29  1  0  0  0  0
 30 28  1  0  0  0  0
M  END
>  <MODEL>
1

>  <REMARK>
 VINA RESULT:      -8.5      0.000      0.000
  Name = 
  2 active torsions:
  status: ('A' for Active; 'I' for Inactive)
    1  A    between atoms: C_11  and  O_28
    2  A    between atoms: O_28  and  C_30
                            x       y       z     vdW  Elec       q    Type
                         _______ _______ _______ _____ _____    ______ ____

>  <TORSDO>
F 2

$$$$
=
 OpenBabel11112416163D

 30 35  0  0  1  0  0  0  0  0999 V2000
  190.2460  175.5460  144.0140 C   0  0  1  0  0  3  0  0  0  0  0  0
  192.7860  175.2970  143.8880 C   0  0  0  0  0  0  0  0  0  0  0  0
  190.6900  177.3200  147.7040 N   0  0  0  0  0  2  0  0  0  0  0  0
  189.2270  176.4490  144.7300 C   0  0  1  0  0  3  0  0  0  0  0  0
  190.2930  175.8890  142.6440 O   0  0  0  0  0  0  0  0  0  0  0  0
  186.7140  175.8300  142.0010 O   0  0  0  0  0  1  0  0  0  0  0  0
  186.1870  176.7490  145.9730 C   0  0  1  0  0  3  0  0  0  0  0  0
  187.9060  176.2920  142.5640 C   0  0  2  0  0  3  0  0  0  0  0  0
  187.0250  177.1370  147.1970 C   0  0  2  0  0  3  0  0  0  0  0  0
  189.4030  177.8900  147.7410 C   0  0  0  0  0  0  0  0  0  0  0  0
  189.0890  175.4810  142.0290 C   0  0  2  0  0  3  0  0  0  0  0  0
  187.8380  176.2230  144.0940 C   0  0  2  0  0  3  0  0  0  0  0  0
  194.0460  175.3400  144.4890 C   0  0  0  0  0  3  0  0  0  0  0  0
  186.4280  178.4430  147.6800 C   0  0  0  0  0  2  0  0  0  0  0  0
  184.8240  177.3890  146.1870 C   0  0  0  0  0  2  0  0  0  0  0  0
  192.7060  174.9110  142.5550 O   0  0  0  0  0  1  0  0  0  0  0  0
  190.5730  176.1080  146.9070 C   0  0  1  0  0  3  0  0  0  0  0  0
  194.1730  175.6650  145.8370 C   0  0  0  0  0  3  0  0  0  0  0  0
  191.6260  175.6250  144.6320 C   0  0  0  0  0  0  0  0  0  0  0  0
  189.1750  176.1500  146.2330 C   0  0  1  0  0  3  0  0  0  0  0  0
  189.1300  178.8950  148.4480 O   0  0  0  0  0  0  0  0  0  0  0  0
  188.4600  177.2310  146.9090 N   0  0  0  0  0  0  0  0  0  0  0  0
  184.9500  178.3320  147.3730 C   0  0  0  0  0  2  0  0  0  0  0  0
  187.1360  178.6540  144.5060 C   0  0  0  0  0  1  0  0  0  0  0  0
  193.0360  175.9370  146.5940 C   0  0  0  0  0  3  0  0  0  0  0  0
  191.7640  175.9160  146.0090 C   0  0  0  0  0  0  0  0  0  0  0  0
  186.7530  177.1770  144.6090 C   0  0  2  0  0  3  0  0  0  0  0  0
  188.8810  174.1000  142.1650 O   0  0  0  0  0  0  0  0  0  0  0  0
  188.7560  173.9560  139.7970 C   0  0  0  0  0  1  0  0  0  0  0  0
  189.4970  173.5340  141.0480 C   0  0  0  0  0  2  0  0  0  0  0  0
  1  5  1  6  0  0  0
  1 19  1  0  0  0  0
  1  4  1  0  0  0  0
  2 13  2  0  0  0  0
  2 19  1  0  0  0  0
  3 10  1  0  0  0  0
  4 20  1  0  0  0  0
  6  8  1  0  0  0  0
  7 15  1  0  0  0  0
  7  9  1  0  0  0  0
  8 12  1  0  0  0  0
  9 14  1  0  0  0  0
 10 21  2  0  0  0  0
 11 28  1  0  0  0  0
 11  8  1  0  0  0  0
 11  5  1  0  0  0  0
 12 27  1  0  0  0  0
 12  4  1  0  0  0  0
 13 18  1  0  0  0  0
 15 23  1  0  0  0  0
 16  2  1  0  0  0  0
 17  3  1  0  0  0  0
 18 25  2  0  0  0  0
 19 26  2  0  0  0  0
 20 17  1  0  0  0  0
 20 22  1  0  0  0  0
 22  9  1  0  0  0  0
 22 10  1  0  0  0  0
 23 14  1  0  0  0  0
 24 27  1  0  0  0  0
 26 25  1  0  0  0  0
 26 17  1  0  0  0  0
 27  7  1  0  0  0  0
 29 30  1  0  0  0  0
 30 28  1  0  0  0  0
M  END
>  <MODEL>
2

>  <REMARK>
 VINA RESULT:      -8.0      1.801      5.625
  Name = 
  2 active torsions:
  status: ('A' for Active; 'I' for Inactive)
    1  A    between atoms: C_11  and  O_28
    2  A    between atoms: O_28  and  C_30
                            x       y       z     vdW  Elec       q    Type
                         _______ _______ _______ _____ _____    ______ ____

>  <TORSDO>
F 2

$$$$
=
 OpenBabel11112416163D

 30 35  0  0  1  0  0  0  0  0999 V2000
  189.1950  175.5560  143.9360 C   0  0  1  0  0  3  0  0  0  0  0  0
  191.3210  174.9870  145.2350 C   0  0  0  0  0  0  0  0  0  0  0  0
  187.7640  177.4750  147.2870 N   0  0  0  0  0  2  0  0  0  0  0  0
  188.0830  176.6180  143.9840 C   0  0  1  0  0  3  0  0  0  0  0  0
  190.0360  175.8090  142.8280 O   0  0  0  0  0  0  0  0  0  0  0  0
  187.4380  176.1560  140.3080 O   0  0  0  0  0  1  0  0  0  0  0  0
  184.9370  177.3650  143.3380 C   0  0  1  0  0  3  0  0  0  0  0  0
  188.1710  176.4990  141.4470 C   0  0  2  0  0  3  0  0  0  0  0  0
  185.0030  177.7180  144.8280 C   0  0  2  0  0  3  0  0  0  0  0  0
  186.7620  178.2010  146.6150 C   0  0  0  0  0  0  0  0  0  0  0  0
  189.3300  175.5180  141.6410 C   0  0  2  0  0  3  0  0  0  0  0  0
  187.2610  176.5290  142.6800 C   0  0  2  0  0  3  0  0  0  0  0  0
  192.0310  174.9090  146.4340 C   0  0  0  0  0  3  0  0  0  0  0  0
  184.4220  179.1130  144.9250 C   0  0  0  0  0  2  0  0  0  0  0  0
  183.7840  178.1800  142.7720 C   0  0  0  0  0  2  0  0  0  0  0  0
  191.9380  174.5370  144.0730 O   0  0  0  0  0  1  0  0  0  0  0  0
  187.9430  176.2420  146.5350 C   0  0  1  0  0  3  0  0  0  0  0  0
  191.4360  175.2950  147.6320 C   0  0  0  0  0  3  0  0  0  0  0  0
  190.0000  175.4990  145.2170 C   0  0  0  0  0  0  0  0  0  0  0  0
  187.1710  176.4170  145.1990 C   0  0  1  0  0  3  0  0  0  0  0  0
  186.2830  179.2710  147.0720 O   0  0  0  0  0  0  0  0  0  0  0  0
  186.3560  177.6160  145.3870 N   0  0  0  0  0  0  0  0  0  0  0  0
  183.3600  179.1680  143.8480 C   0  0  0  0  0  2  0  0  0  0  0  0
  186.7850  179.0490  142.6820 C   0  0  0  0  0  1  0  0  0  0  0  0
  190.1190  175.7490  147.6370 C   0  0  0  0  0  3  0  0  0  0  0  0
  189.3930  175.8520  146.4440 C   0  0  0  0  0  0  0  0  0  0  0  0
  186.2130  177.6390  142.5250 C   0  0  2  0  0  3  0  0  0  0  0  0
  188.8960  174.1840  141.6120 O   0  0  0  0  0  0  0  0  0  0  0  0
  190.0670  172.1240  141.7880 C   0  0  0  0  0  1  0  0  0  0  0  0
  189.9770  173.4680  141.0970 C   0  0  0  0  0  2  0  0  0  0  0  0
  1  5  1  6  0  0  0
  1  4  1  0  0  0  0
  1 19  1  0  0  0  0
  2 13  1  0  0  0  0
  4 20  1  0  0  0  0
  6  8  1  0  0  0  0
  7  9  1  0  0  0  0
  8 11  1  0  0  0  0
  8 12  1  0  0  0  0
  9 14  1  0  0  0  0
  9 22  1  0  0  0  0
 10 21  2  0  0  0  0
 10  3  1  0  0  0  0
 11  5  1  0  0  0  0
 12  4  1  0  0  0  0
 13 18  2  0  0  0  0
 15  7  1  0  0  0  0
 15 23  1  0  0  0  0
 16  2  1  0  0  0  0
 17  3  1  0  0  0  0
 18 25  1  0  0  0  0
 19  2  2  0  0  0  0
 19 26  1  0  0  0  0
 20 22  1  0  0  0  0
 20 17  1  0  0  0  0
 22 10  1  0  0  0  0
 23 14  1  0  0  0  0
 26 17  1  0  0  0  0
 26 25  2  0  0  0  0
 27 12  1  0  0  0  0
 27 24  1  0  0  0  0
 27  7  1  0  0  0  0
 28 11  1  0  0  0  0
 30 28  1  0  0  0  0
 30 29  1  0  0  0  0
M  END
>  <MODEL>
3

>  <REMARK>
 VINA RESULT:      -7.8      1.966      5.698
  Name = 
  2 active torsions:
  status: ('A' for Active; 'I' for Inactive)
    1  A    between atoms: C_11  and  O_28
    2  A    between atoms: O_28  and  C_30
                            x       y       z     vdW  Elec       q    Type
                         _______ _______ _______ _____ _____    ______ ____

>  <TORSDO>
F 2

$$$$
=
 OpenBabel11112416163D

 30 35  0  0  1  0  0  0  0  0999 V2000
  187.9540  176.6550  143.9400 C   0  0  1  0  0  3  0  0  0  0  0  0
  185.6600  177.3630  144.8140 C   0  0  0  0  0  0  0  0  0  0  0  0
  189.5190  177.4280  147.6710 N   0  0  0  0  0  2  0  0  0  0  0  0
  189.2710  176.1080  144.5180 C   0  0  1  0  0  3  0  0  0  0  0  0
  187.2820  175.6210  143.2490 O   0  0  0  0  0  0  0  0  0  0  0  0
  190.0790  174.4850  141.2220 O   0  0  0  0  0  1  0  0  0  0  0  0
  192.5460  175.8740  144.2030 C   0  0  1  0  0  3  0  0  0  0  0  0
  189.3570  174.7090  142.3970 C   0  0  2  0  0  3  0  0  0  0  0  0
  192.4450  176.4470  145.6210 C   0  0  2  0  0  3  0  0  0  0  0  0
  190.7090  176.7010  147.4760 C   0  0  0  0  0  0  0  0  0  0  0  0
  187.9940  175.3220  142.0680 C   0  0  2  0  0  3  0  0  0  0  0  0
  190.1510  175.6110  143.3490 C   0  0  2  0  0  3  0  0  0  0  0  0
  184.8600  177.9570  145.7920 C   0  0  0  0  0  3  0  0  0  0  0  0
  193.3200  175.5460  146.4700 C   0  0  0  0  0  2  0  0  0  0  0  0
  193.8950  175.1730  144.1360 C   0  0  0  0  0  2  0  0  0  0  0  0
  185.0490  176.9000  143.6550 O   0  0  0  0  0  1  0  0  0  0  0  0
  189.1230  177.9150  146.3570 C   0  0  1  0  0  3  0  0  0  0  0  0
  185.4310  178.4870  146.9460 C   0  0  0  0  0  3  0  0  0  0  0  0
  187.0600  177.2570  145.0030 C   0  0  0  0  0  0  0  0  0  0  0  0
  190.0160  177.1800  145.3210 C   0  0  1  0  0  3  0  0  0  0  0  0
  191.3830  176.2400  148.4340 O   0  0  0  0  0  0  0  0  0  0  0  0
  191.0660  176.5400  146.1110 N   0  0  0  0  0  0  0  0  0  0  0  0
  194.4470  175.1230  145.5520 C   0  0  0  0  0  2  0  0  0  0  0  0
  191.1870  173.7520  144.7820 C   0  0  0  0  0  1  0  0  0  0  0  0
  186.8120  178.4380  147.1200 C   0  0  0  0  0  3  0  0  0  0  0  0
  187.6340  177.8330  146.1600 C   0  0  0  0  0  0  0  0  0  0  0  0
  191.4330  174.8950  143.7950 C   0  0  2  0  0  3  0  0  0  0  0  0
  188.1130  176.4470  141.2380 O   0  0  0  0  0  0  0  0  0  0  0  0
  186.5320  177.5550  139.8520 C   0  0  0  0  0  1  0  0  0  0  0  0
  187.1850  176.2380  140.2170 C   0  0  0  0  0  2  0  0  0  0  0  0
  1  5  1  1  0  0  0
  1  4  1  0  0  0  0
  1 19  1  0  0  0  0
  2 19  2  0  0  0  0
  2 13  1  0  0  0  0
  4 20  1  0  0  0  0
  6  8  1  0  0  0  0
  7  9  1  0  0  0  0
  8 12  1  0  0  0  0
  9 22  1  0  0  0  0
  9 14  1  0  0  0  0
 10  3  1  0  0  0  0
 10 21  2  0  0  0  0
 11  8  1  0  0  0  0
 11  5  1  0  0  0  0
 12 27  1  0  0  0  0
 12  4  1  0  0  0  0
 13 18  2  0  0  0  0
 15  7  1  0  0  0  0
 15 23  1  0  0  0  0
 16  2  1  0  0  0  0
 17  3  1  0  0  0  0
 18 25  1  0  0  0  0
 19 26  1  0  0  0  0
 20 22  1  0  0  0  0
 20 17  1  0  0  0  0
 22 10  1  0  0  0  0
 23 14  1  0  0  0  0
 26 17  1  0  0  0  0
 26 25  2  0  0  0  0
 27  7  1  0  0  0  0
 27 24  1  0  0  0  0
 28 11  1  0  0  0  0
 29 30  1  0  0  0  0
 30 28  1  0  0  0  0
M  END
>  <MODEL>
4

>  <REMARK>
 VINA RESULT:      -7.7      1.079      1.198
  Name = 
  2 active torsions:
  status: ('A' for Active; 'I' for Inactive)
    1  A    between atoms: C_11  and  O_28
    2  A    between atoms: O_28  and  C_30
                            x       y       z     vdW  Elec       q    Type
                         _______ _______ _______ _____ _____    ______ ____

>  <TORSDO>
F 2

$$$$
=
 OpenBabel11112416163D

 30 35  0  0  1  0  0  0  0  0999 V2000
  187.4270  176.1100  141.4890 C   0  0  1  0  0  3  0  0  0  0  0  0
  187.4000  175.6560  138.9750 C   0  0  0  0  0  0  0  0  0  0  0  0
  190.6250  173.5370  141.8320 N   0  0  0  0  0  2  0  0  0  0  0  0
  188.4430  176.0510  142.6440 C   0  0  1  0  0  3  0  0  0  0  0  0
  187.1640  177.4600  141.1670 O   0  0  0  0  0  0  0  0  0  0  0  0
  186.4870  178.6470  144.5370 O   0  0  0  0  0  1  0  0  0  0  0  0
  188.9370  175.6310  145.8770 C   0  0  1  0  0  3  0  0  0  0  0  0
  187.2580  178.1350  143.4900 C   0  0  2  0  0  3  0  0  0  0  0  0
  189.8850  174.5670  145.3130 C   0  0  2  0  0  3  0  0  0  0  0  0
  191.0280  173.9830  143.1050 C   0  0  0  0  0  0  0  0  0  0  0  0
  186.4190  178.0450  142.2140 C   0  0  2  0  0  3  0  0  0  0  0  0
  187.8340  176.7660  143.8700 C   0  0  2  0  0  3  0  0  0  0  0  0
  187.8160  174.9160  137.8660 C   0  0  0  0  0  3  0  0  0  0  0  0
  191.2070  174.8120  146.0110 C   0  0  0  0  0  2  0  0  0  0  0  0
  189.4700  175.9650  147.2630 C   0  0  0  0  0  2  0  0  0  0  0  0
  186.4830  176.6810  138.7760 O   0  0  0  0  0  1  0  0  0  0  0  0
  189.1850  173.7370  141.7700 C   0  0  1  0  0  3  0  0  0  0  0  0
  188.6900  173.8430  138.0220 C   0  0  0  0  0  3  0  0  0  0  0  0
  187.8950  175.3490  140.2670 C   0  0  0  0  0  0  0  0  0  0  0  0
  188.8010  174.6040  142.9990 C   0  0  1  0  0  3  0  0  0  0  0  0
  192.2040  173.8420  143.5300 O   0  0  0  0  0  0  0  0  0  0  0  0
  189.9900  174.6030  143.8500 N   0  0  0  0  0  0  0  0  0  0  0  0
  190.8320  175.3010  147.3930 C   0  0  0  0  0  2  0  0  0  0  0  0
  190.1310  177.5800  144.6690 C   0  0  0  0  0  1  0  0  0  0  0  0
  189.1420  173.4960  139.2930 C   0  0  0  0  0  3  0  0  0  0  0  0
  188.7510  174.2340  140.4180 C   0  0  0  0  0  0  0  0  0  0  0  0
  188.8040  176.9200  145.0480 C   0  0  2  0  0  3  0  0  0  0  0  0
  185.2110  177.3640  142.4300 O   0  0  0  0  0  0  0  0  0  0  0  0
  183.9280  178.2910  140.6580 C   0  0  0  0  0  1  0  0  0  0  0  0
  184.2170  178.3010  142.1440 C   0  0  0  0  0  2  0  0  0  0  0  0
  1 19  1  6  0  0  0
  1  4  1  0  0  0  0
  2 19  1  0  0  0  0
  3 10  1  0  0  0  0
  4 20  1  0  0  0  0
  4 12  1  0  0  0  0
  5  1  1  0  0  0  0
  5 11  1  0  0  0  0
  7 15  1  0  0  0  0
  8 12  1  0  0  0  0
  8  6  1  0  0  0  0
  9  7  1  0  0  0  0
  9 14  1  0  0  0  0
 10 21  2  0  0  0  0
 10 22  1  0  0  0  0
 11 28  1  0  0  0  0
 11  8  1  0  0  0  0
 12 27  1  0  0  0  0
 13 18  1  0  0  0  0
 13  2  2  0  0  0  0
 14 23  1  0  0  0  0
 15 23  1  0  0  0  0
 16  2  1  0  0  0  0
 17  3  1  0  0  0  0
 17 20  1  0  0  0  0
 18 25  2  0  0  0  0
 19 26  2  0  0  0  0
 20 22  1  0  0  0  0
 22  9  1  0  0  0  0
 24 27  1  0  0  0  0
 25 26  1  0  0  0  0
 26 17  1  0  0  0  0
 27  7  1  0  0  0  0
 29 30  1  0  0  0  0
 30 28  1  0  0  0  0
M  END
>  <MODEL>
5

>  <REMARK>
 VINA RESULT:      -7.6      2.289      5.135
  Name = 
  2 active torsions:
  status: ('A' for Active; 'I' for Inactive)
    1  A    between atoms: C_11  and  O_28
    2  A    between atoms: O_28  and  C_30
                            x       y       z     vdW  Elec       q    Type
                         _______ _______ _______ _____ _____    ______ ____

>  <TORSDO>
F 2

$$$$
=
 OpenBabel11112416163D

 30 35  0  0  1  0  0  0  0  0999 V2000
  188.8280  175.8330  143.5360 C   0  0  1  0  0  3  0  0  0  0  0  0
  186.4170  176.4160  144.1510 C   0  0  0  0  0  0  0  0  0  0  0  0
  190.0310  177.3480  147.1730 N   0  0  0  0  0  2  0  0  0  0  0  0
  190.1460  175.5310  144.2690 C   0  0  1  0  0  3  0  0  0  0  0  0
  188.3140  174.6360  142.9880 O   0  0  0  0  0  0  0  0  0  0  0  0
  191.3500  173.5090  141.3350 O   0  0  0  0  0  1  0  0  0  0  0  0
  193.4420  175.6080  144.1840 C   0  0  1  0  0  3  0  0  0  0  0  0
  190.5250  173.8340  142.4150 C   0  0  2  0  0  3  0  0  0  0  0  0
  193.1820  176.3830  145.4810 C   0  0  2  0  0  3  0  0  0  0  0  0
  191.2980  176.7340  147.1670 C   0  0  0  0  0  0  0  0  0  0  0  0
  189.1360  174.2350  141.9130 C   0  0  2  0  0  3  0  0  0  0  0  0
  191.1540  174.9550  143.2500 C   0  0  2  0  0  3  0  0  0  0  0  0
  185.4930  177.0650  144.9720 C   0  0  0  0  0  3  0  0  0  0  0  0
  194.0760  175.7270  146.5130 C   0  0  0  0  0  2  0  0  0  0  0  0
  194.8550  175.0570  144.3090 C   0  0  0  0  0  2  0  0  0  0  0  0
  185.9410  175.7120  143.0510 O   0  0  0  0  0  1  0  0  0  0  0  0
  189.6860  177.5760  145.7770 C   0  0  1  0  0  3  0  0  0  0  0  0
  185.9230  177.8280  146.0540 C   0  0  0  0  0  3  0  0  0  0  0  0
  187.8030  176.4940  144.4350 C   0  0  0  0  0  0  0  0  0  0  0  0
  190.7210  176.7900  144.9270 C   0  0  1  0  0  3  0  0  0  0  0  0
  191.9410  176.5050  148.2240 O   0  0  0  0  0  0  0  0  0  0  0  0
  191.7680  176.4000  145.8700 N   0  0  0  0  0  0  0  0  0  0  0  0
  195.3040  175.2910  145.7430 C   0  0  0  0  0  2  0  0  0  0  0  0
  192.2600  173.4690  145.0240 C   0  0  0  0  0  1  0  0  0  0  0  0
  187.2860  177.9580  146.3110 C   0  0  0  0  0  3  0  0  0  0  0  0
  188.2310  177.3030  145.5120 C   0  0  0  0  0  0  0  0  0  0  0  0
  192.4640  174.4620  143.8780 C   0  0  2  0  0  3  0  0  0  0  0  0
  189.2050  175.2220  140.9180 O   0  0  0  0  0  0  0  0  0  0  0  0
  188.5870  173.7720  139.1400 C   0  0  0  0  0  1  0  0  0  0  0  0
  188.1660  174.9160  140.0380 C   0  0  0  0  0  2  0  0  0  0  0  0
  1  5  1  1  0  0  0
  1  4  1  0  0  0  0
  1 19  1  0  0  0  0
  2 19  2  0  0  0  0
  2 13  1  0  0  0  0
  4 20  1  0  0  0  0
  6  8  1  0  0  0  0
  7 15  1  0  0  0  0
  7  9  1  0  0  0  0
  8 12  1  0  0  0  0
  9 22  1  0  0  0  0
  9 14  1  0  0  0  0
 10  3  1  0  0  0  0
 10 21  2  0  0  0  0
 11  8  1  0  0  0  0
 11  5  1  0  0  0  0
 12 27  1  0  0  0  0
 12  4  1  0  0  0  0
 13 18  2  0  0  0  0
 15 23  1  0  0  0  0
 16  2  1  0  0  0  0
 17  3  1  0  0  0  0
 18 25  1  0  0  0  0
 19 26  1  0  0  0  0
 20 17  1  0  0  0  0
 20 22  1  0  0  0  0
 22 10  1  0  0  0  0
 23 14  1  0  0  0  0
 26 17  1  0  0  0  0
 26 25  2  0  0  0  0
 27  7  1  0  0  0  0
 27 24  1  0  0  0  0
 28 11  1  0  0  0  0
 29 30  1  0  0  0  0
 30 28  1  0  0  0  0
M  END
>  <MODEL>
6

>  <REMARK>
 VINA RESULT:      -7.3      1.683      2.420
  Name = 
  2 active torsions:
  status: ('A' for Active; 'I' for Inactive)
    1  A    between atoms: C_11  and  O_28
    2  A    between atoms: O_28  and  C_30
                            x       y       z     vdW  Elec       q    Type
                         _______ _______ _______ _____ _____    ______ ____

>  <TORSDO>
F 2

$$$$
=
 OpenBabel11112416163D

 30 35  0  0  1  0  0  0  0  0999 V2000
  187.8500  176.4390  144.2420 C   0  0  1  0  0  3  0  0  0  0  0  0
  186.4360  178.2550  143.1330 C   0  0  0  0  0  0  0  0  0  0  0  0
  188.6700  174.9170  140.5030 N   0  0  0  0  0  2  0  0  0  0  0  0
  189.0230  175.5190  143.8580 C   0  0  1  0  0  3  0  0  0  0  0  0
  188.3130  177.4460  145.1170 O   0  0  0  0  0  0  0  0  0  0  0  0
  190.0630  175.2910  147.4660 O   0  0  0  0  0  1  0  0  0  0  0  0
  190.5680  172.6490  144.3570 C   0  0  1  0  0  3  0  0  0  0  0  0
  189.8150  175.9160  146.2410 C   0  0  2  0  0  3  0  0  0  0  0  0
  190.3360  172.5780  142.8440 C   0  0  2  0  0  3  0  0  0  0  0  0
  189.7760  174.1440  140.9070 C   0  0  0  0  0  0  0  0  0  0  0  0
  188.6200  176.8630  146.3660 C   0  0  2  0  0  3  0  0  0  0  0  0
  189.5780  174.8710  145.1450 C   0  0  2  0  0  3  0  0  0  0  0  0
  185.7880  178.7810  142.0130 C   0  0  0  0  0  3  0  0  0  0  0  0
  191.6870  172.2250  142.2580 C   0  0  0  0  0  2  0  0  0  0  0  0
  191.7460  171.7280  144.6380 C   0  0  0  0  0  2  0  0  0  0  0  0
  186.3230  178.9370  144.3390 O   0  0  0  0  0  1  0  0  0  0  0  0
  187.7840  174.9880  141.6560 C   0  0  1  0  0  3  0  0  0  0  0  0
  185.8240  178.1060  140.7960 C   0  0  0  0  0  3  0  0  0  0  0  0
  187.1730  177.0500  143.0330 C   0  0  0  0  0  0  0  0  0  0  0  0
  188.5830  174.4360  142.8680 C   0  0  1  0  0  3  0  0  0  0  0  0
  190.6810  173.7910  140.1070 O   0  0  0  0  0  0  0  0  0  0  0  0
  189.7690  173.8110  142.2870 N   0  0  0  0  0  0  0  0  0  0  0  0
  192.3400  171.3360  143.2940 C   0  0  0  0  0  2  0  0  0  0  0  0
  191.9670  174.8170  144.2130 C   0  0  0  0  0  1  0  0  0  0  0  0
  186.5000  176.8920  140.6970 C   0  0  0  0  0  3  0  0  0  0  0  0
  187.1720  176.3540  141.8020 C   0  0  0  0  0  0  0  0  0  0  0  0
  190.8550  174.0480  144.9280 C   0  0  2  0  0  3  0  0  0  0  0  0
  187.5030  176.2240  146.9250 O   0  0  0  0  0  0  0  0  0  0  0  0
  185.2700  177.0370  146.8880 C   0  0  0  0  0  1  0  0  0  0  0  0
  186.6860  177.2630  147.3750 C   0  0  0  0  0  2  0  0  0  0  0  0
  1 19  1  6  0  0  0
  1  5  1  0  0  0  0
  2 16  1  0  0  0  0
  3 10  1  0  0  0  0
  3 17  1  0  0  0  0
  4  1  1  0  0  0  0
  4 12  1  0  0  0  0
  5 11  1  0  0  0  0
  7 15  1  0  0  0  0
  7 27  1  0  0  0  0
  8 11  1  0  0  0  0
  8  6  1  0  0  0  0
  9  7  1  0  0  0  0
 10 22  1  0  0  0  0
 11 28  1  0  0  0  0
 12  8  1  0  0  0  0
 13  2  2  0  0  0  0
 14  9  1  0  0  0  0
 14 23  1  0  0  0  0
 17 26  1  0  0  0  0
 17 20  1  0  0  0  0
 18 13  1  0  0  0  0
 19  2  1  0  0  0  0
 20  4  1  0  0  0  0
 21 10  2  0  0  0  0
 22  9  1  0  0  0  0
 22 20  1  0  0  0  0
 23 15  1  0  0  0  0
 24 27  1  0  0  0  0
 25 18  2  0  0  0  0
 25 26  1  0  0  0  0
 26 19  2  0  0  0  0
 27 12  1  0  0  0  0
 28 30  1  0  0  0  0
 29 30  1  0  0  0  0
M  END
>  <MODEL>
7

>  <REMARK>
 VINA RESULT:      -7.3      2.143      4.764
  Name = 
  2 active torsions:
  status: ('A' for Active; 'I' for Inactive)
    1  A    between atoms: C_11  and  O_28
    2  A    between atoms: O_28  and  C_30
                            x       y       z     vdW  Elec       q    Type
                         _______ _______ _______ _____ _____    ______ ____

>  <TORSDO>
F 2

$$$$
=
 OpenBabel11112416163D

 30 35  0  0  1  0  0  0  0  0999 V2000
  189.0990  176.4490  144.7190 C   0  0  1  0  0  3  0  0  0  0  0  0
  190.1260  176.8910  147.0160 C   0  0  0  0  0  0  0  0  0  0  0  0
  192.2170  173.8810  143.9140 N   0  0  0  0  0  2  0  0  0  0  0  0
  189.1240  175.3350  143.6580 C   0  0  1  0  0  3  0  0  0  0  0  0
  187.8440  176.4460  145.3690 O   0  0  0  0  0  0  0  0  0  0  0  0
  185.7490  176.4160  142.3980 O   0  0  0  0  0  1  0  0  0  0  0  0
  188.8580  174.5440  140.4670 C   0  0  1  0  0  3  0  0  0  0  0  0
  186.6720  175.9140  143.3180 C   0  0  2  0  0  3  0  0  0  0  0  0
  190.2260  173.9330  140.7900 C   0  0  2  0  0  3  0  0  0  0  0  0
  191.5890  173.2340  142.8330 C   0  0  0  0  0  0  0  0  0  0  0  0
  186.8600  176.9060  144.4680 C   0  0  2  0  0  3  0  0  0  0  0  0
  188.0070  175.6120  142.6280 C   0  0  2  0  0  3  0  0  0  0  0  0
  191.1910  176.7910  147.9130 C   0  0  0  0  0  3  0  0  0  0  0  0
  190.1520  172.5120  140.2680 C   0  0  0  0  0  2  0  0  0  0  0  0
  188.3410  173.7810  139.2560 C   0  0  0  0  0  2  0  0  0  0  0  0
  188.9870  177.5760  147.4200 O   0  0  0  0  0  1  0  0  0  0  0  0
  191.6900  175.2380  143.9340 C   0  0  1  0  0  3  0  0  0  0  0  0
  192.3750  176.1630  147.5370 C   0  0  0  0  0  3  0  0  0  0  0  0
  190.2240  176.3180  145.7240 C   0  0  0  0  0  0  0  0  0  0  0  0
  190.4850  175.2630  142.9560 C   0  0  1  0  0  3  0  0  0  0  0  0
  191.9080  172.0740  142.4630 O   0  0  0  0  0  0  0  0  0  0  0  0
  190.5720  174.0070  142.2130 N   0  0  0  0  0  0  0  0  0  0  0  0
  189.2670  172.5940  139.0430 C   0  0  0  0  0  2  0  0  0  0  0  0
  187.6140  173.1110  142.2220 C   0  0  0  0  0  1  0  0  0  0  0  0
  192.5040  175.6430  146.2510 C   0  0  0  0  0  3  0  0  0  0  0  0
  191.4440  175.7170  145.3380 C   0  0  0  0  0  0  0  0  0  0  0  0
  187.8160  174.4920  141.5970 C   0  0  2  0  0  3  0  0  0  0  0  0
  187.1500  178.1980  144.0030 O   0  0  0  0  0  0  0  0  0  0  0  0
  185.2290  179.5930  143.8880 C   0  0  0  0  0  1  0  0  0  0  0  0
  186.3370  179.0420  144.7610 C   0  0  0  0  0  2  0  0  0  0  0  0
  1  5  1  1  0  0  0
  1 19  1  0  0  0  0
  2 16  1  0  0  0  0
  2 13  1  0  0  0  0
  3 17  1  0  0  0  0
  4  1  1  0  0  0  0
  6  8  1  0  0  0  0
  7  9  1  0  0  0  0
  7 27  1  0  0  0  0
  8 11  1  0  0  0  0
  9 22  1  0  0  0  0
 10  3  1  0  0  0  0
 11  5  1  0  0  0  0
 12  8  1  0  0  0  0
 12  4  1  0  0  0  0
 14  9  1  0  0  0  0
 15  7  1  0  0  0  0
 17 26  1  0  0  0  0
 18 13  2  0  0  0  0
 19  2  2  0  0  0  0
 20  4  1  0  0  0  0
 20 17  1  0  0  0  0
 21 10  2  0  0  0  0
 22 10  1  0  0  0  0
 22 20  1  0  0  0  0
 23 15  1  0  0  0  0
 23 14  1  0  0  0  0
 25 18  1  0  0  0  0
 26 19  1  0  0  0  0
 26 25  2  0  0  0  0
 27 24  1  0  0  0  0
 27 12  1  0  0  0  0
 28 11  1  0  0  0  0
 28 30  1  0  0  0  0
 29 30  1  0  0  0  0
M  END
>  <MODEL>
8

>  <REMARK>
 VINA RESULT:      -7.1      2.272      4.691
  Name = 
  2 active torsions:
  status: ('A' for Active; 'I' for Inactive)
    1  A    between atoms: C_11  and  O_28
    2  A    between atoms: O_28  and  C_30
                            x       y       z     vdW  Elec       q    Type
                         _______ _______ _______ _____ _____    ______ ____

>  <TORSDO>
F 2

$$$$
=
 OpenBabel11112416163D

 30 35  0  0  1  0  0  0  0  0999 V2000
  188.2580  175.7920  141.2850 C   0  0  1  0  0  3  0  0  0  0  0  0
  188.2990  174.7550  138.9500 C   0  0  0  0  0  0  0  0  0  0  0  0
  184.8180  177.8000  140.2400 N   0  0  0  0  0  2  0  0  0  0  0  0
  187.2160  176.3940  142.2430 C   0  0  1  0  0  3  0  0  0  0  0  0
  188.6590  174.5250  141.7670 O   0  0  0  0  0  0  0  0  0  0  0  0
  189.3720  175.5060  145.1950 O   0  0  0  0  0  1  0  0  0  0  0  0
  186.6090  178.5100  144.6990 C   0  0  1  0  0  3  0  0  0  0  0  0
  188.5790  175.2670  144.0700 C   0  0  2  0  0  3  0  0  0  0  0  0
  185.5750  178.9780  143.6700 C   0  0  2  0  0  3  0  0  0  0  0  0
  184.4320  178.1110  141.5580 C   0  0  0  0  0  0  0  0  0  0  0  0
  189.4340  174.7030  142.9340 C   0  0  2  0  0  3  0  0  0  0  0  0
  187.8640  176.5520  143.6370 C   0  0  2  0  0  3  0  0  0  0  0  0
  187.8370  174.7010  137.6330 C   0  0  0  0  0  3  0  0  0  0  0  0
  184.2680  179.0460  144.4320 C   0  0  0  0  0  2  0  0  0  0  0  0
  186.0800  178.9640  146.0510 C   0  0  0  0  0  2  0  0  0  0  0  0
  189.3150  173.8850  139.3280 O   0  0  0  0  0  1  0  0  0  0  0  0
  186.2720  177.7350  140.2490 C   0  0  1  0  0  3  0  0  0  0  0  0
  186.8600  175.5880  137.1910 C   0  0  0  0  0  3  0  0  0  0  0  0
  187.7470  175.6860  139.8640 C   0  0  0  0  0  0  0  0  0  0  0  0
  186.7100  177.7490  141.7380 C   0  0  1  0  0  3  0  0  0  0  0  0
  183.2380  178.3560  141.8720 O   0  0  0  0  0  0  0  0  0  0  0  0
  185.5080  178.1170  142.4840 N   0  0  0  0  0  0  0  0  0  0  0  0
  184.6580  179.4550  145.8360 C   0  0  0  0  0  2  0  0  0  0  0  0
  185.6390  176.1180  144.8370 C   0  0  0  0  0  1  0  0  0  0  0  0
  186.3480  176.5450  138.0640 C   0  0  0  0  0  3  0  0  0  0  0  0
  186.7830  176.6070  139.3940 C   0  0  0  0  0  0  0  0  0  0  0  0
  186.8860  176.9970  144.7320 C   0  0  2  0  0  3  0  0  0  0  0  0
  190.5650  175.4960  142.6870 O   0  0  0  0  0  0  0  0  0  0  0  0
  192.6610  174.9410  143.6580 C   0  0  0  0  0  1  0  0  0  0  0  0
  191.6260  174.5930  142.6090 C   0  0  0  0  0  2  0  0  0  0  0  0
  1 19  1  6  0  0  0
  1  5  1  0  0  0  0
  1  4  1  0  0  0  0
  2 16  1  0  0  0  0
  2 19  1  0  0  0  0
  3 17  1  0  0  0  0
  3 10  1  0  0  0  0
  4 12  1  0  0  0  0
  5 11  1  0  0  0  0
  7 27  1  0  0  0  0
  7 15  1  0  0  0  0
  8  6  1  0  0  0  0
  9 14  1  0  0  0  0
  9  7  1  0  0  0  0
 10 21  2  0  0  0  0
 10 22  1  0  0  0  0
 11  8  1  0  0  0  0
 12  8  1  0  0  0  0
 12 27  1  0  0  0  0
 13  2  2  0  0  0  0
 14 23  1  0  0  0  0
 17 20  1  0  0  0  0
 18 13  1  0  0  0  0
 18 25  2  0  0  0  0
 20  4  1  0  0  0  0
 20 22  1  0  0  0  0
 22  9  1  0  0  0  0
 23 15  1  0  0  0  0
 25 26  1  0  0  0  0
 26 19  2  0  0  0  0
 26 17  1  0  0  0  0
 27 24  1  0  0  0  0
 28 11  1  0  0  0  0
 30 28  1  0  0  0  0
 30 29  1  0  0  0  0
M  END
>  <MODEL>
9

>  <REMARK>
 VINA RESULT:      -7.0      2.615      6.979
  Name = 
  2 active torsions:
  status: ('A' for Active; 'I' for Inactive)
    1  A    between atoms: C_11  and  O_28
    2  A    between atoms: O_28  and  C_30
                            x       y       z     vdW  Elec       q    Type
                         _______ _______ _______ _____ _____    ______ ____

>  <TORSDO>
F 2

$$$$
