=
 OpenBabel11112416163D

 30 36  0  0  1  0  0  0  0  0999 V2000
  188.2890  176.8150  145.5050 C   0  0  0  0  0  0  0  0  0  0  0  0
  186.6610  177.9140  147.0670 C   0  0  0  0  0  0  0  0  0  0  0  0
  185.9440  177.3630  142.0000 C   0  0  0  0  0  2  0  0  0  0  0  0
  188.6710  176.2810  144.1480 C   0  0  0  0  0  0  0  0  0  0  0  0
  189.1610  176.5060  146.6950 C   0  0  0  0  0  2  0  0  0  0  0  0
  190.1300  174.0060  145.6880 O   0  0  0  0  0  1  0  0  0  0  0  0
  188.9760  173.7980  142.4660 C   0  0  1  0  0  3  0  0  0  0  0  0
  190.7190  175.1950  145.2400 C   0  0  2  0  0  3  0  0  0  0  0  0
  188.0190  174.5570  141.5440 C   0  0  2  0  0  3  0  0  0  0  0  0
  186.8550  176.7060  140.9540 C   0  0  1  0  0  3  0  0  0  0  0  0
  190.6190  176.2860  146.3050 C   0  0  2  0  0  3  0  0  0  0  0  0
  190.0590  175.6740  143.9450 C   0  0  1  0  0  3  0  0  0  0  0  0
  185.5850  178.9670  147.0200 C   0  0  0  0  0  3  0  0  0  0  0  0
  188.3850  174.1220  140.1430 C   0  0  0  0  0  2  0  0  0  0  0  0
  189.3820  172.5440  141.7020 C   0  0  0  0  0  2  0  0  0  0  0  0
  186.0260  176.4980  147.9470 Cl  0  0  0  0  0  0  0  0  0  0  0  0
  186.6130  177.1770  143.2710 N   0  0  0  0  0  0  0  0  0  0  0  0
  184.8950  179.2420  145.9100 C   0  0  0  0  0  3  0  0  0  0  0  0
  187.1290  177.4900  145.6880 C   0  0  0  0  0  0  0  0  0  0  0  0
  187.8290  176.4840  143.1100 C   0  0  0  0  0  0  0  0  0  0  0  0
  187.3300  177.7160  140.0260 N   0  0  0  0  0  1  0  0  0  0  0  0
  188.0510  176.0850  141.6930 C   0  0  1  0  0  3  0  0  0  0  0  0
  188.8480  172.6880  140.2870 C   0  0  0  0  0  2  0  0  0  0  0  0
  191.2420  174.5020  142.2790 O   0  0  0  0  0  0  0  0  0  0  0  0
  185.2040  178.5770  144.6340 C   0  0  0  0  0  3  0  0  0  0  0  0
  186.2530  177.7570  144.5240 C   0  0  1  0  0  3  0  0  0  0  0  0
  190.1760  174.6290  142.8640 C   0  0  0  0  0  0  0  0  0  0  0  0
  191.4410  175.9250  147.5310 C   0  0  0  0  0  3  0  0  0  0  0  0
  192.6940  176.7780  147.5690 C   0  0  0  0  0  2  0  0  0  0  0  0
  191.5190  177.1220  148.4580 C   0  0  0  0  0  2  0  0  0  0  0  0
  1 19  2  0  0  0  0
  1  5  1  0  0  0  0
  2 16  1  0  0  0  0
  3 17  1  0  0  0  0
  4  1  1  0  0  0  0
  7 15  1  6  0  0  0
  7 27  1  0  0  0  0
  8  6  1  1  0  0  0
  8 11  1  0  0  0  0
  9 14  1  6  0  0  0
  9 22  1  0  0  0  0
  9  7  1  0  0  0  0
 10 21  1  6  0  0  0
 10 22  1  0  0  0  0
 10  3  1  0  0  0  0
 11  5  1  0  0  0  0
 11 28  1  1  0  0  0
 12 27  1  6  0  0  0
 12  4  1  0  0  0  0
 12  8  1  0  0  0  0
 13  2  2  0  0  0  0
 14 23  1  0  0  0  0
 17 26  1  0  0  0  0
 18 13  1  0  0  0  0
 19  2  1  0  0  0  0
 20 17  1  0  0  0  0
 20  4  2  0  0  0  0
 22 20  1  1  0  0  0
 23 15  1  0  0  0  0
 24 27  2  0  0  0  0
 25 18  2  0  0  0  0
 26 25  1  6  0  0  0
 26 19  1  0  0  0  0
 28 29  1  0  0  0  0
 28 30  1  0  0  0  0
 29 30  1  0  0  0  0
M  END
>  <MODEL>
1

>  <REMARK>
 VINA RESULT:      -8.9      0.000      0.000
  Name = 
  1 active torsions:
  status: ('A' for Active; 'I' for Inactive)
    1  A    between atoms: C_11  and  C_28
                            x       y       z     vdW  Elec       q    Type
                         _______ _______ _______ _____ _____    ______ ____

>  <TORSDO>
F 1

$$$$
=
 OpenBabel11112416163D

 30 36  0  0  1  0  0  0  0  0999 V2000
  188.3170  175.3870  142.4650 C   0  0  0  0  0  0  0  0  0  0  0  0
  186.3940  176.8640  141.8140 C   0  0  1  0  0  3  0  0  0  0  0  0
  188.2160  176.3650  146.6020 C   0  0  0  0  0  2  0  0  0  0  0  0
  189.3160  174.8780  143.4720 C   0  0  0  0  0  0  0  0  0  0  0  0
  188.4840  175.0310  141.0090 C   0  0  0  0  0  2  0  0  0  0  0  0
  191.3360  174.7940  141.1080 O   0  0  0  0  0  1  0  0  0  0  0  0
  192.1710  175.0510  144.4240 C   0  0  1  0  0  3  0  0  0  0  0  0
  190.5480  173.7220  141.5450 C   0  0  2  0  0  3  0  0  0  0  0  0
  191.4890  175.3930  145.7500 C   0  0  2  0  0  3  0  0  0  0  0  0
  189.3810  175.5090  147.1160 C   0  0  1  0  0  3  0  0  0  0  0  0
  189.2050  173.7020  140.8170 C   0  0  2  0  0  3  0  0  0  0  0  0
  190.3160  173.8000  143.0560 C   0  0  1  0  0  3  0  0  0  0  0  0
  185.1480  177.4380  142.4370 C   0  0  0  0  0  3  0  0  0  0  0  0
  192.4070  174.8510  146.8230 C   0  0  0  0  0  2  0  0  0  0  0  0
  193.6570  174.9360  144.7380 C   0  0  0  0  0  2  0  0  0  0  0  0
  187.2470  178.1720  140.9520 Cl  0  0  0  0  0  0  0  0  0  0  0  0
  188.1910  176.1690  145.1680 N   0  0  0  0  0  0  0  0  0  0  0  0
  185.0390  177.6640  143.7480 C   0  0  0  0  0  3  0  0  0  0  0  0
  187.3240  176.2330  142.8320 C   0  0  0  0  0  0  0  0  0  0  0  0
  189.2090  175.2850  144.7560 C   0  0  0  0  0  0  0  0  0  0  0  0
  188.8690  174.4770  147.9980 N   0  0  0  0  0  1  0  0  0  0  0  0
  190.0590  174.8560  145.9010 C   0  0  1  0  0  3  0  0  0  0  0  0
  193.8010  174.9890  146.2500 C   0  0  0  0  0  2  0  0  0  0  0  0
  192.2130  172.7210  143.9430 O   0  0  0  0  0  0  0  0  0  0  0  0
  186.1140  177.2880  144.6810 C   0  0  0  0  0  3  0  0  0  0  0  0
  187.1860  176.6140  144.2570 C   0  0  0  0  0  0  0  0  0  0  0  0
  191.6260  173.7840  143.8020 C   0  0  0  0  0  0  0  0  0  0  0  0
  189.3950  173.4190  139.3350 C   0  0  0  0  0  3  0  0  0  0  0  0
  188.2950  172.4950  138.8520 C   0  0  0  0  0  2  0  0  0  0  0  0
  188.2200  173.9770  138.5590 C   0  0  0  0  0  2  0  0  0  0  0  0
  1 19  2  0  0  0  0
  1  4  1  0  0  0  0
  2 16  1  1  0  0  0
  2 13  1  0  0  0  0
  2 19  1  0  0  0  0
  3 10  1  0  0  0  0
  4 20  2  0  0  0  0
  5  1  1  0  0  0  0
  7 15  1  1  0  0  0
  7  9  1  0  0  0  0
  8  6  1  6  0  0  0
  8 12  1  0  0  0  0
  9 22  1  0  0  0  0
  9 14  1  1  0  0  0
 10 21  1  1  0  0  0
 11 28  1  6  0  0  0
 11  5  1  0  0  0  0
 11  8  1  0  0  0  0
 12  4  1  6  0  0  0
 12 27  1  0  0  0  0
 13 18  2  0  0  0  0
 15 23  1  0  0  0  0
 17  3  1  0  0  0  0
 18 25  1  0  0  0  0
 19 26  1  0  0  0  0
 20 17  1  0  0  0  0
 22 20  1  6  0  0  0
 22 10  1  0  0  0  0
 23 14  1  0  0  0  0
 26 25  2  0  0  0  0
 26 17  1  0  0  0  0
 27 24  2  0  0  0  0
 27  7  1  0  0  0  0
 29 28  1  0  0  0  0
 30 29  1  0  0  0  0
 30 28  1  0  0  0  0
M  END
>  <MODEL>
2

>  <REMARK>
 VINA RESULT:      -7.9      2.310      5.689
  Name = 
  1 active torsions:
  status: ('A' for Active; 'I' for Inactive)
    1  A    between atoms: C_11  and  C_28
                            x       y       z     vdW  Elec       q    Type
                         _______ _______ _______ _____ _____    ______ ____

>  <TORSDO>
F 1

$$$$
=
 OpenBabel11112416163D

 30 36  0  0  1  0  0  0  0  0999 V2000
  187.8910  175.8640  142.4170 C   0  0  0  0  0  0  0  0  0  0  0  0
  188.9420  173.7500  141.5660 C   0  0  1  0  0  3  0  0  0  0  0  0
  189.5200  175.5970  146.3360 C   0  0  0  0  0  2  0  0  0  0  0  0
  187.5700  176.8320  143.5270 C   0  0  0  0  0  0  0  0  0  0  0  0
  187.2050  176.0130  141.0820 C   0  0  0  0  0  2  0  0  0  0  0  0
  184.8150  177.1940  142.1280 O   0  0  0  0  0  1  0  0  0  0  0  0
  185.4450  177.7710  145.4490 C   0  0  1  0  0  3  0  0  0  0  0  0
  185.9420  178.0000  141.9290 C   0  0  2  0  0  3  0  0  0  0  0  0
  186.5280  177.4440  146.4790 C   0  0  2  0  0  3  0  0  0  0  0  0
  188.9250  176.8620  146.9690 C   0  0  1  0  0  3  0  0  0  0  0  0
  186.8070  177.4560  140.7930 C   0  0  2  0  0  3  0  0  0  0  0  0
  186.7730  178.0980  143.2110 C   0  0  1  0  0  3  0  0  0  0  0  0
  190.1610  172.9060  141.8350 C   0  0  0  0  0  3  0  0  0  0  0  0
  186.3140  178.4260  147.6100 C   0  0  0  0  0  2  0  0  0  0  0  0
  184.3100  178.4210  146.2300 C   0  0  0  0  0  2  0  0  0  0  0  0
  187.5210  172.6760  141.4780 Cl  0  0  0  0  0  0  0  0  0  0  0  0
  188.9740  175.5370  144.9960 N   0  0  0  0  0  0  0  0  0  0  0  0
  190.7650  172.8730  143.0260 C   0  0  0  0  0  3  0  0  0  0  0  0
  188.7160  174.8100  142.6270 C   0  0  0  0  0  0  0  0  0  0  0  0
  188.1170  176.6280  144.7460 C   0  0  0  0  0  0  0  0  0  0  0  0
  189.9920  177.7950  147.2750 N   0  0  0  0  0  1  0  0  0  0  0  0
  187.9670  177.4940  145.9470 C   0  0  1  0  0  3  0  0  0  0  0  0
  184.8190  178.6660  147.6410 C   0  0  0  0  0  2  0  0  0  0  0  0
  185.7510  179.8730  144.3760 O   0  0  0  0  0  0  0  0  0  0  0  0
  190.3140  173.7300  144.1350 C   0  0  0  0  0  3  0  0  0  0  0  0
  189.3560  174.6430  143.9520 C   0  0  0  0  0  0  0  0  0  0  0  0
  185.9530  178.6670  144.3410 C   0  0  0  0  0  0  0  0  0  0  0  0
  186.0730  177.5410  139.4650 C   0  0  0  0  0  3  0  0  0  0  0  0
  187.0810  177.6230  138.3350 C   0  0  0  0  0  2  0  0  0  0  0  0
  186.3860  176.3120  138.6350 C   0  0  0  0  0  2  0  0  0  0  0  0
  1 19  2  0  0  0  0
  1  4  1  0  0  0  0
  2 16  1  1  0  0  0
  2 13  1  0  0  0  0
  2 19  1  0  0  0  0
  3 10  1  0  0  0  0
  4 20  2  0  0  0  0
  5  1  1  0  0  0  0
  7 15  1  1  0  0  0
  7  9  1  0  0  0  0
  8  6  1  1  0  0  0
  8 12  1  0  0  0  0
  9 14  1  1  0  0  0
 10 21  1  6  0  0  0
 11 28  1  6  0  0  0
 11  5  1  0  0  0  0
 11  8  1  0  0  0  0
 12  4  1  1  0  0  0
 12 27  1  0  0  0  0
 13 18  2  0  0  0  0
 14 23  1  0  0  0  0
 15 23  1  0  0  0  0
 17  3  1  0  0  0  0
 18 25  1  0  0  0  0
 19 26  1  0  0  0  0
 20 17  1  0  0  0  0
 22 20  1  6  0  0  0
 22  9  1  0  0  0  0
 22 10  1  0  0  0  0
 26 25  2  0  0  0  0
 26 17  1  0  0  0  0
 27 24  2  0  0  0  0
 27  7  1  0  0  0  0
 29 30  1  0  0  0  0
 29 28  1  0  0  0  0
 30 28  1  0  0  0  0
M  END
>  <MODEL>
3

>  <REMARK>
 VINA RESULT:      -7.8      2.910      7.108
  Name = 
  1 active torsions:
  status: ('A' for Active; 'I' for Inactive)
    1  A    between atoms: C_11  and  C_28
                            x       y       z     vdW  Elec       q    Type
                         _______ _______ _______ _____ _____    ______ ____

>  <TORSDO>
F 1

$$$$
=
 OpenBabel11112416163D

 30 36  0  0  1  0  0  0  0  0999 V2000
  189.2930  175.4310  142.9500 C   0  0  0  0  0  0  0  0  0  0  0  0
  187.2500  176.8410  142.5750 C   0  0  1  0  0  3  0  0  0  0  0  0
  190.1480  176.9530  146.8280 C   0  0  0  0  0  2  0  0  0  0  0  0
  190.5070  175.0430  143.7550 C   0  0  0  0  0  0  0  0  0  0  0  0
  189.1200  174.8820  141.5560 C   0  0  0  0  0  2  0  0  0  0  0  0
  191.9190  174.6100  141.0170 O   0  0  0  0  0  1  0  0  0  0  0  0
  193.5020  175.2930  143.9810 C   0  0  1  0  0  3  0  0  0  0  0  0
  191.2710  173.6200  141.7650 C   0  0  2  0  0  3  0  0  0  0  0  0
  193.1440  175.8200  145.3720 C   0  0  2  0  0  3  0  0  0  0  0  0
  191.4130  176.1530  147.1650 C   0  0  1  0  0  3  0  0  0  0  0  0
  189.7960  173.5260  141.3800 C   0  0  2  0  0  3  0  0  0  0  0  0
  191.3970  173.9020  143.2650 C   0  0  1  0  0  3  0  0  0  0  0  0
  186.1760  177.5140  143.3890 C   0  0  0  0  0  3  0  0  0  0  0  0
  194.2960  175.4100  146.2640 C   0  0  0  0  0  2  0  0  0  0  0  0
  195.0230  175.1940  143.9520 C   0  0  0  0  0  2  0  0  0  0  0  0
  187.8590  178.0070  141.3710 Cl  0  0  0  0  0  0  0  0  0  0  0  0
  189.7900  176.5680  145.4790 N   0  0  0  0  0  0  0  0  0  0  0  0
  186.3730  177.9150  144.6480 C   0  0  0  0  0  3  0  0  0  0  0  0
  188.4010  176.3350  143.4230 C   0  0  0  0  0  0  0  0  0  0  0  0
  190.6970  175.6200  144.9620 C   0  0  0  0  0  0  0  0  0  0  0  0
  191.1360  175.2560  148.2720 N   0  0  0  0  0  1  0  0  0  0  0  0
  191.7970  175.3320  145.9230 C   0  0  1  0  0  3  0  0  0  0  0  0
  195.5150  175.4460  145.3680 C   0  0  0  0  0  2  0  0  0  0  0  0
  193.4650  172.9180  143.8200 O   0  0  0  0  0  0  0  0  0  0  0  0
  187.6410  177.6480  145.3450 C   0  0  0  0  0  3  0  0  0  0  0  0
  188.5940  176.9050  144.7770 C   0  0  0  0  0  0  0  0  0  0  0  0
  192.8460  173.9640  143.6790 C   0  0  0  0  0  0  0  0  0  0  0  0
  189.6380  173.0450  139.9470 C   0  0  0  0  0  3  0  0  0  0  0  0
  188.2330  172.5140  139.7430 C   0  0  0  0  0  2  0  0  0  0  0  0
  188.6000  173.8930  139.2400 C   0  0  0  0  0  2  0  0  0  0  0  0
  1 19  2  0  0  0  0
  1  4  1  0  0  0  0
  2 16  1  6  0  0  0
  2 13  1  0  0  0  0
  2 19  1  0  0  0  0
  3 10  1  0  0  0  0
  4 20  2  0  0  0  0
  5  1  1  0  0  0  0
  7 15  1  1  0  0  0
  7  9  1  0  0  0  0
  8  6  1  6  0  0  0
  8 12  1  0  0  0  0
  9 22  1  0  0  0  0
  9 14  1  1  0  0  0
 10 21  1  1  0  0  0
 11 28  1  6  0  0  0
 11  5  1  0  0  0  0
 11  8  1  0  0  0  0
 12 27  1  6  0  0  0
 12  4  1  0  0  0  0
 13 18  2  0  0  0  0
 15 23  1  0  0  0  0
 17  3  1  0  0  0  0
 18 25  1  0  0  0  0
 19 26  1  0  0  0  0
 20 17  1  0  0  0  0
 22 20  1  6  0  0  0
 22 10  1  0  0  0  0
 23 14  1  0  0  0  0
 26 25  2  0  0  0  0
 26 17  1  0  0  0  0
 27 24  2  0  0  0  0
 27  7  1  0  0  0  0
 29 28  1  0  0  0  0
 30 29  1  0  0  0  0
 30 28  1  0  0  0  0
M  END
>  <MODEL>
4

>  <REMARK>
 VINA RESULT:      -7.7      2.640      5.883
  Name = 
  1 active torsions:
  status: ('A' for Active; 'I' for Inactive)
    1  A    between atoms: C_11  and  C_28
                            x       y       z     vdW  Elec       q    Type
                         _______ _______ _______ _____ _____    ______ ____

>  <TORSDO>
F 1

$$$$
=
 OpenBabel11112416163D

 30 36  0  0  1  0  0  0  0  0999 V2000
  189.9400  175.7560  144.6940 C   0  0  0  0  0  0  0  0  0  0  0  0
  188.8280  176.4850  146.8230 C   0  0  0  0  0  0  0  0  0  0  0  0
  186.5740  176.4690  142.1960 C   0  0  0  0  0  2  0  0  0  0  0  0
  189.9040  175.4310  143.2230 C   0  0  0  0  0  0  0  0  0  0  0  0
  191.1630  175.4000  145.5020 C   0  0  0  0  0  2  0  0  0  0  0  0
  191.9150  173.1540  143.8930 O   0  0  0  0  0  1  0  0  0  0  0  0
  189.8120  173.2120  141.1850 C   0  0  1  0  0  3  0  0  0  0  0  0
  192.2560  174.4430  143.4650 C   0  0  2  0  0  3  0  0  0  0  0  0
  188.5660  173.9710  140.7220 C   0  0  2  0  0  3  0  0  0  0  0  0
  187.1440  176.0410  140.8370 C   0  0  1  0  0  3  0  0  0  0  0  0
  192.4310  175.3830  144.6560 C   0  0  2  0  0  3  0  0  0  0  0  0
  191.1900  175.0010  142.5190 C   0  0  1  0  0  3  0  0  0  0  0  0
  187.7290  177.4170  147.2630 C   0  0  0  0  0  3  0  0  0  0  0  0
  188.4940  173.7460  139.2280 C   0  0  0  0  0  2  0  0  0  0  0  0
  190.0310  172.1070  140.1590 C   0  0  0  0  0  2  0  0  0  0  0  0
  188.5950  174.9160  147.6380 Cl  0  0  0  0  0  0  0  0  0  0  0  0
  187.6220  176.2040  143.1590 N   0  0  0  0  0  0  0  0  0  0  0  0
  186.7070  177.7480  146.4700 C   0  0  0  0  0  3  0  0  0  0  0  0
  188.8590  176.2790  145.3210 C   0  0  0  0  0  0  0  0  0  0  0  0
  188.7650  175.6660  142.5340 C   0  0  0  0  0  0  0  0  0  0  0  0
  187.2360  177.1980  139.9660 N   0  0  0  0  0  1  0  0  0  0  0  0
  188.5490  175.4650  141.0750 C   0  0  1  0  0  3  0  0  0  0  0  0
  189.0670  172.3620  139.0130 C   0  0  0  0  0  2  0  0  0  0  0  0
  191.8520  174.1660  140.4170 O   0  0  0  0  0  0  0  0  0  0  0  0
  186.6360  177.2760  145.0770 C   0  0  0  0  0  3  0  0  0  0  0  0
  187.6440  176.5900  144.5330 C   0  0  1  0  0  3  0  0  0  0  0  0
  191.0220  174.1100  141.3130 C   0  0  0  0  0  0  0  0  0  0  0  0
  193.6210  174.9670  145.5050 C   0  0  0  0  0  3  0  0  0  0  0  0
  194.7740  175.9220  145.2640 C   0  0  0  0  0  2  0  0  0  0  0  0
  193.9300  176.0560  146.5130 C   0  0  0  0  0  2  0  0  0  0  0  0
  1 19  2  0  0  0  0
  1  5  1  0  0  0  0
  2 13  2  0  0  0  0
  2 16  1  0  0  0  0
  3 17  1  0  0  0  0
  4  1  1  0  0  0  0
  7 15  1  6  0  0  0
  7 27  1  0  0  0  0
  8  6  1  1  0  0  0
  8 11  1  0  0  0  0
  9 14  1  6  0  0  0
  9 22  1  0  0  0  0
  9  7  1  0  0  0  0
 10 21  1  6  0  0  0
 10 22  1  0  0  0  0
 10  3  1  0  0  0  0
 11  5  1  0  0  0  0
 11 28  1  1  0  0  0
 12 27  1  6  0  0  0
 12  4  1  0  0  0  0
 12  8  1  0  0  0  0
 17 26  1  0  0  0  0
 18 13  1  0  0  0  0
 19  2  1  0  0  0  0
 20 17  1  0  0  0  0
 20  4  2  0  0  0  0
 22 20  1  1  0  0  0
 23 14  1  0  0  0  0
 23 15  1  0  0  0  0
 24 27  2  0  0  0  0
 25 18  2  0  0  0  0
 26 25  1  6  0  0  0
 26 19  1  0  0  0  0
 28 30  1  0  0  0  0
 29 28  1  0  0  0  0
 29 30  1  0  0  0  0
M  END
>  <MODEL>
5

>  <REMARK>
 VINA RESULT:      -7.7      1.552      2.111
  Name = 
  1 active torsions:
  status: ('A' for Active; 'I' for Inactive)
    1  A    between atoms: C_11  and  C_28
                            x       y       z     vdW  Elec       q    Type
                         _______ _______ _______ _____ _____    ______ ____

>  <TORSDO>
F 1

$$$$
=
 OpenBabel11112416163D

 30 36  0  0  1  0  0  0  0  0999 V2000
  189.9750  174.9720  142.6010 C   0  0  0  0  0  0  0  0  0  0  0  0
  188.3370  173.6360  141.2470 C   0  0  0  0  0  0  0  0  0  0  0  0
  193.3980  173.8660  140.3340 C   0  0  0  0  0  2  0  0  0  0  0  0
  191.3810  175.3870  142.9490 C   0  0  0  0  0  0  0  0  0  0  0  0
  188.8390  175.3650  143.5120 C   0  0  0  0  0  2  0  0  0  0  0  0
  190.4110  175.4280  145.9050 O   0  0  0  0  0  1  0  0  0  0  0  0
  193.6600  175.0110  144.8870 C   0  0  1  0  0  3  0  0  0  0  0  0
  190.4410  176.5300  145.0410 C   0  0  2  0  0  3  0  0  0  0  0  0
  194.4190  174.6670  143.6040 C   0  0  2  0  0  3  0  0  0  0  0  0
  194.4900  174.6330  141.0910 C   0  0  1  0  0  3  0  0  0  0  0  0
  189.1270  176.6550  144.2730 C   0  0  2  0  0  3  0  0  0  0  0  0
  191.6070  176.4160  144.0560 C   0  0  1  0  0  3  0  0  0  0  0  0
  188.1910  173.1180  139.8400 C   0  0  0  0  0  3  0  0  0  0  0  0
  195.8420  175.1170  143.8500 C   0  0  0  0  0  2  0  0  0  0  0  0
  194.7030  175.0270  145.9980 C   0  0  0  0  0  2  0  0  0  0  0  0
  187.9650  172.3090  142.3780 Cl  0  0  0  0  0  0  0  0  0  0  0  0
  192.1710  174.1100  141.0630 N   0  0  0  0  0  0  0  0  0  0  0  0
  189.2410  172.8550  139.0580 C   0  0  0  0  0  3  0  0  0  0  0  0
  189.7250  174.1760  141.5340 C   0  0  0  0  0  0  0  0  0  0  0  0
  192.3990  174.9450  142.1770 C   0  0  0  0  0  0  0  0  0  0  0  0
  195.0390  175.6640  140.2310 N   0  0  0  0  0  1  0  0  0  0  0  0
  193.8410  175.2840  142.3230 C   0  0  1  0  0  3  0  0  0  0  0  0
  196.0650  174.9150  145.3340 C   0  0  0  0  0  2  0  0  0  0  0  0
  193.4090  177.3500  145.2520 O   0  0  0  0  0  0  0  0  0  0  0  0
  190.6160  173.1350  139.5040 C   0  0  0  0  0  3  0  0  0  0  0  0
  190.8480  173.7570  140.6630 C   0  0  1  0  0  3  0  0  0  0  0  0
  192.9230  176.3290  144.7880 C   0  0  0  0  0  0  0  0  0  0  0  0
  187.9770  176.9750  145.2140 C   0  0  0  0  0  3  0  0  0  0  0  0
  187.2040  178.1660  144.6820 C   0  0  0  0  0  2  0  0  0  0  0  0
  186.6600  176.7670  144.4930 C   0  0  0  0  0  2  0  0  0  0  0  0
  1  4  1  0  0  0  0
  1  5  1  0  0  0  0
  2 19  1  0  0  0  0
  2 16  1  0  0  0  0
  3 17  1  0  0  0  0
  3 10  1  0  0  0  0
  5 11  1  0  0  0  0
  7 15  1  1  0  0  0
  8  6  1  1  0  0  0
  9 14  1  1  0  0  0
  9  7  1  0  0  0  0
 10 21  1  6  0  0  0
 10 22  1  0  0  0  0
 11  8  1  0  0  0  0
 11 28  1  1  0  0  0
 12  4  1  1  0  0  0
 12 27  1  0  0  0  0
 12  8  1  0  0  0  0
 13  2  2  0  0  0  0
 14 23  1  0  0  0  0
 17 20  1  0  0  0  0
 18 25  2  0  0  0  0
 18 13  1  0  0  0  0
 19  1  2  0  0  0  0
 20  4  2  0  0  0  0
 22 20  1  6  0  0  0
 22  9  1  0  0  0  0
 23 15  1  0  0  0  0
 26 25  1  6  0  0  0
 26 17  1  0  0  0  0
 26 19  1  0  0  0  0
 27  7  1  0  0  0  0
 27 24  2  0  0  0  0
 29 28  1  0  0  0  0
 30 29  1  0  0  0  0
 30 28  1  0  0  0  0
M  END
>  <MODEL>
6

>  <REMARK>
 VINA RESULT:      -7.2      3.409      6.437
  Name = 
  1 active torsions:
  status: ('A' for Active; 'I' for Inactive)
    1  A    between atoms: C_11  and  C_28
                            x       y       z     vdW  Elec       q    Type
                         _______ _______ _______ _____ _____    ______ ____

>  <TORSDO>
F 1

$$$$
=
 OpenBabel11112416163D

 30 36  0  0  1  0  0  0  0  0999 V2000
  190.6580  175.3390  144.4580 C   0  0  0  0  0  0  0  0  0  0  0  0
  189.0970  176.7070  145.8710 C   0  0  0  0  0  0  0  0  0  0  0  0
  187.7800  174.3530  141.4870 C   0  0  0  0  0  2  0  0  0  0  0  0
  190.9330  174.4190  143.2970 C   0  0  0  0  0  0  0  0  0  0  0  0
  191.7310  175.5690  145.4920 C   0  0  0  0  0  2  0  0  0  0  0  0
  192.9790  173.0110  145.1700 O   0  0  0  0  0  1  0  0  0  0  0  0
  191.4350  171.5630  142.4720 C   0  0  1  0  0  3  0  0  0  0  0  0
  193.2760  174.0330  144.2600 C   0  0  2  0  0  3  0  0  0  0  0  0
  190.2370  171.8350  141.5600 C   0  0  2  0  0  3  0  0  0  0  0  0
  188.6360  173.4900  140.5500 C   0  0  1  0  0  3  0  0  0  0  0  0
  193.1340  175.4050  144.9180 C   0  0  2  0  0  3  0  0  0  0  0  0
  192.3640  173.9510  143.0340 C   0  0  1  0  0  3  0  0  0  0  0  0
  187.8550  177.5410  145.6990 C   0  0  0  0  0  3  0  0  0  0  0  0
  190.4720  170.9890  140.3280 C   0  0  0  0  0  2  0  0  0  0  0  0
  191.9460  170.1810  142.0870 C   0  0  0  0  0  2  0  0  0  0  0  0
  188.8570  175.6180  147.2630 Cl  0  0  0  0  0  0  0  0  0  0  0  0
  188.6440  174.7010  142.5950 N   0  0  0  0  0  0  0  0  0  0  0  0
  186.9770  177.3290  144.7160 C   0  0  0  0  0  3  0  0  0  0  0  0
  189.4340  175.8910  144.6380 C   0  0  0  0  0  0  0  0  0  0  0  0
  189.9300  174.1470  142.4320 C   0  0  0  0  0  0  0  0  0  0  0  0
  188.7860  174.1660  139.2750 N   0  0  0  0  0  1  0  0  0  0  0  0
  190.0160  173.3120  141.2030 C   0  0  1  0  0  3  0  0  0  0  0  0
  191.2000  169.7610  140.8310 C   0  0  0  0  0  2  0  0  0  0  0  0
  193.4890  172.4260  141.6340 O   0  0  0  0  0  0  0  0  0  0  0  0
  187.2160  176.3060  143.6850 C   0  0  0  0  0  3  0  0  0  0  0  0
  188.3680  175.6310  143.6420 C   0  0  1  0  0  3  0  0  0  0  0  0
  192.5120  172.6180  142.3430 C   0  0  0  0  0  0  0  0  0  0  0  0
  194.1730  175.5930  146.0110 C   0  0  0  0  0  3  0  0  0  0  0  0
  194.8830  176.9170  145.8120 C   0  0  0  0  0  2  0  0  0  0  0  0
  193.8010  176.7910  146.8620 C   0  0  0  0  0  2  0  0  0  0  0  0
  1 19  2  0  0  0  0
  1  5  1  0  0  0  0
  2 16  1  0  0  0  0
  3 17  1  0  0  0  0
  4  1  1  0  0  0  0
  7 15  1  6  0  0  0
  8 11  1  0  0  0  0
  8  6  1  1  0  0  0
  9 14  1  6  0  0  0
  9  7  1  0  0  0  0
 10 21  1  6  0  0  0
 10 22  1  0  0  0  0
 10  3  1  0  0  0  0
 11  5  1  0  0  0  0
 11 28  1  1  0  0  0
 12 27  1  1  0  0  0
 12  4  1  0  0  0  0
 12  8  1  0  0  0  0
 13  2  2  0  0  0  0
 14 23  1  0  0  0  0
 17 26  1  0  0  0  0
 18 13  1  0  0  0  0
 19  2  1  0  0  0  0
 20 17  1  0  0  0  0
 20  4  2  0  0  0  0
 22  9  1  0  0  0  0
 22 20  1  1  0  0  0
 23 15  1  0  0  0  0
 24 27  2  0  0  0  0
 25 18  2  0  0  0  0
 26 25  1  6  0  0  0
 26 19  1  0  0  0  0
 27  7  1  0  0  0  0
 28 30  1  0  0  0  0
 29 28  1  0  0  0  0
 29 30  1  0  0  0  0
M  END
>  <MODEL>
7

>  <REMARK>
 VINA RESULT:      -7.1      2.207      3.229
  Name = 
  1 active torsions:
  status: ('A' for Active; 'I' for Inactive)
    1  A    between atoms: C_11  and  C_28
                            x       y       z     vdW  Elec       q    Type
                         _______ _______ _______ _____ _____    ______ ____

>  <TORSDO>
F 1

$$$$
=
 OpenBabel11112416163D

 30 36  0  0  1  0  0  0  0  0999 V2000
  189.0930  175.2940  141.9100 C   0  0  0  0  0  0  0  0  0  0  0  0
  188.8710  173.9440  139.8050 C   0  0  1  0  0  3  0  0  0  0  0  0
  193.1390  174.2280  142.6690 C   0  0  0  0  0  2  0  0  0  0  0  0
  189.8570  175.7220  143.1360 C   0  0  0  0  0  0  0  0  0  0  0  0
  187.6390  175.6730  141.7720 C   0  0  0  0  0  2  0  0  0  0  0  0
  187.1040  175.7460  144.5840 O   0  0  0  0  0  1  0  0  0  0  0  0
  190.1480  175.3660  146.1150 C   0  0  1  0  0  3  0  0  0  0  0  0
  187.7160  176.8510  143.9790 C   0  0  2  0  0  3  0  0  0  0  0  0
  191.5900  175.0330  145.7240 C   0  0  2  0  0  3  0  0  0  0  0  0
  193.3890  175.0050  143.9680 C   0  0  1  0  0  3  0  0  0  0  0  0
  187.3050  176.9640  142.5110 C   0  0  2  0  0  3  0  0  0  0  0  0
  189.2400  176.7520  144.0820 C   0  0  1  0  0  3  0  0  0  0  0  0
  189.7500  173.4280  138.6960 C   0  0  0  0  0  3  0  0  0  0  0  0
  192.4370  175.4970  146.8880 C   0  0  0  0  0  2  0  0  0  0  0  0
  190.1250  175.3900  147.6380 C   0  0  0  0  0  2  0  0  0  0  0  0
  187.8280  172.6100  140.3660 Cl  0  0  0  0  0  0  0  0  0  0  0  0
  191.7480  174.4590  142.3380 N   0  0  0  0  0  0  0  0  0  0  0  0
  191.0500  173.1770  138.8660 C   0  0  0  0  0  3  0  0  0  0  0  0
  189.6630  174.4980  140.9730 C   0  0  0  0  0  0  0  0  0  0  0  0
  191.1290  175.2920  143.2910 C   0  0  0  0  0  0  0  0  0  0  0  0
  194.3730  176.0440  143.7270 N   0  0  0  0  0  1  0  0  0  0  0  0
  192.0600  175.6460  144.3980 C   0  0  1  0  0  3  0  0  0  0  0  0
  191.5660  175.2940  148.1100 C   0  0  0  0  0  2  0  0  0  0  0  0
  189.6930  177.7010  146.1900 O   0  0  0  0  0  0  0  0  0  0  0  0
  191.7240  173.4700  140.1420 C   0  0  0  0  0  3  0  0  0  0  0  0
  191.0790  174.0930  141.1320 C   0  0  0  0  0  0  0  0  0  0  0  0
  189.6760  176.6760  145.5240 C   0  0  0  0  0  0  0  0  0  0  0  0
  185.8210  177.2700  142.3860 C   0  0  0  0  0  3  0  0  0  0  0  0
  185.6260  178.7630  142.2070 C   0  0  0  0  0  2  0  0  0  0  0  0
  185.5370  177.8400  141.0110 C   0  0  0  0  0  2  0  0  0  0  0  0
  1  4  1  0  0  0  0
  2 16  1  1  0  0  0
  2 19  1  0  0  0  0
  3 10  1  0  0  0  0
  4 20  2  0  0  0  0
  5  1  1  0  0  0  0
  5 11  1  0  0  0  0
  7 15  1  1  0  0  0
  8 12  1  0  0  0  0
  8  6  1  6  0  0  0
  9  7  1  0  0  0  0
  9 14  1  1  0  0  0
 10 21  1  6  0  0  0
 10 22  1  0  0  0  0
 11 28  1  1  0  0  0
 11  8  1  0  0  0  0
 12  4  1  6  0  0  0
 12 27  1  0  0  0  0
 13 18  2  0  0  0  0
 13  2  1  0  0  0  0
 14 23  1  0  0  0  0
 15 23  1  0  0  0  0
 17  3  1  0  0  0  0
 17 20  1  0  0  0  0
 18 25  1  0  0  0  0
 19 26  1  0  0  0  0
 19  1  2  0  0  0  0
 22 20  1  6  0  0  0
 22  9  1  0  0  0  0
 25 26  2  0  0  0  0
 26 17  1  0  0  0  0
 27  7  1  0  0  0  0
 27 24  2  0  0  0  0
 29 28  1  0  0  0  0
 30 29  1  0  0  0  0
 30 28  1  0  0  0  0
M  END
>  <MODEL>
8

>  <REMARK>
 VINA RESULT:      -7.1      3.000      6.888
  Name = 
  1 active torsions:
  status: ('A' for Active; 'I' for Inactive)
    1  A    between atoms: C_11  and  C_28
                            x       y       z     vdW  Elec       q    Type
                         _______ _______ _______ _____ _____    ______ ____

>  <TORSDO>
F 1

$$$$
=
 OpenBabel11112416163D

 30 36  0  0  1  0  0  0  0  0999 V2000
  191.0150  174.8360  143.5900 C   0  0  0  0  0  0  0  0  0  0  0  0
  189.1210  173.8370  142.2810 C   0  0  0  0  0  0  0  0  0  0  0  0
  193.9590  174.2610  140.5760 C   0  0  0  0  0  2  0  0  0  0  0  0
  192.4760  175.1620  143.7710 C   0  0  0  0  0  0  0  0  0  0  0  0
  190.0670  175.0170  144.7490 C   0  0  0  0  0  2  0  0  0  0  0  0
  192.0220  174.5430  146.7860 O   0  0  0  0  0  1  0  0  0  0  0  0
  195.0330  174.3620  145.1530 C   0  0  1  0  0  3  0  0  0  0  0  0
  191.9490  175.8100  146.1940 C   0  0  2  0  0  3  0  0  0  0  0  0
  195.5500  174.3120  143.7140 C   0  0  2  0  0  3  0  0  0  0  0  0
  195.1920  174.8390  141.2820 C   0  0  1  0  0  3  0  0  0  0  0  0
  190.5290  176.1040  145.7120 C   0  0  2  0  0  3  0  0  0  0  0  0
  192.9260  175.9190  145.0200 C   0  0  1  0  0  3  0  0  0  0  0  0
  188.7180  173.6460  140.8420 C   0  0  0  0  0  3  0  0  0  0  0  0
  197.0110  174.6950  143.8010 C   0  0  0  0  0  2  0  0  0  0  0  0
  196.2480  174.1290  146.0410 C   0  0  0  0  0  2  0  0  0  0  0  0
  188.8930  172.2910  143.1410 Cl  0  0  0  0  0  0  0  0  0  0  0  0
  192.8840  174.3380  141.5430 N   0  0  0  0  0  0  0  0  0  0  0  0
  189.6100  173.5630  139.8510 C   0  0  0  0  0  3  0  0  0  0  0  0
  190.5570  174.2980  142.4340 C   0  0  0  0  0  0  0  0  0  0  0  0
  193.3290  174.9020  142.7560 C   0  0  0  0  0  0  0  0  0  0  0  0
  195.6290  176.0360  140.5870 N   0  0  0  0  0  1  0  0  0  0  0  0
  194.7880  175.1990  142.7200 C   0  0  1  0  0  3  0  0  0  0  0  0
  197.4730  174.1670  145.1420 C   0  0  0  0  0  2  0  0  0  0  0  0
  194.9400  176.5600  146.0600 O   0  0  0  0  0  0  0  0  0  0  0  0
  191.0500  173.7350  140.1030 C   0  0  0  0  0  3  0  0  0  0  0  0
  191.4990  174.0830  141.3110 C   0  0  1  0  0  3  0  0  0  0  0  0
  194.3420  175.6690  145.4750 C   0  0  0  0  0  0  0  0  0  0  0  0
  189.5690  176.2070  146.8860 C   0  0  0  0  0  3  0  0  0  0  0  0
  188.6950  177.4350  146.7180 C   0  0  0  0  0  2  0  0  0  0  0  0
  188.1450  176.0640  146.3880 C   0  0  0  0  0  2  0  0  0  0  0  0
  1  4  1  0  0  0  0
  1  5  1  0  0  0  0
  2 19  1  0  0  0  0
  2 16  1  0  0  0  0
  3 10  1  0  0  0  0
  3 17  1  0  0  0  0
  5 11  1  0  0  0  0
  7 27  1  0  0  0  0
  7 15  1  1  0  0  0
  8  6  1  6  0  0  0
  9 14  1  1  0  0  0
  9  7  1  0  0  0  0
 10 21  1  6  0  0  0
 10 22  1  0  0  0  0
 11  8  1  0  0  0  0
 11 28  1  1  0  0  0
 12  4  1  6  0  0  0
 12 27  1  0  0  0  0
 12  8  1  0  0  0  0
 13  2  2  0  0  0  0
 14 23  1  0  0  0  0
 17 20  1  0  0  0  0
 18 25  2  0  0  0  0
 18 13  1  0  0  0  0
 19  1  2  0  0  0  0
 20  4  2  0  0  0  0
 22 20  1  6  0  0  0
 22  9  1  0  0  0  0
 23 15  1  0  0  0  0
 26 25  1  6  0  0  0
 26 17  1  0  0  0  0
 26 19  1  0  0  0  0
 27 24  2  0  0  0  0
 29 28  1  0  0  0  0
 30 29  1  0  0  0  0
 30 28  1  0  0  0  0
M  END
>  <MODEL>
9

>  <REMARK>
 VINA RESULT:      -7.1      3.904      6.555
  Name = 
  1 active torsions:
  status: ('A' for Active; 'I' for Inactive)
    1  A    between atoms: C_11  and  C_28
                            x       y       z     vdW  Elec       q    Type
                         _______ _______ _______ _____ _____    ______ ____

>  <TORSDO>
F 1

$$$$
