=
 OpenBabel11112416373D

 32 37  0  0  1  0  0  0  0  0999 V2000
  195.4290  174.6720  146.0310 C   0  0  0  0  0  2  0  0  0  0  0  0
  190.5350  177.0500  144.7180 C   0  0  2  0  0  3  0  0  0  0  0  0
  187.9000  175.5470  140.8030 C   0  0  0  0  0  2  0  0  0  0  0  0
  187.0290  176.7320  141.1680 C   0  0  0  0  0  2  0  0  0  0  0  0
  188.4700  177.1650  146.3980 C   0  0  0  0  0  0  0  0  0  0  0  0
  187.0670  177.5690  146.5550 C   0  0  0  0  0  0  0  0  0  0  0  0
  192.8340  176.2910  145.3830 C   0  0  2  0  0  3  0  0  0  0  0  0
  191.9000  175.6280  143.1530 C   0  0  0  0  0  2  0  0  0  0  0  0
  185.1100  178.3910  146.0430 C   0  0  0  0  0  0  0  0  0  0  0  0
  194.1370  174.7890  143.8120 C   0  0  0  0  0  2  0  0  0  0  0  0
  188.7800  175.1980  141.9900 C   0  0  0  0  0  2  0  0  0  0  0  0
  190.4890  175.9800  143.6150 C   0  0  2  0  0  3  0  0  0  0  0  0
  189.6370  176.4020  142.4000 C   0  0  2  0  0  3  0  0  0  0  0  0
  188.1250  177.4700  143.9440 C   0  0  2  0  0  3  0  0  0  0  0  0
  185.1180  177.9410  147.3560 C   0  0  0  0  0  3  0  0  0  0  0  0
  194.9480  175.9880  146.1200 O   0  0  0  0  0  0  0  0  0  0  0  0
  192.7540  175.1710  144.3310 C   0  0  1  0  0  3  0  0  0  0  0  0
  186.3160  177.4520  147.6250 O   0  0  0  0  0  0  0  0  0  0  0  0
  193.6550  175.8770  146.5130 N   0  0  0  0  0  2  0  0  0  0  0  0
  194.8670  173.9050  144.8230 C   0  0  1  0  0  3  0  0  0  0  0  0
  187.9220  177.9160  141.5300 C   0  0  0  0  0  2  0  0  0  0  0  0
  188.8240  177.6190  142.6590 N   0  0  2  0  0  0  0  0  0  0  0  0
  186.9340  178.4290  144.1700 C   0  0  0  0  0  2  0  0  0  0  0  0
  191.4370  176.6450  145.8840 C   0  0  0  0  0  2  0  0  0  0  0  0
  189.0740  176.5580  147.3200 O   0  0  0  0  0  0  0  0  0  0  0  0
  183.9620  179.0180  145.3330 C   0  0  0  0  0  1  0  0  0  0  0  0
  189.1380  177.5920  145.1040 C   0  0  2  0  0  3  0  0  0  0  0  0
  186.3580  178.1390  145.5290 C   0  0  0  0  0  0  0  0  0  0  0  0
  195.9480  173.1900  144.1630 N   0  0  0  0  0  2  0  0  0  0  0  0
  196.5450  172.2950  145.1420 C   0  0  0  0  0  3  0  0  0  0  0  0
  195.6350  171.1050  145.3580 C   0  0  0  0  0  1  0  0  0  0  0  0
  197.8900  171.8090  144.6370 C   0  0  0  0  0  1  0  0  0  0  0  0
  1 16  1  0  0  0  0
  2 27  1  0  0  0  0
  2 24  1  1  0  0  0
  3  4  1  0  0  0  0
  3 11  1  0  0  0  0
  4 21  1  0  0  0  0
  5  6  1  0  0  0  0
  5 25  2  0  0  0  0
  6 18  1  0  0  0  0
  7 24  1  1  0  0  0
  7 19  1  0  0  0  0
  9 15  2  0  0  0  0
 10 17  1  0  0  0  0
 10 20  1  0  0  0  0
 12  8  1  6  0  0  0
 12  2  1  0  0  0  0
 13 11  1  1  0  0  0
 13 22  1  0  0  0  0
 13 12  1  0  0  0  0
 14 23  1  1  0  0  0
 14 27  1  0  0  0  0
 15 18  1  0  0  0  0
 16 19  1  0  0  0  0
 17  8  1  6  0  0  0
 17  7  1  0  0  0  0
 20 29  1  6  0  0  0
 20  1  1  0  0  0  0
 22 21  1  6  0  0  0
 22 14  1  0  0  0  0
 23 28  1  0  0  0  0
 26  9  1  0  0  0  0
 27  5  1  1  0  0  0
 28  9  1  0  0  0  0
 28  6  2  0  0  0  0
 29 30  1  0  0  0  0
 30 31  1  0  0  0  0
 32 30  1  0  0  0  0
M  END
>  <MODEL>
1

>  <REMARK>
 VINA RESULT:      -9.1      0.000      0.000
  Name = 
  2 active torsions:
  status: ('A' for Active; 'I' for Inactive)
    1  A    between atoms: C_20  and  N_29
    2  A    between atoms: N_29  and  C_30
                            x       y       z     vdW  Elec       q    Type
                         _______ _______ _______ _____ _____    ______ ____

>  <TORSDO>
F 2

$$$$
=
 OpenBabel11112416373D

 32 37  0  0  1  0  0  0  0  0999 V2000
  185.4090  178.4780  147.3500 C   0  0  0  0  0  2  0  0  0  0  0  0
  189.5310  175.0350  145.7760 C   0  0  2  0  0  3  0  0  0  0  0  0
  190.1560  173.7520  141.0340 C   0  0  0  0  0  2  0  0  0  0  0  0
  191.2110  172.8320  141.6140 C   0  0  0  0  0  2  0  0  0  0  0  0
  192.1060  175.5230  146.2600 C   0  0  0  0  0  0  0  0  0  0  0  0
  193.4800  175.0540  146.0460 C   0  0  0  0  0  0  0  0  0  0  0  0
  187.6490  176.3820  146.7490 C   0  0  2  0  0  3  0  0  0  0  0  0
  187.5110  175.5810  144.3770 C   0  0  0  0  0  2  0  0  0  0  0  0
  195.1220  173.7900  145.3540 C   0  0  0  0  0  0  0  0  0  0  0  0
  185.6750  176.9810  145.2780 C   0  0  0  0  0  2  0  0  0  0  0  0
  189.8150  174.8190  142.0570 C   0  0  0  0  0  2  0  0  0  0  0  0
  189.0140  175.3180  144.3560 C   0  0  2  0  0  3  0  0  0  0  0  0
  189.3260  174.1790  143.3630 C   0  0  2  0  0  3  0  0  0  0  0  0
  191.4360  173.8920  144.4920 C   0  0  2  0  0  3  0  0  0  0  0  0
  195.6130  174.8720  146.0720 C   0  0  0  0  0  3  0  0  0  0  0  0
  186.0090  177.3620  147.9540 O   0  0  0  0  0  0  0  0  0  0  0  0
  187.1790  176.7290  145.3250 C   0  0  1  0  0  3  0  0  0  0  0  0
  194.5910  175.6100  146.4700 O   0  0  0  0  0  0  0  0  0  0  0  0
  187.3320  177.4630  147.6720 N   0  0  0  0  0  2  0  0  0  0  0  0
  185.3440  178.3730  145.8180 C   0  0  1  0  0  3  0  0  0  0  0  0
  190.6680  172.1890  142.8870 C   0  0  0  0  0  2  0  0  0  0  0  0
  190.2880  173.1850  143.9060 N   0  0  2  0  0  0  0  0  0  0  0  0
  192.7010  173.0340  144.7190 C   0  0  0  0  0  2  0  0  0  0  0  0
  189.1560  176.1410  146.7620 C   0  0  0  0  0  2  0  0  0  0  0  0
  191.8800  176.6180  146.8380 O   0  0  0  0  0  0  0  0  0  0  0  0
  195.9310  172.7090  144.7290 C   0  0  0  0  0  1  0  0  0  0  0  0
  191.0090  174.5760  145.8090 C   0  0  2  0  0  3  0  0  0  0  0  0
  193.7550  173.9170  145.3300 C   0  0  0  0  0  0  0  0  0  0  0  0
  184.0240  178.7770  145.3630 N   0  0  0  0  0  2  0  0  0  0  0  0
  184.1860  179.4510  144.0850 C   0  0  0  0  0  3  0  0  0  0  0  0
  185.5800  180.0360  143.9970 C   0  0  0  0  0  1  0  0  0  0  0  0
  183.9880  178.4600  142.9540 C   0  0  0  0  0  1  0  0  0  0  0  0
  1 16  1  0  0  0  0
  2 27  1  0  0  0  0
  2 24  1  1  0  0  0
  3  4  1  0  0  0  0
  3 11  1  0  0  0  0
  4 21  1  0  0  0  0
  5 25  2  0  0  0  0
  6  5  1  0  0  0  0
  6 18  1  0  0  0  0
  7 24  1  6  0  0  0
  7 19  1  0  0  0  0
  9 15  2  0  0  0  0
 10 17  1  0  0  0  0
 10 20  1  0  0  0  0
 12  8  1  1  0  0  0
 12  2  1  0  0  0  0
 13 11  1  6  0  0  0
 13 22  1  0  0  0  0
 13 12  1  0  0  0  0
 14 23  1  1  0  0  0
 14 27  1  0  0  0  0
 15 18  1  0  0  0  0
 17  8  1  6  0  0  0
 17  7  1  0  0  0  0
 19 16  1  0  0  0  0
 20 29  1  1  0  0  0
 20  1  1  0  0  0  0
 22 21  1  6  0  0  0
 22 14  1  0  0  0  0
 23 28  1  0  0  0  0
 26  9  1  0  0  0  0
 27  5  1  6  0  0  0
 28  9  1  0  0  0  0
 28  6  2  0  0  0  0
 30 29  1  0  0  0  0
 31 30  1  0  0  0  0
 32 30  1  0  0  0  0
M  END
>  <MODEL>
2

>  <REMARK>
 VINA RESULT:      -8.5      2.353      8.285
  Name = 
  2 active torsions:
  status: ('A' for Active; 'I' for Inactive)
    1  A    between atoms: C_20  and  N_29
    2  A    between atoms: N_29  and  C_30
                            x       y       z     vdW  Elec       q    Type
                         _______ _______ _______ _____ _____    ______ ____

>  <TORSDO>
F 2

$$$$
=
 OpenBabel11112416373D

 32 37  0  0  1  0  0  0  0  0999 V2000
  185.3580  177.1370  143.2360 C   0  0  0  0  0  2  0  0  0  0  0  0
  190.6060  175.1960  143.3770 C   0  0  2  0  0  3  0  0  0  0  0  0
  193.8100  176.6610  146.8580 C   0  0  0  0  0  2  0  0  0  0  0  0
  194.7900  175.8490  146.0350 C   0  0  0  0  0  2  0  0  0  0  0  0
  191.2000  172.6040  143.5440 C   0  0  0  0  0  0  0  0  0  0  0  0
  192.2860  171.6240  143.6690 C   0  0  0  0  0  0  0  0  0  0  0  0
  188.2870  176.0730  142.9820 C   0  0  2  0  0  3  0  0  0  0  0  0
  189.8110  177.2560  144.5840 C   0  0  0  0  0  2  0  0  0  0  0  0
  194.3160  170.8360  143.8340 C   0  0  0  0  0  0  0  0  0  0  0  0
  187.4990  178.1000  144.2840 C   0  0  0  0  0  2  0  0  0  0  0  0
  192.3970  176.2590  146.4780 C   0  0  0  0  0  2  0  0  0  0  0  0
  190.7140  176.0290  144.6640 C   0  0  2  0  0  3  0  0  0  0  0  0
  192.1590  176.4710  144.9780 C   0  0  2  0  0  3  0  0  0  0  0  0
  192.8980  174.3340  144.1430 C   0  0  2  0  0  3  0  0  0  0  0  0
  193.3930  169.7990  143.8310 C   0  0  0  0  0  3  0  0  0  0  0  0
  186.2770  176.7840  142.2350 O   0  0  0  0  0  0  0  0  0  0  0  0
  188.3680  176.8450  144.3110 C   0  0  1  0  0  3  0  0  0  0  0  0
  192.1810  170.3170  143.7310 O   0  0  0  0  0  0  0  0  0  0  0  0
  186.9140  175.6800  142.6990 N   0  0  0  0  0  2  0  0  0  0  0  0
  186.0270  177.7410  144.4820 C   0  0  1  0  0  3  0  0  0  0  0  0
  194.5430  176.1200  144.5530 C   0  0  0  0  0  2  0  0  0  0  0  0
  193.1700  175.7790  144.1370 N   0  0  2  0  0  0  0  0  0  0  0  0
  194.0660  173.4340  143.6800 C   0  0  0  0  0  2  0  0  0  0  0  0
  189.1610  174.8250  143.0450 C   0  0  0  0  0  2  0  0  0  0  0  0
  189.9960  172.2410  143.5740 O   0  0  0  0  0  0  0  0  0  0  0  0
  195.7950  170.6980  143.9270 C   0  0  0  0  0  1  0  0  0  0  0  0
  191.6320  174.0390  143.3090 C   0  0  2  0  0  3  0  0  0  0  0  0
  193.6020  172.0050  143.7420 C   0  0  0  0  0  0  0  0  0  0  0  0
  185.2840  178.9180  144.9030 N   0  0  0  0  0  2  0  0  0  0  0  0
  184.8320  178.6900  146.2660 C   0  0  0  0  0  3  0  0  0  0  0  0
  184.6950  177.2010  146.5080 C   0  0  0  0  0  1  0  0  0  0  0  0
  185.8400  179.2630  147.2430 C   0  0  0  0  0  1  0  0  0  0  0  0
  1 20  1  0  0  0  0
  2 24  1  1  0  0  0
  2 12  1  0  0  0  0
  4  3  1  0  0  0  0
  5 25  2  0  0  0  0
  5  6  1  0  0  0  0
  6 18  1  0  0  0  0
  6 28  2  0  0  0  0
  7 24  1  1  0  0  0
  7 17  1  0  0  0  0
  9 26  1  0  0  0  0
 10 20  1  0  0  0  0
 11  3  1  0  0  0  0
 12  8  1  6  0  0  0
 12 13  1  0  0  0  0
 13 11  1  1  0  0  0
 14 23  1  6  0  0  0
 15  9  2  0  0  0  0
 16 19  1  0  0  0  0
 16  1  1  0  0  0  0
 17 10  1  6  0  0  0
 17  8  1  0  0  0  0
 18 15  1  0  0  0  0
 19  7  1  0  0  0  0
 20 29  1  6  0  0  0
 21  4  1  0  0  0  0
 22 14  1  0  0  0  0
 22 21  1  1  0  0  0
 22 13  1  0  0  0  0
 23 28  1  0  0  0  0
 27  2  1  0  0  0  0
 27  5  1  1  0  0  0
 27 14  1  0  0  0  0
 28  9  1  0  0  0  0
 29 30  1  0  0  0  0
 30 31  1  0  0  0  0
 30 32  1  0  0  0  0
M  END
>  <MODEL>
3

>  <REMARK>
 VINA RESULT:      -8.4      2.608      8.738
  Name = 
  2 active torsions:
  status: ('A' for Active; 'I' for Inactive)
    1  A    between atoms: C_20  and  N_29
    2  A    between atoms: N_29  and  C_30
                            x       y       z     vdW  Elec       q    Type
                         _______ _______ _______ _____ _____    ______ ____

>  <TORSDO>
F 2

$$$$
=
 OpenBabel11112416373D

 32 37  0  0  1  0  0  0  0  0999 V2000
  184.8470  177.8840  142.9630 C   0  0  0  0  0  2  0  0  0  0  0  0
  190.1470  176.0940  142.7730 C   0  0  2  0  0  3  0  0  0  0  0  0
  193.0410  176.1560  146.7920 C   0  0  0  0  0  2  0  0  0  0  0  0
  194.1070  175.7300  145.8040 C   0  0  0  0  0  2  0  0  0  0  0  0
  190.8330  173.6400  141.9920 C   0  0  0  0  0  0  0  0  0  0  0  0
  191.9460  172.6990  141.8210 C   0  0  0  0  0  0  0  0  0  0  0  0
  187.8270  177.0300  142.5580 C   0  0  2  0  0  3  0  0  0  0  0  0
  189.1870  177.5290  144.6050 C   0  0  0  0  0  2  0  0  0  0  0  0
  193.9900  171.9300  141.8360 C   0  0  0  0  0  0  0  0  0  0  0  0
  186.8700  178.3980  144.4640 C   0  0  0  0  0  2  0  0  0  0  0  0
  191.6740  175.9140  146.1780 C   0  0  0  0  0  2  0  0  0  0  0  0
  190.1310  176.3740  144.2850 C   0  0  2  0  0  3  0  0  0  0  0  0
  191.5320  176.6790  144.8570 C   0  0  2  0  0  3  0  0  0  0  0  0
  192.4130  175.0300  143.3350 C   0  0  2  0  0  3  0  0  0  0  0  0
  193.1120  170.9630  141.3670 C   0  0  0  0  0  3  0  0  0  0  0  0
  185.8460  177.9490  141.9800 O   0  0  0  0  0  0  0  0  0  0  0  0
  187.7840  177.2370  144.0830 C   0  0  1  0  0  3  0  0  0  0  0  0
  191.8900  171.4660  141.3740 O   0  0  0  0  0  0  0  0  0  0  0  0
  186.4940  176.7590  142.0390 N   0  0  0  0  0  2  0  0  0  0  0  0
  185.4030  177.9740  144.3940 C   0  0  1  0  0  3  0  0  0  0  0  0
  193.9530  176.5430  144.5210 C   0  0  0  0  0  2  0  0  0  0  0  0
  192.6270  176.3710  143.8990 N   0  0  2  0  0  0  0  0  0  0  0  0
  193.6460  174.3870  142.6600 C   0  0  0  0  0  2  0  0  0  0  0  0
  188.7450  175.8610  142.2120 C   0  0  0  0  0  2  0  0  0  0  0  0
  189.6440  173.2800  141.7860 O   0  0  0  0  0  0  0  0  0  0  0  0
  195.4630  171.7840  141.9870 C   0  0  0  0  0  1  0  0  0  0  0  0
  191.2210  175.0620  142.3530 C   0  0  2  0  0  3  0  0  0  0  0  0
  193.2370  173.0380  142.1370 C   0  0  0  0  0  0  0  0  0  0  0  0
  184.5860  178.8940  145.1700 N   0  0  0  0  0  2  0  0  0  0  0  0
  184.4970  178.3690  146.5230 C   0  0  0  0  0  3  0  0  0  0  0  0
  184.8440  176.8950  146.5160 C   0  0  0  0  0  1  0  0  0  0  0  0
  185.4700  179.1060  147.4230 C   0  0  0  0  0  1  0  0  0  0  0  0
  1 20  1  0  0  0  0
  2 24  1  1  0  0  0
  2 12  1  0  0  0  0
  4  3  1  0  0  0  0
  6  5  1  0  0  0  0
  6 28  2  0  0  0  0
  7 24  1  1  0  0  0
  7 17  1  0  0  0  0
  9 26  1  0  0  0  0
  9 28  1  0  0  0  0
 11  3  1  0  0  0  0
 12  8  1  6  0  0  0
 12 13  1  0  0  0  0
 13 11  1  1  0  0  0
 14 23  1  6  0  0  0
 14 22  1  0  0  0  0
 15 18  1  0  0  0  0
 15  9  2  0  0  0  0
 16 19  1  0  0  0  0
 16  1  1  0  0  0  0
 17 10  1  6  0  0  0
 17  8  1  0  0  0  0
 18  6  1  0  0  0  0
 19  7  1  0  0  0  0
 20 10  1  0  0  0  0
 20 29  1  1  0  0  0
 21  4  1  0  0  0  0
 22 21  1  1  0  0  0
 22 13  1  0  0  0  0
 25  5  2  0  0  0  0
 27  5  1  1  0  0  0
 27  2  1  0  0  0  0
 27 14  1  0  0  0  0
 28 23  1  0  0  0  0
 29 30  1  0  0  0  0
 30 32  1  0  0  0  0
 31 30  1  0  0  0  0
M  END
>  <MODEL>
4

>  <REMARK>
 VINA RESULT:      -8.2      2.871      8.770
  Name = 
  2 active torsions:
  status: ('A' for Active; 'I' for Inactive)
    1  A    between atoms: C_20  and  N_29
    2  A    between atoms: N_29  and  C_30
                            x       y       z     vdW  Elec       q    Type
                         _______ _______ _______ _____ _____    ______ ____

>  <TORSDO>
F 2

$$$$
=
 OpenBabel11112416373D

 32 37  0  0  1  0  0  0  0  0999 V2000
  190.4720  173.0720  137.8880 C   0  0  0  0  0  2  0  0  0  0  0  0
  188.6100  175.0570  142.7780 C   0  0  2  0  0  3  0  0  0  0  0  0
  191.7270  176.2390  146.4420 C   0  0  0  0  0  2  0  0  0  0  0  0
  190.4420  176.4480  147.2180 C   0  0  0  0  0  2  0  0  0  0  0  0
  187.1110  177.2500  142.9890 C   0  0  0  0  0  0  0  0  0  0  0  0
  186.4580  178.1760  143.9220 C   0  0  0  0  0  0  0  0  0  0  0  0
  189.1820  173.9620  140.5930 C   0  0  2  0  0  3  0  0  0  0  0  0
  190.9110  174.1070  142.4030 C   0  0  0  0  0  2  0  0  0  0  0  0
  185.8030  179.0410  145.8180 C   0  0  0  0  0  0  0  0  0  0  0  0
  191.5360  173.0970  140.2280 C   0  0  0  0  0  2  0  0  0  0  0  0
  191.4100  176.2270  144.9580 C   0  0  0  0  0  2  0  0  0  0  0  0
  190.1050  175.1890  143.1160 C   0  0  2  0  0  3  0  0  0  0  0  0
  190.3890  175.1310  144.6320 C   0  0  2  0  0  3  0  0  0  0  0  0
  188.3460  176.3640  144.9710 C   0  0  2  0  0  3  0  0  0  0  0  0
  185.3300  179.7940  144.7520 C   0  0  0  0  0  3  0  0  0  0  0  0
  189.3290  172.8060  138.6570 O   0  0  0  0  0  0  0  0  0  0  0  0
  190.6770  174.1660  140.8970 C   0  0  1  0  0  3  0  0  0  0  0  0
  185.7480  179.2400  143.6280 O   0  0  0  0  0  0  0  0  0  0  0  0
  188.9400  174.0050  139.1570 N   0  0  0  0  0  2  0  0  0  0  0  0
  191.7100  173.3990  138.7390 C   0  0  1  0  0  3  0  0  0  0  0  0
  189.4720  175.3150  146.8930 C   0  0  0  0  0  2  0  0  0  0  0  0
  189.1550  175.2370  145.4550 N   0  0  2  0  0  0  0  0  0  0  0  0
  187.2630  176.8760  145.9480 C   0  0  0  0  0  2  0  0  0  0  0  0
  188.3540  175.0480  141.2720 C   0  0  0  0  0  2  0  0  0  0  0  0
  187.1080  177.4710  141.7500 O   0  0  0  0  0  0  0  0  0  0  0  0
  185.5640  179.3090  147.2620 C   0  0  0  0  0  1  0  0  0  0  0  0
  187.7100  176.0010  143.6100 C   0  0  2  0  0  3  0  0  0  0  0  0
  186.5360  178.0110  145.2810 C   0  0  0  0  0  0  0  0  0  0  0  0
  192.8570  172.6730  138.2190 N   0  0  0  0  0  2  0  0  0  0  0  0
  194.0370  173.4920  138.4450 C   0  0  0  0  0  3  0  0  0  0  0  0
  195.2310  172.8530  137.7700 C   0  0  0  0  0  1  0  0  0  0  0  0
  193.8180  174.8760  137.8650 C   0  0  0  0  0  1  0  0  0  0  0  0
  1 16  1  0  0  0  0
  1 20  1  0  0  0  0
  2 24  1  6  0  0  0
  2 12  1  0  0  0  0
  2 27  1  0  0  0  0
  3  4  1  0  0  0  0
  5  6  1  0  0  0  0
  6 28  2  0  0  0  0
  7 17  1  0  0  0  0
  7 24  1  1  0  0  0
  9 26  1  0  0  0  0
 11  3  1  0  0  0  0
 12  8  1  6  0  0  0
 12 13  1  0  0  0  0
 13 11  1  1  0  0  0
 13 22  1  0  0  0  0
 14 22  1  0  0  0  0
 14 23  1  1  0  0  0
 15  9  2  0  0  0  0
 16 19  1  0  0  0  0
 17 10  1  6  0  0  0
 17  8  1  0  0  0  0
 18  6  1  0  0  0  0
 18 15  1  0  0  0  0
 19  7  1  0  0  0  0
 20 29  1  6  0  0  0
 20 10  1  0  0  0  0
 21  4  1  0  0  0  0
 22 21  1  1  0  0  0
 25  5  2  0  0  0  0
 27  5  1  6  0  0  0
 27 14  1  0  0  0  0
 28  9  1  0  0  0  0
 28 23  1  0  0  0  0
 29 30  1  0  0  0  0
 31 30  1  0  0  0  0
 32 30  1  0  0  0  0
M  END
>  <MODEL>
5

>  <REMARK>
 VINA RESULT:      -8.1      3.670      5.474
  Name = 
  2 active torsions:
  status: ('A' for Active; 'I' for Inactive)
    1  A    between atoms: C_20  and  N_29
    2  A    between atoms: N_29  and  C_30
                            x       y       z     vdW  Elec       q    Type
                         _______ _______ _______ _____ _____    ______ ____

>  <TORSDO>
F 2

$$$$
=
 OpenBabel11112416373D

 32 37  0  0  1  0  0  0  0  0999 V2000
  184.5700  179.0400  144.9200 C   0  0  0  0  0  2  0  0  0  0  0  0
  188.9120  175.5100  144.8290 C   0  0  2  0  0  3  0  0  0  0  0  0
  190.3310  173.2650  140.6490 C   0  0  0  0  0  2  0  0  0  0  0  0
  191.2770  172.5350  141.5800 C   0  0  0  0  0  2  0  0  0  0  0  0
  191.3670  176.1940  145.6080 C   0  0  0  0  0  0  0  0  0  0  0  0
  192.7600  175.7470  145.7290 C   0  0  0  0  0  0  0  0  0  0  0  0
  186.8880  176.9570  145.1640 C   0  0  2  0  0  3  0  0  0  0  0  0
  187.1540  175.6600  143.0350 C   0  0  0  0  0  2  0  0  0  0  0  0
  194.5000  174.4320  145.6070 C   0  0  0  0  0  0  0  0  0  0  0  0
  185.1870  177.1450  143.2960 C   0  0  0  0  0  2  0  0  0  0  0  0
  189.8180  174.5130  141.3450 C   0  0  0  0  0  2  0  0  0  0  0  0
  188.6400  175.4600  143.3170 C   0  0  2  0  0  3  0  0  0  0  0  0
  189.1190  174.1480  142.6600 C   0  0  2  0  0  3  0  0  0  0  0  0
  191.0110  174.1960  144.1530 C   0  0  2  0  0  3  0  0  0  0  0  0
  194.8580  175.6620  146.1420 C   0  0  0  0  0  3  0  0  0  0  0  0
  185.0640  178.1050  145.8420 O   0  0  0  0  0  0  0  0  0  0  0  0
  186.6620  176.9700  143.6420 C   0  0  1  0  0  3  0  0  0  0  0  0
  193.7810  176.4260  146.1970 O   0  0  0  0  0  0  0  0  0  0  0  0
  186.4160  178.1970  145.7640 N   0  0  0  0  0  2  0  0  0  0  0  0
  184.7640  178.6050  143.4580 C   0  0  1  0  0  3  0  0  0  0  0  0
  190.5300  172.1580  142.8570 C   0  0  0  0  0  2  0  0  0  0  0  0
  189.9800  173.3330  143.5580 N   0  0  2  0  0  0  0  0  0  0  0  0
  192.2230  173.4600  144.7660 C   0  0  0  0  0  2  0  0  0  0  0  0
  188.3720  176.7850  145.4750 C   0  0  0  0  0  2  0  0  0  0  0  0
  191.0420  177.3770  145.8880 O   0  0  0  0  0  0  0  0  0  0  0  0
  195.4060  173.2750  145.3730 C   0  0  0  0  0  1  0  0  0  0  0  0
  190.3650  175.1290  145.2020 C   0  0  2  0  0  3  0  0  0  0  0  0
  193.1560  174.4950  145.3330 C   0  0  0  0  0  0  0  0  0  0  0  0
  183.5370  178.8490  142.7170 N   0  0  0  0  0  2  0  0  0  0  0  0
  183.5850  178.0410  141.5080 C   0  0  0  0  0  3  0  0  0  0  0  0
  182.2030  177.9720  140.8930 C   0  0  0  0  0  1  0  0  0  0  0  0
  184.5430  178.6660  140.5120 C   0  0  0  0  0  1  0  0  0  0  0  0
  1 16  1  0  0  0  0
  2 27  1  0  0  0  0
  2 24  1  6  0  0  0
  3 11  1  0  0  0  0
  3  4  1  0  0  0  0
  4 21  1  0  0  0  0
  5  6  1  0  0  0  0
  5 25  2  0  0  0  0
  6 18  1  0  0  0  0
  7 24  1  6  0  0  0
  7 19  1  0  0  0  0
  9 15  2  0  0  0  0
 10 20  1  0  0  0  0
 10 17  1  0  0  0  0
 12  8  1  1  0  0  0
 12  2  1  0  0  0  0
 13 11  1  6  0  0  0
 13 12  1  0  0  0  0
 13 22  1  0  0  0  0
 14 23  1  1  0  0  0
 14 27  1  0  0  0  0
 15 18  1  0  0  0  0
 17  8  1  1  0  0  0
 17  7  1  0  0  0  0
 19 16  1  0  0  0  0
 20 29  1  6  0  0  0
 20  1  1  0  0  0  0
 22 21  1  6  0  0  0
 22 14  1  0  0  0  0
 23 28  1  0  0  0  0
 26  9  1  0  0  0  0
 27  5  1  6  0  0  0
 28  9  1  0  0  0  0
 28  6  2  0  0  0  0
 30 29  1  0  0  0  0
 31 30  1  0  0  0  0
 32 30  1  0  0  0  0
M  END
>  <MODEL>
6

>  <REMARK>
 VINA RESULT:      -8.1      2.536      8.399
  Name = 
  2 active torsions:
  status: ('A' for Active; 'I' for Inactive)
    1  A    between atoms: C_20  and  N_29
    2  A    between atoms: N_29  and  C_30
                            x       y       z     vdW  Elec       q    Type
                         _______ _______ _______ _____ _____    ______ ____

>  <TORSDO>
F 2

$$$$
=
 OpenBabel11112416373D

 32 37  0  0  1  0  0  0  0  0999 V2000
  185.8030  177.0160  142.3380 C   0  0  0  0  0  2  0  0  0  0  0  0
  191.1680  175.4680  142.7210 C   0  0  2  0  0  3  0  0  0  0  0  0
  193.8570  176.4420  146.7650 C   0  0  0  0  0  2  0  0  0  0  0  0
  194.9860  175.8820  145.9240 C   0  0  0  0  0  2  0  0  0  0  0  0
  191.9820  172.9440  142.4640 C   0  0  0  0  0  0  0  0  0  0  0  0
  193.1360  172.0390  142.5270 C   0  0  0  0  0  0  0  0  0  0  0  0
  188.8290  176.2370  142.2320 C   0  0  2  0  0  3  0  0  0  0  0  0
  190.0670  177.1860  144.1940 C   0  0  0  0  0  2  0  0  0  0  0  0
  195.2040  171.3820  142.7760 C   0  0  0  0  0  0  0  0  0  0  0  0
  187.7290  177.9040  143.7910 C   0  0  0  0  0  2  0  0  0  0  0  0
  192.5320  176.0220  146.1550 C   0  0  0  0  0  2  0  0  0  0  0  0
  191.0680  176.0360  144.1460 C   0  0  2  0  0  3  0  0  0  0  0  0
  192.4270  176.5090  144.7040 C   0  0  2  0  0  3  0  0  0  0  0  0
  193.4420  174.6380  143.5730 C   0  0  2  0  0  3  0  0  0  0  0  0
  194.3870  170.3030  142.4700 C   0  0  0  0  0  3  0  0  0  0  0  0
  186.8470  176.9350  141.4030 O   0  0  0  0  0  0  0  0  0  0  0  0
  188.7030  176.7350  143.6830 C   0  0  1  0  0  3  0  0  0  0  0  0
  193.1480  170.7420  142.3280 O   0  0  0  0  0  0  0  0  0  0  0  0
  187.5340  175.8100  141.7210 N   0  0  0  0  0  2  0  0  0  0  0  0
  186.2840  177.4080  143.7460 C   0  0  1  0  0  3  0  0  0  0  0  0
  194.8640  176.4220  144.5020 C   0  0  0  0  0  2  0  0  0  0  0  0
  193.5780  176.0720  143.8710 N   0  0  2  0  0  0  0  0  0  0  0  0
  194.7290  173.9340  143.0870 C   0  0  0  0  0  2  0  0  0  0  0  0
  189.8050  175.0670  142.1590 C   0  0  0  0  0  2  0  0  0  0  0  0
  190.8190  172.4960  142.2840 O   0  0  0  0  0  0  0  0  0  0  0  0
  196.6730  171.3360  143.0130 C   0  0  0  0  0  1  0  0  0  0  0  0
  192.2990  174.4250  142.5560 C   0  0  2  0  0  3  0  0  0  0  0  0
  194.3970  172.4920  142.8230 C   0  0  0  0  0  0  0  0  0  0  0  0
  185.3970  178.4220  144.2910 N   0  0  0  0  0  2  0  0  0  0  0  0
  185.3470  178.2340  145.7330 C   0  0  0  0  0  3  0  0  0  0  0  0
  184.0570  178.8150  146.2730 C   0  0  0  0  0  1  0  0  0  0  0  0
  185.4030  176.7540  146.0590 C   0  0  0  0  0  1  0  0  0  0  0  0
  1 20  1  0  0  0  0
  2 24  1  1  0  0  0
  2 12  1  0  0  0  0
  4  3  1  0  0  0  0
  5  6  1  0  0  0  0
  6 28  2  0  0  0  0
  7 24  1  1  0  0  0
  7 17  1  0  0  0  0
  9 28  1  0  0  0  0
  9 26  1  0  0  0  0
 11  3  1  0  0  0  0
 12  8  1  6  0  0  0
 12 13  1  0  0  0  0
 13 11  1  1  0  0  0
 14 23  1  6  0  0  0
 14 22  1  0  0  0  0
 15  9  2  0  0  0  0
 16 19  1  0  0  0  0
 16  1  1  0  0  0  0
 17 10  1  6  0  0  0
 17  8  1  0  0  0  0
 18 15  1  0  0  0  0
 18  6  1  0  0  0  0
 19  7  1  0  0  0  0
 20 10  1  0  0  0  0
 20 29  1  6  0  0  0
 21  4  1  0  0  0  0
 22 21  1  1  0  0  0
 22 13  1  0  0  0  0
 25  5  2  0  0  0  0
 27  5  1  1  0  0  0
 27  2  1  0  0  0  0
 27 14  1  0  0  0  0
 28 23  1  0  0  0  0
 29 30  1  0  0  0  0
 30 32  1  0  0  0  0
 30 31  1  0  0  0  0
M  END
>  <MODEL>
7

>  <REMARK>
 VINA RESULT:      -7.9      2.678      8.913
  Name = 
  2 active torsions:
  status: ('A' for Active; 'I' for Inactive)
    1  A    between atoms: C_20  and  N_29
    2  A    between atoms: N_29  and  C_30
                            x       y       z     vdW  Elec       q    Type
                         _______ _______ _______ _____ _____    ______ ____

>  <TORSDO>
F 2

$$$$
=
 OpenBabel11112416373D

 32 37  0  0  1  0  0  0  0  0999 V2000
  183.2790  178.4270  140.3890 C   0  0  0  0  0  2  0  0  0  0  0  0
  188.2260  176.8710  142.4940 C   0  0  2  0  0  3  0  0  0  0  0  0
  188.7910  175.8990  147.3180 C   0  0  0  0  0  2  0  0  0  0  0  0
  190.2520  175.7820  146.9340 C   0  0  0  0  0  2  0  0  0  0  0  0
  189.5740  174.7390  141.6350 C   0  0  0  0  0  0  0  0  0  0  0  0
  190.7640  173.9050  141.8410 C   0  0  0  0  0  0  0  0  0  0  0  0
  186.1800  177.7800  141.3580 C   0  0  2  0  0  3  0  0  0  0  0  0
  186.2970  177.7320  143.8630 C   0  0  0  0  0  2  0  0  0  0  0  0
  192.6420  173.2050  142.7090 C   0  0  0  0  0  0  0  0  0  0  0  0
  184.2280  178.5560  142.7750 C   0  0  0  0  0  2  0  0  0  0  0  0
  187.9420  175.8030  146.0630 C   0  0  0  0  0  2  0  0  0  0  0  0
  187.4450  176.7290  143.8110 C   0  0  2  0  0  3  0  0  0  0  0  0
  188.3340  176.8970  145.0610 C   0  0  2  0  0  3  0  0  0  0  0  0
  190.0800  175.7440  143.8640 C   0  0  2  0  0  3  0  0  0  0  0  0
  192.2590  172.3830  141.6580 C   0  0  0  0  0  3  0  0  0  0  0  0
  184.6040  178.7800  140.0860 O   0  0  0  0  0  0  0  0  0  0  0  0
  185.3810  177.5630  142.6550 C   0  0  1  0  0  3  0  0  0  0  0  0
  191.1210  172.8390  141.1630 O   0  0  0  0  0  0  0  0  0  0  0  0
  185.3200  177.6320  140.1930 N   0  0  0  0  0  2  0  0  0  0  0  0
  183.0590  178.1360  141.8830 C   0  0  1  0  0  3  0  0  0  0  0  0
  190.6070  176.9100  145.9690 C   0  0  0  0  0  2  0  0  0  0  0  0
  189.7870  176.8850  144.7440 N   0  0  2  0  0  0  0  0  0  0  0  0
  191.5690  175.3370  143.7760 C   0  0  0  0  0  2  0  0  0  0  0  0
  187.3200  176.7700  141.2680 C   0  0  0  0  0  2  0  0  0  0  0  0
  188.7020  174.4230  140.7850 O   0  0  0  0  0  0  0  0  0  0  0  0
  193.8650  173.0550  143.5430 C   0  0  0  0  0  1  0  0  0  0  0  0
  189.5160  176.0170  142.4520 C   0  0  2  0  0  3  0  0  0  0  0  0
  191.6750  174.1720  142.8310 C   0  0  0  0  0  0  0  0  0  0  0  0
  181.8400  178.7910  142.3260 N   0  0  0  0  0  2  0  0  0  0  0  0
  180.8540  178.6480  141.2660 C   0  0  0  0  0  3  0  0  0  0  0  0
  179.7040  177.7960  141.7610 C   0  0  0  0  0  1  0  0  0  0  0  0
  180.3270  180.0130  140.8680 C   0  0  0  0  0  1  0  0  0  0  0  0
  1 20  1  0  0  0  0
  2 24  1  6  0  0  0
  2 12  1  0  0  0  0
  4  3  1  0  0  0  0
  5  6  1  0  0  0  0
  6 28  2  0  0  0  0
  7 24  1  6  0  0  0
  7 17  1  0  0  0  0
  9 28  1  0  0  0  0
  9 26  1  0  0  0  0
 11  3  1  0  0  0  0
 12  8  1  6  0  0  0
 12 13  1  0  0  0  0
 13 11  1  1  0  0  0
 14 23  1  6  0  0  0
 14 22  1  0  0  0  0
 15  9  2  0  0  0  0
 16 19  1  0  0  0  0
 16  1  1  0  0  0  0
 17 10  1  1  0  0  0
 17  8  1  0  0  0  0
 18 15  1  0  0  0  0
 18  6  1  0  0  0  0
 19  7  1  0  0  0  0
 20 29  1  1  0  0  0
 20 10  1  0  0  0  0
 21  4  1  0  0  0  0
 22 13  1  0  0  0  0
 22 21  1  1  0  0  0
 25  5  2  0  0  0  0
 27  5  1  1  0  0  0
 27  2  1  0  0  0  0
 27 14  1  0  0  0  0
 28 23  1  0  0  0  0
 30 31  1  0  0  0  0
 30 29  1  0  0  0  0
 32 30  1  0  0  0  0
M  END
>  <MODEL>
8

>  <REMARK>
 VINA RESULT:      -7.9      3.608      9.682
  Name = 
  2 active torsions:
  status: ('A' for Active; 'I' for Inactive)
    1  A    between atoms: C_20  and  N_29
    2  A    between atoms: N_29  and  C_30
                            x       y       z     vdW  Elec       q    Type
                         _______ _______ _______ _____ _____    ______ ____

>  <TORSDO>
F 2

$$$$
=
 OpenBabel11112416373D

 32 37  0  0  1  0  0  0  0  0999 V2000
  187.0210  177.2500  146.4940 C   0  0  0  0  0  2  0  0  0  0  0  0
  191.2590  173.9190  144.9890 C   0  0  2  0  0  3  0  0  0  0  0  0
  192.2770  173.0260  140.2250 C   0  0  0  0  0  2  0  0  0  0  0  0
  193.2800  172.0540  140.8130 C   0  0  0  0  0  2  0  0  0  0  0  0
  193.7850  174.3460  145.7240 C   0  0  0  0  0  0  0  0  0  0  0  0
  195.1720  173.8860  145.5870 C   0  0  0  0  0  0  0  0  0  0  0  0
  189.3030  175.1950  145.9100 C   0  0  2  0  0  3  0  0  0  0  0  0
  189.3630  174.5930  143.4770 C   0  0  0  0  0  2  0  0  0  0  0  0
  196.8650  172.6720  144.9320 C   0  0  0  0  0  0  0  0  0  0  0  0
  187.4590  175.9270  144.3340 C   0  0  0  0  0  2  0  0  0  0  0  0
  191.8530  174.0080  141.3010 C   0  0  0  0  0  2  0  0  0  0  0  0
  190.8620  174.3220  143.5590 C   0  0  2  0  0  3  0  0  0  0  0  0
  191.2550  173.2660  142.5040 C   0  0  2  0  0  3  0  0  0  0  0  0
  193.2640  172.8720  143.7770 C   0  0  2  0  0  3  0  0  0  0  0  0
  197.2950  173.6870  145.7750 C   0  0  0  0  0  3  0  0  0  0  0  0
  187.5680  176.0840  147.0520 O   0  0  0  0  0  0  0  0  0  0  0  0
  188.9530  175.6610  144.4850 C   0  0  1  0  0  3  0  0  0  0  0  0
  196.2430  174.3970  146.1470 O   0  0  0  0  0  0  0  0  0  0  0  0
  188.9100  176.1980  146.8900 N   0  0  0  0  0  2  0  0  0  0  0  0
  187.0850  177.2720  144.9580 C   0  0  1  0  0  3  0  0  0  0  0  0
  192.6320  171.3120  141.9790 C   0  0  0  0  0  2  0  0  0  0  0  0
  192.1680  172.2230  143.0410 N   0  0  2  0  0  0  0  0  0  0  0  0
  194.5050  171.9890  144.0370 C   0  0  0  0  0  2  0  0  0  0  0  0
  190.8030  174.9420  146.0280 C   0  0  0  0  0  2  0  0  0  0  0  0
  193.5110  175.3910  146.3690 O   0  0  0  0  0  0  0  0  0  0  0  0
  197.7230  171.6390  144.2880 C   0  0  0  0  0  1  0  0  0  0  0  0
  192.7280  173.4480  145.1070 C   0  0  2  0  0  3  0  0  0  0  0  0
  195.5050  172.8100  144.8040 C   0  0  0  0  0  0  0  0  0  0  0  0
  185.8070  177.7220  144.4310 N   0  0  0  0  0  2  0  0  0  0  0  0
  185.4430  178.9400  145.1380 C   0  0  0  0  0  3  0  0  0  0  0  0
  185.5190  180.1160  144.1880 C   0  0  0  0  0  1  0  0  0  0  0  0
  184.0280  178.8190  145.6710 C   0  0  0  0  0  1  0  0  0  0  0  0
  1 16  1  0  0  0  0
  2 27  1  0  0  0  0
  2 24  1  1  0  0  0
  3  4  1  0  0  0  0
  3 11  1  0  0  0  0
  4 21  1  0  0  0  0
  5 25  2  0  0  0  0
  6  5  1  0  0  0  0
  6 18  1  0  0  0  0
  7 24  1  6  0  0  0
  7 19  1  0  0  0  0
  9 15  2  0  0  0  0
 10 17  1  0  0  0  0
 10 20  1  0  0  0  0
 12  8  1  1  0  0  0
 12  2  1  0  0  0  0
 13 11  1  6  0  0  0
 13 22  1  0  0  0  0
 13 12  1  0  0  0  0
 14 23  1  1  0  0  0
 14 27  1  0  0  0  0
 15 18  1  0  0  0  0
 17  8  1  6  0  0  0
 17  7  1  0  0  0  0
 19 16  1  0  0  0  0
 20 29  1  6  0  0  0
 20  1  1  0  0  0  0
 22 21  1  6  0  0  0
 22 14  1  0  0  0  0
 23 28  1  0  0  0  0
 26  9  1  0  0  0  0
 27  5  1  6  0  0  0
 28  9  1  0  0  0  0
 28  6  2  0  0  0  0
 29 30  1  0  0  0  0
 30 32  1  0  0  0  0
 31 30  1  0  0  0  0
M  END
>  <MODEL>
9

>  <REMARK>
 VINA RESULT:      -7.7      2.323      8.634
  Name = 
  2 active torsions:
  status: ('A' for Active; 'I' for Inactive)
    1  A    between atoms: C_20  and  N_29
    2  A    between atoms: N_29  and  C_30
                            x       y       z     vdW  Elec       q    Type
                         _______ _______ _______ _____ _____    ______ ____

>  <TORSDO>
F 2

$$$$
