=
 OpenBabel11112418033D

 34 41  0  0  1  0  0  0  0  0999 V2000
  187.9120  176.8840  146.2980 C   0  0  1  0  0  3  0  0  0  0  0  0
  189.3460  175.0220  147.1590 C   0  0  0  0  0  2  0  0  0  0  0  0
  184.6780  178.5240  141.1090 C   0  0  1  0  0  3  0  0  0  0  0  0
  186.1430  178.2150  144.9330 C   0  0  0  0  0  0  0  0  0  0  0  0
  186.6260  178.8210  142.5170 C   0  0  2  0  0  3  0  0  0  0  0  0
  186.2670  177.2750  140.4430 C   0  0  0  0  0  2  0  0  0  0  0  0
  184.9850  177.8090  139.8130 C   0  0  0  0  0  2  0  0  0  0  0  0
  183.4470  178.5680  143.3080 C   0  0  0  0  0  2  0  0  0  0  0  0
  189.3570  175.4220  144.7520 C   0  0  1  0  0  3  0  0  0  0  0  0
  192.3540  175.4720  143.5450 C   0  0  0  0  0  2  0  0  0  0  0  0
  187.9660  178.2950  142.7830 N   0  0  0  0  0  0  0  0  0  0  0  0
  184.4390  179.7010  143.6660 C   0  0  0  0  0  2  0  0  0  0  0  0
  189.5990  176.8000  144.0790 C   0  0  2  0  0  3  0  0  0  0  0  0
  190.3730  174.1030  146.5390 C   0  0  0  0  0  2  0  0  0  0  0  0
  185.9140  179.2330  143.8360 C   0  0  1  0  0  3  0  0  0  0  0  0
  183.3650  178.2250  141.8050 C   0  0  0  0  0  2  0  0  0  0  0  0
  191.9410  175.3840  145.0110 C   0  0  1  0  0  3  0  0  0  0  0  0
  187.4660  177.5610  145.0210 C   0  0  1  0  0  3  0  0  0  0  0  0
  185.7920  177.7800  141.7930 C   0  0  2  0  0  3  0  0  0  0  0  0
  188.2960  177.5560  143.9690 C   0  0  0  0  0  0  0  0  0  0  0  0
  185.4350  176.8450  146.8660 C   0  0  0  0  0  2  0  0  0  0  0  0
  191.7790  176.7120  142.8760 C   0  0  0  0  0  2  0  0  0  0  0  0
  185.2100  177.9250  145.8490 C   0  0  0  0  0  3  0  0  0  0  0  0
  190.2690  176.6220  142.7240 C   0  0  0  0  0  2  0  0  0  0  0  0
  190.6140  174.6120  145.1250 C   0  0  2  0  0  3  0  0  0  0  0  0
  186.8580  176.9120  147.4150 C   0  0  0  0  0  2  0  0  0  0  0  0
  188.4710  175.4840  146.0150 C   0  0  2  0  0  3  0  0  0  0  0  0
  192.9540  174.7270  145.7150 O   0  0  0  0  0  0  0  0  0  0  0  0
  193.5630  175.7260  146.4790 C   0  0  0  0  0  2  0  0  0  0  0  0
  195.9750  174.9490  144.0820 N   0  0  0  0  0  2  0  0  0  0  0  0
  195.0700  176.9320  145.0000 N   0  0  0  0  0  2  0  0  0  0  0  0
  195.0010  175.9150  146.0310 C   0  0  2  0  0  3  0  0  0  0  0  0
  196.0000  176.4010  144.0160 C   0  0  0  0  0  2  0  0  0  0  0  0
  195.5120  174.6330  145.4210 C   0  0  0  0  0  2  0  0  0  0  0  0
  1 26  1  1  0  0  0
  3  7  1  6  0  0  0
  3 19  1  0  0  0  0
  3 16  1  0  0  0  0
  4 18  1  0  0  0  0
  4 23  2  0  0  0  0
  5 11  1  1  0  0  0
  5 15  1  0  0  0  0
  6 19  1  0  0  0  0
  7  6  1  0  0  0  0
  8 12  1  0  0  0  0
  9 25  1  0  0  0  0
  9 27  1  0  0  0  0
 10 17  1  0  0  0  0
 11 20  2  0  0  0  0
 12 15  1  0  0  0  0
 13  9  1  0  0  0  0
 14  2  1  0  0  0  0
 15  4  1  0  0  0  0
 16  8  1  0  0  0  0
 17 25  1  0  0  0  0
 17 28  1  0  0  0  0
 18  1  1  0  0  0  0
 19  5  1  0  0  0  0
 20 13  1  0  0  0  0
 20 18  1  0  0  0  0
 21 26  1  0  0  0  0
 22 10  1  0  0  0  0
 23 21  1  0  0  0  0
 24 22  1  0  0  0  0
 24 13  1  0  0  0  0
 25 14  1  0  0  0  0
 27  1  1  0  0  0  0
 27  2  1  0  0  0  0
 28 29  1  0  0  0  0
 30 34  1  0  0  0  0
 31 32  1  0  0  0  0
 32 29  1  0  0  0  0
 33 30  1  0  0  0  0
 33 31  1  0  0  0  0
 34 32  1  0  0  0  0
M  END
>  <MODEL>
1

>  <REMARK>
 VINA RESULT:      -9.3      0.000      0.000
  Name = 
  3 active torsions:
  status: ('A' for Active; 'I' for Inactive)
    1  A    between atoms: C_17  and  O_28
    2  A    between atoms: O_28  and  C_29
    3  A    between atoms: C_29  and  C_32
                            x       y       z     vdW  Elec       q    Type
                         _______ _______ _______ _____ _____    ______ ____

>  <TORSDO>
F 3

$$$$
=
 OpenBabel11112418033D

 34 41  0  0  1  0  0  0  0  0999 V2000
  191.6540  175.8450  145.8440 C   0  0  1  0  0  3  0  0  0  0  0  0
  189.6250  177.2700  146.1810 C   0  0  0  0  0  2  0  0  0  0  0  0
  196.1550  174.7440  141.5310 C   0  0  1  0  0  3  0  0  0  0  0  0
  193.9510  174.9740  144.9880 C   0  0  0  0  0  0  0  0  0  0  0  0
  194.1300  174.0190  142.6430 C   0  0  2  0  0  3  0  0  0  0  0  0
  194.4450  175.3930  140.4450 C   0  0  0  0  0  2  0  0  0  0  0  0
  195.9210  175.2060  140.1110 C   0  0  0  0  0  2  0  0  0  0  0  0
  196.9010  175.2820  143.8780 C   0  0  0  0  0  2  0  0  0  0  0  0
  190.1900  176.6530  143.8890 C   0  0  1  0  0  3  0  0  0  0  0  0
  187.6170  175.5960  142.2480 C   0  0  0  0  0  2  0  0  0  0  0  0
  192.6730  174.1470  142.6150 N   0  0  0  0  0  0  0  0  0  0  0  0
  196.2100  173.9470  144.2400 C   0  0  0  0  0  2  0  0  0  0  0  0
  190.4730  175.2070  143.4010 C   0  0  2  0  0  3  0  0  0  0  0  0
  188.5250  177.7770  145.2780 C   0  0  0  0  0  2  0  0  0  0  0  0
  194.6590  173.9680  144.1050 C   0  0  1  0  0  3  0  0  0  0  0  0
  197.1760  175.4870  142.3720 C   0  0  0  0  0  2  0  0  0  0  0  0
  187.6960  175.9450  143.7310 C   0  0  1  0  0  3  0  0  0  0  0  0
  192.5080  175.2100  144.7690 C   0  0  2  0  0  3  0  0  0  0  0  0
  194.7700  175.1860  141.9130 C   0  0  2  0  0  3  0  0  0  0  0  0
  191.9290  174.8650  143.6110 C   0  0  0  0  0  0  0  0  0  0  0  0
  193.8670  176.6740  146.7820 C   0  0  0  0  0  2  0  0  0  0  0  0
  188.6280  174.5240  141.8700 C   0  0  0  0  0  2  0  0  0  0  0  0
  194.5720  175.6160  145.9850 C   0  0  0  0  0  3  0  0  0  0  0  0
  190.0550  175.0440  141.9450 C   0  0  0  0  0  2  0  0  0  0  0  0
  188.7120  177.0840  143.9350 C   0  0  2  0  0  3  0  0  0  0  0  0
  192.4380  176.2400  147.1040 C   0  0  0  0  0  2  0  0  0  0  0  0
  190.7980  176.9810  145.2710 C   0  0  2  0  0  3  0  0  0  0  0  0
  186.4260  176.3370  144.1610 O   0  0  0  0  0  0  0  0  0  0  0  0
  185.7740  176.7660  143.0010 C   0  0  0  0  0  2  0  0  0  0  0  0
  185.1210  179.3140  145.2930 N   0  0  0  0  0  2  0  0  0  0  0  0
  185.8040  179.1970  143.0320 N   0  0  0  0  0  2  0  0  0  0  0  0
  184.9840  178.0290  143.2900 C   0  0  2  0  0  3  0  0  0  0  0  0
  185.5260  180.0980  144.1380 C   0  0  0  0  0  2  0  0  0  0  0  0
  184.6090  178.0680  144.7510 C   0  0  0  0  0  2  0  0  0  0  0  0
  1 26  1  1  0  0  0
  3  7  1  6  0  0  0
  3 19  1  0  0  0  0
  3 16  1  0  0  0  0
  4 23  2  0  0  0  0
  5 11  1  1  0  0  0
  5 15  1  0  0  0  0
  6 19  1  0  0  0  0
  7  6  1  0  0  0  0
  8 12  1  0  0  0  0
  9 25  1  0  0  0  0
  9 27  1  0  0  0  0
 10 17  1  0  0  0  0
 11 20  2  0  0  0  0
 13 20  1  0  0  0  0
 13  9  1  0  0  0  0
 14  2  1  0  0  0  0
 15 12  1  0  0  0  0
 15  4  1  0  0  0  0
 16  8  1  0  0  0  0
 17 25  1  0  0  0  0
 17 28  1  0  0  0  0
 18  4  1  0  0  0  0
 18  1  1  0  0  0  0
 19  5  1  0  0  0  0
 20 18  1  0  0  0  0
 21 26  1  0  0  0  0
 22 24  1  0  0  0  0
 22 10  1  0  0  0  0
 23 21  1  0  0  0  0
 24 13  1  0  0  0  0
 25 14  1  0  0  0  0
 27  1  1  0  0  0  0
 27  2  1  0  0  0  0
 29 32  1  0  0  0  0
 29 28  1  0  0  0  0
 31 32  1  0  0  0  0
 31 33  1  0  0  0  0
 32 34  1  0  0  0  0
 33 30  1  0  0  0  0
 34 30  1  0  0  0  0
M  END
>  <MODEL>
2

>  <REMARK>
 VINA RESULT:      -8.9      2.395      8.376
  Name = 
  3 active torsions:
  status: ('A' for Active; 'I' for Inactive)
    1  A    between atoms: C_17  and  O_28
    2  A    between atoms: O_28  and  C_29
    3  A    between atoms: C_29  and  C_32
                            x       y       z     vdW  Elec       q    Type
                         _______ _______ _______ _____ _____    ______ ____

>  <TORSDO>
F 3

$$$$
=
 OpenBabel11112418033D

 34 41  0  0  1  0  0  0  0  0999 V2000
  186.1300  176.8050  145.6420 C   0  0  1  0  0  3  0  0  0  0  0  0
  184.2680  178.4460  145.3200 C   0  0  0  0  0  2  0  0  0  0  0  0
  192.2910  176.1340  144.3500 C   0  0  1  0  0  3  0  0  0  0  0  0
  188.5070  175.7820  145.9060 C   0  0  0  0  0  0  0  0  0  0  0  0
  189.9950  175.5360  143.8650 C   0  0  2  0  0  3  0  0  0  0  0  0
  191.5040  177.3990  142.8310 C   0  0  0  0  0  2  0  0  0  0  0  0
  192.9080  177.0270  143.2980 C   0  0  0  0  0  2  0  0  0  0  0  0
  191.5620  175.8040  146.7400 C   0  0  0  0  0  2  0  0  0  0  0  0
  186.0420  178.4230  143.6450 C   0  0  1  0  0  3  0  0  0  0  0  0
  184.8680  178.4270  140.6350 C   0  0  0  0  0  2  0  0  0  0  0  0
  188.8140  175.9540  143.1080 N   0  0  0  0  0  0  0  0  0  0  0  0
  190.7910  174.5870  146.1770 C   0  0  0  0  0  2  0  0  0  0  0  0
  186.5560  177.1570  142.9090 C   0  0  2  0  0  3  0  0  0  0  0  0
  183.8790  179.4030  144.2170 C   0  0  0  0  0  2  0  0  0  0  0  0
  189.5940  174.9570  145.2510 C   0  0  1  0  0  3  0  0  0  0  0  0
  192.6460  176.3800  145.8030 C   0  0  0  0  0  2  0  0  0  0  0  0
  184.0870  178.3060  141.9390 C   0  0  1  0  0  3  0  0  0  0  0  0
  187.4460  176.3540  145.0490 C   0  0  2  0  0  3  0  0  0  0  0  0
  190.9340  176.7120  144.0580 C   0  0  2  0  0  3  0  0  0  0  0  0
  187.6330  176.4850  143.7290 C   0  0  0  0  0  0  0  0  0  0  0  0
  187.4090  176.8660  147.8380 C   0  0  0  0  0  2  0  0  0  0  0  0
  185.9170  177.3330  140.5070 C   0  0  0  0  0  2  0  0  0  0  0  0
  188.4460  175.9680  147.2300 C   0  0  0  0  0  3  0  0  0  0  0  0
  187.0440  177.5120  141.5120 C   0  0  0  0  0  2  0  0  0  0  0  0
  184.8010  179.1090  143.0420 C   0  0  2  0  0  3  0  0  0  0  0  0
  186.0540  176.6510  147.1690 C   0  0  0  0  0  2  0  0  0  0  0  0
  185.7510  178.2060  145.1460 C   0  0  2  0  0  3  0  0  0  0  0  0
  182.7960  178.8010  141.7280 O   0  0  0  0  0  0  0  0  0  0  0  0
  182.2540  177.9710  140.7430 C   0  0  0  0  0  2  0  0  0  0  0  0
  179.2000  178.9550  142.1130 N   0  0  0  0  0  2  0  0  0  0  0  0
  180.6920  179.8180  140.4930 N   0  0  0  0  0  2  0  0  0  0  0  0
  180.8180  178.3740  140.4610 C   0  0  2  0  0  3  0  0  0  0  0  0
  179.4530  180.0680  141.2110 C   0  0  0  0  0  2  0  0  0  0  0  0
  179.9200  177.8300  141.5440 C   0  0  0  0  0  2  0  0  0  0  0  0
  1 26  1  1  0  0  0
  3  7  1  6  0  0  0
  3 16  1  0  0  0  0
  4 23  2  0  0  0  0
  5 11  1  1  0  0  0
  5 19  1  0  0  0  0
  5 15  1  0  0  0  0
  6  7  1  0  0  0  0
  6 19  1  0  0  0  0
  9 27  1  0  0  0  0
 10 17  1  0  0  0  0
 11 20  2  0  0  0  0
 12  8  1  0  0  0  0
 13  9  1  0  0  0  0
 13 20  1  0  0  0  0
 14  2  1  0  0  0  0
 15  4  1  0  0  0  0
 15 12  1  0  0  0  0
 16  8  1  0  0  0  0
 17 25  1  0  0  0  0
 18  1  1  0  0  0  0
 18  4  1  0  0  0  0
 19  3  1  0  0  0  0
 20 18  1  0  0  0  0
 22 10  1  0  0  0  0
 22 24  1  0  0  0  0
 23 21  1  0  0  0  0
 24 13  1  0  0  0  0
 25  9  1  0  0  0  0
 25 14  1  0  0  0  0
 26 21  1  0  0  0  0
 27  2  1  0  0  0  0
 27  1  1  0  0  0  0
 28 17  1  0  0  0  0
 29 28  1  0  0  0  0
 31 33  1  0  0  0  0
 32 31  1  0  0  0  0
 32 29  1  0  0  0  0
 32 34  1  0  0  0  0
 33 30  1  0  0  0  0
 34 30  1  0  0  0  0
M  END
>  <MODEL>
3

>  <REMARK>
 VINA RESULT:      -8.7      3.213      8.833
  Name = 
  3 active torsions:
  status: ('A' for Active; 'I' for Inactive)
    1  A    between atoms: C_17  and  O_28
    2  A    between atoms: O_28  and  C_29
    3  A    between atoms: C_29  and  C_32
                            x       y       z     vdW  Elec       q    Type
                         _______ _______ _______ _____ _____    ______ ____

>  <TORSDO>
F 3

$$$$
=
 OpenBabel11112418033D

 34 41  0  0  1  0  0  0  0  0999 V2000
  191.9080  175.8880  145.7110 C   0  0  1  0  0  3  0  0  0  0  0  0
  190.0560  177.5350  145.3580 C   0  0  0  0  0  2  0  0  0  0  0  0
  196.7320  173.2550  142.5690 C   0  0  1  0  0  3  0  0  0  0  0  0
  194.1600  174.6100  145.4700 C   0  0  0  0  0  0  0  0  0  0  0  0
  194.5060  173.0480  143.5000 C   0  0  2  0  0  3  0  0  0  0  0  0
  195.2710  173.7450  141.1030 C   0  0  0  0  0  2  0  0  0  0  0  0
  196.7400  173.3390  141.0600 C   0  0  0  0  0  2  0  0  0  0  0  0
  197.2410  174.3320  144.7900 C   0  0  0  0  0  2  0  0  0  0  0  0
  190.8190  176.2740  143.4130 C   0  0  1  0  0  3  0  0  0  0  0  0
  188.3550  175.0590  141.7120 C   0  0  0  0  0  2  0  0  0  0  0  0
  193.0930  173.2980  143.2140 N   0  0  0  0  0  0  0  0  0  0  0  0
  196.3410  173.2140  145.3660 C   0  0  0  0  0  2  0  0  0  0  0  0
  190.9690  174.7300  143.3550 C   0  0  2  0  0  3  0  0  0  0  0  0
  189.1540  177.8800  144.1960 C   0  0  0  0  0  2  0  0  0  0  0  0
  194.8360  173.3420  144.9910 C   0  0  1  0  0  3  0  0  0  0  0  0
  197.7270  174.0980  143.3430 C   0  0  0  0  0  2  0  0  0  0  0  0
  188.2940  175.7850  143.0530 C   0  0  1  0  0  3  0  0  0  0  0  0
  192.7990  174.9110  144.9770 C   0  0  2  0  0  3  0  0  0  0  0  0
  195.3790  173.9100  142.6070 C   0  0  2  0  0  3  0  0  0  0  0  0
  192.3300  174.3230  143.8680 C   0  0  0  0  0  0  0  0  0  0  0  0
  194.0750  176.7300  146.7400 C   0  0  0  0  0  2  0  0  0  0  0  0
  189.2580  173.8360  141.7790 C   0  0  0  0  0  2  0  0  0  0  0  0
  194.7300  175.4360  146.3560 C   0  0  0  0  0  3  0  0  0  0  0  0
  190.7190  174.2220  141.9420 C   0  0  0  0  0  2  0  0  0  0  0  0
  189.4160  176.8370  143.1180 C   0  0  2  0  0  3  0  0  0  0  0  0
  192.5730  176.5330  146.9360 C   0  0  0  0  0  2  0  0  0  0  0  0
  191.2860  176.9030  144.7430 C   0  0  2  0  0  3  0  0  0  0  0  0
  187.0410  176.3940  143.1670 O   0  0  0  0  0  0  0  0  0  0  0  0
  186.7190  176.7930  141.8670 C   0  0  0  0  0  2  0  0  0  0  0  0
  183.8330  178.2910  140.6030 N   0  0  0  0  0  2  0  0  0  0  0  0
  184.6580  177.7330  142.7490 N   0  0  0  0  0  2  0  0  0  0  0  0
  185.8070  178.0050  141.9090 C   0  0  2  0  0  3  0  0  0  0  0  0
  183.5270  178.2910  142.0250 C   0  0  0  0  0  2  0  0  0  0  0  0
  185.2830  178.2900  140.5230 C   0  0  0  0  0  2  0  0  0  0  0  0
  1 26  1  1  0  0  0
  3  7  1  6  0  0  0
  3 19  1  0  0  0  0
  3 16  1  0  0  0  0
  4 23  2  0  0  0  0
  5 11  1  1  0  0  0
  5 15  1  0  0  0  0
  6 19  1  0  0  0  0
  7  6  1  0  0  0  0
  8 12  1  0  0  0  0
  9 27  1  0  0  0  0
 10 22  1  0  0  0  0
 10 17  1  0  0  0  0
 11 20  2  0  0  0  0
 13  9  1  0  0  0  0
 13 20  1  0  0  0  0
 14  2  1  0  0  0  0
 15 12  1  0  0  0  0
 15  4  1  0  0  0  0
 16  8  1  0  0  0  0
 17 25  1  0  0  0  0
 17 28  1  0  0  0  0
 18  4  1  0  0  0  0
 18  1  1  0  0  0  0
 19  5  1  0  0  0  0
 20 18  1  0  0  0  0
 21 26  1  0  0  0  0
 22 24  1  0  0  0  0
 23 21  1  0  0  0  0
 24 13  1  0  0  0  0
 25  9  1  0  0  0  0
 25 14  1  0  0  0  0
 27  2  1  0  0  0  0
 27  1  1  0  0  0  0
 29 32  1  0  0  0  0
 29 28  1  0  0  0  0
 30 33  1  0  0  0  0
 32 31  1  0  0  0  0
 33 31  1  0  0  0  0
 34 30  1  0  0  0  0
 34 32  1  0  0  0  0
M  END
>  <MODEL>
4

>  <REMARK>
 VINA RESULT:      -8.4      2.565      8.940
  Name = 
  3 active torsions:
  status: ('A' for Active; 'I' for Inactive)
    1  A    between atoms: C_17  and  O_28
    2  A    between atoms: O_28  and  C_29
    3  A    between atoms: C_29  and  C_32
                            x       y       z     vdW  Elec       q    Type
                         _______ _______ _______ _____ _____    ______ ____

>  <TORSDO>
F 3

$$$$
=
 OpenBabel11112418033D

 34 41  0  0  1  0  0  0  0  0999 V2000
  189.6190  175.7880  146.1330 C   0  0  1  0  0  3  0  0  0  0  0  0
  187.6740  177.3630  146.0860 C   0  0  0  0  0  2  0  0  0  0  0  0
  195.2820  174.9810  143.4200 C   0  0  1  0  0  3  0  0  0  0  0  0
  192.0240  174.8200  145.9140 C   0  0  0  0  0  0  0  0  0  0  0  0
  192.9620  174.3130  143.6120 C   0  0  2  0  0  3  0  0  0  0  0  0
  194.0930  176.0290  142.0020 C   0  0  0  0  0  2  0  0  0  0  0  0
  195.5820  175.7290  142.1410 C   0  0  0  0  0  2  0  0  0  0  0  0
  195.1870  174.9680  145.9390 C   0  0  0  0  0  2  0  0  0  0  0  0
  188.9730  177.1260  144.0330 C   0  0  1  0  0  3  0  0  0  0  0  0
  187.0840  176.7250  141.4430 C   0  0  0  0  0  2  0  0  0  0  0  0
  191.6150  174.6220  143.1310 N   0  0  0  0  0  0  0  0  0  0  0  0
  194.3470  173.6830  145.7480 C   0  0  0  0  0  2  0  0  0  0  0  0
  189.3350  175.7760  143.3590 C   0  0  2  0  0  3  0  0  0  0  0  0
  186.9860  178.1630  145.0050 C   0  0  0  0  0  2  0  0  0  0  0  0
  192.9440  173.9210  145.1170 C   0  0  1  0  0  3  0  0  0  0  0  0
  195.9800  175.4190  144.6930 C   0  0  0  0  0  2  0  0  0  0  0  0
  186.6590  176.7740  142.9070 C   0  0  1  0  0  3  0  0  0  0  0  0
  190.7620  175.2690  145.2880 C   0  0  1  0  0  3  0  0  0  0  0  0
  193.8740  175.5090  143.4100 C   0  0  2  0  0  3  0  0  0  0  0  0
  190.6070  175.2240  143.9580 C   0  0  0  0  0  0  0  0  0  0  0  0
  191.4040  176.1460  147.9070 C   0  0  0  0  0  2  0  0  0  0  0  0
  188.1090  175.6280  141.1940 C   0  0  0  0  0  2  0  0  0  0  0  0
  192.2890  175.1800  147.1760 C   0  0  0  0  0  3  0  0  0  0  0  0
  189.4440  175.9450  141.8500 C   0  0  0  0  0  2  0  0  0  0  0  0
  187.5950  177.7200  143.6820 C   0  0  2  0  0  3  0  0  0  0  0  0
  189.9330  175.8380  147.6360 C   0  0  0  0  0  2  0  0  0  0  0  0
  189.0750  177.1090  145.5740 C   0  0  2  0  0  3  0  0  0  0  0  0
  185.3390  177.2300  142.9680 O   0  0  0  0  0  0  0  0  0  0  0  0
  185.0080  177.5410  141.6460 C   0  0  0  0  0  2  0  0  0  0  0  0
  181.6250  178.2020  141.1130 N   0  0  0  0  0  2  0  0  0  0  0  0
  183.1730  178.5720  142.8620 N   0  0  0  0  0  2  0  0  0  0  0  0
  183.9200  178.5980  141.6200 C   0  0  2  0  0  3  0  0  0  0  0  0
  181.7830  178.7180  142.4630 C   0  0  0  0  0  2  0  0  0  0  0  0
  182.9440  178.2910  140.5120 C   0  0  0  0  0  2  0  0  0  0  0  0
  1 26  1  1  0  0  0
  3  7  1  6  0  0  0
  3 16  1  0  0  0  0
  4 23  2  0  0  0  0
  5 11  1  1  0  0  0
  5 15  1  0  0  0  0
  6  7  1  0  0  0  0
  6 19  1  0  0  0  0
  9 27  1  0  0  0  0
 10 17  1  0  0  0  0
 11 20  2  0  0  0  0
 12  8  1  0  0  0  0
 13 20  1  0  0  0  0
 13  9  1  0  0  0  0
 14  2  1  0  0  0  0
 15 12  1  0  0  0  0
 15  4  1  0  0  0  0
 16  8  1  0  0  0  0
 17 28  1  0  0  0  0
 17 25  1  0  0  0  0
 18  4  1  0  0  0  0
 18  1  1  0  0  0  0
 19  3  1  0  0  0  0
 19  5  1  0  0  0  0
 20 18  1  0  0  0  0
 22 10  1  0  0  0  0
 22 24  1  0  0  0  0
 23 21  1  0  0  0  0
 24 13  1  0  0  0  0
 25  9  1  0  0  0  0
 25 14  1  0  0  0  0
 26 21  1  0  0  0  0
 27  2  1  0  0  0  0
 27  1  1  0  0  0  0
 29 28  1  0  0  0  0
 30 33  1  0  0  0  0
 32 29  1  0  0  0  0
 32 31  1  0  0  0  0
 33 31  1  0  0  0  0
 34 30  1  0  0  0  0
 34 32  1  0  0  0  0
M  END
>  <MODEL>
5

>  <REMARK>
 VINA RESULT:      -8.2      2.555      8.528
  Name = 
  3 active torsions:
  status: ('A' for Active; 'I' for Inactive)
    1  A    between atoms: C_17  and  O_28
    2  A    between atoms: O_28  and  C_29
    3  A    between atoms: C_29  and  C_32
                            x       y       z     vdW  Elec       q    Type
                         _______ _______ _______ _____ _____    ______ ____

>  <TORSDO>
F 3

$$$$
=
 OpenBabel11112418033D

 34 41  0  0  1  0  0  0  0  0999 V2000
  189.2890  175.6370  143.2080 C   0  0  1  0  0  3  0  0  0  0  0  0
  191.5930  175.6560  142.2320 C   0  0  0  0  0  2  0  0  0  0  0  0
  185.7600  178.8140  147.3950 C   0  0  1  0  0  3  0  0  0  0  0  0
  187.0770  176.4020  144.3430 C   0  0  0  0  0  0  0  0  0  0  0  0
  187.0410  176.8340  146.8440 C   0  0  2  0  0  3  0  0  0  0  0  0
  187.7770  179.0390  148.0330 C   0  0  0  0  0  2  0  0  0  0  0  0
  186.4580  179.7160  148.3880 C   0  0  0  0  0  2  0  0  0  0  0  0
  184.8050  178.4800  145.0870 C   0  0  0  0  0  2  0  0  0  0  0  0
  191.3350  176.4950  144.5080 C   0  0  1  0  0  3  0  0  0  0  0  0
  193.5640  175.2830  146.5080 C   0  0  0  0  0  2  0  0  0  0  0  0
  188.3980  176.2870  146.8320 N   0  0  0  0  0  2  0  0  0  0  0  0
  184.8140  176.9800  145.4660 C   0  0  0  0  0  2  0  0  0  0  0  0
  190.6140  175.7420  145.6590 C   0  0  2  0  0  3  0  0  0  0  0  0
  192.9700  175.9630  142.7740 C   0  0  0  0  0  2  0  0  0  0  0  0
  186.2350  176.3600  145.6010 C   0  0  1  0  0  3  0  0  0  0  0  0
  184.9640  179.4540  146.2740 C   0  0  0  0  0  2  0  0  0  0  0  0
  193.3130  174.9020  145.0520 C   0  0  1  0  0  3  0  0  0  0  0  0
  188.5050  176.0320  144.4400 C   0  0  0  0  0  0  0  0  0  0  0  0
  187.0900  178.3510  146.8680 C   0  0  2  0  0  3  0  0  0  0  0  0
  189.1340  176.0410  145.6230 C   0  0  0  0  0  0  0  0  0  0  0  0
  187.4430  176.8370  141.9370 C   0  0  0  0  0  2  0  0  0  0  0  0
  192.3170  175.0940  147.3590 C   0  0  0  0  0  2  0  0  0  0  0  0
  186.5640  176.7140  143.1470 C   0  0  0  0  0  3  0  0  0  0  0  0
  191.2340  176.1000  147.0020 C   0  0  0  0  0  2  0  0  0  0  0  0
  192.8160  176.1360  144.2780 C   0  0  2  0  0  3  0  0  0  0  0  0
  188.4750  175.7120  141.9060 C   0  0  0  0  0  2  0  0  0  0  0  0
  190.6270  176.3830  143.1410 C   0  0  2  0  0  3  0  0  0  0  0  0
  194.5110  174.4300  144.5070 O   0  0  0  0  0  0  0  0  0  0  0  0
  195.5050  175.2140  145.0990 C   0  0  0  0  0  2  0  0  0  0  0  0
  196.4340  175.2320  141.7370 N   0  0  0  0  0  2  0  0  0  0  0  0
  196.4490  176.7950  143.5120 N   0  0  0  0  0  2  0  0  0  0  0  0
  196.6160  175.4810  144.1010 C   0  0  2  0  0  3  0  0  0  0  0  0
  196.7330  176.6080  142.0990 C   0  0  0  0  0  2  0  0  0  0  0  0
  196.5340  174.4800  142.9750 C   0  0  0  0  0  2  0  0  0  0  0  0
  1 26  1  6  0  0  0
  1 18  1  0  0  0  0
  2 14  1  0  0  0  0
  2 27  1  0  0  0  0
  3 16  1  6  0  0  0
  3  7  1  0  0  0  0
  4 18  1  0  0  0  0
  4 15  1  0  0  0  0
  5 11  1  6  0  0  0
  5 19  1  0  0  0  0
  6  7  1  0  0  0  0
  8 12  1  0  0  0  0
  8 16  1  0  0  0  0
  9 13  1  0  0  0  0
 10 22  1  0  0  0  0
 12 15  1  0  0  0  0
 13 24  1  0  0  0  0
 14 25  1  0  0  0  0
 15  5  1  0  0  0  0
 17 10  1  0  0  0  0
 18 20  2  0  0  0  0
 19  3  1  0  0  0  0
 19  6  1  0  0  0  0
 20 13  1  0  0  0  0
 20 11  1  0  0  0  0
 21 23  1  0  0  0  0
 23  4  2  0  0  0  0
 24 22  1  0  0  0  0
 25  9  1  0  0  0  0
 25 17  1  0  0  0  0
 26 21  1  0  0  0  0
 27  1  1  0  0  0  0
 27  9  1  0  0  0  0
 28 17  1  0  0  0  0
 28 29  1  0  0  0  0
 30 33  1  0  0  0  0
 30 34  1  0  0  0  0
 31 32  1  0  0  0  0
 32 29  1  0  0  0  0
 33 31  1  0  0  0  0
 34 32  1  0  0  0  0
M  END
>  <MODEL>
6

>  <REMARK>
 VINA RESULT:      -8.1      1.914      4.145
  Name = 
  3 active torsions:
  status: ('A' for Active; 'I' for Inactive)
    1  A    between atoms: C_17  and  O_28
    2  A    between atoms: O_28  and  C_29
    3  A    between atoms: C_29  and  C_32
                            x       y       z     vdW  Elec       q    Type
                         _______ _______ _______ _____ _____    ______ ____

>  <TORSDO>
F 3

$$$$
=
 OpenBabel11112418033D

 34 41  0  0  1  0  0  0  0  0999 V2000
  191.2610  175.8370  145.3560 C   0  0  1  0  0  3  0  0  0  0  0  0
  189.7540  177.7160  144.6760 C   0  0  0  0  0  2  0  0  0  0  0  0
  195.9800  172.3130  143.0350 C   0  0  1  0  0  3  0  0  0  0  0  0
  193.2960  174.2220  145.4870 C   0  0  0  0  0  0  0  0  0  0  0  0
  193.6470  172.5020  143.6540 C   0  0  2  0  0  3  0  0  0  0  0  0
  194.8190  172.9200  141.3590 C   0  0  0  0  0  2  0  0  0  0  0  0
  196.1990  172.2960  141.5390 C   0  0  0  0  0  2  0  0  0  0  0  0
  196.3570  173.4420  145.2560 C   0  0  0  0  0  2  0  0  0  0  0  0
  190.5570  176.2320  142.9130 C   0  0  1  0  0  3  0  0  0  0  0  0
  188.1770  175.2940  140.9400 C   0  0  0  0  0  2  0  0  0  0  0  0
  192.3400  172.9420  143.1630 N   0  0  0  0  0  0  0  0  0  0  0  0
  195.2240  172.5110  145.7500 C   0  0  0  0  0  2  0  0  0  0  0  0
  190.4680  174.6830  142.9440 C   0  0  2  0  0  3  0  0  0  0  0  0
  189.0770  178.1170  143.3860 C   0  0  0  0  0  2  0  0  0  0  0  0
  193.8200  172.8400  145.1630 C   0  0  1  0  0  3  0  0  0  0  0  0
  196.9850  173.0450  143.9030 C   0  0  0  0  0  2  0  0  0  0  0  0
  188.0550  176.1050  142.2260 C   0  0  1  0  0  3  0  0  0  0  0  0
  192.0760  174.6920  144.7960 C   0  0  1  0  0  3  0  0  0  0  0  0
  194.7540  173.1640  142.8550 C   0  0  2  0  0  3  0  0  0  0  0  0
  191.6690  174.1110  143.6590 C   0  0  0  0  0  0  0  0  0  0  0  0
  193.3790  176.4080  146.6390 C   0  0  0  0  0  2  0  0  0  0  0  0
  188.8590  173.9560  141.1860 C   0  0  0  0  0  2  0  0  0  0  0  0
  193.8670  175.0090  146.4070 C   0  0  0  0  0  3  0  0  0  0  0  0
  190.3290  174.1280  141.5330 C   0  0  0  0  0  2  0  0  0  0  0  0
  189.3110  176.9800  142.4010 C   0  0  2  0  0  3  0  0  0  0  0  0
  191.8530  176.4530  146.6330 C   0  0  0  0  0  2  0  0  0  0  0  0
  190.9390  176.8690  144.2670 C   0  0  2  0  0  3  0  0  0  0  0  0
  186.9100  176.9020  142.1380 O   0  0  0  0  0  0  0  0  0  0  0  0
  186.0620  176.4170  143.1380 C   0  0  0  0  0  2  0  0  0  0  0  0
  185.8560  179.1010  145.3580 N   0  0  0  0  0  2  0  0  0  0  0  0
  185.5570  178.7930  143.0320 N   0  0  0  0  0  2  0  0  0  0  0  0
  185.2000  177.5440  143.6760 C   0  0  2  0  0  3  0  0  0  0  0  0
  185.5640  179.7750  144.1030 C   0  0  0  0  0  2  0  0  0  0  0  0
  185.4600  177.7190  145.1510 C   0  0  0  0  0  2  0  0  0  0  0  0
  1 26  1  1  0  0  0
  3  7  1  6  0  0  0
  3 16  1  0  0  0  0
  4 23  2  0  0  0  0
  5 11  1  6  0  0  0
  5 15  1  0  0  0  0
  6  7  1  0  0  0  0
  6 19  1  0  0  0  0
  8 12  1  0  0  0  0
  9 13  1  0  0  0  0
  9 27  1  0  0  0  0
 10 22  1  0  0  0  0
 10 17  1  0  0  0  0
 11 20  2  0  0  0  0
 13 20  1  0  0  0  0
 14  2  1  0  0  0  0
 15  4  1  0  0  0  0
 15 12  1  0  0  0  0
 16  8  1  0  0  0  0
 17 25  1  0  0  0  0
 18  1  1  0  0  0  0
 18  4  1  0  0  0  0
 19  3  1  0  0  0  0
 19  5  1  0  0  0  0
 20 18  1  0  0  0  0
 22 24  1  0  0  0  0
 23 21  1  0  0  0  0
 24 13  1  0  0  0  0
 25  9  1  0  0  0  0
 25 14  1  0  0  0  0
 26 21  1  0  0  0  0
 27  2  1  0  0  0  0
 27  1  1  0  0  0  0
 28 17  1  0  0  0  0
 28 29  1  0  0  0  0
 29 32  1  0  0  0  0
 31 32  1  0  0  0  0
 31 33  1  0  0  0  0
 32 34  1  0  0  0  0
 33 30  1  0  0  0  0
 34 30  1  0  0  0  0
M  END
>  <MODEL>
7

>  <REMARK>
 VINA RESULT:      -8.1      2.660      8.558
  Name = 
  3 active torsions:
  status: ('A' for Active; 'I' for Inactive)
    1  A    between atoms: C_17  and  O_28
    2  A    between atoms: O_28  and  C_29
    3  A    between atoms: C_29  and  C_32
                            x       y       z     vdW  Elec       q    Type
                         _______ _______ _______ _____ _____    ______ ____

>  <TORSDO>
F 3

$$$$
=
 OpenBabel11112418033D

 34 41  0  0  1  0  0  0  0  0999 V2000
  189.4270  175.7730  143.1500 C   0  0  1  0  0  3  0  0  0  0  0  0
  191.7630  175.8900  142.2580 C   0  0  0  0  0  2  0  0  0  0  0  0
  185.6580  178.7180  147.2960 C   0  0  1  0  0  3  0  0  0  0  0  0
  187.1550  176.4370  144.2270 C   0  0  0  0  0  0  0  0  0  0  0  0
  187.0180  176.7950  146.7360 C   0  0  2  0  0  3  0  0  0  0  0  0
  187.6430  178.9850  148.0120 C   0  0  0  0  0  2  0  0  0  0  0  0
  186.2910  179.6120  148.3380 C   0  0  0  0  0  2  0  0  0  0  0  0
  184.7940  178.4230  144.9460 C   0  0  0  0  0  2  0  0  0  0  0  0
  191.3990  176.6540  144.5470 C   0  0  1  0  0  3  0  0  0  0  0  0
  193.5940  175.4520  146.5900 C   0  0  0  0  0  2  0  0  0  0  0  0
  188.3910  176.2890  146.7570 N   0  0  0  0  0  2  0  0  0  0  0  0
  184.8370  176.9130  145.2840 C   0  0  0  0  0  2  0  0  0  0  0  0
  190.6620  175.8470  145.6490 C   0  0  2  0  0  3  0  0  0  0  0  0
  193.1100  176.2230  142.8570 C   0  0  0  0  0  2  0  0  0  0  0  0
  186.2710  176.3330  145.4520 C   0  0  1  0  0  3  0  0  0  0  0  0
  184.8820  179.3660  146.1650 C   0  0  0  0  0  2  0  0  0  0  0  0
  193.4060  175.1070  145.1160 C   0  0  1  0  0  3  0  0  0  0  0  0
  188.5900  176.1080  144.3640 C   0  0  0  0  0  0  0  0  0  0  0  0
  187.0190  178.3110  146.8040 C   0  0  2  0  0  3  0  0  0  0  0  0
  189.1760  176.1020  145.5690 C   0  0  0  0  0  0  0  0  0  0  0  0
  187.5900  176.9530  141.8480 C   0  0  0  0  0  2  0  0  0  0  0  0
  192.3250  175.2010  147.3900 C   0  0  0  0  0  2  0  0  0  0  0  0
  186.6740  176.7680  143.0220 C   0  0  0  0  0  3  0  0  0  0  0  0
  191.2240  176.1840  147.0230 C   0  0  0  0  0  2  0  0  0  0  0  0
  192.8980  176.3480  144.3590 C   0  0  2  0  0  3  0  0  0  0  0  0
  188.6580  175.8610  141.8230 C   0  0  0  0  0  2  0  0  0  0  0  0
  190.7430  176.5610  143.1520 C   0  0  2  0  0  3  0  0  0  0  0  0
  194.6360  174.6870  144.6010 O   0  0  0  0  0  0  0  0  0  0  0  0
  195.5540  174.9330  145.6260 C   0  0  0  0  0  2  0  0  0  0  0  0
  197.1450  171.8410  145.3520 N   0  0  0  0  0  2  0  0  0  0  0  0
  196.8710  173.7380  143.9680 N   0  0  0  0  0  2  0  0  0  0  0  0
  196.8550  174.2070  145.3400 C   0  0  2  0  0  3  0  0  0  0  0  0
  197.4270  172.3970  144.0390 C   0  0  0  0  0  2  0  0  0  0  0  0
  196.9580  172.9880  146.2220 C   0  0  0  0  0  2  0  0  0  0  0  0
  1 26  1  6  0  0  0
  1 27  1  0  0  0  0
  1 18  1  0  0  0  0
  2 14  1  0  0  0  0
  2 27  1  0  0  0  0
  3 16  1  6  0  0  0
  3  7  1  0  0  0  0
  4 18  1  0  0  0  0
  4 15  1  0  0  0  0
  5 11  1  6  0  0  0
  5 19  1  0  0  0  0
  6  7  1  0  0  0  0
  8 12  1  0  0  0  0
  8 16  1  0  0  0  0
  9 13  1  0  0  0  0
 10 22  1  0  0  0  0
 12 15  1  0  0  0  0
 13 24  1  0  0  0  0
 14 25  1  0  0  0  0
 15  5  1  0  0  0  0
 17 10  1  0  0  0  0
 18 20  2  0  0  0  0
 19  3  1  0  0  0  0
 19  6  1  0  0  0  0
 20 13  1  0  0  0  0
 20 11  1  0  0  0  0
 21 23  1  0  0  0  0
 23  4  2  0  0  0  0
 24 22  1  0  0  0  0
 25  9  1  0  0  0  0
 25 17  1  0  0  0  0
 26 21  1  0  0  0  0
 27  9  1  0  0  0  0
 28 17  1  0  0  0  0
 28 29  1  0  0  0  0
 30 34  1  0  0  0  0
 31 33  1  0  0  0  0
 31 32  1  0  0  0  0
 32 29  1  0  0  0  0
 32 34  1  0  0  0  0
 33 30  1  0  0  0  0
M  END
>  <MODEL>
8

>  <REMARK>
 VINA RESULT:      -7.9      1.988      4.247
  Name = 
  3 active torsions:
  status: ('A' for Active; 'I' for Inactive)
    1  A    between atoms: C_17  and  O_28
    2  A    between atoms: O_28  and  C_29
    3  A    between atoms: C_29  and  C_32
                            x       y       z     vdW  Elec       q    Type
                         _______ _______ _______ _____ _____    ______ ____

>  <TORSDO>
F 3

$$$$
=
 OpenBabel11112418033D

 34 41  0  0  1  0  0  0  0  0999 V2000
  192.2290  175.7760  145.2540 C   0  0  1  0  0  3  0  0  0  0  0  0
  190.9460  177.7260  144.3520 C   0  0  0  0  0  2  0  0  0  0  0  0
  195.5620  170.7940  143.2200 C   0  0  1  0  0  3  0  0  0  0  0  0
  193.9260  173.8170  145.4660 C   0  0  0  0  0  0  0  0  0  0  0  0
  193.5190  171.6650  144.1830 C   0  0  2  0  0  3  0  0  0  0  0  0
  194.1490  171.2220  141.6890 C   0  0  0  0  0  2  0  0  0  0  0  0
  195.4030  170.3590  141.7810 C   0  0  0  0  0  2  0  0  0  0  0  0
  196.6580  172.3160  144.9030 C   0  0  0  0  0  2  0  0  0  0  0  0
  191.0280  175.7100  142.9800 C   0  0  1  0  0  3  0  0  0  0  0  0
  188.1140  174.8920  141.8500 C   0  0  0  0  0  2  0  0  0  0  0  0
  192.2270  172.2610  143.8400 N   0  0  0  0  0  0  0  0  0  0  0  0
  195.5380  171.8240  145.8500 C   0  0  0  0  0  2  0  0  0  0  0  0
  190.6850  174.2800  143.4780 C   0  0  2  0  0  3  0  0  0  0  0  0
  190.0530  177.9430  143.1520 C   0  0  0  0  0  2  0  0  0  0  0  0
  194.1110  172.3140  145.4670 C   0  0  1  0  0  3  0  0  0  0  0  0
  196.8590  171.4640  143.6320 C   0  0  0  0  0  2  0  0  0  0  0  0
  188.4510  176.0010  142.8420 C   0  0  1  0  0  3  0  0  0  0  0  0
  192.6740  174.3720  144.9110 C   0  0  2  0  0  3  0  0  0  0  0  0
  194.4940  171.8350  143.0330 C   0  0  2  0  0  3  0  0  0  0  0  0
  191.9090  173.6390  144.0900 C   0  0  0  0  0  0  0  0  0  0  0  0
  194.6620  176.1380  145.8940 C   0  0  0  0  0  2  0  0  0  0  0  0
  188.5960  173.5350  142.3420 C   0  0  0  0  0  2  0  0  0  0  0  0
  194.8310  174.6510  145.9930 C   0  0  0  0  0  3  0  0  0  0  0  0
  190.1130  173.4420  142.3430 C   0  0  0  0  0  2  0  0  0  0  0  0
  189.8410  176.5760  142.5160 C   0  0  2  0  0  3  0  0  0  0  0  0
  193.2110  176.5320  146.1610 C   0  0  0  0  0  2  0  0  0  0  0  0
  191.8320  176.5540  143.9930 C   0  0  2  0  0  3  0  0  0  0  0  0
  187.4730  176.9950  142.7420 O   0  0  0  0  0  0  0  0  0  0  0  0
  186.4580  176.5830  143.6100 C   0  0  0  0  0  2  0  0  0  0  0  0
  185.1320  179.2390  145.4430 N   0  0  0  0  0  2  0  0  0  0  0  0
  185.9030  178.9200  143.2300 N   0  0  0  0  0  2  0  0  0  0  0  0
  185.3780  177.6470  143.6850 C   0  0  2  0  0  3  0  0  0  0  0  0
  185.3780  179.8960  144.1700 C   0  0  0  0  0  2  0  0  0  0  0  0
  184.9530  177.8340  145.1210 C   0  0  0  0  0  2  0  0  0  0  0  0
  1 26  1  6  0  0  0
  3  7  1  6  0  0  0
  3 16  1  0  0  0  0
  4 15  1  0  0  0  0
  4 23  2  0  0  0  0
  5 11  1  6  0  0  0
  5 15  1  0  0  0  0
  6  7  1  0  0  0  0
  6 19  1  0  0  0  0
  8 12  1  0  0  0  0
  9 13  1  0  0  0  0
  9 27  1  0  0  0  0
 10 22  1  0  0  0  0
 10 17  1  0  0  0  0
 11 20  2  0  0  0  0
 13 20  1  0  0  0  0
 14  2  1  0  0  0  0
 15 12  1  0  0  0  0
 16  8  1  0  0  0  0
 18  1  1  0  0  0  0
 18  4  1  0  0  0  0
 19  3  1  0  0  0  0
 19  5  1  0  0  0  0
 20 18  1  0  0  0  0
 21 23  1  0  0  0  0
 21 26  1  0  0  0  0
 22 24  1  0  0  0  0
 24 13  1  0  0  0  0
 25 17  1  0  0  0  0
 25  9  1  0  0  0  0
 25 14  1  0  0  0  0
 27  2  1  0  0  0  0
 27  1  1  0  0  0  0
 28 17  1  0  0  0  0
 28 29  1  0  0  0  0
 29 32  1  0  0  0  0
 31 32  1  0  0  0  0
 31 33  1  0  0  0  0
 32 34  1  0  0  0  0
 33 30  1  0  0  0  0
 34 30  1  0  0  0  0
M  END
>  <MODEL>
9

>  <REMARK>
 VINA RESULT:      -7.9      2.913      8.928
  Name = 
  3 active torsions:
  status: ('A' for Active; 'I' for Inactive)
    1  A    between atoms: C_17  and  O_28
    2  A    between atoms: O_28  and  C_29
    3  A    between atoms: C_29  and  C_32
                            x       y       z     vdW  Elec       q    Type
                         _______ _______ _______ _____ _____    ______ ____

>  <TORSDO>
F 3

$$$$
