=
 OpenBabel11112416173D

 30 35  0  0  1  0  0  0  0  0999 V2000
  187.5450  176.4280  145.4590 C   0  0  0  0  0  0  0  0  0  0  0  0
  185.7620  177.6800  146.7190 C   0  0  0  0  0  0  0  0  0  0  0  0
  185.8530  177.5350  141.7810 N   0  0  0  0  0  0  0  0  0  0  0  0
  188.0820  176.0080  144.2060 C   0  0  0  0  0  0  0  0  0  0  0  0
  188.2080  176.0350  146.6280 C   0  0  0  0  0  3  0  0  0  0  0  0
  191.0270  174.0430  145.3040 O   0  0  0  0  0  1  0  0  0  0  0  0
  188.7070  173.9430  142.0110 C   0  0  1  0  0  3  0  0  0  0  0  0
  189.8730  174.8190  145.3640 C   0  0  0  0  0  0  0  0  0  0  0  0
  187.8150  174.8190  141.2180 N   0  0  2  0  0  0  0  0  0  0  0  0
  186.6890  177.0020  140.9480 C   0  0  0  0  0  0  0  0  0  0  0  0
  189.3540  175.2440  146.6050 C   0  0  0  0  0  0  0  0  0  0  0  0
  189.2330  175.1840  144.1670 C   0  0  0  0  0  0  0  0  0  0  0  0
  184.6070  178.4660  146.6890 C   0  0  0  0  0  3  0  0  0  0  0  0
  188.3010  174.7000  139.8480 C   0  0  0  0  0  2  0  0  0  0  0  0
  189.3620  172.9500  141.0690 C   0  0  0  0  0  2  0  0  0  0  0  0
  186.2910  177.3620  147.9650 O   0  0  0  0  0  1  0  0  0  0  0  0
  186.2990  177.1910  143.0800 C   0  0  0  0  0  0  0  0  0  0  0  0
  184.0190  178.8260  145.4780 C   0  0  0  0  0  3  0  0  0  0  0  0
  186.3590  177.2320  145.5080 C   0  0  0  0  0  0  0  0  0  0  0  0
  187.4290  176.4230  143.0370 C   0  0  0  0  0  0  0  0  0  0  0  0
  186.5660  177.2230  139.4810 C   0  0  0  0  0  1  0  0  0  0  0  0
  187.8240  176.2400  141.6040 C   0  0  1  0  0  3  0  0  0  0  0  0
  188.8620  173.3080  139.6950 C   0  0  0  0  0  2  0  0  0  0  0  0
  190.6830  175.6190  142.1410 C   0  0  0  0  0  1  0  0  0  0  0  0
  184.5820  178.4000  144.2790 C   0  0  0  0  0  3  0  0  0  0  0  0
  185.7360  177.6090  144.2830 C   0  0  0  0  0  0  0  0  0  0  0  0
  189.7810  174.6350  142.8770 C   0  0  2  0  0  3  0  0  0  0  0  0
  189.9320  174.9170  147.8430 O   0  0  0  0  0  0  0  0  0  0  0  0
  191.3730  176.8270  148.1180 C   0  0  0  0  0  1  0  0  0  0  0  0
  191.2230  175.3250  148.2750 C   0  0  0  0  0  2  0  0  0  0  0  0
  1 19  1  0  0  0  0
  1  5  1  0  0  0  0
  2 16  1  0  0  0  0
  3 17  1  0  0  0  0
  4  1  2  0  0  0  0
  6  8  1  0  0  0  0
  7 15  1  6  0  0  0
  7 27  1  0  0  0  0
  8 11  1  0  0  0  0
  9 14  1  6  0  0  0
  9 22  1  0  0  0  0
  9  7  1  0  0  0  0
 10  3  2  0  0  0  0
 11  5  2  0  0  0  0
 11 28  1  0  0  0  0
 12  4  1  0  0  0  0
 12  8  2  0  0  0  0
 13  2  1  0  0  0  0
 17 26  1  0  0  0  0
 18 13  2  0  0  0  0
 19  2  2  0  0  0  0
 20 17  2  0  0  0  0
 20  4  1  0  0  0  0
 21 10  1  0  0  0  0
 22 10  1  6  0  0  0
 22 20  1  0  0  0  0
 23 14  1  0  0  0  0
 23 15  1  0  0  0  0
 25 26  2  0  0  0  0
 25 18  1  0  0  0  0
 26 19  1  0  0  0  0
 27 24  1  6  0  0  0
 27 12  1  0  0  0  0
 28 30  1  0  0  0  0
 29 30  1  0  0  0  0
M  END
>  <MODEL>
1

>  <REMARK>
 VINA RESULT:      -9.2      0.000      0.000
  Name = 
  2 active torsions:
  status: ('A' for Active; 'I' for Inactive)
    1  A    between atoms: C_11  and  O_28
    2  A    between atoms: O_28  and  C_30
                            x       y       z     vdW  Elec       q    Type
                         _______ _______ _______ _____ _____    ______ ____

>  <TORSDO>
F 2

$$$$
=
 OpenBabel11112416173D

 30 35  0  0  1  0  0  0  0  0999 V2000
  186.2760  177.3290  143.8450 C   0  0  0  0  0  0  0  0  0  0  0  0
  184.5730  178.4940  145.2870 C   0  0  0  0  0  0  0  0  0  0  0  0
  188.5210  176.2370  147.2190 N   0  0  0  0  0  0  0  0  0  0  0  0
  187.4980  176.5990  143.7540 C   0  0  0  0  0  0  0  0  0  0  0  0
  185.5830  177.6100  142.6610 C   0  0  0  0  0  3  0  0  0  0  0  0
  187.7590  176.0800  140.0930 O   0  0  0  0  0  1  0  0  0  0  0  0
  190.4770  176.2570  143.0630 C   0  0  1  0  0  3  0  0  0  0  0  0
  187.2700  176.5050  141.3260 C   0  0  0  0  0  0  0  0  0  0  0  0
  190.5840  176.0520  144.5250 N   0  0  2  0  0  0  0  0  0  0  0  0
  189.4750  175.5500  146.6750 C   0  0  0  0  0  0  0  0  0  0  0  0
  186.0530  177.2140  141.4110 C   0  0  0  0  0  0  0  0  0  0  0  0
  188.0010  176.2110  142.4890 C   0  0  0  0  0  0  0  0  0  0  0  0
  184.1490  178.8740  146.5630 C   0  0  0  0  0  3  0  0  0  0  0  0
  191.7110  175.1430  144.6900 C   0  0  0  0  0  2  0  0  0  0  0  0
  191.8090  175.8960  142.4310 C   0  0  0  0  0  2  0  0  0  0  0  0
  183.7790  178.8650  144.2080 O   0  0  0  0  0  1  0  0  0  0  0  0
  187.7050  176.7050  146.1610 C   0  0  0  0  0  0  0  0  0  0  0  0
  184.8920  178.5390  147.6920 C   0  0  0  0  0  3  0  0  0  0  0  0
  185.7790  177.7570  145.1200 C   0  0  0  0  0  0  0  0  0  0  0  0
  188.1760  176.2990  144.9440 C   0  0  0  0  0  0  0  0  0  0  0  0
  190.4890  174.8440  147.5050 C   0  0  0  0  0  1  0  0  0  0  0  0
  189.3960  175.4600  145.1640 C   0  0  1  0  0  3  0  0  0  0  0  0
  192.6780  175.4240  143.5670 C   0  0  0  0  0  2  0  0  0  0  0  0
  189.2630  174.0200  142.5640 C   0  0  0  0  0  1  0  0  0  0  0  0
  186.0750  177.8190  147.5570 C   0  0  0  0  0  3  0  0  0  0  0  0
  186.5240  177.4310  146.2910 C   0  0  0  0  0  0  0  0  0  0  0  0
  189.3320  175.5250  142.3330 C   0  0  2  0  0  3  0  0  0  0  0  0
  185.2680  177.5510  140.2960 O   0  0  0  0  0  0  0  0  0  0  0  0
  182.8810  177.8660  140.3490 C   0  0  0  0  0  1  0  0  0  0  0  0
  184.2420  178.5350  140.2850 C   0  0  0  0  0  2  0  0  0  0  0  0
  1 19  1  0  0  0  0
  2 13  1  0  0  0  0
  4  1  1  0  0  0  0
  4 20  1  0  0  0  0
  5  1  2  0  0  0  0
  6  8  1  0  0  0  0
  7 15  1  6  0  0  0
  7  9  1  0  0  0  0
  8 11  2  0  0  0  0
  8 12  1  0  0  0  0
  9 14  1  6  0  0  0
  9 22  1  0  0  0  0
 10  3  2  0  0  0  0
 10 21  1  0  0  0  0
 11  5  1  0  0  0  0
 12  4  2  0  0  0  0
 13 18  2  0  0  0  0
 15 23  1  0  0  0  0
 16  2  1  0  0  0  0
 17 26  1  0  0  0  0
 17  3  1  0  0  0  0
 19  2  2  0  0  0  0
 19 26  1  0  0  0  0
 20 17  2  0  0  0  0
 22 20  1  6  0  0  0
 22 10  1  0  0  0  0
 23 14  1  0  0  0  0
 25 18  1  0  0  0  0
 26 25  2  0  0  0  0
 27 12  1  0  0  0  0
 27 24  1  1  0  0  0
 27  7  1  0  0  0  0
 28 11  1  0  0  0  0
 30 28  1  0  0  0  0
 30 29  1  0  0  0  0
M  END
>  <MODEL>
2

>  <REMARK>
 VINA RESULT:      -8.9      2.778      5.353
  Name = 
  2 active torsions:
  status: ('A' for Active; 'I' for Inactive)
    1  A    between atoms: C_11  and  O_28
    2  A    between atoms: O_28  and  C_30
                            x       y       z     vdW  Elec       q    Type
                         _______ _______ _______ _____ _____    ______ ____

>  <TORSDO>
F 2

$$$$
=
 OpenBabel11112416173D

 30 35  0  0  1  0  0  0  0  0999 V2000
  188.2800  176.0910  143.6140 C   0  0  0  0  0  0  0  0  0  0  0  0
  186.0020  177.1030  143.9610 C   0  0  0  0  0  0  0  0  0  0  0  0
  189.5350  177.3910  147.4020 N   0  0  0  0  0  0  0  0  0  0  0  0
  189.5960  175.8590  144.1110 C   0  0  0  0  0  0  0  0  0  0  0  0
  187.9500  175.5820  142.3520 C   0  0  0  0  0  3  0  0  0  0  0  0
  191.0980  173.9440  141.3140 O   0  0  0  0  0  1  0  0  0  0  0  0
  192.6420  176.2930  144.2020 C   0  0  1  0  0  3  0  0  0  0  0  0
  190.1670  174.6610  142.0620 C   0  0  0  0  0  0  0  0  0  0  0  0
  192.3260  176.7850  145.5620 N   0  0  2  0  0  0  0  0  0  0  0  0
  190.7360  176.9090  147.4490 C   0  0  0  0  0  0  0  0  0  0  0  0
  188.8620  174.8760  141.5710 C   0  0  0  0  0  0  0  0  0  0  0  0
  190.5420  175.1630  143.3200 C   0  0  0  0  0  0  0  0  0  0  0  0
  185.1270  177.8220  144.7790 C   0  0  0  0  0  3  0  0  0  0  0  0
  193.5140  176.4800  146.3510 C   0  0  0  0  0  2  0  0  0  0  0  0
  194.1500  176.1750  144.0740 C   0  0  0  0  0  2  0  0  0  0  0  0
  185.5250  176.6790  142.7250 O   0  0  0  0  0  1  0  0  0  0  0  0
  189.0100  177.0500  146.1320 C   0  0  0  0  0  0  0  0  0  0  0  0
  185.5330  178.2800  146.0300 C   0  0  0  0  0  3  0  0  0  0  0  0
  187.3280  176.8260  144.3950 C   0  0  0  0  0  0  0  0  0  0  0  0
  189.9150  176.3490  145.3850 C   0  0  0  0  0  0  0  0  0  0  0  0
  191.5660  177.0190  148.6800 C   0  0  0  0  0  1  0  0  0  0  0  0
  191.1570  176.1580  146.2010 C   0  0  1  0  0  3  0  0  0  0  0  0
  194.6990  176.5640  145.4210 C   0  0  0  0  0  2  0  0  0  0  0  0
  192.1600  173.7930  144.6990 C   0  0  0  0  0  1  0  0  0  0  0  0
  186.8250  178.0240  146.4790 C   0  0  0  0  0  3  0  0  0  0  0  0
  187.7210  177.3090  145.6770 C   0  0  0  0  0  0  0  0  0  0  0  0
  191.9710  174.9770  143.7580 C   0  0  2  0  0  3  0  0  0  0  0  0
  188.4130  174.4110  140.3240 O   0  0  0  0  0  0  0  0  0  0  0  0
  188.5400  172.7980  138.5410 C   0  0  0  0  0  1  0  0  0  0  0  0
  188.1820  173.0480  139.9940 C   0  0  0  0  0  2  0  0  0  0  0  0
  1  4  1  0  0  0  0
  1 19  1  0  0  0  0
  2 19  2  0  0  0  0
  2 13  1  0  0  0  0
  3 10  2  0  0  0  0
  4 20  1  0  0  0  0
  5  1  2  0  0  0  0
  6  8  1  0  0  0  0
  7 15  1  1  0  0  0
  7  9  1  0  0  0  0
  8 12  1  0  0  0  0
  9 22  1  0  0  0  0
  9 14  1  1  0  0  0
 10 21  1  0  0  0  0
 11  8  2  0  0  0  0
 11  5  1  0  0  0  0
 12 27  1  0  0  0  0
 12  4  2  0  0  0  0
 13 18  2  0  0  0  0
 15 23  1  0  0  0  0
 16  2  1  0  0  0  0
 17  3  1  0  0  0  0
 18 25  1  0  0  0  0
 19 26  1  0  0  0  0
 20 17  2  0  0  0  0
 22 20  1  6  0  0  0
 22 10  1  0  0  0  0
 23 14  1  0  0  0  0
 26 17  1  0  0  0  0
 26 25  2  0  0  0  0
 27  7  1  0  0  0  0
 27 24  1  1  0  0  0
 28 11  1  0  0  0  0
 29 30  1  0  0  0  0
 30 28  1  0  0  0  0
M  END
>  <MODEL>
3

>  <REMARK>
 VINA RESULT:      -8.4      2.881      5.637
  Name = 
  2 active torsions:
  status: ('A' for Active; 'I' for Inactive)
    1  A    between atoms: C_11  and  O_28
    2  A    between atoms: O_28  and  C_30
                            x       y       z     vdW  Elec       q    Type
                         _______ _______ _______ _____ _____    ______ ____

>  <TORSDO>
F 2

$$$$
=
 OpenBabel11112416173D

 30 35  0  0  1  0  0  0  0  0999 V2000
  188.8180  176.4000  145.5330 C   0  0  0  0  0  0  0  0  0  0  0  0
  186.7850  177.7610  146.1220 C   0  0  0  0  0  0  0  0  0  0  0  0
  187.3090  175.6360  141.6920 N   0  0  0  0  0  0  0  0  0  0  0  0
  189.5100  175.5960  144.5790 C   0  0  0  0  0  0  0  0  0  0  0  0
  189.4270  176.6250  146.7740 C   0  0  0  0  0  3  0  0  0  0  0  0
  192.5880  174.7350  146.4560 O   0  0  0  0  0  1  0  0  0  0  0  0
  190.5880  172.9430  143.4510 C   0  0  1  0  0  3  0  0  0  0  0  0
  191.3400  175.2770  146.1630 C   0  0  0  0  0  0  0  0  0  0  0  0
  189.6560  173.2690  142.3480 N   0  0  2  0  0  0  0  0  0  0  0  0
  188.2750  174.9480  141.1730 C   0  0  0  0  0  0  0  0  0  0  0  0
  190.6670  176.0830  147.1050 C   0  0  0  0  0  0  0  0  0  0  0  0
  190.7600  175.0190  144.9090 C   0  0  0  0  0  0  0  0  0  0  0  0
  185.5420  178.2750  145.7440 C   0  0  0  0  0  3  0  0  0  0  0  0
  190.2680  172.6810  141.1610 C   0  0  0  0  0  2  0  0  0  0  0  0
  191.4460  171.7680  143.0210 C   0  0  0  0  0  2  0  0  0  0  0  0
  187.2450  178.0640  147.3990 O   0  0  0  0  0  1  0  0  0  0  0  0
  187.6860  175.9240  143.0260 C   0  0  0  0  0  0  0  0  0  0  0  0
  185.0150  178.0140  144.4810 C   0  0  0  0  0  3  0  0  0  0  0  0
  187.5350  176.9570  145.2190 C   0  0  0  0  0  0  0  0  0  0  0  0
  188.9080  175.3930  143.3290 C   0  0  0  0  0  0  0  0  0  0  0  0
  188.2480  174.5310  139.7450 C   0  0  0  0  0  1  0  0  0  0  0  0
  189.4430  174.7070  142.1100 C   0  0  1  0  0  3  0  0  0  0  0  0
  191.0200  171.4530  141.6110 C   0  0  0  0  0  2  0  0  0  0  0  0
  192.3040  174.8130  142.9170 C   0  0  0  0  0  1  0  0  0  0  0  0
  185.7280  177.2310  143.5780 C   0  0  0  0  0  3  0  0  0  0  0  0
  186.9730  176.7010  143.9340 C   0  0  0  0  0  0  0  0  0  0  0  0
  191.4830  174.0860  143.9750 C   0  0  2  0  0  3  0  0  0  0  0  0
  191.1770  176.3830  148.3790 O   0  0  0  0  0  0  0  0  0  0  0  0
  191.3490  178.2460  149.8950 C   0  0  0  0  0  1  0  0  0  0  0  0
  191.9520  177.5310  148.7000 C   0  0  0  0  0  2  0  0  0  0  0  0
  1  5  1  0  0  0  0
  2 16  1  0  0  0  0
  3 17  1  0  0  0  0
  4 12  1  0  0  0  0
  4  1  2  0  0  0  0
  5 11  2  0  0  0  0
  7 15  1  6  0  0  0
  7 27  1  0  0  0  0
  8  6  1  0  0  0  0
  8 11  1  0  0  0  0
  9 14  1  6  0  0  0
  9  7  1  0  0  0  0
 10  3  2  0  0  0  0
 11 28  1  0  0  0  0
 12  8  2  0  0  0  0
 13  2  1  0  0  0  0
 14 23  1  0  0  0  0
 17 20  2  0  0  0  0
 17 26  1  0  0  0  0
 18 13  2  0  0  0  0
 19  1  1  0  0  0  0
 19  2  2  0  0  0  0
 20  4  1  0  0  0  0
 21 10  1  0  0  0  0
 22 10  1  6  0  0  0
 22  9  1  0  0  0  0
 22 20  1  0  0  0  0
 23 15  1  0  0  0  0
 25 26  2  0  0  0  0
 25 18  1  0  0  0  0
 26 19  1  0  0  0  0
 27 24  1  6  0  0  0
 27 12  1  0  0  0  0
 28 30  1  0  0  0  0
 30 29  1  0  0  0  0
M  END
>  <MODEL>
4

>  <REMARK>
 VINA RESULT:      -7.9      1.535      2.128
  Name = 
  2 active torsions:
  status: ('A' for Active; 'I' for Inactive)
    1  A    between atoms: C_11  and  O_28
    2  A    between atoms: O_28  and  C_30
                            x       y       z     vdW  Elec       q    Type
                         _______ _______ _______ _____ _____    ______ ____

>  <TORSDO>
F 2

$$$$
=
 OpenBabel11112416173D

 30 35  0  0  1  0  0  0  0  0999 V2000
  188.1360  175.6580  140.9940 C   0  0  0  0  0  0  0  0  0  0  0  0
  188.1530  174.4480  138.7870 C   0  0  0  0  0  0  0  0  0  0  0  0
  191.0450  173.0600  142.5450 N   0  0  0  0  0  0  0  0  0  0  0  0
  188.6270  175.7600  142.3290 C   0  0  0  0  0  0  0  0  0  0  0  0
  187.1930  176.5980  140.5610 C   0  0  0  0  0  3  0  0  0  0  0  0
  186.7510  178.7080  143.5650 O   0  0  0  0  0  1  0  0  0  0  0  0
  188.4060  175.5190  145.3890 C   0  0  1  0  0  3  0  0  0  0  0  0
  187.1940  177.6980  142.7150 C   0  0  0  0  0  0  0  0  0  0  0  0
  189.4740  174.5150  145.1830 N   0  0  2  0  0  0  0  0  0  0  0  0
  191.2260  173.5610  143.7260 C   0  0  0  0  0  0  0  0  0  0  0  0
  186.7160  177.6110  141.3910 C   0  0  0  0  0  0  0  0  0  0  0  0
  188.1340  176.7690  143.1920 C   0  0  0  0  0  0  0  0  0  0  0  0
  188.6580  173.4110  137.9970 C   0  0  0  0  0  3  0  0  0  0  0  0
  190.2670  174.5620  146.4060 C   0  0  0  0  0  2  0  0  0  0  0  0
  188.2700  175.7730  146.8790 C   0  0  0  0  0  2  0  0  0  0  0  0
  187.2080  175.2910  138.2130 O   0  0  0  0  0  1  0  0  0  0  0  0
  190.0370  173.8370  141.9250 C   0  0  0  0  0  0  0  0  0  0  0  0
  189.6080  172.5260  138.5020 C   0  0  0  0  0  3  0  0  0  0  0  0
  188.6030  174.6160  140.1260 C   0  0  0  0  0  0  0  0  0  0  0  0
  189.5880  174.8300  142.7500 C   0  0  0  0  0  0  0  0  0  0  0  0
  192.2760  173.0300  144.6380 C   0  0  0  0  0  1  0  0  0  0  0  0
  190.3590  174.7660  144.0330 C   0  0  1  0  0  3  0  0  0  0  0  0
  189.3290  174.9240  147.5310 C   0  0  0  0  0  2  0  0  0  0  0  0
  189.8710  177.5880  144.8380 C   0  0  0  0  0  1  0  0  0  0  0  0
  190.0650  172.6680  139.8090 C   0  0  0  0  0  3  0  0  0  0  0  0
  189.5720  173.6950  140.6210 C   0  0  0  0  0  0  0  0  0  0  0  0
  188.5470  176.8590  144.6370 C   0  0  2  0  0  3  0  0  0  0  0  0
  185.7740  178.4970  140.8430 O   0  0  0  0  0  0  0  0  0  0  0  0
  183.6170  178.2910  141.8930 C   0  0  0  0  0  1  0  0  0  0  0  0
  184.4070  178.1910  140.6010 C   0  0  0  0  0  2  0  0  0  0  0  0
  1  4  1  0  0  0  0
  2 19  1  0  0  0  0
  3 10  2  0  0  0  0
  4 20  1  0  0  0  0
  4 12  2  0  0  0  0
  5  1  2  0  0  0  0
  5 11  1  0  0  0  0
  7 15  1  1  0  0  0
  8 12  1  0  0  0  0
  8  6  1  0  0  0  0
  9  7  1  0  0  0  0
  9 14  1  1  0  0  0
 10 22  1  0  0  0  0
 10 21  1  0  0  0  0
 11  8  2  0  0  0  0
 12 27  1  0  0  0  0
 13 18  1  0  0  0  0
 13  2  2  0  0  0  0
 14 23  1  0  0  0  0
 15 23  1  0  0  0  0
 16  2  1  0  0  0  0
 17  3  1  0  0  0  0
 17 20  2  0  0  0  0
 18 25  2  0  0  0  0
 19 26  2  0  0  0  0
 19  1  1  0  0  0  0
 22 20  1  6  0  0  0
 22  9  1  0  0  0  0
 25 26  1  0  0  0  0
 26 17  1  0  0  0  0
 27 24  1  6  0  0  0
 27  7  1  0  0  0  0
 28 11  1  0  0  0  0
 30 28  1  0  0  0  0
 30 29  1  0  0  0  0
M  END
>  <MODEL>
5

>  <REMARK>
 VINA RESULT:      -7.9      2.875      7.002
  Name = 
  2 active torsions:
  status: ('A' for Active; 'I' for Inactive)
    1  A    between atoms: C_11  and  O_28
    2  A    between atoms: O_28  and  C_30
                            x       y       z     vdW  Elec       q    Type
                         _______ _______ _______ _____ _____    ______ ____

>  <TORSDO>
F 2

$$$$
=
 OpenBabel11112416173D

 30 35  0  0  1  0  0  0  0  0999 V2000
  187.5060  176.4500  142.1050 C   0  0  0  0  0  0  0  0  0  0  0  0
  185.9550  178.4010  142.4600 C   0  0  0  0  0  0  0  0  0  0  0  0
  188.5500  176.4220  146.1700 N   0  0  0  0  0  0  0  0  0  0  0  0
  188.4480  175.5300  142.6520 C   0  0  0  0  0  0  0  0  0  0  0  0
  187.1980  176.3510  140.7420 C   0  0  0  0  0  3  0  0  0  0  0  0
  189.3240  173.5270  139.6590 O   0  0  0  0  0  1  0  0  0  0  0  0
  191.2690  174.3790  143.0830 C   0  0  1  0  0  3  0  0  0  0  0  0
  188.7290  174.5010  140.4570 C   0  0  0  0  0  0  0  0  0  0  0  0
  190.9940  174.7710  144.4840 N   0  0  2  0  0  0  0  0  0  0  0  0
  189.3520  175.4070  146.2170 C   0  0  0  0  0  0  0  0  0  0  0  0
  187.7870  175.4000  139.9130 C   0  0  0  0  0  0  0  0  0  0  0  0
  189.0730  174.5730  141.8170 C   0  0  0  0  0  0  0  0  0  0  0  0
  185.3970  179.3400  143.3320 C   0  0  0  0  0  3  0  0  0  0  0  0
  191.7400  173.8120  145.2900 C   0  0  0  0  0  2  0  0  0  0  0  0
  192.5390  173.5480  143.0600 C   0  0  0  0  0  2  0  0  0  0  0  0
  185.5560  178.4430  141.1280 O   0  0  0  0  0  1  0  0  0  0  0  0
  188.1540  176.5650  144.8180 C   0  0  0  0  0  0  0  0  0  0  0  0
  185.7480  179.3590  144.6800 C   0  0  0  0  0  3  0  0  0  0  0  0
  186.8960  177.4460  142.9370 C   0  0  0  0  0  0  0  0  0  0  0  0
  188.7350  175.6180  144.0220 C   0  0  0  0  0  0  0  0  0  0  0  0
  189.9090  174.9210  147.5100 C   0  0  0  0  0  1  0  0  0  0  0  0
  189.5760  174.7260  144.8820 C   0  0  1  0  0  3  0  0  0  0  0  0
  192.9640  173.4230  144.4990 C   0  0  0  0  0  2  0  0  0  0  0  0
  189.5860  172.4070  143.0180 C   0  0  0  0  0  1  0  0  0  0  0  0
  186.6660  178.4370  145.1730 C   0  0  0  0  0  3  0  0  0  0  0  0
  187.2420  177.4900  144.3190 C   0  0  0  0  0  0  0  0  0  0  0  0
  190.1440  173.6450  142.3250 C   0  0  2  0  0  3  0  0  0  0  0  0
  187.3960  175.3950  138.5640 O   0  0  0  0  0  0  0  0  0  0  0  0
  186.3500  176.0290  136.4900 C   0  0  0  0  0  1  0  0  0  0  0  0
  186.6140  176.4030  137.9370 C   0  0  0  0  0  2  0  0  0  0  0  0
  1  4  1  0  0  0  0
  1 19  1  0  0  0  0
  2 19  2  0  0  0  0
  2 13  1  0  0  0  0
  3 10  2  0  0  0  0
  4 20  1  0  0  0  0
  5  1  2  0  0  0  0
  6  8  1  0  0  0  0
  7 15  1  1  0  0  0
  7  9  1  0  0  0  0
  8 12  1  0  0  0  0
  9 22  1  0  0  0  0
  9 14  1  1  0  0  0
 10 21  1  0  0  0  0
 11  8  2  0  0  0  0
 11  5  1  0  0  0  0
 12 27  1  0  0  0  0
 12  4  2  0  0  0  0
 13 18  2  0  0  0  0
 15 23  1  0  0  0  0
 16  2  1  0  0  0  0
 17  3  1  0  0  0  0
 18 25  1  0  0  0  0
 19 26  1  0  0  0  0
 20 17  2  0  0  0  0
 22 20  1  6  0  0  0
 22 10  1  0  0  0  0
 23 14  1  0  0  0  0
 26 17  1  0  0  0  0
 26 25  2  0  0  0  0
 27 24  1  1  0  0  0
 27  7  1  0  0  0  0
 28 11  1  0  0  0  0
 29 30  1  0  0  0  0
 30 28  1  0  0  0  0
M  END
>  <MODEL>
6

>  <REMARK>
 VINA RESULT:      -7.9      2.934      5.645
  Name = 
  2 active torsions:
  status: ('A' for Active; 'I' for Inactive)
    1  A    between atoms: C_11  and  O_28
    2  A    between atoms: O_28  and  C_30
                            x       y       z     vdW  Elec       q    Type
                         _______ _______ _______ _____ _____    ______ ____

>  <TORSDO>
F 2

$$$$
=
 OpenBabel11112416173D

 30 35  0  0  1  0  0  0  0  0999 V2000
  188.2490  175.8690  142.0510 C   0  0  0  0  0  0  0  0  0  0  0  0
  186.6640  176.9480  140.4200 C   0  0  0  0  0  0  0  0  0  0  0  0
  186.6870  178.1420  145.2140 N   0  0  0  0  0  0  0  0  0  0  0  0
  188.7440  175.7740  143.3850 C   0  0  0  0  0  0  0  0  0  0  0  0
  188.8140  175.0380  141.0750 C   0  0  0  0  0  3  0  0  0  0  0  0
  191.3500  173.1660  143.0060 O   0  0  0  0  0  1  0  0  0  0  0  0
  190.8330  176.2030  145.6030 C   0  0  1  0  0  3  0  0  0  0  0  0
  190.3360  174.0630  142.6810 C   0  0  0  0  0  0  0  0  0  0  0  0
  189.7580  177.0470  146.1720 N   0  0  2  0  0  0  0  0  0  0  0  0
  187.3710  177.6850  146.2150 C   0  0  0  0  0  0  0  0  0  0  0  0
  189.8410  174.1430  141.3620 C   0  0  0  0  0  0  0  0  0  0  0  0
  189.8030  174.8860  143.6880 C   0  0  0  0  0  0  0  0  0  0  0  0
  185.6380  177.8660  140.1820 C   0  0  0  0  0  3  0  0  0  0  0  0
  189.9440  176.9620  147.6160 C   0  0  0  0  0  2  0  0  0  0  0  0
  191.9220  176.0480  146.6490 C   0  0  0  0  0  2  0  0  0  0  0  0
  187.1270  176.2070  139.3380 O   0  0  0  0  0  1  0  0  0  0  0  0
  187.1590  177.4720  144.0600 C   0  0  0  0  0  0  0  0  0  0  0  0
  185.1220  178.6450  141.2150 C   0  0  0  0  0  3  0  0  0  0  0  0
  187.2010  176.7930  141.7280 C   0  0  0  0  0  0  0  0  0  0  0  0
  188.1590  176.5910  144.3630 C   0  0  0  0  0  0  0  0  0  0  0  0
  187.0870  178.1220  147.6090 C   0  0  0  0  0  1  0  0  0  0  0  0
  188.3860  176.6220  145.8430 C   0  0  1  0  0  3  0  0  0  0  0  0
  191.4220  176.7850  147.8630 C   0  0  0  0  0  2  0  0  0  0  0  0
  189.6490  173.9340  146.0260 C   0  0  0  0  0  1  0  0  0  0  0  0
  185.6290  178.5140  142.5040 C   0  0  0  0  0  3  0  0  0  0  0  0
  186.6590  177.6040  142.7680 C   0  0  0  0  0  0  0  0  0  0  0  0
  190.4250  174.8190  145.0580 C   0  0  2  0  0  3  0  0  0  0  0  0
  190.3230  173.3600  140.3010 O   0  0  0  0  0  0  0  0  0  0  0  0
  189.4260  171.8300  138.6720 C   0  0  0  0  0  1  0  0  0  0  0  0
  189.7320  173.2770  139.0110 C   0  0  0  0  0  2  0  0  0  0  0  0
  1  4  1  0  0  0  0
  2 19  1  0  0  0  0
  3 10  2  0  0  0  0
  4 12  1  0  0  0  0
  4 20  2  0  0  0  0
  5 11  2  0  0  0  0
  5  1  1  0  0  0  0
  7  9  1  0  0  0  0
  7 15  1  1  0  0  0
  8  6  1  0  0  0  0
  8 12  2  0  0  0  0
  9 14  1  1  0  0  0
 10 21  1  0  0  0  0
 11  8  1  0  0  0  0
 12 27  1  0  0  0  0
 13  2  2  0  0  0  0
 13 18  1  0  0  0  0
 14 23  1  0  0  0  0
 15 23  1  0  0  0  0
 16  2  1  0  0  0  0
 17 20  1  0  0  0  0
 17  3  1  0  0  0  0
 18 25  2  0  0  0  0
 19  1  2  0  0  0  0
 19 26  1  0  0  0  0
 22 20  1  6  0  0  0
 22  9  1  0  0  0  0
 22 10  1  0  0  0  0
 25 26  1  0  0  0  0
 26 17  2  0  0  0  0
 27  7  1  0  0  0  0
 27 24  1  1  0  0  0
 28 11  1  0  0  0  0
 29 30  1  0  0  0  0
 30 28  1  0  0  0  0
M  END
>  <MODEL>
7

>  <REMARK>
 VINA RESULT:      -7.8      2.550      5.699
  Name = 
  2 active torsions:
  status: ('A' for Active; 'I' for Inactive)
    1  A    between atoms: C_11  and  O_28
    2  A    between atoms: O_28  and  C_30
                            x       y       z     vdW  Elec       q    Type
                         _______ _______ _______ _____ _____    ______ ____

>  <TORSDO>
F 2

$$$$
=
 OpenBabel11112416173D

 30 35  0  0  1  0  0  0  0  0999 V2000
  187.9850  175.9500  141.5380 C   0  0  0  0  0  0  0  0  0  0  0  0
  189.6500  174.1270  141.0440 C   0  0  0  0  0  0  0  0  0  0  0  0
  189.1900  176.0870  145.5560 N   0  0  0  0  0  0  0  0  0  0  0  0
  187.3900  176.8270  142.4910 C   0  0  0  0  0  0  0  0  0  0  0  0
  187.5370  176.0090  140.2120 C   0  0  0  0  0  3  0  0  0  0  0  0
  184.9350  178.6300  140.3780 O   0  0  0  0  0  1  0  0  0  0  0  0
  185.1120  177.8000  144.3180 C   0  0  1  0  0  3  0  0  0  0  0  0
  185.9330  177.7350  140.7560 C   0  0  0  0  0  0  0  0  0  0  0  0
  186.1010  177.4910  145.3750 N   0  0  2  0  0  0  0  0  0  0  0  0
  188.4470  177.0460  146.0090 C   0  0  0  0  0  0  0  0  0  0  0  0
  186.5290  176.8800  139.8050 C   0  0  0  0  0  0  0  0  0  0  0  0
  186.3470  177.7010  142.0980 C   0  0  0  0  0  0  0  0  0  0  0  0
  190.6510  173.2680  141.5040 C   0  0  0  0  0  3  0  0  0  0  0  0
  185.8030  178.4320  146.4480 C   0  0  0  0  0  2  0  0  0  0  0  0
  183.9500  178.5420  144.9530 C   0  0  0  0  0  2  0  0  0  0  0  0
  189.3060  174.0520  139.6980 O   0  0  0  0  0  1  0  0  0  0  0  0
  188.8410  175.9120  144.1950 C   0  0  0  0  0  0  0  0  0  0  0  0
  191.0490  173.2840  142.8390 C   0  0  0  0  0  3  0  0  0  0  0  0
  189.0160  175.0360  141.9370 C   0  0  0  0  0  0  0  0  0  0  0  0
  187.8580  176.7810  143.8120 C   0  0  0  0  0  0  0  0  0  0  0  0
  188.6000  177.5500  147.4010 C   0  0  0  0  0  1  0  0  0  0  0  0
  187.5120  177.6510  144.9810 C   0  0  1  0  0  3  0  0  0  0  0  0
  184.3190  178.7010  146.4040 C   0  0  0  0  0  2  0  0  0  0  0  0
  186.3530  179.8780  143.3850 C   0  0  0  0  0  1  0  0  0  0  0  0
  190.4450  174.1630  143.7330 C   0  0  0  0  0  3  0  0  0  0  0  0
  189.4380  175.0300  143.2980 C   0  0  0  0  0  0  0  0  0  0  0  0
  185.6210  178.5760  143.0850 C   0  0  2  0  0  3  0  0  0  0  0  0
  186.1670  176.8510  138.4490 O   0  0  0  0  0  0  0  0  0  0  0  0
  185.9230  176.0450  136.1930 C   0  0  0  0  0  1  0  0  0  0  0  0
  186.7500  176.0070  137.4650 C   0  0  0  0  0  2  0  0  0  0  0  0
  1 19  2  0  0  0  0
  1  4  1  0  0  0  0
  2 13  2  0  0  0  0
  2 19  1  0  0  0  0
  3 10  2  0  0  0  0
  4 20  2  0  0  0  0
  5  1  1  0  0  0  0
  6  8  1  0  0  0  0
  7 15  1  1  0  0  0
  7  9  1  0  0  0  0
  8 12  2  0  0  0  0
  9 14  1  1  0  0  0
 10 21  1  0  0  0  0
 11  5  2  0  0  0  0
 11  8  1  0  0  0  0
 12  4  1  0  0  0  0
 12 27  1  0  0  0  0
 13 18  1  0  0  0  0
 15 23  1  0  0  0  0
 16  2  1  0  0  0  0
 17  3  1  0  0  0  0
 18 25  2  0  0  0  0
 19 26  1  0  0  0  0
 20 17  1  0  0  0  0
 22 20  1  6  0  0  0
 22  9  1  0  0  0  0
 22 10  1  0  0  0  0
 23 14  1  0  0  0  0
 26 25  1  0  0  0  0
 26 17  2  0  0  0  0
 27 24  1  1  0  0  0
 27  7  1  0  0  0  0
 28 11  1  0  0  0  0
 29 30  1  0  0  0  0
 30 28  1  0  0  0  0
M  END
>  <MODEL>
8

>  <REMARK>
 VINA RESULT:      -7.8      2.946      7.345
  Name = 
  2 active torsions:
  status: ('A' for Active; 'I' for Inactive)
    1  A    between atoms: C_11  and  O_28
    2  A    between atoms: O_28  and  C_30
                            x       y       z     vdW  Elec       q    Type
                         _______ _______ _______ _____ _____    ______ ____

>  <TORSDO>
F 2

$$$$
=
 OpenBabel11112416173D

 30 35  0  0  1  0  0  0  0  0999 V2000
  189.1680  175.4010  142.9440 C   0  0  0  0  0  0  0  0  0  0  0  0
  187.0450  176.3870  143.8690 C   0  0  0  0  0  0  0  0  0  0  0  0
  191.3730  176.8520  146.2070 N   0  0  0  0  0  0  0  0  0  0  0  0
  190.5750  175.2070  143.0700 C   0  0  0  0  0  0  0  0  0  0  0  0
  188.5200  174.8430  141.8350 C   0  0  0  0  0  3  0  0  0  0  0  0
  191.3070  173.2220  140.0270 O   0  0  0  0  0  1  0  0  0  0  0  0
  193.5190  175.6950  142.3140 C   0  0  1  0  0  3  0  0  0  0  0  0
  190.5970  173.9490  140.9790 C   0  0  0  0  0  0  0  0  0  0  0  0
  193.5730  176.2290  143.6940 N   0  0  2  0  0  0  0  0  0  0  0  0
  192.5540  176.3920  145.9380 C   0  0  0  0  0  0  0  0  0  0  0  0
  189.2030  174.1250  140.8560 C   0  0  0  0  0  0  0  0  0  0  0  0
  191.2880  174.5000  142.0710 C   0  0  0  0  0  0  0  0  0  0  0  0
  186.4080  177.1200  144.8740 C   0  0  0  0  0  3  0  0  0  0  0  0
  194.9380  175.9700  144.1370 C   0  0  0  0  0  2  0  0  0  0  0  0
  194.9370  175.5970  141.7830 C   0  0  0  0  0  2  0  0  0  0  0  0
  186.2610  175.9130  142.8240 O   0  0  0  0  0  1  0  0  0  0  0  0
  190.5310  176.4590  145.1390 C   0  0  0  0  0  0  0  0  0  0  0  0
  187.1270  177.6280  145.9530 C   0  0  0  0  0  3  0  0  0  0  0  0
  188.4460  176.1470  143.9330 C   0  0  0  0  0  0  0  0  0  0  0  0
  191.2160  175.7480  144.1940 C   0  0  0  0  0  0  0  0  0  0  0  0
  193.6840  176.5590  146.8920 C   0  0  0  0  0  1  0  0  0  0  0  0
  192.6370  175.6050  144.6450 C   0  0  1  0  0  3  0  0  0  0  0  0
  195.8230  176.0410  142.9180 C   0  0  0  0  0  2  0  0  0  0  0  0
  193.2540  173.2060  142.9970 C   0  0  0  0  0  1  0  0  0  0  0  0
  188.4990  177.4090  146.0400 C   0  0  0  0  0  3  0  0  0  0  0  0
  189.1610  176.6810  145.0450 C   0  0  0  0  0  0  0  0  0  0  0  0
  192.7850  174.3530  142.1080 C   0  0  2  0  0  3  0  0  0  0  0  0
  188.4430  173.6100  139.7930 O   0  0  0  0  0  0  0  0  0  0  0  0
  189.0290  173.6890  137.4590 C   0  0  0  0  0  1  0  0  0  0  0  0
  188.1850  174.2860  138.5700 C   0  0  0  0  0  2  0  0  0  0  0  0
  1  4  1  0  0  0  0
  1 19  1  0  0  0  0
  2 19  2  0  0  0  0
  2 13  1  0  0  0  0
  4 20  1  0  0  0  0
  5  1  2  0  0  0  0
  6  8  1  0  0  0  0
  7 15  1  1  0  0  0
  7  9  1  0  0  0  0
  8 12  1  0  0  0  0
  9 14  1  1  0  0  0
  9 22  1  0  0  0  0
 10  3  2  0  0  0  0
 10 21  1  0  0  0  0
 11  8  2  0  0  0  0
 11  5  1  0  0  0  0
 12 27  1  0  0  0  0
 12  4  2  0  0  0  0
 13 18  2  0  0  0  0
 15 23  1  0  0  0  0
 16  2  1  0  0  0  0
 17  3  1  0  0  0  0
 18 25  1  0  0  0  0
 19 26  1  0  0  0  0
 20 17  2  0  0  0  0
 22 20  1  6  0  0  0
 22 10  1  0  0  0  0
 23 14  1  0  0  0  0
 26 17  1  0  0  0  0
 26 25  2  0  0  0  0
 27  7  1  0  0  0  0
 27 24  1  1  0  0  0
 28 11  1  0  0  0  0
 29 30  1  0  0  0  0
 30 28  1  0  0  0  0
M  END
>  <MODEL>
9

>  <REMARK>
 VINA RESULT:      -7.5      3.286      6.014
  Name = 
  2 active torsions:
  status: ('A' for Active; 'I' for Inactive)
    1  A    between atoms: C_11  and  O_28
    2  A    between atoms: O_28  and  C_30
                            x       y       z     vdW  Elec       q    Type
                         _______ _______ _______ _____ _____    ______ ____

>  <TORSDO>
F 2

$$$$
