=
 OpenBabel11112417373D

 28 32  0  0  1  0  0  0  0  0999 V2000
  191.9080  176.2870  145.1540 C   0  0  0  0  0  0  0  0  0  0  0  0
  189.9860  174.3170  141.1560 C   0  0  0  0  0  1  0  0  0  0  0  0
  185.7220  177.4290  146.2010 O   0  0  0  0  0  0  0  0  0  0  0  0
  193.3280  176.1310  142.7440 C   0  0  0  0  0  3  0  0  0  0  0  0
  186.9450  178.3600  144.4190 N   0  0  0  0  0  0  0  0  0  0  0  0
  191.2530  176.4420  146.4850 C   0  0  0  0  0  2  0  0  0  0  0  0
  187.7890  174.1200  142.2290 C   0  0  0  0  0  1  0  0  0  0  0  0
  188.7430  175.0940  141.5370 C   0  0  0  0  0  0  0  0  0  0  0  0
  187.0980  176.5130  140.6210 C   0  0  2  0  0  3  0  0  0  0  0  0
  189.1260  176.2730  142.4460 C   0  0  1  0  0  3  0  0  0  0  0  0
  188.6870  174.1350  147.6520 O   0  0  0  0  0  0  0  0  0  0  0  0
  188.9620  177.1400  144.7000 C   0  0  1  0  0  3  0  0  0  0  0  0
  187.5430  177.6310  141.3660 O   0  0  0  0  0  0  0  0  0  0  0  0
  188.1620  175.6050  140.3370 O   0  0  0  0  0  0  0  0  0  0  0  0
  189.2170  175.1990  147.2410 C   0  0  0  0  0  0  0  0  0  0  0  0
  191.1870  176.1740  143.9320 C   0  0  0  0  0  0  0  0  0  0  0  0
  186.7670  177.4630  145.4970 C   0  0  0  0  0  0  0  0  0  0  0  0
  186.5040  176.9660  139.3760 N   0  0  0  0  0  1  0  0  0  0  0  0
  188.3770  176.4250  147.0720 C   0  0  0  0  0  2  0  0  0  0  0  0
  191.9350  176.0920  142.7400 C   0  0  0  0  0  3  0  0  0  0  0  0
  193.3070  176.3260  145.1440 C   0  0  0  0  0  3  0  0  0  0  0  0
  194.0160  176.2460  143.9490 C   0  0  0  0  0  3  0  0  0  0  0  0
  190.5990  175.2080  146.8860 N   0  0  0  0  0  2  0  0  0  0  0  0
  188.1770  178.0440  143.7230 C   0  0  1  0  0  3  0  0  0  0  0  0
  187.8980  176.5190  145.6330 C   0  0  2  0  0  3  0  0  0  0  0  0
  187.8840  177.0830  142.6000 C   0  0  2  0  0  3  0  0  0  0  0  0
  185.9170  179.2490  143.9040 C   0  0  0  0  0  1  0  0  0  0  0  0
  189.6610  176.0450  143.8670 C   0  0  2  0  0  3  0  0  0  0  0  0
  1  6  1  0  0  0  0
  2  8  1  0  0  0  0
  4 22  1  0  0  0  0
  5 17  1  0  0  0  0
  6 23  1  0  0  0  0
  8  7  1  0  0  0  0
  9 18  1  6  0  0  0
  9 13  1  0  0  0  0
 10  8  1  1  0  0  0
 10 26  1  0  0  0  0
 10 28  1  0  0  0  0
 12 25  1  0  0  0  0
 13 26  1  0  0  0  0
 14  9  1  0  0  0  0
 14  8  1  0  0  0  0
 15 11  2  0  0  0  0
 16  1  2  0  0  0  0
 17 25  1  0  0  0  0
 17  3  2  0  0  0  0
 19 15  1  0  0  0  0
 20  4  2  0  0  0  0
 20 16  1  0  0  0  0
 21  1  1  0  0  0  0
 22 21  2  0  0  0  0
 23 15  1  0  0  0  0
 24  5  1  0  0  0  0
 24 12  1  0  0  0  0
 25 19  1  0  0  0  0
 26 24  1  0  0  0  0
 27  5  1  0  0  0  0
 28 16  1  0  0  0  0
 28 12  1  0  0  0  0
M  END
>  <MODEL>
1

>  <REMARK>
 VINA RESULT:      -8.3      0.000      0.000
  Name = 
  0 active torsions:
  status: ('A' for Active; 'I' for Inactive)
                            x       y       z     vdW  Elec       q    Type
                         _______ _______ _______ _____ _____    ______ ____

>  <TORSDO>
F 0

$$$$
=
 OpenBabel11112417373D

 28 32  0  0  1  0  0  0  0  0999 V2000
  189.7740  176.4680  145.6830 C   0  0  0  0  0  0  0  0  0  0  0  0
  189.4950  172.2590  143.2810 C   0  0  0  0  0  1  0  0  0  0  0  0
  184.7570  177.6480  141.9270 O   0  0  0  0  0  0  0  0  0  0  0  0
  192.0250  174.8630  145.2300 C   0  0  0  0  0  3  0  0  0  0  0  0
  186.9360  177.2630  141.1240 N   0  0  0  0  0  0  0  0  0  0  0  0
  188.6580  177.4130  145.9740 C   0  0  0  0  0  2  0  0  0  0  0  0
  187.1540  172.6790  142.6820 C   0  0  0  0  0  1  0  0  0  0  0  0
  188.6000  173.0210  142.3260 C   0  0  0  0  0  0  0  0  0  0  0  0
  188.2520  173.4010  140.0250 C   0  0  2  0  0  3  0  0  0  0  0  0
  188.8840  174.5280  142.4400 C   0  0  1  0  0  3  0  0  0  0  0  0
  185.2180  176.2770  146.3600 O   0  0  0  0  0  0  0  0  0  0  0  0
  187.9620  176.6430  143.1730 C   0  0  1  0  0  3  0  0  0  0  0  0
  188.6430  174.7580  140.1140 O   0  0  0  0  0  0  0  0  0  0  0  0
  188.9100  172.5920  141.0000 O   0  0  0  0  0  0  0  0  0  0  0  0
  186.2230  176.8450  145.8600 C   0  0  0  0  0  0  0  0  0  0  0  0
  189.7590  175.5430  144.6010 C   0  0  0  0  0  0  0  0  0  0  0  0
  185.9440  177.2760  142.1320 C   0  0  0  0  0  0  0  0  0  0  0  0
  188.5520  172.8970  138.6970 N   0  0  0  0  0  1  0  0  0  0  0  0
  186.0800  177.6130  144.5850 C   0  0  0  0  0  2  0  0  0  0  0  0
  190.9060  174.7490  144.4070 C   0  0  0  0  0  3  0  0  0  0  0  0
  190.9040  176.5730  146.5010 C   0  0  0  0  0  3  0  0  0  0  0  0
  192.0240  175.7760  146.2810 C   0  0  0  0  0  3  0  0  0  0  0  0
  187.4980  176.7020  146.4850 N   0  0  0  0  0  2  0  0  0  0  0  0
  188.1420  176.6430  141.6380 C   0  0  1  0  0  3  0  0  0  0  0  0
  186.4370  176.7180  143.4100 C   0  0  2  0  0  3  0  0  0  0  0  0
  188.1120  175.1680  141.3360 C   0  0  2  0  0  3  0  0  0  0  0  0
  186.6910  177.5390  139.7190 C   0  0  0  0  0  1  0  0  0  0  0  0
  188.5310  175.3130  143.7110 C   0  0  2  0  0  3  0  0  0  0  0  0
  1  6  1  0  0  0  0
  1 21  1  0  0  0  0
  3 17  2  0  0  0  0
  4 22  1  0  0  0  0
  5 24  1  0  0  0  0
  5 17  1  0  0  0  0
  6 23  1  0  0  0  0
  8  7  1  0  0  0  0
  8  2  1  0  0  0  0
  9 18  1  6  0  0  0
  9 13  1  0  0  0  0
  9 14  1  0  0  0  0
 10  8  1  1  0  0  0
 10 28  1  0  0  0  0
 12 25  1  0  0  0  0
 12 28  1  0  0  0  0
 13 26  1  0  0  0  0
 14  8  1  0  0  0  0
 15 11  2  0  0  0  0
 15 23  1  0  0  0  0
 16  1  2  0  0  0  0
 17 25  1  0  0  0  0
 19 15  1  0  0  0  0
 20 16  1  0  0  0  0
 20  4  2  0  0  0  0
 22 21  2  0  0  0  0
 24 12  1  0  0  0  0
 25 19  1  0  0  0  0
 26 24  1  0  0  0  0
 26 10  1  0  0  0  0
 27  5  1  0  0  0  0
 28 16  1  0  0  0  0
M  END
>  <MODEL>
2

>  <REMARK>
 VINA RESULT:      -8.0      1.960      3.087
  Name = 
  0 active torsions:
  status: ('A' for Active; 'I' for Inactive)
                            x       y       z     vdW  Elec       q    Type
                         _______ _______ _______ _____ _____    ______ ____

>  <TORSDO>
F 0

$$$$
=
 OpenBabel11112417373D

 28 32  0  0  1  0  0  0  0  0999 V2000
  187.5850  176.4050  142.0430 C   0  0  0  0  0  0  0  0  0  0  0  0
  187.4300  176.6660  146.8880 C   0  0  0  0  0  1  0  0  0  0  0  0
  192.9070  173.2130  143.5110 O   0  0  0  0  0  0  0  0  0  0  0  0
  186.3300  178.5250  143.3790 C   0  0  0  0  0  3  0  0  0  0  0  0
  192.5730  175.4940  143.9850 N   0  0  0  0  0  0  0  0  0  0  0  0
  188.2320  175.3430  141.2210 C   0  0  0  0  0  2  0  0  0  0  0  0
  188.9410  174.7470  147.1060 C   0  0  0  0  0  1  0  0  0  0  0  0
  188.8840  176.2470  146.8200 C   0  0  0  0  0  0  0  0  0  0  0  0
  191.0070  176.7910  147.6900 C   0  0  2  0  0  3  0  0  0  0  0  0
  189.4610  176.5950  145.4380 C   0  0  1  0  0  3  0  0  0  0  0  0
  188.5660  171.9160  142.4090 O   0  0  0  0  0  0  0  0  0  0  0  0
  190.2850  175.6500  143.3670 C   0  0  1  0  0  3  0  0  0  0  0  0
  191.4890  177.2350  146.4360 O   0  0  0  0  0  0  0  0  0  0  0  0
  189.5980  176.9790  147.8160 O   0  0  0  0  0  0  0  0  0  0  0  0
  188.8920  173.0780  142.0530 C   0  0  0  0  0  0  0  0  0  0  0  0
  187.9710  176.7070  143.3810 C   0  0  0  0  0  0  0  0  0  0  0  0
  192.1380  174.2090  143.5860 C   0  0  0  0  0  0  0  0  0  0  0  0
  191.6880  177.5090  148.7520 N   0  0  0  0  0  1  0  0  0  0  0  0
  190.3350  173.4720  142.0520 C   0  0  0  0  0  2  0  0  0  0  0  0
  187.3140  177.7750  144.0220 C   0  0  0  0  0  3  0  0  0  0  0  0
  186.5980  177.1660  141.4080 C   0  0  0  0  0  3  0  0  0  0  0  0
  185.9700  178.2180  142.0700 C   0  0  0  0  0  3  0  0  0  0  0  0
  187.8790  174.0220  141.7110 N   0  0  0  0  0  2  0  0  0  0  0  0
  191.4280  176.3750  144.1150 C   0  0  1  0  0  3  0  0  0  0  0  0
  190.6760  174.1550  143.3660 C   0  0  2  0  0  3  0  0  0  0  0  0
  190.9250  176.3330  145.5350 C   0  0  2  0  0  3  0  0  0  0  0  0
  193.9030  175.8000  144.4820 C   0  0  0  0  0  1  0  0  0  0  0  0
  188.9860  175.8720  144.1690 C   0  0  2  0  0  3  0  0  0  0  0  0
  1 16  1  0  0  0  0
  3 17  2  0  0  0  0
  4 20  1  0  0  0  0
  5 24  1  0  0  0  0
  5 27  1  0  0  0  0
  6 23  1  0  0  0  0
  6  1  1  0  0  0  0
  8  2  1  0  0  0  0
  8  7  1  0  0  0  0
  8 14  1  0  0  0  0
  9 14  1  0  0  0  0
  9 18  1  1  0  0  0
 10 26  1  0  0  0  0
 10  8  1  1  0  0  0
 12 24  1  0  0  0  0
 12 28  1  0  0  0  0
 13  9  1  0  0  0  0
 15 11  2  0  0  0  0
 16 20  2  0  0  0  0
 16 28  1  0  0  0  0
 17  5  1  0  0  0  0
 19 15  1  0  0  0  0
 19 25  1  0  0  0  0
 21  1  2  0  0  0  0
 21 22  1  0  0  0  0
 22  4  2  0  0  0  0
 23 15  1  0  0  0  0
 24 26  1  0  0  0  0
 25 12  1  0  0  0  0
 25 17  1  0  0  0  0
 26 13  1  0  0  0  0
 28 10  1  0  0  0  0
M  END
>  <MODEL>
3

>  <REMARK>
 VINA RESULT:      -7.9      2.387      6.298
  Name = 
  0 active torsions:
  status: ('A' for Active; 'I' for Inactive)
                            x       y       z     vdW  Elec       q    Type
                         _______ _______ _______ _____ _____    ______ ____

>  <TORSDO>
F 0

$$$$
=
 OpenBabel11112417373D

 28 32  0  0  1  0  0  0  0  0999 V2000
  188.5680  173.7370  142.5520 C   0  0  0  0  0  0  0  0  0  0  0  0
  192.5410  175.4890  144.7210 C   0  0  0  0  0  1  0  0  0  0  0  0
  186.2320  179.1590  144.9640 O   0  0  0  0  0  0  0  0  0  0  0  0
  190.5950  172.0610  143.5190 C   0  0  0  0  0  3  0  0  0  0  0  0
  187.0410  177.3800  146.2760 N   0  0  0  0  0  0  0  0  0  0  0  0
  187.4190  174.5190  142.0130 C   0  0  0  0  0  2  0  0  0  0  0  0
  191.6170  177.7620  144.7260 C   0  0  0  0  0  1  0  0  0  0  0  0
  191.5760  176.4100  145.4390 C   0  0  0  0  0  0  0  0  0  0  0  0
  191.0550  177.2290  147.5880 C   0  0  2  0  0  3  0  0  0  0  0  0
  190.1670  175.7940  145.4310 C   0  0  1  0  0  3  0  0  0  0  0  0
  187.8160  177.9160  140.7580 O   0  0  0  0  0  0  0  0  0  0  0  0
  187.9310  176.0340  144.5350 C   0  0  1  0  0  3  0  0  0  0  0  0
  189.8150  176.5490  147.6270 O   0  0  0  0  0  0  0  0  0  0  0  0
  192.0170  176.5370  146.7910 O   0  0  0  0  0  0  0  0  0  0  0  0
  187.4560  176.9690  141.5040 C   0  0  0  0  0  0  0  0  0  0  0  0
  189.4320  174.2160  143.5780 C   0  0  0  0  0  0  0  0  0  0  0  0
  186.8520  178.0650  145.0540 C   0  0  0  0  0  0  0  0  0  0  0  0
  191.5660  177.3810  148.9380 N   0  0  0  0  0  1  0  0  0  0  0  0
  186.6340  177.2570  142.7190 C   0  0  0  0  0  2  0  0  0  0  0  0
  190.4430  173.3480  144.0340 C   0  0  0  0  0  3  0  0  0  0  0  0
  188.7300  172.4430  142.0440 C   0  0  0  0  0  3  0  0  0  0  0  0
  189.7380  171.6090  142.5200 C   0  0  0  0  0  3  0  0  0  0  0  0
  187.8850  175.6390  141.2140 N   0  0  0  0  0  2  0  0  0  0  0  0
  187.9180  176.2440  146.0660 C   0  0  1  0  0  3  0  0  0  0  0  0
  187.5450  177.4010  143.9270 C   0  0  2  0  0  3  0  0  0  0  0  0
  189.3430  176.6610  146.3210 C   0  0  2  0  0  3  0  0  0  0  0  0
  186.6730  177.9010  147.5820 C   0  0  0  0  0  1  0  0  0  0  0  0
  189.3680  175.6450  144.1280 C   0  0  2  0  0  3  0  0  0  0  0  0
  1 16  1  0  0  0  0
  2  8  1  0  0  0  0
  3 17  2  0  0  0  0
  4 20  1  0  0  0  0
  5 27  1  0  0  0  0
  6  1  1  0  0  0  0
  7  8  1  0  0  0  0
  8 14  1  0  0  0  0
  9 13  1  0  0  0  0
  9 18  1  1  0  0  0
 10  8  1  6  0  0  0
 10 26  1  0  0  0  0
 11 15  2  0  0  0  0
 12 24  1  0  0  0  0
 14  9  1  0  0  0  0
 15 19  1  0  0  0  0
 16 20  2  0  0  0  0
 16 28  1  0  0  0  0
 17  5  1  0  0  0  0
 19 25  1  0  0  0  0
 21 22  1  0  0  0  0
 21  1  2  0  0  0  0
 22  4  2  0  0  0  0
 23 15  1  0  0  0  0
 23  6  1  0  0  0  0
 24  5  1  0  0  0  0
 24 26  1  0  0  0  0
 25 12  1  0  0  0  0
 25 17  1  0  0  0  0
 26 13  1  0  0  0  0
 28 12  1  0  0  0  0
 28 10  1  0  0  0  0
M  END
>  <MODEL>
4

>  <REMARK>
 VINA RESULT:      -7.8      1.970      5.310
  Name = 
  0 active torsions:
  status: ('A' for Active; 'I' for Inactive)
                            x       y       z     vdW  Elec       q    Type
                         _______ _______ _______ _____ _____    ______ ____

>  <TORSDO>
F 0

$$$$
=
 OpenBabel11112417373D

 28 32  0  0  1  0  0  0  0  0999 V2000
  192.1510  176.0880  144.8930 C   0  0  0  0  0  0  0  0  0  0  0  0
  191.2810  172.1970  142.1250 C   0  0  0  0  0  1  0  0  0  0  0  0
  185.8340  176.6000  144.1910 O   0  0  0  0  0  0  0  0  0  0  0  0
  194.0790  175.0440  143.1480 C   0  0  0  0  0  3  0  0  0  0  0  0
  187.3690  176.7640  142.4150 N   0  0  0  0  0  0  0  0  0  0  0  0
  191.2090  176.7440  145.8440 C   0  0  0  0  0  2  0  0  0  0  0  0
  188.9140  172.1850  142.7700 C   0  0  0  0  0  1  0  0  0  0  0  0
  189.9430  172.8560  141.8600 C   0  0  0  0  0  0  0  0  0  0  0  0
  188.4660  173.4010  140.1040 C   0  0  2  0  0  3  0  0  0  0  0  0
  190.0470  174.3670  142.1200 C   0  0  1  0  0  3  0  0  0  0  0  0
  188.5800  174.8850  147.5470 O   0  0  0  0  0  0  0  0  0  0  0  0
  189.3370  176.1530  143.5920 C   0  0  1  0  0  3  0  0  0  0  0  0
  188.6710  174.7920  140.2640 O   0  0  0  0  0  0  0  0  0  0  0  0
  189.6160  172.6450  140.4860 O   0  0  0  0  0  0  0  0  0  0  0  0
  189.1280  175.7000  146.7600 C   0  0  0  0  0  0  0  0  0  0  0  0
  191.7280  175.3030  143.7830 C   0  0  0  0  0  0  0  0  0  0  0  0
  187.0050  176.4630  143.7470 C   0  0  0  0  0  0  0  0  0  0  0  0
  188.1400  173.1160  138.7180 N   0  0  0  0  0  1  0  0  0  0  0  0
  188.2800  176.5540  145.8720 C   0  0  0  0  0  2  0  0  0  0  0  0
  192.7260  174.7900  142.9310 C   0  0  0  0  0  3  0  0  0  0  0  0
  193.5130  176.3370  145.0990 C   0  0  0  0  0  3  0  0  0  0  0  0
  194.4740  175.8180  144.2350 C   0  0  0  0  0  3  0  0  0  0  0  0
  190.5510  175.7580  146.6840 N   0  0  0  0  0  2  0  0  0  0  0  0
  188.7410  176.3560  142.1810 C   0  0  1  0  0  3  0  0  0  0  0  0
  188.1290  175.8840  144.5170 C   0  0  2  0  0  3  0  0  0  0  0  0
  188.7590  174.9480  141.6460 C   0  0  2  0  0  3  0  0  0  0  0  0
  186.4340  177.1330  141.3650 C   0  0  0  0  0  1  0  0  0  0  0  0
  190.2640  174.9210  143.5360 C   0  0  2  0  0  3  0  0  0  0  0  0
  1 21  1  0  0  0  0
  1  6  1  0  0  0  0
  4 22  1  0  0  0  0
  5 17  1  0  0  0  0
  6 23  1  0  0  0  0
  8  2  1  0  0  0  0
  8  7  1  0  0  0  0
  9 18  1  6  0  0  0
  9 13  1  0  0  0  0
  9 14  1  0  0  0  0
 10  8  1  1  0  0  0
 10 28  1  0  0  0  0
 12 25  1  0  0  0  0
 13 26  1  0  0  0  0
 14  8  1  0  0  0  0
 15 11  2  0  0  0  0
 16  1  2  0  0  0  0
 17  3  2  0  0  0  0
 17 25  1  0  0  0  0
 19 15  1  0  0  0  0
 20  4  2  0  0  0  0
 20 16  1  0  0  0  0
 22 21  2  0  0  0  0
 23 15  1  0  0  0  0
 24  5  1  0  0  0  0
 24 12  1  0  0  0  0
 25 19  1  0  0  0  0
 26 10  1  0  0  0  0
 26 24  1  0  0  0  0
 27  5  1  0  0  0  0
 28 12  1  0  0  0  0
 28 16  1  0  0  0  0
M  END
>  <MODEL>
5

>  <REMARK>
 VINA RESULT:      -7.7      1.661      2.142
  Name = 
  0 active torsions:
  status: ('A' for Active; 'I' for Inactive)
                            x       y       z     vdW  Elec       q    Type
                         _______ _______ _______ _____ _____    ______ ____

>  <TORSDO>
F 0

$$$$
=
 OpenBabel11112417373D

 28 32  0  0  1  0  0  0  0  0999 V2000
  188.0150  176.1350  146.4640 C   0  0  0  0  0  0  0  0  0  0  0  0
  186.6430  179.0650  142.8450 C   0  0  0  0  0  1  0  0  0  0  0  0
  191.8510  174.0510  141.8160 O   0  0  0  0  0  0  0  0  0  0  0  0
  185.4320  177.2120  146.3210 C   0  0  0  0  0  3  0  0  0  0  0  0
  189.5040  173.8820  141.7550 N   0  0  0  0  0  0  0  0  0  0  0  0
  189.3470  175.4910  146.6430 C   0  0  0  0  0  2  0  0  0  0  0  0
  188.7400  178.6660  141.6380 C   0  0  0  0  0  1  0  0  0  0  0  0
  187.3660  178.0770  141.9540 C   0  0  0  0  0  0  0  0  0  0  0  0
  187.1040  176.8570  139.9540 C   0  0  2  0  0  3  0  0  0  0  0  0
  187.4690  176.7170  142.6640 C   0  0  1  0  0  3  0  0  0  0  0  0
  192.4090  177.0060  145.3790 O   0  0  0  0  0  0  0  0  0  0  0  0
  189.0090  175.1580  143.6940 C   0  0  1  0  0  3  0  0  0  0  0  0
  187.0660  175.6140  140.6290 O   0  0  0  0  0  0  0  0  0  0  0  0
  186.5970  177.9180  140.7620 O   0  0  0  0  0  0  0  0  0  0  0  0
  191.4540  176.1950  145.4920 C   0  0  0  0  0  0  0  0  0  0  0  0
  187.5090  176.5560  145.2010 C   0  0  0  0  0  0  0  0  0  0  0  0
  190.7240  174.3600  142.2880 C   0  0  0  0  0  0  0  0  0  0  0  0
  186.3270  176.7660  138.7310 N   0  0  0  0  0  1  0  0  0  0  0  0
  191.3860  175.0050  144.5890 C   0  0  0  0  0  2  0  0  0  0  0  0
  186.2090  177.0980  145.1690 C   0  0  0  0  0  3  0  0  0  0  0  0
  187.2250  176.2540  147.6130 C   0  0  0  0  0  3  0  0  0  0  0  0
  185.9420  176.7910  147.5460 C   0  0  0  0  0  3  0  0  0  0  0  0
  190.4180  176.4510  146.4380 N   0  0  0  0  0  2  0  0  0  0  0  0
  188.3940  174.5370  142.4200 C   0  0  1  0  0  3  0  0  0  0  0  0
  190.5140  175.3270  143.3870 C   0  0  2  0  0  3  0  0  0  0  0  0
  188.0070  175.7700  141.6460 C   0  0  2  0  0  3  0  0  0  0  0  0
  189.3840  173.0990  140.5360 C   0  0  0  0  0  1  0  0  0  0  0  0
  188.3410  176.5320  143.9150 C   0  0  2  0  0  3  0  0  0  0  0  0
  1  6  1  0  0  0  0
  1 21  1  0  0  0  0
  3 17  2  0  0  0  0
  4 22  1  0  0  0  0
  5 17  1  0  0  0  0
  5 24  1  0  0  0  0
  7  8  1  0  0  0  0
  8  2  1  0  0  0  0
  9 18  1  6  0  0  0
  9 13  1  0  0  0  0
  9 14  1  0  0  0  0
 10  8  1  6  0  0  0
 10 28  1  0  0  0  0
 11 15  2  0  0  0  0
 12 28  1  0  0  0  0
 13 26  1  0  0  0  0
 14  8  1  0  0  0  0
 15 23  1  0  0  0  0
 16  1  2  0  0  0  0
 17 25  1  0  0  0  0
 19 15  1  0  0  0  0
 20 16  1  0  0  0  0
 20  4  2  0  0  0  0
 22 21  2  0  0  0  0
 23  6  1  0  0  0  0
 24 12  1  0  0  0  0
 25 12  1  0  0  0  0
 25 19  1  0  0  0  0
 26 24  1  0  0  0  0
 26 10  1  0  0  0  0
 27  5  1  0  0  0  0
 28 16  1  0  0  0  0
M  END
>  <MODEL>
6

>  <REMARK>
 VINA RESULT:      -7.6      2.107      4.824
  Name = 
  0 active torsions:
  status: ('A' for Active; 'I' for Inactive)
                            x       y       z     vdW  Elec       q    Type
                         _______ _______ _______ _____ _____    ______ ____

>  <TORSDO>
F 0

$$$$
=
 OpenBabel11112417373D

 28 32  0  0  1  0  0  0  0  0999 V2000
  187.5930  176.3880  142.6850 C   0  0  0  0  0  0  0  0  0  0  0  0
  189.6690  176.1790  147.0680 C   0  0  0  0  0  1  0  0  0  0  0  0
  193.0730  173.4870  141.1950 O   0  0  0  0  0  0  0  0  0  0  0  0
  187.0370  178.2710  144.6850 C   0  0  0  0  0  3  0  0  0  0  0  0
  192.9370  175.6810  142.0360 N   0  0  0  0  0  0  0  0  0  0  0  0
  187.8170  175.4610  141.5390 C   0  0  0  0  0  2  0  0  0  0  0  0
  191.1600  174.3680  146.3490 C   0  0  0  0  0  1  0  0  0  0  0  0
  190.9400  175.8800  146.3000 C   0  0  0  0  0  0  0  0  0  0  0  0
  193.2120  176.5000  146.1720 C   0  0  2  0  0  3  0  0  0  0  0  0
  190.8100  176.4000  144.8590 C   0  0  1  0  0  3  0  0  0  0  0  0
  188.7430  171.9720  142.0320 O   0  0  0  0  0  0  0  0  0  0  0  0
  190.6180  175.7200  142.5440 C   0  0  1  0  0  3  0  0  0  0  0  0
  193.0540  177.0970  144.8990 O   0  0  0  0  0  0  0  0  0  0  0  0
  192.0130  176.5680  146.9440 O   0  0  0  0  0  0  0  0  0  0  0  0
  188.8410  173.1840  141.7070 C   0  0  0  0  0  0  0  0  0  0  0  0
  188.5410  176.5910  143.7290 C   0  0  0  0  0  0  0  0  0  0  0  0
  192.4000  174.4100  141.7270 C   0  0  0  0  0  0  0  0  0  0  0  0
  194.2860  177.1660  146.8880 N   0  0  0  0  0  1  0  0  0  0  0  0
  190.1130  173.6860  141.1000 C   0  0  0  0  0  2  0  0  0  0  0  0
  188.2250  177.5410  144.7190 C   0  0  0  0  0  3  0  0  0  0  0  0
  186.4050  177.1270  142.6610 C   0  0  0  0  0  3  0  0  0  0  0  0
  186.1250  178.0620  143.6550 C   0  0  0  0  0  3  0  0  0  0  0  0
  187.7610  174.0760  141.9760 N   0  0  0  0  0  2  0  0  0  0  0  0
  191.9570  176.4560  142.7730 C   0  0  1  0  0  3  0  0  0  0  0  0
  191.0010  174.2660  142.1880 C   0  0  2  0  0  3  0  0  0  0  0  0
  192.1620  176.2430  144.2510 C   0  0  2  0  0  3  0  0  0  0  0  0
  194.3390  176.0400  141.9090 C   0  0  0  0  0  1  0  0  0  0  0  0
  189.8250  175.7650  143.8670 C   0  0  2  0  0  3  0  0  0  0  0  0
  1 16  1  0  0  0  0
  3 17  2  0  0  0  0
  4 20  1  0  0  0  0
  5 24  1  0  0  0  0
  6 23  1  0  0  0  0
  6  1  1  0  0  0  0
  8  7  1  0  0  0  0
  8 14  1  0  0  0  0
  8  2  1  0  0  0  0
  9 18  1  1  0  0  0
  9 14  1  0  0  0  0
 10  8  1  1  0  0  0
 12 24  1  0  0  0  0
 12 28  1  0  0  0  0
 13  9  1  0  0  0  0
 15 23  1  0  0  0  0
 15 11  2  0  0  0  0
 16 28  1  0  0  0  0
 16 20  2  0  0  0  0
 17  5  1  0  0  0  0
 17 25  1  0  0  0  0
 19 15  1  0  0  0  0
 19 25  1  0  0  0  0
 21  1  2  0  0  0  0
 21 22  1  0  0  0  0
 22  4  2  0  0  0  0
 24 26  1  0  0  0  0
 25 12  1  0  0  0  0
 26 10  1  0  0  0  0
 26 13  1  0  0  0  0
 27  5  1  0  0  0  0
 28 10  1  0  0  0  0
M  END
>  <MODEL>
7

>  <REMARK>
 VINA RESULT:      -7.6      2.641      6.432
  Name = 
  0 active torsions:
  status: ('A' for Active; 'I' for Inactive)
                            x       y       z     vdW  Elec       q    Type
                         _______ _______ _______ _____ _____    ______ ____

>  <TORSDO>
F 0

$$$$
=
 OpenBabel11112417373D

 28 32  0  0  1  0  0  0  0  0999 V2000
  192.1500  175.5100  146.3110 C   0  0  0  0  0  0  0  0  0  0  0  0
  190.5480  172.7040  142.6890 C   0  0  0  0  0  1  0  0  0  0  0  0
  197.5270  172.4230  144.8190 O   0  0  0  0  0  0  0  0  0  0  0  0
  189.4830  174.6620  146.1540 C   0  0  0  0  0  3  0  0  0  0  0  0
  195.6030  171.3690  145.6740 N   0  0  0  0  0  0  0  0  0  0  0  0
  193.5390  176.0110  146.5130 C   0  0  0  0  0  2  0  0  0  0  0  0
  192.8260  172.3900  141.8350 C   0  0  0  0  0  1  0  0  0  0  0  0
  191.8330  171.9310  142.9020 C   0  0  0  0  0  0  0  0  0  0  0  0
  192.6500  169.7310  143.1330 C   0  0  2  0  0  3  0  0  0  0  0  0
  192.3570  172.1790  144.3260 C   0  0  1  0  0  3  0  0  0  0  0  0
  195.7990  176.6120  143.7200 O   0  0  0  0  0  0  0  0  0  0  0  0
  194.1250  173.2260  145.6050 C   0  0  1  0  0  3  0  0  0  0  0  0
  193.0090  169.9280  144.4880 O   0  0  0  0  0  0  0  0  0  0  0  0
  191.5380  170.5420  142.7540 O   0  0  0  0  0  0  0  0  0  0  0  0
  195.3160  176.0790  144.7530 C   0  0  0  0  0  0  0  0  0  0  0  0
  191.8380  174.3400  145.5620 C   0  0  0  0  0  0  0  0  0  0  0  0
  196.3040  172.4660  145.1210 C   0  0  0  0  0  0  0  0  0  0  0  0
  192.3250  168.3330  142.9180 N   0  0  0  0  0  1  0  0  0  0  0  0
  196.0150  174.9160  145.3800 C   0  0  0  0  0  2  0  0  0  0  0  0
  190.4860  173.9470  145.5000 C   0  0  0  0  0  3  0  0  0  0  0  0
  191.1350  176.2180  146.9640 C   0  0  0  0  0  3  0  0  0  0  0  0
  189.8080  175.8010  146.8860 C   0  0  0  0  0  3  0  0  0  0  0  0
  194.0780  176.5540  145.2780 N   0  0  0  0  0  2  0  0  0  0  0  0
  194.1910  171.6900  145.7630 C   0  0  1  0  0  3  0  0  0  0  0  0
  195.4170  173.6210  144.8560 C   0  0  2  0  0  3  0  0  0  0  0  0
  193.4960  171.2340  144.5070 C   0  0  2  0  0  3  0  0  0  0  0  0
  196.1520  170.0340  145.8350 C   0  0  0  0  0  1  0  0  0  0  0  0
  192.8810  173.5570  144.7560 C   0  0  2  0  0  3  0  0  0  0  0  0
  1  6  1  0  0  0  0
  1 21  1  0  0  0  0
  2  8  1  0  0  0  0
  3 17  2  0  0  0  0
  4 22  1  0  0  0  0
  5 24  1  0  0  0  0
  5 27  1  0  0  0  0
  7  8  1  0  0  0  0
  9 18  1  1  0  0  0
  9 13  1  0  0  0  0
 10  8  1  6  0  0  0
 10 26  1  0  0  0  0
 10 28  1  0  0  0  0
 11 15  2  0  0  0  0
 12 24  1  0  0  0  0
 13 26  1  0  0  0  0
 14  8  1  0  0  0  0
 14  9  1  0  0  0  0
 15 23  1  0  0  0  0
 15 19  1  0  0  0  0
 16  1  2  0  0  0  0
 17  5  1  0  0  0  0
 20 16  1  0  0  0  0
 20  4  2  0  0  0  0
 22 21  2  0  0  0  0
 23  6  1  0  0  0  0
 25 17  1  0  0  0  0
 25 19  1  0  0  0  0
 25 12  1  0  0  0  0
 26 24  1  0  0  0  0
 28 16  1  0  0  0  0
 28 12  1  0  0  0  0
M  END
>  <MODEL>
8

>  <REMARK>
 VINA RESULT:      -7.0      4.736      7.551
  Name = 
  0 active torsions:
  status: ('A' for Active; 'I' for Inactive)
                            x       y       z     vdW  Elec       q    Type
                         _______ _______ _______ _____ _____    ______ ____

>  <TORSDO>
F 0

$$$$
=
 OpenBabel11112417373D

 28 32  0  0  1  0  0  0  0  0999 V2000
  188.7370  174.5390  140.8720 C   0  0  0  0  0  0  0  0  0  0  0  0
  193.1940  176.1010  141.9950 C   0  0  0  0  0  1  0  0  0  0  0  0
  187.6200  177.0970  146.6060 O   0  0  0  0  0  0  0  0  0  0  0  0
  191.0430  173.3010  139.8710 C   0  0  0  0  0  3  0  0  0  0  0  0
  189.0210  175.2400  146.2480 N   0  0  0  0  0  0  0  0  0  0  0  0
  187.4410  175.0990  141.3500 C   0  0  0  0  0  2  0  0  0  0  0  0
  192.2970  177.6820  143.6420 C   0  0  0  0  0  1  0  0  0  0  0  0
  192.6510  176.2140  143.4040 C   0  0  0  0  0  0  0  0  0  0  0  0
  193.1800  175.6760  145.6380 C   0  0  2  0  0  3  0  0  0  0  0  0
  191.4310  175.2920  143.5660 C   0  0  1  0  0  3  0  0  0  0  0  0
  187.0670  178.6140  142.2320 O   0  0  0  0  0  0  0  0  0  0  0  0
  189.0300  175.2580  143.8740 C   0  0  1  0  0  3  0  0  0  0  0  0
  192.1340  174.7280  145.7350 O   0  0  0  0  0  0  0  0  0  0  0  0
  193.6740  175.7880  144.3040 O   0  0  0  0  0  0  0  0  0  0  0  0
  187.1400  177.3650  142.3680 C   0  0  0  0  0  0  0  0  0  0  0  0
  189.9660  174.6870  141.5780 C   0  0  0  0  0  0  0  0  0  0  0  0
  188.2500  176.3430  145.8160 C   0  0  0  0  0  0  0  0  0  0  0  0
  194.2640  175.2920  146.5240 N   0  0  0  0  0  1  0  0  0  0  0  0
  186.9810  176.7600  143.7260 C   0  0  0  0  0  2  0  0  0  0  0  0
  191.1050  174.0560  141.0410 C   0  0  0  0  0  3  0  0  0  0  0  0
  188.6880  173.7770  139.7000 C   0  0  0  0  0  3  0  0  0  0  0  0
  189.8330  173.1630  139.1970 C   0  0  0  0  0  3  0  0  0  0  0  0
  187.4300  176.5480  141.2360 N   0  0  0  0  0  2  0  0  0  0  0  0
  189.7360  174.6750  145.1200 C   0  0  1  0  0  3  0  0  0  0  0  0
  188.3500  176.5590  144.3560 C   0  0  2  0  0  3  0  0  0  0  0  0
  191.0950  175.3180  145.0180 C   0  0  2  0  0  3  0  0  0  0  0  0
  189.2970  174.9160  147.6380 C   0  0  0  0  0  1  0  0  0  0  0  0
  190.1160  175.5690  142.8230 C   0  0  2  0  0  3  0  0  0  0  0  0
  1  6  1  0  0  0  0
  1 16  1  0  0  0  0
  2  8  1  0  0  0  0
  4 20  1  0  0  0  0
  5 27  1  0  0  0  0
  8  7  1  0  0  0  0
  8 14  1  0  0  0  0
  9 13  1  0  0  0  0
  9 18  1  1  0  0  0
 10  8  1  1  0  0  0
 10 26  1  0  0  0  0
 11 15  2  0  0  0  0
 12 25  1  0  0  0  0
 12 24  1  0  0  0  0
 14  9  1  0  0  0  0
 15 19  1  0  0  0  0
 16 28  1  0  0  0  0
 17  5  1  0  0  0  0
 17  3  2  0  0  0  0
 19 25  1  0  0  0  0
 20 16  2  0  0  0  0
 21  1  2  0  0  0  0
 22 21  1  0  0  0  0
 22  4  2  0  0  0  0
 23  6  1  0  0  0  0
 23 15  1  0  0  0  0
 24  5  1  0  0  0  0
 25 17  1  0  0  0  0
 26 24  1  0  0  0  0
 26 13  1  0  0  0  0
 28 10  1  0  0  0  0
 28 12  1  0  0  0  0
M  END
>  <MODEL>
9

>  <REMARK>
 VINA RESULT:      -6.8      2.045      5.416
  Name = 
  0 active torsions:
  status: ('A' for Active; 'I' for Inactive)
                            x       y       z     vdW  Elec       q    Type
                         _______ _______ _______ _____ _____    ______ ____

>  <TORSDO>
F 0

$$$$
