=
 OpenBabel11112417433D

 28 32  0  0  1  0  0  0  0  0999 V2000
  186.8240  178.2100  144.6770 C   0  0  0  0  0  0  0  0  0  0  0  0
  189.8110  178.1410  145.2110 F   0  0  0  0  0  0  0  0  0  0  0  0
  187.8440  172.8740  141.5460 C   0  0  0  0  0  1  0  0  0  0  0  0
  185.6700  177.7350  147.1940 C   0  0  0  0  0  3  0  0  0  0  0  0
  189.7450  174.1680  142.4990 C   0  0  2  0  0  3  0  0  0  0  0  0
  187.3910  178.5560  143.3320 C   0  0  0  0  0  2  0  0  0  0  0  0
  189.8920  177.5120  147.4650 C   0  0  0  0  0  1  0  0  0  0  0  0
  190.2290  177.1160  146.0390 C   0  0  1  0  0  0  0  0  0  0  0  0
  192.1090  175.7340  146.1280 C   0  0  2  0  0  3  0  0  0  0  0  0
  189.4560  175.7910  145.7000 C   0  0  2  0  0  3  0  0  0  0  0  0
  187.3970  177.0730  140.4040 O   0  0  0  0  0  0  0  0  0  0  0  0
  188.5190  175.9090  143.4850 C   0  0  1  0  0  3  0  0  0  0  0  0
  191.7330  174.8810  144.9300 C   0  0  0  0  0  2  0  0  0  0  0  0
  191.6440  177.0420  145.9110 O   0  0  0  0  0  0  0  0  0  0  0  0
  186.7750  177.0110  141.4980 C   0  0  0  0  0  0  0  0  0  0  0  0
  187.1810  177.0430  145.4130 C   0  0  0  0  0  0  0  0  0  0  0  0
  188.4150  174.2600  141.7750 C   0  0  2  0  0  3  0  0  0  0  0  0
  193.5530  175.7530  146.2730 N   0  0  0  0  0  1  0  0  0  0  0  0
  186.5260  175.7760  142.0970 O   0  0  0  0  0  0  0  0  0  0  0  0
  186.5870  176.8260  146.6630 C   0  0  0  0  0  3  0  0  0  0  0  0
  185.9050  179.1130  145.2260 C   0  0  0  0  0  3  0  0  0  0  0  0
  185.3300  178.8790  146.4760 C   0  0  0  0  0  3  0  0  0  0  0  0
  186.3950  178.2640  142.2130 C   0  0  0  0  0  2  0  0  0  0  0  0
  189.8660  175.3370  143.3690 N   0  0  1  0  0  0  0  0  0  0  0  0
  187.5500  175.0170  142.7420 C   0  0  2  0  0  3  0  0  0  0  0  0
  190.2180  174.8970  144.7190 C   0  0  2  0  0  3  0  0  0  0  0  0
  190.8800  174.1580  141.4920 C   0  0  0  0  0  1  0  0  0  0  0  0
  188.1480  175.9710  144.9480 C   0  0  2  0  0  3  0  0  0  0  0  0
  1 21  2  0  0  0  0
  1 16  1  0  0  0  0
  2  8  1  0  0  0  0
  3 17  1  0  0  0  0
  5 27  1  6  0  0  0
  5 24  1  0  0  0  0
  6  1  1  0  0  0  0
  8  7  1  1  0  0  0
  9 18  1  6  0  0  0
 10  8  1  0  0  0  0
 11 15  2  0  0  0  0
 12 28  1  0  0  0  0
 13  9  1  0  0  0  0
 14  8  1  0  0  0  0
 14  9  1  0  0  0  0
 15 19  1  0  0  0  0
 15 23  1  0  0  0  0
 16 20  2  0  0  0  0
 17  5  1  0  0  0  0
 17 25  1  0  0  0  0
 19 25  1  0  0  0  0
 20  4  1  0  0  0  0
 21 22  1  0  0  0  0
 22  4  2  0  0  0  0
 23  6  1  0  0  0  0
 24 12  1  0  0  0  0
 24 26  1  0  0  0  0
 25 12  1  0  0  0  0
 26 13  1  0  0  0  0
 26 10  1  0  0  0  0
 28 16  1  0  0  0  0
 28 10  1  0  0  0  0
M  END
>  <MODEL>
1

>  <REMARK>
 VINA RESULT:      -9.2      0.000      0.000
  Name = 
  0 active torsions:
  status: ('A' for Active; 'I' for Inactive)
                            x       y       z     vdW  Elec       q    Type
                         _______ _______ _______ _____ _____    ______ ____

>  <TORSDO>
F 0

$$$$
=
 OpenBabel11112417433D

 28 32  0  0  1  0  0  0  0  0999 V2000
  188.0190  176.9470  145.0190 C   0  0  0  0  0  0  0  0  0  0  0  0
  190.9970  177.5220  144.9070 F   0  0  0  0  0  0  0  0  0  0  0  0
  189.3690  172.2240  141.1230 C   0  0  0  0  0  1  0  0  0  0  0  0
  187.5970  176.0410  147.6450 C   0  0  0  0  0  3  0  0  0  0  0  0
  191.1300  173.8440  141.8090 C   0  0  2  0  0  3  0  0  0  0  0  0
  188.1770  177.5090  143.6380 C   0  0  0  0  0  2  0  0  0  0  0  0
  191.7210  176.7660  147.0030 C   0  0  0  0  0  1  0  0  0  0  0  0
  191.7950  176.5610  145.5010 C   0  0  1  0  0  0  0  0  0  0  0  0
  193.8890  175.6420  145.0290 C   0  0  2  0  0  3  0  0  0  0  0  0
  191.2560  175.1230  145.1720 C   0  0  2  0  0  3  0  0  0  0  0  0
  187.8160  176.2810  140.6160 O   0  0  0  0  0  0  0  0  0  0  0  0
  189.8310  175.1850  143.2320 C   0  0  1  0  0  3  0  0  0  0  0  0
  193.4320  174.8140  143.8410 C   0  0  0  0  0  2  0  0  0  0  0  0
  193.1270  176.8210  145.0730 O   0  0  0  0  0  0  0  0  0  0  0  0
  187.4900  176.0010  141.7990 C   0  0  0  0  0  0  0  0  0  0  0  0
  188.7680  175.8420  145.5180 C   0  0  0  0  0  0  0  0  0  0  0  0
  189.6790  173.6830  141.3940 C   0  0  2  0  0  3  0  0  0  0  0  0
  195.2920  175.9780  144.8710 N   0  0  0  0  0  1  0  0  0  0  0  0
  187.6440  174.7010  142.2830 O   0  0  0  0  0  0  0  0  0  0  0  0
  188.5340  175.4050  146.8290 C   0  0  0  0  0  3  0  0  0  0  0  0
  187.0840  177.5750  145.8530 C   0  0  0  0  0  3  0  0  0  0  0  0
  186.8720  177.1260  147.1570 C   0  0  0  0  0  3  0  0  0  0  0  0
  187.0340  177.0800  142.7240 C   0  0  0  0  0  2  0  0  0  0  0  0
  191.2040  174.9440  142.7700 N   0  0  1  0  0  0  0  0  0  0  0  0
  188.9230  174.1510  142.6040 C   0  0  2  0  0  3  0  0  0  0  0  0
  191.9390  174.5000  143.9540 C   0  0  2  0  0  3  0  0  0  0  0  0
  191.9800  174.1660  140.5940 C   0  0  0  0  0  1  0  0  0  0  0  0
  189.8020  175.0550  144.7360 C   0  0  2  0  0  3  0  0  0  0  0  0
  1 16  2  0  0  0  0
  1 21  1  0  0  0  0
  2  8  1  0  0  0  0
  3 17  1  0  0  0  0
  5 27  1  6  0  0  0
  5 24  1  0  0  0  0
  6  1  1  0  0  0  0
  8  7  1  1  0  0  0
  9 18  1  6  0  0  0
  9 14  1  0  0  0  0
 10  8  1  0  0  0  0
 11 15  2  0  0  0  0
 12 28  1  0  0  0  0
 13 26  1  0  0  0  0
 13  9  1  0  0  0  0
 14  8  1  0  0  0  0
 15 19  1  0  0  0  0
 15 23  1  0  0  0  0
 16 20  1  0  0  0  0
 17  5  1  0  0  0  0
 17 25  1  0  0  0  0
 19 25  1  0  0  0  0
 20  4  2  0  0  0  0
 21 22  2  0  0  0  0
 22  4  1  0  0  0  0
 23  6  1  0  0  0  0
 24 12  1  0  0  0  0
 24 26  1  0  0  0  0
 25 12  1  0  0  0  0
 26 10  1  0  0  0  0
 28 10  1  0  0  0  0
 28 16  1  0  0  0  0
M  END
>  <MODEL>
2

>  <REMARK>
 VINA RESULT:      -7.9      1.388      1.814
  Name = 
  0 active torsions:
  status: ('A' for Active; 'I' for Inactive)
                            x       y       z     vdW  Elec       q    Type
                         _______ _______ _______ _____ _____    ______ ____

>  <TORSDO>
F 0

$$$$
=
 OpenBabel11112417433D

 28 32  0  0  1  0  0  0  0  0999 V2000
  188.3380  176.2720  145.4820 C   0  0  0  0  0  0  0  0  0  0  0  0
  188.8920  174.1090  143.4260 F   0  0  0  0  0  0  0  0  0  0  0  0
  194.5600  177.0400  145.5040 C   0  0  0  0  0  1  0  0  0  0  0  0
  187.0450  178.2910  144.0170 C   0  0  0  0  0  3  0  0  0  0  0  0
  193.5140  175.2090  144.1820 C   0  0  2  0  0  3  0  0  0  0  0  0
  188.9410  175.1870  146.3230 C   0  0  0  0  0  2  0  0  0  0  0  0
  188.1920  175.1320  141.4390 C   0  0  0  0  0  1  0  0  0  0  0  0
  189.3700  174.5710  142.2130 C   0  0  1  0  0  0  0  0  0  0  0  0
  190.9200  173.7900  140.6510 C   0  0  2  0  0  3  0  0  0  0  0  0
  190.4070  175.7290  142.4400 C   0  0  2  0  0  3  0  0  0  0  0  0
  191.7140  174.9160  148.0580 O   0  0  0  0  0  0  0  0  0  0  0  0
  191.2670  175.6570  144.6880 C   0  0  1  0  0  3  0  0  0  0  0  0
  192.1520  174.1040  141.4820 C   0  0  0  0  0  2  0  0  0  0  0  0
  189.8730  173.4360  141.5170 O   0  0  0  0  0  0  0  0  0  0  0  0
  191.0060  175.8170  147.5360 C   0  0  0  0  0  0  0  0  0  0  0  0
  188.9630  176.8200  144.3250 C   0  0  0  0  0  0  0  0  0  0  0  0
  193.4820  175.9740  145.4920 C   0  0  2  0  0  3  0  0  0  0  0  0
  191.2080  172.6810  139.7610 N   0  0  0  0  0  1  0  0  0  0  0  0
  191.6000  176.8360  146.7900 O   0  0  0  0  0  0  0  0  0  0  0  0
  188.3000  177.8310  143.6150 C   0  0  0  0  0  3  0  0  0  0  0  0
  187.0770  176.7430  145.8700 C   0  0  0  0  0  3  0  0  0  0  0  0
  186.4330  177.7470  145.1440 C   0  0  0  0  0  3  0  0  0  0  0  0
  189.5180  175.7410  147.6220 C   0  0  0  0  0  2  0  0  0  0  0  0
  192.1410  174.8290  143.8500 N   0  0  1  0  0  0  0  0  0  0  0  0
  192.1260  176.6190  145.4790 C   0  0  2  0  0  3  0  0  0  0  0  0
  191.8520  175.2310  142.4730 C   0  0  2  0  0  3  0  0  0  0  0  0
  194.3680  173.9640  144.3340 C   0  0  0  0  0  1  0  0  0  0  0  0
  190.3250  176.4240  143.7890 C   0  0  2  0  0  3  0  0  0  0  0  0
  1 21  1  0  0  0  0
  1  6  1  0  0  0  0
  4 22  1  0  0  0  0
  5 27  1  1  0  0  0
  5 17  1  0  0  0  0
  6 23  1  0  0  0  0
  8  7  1  6  0  0  0
  8 10  1  0  0  0  0
  8  2  1  0  0  0  0
  9 18  1  6  0  0  0
  9 13  1  0  0  0  0
  9 14  1  0  0  0  0
 10 26  1  0  0  0  0
 10 28  1  0  0  0  0
 12 25  1  0  0  0  0
 13 26  1  0  0  0  0
 14  8  1  0  0  0  0
 15 23  1  0  0  0  0
 15 11  2  0  0  0  0
 16  1  2  0  0  0  0
 17  3  1  0  0  0  0
 19 15  1  0  0  0  0
 20  4  2  0  0  0  0
 20 16  1  0  0  0  0
 22 21  2  0  0  0  0
 24  5  1  0  0  0  0
 24 12  1  0  0  0  0
 25 17  1  0  0  0  0
 25 19  1  0  0  0  0
 26 24  1  0  0  0  0
 28 16  1  0  0  0  0
 28 12  1  0  0  0  0
M  END
>  <MODEL>
3

>  <REMARK>
 VINA RESULT:      -7.9      2.110      5.213
  Name = 
  0 active torsions:
  status: ('A' for Active; 'I' for Inactive)
                            x       y       z     vdW  Elec       q    Type
                         _______ _______ _______ _____ _____    ______ ____

>  <TORSDO>
F 0

$$$$
=
 OpenBabel11112417433D

 28 32  0  0  1  0  0  0  0  0999 V2000
  188.4130  176.5280  144.4990 C   0  0  0  0  0  0  0  0  0  0  0  0
  188.7970  173.8310  143.1600 F   0  0  0  0  0  0  0  0  0  0  0  0
  194.5180  176.0790  145.8520 C   0  0  0  0  0  1  0  0  0  0  0  0
  187.9480  178.2900  142.3610 C   0  0  0  0  0  3  0  0  0  0  0  0
  193.3230  174.1950  144.7500 C   0  0  2  0  0  3  0  0  0  0  0  0
  188.5660  175.6120  145.6770 C   0  0  0  0  0  2  0  0  0  0  0  0
  188.7500  174.4000  140.8890 C   0  0  0  0  0  1  0  0  0  0  0  0
  189.5910  173.8540  142.0280 C   0  0  1  0  0  0  0  0  0  0  0  0
  191.1670  172.4050  141.0950 C   0  0  2  0  0  3  0  0  0  0  0  0
  190.8170  174.8110  142.2390 C   0  0  2  0  0  3  0  0  0  0  0  0
  190.8160  175.2920  148.0450 O   0  0  0  0  0  0  0  0  0  0  0  0
  191.1990  175.1800  144.5890 C   0  0  1  0  0  3  0  0  0  0  0  0
  192.2600  172.6900  142.1090 C   0  0  0  0  0  2  0  0  0  0  0  0
  189.9220  172.5000  141.7380 O   0  0  0  0  0  0  0  0  0  0  0  0
  190.4590  176.1390  147.1830 C   0  0  0  0  0  0  0  0  0  0  0  0
  189.3580  176.6190  143.4350 C   0  0  0  0  0  0  0  0  0  0  0  0
  193.2350  175.2730  145.8140 C   0  0  2  0  0  3  0  0  0  0  0  0
  191.3360  171.0650  140.5650 N   0  0  0  0  0  1  0  0  0  0  0  0
  191.4120  176.7900  146.3990 O   0  0  0  0  0  0  0  0  0  0  0  0
  189.1050  177.5110  142.3840 C   0  0  0  0  0  3  0  0  0  0  0  0
  187.2550  177.3160  144.4580 C   0  0  0  0  0  3  0  0  0  0  0  0
  187.0230  178.1930  143.3980 C   0  0  0  0  0  3  0  0  0  0  0  0
  189.0080  176.3730  146.9230 C   0  0  0  0  0  2  0  0  0  0  0  0
  191.9860  174.0080  144.1870 N   0  0  1  0  0  0  0  0  0  0  0  0
  192.1030  176.1360  145.3340 C   0  0  2  0  0  3  0  0  0  0  0  0
  192.0650  174.0750  142.7280 C   0  0  2  0  0  3  0  0  0  0  0  0
  193.8040  172.8970  145.3710 C   0  0  0  0  0  1  0  0  0  0  0  0
  190.6570  175.8430  143.3440 C   0  0  2  0  0  3  0  0  0  0  0  0
  1  6  1  0  0  0  0
  4 20  2  0  0  0  0
  4 22  1  0  0  0  0
  5 27  1  1  0  0  0
  5 17  1  0  0  0  0
  6 23  1  0  0  0  0
  8  7  1  6  0  0  0
  8 10  1  0  0  0  0
  8  2  1  0  0  0  0
  9 18  1  1  0  0  0
  9 14  1  0  0  0  0
  9 13  1  0  0  0  0
 10 26  1  0  0  0  0
 10 28  1  0  0  0  0
 12 25  1  0  0  0  0
 13 26  1  0  0  0  0
 14  8  1  0  0  0  0
 15 11  2  0  0  0  0
 16  1  2  0  0  0  0
 17  3  1  0  0  0  0
 19 15  1  0  0  0  0
 20 16  1  0  0  0  0
 21  1  1  0  0  0  0
 22 21  2  0  0  0  0
 23 15  1  0  0  0  0
 24 12  1  0  0  0  0
 24  5  1  0  0  0  0
 25 17  1  0  0  0  0
 25 19  1  0  0  0  0
 26 24  1  0  0  0  0
 28 16  1  0  0  0  0
 28 12  1  0  0  0  0
M  END
>  <MODEL>
4

>  <REMARK>
 VINA RESULT:      -7.8      2.332      5.303
  Name = 
  0 active torsions:
  status: ('A' for Active; 'I' for Inactive)
                            x       y       z     vdW  Elec       q    Type
                         _______ _______ _______ _____ _____    ______ ____

>  <TORSDO>
F 0

$$$$
=
 OpenBabel11112417433D

 28 32  0  0  1  0  0  0  0  0999 V2000
  185.9620  177.1480  142.7570 C   0  0  0  0  0  0  0  0  0  0  0  0
  187.0040  174.2980  142.6840 F   0  0  0  0  0  0  0  0  0  0  0  0
  190.0670  177.9160  147.4340 C   0  0  0  0  0  1  0  0  0  0  0  0
  186.8940  178.2760  140.3600 C   0  0  0  0  0  3  0  0  0  0  0  0
  189.7150  175.6740  146.4120 C   0  0  2  0  0  3  0  0  0  0  0  0
  185.3670  176.5650  144.0050 C   0  0  0  0  0  2  0  0  0  0  0  0
  188.3240  174.3090  140.7500 C   0  0  0  0  0  1  0  0  0  0  0  0
  188.3140  174.1700  142.2610 C   0  0  1  0  0  0  0  0  0  0  0  0
  190.1030  172.7880  142.8440 C   0  0  2  0  0  3  0  0  0  0  0  0
  189.1980  175.3180  142.8670 C   0  0  2  0  0  3  0  0  0  0  0  0
  185.7690  177.1350  147.2120 O   0  0  0  0  0  0  0  0  0  0  0  0
  188.1220  176.2760  144.7970 C   0  0  1  0  0  3  0  0  0  0  0  0
  190.3890  173.4570  144.1770 C   0  0  0  0  0  2  0  0  0  0  0  0
  188.7220  172.8500  142.5990 O   0  0  0  0  0  0  0  0  0  0  0  0
  186.0100  177.6960  146.1100 C   0  0  0  0  0  0  0  0  0  0  0  0
  187.3540  177.1240  142.4560 C   0  0  0  0  0  0  0  0  0  0  0  0
  189.0380  176.9470  146.8870 C   0  0  2  0  0  3  0  0  0  0  0  0
  190.5230  171.4010  142.9000 N   0  0  0  0  0  1  0  0  0  0  0  0
  187.2570  178.2780  145.8750 O   0  0  0  0  0  0  0  0  0  0  0  0
  187.7950  177.7000  141.2560 C   0  0  0  0  0  3  0  0  0  0  0  0
  185.0710  177.7290  141.8450 C   0  0  0  0  0  3  0  0  0  0  0  0
  185.5320  178.2910  140.6540 C   0  0  0  0  0  3  0  0  0  0  0  0
  185.0020  177.6510  145.0120 C   0  0  0  0  0  2  0  0  0  0  0  0
  188.9670  175.1690  145.2610 N   0  0  1  0  0  0  0  0  0  0  0  0
  188.4300  177.5000  145.6300 C   0  0  2  0  0  3  0  0  0  0  0  0
  189.8970  174.9050  144.1630 C   0  0  2  0  0  3  0  0  0  0  0  0
  189.7050  174.6410  147.5240 C   0  0  0  0  0  1  0  0  0  0  0  0
  188.4380  176.5450  143.3450 C   0  0  2  0  0  3  0  0  0  0  0  0
  1  6  1  0  0  0  0
  4 22  2  0  0  0  0
  4 20  1  0  0  0  0
  5 17  1  0  0  0  0
  5 27  1  1  0  0  0
  6 23  1  0  0  0  0
  8  7  1  6  0  0  0
  8 14  1  0  0  0  0
  8  2  1  0  0  0  0
  8 10  1  0  0  0  0
  9 18  1  1  0  0  0
  9 13  1  0  0  0  0
 10 28  1  0  0  0  0
 10 26  1  0  0  0  0
 12 24  1  0  0  0  0
 12 25  1  0  0  0  0
 14  9  1  0  0  0  0
 15 11  2  0  0  0  0
 16  1  1  0  0  0  0
 16 28  1  0  0  0  0
 17  3  1  0  0  0  0
 19 15  1  0  0  0  0
 20 16  2  0  0  0  0
 21  1  2  0  0  0  0
 22 21  1  0  0  0  0
 23 15  1  0  0  0  0
 24  5  1  0  0  0  0
 25 19  1  0  0  0  0
 25 17  1  0  0  0  0
 26 13  1  0  0  0  0
 26 24  1  0  0  0  0
 28 12  1  0  0  0  0
M  END
>  <MODEL>
5

>  <REMARK>
 VINA RESULT:      -7.5      2.366      4.853
  Name = 
  0 active torsions:
  status: ('A' for Active; 'I' for Inactive)
                            x       y       z     vdW  Elec       q    Type
                         _______ _______ _______ _____ _____    ______ ____

>  <TORSDO>
F 0

$$$$
=
 OpenBabel11112417433D

 28 32  0  0  1  0  0  0  0  0999 V2000
  191.1360  174.9690  142.0410 C   0  0  0  0  0  0  0  0  0  0  0  0
  189.0320  177.1150  141.6150 F   0  0  0  0  0  0  0  0  0  0  0  0
  188.6990  174.5360  147.8010 C   0  0  0  0  0  1  0  0  0  0  0  0
  190.2960  172.8540  140.3940 C   0  0  0  0  0  3  0  0  0  0  0  0
  187.9010  176.2810  146.2160 C   0  0  2  0  0  3  0  0  0  0  0  0
  191.6730  176.1020  142.8640 C   0  0  0  0  0  2  0  0  0  0  0  0
  187.4810  176.0160  140.2480 C   0  0  0  0  0  1  0  0  0  0  0  0
  187.7290  176.6550  141.6020 C   0  0  1  0  0  0  0  0  0  0  0  0
  185.6830  177.4850  142.3630 C   0  0  2  0  0  3  0  0  0  0  0  0
  187.5260  175.5590  142.7090 C   0  0  2  0  0  3  0  0  0  0  0  0
  192.1730  176.5570  146.0760 O   0  0  0  0  0  0  0  0  0  0  0  0
  189.2520  175.7230  144.3790 C   0  0  1  0  0  3  0  0  0  0  0  0
  185.9600  177.2550  143.8380 C   0  0  0  0  0  2  0  0  0  0  0  0
  186.8930  177.8000  141.7230 O   0  0  0  0  0  0  0  0  0  0  0  0
  191.9710  175.6090  145.2720 C   0  0  0  0  0  0  0  0  0  0  0  0
  189.8250  174.4310  142.1900 C   0  0  0  0  0  0  0  0  0  0  0  0
  189.1160  175.5420  146.7470 C   0  0  2  0  0  3  0  0  0  0  0  0
  184.7550  178.5890  142.2130 N   0  0  0  0  0  1  0  0  0  0  0  0
  191.0490  174.6080  145.5810 O   0  0  0  0  0  0  0  0  0  0  0  0
  189.4320  173.3720  141.3600 C   0  0  0  0  0  3  0  0  0  0  0  0
  191.9890  174.4390  141.0640 C   0  0  0  0  0  3  0  0  0  0  0  0
  191.5740  173.3880  140.2460 C   0  0  0  0  0  3  0  0  0  0  0  0
  192.6380  175.6070  143.9370 C   0  0  0  0  0  2  0  0  0  0  0  0
  188.1380  176.5790  144.8040 N   0  0  1  0  0  0  0  0  0  0  0  0
  189.6380  174.8260  145.5340 C   0  0  2  0  0  3  0  0  0  0  0  0
  186.9860  176.1350  144.0190 C   0  0  2  0  0  3  0  0  0  0  0  0
  187.7060  177.5730  146.9880 C   0  0  0  0  0  1  0  0  0  0  0  0
  188.7960  174.8890  143.2050 C   0  0  2  0  0  3  0  0  0  0  0  0
  1 16  1  0  0  0  0
  1  6  1  0  0  0  0
  4 20  1  0  0  0  0
  5 17  1  0  0  0  0
  5 27  1  1  0  0  0
  6 23  1  0  0  0  0
  8  7  1  6  0  0  0
  8  2  1  0  0  0  0
  8 14  1  0  0  0  0
  8 10  1  0  0  0  0
  9 18  1  1  0  0  0
  9 13  1  0  0  0  0
 10 28  1  0  0  0  0
 10 26  1  0  0  0  0
 12 24  1  0  0  0  0
 12 25  1  0  0  0  0
 13 26  1  0  0  0  0
 14  9  1  0  0  0  0
 15 19  1  0  0  0  0
 15 11  2  0  0  0  0
 16 28  1  0  0  0  0
 17  3  1  0  0  0  0
 20 16  2  0  0  0  0
 21  1  2  0  0  0  0
 22  4  2  0  0  0  0
 22 21  1  0  0  0  0
 23 15  1  0  0  0  0
 24  5  1  0  0  0  0
 25 19  1  0  0  0  0
 25 17  1  0  0  0  0
 26 24  1  0  0  0  0
 28 12  1  0  0  0  0
M  END
>  <MODEL>
6

>  <REMARK>
 VINA RESULT:      -7.5      2.011      6.339
  Name = 
  0 active torsions:
  status: ('A' for Active; 'I' for Inactive)
                            x       y       z     vdW  Elec       q    Type
                         _______ _______ _______ _____ _____    ______ ____

>  <TORSDO>
F 0

$$$$
=
 OpenBabel11112417433D

 28 32  0  0  1  0  0  0  0  0999 V2000
  189.0460  175.8810  145.6310 C   0  0  0  0  0  0  0  0  0  0  0  0
  188.8810  173.5910  143.6450 F   0  0  0  0  0  0  0  0  0  0  0  0
  194.9700  176.4120  143.6480 C   0  0  0  0  0  1  0  0  0  0  0  0
  187.3960  177.8660  144.5220 C   0  0  0  0  0  3  0  0  0  0  0  0
  193.5250  174.5540  142.8400 C   0  0  2  0  0  3  0  0  0  0  0  0
  189.8630  174.8200  146.3060 C   0  0  0  0  0  2  0  0  0  0  0  0
  187.6080  174.5320  141.9180 C   0  0  0  0  0  1  0  0  0  0  0  0
  188.9600  173.9690  142.3170 C   0  0  1  0  0  0  0  0  0  0  0  0
  189.9220  173.0470  140.3990 C   0  0  2  0  0  3  0  0  0  0  0  0
  190.0370  175.0970  142.1330 C   0  0  2  0  0  3  0  0  0  0  0  0
  193.0370  174.5380  147.0950 O   0  0  0  0  0  0  0  0  0  0  0  0
  191.5610  175.1140  143.9970 C   0  0  1  0  0  3  0  0  0  0  0  0
  191.3580  173.3580  140.7800 C   0  0  0  0  0  2  0  0  0  0  0  0
  189.1950  172.7800  141.5710 O   0  0  0  0  0  0  0  0  0  0  0  0
  192.2170  175.4360  146.7660 C   0  0  0  0  0  0  0  0  0  0  0  0
  189.2840  176.3420  144.3040 C   0  0  0  0  0  0  0  0  0  0  0  0
  193.9230  175.3890  144.0430 C   0  0  2  0  0  3  0  0  0  0  0  0
  189.8920  171.8820  139.5360 N   0  0  0  0  0  1  0  0  0  0  0  0
  192.5640  176.3900  145.8090 O   0  0  0  0  0  0  0  0  0  0  0  0
  188.4500  177.3380  143.7760 C   0  0  0  0  0  3  0  0  0  0  0  0
  187.9810  176.4200  146.3640 C   0  0  0  0  0  3  0  0  0  0  0  0
  187.1610  177.4070  145.8160 C   0  0  0  0  0  3  0  0  0  0  0  0
  190.8320  175.4210  147.3210 C   0  0  0  0  0  2  0  0  0  0  0  0
  192.1100  174.2090  142.9800 N   0  0  1  0  0  0  0  0  0  0  0  0
  192.6450  176.0830  144.4160 C   0  0  2  0  0  3  0  0  0  0  0  0
  191.4090  174.5470  141.7410 C   0  0  2  0  0  3  0  0  0  0  0  0
  194.3600  173.2880  142.7940 C   0  0  0  0  0  1  0  0  0  0  0  0
  190.3990  175.8660  143.3930 C   0  0  2  0  0  3  0  0  0  0  0  0
  1  6  1  0  0  0  0
  1 21  1  0  0  0  0
  3 17  1  0  0  0  0
  4 22  1  0  0  0  0
  5 27  1  1  0  0  0
  5 24  1  0  0  0  0
  5 17  1  0  0  0  0
  6 23  1  0  0  0  0
  8  7  1  6  0  0  0
  8  2  1  0  0  0  0
  9 18  1  6  0  0  0
  9 13  1  0  0  0  0
  9 14  1  0  0  0  0
 10  8  1  0  0  0  0
 10 28  1  0  0  0  0
 12 25  1  0  0  0  0
 13 26  1  0  0  0  0
 14  8  1  0  0  0  0
 15 11  2  0  0  0  0
 15 23  1  0  0  0  0
 16  1  2  0  0  0  0
 17 25  1  0  0  0  0
 19 15  1  0  0  0  0
 20 16  1  0  0  0  0
 20  4  2  0  0  0  0
 22 21  2  0  0  0  0
 24 12  1  0  0  0  0
 25 19  1  0  0  0  0
 26 10  1  0  0  0  0
 26 24  1  0  0  0  0
 28 12  1  0  0  0  0
 28 16  1  0  0  0  0
M  END
>  <MODEL>
7

>  <REMARK>
 VINA RESULT:      -7.4      2.329      5.417
  Name = 
  0 active torsions:
  status: ('A' for Active; 'I' for Inactive)
                            x       y       z     vdW  Elec       q    Type
                         _______ _______ _______ _____ _____    ______ ____

>  <TORSDO>
F 0

$$$$
=
 OpenBabel11112417433D

 28 32  0  0  1  0  0  0  0  0999 V2000
  190.4990  176.8470  145.4370 C   0  0  0  0  0  0  0  0  0  0  0  0
  193.1690  177.1920  144.0340 F   0  0  0  0  0  0  0  0  0  0  0  0
  189.6910  172.0530  141.4780 C   0  0  0  0  0  1  0  0  0  0  0  0
  191.1910  175.9640  148.0130 C   0  0  0  0  0  3  0  0  0  0  0  0
  191.6860  173.5290  141.2900 C   0  0  2  0  0  3  0  0  0  0  0  0
  190.0850  177.4020  144.1070 C   0  0  0  0  0  2  0  0  0  0  0  0
  194.6720  176.3730  145.6330 C   0  0  0  0  0  1  0  0  0  0  0  0
  194.0750  176.1700  144.2530 C   0  0  1  0  0  0  0  0  0  0  0  0
  195.6870  175.0950  142.9500 C   0  0  2  0  0  3  0  0  0  0  0  0
  193.3450  174.7790  144.2310 C   0  0  2  0  0  3  0  0  0  0  0  0
  188.3650  176.2190  141.5740 O   0  0  0  0  0  0  0  0  0  0  0  0
  191.2290  174.9590  143.0940 C   0  0  1  0  0  3  0  0  0  0  0  0
  194.7030  174.3100  142.1000 C   0  0  0  0  0  2  0  0  0  0  0  0
  195.1050  176.3290  143.2850 O   0  0  0  0  0  0  0  0  0  0  0  0
  188.5630  175.9600  142.7900 C   0  0  0  0  0  0  0  0  0  0  0  0
  191.3100  175.6850  145.5960 C   0  0  0  0  0  0  0  0  0  0  0  0
  190.1910  173.4820  141.5460 C   0  0  2  0  0  3  0  0  0  0  0  0
  196.9030  175.3230  142.1930 N   0  0  0  0  0  1  0  0  0  0  0  0
  188.8190  174.6490  143.1970 O   0  0  0  0  0  0  0  0  0  0  0  0
  191.6360  175.2620  146.8910 C   0  0  0  0  0  3  0  0  0  0  0  0
  190.0640  177.5410  146.5740 C   0  0  0  0  0  3  0  0  0  0  0  0
  190.4060  177.1030  147.8540 C   0  0  0  0  0  3  0  0  0  0  0  0
  188.6310  177.0660  143.7890 C   0  0  0  0  0  2  0  0  0  0  0  0
  192.2460  174.6160  142.0930 N   0  0  1  0  0  0  0  0  0  0  0  0
  190.0680  174.0010  142.9510 C   0  0  2  0  0  3  0  0  0  0  0  0
  193.3870  174.1110  142.8550 C   0  0  2  0  0  3  0  0  0  0  0  0
  191.9470  173.7910  139.8180 C   0  0  0  0  0  1  0  0  0  0  0  0
  191.8450  174.8250  144.4670 C   0  0  2  0  0  3  0  0  0  0  0  0
  1 16  2  0  0  0  0
  1 21  1  0  0  0  0
  2  8  1  0  0  0  0
  3 17  1  0  0  0  0
  5 27  1  6  0  0  0
  5 17  1  0  0  0  0
  5 24  1  0  0  0  0
  6  1  1  0  0  0  0
  8  7  1  1  0  0  0
  9 18  1  6  0  0  0
  9 14  1  0  0  0  0
 10  8  1  0  0  0  0
 10 28  1  0  0  0  0
 11 15  2  0  0  0  0
 12 28  1  0  0  0  0
 13 26  1  0  0  0  0
 13  9  1  0  0  0  0
 14  8  1  0  0  0  0
 15 19  1  0  0  0  0
 15 23  1  0  0  0  0
 16 20  1  0  0  0  0
 17 25  1  0  0  0  0
 20  4  2  0  0  0  0
 21 22  2  0  0  0  0
 22  4  1  0  0  0  0
 23  6  1  0  0  0  0
 24 26  1  0  0  0  0
 24 12  1  0  0  0  0
 25 12  1  0  0  0  0
 25 19  1  0  0  0  0
 26 10  1  0  0  0  0
 28 16  1  0  0  0  0
M  END
>  <MODEL>
8

>  <REMARK>
 VINA RESULT:      -7.2      2.576      3.878
  Name = 
  0 active torsions:
  status: ('A' for Active; 'I' for Inactive)
                            x       y       z     vdW  Elec       q    Type
                         _______ _______ _______ _____ _____    ______ ____

>  <TORSDO>
F 0

$$$$
=
 OpenBabel11112417433D

 28 32  0  0  1  0  0  0  0  0999 V2000
  190.7520  175.8620  145.2310 C   0  0  0  0  0  0  0  0  0  0  0  0
  193.3250  176.7070  143.8620 F   0  0  0  0  0  0  0  0  0  0  0  0
  192.6270  170.0320  143.8880 C   0  0  0  0  0  1  0  0  0  0  0  0
  191.1780  176.4950  147.9350 C   0  0  0  0  0  3  0  0  0  0  0  0
  193.9180  171.9980  143.0730 C   0  0  2  0  0  3  0  0  0  0  0  0
  190.4430  175.5900  143.7890 C   0  0  0  0  0  2  0  0  0  0  0  0
  194.6620  177.3390  145.6780 C   0  0  0  0  0  1  0  0  0  0  0  0
  194.4820  176.3570  144.5350 C   0  0  1  0  0  0  0  0  0  0  0  0
  196.6090  175.6460  143.8880 C   0  0  2  0  0  3  0  0  0  0  0  0
  194.3470  174.9140  145.1400 C   0  0  2  0  0  3  0  0  0  0  0  0
  189.8510  172.8690  142.0520 O   0  0  0  0  0  0  0  0  0  0  0  0
  192.5990  173.6940  144.0190 C   0  0  1  0  0  3  0  0  0  0  0  0
  196.1880  174.2450  143.4780 C   0  0  0  0  0  2  0  0  0  0  0  0
  195.5530  176.5300  143.6150 O   0  0  0  0  0  0  0  0  0  0  0  0
  189.8770  173.2400  143.2550 C   0  0  0  0  0  0  0  0  0  0  0  0
  191.8860  175.3350  145.9130 C   0  0  0  0  0  0  0  0  0  0  0  0
  192.5310  171.4270  143.3030 C   0  0  2  0  0  3  0  0  0  0  0  0
  197.7800  176.0400  143.1270 N   0  0  0  0  0  1  0  0  0  0  0  0
  190.5140  172.4580  144.2190 O   0  0  0  0  0  0  0  0  0  0  0  0
  192.0730  175.6600  147.2640 C   0  0  0  0  0  3  0  0  0  0  0  0
  189.8650  176.7010  145.9200 C   0  0  0  0  0  3  0  0  0  0  0  0
  190.0750  177.0160  147.2630 C   0  0  0  0  0  3  0  0  0  0  0  0
  189.3190  174.5690  143.6400 C   0  0  0  0  0  2  0  0  0  0  0  0
  193.8530  173.4420  143.2980 N   0  0  1  0  0  0  0  0  0  0  0  0
  191.9370  172.3660  144.3130 C   0  0  2  0  0  3  0  0  0  0  0  0
  194.9170  173.8320  144.2220 C   0  0  2  0  0  3  0  0  0  0  0  0
  194.3590  171.7200  141.6480 C   0  0  0  0  0  1  0  0  0  0  0  0
  192.9240  174.4080  145.3100 C   0  0  2  0  0  3  0  0  0  0  0  0
  1 16  2  0  0  0  0
  1 21  1  0  0  0  0
  2  8  1  0  0  0  0
  5 27  1  6  0  0  0
  5 24  1  0  0  0  0
  5 17  1  0  0  0  0
  6  1  1  0  0  0  0
  8 10  1  0  0  0  0
  8  7  1  1  0  0  0
  9 18  1  6  0  0  0
 10 28  1  0  0  0  0
 11 15  2  0  0  0  0
 12 25  1  0  0  0  0
 12 28  1  0  0  0  0
 13  9  1  0  0  0  0
 13 26  1  0  0  0  0
 14  9  1  0  0  0  0
 14  8  1  0  0  0  0
 15 23  1  0  0  0  0
 15 19  1  0  0  0  0
 16 20  1  0  0  0  0
 17  3  1  0  0  0  0
 17 25  1  0  0  0  0
 19 25  1  0  0  0  0
 20  4  2  0  0  0  0
 21 22  2  0  0  0  0
 22  4  1  0  0  0  0
 23  6  1  0  0  0  0
 24 12  1  0  0  0  0
 24 26  1  0  0  0  0
 26 10  1  0  0  0  0
 28 16  1  0  0  0  0
M  END
>  <MODEL>
9

>  <REMARK>
 VINA RESULT:      -7.2      3.313      4.980
  Name = 
  0 active torsions:
  status: ('A' for Active; 'I' for Inactive)
                            x       y       z     vdW  Elec       q    Type
                         _______ _______ _______ _____ _____    ______ ____

>  <TORSDO>
F 0

$$$$
