=
 OpenBabel11112416253D

 30 35  0  0  1  0  0  0  0  0999 V2000
  189.6140  175.7180  143.6650 C   0  0  0  0  0  0  0  0  0  0  0  0
  190.4770  173.9240  142.1360 C   0  0  0  0  0  0  0  0  0  0  0  0
  186.4300  176.8770  141.2010 N   0  0  0  0  0  2  0  0  0  0  0  0
  188.6170  176.7800  144.0440 C   0  0  0  0  0  0  0  0  0  0  0  0
  190.8160  175.4900  144.5400 C   0  0  0  0  0  2  0  0  0  0  0  0
  190.1270  177.6740  147.2890 O   0  0  0  0  0  0  0  0  0  0  0  0
  186.2860  178.2680  145.6670 C   0  0  1  0  0  3  0  0  0  0  0  0
  189.8350  177.0150  146.2540 C   0  0  0  0  0  0  0  0  0  0  0  0
  185.6590  177.7570  144.4550 N   0  0  1  0  0  0  0  0  0  0  0  0
  185.8390  177.9040  141.9840 C   0  0  0  0  0  0  0  0  0  0  0  0
  190.5590  175.8210  145.9330 N   0  0  0  0  0  0  0  0  0  0  0  0
  188.6930  177.4710  145.3910 C   0  0  2  0  0  3  0  0  0  0  0  0
  190.3350  173.4340  140.7180 C   0  0  0  0  0  3  0  0  0  0  0  0
  184.3960  178.4880  144.4170 C   0  0  0  0  0  2  0  0  0  0  0  0
  185.1900  178.4700  146.6910 C   0  0  0  0  0  2  0  0  0  0  0  0
  190.2940  172.8470  143.0060 O   0  0  0  0  0  1  0  0  0  0  0  0
  187.5050  176.3980  141.9430 N   0  0  0  0  0  0  0  0  0  0  0  0
  189.3490  173.8290  139.9090 C   0  0  0  0  0  3  0  0  0  0  0  0
  189.5120  175.0390  142.4940 C   0  0  0  0  0  0  0  0  0  0  0  0
  187.6310  177.0890  143.1720 C   0  0  0  0  0  0  0  0  0  0  0  0
  184.8800  178.6020  141.5630 O   0  0  0  0  0  0  0  0  0  0  0  0
  186.5250  178.1160  143.3200 C   0  0  2  0  0  3  0  0  0  0  0  0
  183.9580  178.7210  145.8530 C   0  0  0  0  0  2  0  0  0  0  0  0
  187.1670  176.4540  146.9140 O   0  0  0  0  0  0  0  0  0  0  0  0
  188.3480  174.8150  140.3440 C   0  0  0  0  0  3  0  0  0  0  0  0
  188.4230  175.3820  141.5490 C   0  0  2  0  0  3  0  0  0  0  0  0
  187.3820  177.3580  146.1180 C   0  0  0  0  0  0  0  0  0  0  0  0
  191.3660  175.1520  146.9430 C   0  0  0  0  0  2  0  0  0  0  0  0
  193.5350  176.3820  146.7650 C   0  0  0  0  0  1  0  0  0  0  0  0
  192.8200  175.0720  146.5010 C   0  0  0  0  0  2  0  0  0  0  0  0
  1  4  1  0  0  0  0
  1  5  1  0  0  0  0
  2 19  1  0  0  0  0
  2 16  1  0  0  0  0
  3 17  1  0  0  0  0
  3 10  1  0  0  0  0
  5 11  1  0  0  0  0
  7 27  1  0  0  0  0
  7 15  1  1  0  0  0
  8  6  2  0  0  0  0
  9 14  1  6  0  0  0
  9  7  1  0  0  0  0
 11  8  1  0  0  0  0
 11 28  1  0  0  0  0
 12  4  1  6  0  0  0
 12 27  1  0  0  0  0
 12  8  1  0  0  0  0
 13  2  2  0  0  0  0
 14 23  1  0  0  0  0
 17 20  1  0  0  0  0
 18 25  2  0  0  0  0
 18 13  1  0  0  0  0
 19  1  2  0  0  0  0
 20 22  1  0  0  0  0
 20  4  2  0  0  0  0
 21 10  2  0  0  0  0
 22 10  1  6  0  0  0
 22  9  1  0  0  0  0
 23 15  1  0  0  0  0
 26 25  1  6  0  0  0
 26 17  1  0  0  0  0
 26 19  1  0  0  0  0
 27 24  2  0  0  0  0
 30 29  1  0  0  0  0
 30 28  1  0  0  0  0
M  END
>  <MODEL>
1

>  <REMARK>
 VINA RESULT:      -8.9      0.000      0.000
  Name = 
  2 active torsions:
  status: ('A' for Active; 'I' for Inactive)
    1  A    between atoms: N_11  and  C_28
    2  A    between atoms: C_28  and  C_30
                            x       y       z     vdW  Elec       q    Type
                         _______ _______ _______ _____ _____    ______ ____

>  <TORSDO>
F 2

$$$$
=
 OpenBabel11112416253D

 30 35  0  0  1  0  0  0  0  0999 V2000
  186.8410  178.0180  143.8790 C   0  0  0  0  0  0  0  0  0  0  0  0
  185.4070  178.8620  145.7600 C   0  0  2  0  0  3  0  0  0  0  0  0
  189.8460  176.4220  146.3240 N   0  0  0  0  0  2  0  0  0  0  0  0
  188.0400  177.2830  143.3450 C   0  0  0  0  0  0  0  0  0  0  0  0
  185.9040  178.6980  142.9190 C   0  0  0  0  0  2  0  0  0  0  0  0
  187.2390  177.6630  139.7640 O   0  0  0  0  0  0  0  0  0  0  0  0
  189.7570  175.0170  141.8600 C   0  0  1  0  0  3  0  0  0  0  0  0
  187.0950  177.6080  141.0150 C   0  0  0  0  0  0  0  0  0  0  0  0
  189.9270  174.7710  143.2860 N   0  0  1  0  0  0  0  0  0  0  0  0
  190.7330  175.8880  145.3510 C   0  0  0  0  0  0  0  0  0  0  0  0
  185.8720  178.0430  141.6200 N   0  0  0  0  0  0  0  0  0  0  0  0
  188.2010  177.0390  141.8570 C   0  0  2  0  0  3  0  0  0  0  0  0
  185.4680  179.1280  147.2420 C   0  0  0  0  0  3  0  0  0  0  0  0
  191.0710  173.8630  143.3180 C   0  0  0  0  0  2  0  0  0  0  0  0
  190.0540  173.7200  141.1400 C   0  0  0  0  0  2  0  0  0  0  0  0
  184.2810  178.0820  145.4870 O   0  0  0  0  0  1  0  0  0  0  0  0
  188.7830  176.9700  145.6140 N   0  0  0  0  0  0  0  0  0  0  0  0
  186.4430  178.6600  148.0240 C   0  0  0  0  0  3  0  0  0  0  0  0
  186.6470  178.1770  145.2140 C   0  0  0  0  0  0  0  0  0  0  0  0
  188.9610  176.8150  144.2180 C   0  0  0  0  0  0  0  0  0  0  0  0
  191.8440  175.3830  145.6600 O   0  0  0  0  0  0  0  0  0  0  0  0
  190.2420  176.0590  143.9270 C   0  0  2  0  0  3  0  0  0  0  0  0
  191.0100  173.0060  142.0660 C   0  0  0  0  0  2  0  0  0  0  0  0
  187.4580  174.8420  141.3070 O   0  0  0  0  0  0  0  0  0  0  0  0
  187.5610  177.8800  147.4720 C   0  0  0  0  0  3  0  0  0  0  0  0
  187.6590  177.6540  146.1610 C   0  0  0  0  0  0  0  0  0  0  0  0
  188.4000  175.5740  141.5800 C   0  0  0  0  0  0  0  0  0  0  0  0
  184.6660  178.2030  140.8170 C   0  0  0  0  0  2  0  0  0  0  0  0
  182.1680  178.1400  140.8610 C   0  0  0  0  0  1  0  0  0  0  0  0
  183.4280  178.1860  141.7010 C   0  0  0  0  0  2  0  0  0  0  0  0
  1 19  2  0  0  0  0
  2 16  1  1  0  0  0
  2 13  1  0  0  0  0
  4  1  1  0  0  0  0
  4 20  2  0  0  0  0
  5  1  1  0  0  0  0
  6  8  2  0  0  0  0
  7 15  1  6  0  0  0
  7  9  1  0  0  0  0
  8 11  1  0  0  0  0
  9 14  1  6  0  0  0
  9 22  1  0  0  0  0
 10 21  2  0  0  0  0
 10  3  1  0  0  0  0
 11  5  1  0  0  0  0
 12  8  1  6  0  0  0
 12  4  1  0  0  0  0
 13 18  2  0  0  0  0
 15 23  1  0  0  0  0
 17 26  1  0  0  0  0
 17  3  1  0  0  0  0
 19  2  1  0  0  0  0
 19 26  1  0  0  0  0
 20 17  1  0  0  0  0
 22 20  1  1  0  0  0
 22 10  1  0  0  0  0
 23 14  1  0  0  0  0
 24 27  2  0  0  0  0
 25 18  1  0  0  0  0
 26 25  2  0  0  0  0
 27 12  1  0  0  0  0
 27  7  1  0  0  0  0
 28 11  1  0  0  0  0
 28 30  1  0  0  0  0
 29 30  1  0  0  0  0
M  END
>  <MODEL>
2

>  <REMARK>
 VINA RESULT:      -8.5      1.892      7.275
  Name = 
  2 active torsions:
  status: ('A' for Active; 'I' for Inactive)
    1  A    between atoms: N_11  and  C_28
    2  A    between atoms: C_28  and  C_30
                            x       y       z     vdW  Elec       q    Type
                         _______ _______ _______ _____ _____    ______ ____

>  <TORSDO>
F 2

$$$$
=
 OpenBabel11112416253D

 30 35  0  0  1  0  0  0  0  0999 V2000
  186.6660  176.8830  144.2020 C   0  0  0  0  0  0  0  0  0  0  0  0
  185.4630  178.0160  142.3120 C   0  0  0  0  0  0  0  0  0  0  0  0
  189.7260  175.2630  141.8420 N   0  0  0  0  0  2  0  0  0  0  0  0
  187.8110  176.0840  144.7630 C   0  0  0  0  0  0  0  0  0  0  0  0
  185.5300  177.2800  145.1040 C   0  0  0  0  0  2  0  0  0  0  0  0
  186.7180  176.1540  148.2860 O   0  0  0  0  0  0  0  0  0  0  0  0
  190.4390  175.3910  146.4670 C   0  0  1  0  0  3  0  0  0  0  0  0
  186.8350  176.4690  147.0720 C   0  0  0  0  0  0  0  0  0  0  0  0
  190.8880  175.5370  145.0890 N   0  0  1  0  0  0  0  0  0  0  0  0
  190.5020  174.5920  142.8260 C   0  0  0  0  0  0  0  0  0  0  0  0
  185.9510  177.4330  146.4890 N   0  0  0  0  0  0  0  0  0  0  0  0
  187.9390  175.8570  146.2570 C   0  0  2  0  0  3  0  0  0  0  0  0
  185.4170  178.0360  140.8060 C   0  0  0  0  0  3  0  0  0  0  0  0
  192.2200  174.9380  145.1230 C   0  0  0  0  0  2  0  0  0  0  0  0
  191.6390  175.6170  147.3590 C   0  0  0  0  0  2  0  0  0  0  0  0
  185.5980  179.3260  142.7770 O   0  0  0  0  0  1  0  0  0  0  0  0
  188.6740  175.8640  142.5270 N   0  0  0  0  0  0  0  0  0  0  0  0
  186.3650  177.4860  140.0430 C   0  0  0  0  0  3  0  0  0  0  0  0
  186.5810  177.1570  142.8750 C   0  0  0  0  0  0  0  0  0  0  0  0
  188.7430  175.5940  143.9150 C   0  0  0  0  0  0  0  0  0  0  0  0
  191.4940  173.8780  142.5260 O   0  0  0  0  0  0  0  0  0  0  0  0
  189.9700  174.7630  144.2350 C   0  0  2  0  0  3  0  0  0  0  0  0
  192.8100  175.2140  146.4950 C   0  0  0  0  0  2  0  0  0  0  0  0
  189.4680  177.4290  147.1910 O   0  0  0  0  0  0  0  0  0  0  0  0
  187.5100  176.7770  140.6350 C   0  0  0  0  0  3  0  0  0  0  0  0
  187.6120  176.6210  141.9560 C   0  0  2  0  0  3  0  0  0  0  0  0
  189.2890  176.3030  146.7460 C   0  0  0  0  0  0  0  0  0  0  0  0
  185.1650  178.3220  147.3350 C   0  0  0  0  0  2  0  0  0  0  0  0
  186.9540  179.5480  148.5790 C   0  0  0  0  0  1  0  0  0  0  0  0
  185.8770  179.6540  147.5170 C   0  0  0  0  0  2  0  0  0  0  0  0
  1  4  1  0  0  0  0
  1  5  1  0  0  0  0
  2 16  1  0  0  0  0
  2 19  1  0  0  0  0
  3 17  1  0  0  0  0
  3 10  1  0  0  0  0
  5 11  1  0  0  0  0
  7 27  1  0  0  0  0
  7 15  1  1  0  0  0
  8  6  2  0  0  0  0
  9 14  1  1  0  0  0
  9  7  1  0  0  0  0
 11  8  1  0  0  0  0
 11 28  1  0  0  0  0
 12  4  1  6  0  0  0
 12 27  1  0  0  0  0
 12  8  1  0  0  0  0
 13  2  2  0  0  0  0
 14 23  1  0  0  0  0
 17 20  1  0  0  0  0
 18 25  2  0  0  0  0
 18 13  1  0  0  0  0
 19  1  2  0  0  0  0
 20 22  1  0  0  0  0
 20  4  2  0  0  0  0
 21 10  2  0  0  0  0
 22 10  1  6  0  0  0
 22  9  1  0  0  0  0
 23 15  1  0  0  0  0
 26 25  1  6  0  0  0
 26 17  1  0  0  0  0
 26 19  1  0  0  0  0
 27 24  2  0  0  0  0
 28 30  1  0  0  0  0
 30 29  1  0  0  0  0
M  END
>  <MODEL>
3

>  <REMARK>
 VINA RESULT:      -8.0      1.555      5.465
  Name = 
  2 active torsions:
  status: ('A' for Active; 'I' for Inactive)
    1  A    between atoms: N_11  and  C_28
    2  A    between atoms: C_28  and  C_30
                            x       y       z     vdW  Elec       q    Type
                         _______ _______ _______ _____ _____    ______ ____

>  <TORSDO>
F 2

$$$$
=
 OpenBabel11112416253D

 30 35  0  0  1  0  0  0  0  0999 V2000
  190.0070  175.3300  144.2540 C   0  0  0  0  0  0  0  0  0  0  0  0
  192.1500  175.5250  145.5480 C   0  0  2  0  0  3  0  0  0  0  0  0
  187.6880  177.5620  146.9360 N   0  0  0  0  0  2  0  0  0  0  0  0
  188.5540  175.6490  144.0270 C   0  0  0  0  0  0  0  0  0  0  0  0
  190.7100  174.3840  143.3190 C   0  0  0  0  0  2  0  0  0  0  0  0
  188.1850  173.8120  140.8480 O   0  0  0  0  0  0  0  0  0  0  0  0
  185.9280  176.8750  142.6540 C   0  0  1  0  0  3  0  0  0  0  0  0
  188.7190  174.4220  141.8140 C   0  0  0  0  0  0  0  0  0  0  0  0
  186.1860  177.7040  143.8240 N   0  0  1  0  0  0  0  0  0  0  0  0
  186.4240  177.5370  146.2890 C   0  0  0  0  0  0  0  0  0  0  0  0
  190.1420  174.4050  141.9800 N   0  0  0  0  0  0  0  0  0  0  0  0
  187.8500  175.2020  142.7600 C   0  0  2  0  0  3  0  0  0  0  0  0
  192.6550  175.9290  146.9090 C   0  0  0  0  0  3  0  0  0  0  0  0
  184.9280  178.4290  143.9840 C   0  0  0  0  0  2  0  0  0  0  0  0
  185.0910  177.6940  141.6960 C   0  0  0  0  0  2  0  0  0  0  0  0
  192.8840  176.2020  144.5740 O   0  0  0  0  0  1  0  0  0  0  0  0
  188.5560  176.8550  146.1100 N   0  0  0  0  0  0  0  0  0  0  0  0
  191.9110  176.6040  147.7890 C   0  0  0  0  0  3  0  0  0  0  0  0
  190.6680  175.7890  145.3470 C   0  0  0  0  0  0  0  0  0  0  0  0
  187.8900  176.3680  144.9600 C   0  0  0  0  0  0  0  0  0  0  0  0
  185.3900  178.0260  146.8150 O   0  0  0  0  0  0  0  0  0  0  0  0
  186.4390  176.8040  144.9620 C   0  0  2  0  0  3  0  0  0  0  0  0
  184.3500  178.6540  142.5970 C   0  0  0  0  0  2  0  0  0  0  0  0
  187.7880  176.9920  141.1880 O   0  0  0  0  0  0  0  0  0  0  0  0
  190.5150  176.9620  147.4980 C   0  0  0  0  0  3  0  0  0  0  0  0
  189.9320  176.5830  146.3590 C   0  0  0  0  0  0  0  0  0  0  0  0
  187.2080  176.3730  142.0700 C   0  0  0  0  0  0  0  0  0  0  0  0
  191.0100  174.0170  140.8760 C   0  0  0  0  0  2  0  0  0  0  0  0
  190.9470  171.5190  140.8430 C   0  0  0  0  0  1  0  0  0  0  0  0
  191.7650  172.7400  141.2110 C   0  0  0  0  0  2  0  0  0  0  0  0
  1 19  2  0  0  0  0
  2 16  1  6  0  0  0
  2 13  1  0  0  0  0
  4  1  1  0  0  0  0
  4 20  2  0  0  0  0
  5  1  1  0  0  0  0
  6  8  2  0  0  0  0
  7 15  1  6  0  0  0
  7  9  1  0  0  0  0
  8 11  1  0  0  0  0
  9 14  1  1  0  0  0
  9 22  1  0  0  0  0
 10 21  2  0  0  0  0
 10  3  1  0  0  0  0
 11  5  1  0  0  0  0
 12  8  1  6  0  0  0
 12  4  1  0  0  0  0
 13 18  2  0  0  0  0
 15 23  1  0  0  0  0
 17 26  1  0  0  0  0
 17  3  1  0  0  0  0
 19  2  1  0  0  0  0
 19 26  1  0  0  0  0
 20 17  1  0  0  0  0
 22 20  1  6  0  0  0
 22 10  1  0  0  0  0
 23 14  1  0  0  0  0
 24 27  2  0  0  0  0
 25 18  1  0  0  0  0
 26 25  2  0  0  0  0
 27  7  1  0  0  0  0
 27 12  1  0  0  0  0
 28 30  1  0  0  0  0
 28 11  1  0  0  0  0
 29 30  1  0  0  0  0
M  END
>  <MODEL>
4

>  <REMARK>
 VINA RESULT:      -7.9      1.884      4.936
  Name = 
  2 active torsions:
  status: ('A' for Active; 'I' for Inactive)
    1  A    between atoms: N_11  and  C_28
    2  A    between atoms: C_28  and  C_30
                            x       y       z     vdW  Elec       q    Type
                         _______ _______ _______ _____ _____    ______ ____

>  <TORSDO>
F 2

$$$$
=
 OpenBabel11112416253D

 30 35  0  0  1  0  0  0  0  0999 V2000
  190.5850  174.9230  143.7920 C   0  0  0  0  0  0  0  0  0  0  0  0
  192.9510  175.0030  144.6300 C   0  0  2  0  0  3  0  0  0  0  0  0
  188.9590  177.2160  146.8990 N   0  0  0  0  0  2  0  0  0  0  0  0
  189.1330  175.3090  143.8640 C   0  0  0  0  0  0  0  0  0  0  0  0
  191.0410  173.9610  142.7300 C   0  0  0  0  0  2  0  0  0  0  0  0
  188.0480  173.5390  140.8150 O   0  0  0  0  0  0  0  0  0  0  0  0
  186.3440  176.6710  143.0560 C   0  0  1  0  0  3  0  0  0  0  0  0
  188.7920  174.1090  141.6570 C   0  0  0  0  0  0  0  0  0  0  0  0
  186.8700  177.4700  144.1550 N   0  0  1  0  0  0  0  0  0  0  0  0
  187.5900  177.2560  146.5200 C   0  0  0  0  0  0  0  0  0  0  0  0
  190.2170  174.0270  141.5320 N   0  0  0  0  0  0  0  0  0  0  0  0
  188.1690  174.9130  142.7630 C   0  0  2  0  0  3  0  0  0  0  0  0
  193.7380  175.3640  145.8640 C   0  0  0  0  0  3  0  0  0  0  0  0
  185.7060  178.2480  144.5690 C   0  0  0  0  0  2  0  0  0  0  0  0
  185.3710  177.5400  142.2910 C   0  0  0  0  0  2  0  0  0  0  0  0
  193.5060  175.6620  143.5310 O   0  0  0  0  0  1  0  0  0  0  0  0
  189.6100  176.4830  145.9110 N   0  0  0  0  0  0  0  0  0  0  0  0
  193.2180  176.0580  146.8790 C   0  0  0  0  0  3  0  0  0  0  0  0
  191.4730  175.3360  144.7330 C   0  0  0  0  0  0  0  0  0  0  0  0
  188.7040  176.0430  144.9160 C   0  0  0  0  0  0  0  0  0  0  0  0
  186.7080  177.7820  147.2470 O   0  0  0  0  0  0  0  0  0  0  0  0
  187.3040  176.5430  145.2130 C   0  0  2  0  0  3  0  0  0  0  0  0
  184.8720  178.5190  143.3290 C   0  0  0  0  0  2  0  0  0  0  0  0
  187.8750  176.7280  141.2460 O   0  0  0  0  0  0  0  0  0  0  0  0
  191.8100  176.4820  146.8770 C   0  0  0  0  0  3  0  0  0  0  0  0
  190.9930  176.1460  145.8770 C   0  0  0  0  0  0  0  0  0  0  0  0
  187.4560  176.1220  142.2240 C   0  0  0  0  0  0  0  0  0  0  0  0
  190.8260  173.6180  140.2740 C   0  0  0  0  0  2  0  0  0  0  0  0
  190.5890  171.1360  140.0930 C   0  0  0  0  0  1  0  0  0  0  0  0
  191.5280  172.2770  140.4300 C   0  0  0  0  0  2  0  0  0  0  0  0
  1  4  1  0  0  0  0
  1 19  2  0  0  0  0
  2 16  1  6  0  0  0
  2 19  1  0  0  0  0
  2 13  1  0  0  0  0
  4 20  2  0  0  0  0
  5  1  1  0  0  0  0
  6  8  2  0  0  0  0
  7 15  1  6  0  0  0
  7  9  1  0  0  0  0
  9 14  1  1  0  0  0
  9 22  1  0  0  0  0
 10  3  1  0  0  0  0
 10 21  2  0  0  0  0
 11  8  1  0  0  0  0
 11  5  1  0  0  0  0
 12  8  1  6  0  0  0
 12  4  1  0  0  0  0
 13 18  2  0  0  0  0
 15 23  1  0  0  0  0
 17  3  1  0  0  0  0
 19 26  1  0  0  0  0
 20 17  1  0  0  0  0
 22 20  1  6  0  0  0
 22 10  1  0  0  0  0
 23 14  1  0  0  0  0
 24 27  2  0  0  0  0
 25 18  1  0  0  0  0
 26 17  1  0  0  0  0
 26 25  2  0  0  0  0
 27 12  1  0  0  0  0
 27  7  1  0  0  0  0
 28 30  1  0  0  0  0
 28 11  1  0  0  0  0
 29 30  1  0  0  0  0
M  END
>  <MODEL>
5

>  <REMARK>
 VINA RESULT:      -7.8      1.822      5.067
  Name = 
  2 active torsions:
  status: ('A' for Active; 'I' for Inactive)
    1  A    between atoms: N_11  and  C_28
    2  A    between atoms: C_28  and  C_30
                            x       y       z     vdW  Elec       q    Type
                         _______ _______ _______ _____ _____    ______ ____

>  <TORSDO>
F 2

$$$$
=
 OpenBabel11112416253D

 30 35  0  0  1  0  0  0  0  0999 V2000
  187.2820  176.5750  143.7770 C   0  0  0  0  0  0  0  0  0  0  0  0
  185.7670  177.9940  142.3640 C   0  0  0  0  0  0  0  0  0  0  0  0
  189.2990  174.7880  140.5680 N   0  0  0  0  0  2  0  0  0  0  0  0
  188.4150  175.6000  143.9500 C   0  0  0  0  0  0  0  0  0  0  0  0
  186.5130  177.0330  144.9850 C   0  0  0  0  0  2  0  0  0  0  0  0
  188.3780  175.5210  147.6380 O   0  0  0  0  0  0  0  0  0  0  0  0
  191.2920  174.4580  144.7900 C   0  0  1  0  0  3  0  0  0  0  0  0
  188.1910  175.9150  146.4550 C   0  0  0  0  0  0  0  0  0  0  0  0
  191.3520  174.6580  143.3480 N   0  0  1  0  0  0  0  0  0  0  0  0
  190.2180  173.9510  141.2570 C   0  0  0  0  0  0  0  0  0  0  0  0
  187.3220  177.0240  146.1940 N   0  0  0  0  0  0  0  0  0  0  0  0
  188.9250  175.2400  145.3320 C   0  0  2  0  0  3  0  0  0  0  0  0
  185.3030  178.1390  140.9380 C   0  0  0  0  0  3  0  0  0  0  0  0
  192.5430  173.9010  142.9710 C   0  0  0  0  0  2  0  0  0  0  0  0
  192.7140  174.4650  145.3060 C   0  0  0  0  0  2  0  0  0  0  0  0
  186.2080  179.2360  142.8250 O   0  0  0  0  0  1  0  0  0  0  0  0
  188.5770  175.4560  141.5520 N   0  0  0  0  0  0  0  0  0  0  0  0
  185.9130  177.5410  139.9120 C   0  0  0  0  0  3  0  0  0  0  0  0
  186.8660  176.9630  142.5430 C   0  0  0  0  0  0  0  0  0  0  0  0
  188.9940  175.0700  142.8480 C   0  0  0  0  0  0  0  0  0  0  0  0
  190.9760  173.1470  140.6530 O   0  0  0  0  0  0  0  0  0  0  0  0
  190.1330  174.0730  142.7650 C   0  0  2  0  0  3  0  0  0  0  0  0
  193.5270  173.9920  144.1240 C   0  0  0  0  0  2  0  0  0  0  0  0
  190.8580  176.5350  145.8480 O   0  0  0  0  0  0  0  0  0  0  0  0
  187.0670  176.6520  140.1170 C   0  0  0  0  0  3  0  0  0  0  0  0
  187.5130  176.3800  141.3440 C   0  0  2  0  0  3  0  0  0  0  0  0
  190.4070  175.4780  145.4270 C   0  0  0  0  0  0  0  0  0  0  0  0
  186.9380  177.9310  147.2670 C   0  0  0  0  0  2  0  0  0  0  0  0
  184.5450  178.6510  147.2630 C   0  0  0  0  0  1  0  0  0  0  0  0
  185.9410  178.9640  146.7630 C   0  0  0  0  0  2  0  0  0  0  0  0
  1  4  1  0  0  0  0
  1  5  1  0  0  0  0
  2 19  1  0  0  0  0
  2 16  1  0  0  0  0
  3 10  1  0  0  0  0
  3 17  1  0  0  0  0
  5 11  1  0  0  0  0
  7 15  1  1  0  0  0
  7 27  1  0  0  0  0
  8  6  2  0  0  0  0
  9 14  1  6  0  0  0
  9  7  1  0  0  0  0
 11  8  1  0  0  0  0
 11 28  1  0  0  0  0
 12  4  1  6  0  0  0
 12 27  1  0  0  0  0
 12  8  1  0  0  0  0
 13  2  2  0  0  0  0
 14 23  1  0  0  0  0
 17 20  1  0  0  0  0
 18 25  2  0  0  0  0
 18 13  1  0  0  0  0
 19  1  2  0  0  0  0
 20  4  2  0  0  0  0
 21 10  2  0  0  0  0
 22 10  1  6  0  0  0
 22 20  1  0  0  0  0
 22  9  1  0  0  0  0
 23 15  1  0  0  0  0
 26 25  1  1  0  0  0
 26 17  1  0  0  0  0
 26 19  1  0  0  0  0
 27 24  2  0  0  0  0
 30 29  1  0  0  0  0
 30 28  1  0  0  0  0
M  END
>  <MODEL>
6

>  <REMARK>
 VINA RESULT:      -7.5      1.721      5.678
  Name = 
  2 active torsions:
  status: ('A' for Active; 'I' for Inactive)
    1  A    between atoms: N_11  and  C_28
    2  A    between atoms: C_28  and  C_30
                            x       y       z     vdW  Elec       q    Type
                         _______ _______ _______ _____ _____    ______ ____

>  <TORSDO>
F 2

$$$$
=
 OpenBabel11112416253D

 30 35  0  0  1  0  0  0  0  0999 V2000
  189.1010  176.9520  144.4970 C   0  0  0  0  0  0  0  0  0  0  0  0
  189.4030  177.5620  146.9140 C   0  0  0  0  0  0  0  0  0  0  0  0
  192.5300  174.5590  144.2340 N   0  0  0  0  0  2  0  0  0  0  0  0
  189.4960  176.2040  143.2530 C   0  0  0  0  0  0  0  0  0  0  0  0
  187.9470  177.9150  144.4440 C   0  0  0  0  0  2  0  0  0  0  0  0
  186.7260  177.3860  141.1220 O   0  0  0  0  0  0  0  0  0  0  0  0
  189.3430  174.0990  140.8380 C   0  0  1  0  0  3  0  0  0  0  0  0
  187.3950  177.0980  142.1510 C   0  0  0  0  0  0  0  0  0  0  0  0
  190.3140  173.5540  141.7770 N   0  0  1  0  0  0  0  0  0  0  0  0
  192.4610  174.1320  142.8810 C   0  0  0  0  0  0  0  0  0  0  0  0
  186.9610  177.5430  143.4420 N   0  0  0  0  0  0  0  0  0  0  0  0
  188.6250  176.2470  142.0120 C   0  0  2  0  0  3  0  0  0  0  0  0
  190.4410  177.5160  148.0060 C   0  0  0  0  0  3  0  0  0  0  0  0
  190.9880  172.5310  140.9800 C   0  0  0  0  0  2  0  0  0  0  0  0
  188.8260  172.9480  140.0040 C   0  0  0  0  0  2  0  0  0  0  0  0
  188.2220  176.9890  147.3900 O   0  0  0  0  0  1  0  0  0  0  0  0
  191.4110  175.3590  144.4420 N   0  0  0  0  0  0  0  0  0  0  0  0
  191.5580  176.7900  147.9160 C   0  0  0  0  0  3  0  0  0  0  0  0
  189.8320  176.8610  145.6380 C   0  0  0  0  0  0  0  0  0  0  0  0
  190.6300  175.4670  143.2660 C   0  0  0  0  0  0  0  0  0  0  0  0
  193.3720  173.4490  142.3450 O   0  0  0  0  0  0  0  0  0  0  0  0
  191.2350  174.6410  142.1490 C   0  0  2  0  0  3  0  0  0  0  0  0
  189.9650  171.9560  140.0160 C   0  0  0  0  0  2  0  0  0  0  0  0
  187.2440  174.3070  141.9210 O   0  0  0  0  0  0  0  0  0  0  0  0
  191.8720  176.0120  146.7080 C   0  0  0  0  0  3  0  0  0  0  0  0
  191.0690  176.0440  145.6430 C   0  0  2  0  0  3  0  0  0  0  0  0
  188.2770  174.8550  141.5620 C   0  0  0  0  0  0  0  0  0  0  0  0
  185.5920  177.9990  143.6440 C   0  0  0  0  0  2  0  0  0  0  0  0
  184.4520  178.6680  145.7650 C   0  0  0  0  0  1  0  0  0  0  0  0
  185.5300  179.0270  144.7630 C   0  0  0  0  0  2  0  0  0  0  0  0
  1 19  2  0  0  0  0
  2 16  1  0  0  0  0
  2 13  2  0  0  0  0
  3 17  1  0  0  0  0
  4 20  2  0  0  0  0
  4  1  1  0  0  0  0
  5  1  1  0  0  0  0
  6  8  2  0  0  0  0
  7 15  1  1  0  0  0
  7 27  1  0  0  0  0
  7  9  1  0  0  0  0
  8 11  1  0  0  0  0
  9 14  1  6  0  0  0
  9 22  1  0  0  0  0
 10  3  1  0  0  0  0
 11 28  1  0  0  0  0
 11  5  1  0  0  0  0
 12 27  1  1  0  0  0
 12  8  1  0  0  0  0
 12  4  1  0  0  0  0
 15 23  1  0  0  0  0
 17 26  1  0  0  0  0
 18 13  1  0  0  0  0
 19 26  1  0  0  0  0
 19  2  1  0  0  0  0
 20 17  1  0  0  0  0
 21 10  2  0  0  0  0
 22 10  1  1  0  0  0
 22 20  1  0  0  0  0
 23 14  1  0  0  0  0
 25 18  2  0  0  0  0
 26 25  1  6  0  0  0
 27 24  2  0  0  0  0
 28 30  1  0  0  0  0
 30 29  1  0  0  0  0
M  END
>  <MODEL>
7

>  <REMARK>
 VINA RESULT:      -7.4      1.752      6.794
  Name = 
  2 active torsions:
  status: ('A' for Active; 'I' for Inactive)
    1  A    between atoms: N_11  and  C_28
    2  A    between atoms: C_28  and  C_30
                            x       y       z     vdW  Elec       q    Type
                         _______ _______ _______ _____ _____    ______ ____

>  <TORSDO>
F 2

$$$$
=
 OpenBabel11112416253D

 30 35  0  0  1  0  0  0  0  0999 V2000
  187.4830  176.4300  142.8680 C   0  0  0  0  0  0  0  0  0  0  0  0
  186.8030  176.6310  140.4590 C   0  0  2  0  0  3  0  0  0  0  0  0
  190.3550  173.4440  142.2490 N   0  0  0  0  0  2  0  0  0  0  0  0
  188.3400  175.8650  143.9680 C   0  0  0  0  0  0  0  0  0  0  0  0
  186.3670  177.3770  143.2160 C   0  0  0  0  0  2  0  0  0  0  0  0
  186.8790  177.8280  146.7280 O   0  0  0  0  0  0  0  0  0  0  0  0
  190.5190  175.7510  146.3180 C   0  0  1  0  0  3  0  0  0  0  0  0
  187.2080  177.4780  145.5630 C   0  0  0  0  0  0  0  0  0  0  0  0
  191.1520  175.1290  145.1630 N   0  0  1  0  0  0  0  0  0  0  0  0
  190.8350  173.2500  143.5730 C   0  0  0  0  0  0  0  0  0  0  0  0
  186.6420  178.1380  144.4250 N   0  0  0  0  0  0  0  0  0  0  0  0
  188.2340  176.3950  145.3850 C   0  0  2  0  0  3  0  0  0  0  0  0
  186.9440  175.9060  139.1450 C   0  0  0  0  0  3  0  0  0  0  0  0
  192.2990  174.4470  145.7560 C   0  0  0  0  0  2  0  0  0  0  0  0
  191.6240  176.2210  147.2390 C   0  0  0  0  0  2  0  0  0  0  0  0
  187.1750  177.9650  140.2810 O   0  0  0  0  0  1  0  0  0  0  0  0
  189.3930  174.4450  142.3330 N   0  0  0  0  0  0  0  0  0  0  0  0
  187.8260  174.9240  138.9490 C   0  0  0  0  0  3  0  0  0  0  0  0
  187.6210  176.0180  141.5820 C   0  0  0  0  0  0  0  0  0  0  0  0
  189.2320  174.8940  143.6660 C   0  0  0  0  0  0  0  0  0  0  0  0
  191.6680  172.3500  143.8600 O   0  0  0  0  0  0  0  0  0  0  0  0
  190.1910  174.1710  144.5900 C   0  0  2  0  0  3  0  0  0  0  0  0
  192.7680  175.2830  146.9350 C   0  0  0  0  0  2  0  0  0  0  0  0
  189.9570  177.9930  145.7870 O   0  0  0  0  0  0  0  0  0  0  0  0
  188.7010  174.4500  140.0320 C   0  0  0  0  0  3  0  0  0  0  0  0
  188.6070  174.9590  141.2620 C   0  0  0  0  0  0  0  0  0  0  0  0
  189.5820  176.8320  145.8880 C   0  0  0  0  0  0  0  0  0  0  0  0
  185.9840  179.4290  144.5710 C   0  0  0  0  0  2  0  0  0  0  0  0
  183.8150  178.7400  145.6050 C   0  0  0  0  0  1  0  0  0  0  0  0
  184.4830  179.2920  144.3620 C   0  0  0  0  0  2  0  0  0  0  0  0
  1  5  1  0  0  0  0
  1  4  1  0  0  0  0
  2 16  1  6  0  0  0
  2 19  1  0  0  0  0
  3 17  1  0  0  0  0
  3 10  1  0  0  0  0
  5 11  1  0  0  0  0
  7 15  1  1  0  0  0
  8  6  2  0  0  0  0
  9 14  1  1  0  0  0
  9  7  1  0  0  0  0
 10 21  2  0  0  0  0
 11 28  1  0  0  0  0
 11  8  1  0  0  0  0
 12  4  1  6  0  0  0
 12  8  1  0  0  0  0
 12 27  1  0  0  0  0
 13  2  1  0  0  0  0
 14 23  1  0  0  0  0
 17 20  1  0  0  0  0
 18 13  2  0  0  0  0
 18 25  1  0  0  0  0
 19  1  2  0  0  0  0
 20  4  2  0  0  0  0
 20 22  1  0  0  0  0
 22 10  1  6  0  0  0
 22  9  1  0  0  0  0
 23 15  1  0  0  0  0
 24 27  2  0  0  0  0
 25 26  2  0  0  0  0
 26 19  1  0  0  0  0
 26 17  1  0  0  0  0
 27  7  1  0  0  0  0
 30 28  1  0  0  0  0
 30 29  1  0  0  0  0
M  END
>  <MODEL>
8

>  <REMARK>
 VINA RESULT:      -7.1      1.551      5.564
  Name = 
  2 active torsions:
  status: ('A' for Active; 'I' for Inactive)
    1  A    between atoms: N_11  and  C_28
    2  A    between atoms: C_28  and  C_30
                            x       y       z     vdW  Elec       q    Type
                         _______ _______ _______ _____ _____    ______ ____

>  <TORSDO>
F 2

$$$$
=
 OpenBabel11112416253D

 30 35  0  0  1  0  0  0  0  0999 V2000
  191.4220  174.7000  142.9460 C   0  0  0  0  0  0  0  0  0  0  0  0
  192.1730  173.0500  141.2080 C   0  0  0  0  0  0  0  0  0  0  0  0
  187.7210  175.5310  141.1670 N   0  0  0  0  0  2  0  0  0  0  0  0
  190.4040  175.6300  143.5480 C   0  0  0  0  0  0  0  0  0  0  0  0
  192.7860  174.5940  143.5720 C   0  0  0  0  0  2  0  0  0  0  0  0
  192.3930  176.6250  146.4910 O   0  0  0  0  0  0  0  0  0  0  0  0
  188.2720  176.8010  145.6380 C   0  0  1  0  0  3  0  0  0  0  0  0
  191.9850  175.9590  145.5020 C   0  0  0  0  0  0  0  0  0  0  0  0
  187.4880  176.2470  144.5430 N   0  0  1  0  0  0  0  0  0  0  0  0
  187.1800  176.4660  142.0900 C   0  0  0  0  0  0  0  0  0  0  0  0
  192.7620  174.8640  145.0010 N   0  0  0  0  0  0  0  0  0  0  0  0
  190.6570  176.2960  144.8860 C   0  0  2  0  0  3  0  0  0  0  0  0
  191.8200  172.5780  139.8210 C   0  0  0  0  0  3  0  0  0  0  0  0
  186.1670  176.8270  144.7710 C   0  0  0  0  0  2  0  0  0  0  0  0
  187.3750  176.8530  146.8550 C   0  0  0  0  0  2  0  0  0  0  0  0
  192.2780  171.9410  142.0500 O   0  0  0  0  0  1  0  0  0  0  0  0
  188.9630  175.1650  141.6760 N   0  0  0  0  0  0  0  0  0  0  0  0
  190.6610  172.8720  139.2280 C   0  0  0  0  0  3  0  0  0  0  0  0
  191.1760  174.0380  141.7860 C   0  0  0  0  0  0  0  0  0  0  0  0
  189.2420  175.8400  142.8880 C   0  0  0  0  0  0  0  0  0  0  0  0
  186.0870  177.0560  141.8850 O   0  0  0  0  0  0  0  0  0  0  0  0
  188.0780  176.7280  143.2830 C   0  0  2  0  0  3  0  0  0  0  0  0
  185.9870  176.9760  146.2720 C   0  0  0  0  0  2  0  0  0  0  0  0
  189.5690  175.0760  146.6210 O   0  0  0  0  0  0  0  0  0  0  0  0
  189.6580  173.7250  139.8820 C   0  0  0  0  0  3  0  0  0  0  0  0
  189.8960  174.2710  141.0760 C   0  0  2  0  0  3  0  0  0  0  0  0
  189.5280  176.0160  145.8380 C   0  0  0  0  0  0  0  0  0  0  0  0
  193.8150  174.2720  145.8150 C   0  0  0  0  0  2  0  0  0  0  0  0
  196.2890  173.9580  145.9840 C   0  0  0  0  0  1  0  0  0  0  0  0
  195.1780  174.8040  145.3970 C   0  0  0  0  0  2  0  0  0  0  0  0
  1  4  1  0  0  0  0
  1  5  1  0  0  0  0
  2 19  1  0  0  0  0
  2 16  1  0  0  0  0
  3 17  1  0  0  0  0
  3 10  1  0  0  0  0
  5 11  1  0  0  0  0
  7 27  1  0  0  0  0
  7 15  1  1  0  0  0
  8  6  2  0  0  0  0
  9 14  1  1  0  0  0
  9  7  1  0  0  0  0
 11  8  1  0  0  0  0
 11 28  1  0  0  0  0
 12  4  1  6  0  0  0
 12  8  1  0  0  0  0
 12 27  1  0  0  0  0
 13  2  2  0  0  0  0
 14 23  1  0  0  0  0
 17 20  1  0  0  0  0
 18 13  1  0  0  0  0
 18 25  2  0  0  0  0
 19  1  2  0  0  0  0
 20 22  1  0  0  0  0
 20  4  2  0  0  0  0
 21 10  2  0  0  0  0
 22 10  1  6  0  0  0
 22  9  1  0  0  0  0
 23 15  1  0  0  0  0
 26 25  1  6  0  0  0
 26 17  1  0  0  0  0
 26 19  1  0  0  0  0
 27 24  2  0  0  0  0
 30 28  1  0  0  0  0
 30 29  1  0  0  0  0
M  END
>  <MODEL>
9

>  <REMARK>
 VINA RESULT:      -7.1      1.808      2.365
  Name = 
  2 active torsions:
  status: ('A' for Active; 'I' for Inactive)
    1  A    between atoms: N_11  and  C_28
    2  A    between atoms: C_28  and  C_30
                            x       y       z     vdW  Elec       q    Type
                         _______ _______ _______ _____ _____    ______ ____

>  <TORSDO>
F 2

$$$$
