=
 OpenBabel11112417053D

 31 35  0  0  1  0  0  0  0  0999 V2000
  184.9820  178.3820  147.0170 C   0  0  0  0  0  0  0  0  0  0  0  0
  187.4490  175.8680  145.5680 C   0  0  2  0  0  3  0  0  0  0  0  0
  187.5330  176.1780  144.0790 C   0  0  0  0  0  0  0  0  0  0  0  0
  186.5810  177.0390  142.0010 C   0  0  0  0  0  0  0  0  0  0  0  0
  186.8840  177.0180  146.3680 C   0  0  0  0  0  0  0  0  0  0  0  0
  185.8230  179.1970  147.7790 C   0  0  0  0  0  3  0  0  0  0  0  0
  186.5170  176.7730  143.4440 C   0  0  0  0  0  3  0  0  0  0  0  0
  189.6920  176.6260  146.2760 N   0  0  0  0  0  0  0  0  0  0  0  0
  183.6550  178.6450  146.9560 F   0  0  0  0  0  0  0  0  0  0  0  0
  189.6520  174.8780  143.9290 O   0  0  0  0  0  0  0  0  0  0  0  0
  185.5770  177.5090  141.4080 O   0  0  0  0  0  0  0  0  0  0  0  0
  189.1690  177.4810  147.3460 C   0  0  0  0  0  2  0  0  0  0  0  0
  188.8200  175.4460  146.1450 C   0  0  2  0  0  3  0  0  0  0  0  0
  185.5100  177.2940  146.3170 C   0  0  0  0  0  3  0  0  0  0  0  0
  187.8570  176.8140  141.2430 C   0  0  0  0  0  2  0  0  0  0  0  0
  187.7270  177.8410  147.1390 C   0  0  0  0  0  0  0  0  0  0  0  0
  187.1900  178.9200  147.8480 C   0  0  0  0  0  3  0  0  0  0  0  0
  189.4450  174.3720  145.2450 C   0  0  0  0  0  2  0  0  0  0  0  0
  188.6910  175.6670  143.2980 C   0  0  0  0  0  0  0  0  0  0  0  0
  188.8270  175.9440  141.9970 C   0  0  0  0  0  3  0  0  0  0  0  0
  192.0510  177.0540  144.8350 O   0  0  0  0  0  0  0  0  0  0  0  0
  192.1320  176.4400  145.9340 C   0  0  0  0  0  0  0  0  0  0  0  0
  190.9570  176.1910  146.7050 N   0  0  0  0  0  2  0  0  0  0  0  0
  195.5970  176.1980  144.4240 C   0  0  1  0  0  3  0  0  0  0  0  0
  194.5000  177.0680  146.5070 C   0  0  0  0  0  2  0  0  0  0  0  0
  193.0220  173.7410  145.5490 O   0  0  0  0  0  1  0  0  0  0  0  0
  196.0630  176.5520  143.1590 O   0  0  0  0  0  1  0  0  0  0  0  0
  195.0280  177.4320  145.1190 C   0  0  0  0  0  2  0  0  0  0  0  0
  193.9980  174.7330  145.6680 C   0  0  2  0  0  3  0  0  0  0  0  0
  193.4570  175.9480  146.4410 C   0  0  2  0  0  3  0  0  0  0  0  0
  194.5200  175.1260  144.2880 C   0  0  0  0  0  2  0  0  0  0  0  0
  1  6  1  0  0  0  0
  2  3  1  6  0  0  0
  2 13  1  0  0  0  0
  2  5  1  0  0  0  0
  4  7  1  0  0  0  0
  5 16  2  0  0  0  0
  6 17  2  0  0  0  0
  7  3  2  0  0  0  0
  8 23  1  0  0  0  0
  8 12  1  0  0  0  0
  9  1  1  0  0  0  0
 10 18  1  0  0  0  0
 11  4  2  0  0  0  0
 13 18  1  6  0  0  0
 13  8  1  0  0  0  0
 14  5  1  0  0  0  0
 14  1  2  0  0  0  0
 15 20  1  0  0  0  0
 15  4  1  0  0  0  0
 16 12  1  0  0  0  0
 16 17  1  0  0  0  0
 19 10  1  0  0  0  0
 19  3  1  0  0  0  0
 20 19  2  0  0  0  0
 21 22  2  0  0  0  0
 22 23  1  0  0  0  0
 24 27  1  6  0  0  0
 24 28  1  0  0  0  0
 28 25  1  0  0  0  0
 29 26  1  6  0  0  0
 29 30  1  0  0  0  0
 30 22  1  6  0  0  0
 30 25  1  0  0  0  0
 31 24  1  0  0  0  0
 31 29  1  0  0  0  0
M  END
>  <MODEL>
1

>  <REMARK>
 VINA RESULT:      -8.7      0.000      0.000
  Name = 
  2 active torsions:
  status: ('A' for Active; 'I' for Inactive)
    1  A    between atoms: C_5  and  C_30
    2  A    between atoms: N_10  and  N_16
                            x       y       z     vdW  Elec       q    Type
                         _______ _______ _______ _____ _____    ______ ____

>  <TORSDO>
F 2

$$$$
=
 OpenBabel11112417053D

 31 35  0  0  1  0  0  0  0  0999 V2000
  184.9930  177.9880  146.9340 C   0  0  0  0  0  0  0  0  0  0  0  0
  187.0670  175.9920  144.4410 C   0  0  2  0  0  3  0  0  0  0  0  0
  186.7960  176.6170  143.0790 C   0  0  0  0  0  0  0  0  0  0  0  0
  185.3770  177.8460  141.5170 C   0  0  0  0  0  0  0  0  0  0  0  0
  186.6980  176.9080  145.5830 C   0  0  0  0  0  0  0  0  0  0  0  0
  185.9840  178.6690  147.6460 C   0  0  0  0  0  3  0  0  0  0  0  0
  185.6560  177.2740  142.8410 C   0  0  0  0  0  3  0  0  0  0  0  0
  189.4080  176.7090  144.7700 N   0  0  0  0  0  0  0  0  0  0  0  0
  183.6870  178.1810  147.2380 F   0  0  0  0  0  0  0  0  0  0  0  0
  188.8290  175.5050  142.1660 O   0  0  0  0  0  0  0  0  0  0  0  0
  184.2590  178.3740  141.2880 O   0  0  0  0  0  0  0  0  0  0  0  0
  189.1460  177.2830  146.0930 C   0  0  0  0  0  2  0  0  0  0  0  0
  188.5380  175.5360  144.5820 C   0  0  2  0  0  3  0  0  0  0  0  0
  185.3490  177.1080  145.9090 C   0  0  0  0  0  3  0  0  0  0  0  0
  186.4410  177.8640  140.4580 C   0  0  0  0  0  2  0  0  0  0  0  0
  187.6930  177.5950  146.3050 C   0  0  0  0  0  0  0  0  0  0  0  0
  187.3310  178.4640  147.3390 C   0  0  0  0  0  3  0  0  0  0  0  0
  188.9400  174.7180  143.3480 C   0  0  0  0  0  2  0  0  0  0  0  0
  187.7410  176.3540  141.9610 C   0  0  0  0  0  0  0  0  0  0  0  0
  187.5670  176.9100  140.7580 C   0  0  0  0  0  3  0  0  0  0  0  0
  191.5600  178.2220  143.8210 O   0  0  0  0  0  0  0  0  0  0  0  0
  191.8050  177.0810  144.3000 C   0  0  0  0  0  0  0  0  0  0  0  0
  190.7410  176.2660  144.7920 N   0  0  0  0  0  2  0  0  0  0  0  0
  193.3050  173.6220  144.6730 C   0  0  1  0  0  3  0  0  0  0  0  0
  193.5140  175.6220  143.1690 C   0  0  0  0  0  2  0  0  0  0  0  0
  193.2340  176.7160  146.7600 O   0  0  0  0  0  1  0  0  0  0  0  0
  192.6940  172.3790  144.8220 O   0  0  0  0  0  1  0  0  0  0  0  0
  192.8640  174.2490  143.3530 C   0  0  0  0  0  2  0  0  0  0  0  0
  193.5760  175.8920  145.6850 C   0  0  2  0  0  3  0  0  0  0  0  0
  193.2100  176.5540  144.3460 C   0  0  2  0  0  3  0  0  0  0  0  0
  192.9160  174.5240  145.8400 C   0  0  0  0  0  2  0  0  0  0  0  0
  1  9  1  0  0  0  0
  1  6  1  0  0  0  0
  2  3  1  6  0  0  0
  2 13  1  0  0  0  0
  2  5  1  0  0  0  0
  4  7  1  0  0  0  0
  5 14  1  0  0  0  0
  5 16  2  0  0  0  0
  7  3  2  0  0  0  0
  8 23  1  0  0  0  0
  8 12  1  0  0  0  0
 10 18  1  0  0  0  0
 11  4  2  0  0  0  0
 12 16  1  0  0  0  0
 13 18  1  6  0  0  0
 13  8  1  0  0  0  0
 14  1  2  0  0  0  0
 15 20  1  0  0  0  0
 15  4  1  0  0  0  0
 16 17  1  0  0  0  0
 17  6  2  0  0  0  0
 19 10  1  0  0  0  0
 19  3  1  0  0  0  0
 20 19  2  0  0  0  0
 21 22  2  0  0  0  0
 22 23  1  0  0  0  0
 24 27  1  1  0  0  0
 24 31  1  0  0  0  0
 25 28  1  0  0  0  0
 25 30  1  0  0  0  0
 28 24  1  0  0  0  0
 29 31  1  0  0  0  0
 29 26  1  1  0  0  0
 30 22  1  1  0  0  0
 30 29  1  0  0  0  0
M  END
>  <MODEL>
2

>  <REMARK>
 VINA RESULT:      -8.5      1.551      2.163
  Name = 
  2 active torsions:
  status: ('A' for Active; 'I' for Inactive)
    1  A    between atoms: C_5  and  C_30
    2  A    between atoms: N_10  and  N_16
                            x       y       z     vdW  Elec       q    Type
                         _______ _______ _______ _____ _____    ______ ____

>  <TORSDO>
F 2

$$$$
=
 OpenBabel11112417053D

 31 35  0  0  1  0  0  0  0  0999 V2000
  185.8790  178.1950  140.7870 C   0  0  0  0  0  0  0  0  0  0  0  0
  188.2300  178.1580  143.7830 C   0  0  2  0  0  3  0  0  0  0  0  0
  187.3740  177.7640  144.9790 C   0  0  0  0  0  0  0  0  0  0  0  0
  185.2360  177.6520  146.1540 C   0  0  0  0  0  0  0  0  0  0  0  0
  187.5880  177.7940  142.4650 C   0  0  0  0  0  0  0  0  0  0  0  0
  186.3250  177.0870  140.0630 C   0  0  0  0  0  3  0  0  0  0  0  0
  186.0570  177.9980  144.9860 C   0  0  0  0  0  3  0  0  0  0  0  0
  189.5940  176.1110  143.5560 N   0  0  0  0  0  0  0  0  0  0  0  0
  184.8340  178.9270  140.3310 F   0  0  0  0  0  0  0  0  0  0  0  0
  189.4310  177.2040  146.2650 O   0  0  0  0  0  0  0  0  0  0  0  0
  184.0190  177.9700  146.1780 O   0  0  0  0  0  0  0  0  0  0  0  0
  189.2830  175.9470  142.1330 C   0  0  0  0  0  2  0  0  0  0  0  0
  189.6490  177.5490  143.8660 C   0  0  2  0  0  3  0  0  0  0  0  0
  186.5100  178.5490  141.9820 C   0  0  0  0  0  3  0  0  0  0  0  0
  185.8230  176.8660  147.2890 C   0  0  0  0  0  2  0  0  0  0  0  0
  188.0350  176.6790  141.7310 C   0  0  0  0  0  0  0  0  0  0  0  0
  187.4080  176.3380  140.5280 C   0  0  0  0  0  3  0  0  0  0  0  0
  190.2360  177.8110  145.2590 C   0  0  0  0  0  2  0  0  0  0  0  0
  188.0390  177.2620  146.2110 C   0  0  0  0  0  0  0  0  0  0  0  0
  187.3280  176.8690  147.2730 C   0  0  0  0  0  3  0  0  0  0  0  0
  190.1490  173.9690  145.2680 O   0  0  0  0  0  0  0  0  0  0  0  0
  191.1070  174.4750  144.6220 C   0  0  0  0  0  0  0  0  0  0  0  0
  190.8790  175.5730  143.7400 N   0  0  0  0  0  2  0  0  0  0  0  0
  194.4810  176.0900  145.2260 C   0  0  1  0  0  3  0  0  0  0  0  0
  193.0750  174.2390  146.1730 C   0  0  0  0  0  2  0  0  0  0  0  0
  192.9150  174.2010  142.4130 O   0  0  0  0  0  1  0  0  0  0  0  0
  194.8320  177.4310  145.3710 O   0  0  0  0  0  1  0  0  0  0  0  0
  193.4850  175.7050  146.3170 C   0  0  0  0  0  2  0  0  0  0  0  0
  193.4680  174.4070  143.6780 C   0  0  2  0  0  3  0  0  0  0  0  0
  192.5030  173.9440  144.7830 C   0  0  2  0  0  3  0  0  0  0  0  0
  193.8620  175.8720  143.8480 C   0  0  0  0  0  2  0  0  0  0  0  0
  1 14  1  0  0  0  0
  2  5  1  6  0  0  0
  2 13  1  0  0  0  0
  2  3  1  0  0  0  0
  3  7  2  0  0  0  0
  3 19  1  0  0  0  0
  4 11  2  0  0  0  0
  4 15  1  0  0  0  0
  6 17  1  0  0  0  0
  6  1  2  0  0  0  0
  7  4  1  0  0  0  0
  8 23  1  0  0  0  0
  8 13  1  0  0  0  0
  9  1  1  0  0  0  0
 12  8  1  0  0  0  0
 13 18  1  1  0  0  0
 14  5  2  0  0  0  0
 16 12  1  0  0  0  0
 16  5  1  0  0  0  0
 17 16  2  0  0  0  0
 18 10  1  0  0  0  0
 19 10  1  0  0  0  0
 19 20  2  0  0  0  0
 20 15  1  0  0  0  0
 22 21  2  0  0  0  0
 23 22  1  0  0  0  0
 24 27  1  1  0  0  0
 24 28  1  0  0  0  0
 25 28  1  0  0  0  0
 29 26  1  6  0  0  0
 29 31  1  0  0  0  0
 29 30  1  0  0  0  0
 30 22  1  6  0  0  0
 30 25  1  0  0  0  0
 31 24  1  0  0  0  0
M  END
>  <MODEL>
3

>  <REMARK>
 VINA RESULT:      -8.4      2.316      4.294
  Name = 
  2 active torsions:
  status: ('A' for Active; 'I' for Inactive)
    1  A    between atoms: C_5  and  C_30
    2  A    between atoms: N_10  and  N_16
                            x       y       z     vdW  Elec       q    Type
                         _______ _______ _______ _____ _____    ______ ____

>  <TORSDO>
F 2

$$$$
=
 OpenBabel11112417053D

 31 35  0  0  1  0  0  0  0  0999 V2000
  194.2660  176.3960  145.1380 C   0  0  0  0  0  0  0  0  0  0  0  0
  190.8600  176.9580  143.5300 C   0  0  2  0  0  3  0  0  0  0  0  0
  190.5550  175.6880  142.7470 C   0  0  0  0  0  0  0  0  0  0  0  0
  191.2500  173.6980  141.5130 C   0  0  0  0  0  0  0  0  0  0  0  0
  191.9310  176.7510  144.5750 C   0  0  0  0  0  0  0  0  0  0  0  0
  193.9270  176.2840  146.4890 C   0  0  0  0  0  3  0  0  0  0  0  0
  191.5420  174.9040  142.3000 C   0  0  0  0  0  3  0  0  0  0  0  0
  189.2010  176.7360  145.3470 N   0  0  0  0  0  0  0  0  0  0  0  0
  195.5590  176.2750  144.7520 F   0  0  0  0  0  0  0  0  0  0  0  0
  188.1510  176.3310  142.6460 O   0  0  0  0  0  0  0  0  0  0  0  0
  192.1950  173.0310  141.0200 O   0  0  0  0  0  0  0  0  0  0  0  0
  190.1970  176.9230  146.4070 C   0  0  0  0  0  2  0  0  0  0  0  0
  189.5900  177.5500  144.1830 C   0  0  2  0  0  3  0  0  0  0  0  0
  193.2730  176.6320  144.1850 C   0  0  0  0  0  3  0  0  0  0  0  0
  189.8370  173.2220  141.3490 C   0  0  0  0  0  2  0  0  0  0  0  0
  191.5940  176.6400  145.9380 C   0  0  0  0  0  0  0  0  0  0  0  0
  192.5950  176.4180  146.8880 C   0  0  0  0  0  3  0  0  0  0  0  0
  188.4680  177.6280  143.1400 C   0  0  0  0  0  2  0  0  0  0  0  0
  189.1510  175.4070  142.3430 C   0  0  0  0  0  0  0  0  0  0  0  0
  188.8280  174.2870  141.6880 C   0  0  0  0  0  3  0  0  0  0  0  0
  187.7520  175.5220  147.4080 O   0  0  0  0  0  0  0  0  0  0  0  0
  187.2940  176.5860  146.9090 C   0  0  0  0  0  0  0  0  0  0  0  0
  187.9920  177.2420  145.8510 N   0  0  0  0  0  2  0  0  0  0  0  0
  184.8240  179.0860  145.4950 C   0  0  1  0  0  3  0  0  0  0  0  0
  184.8170  176.7910  146.5130 C   0  0  0  0  0  2  0  0  0  0  0  0
  187.1820  179.0410  148.3880 O   0  0  0  0  0  1  0  0  0  0  0  0
  184.8320  179.7890  144.2920 O   0  0  0  0  0  1  0  0  0  0  0  0
  184.8160  177.5870  145.2070 C   0  0  0  0  0  2  0  0  0  0  0  0
  186.0620  178.6910  147.6310 C   0  0  2  0  0  3  0  0  0  0  0  0
  186.0030  177.1700  147.4060 C   0  0  2  0  0  3  0  0  0  0  0  0
  186.0570  179.4590  146.3120 C   0  0  0  0  0  2  0  0  0  0  0  0
  1  6  1  0  0  0  0
  2  3  1  1  0  0  0
  2 13  1  0  0  0  0
  2  5  1  0  0  0  0
  4  7  1  0  0  0  0
  5 16  2  0  0  0  0
  6 17  2  0  0  0  0
  7  3  2  0  0  0  0
  8 23  1  0  0  0  0
  8 12  1  0  0  0  0
  9  1  1  0  0  0  0
 10 18  1  0  0  0  0
 11  4  2  0  0  0  0
 13 18  1  6  0  0  0
 13  8  1  0  0  0  0
 14  5  1  0  0  0  0
 14  1  2  0  0  0  0
 15  4  1  0  0  0  0
 15 20  1  0  0  0  0
 16 12  1  0  0  0  0
 16 17  1  0  0  0  0
 19 10  1  0  0  0  0
 19  3  1  0  0  0  0
 20 19  2  0  0  0  0
 22 21  2  0  0  0  0
 23 22  1  0  0  0  0
 24 27  1  6  0  0  0
 24 31  1  0  0  0  0
 25 30  1  0  0  0  0
 28 24  1  0  0  0  0
 28 25  1  0  0  0  0
 29 26  1  6  0  0  0
 30 22  1  6  0  0  0
 30 29  1  0  0  0  0
 31 29  1  0  0  0  0
M  END
>  <MODEL>
4

>  <REMARK>
 VINA RESULT:      -8.4      3.234      6.979
  Name = 
  2 active torsions:
  status: ('A' for Active; 'I' for Inactive)
    1  A    between atoms: C_5  and  C_30
    2  A    between atoms: N_10  and  N_16
                            x       y       z     vdW  Elec       q    Type
                         _______ _______ _______ _____ _____    ______ ____

>  <TORSDO>
F 2

$$$$
=
 OpenBabel11112417053D

 31 35  0  0  1  0  0  0  0  0999 V2000
  186.9830  177.4540  140.7210 C   0  0  0  0  0  0  0  0  0  0  0  0
  188.3690  177.8290  144.2490 C   0  0  2  0  0  3  0  0  0  0  0  0
  187.1590  177.8540  145.1710 C   0  0  0  0  0  0  0  0  0  0  0  0
  184.8030  178.3160  145.6220 C   0  0  0  0  0  0  0  0  0  0  0  0
  188.0520  177.2460  142.8920 C   0  0  0  0  0  0  0  0  0  0  0  0
  187.3790  176.1540  140.3970 C   0  0  0  0  0  3  0  0  0  0  0  0
  185.9630  178.2560  144.7240 C   0  0  0  0  0  3  0  0  0  0  0  0
  189.3060  175.6240  144.8530 N   0  0  0  0  0  0  0  0  0  0  0  0
  186.2700  178.1870  139.8320 F   0  0  0  0  0  0  0  0  0  0  0  0
  188.6310  177.3520  147.1160 O   0  0  0  0  0  0  0  0  0  0  0  0
  183.7150  178.7900  145.2050 O   0  0  0  0  0  0  0  0  0  0  0  0
  189.3700  175.1650  143.4620 C   0  0  0  0  0  2  0  0  0  0  0  0
  189.5600  177.0740  144.8830 C   0  0  2  0  0  3  0  0  0  0  0  0
  187.3210  177.9990  141.9620 C   0  0  0  0  0  3  0  0  0  0  0  0
  184.8880  177.7560  147.0120 C   0  0  0  0  0  2  0  0  0  0  0  0
  188.4510  175.9370  142.5600 C   0  0  0  0  0  0  0  0  0  0  0  0
  188.1210  175.4020  141.3110 C   0  0  0  0  0  3  0  0  0  0  0  0
  189.7850  177.5840  146.3130 C   0  0  0  0  0  2  0  0  0  0  0  0
  187.3470  177.5800  146.6210 C   0  0  0  0  0  0  0  0  0  0  0  0
  186.3100  177.5540  147.4640 C   0  0  0  0  0  3  0  0  0  0  0  0
  191.9770  175.7470  144.0330 O   0  0  0  0  0  0  0  0  0  0  0  0
  191.7060  175.0790  145.0680 C   0  0  0  0  0  0  0  0  0  0  0  0
  190.3580  174.9800  145.5260 N   0  0  0  0  0  2  0  0  0  0  0  0
  195.4880  175.0630  144.8550 C   0  0  1  0  0  3  0  0  0  0  0  0
  193.6940  175.3380  146.5890 C   0  0  0  0  0  2  0  0  0  0  0  0
  192.7890  172.5670  144.2070 O   0  0  0  0  0  1  0  0  0  0  0  0
  196.3530  175.7490  144.0040 O   0  0  0  0  0  1  0  0  0  0  0  0
  194.6590  176.0660  145.6530 C   0  0  0  0  0  2  0  0  0  0  0  0
  193.6180  173.4060  144.9550 C   0  0  2  0  0  3  0  0  0  0  0  0
  192.7890  174.3660  145.8250 C   0  0  2  0  0  3  0  0  0  0  0  0
  194.5740  174.1600  144.0330 C   0  0  0  0  0  2  0  0  0  0  0  0
  1 14  1  0  0  0  0
  2  5  1  6  0  0  0
  2 13  1  0  0  0  0
  2  3  1  0  0  0  0
  3 19  1  0  0  0  0
  4 15  1  0  0  0  0
  6  1  2  0  0  0  0
  6 17  1  0  0  0  0
  7  3  2  0  0  0  0
  7  4  1  0  0  0  0
  8 13  1  0  0  0  0
  8 23  1  0  0  0  0
  9  1  1  0  0  0  0
 11  4  2  0  0  0  0
 12  8  1  0  0  0  0
 13 18  1  1  0  0  0
 14  5  2  0  0  0  0
 15 20  1  0  0  0  0
 16  5  1  0  0  0  0
 16 12  1  0  0  0  0
 17 16  2  0  0  0  0
 18 10  1  0  0  0  0
 19 10  1  0  0  0  0
 19 20  2  0  0  0  0
 21 22  2  0  0  0  0
 22 23  1  0  0  0  0
 24 27  1  6  0  0  0
 24 28  1  0  0  0  0
 28 25  1  0  0  0  0
 29 26  1  6  0  0  0
 29 30  1  0  0  0  0
 30 22  1  6  0  0  0
 30 25  1  0  0  0  0
 31 24  1  0  0  0  0
 31 29  1  0  0  0  0
M  END
>  <MODEL>
5

>  <REMARK>
 VINA RESULT:      -8.0      2.191      4.099
  Name = 
  2 active torsions:
  status: ('A' for Active; 'I' for Inactive)
    1  A    between atoms: C_5  and  C_30
    2  A    between atoms: N_10  and  N_16
                            x       y       z     vdW  Elec       q    Type
                         _______ _______ _______ _____ _____    ______ ____

>  <TORSDO>
F 2

$$$$
=
 OpenBabel11112417053D

 31 35  0  0  1  0  0  0  0  0999 V2000
  185.0960  177.9370  146.7540 C   0  0  0  0  0  0  0  0  0  0  0  0
  186.8300  175.9540  144.0030 C   0  0  2  0  0  3  0  0  0  0  0  0
  186.4720  176.6520  142.6980 C   0  0  0  0  0  0  0  0  0  0  0  0
  184.9860  178.0180  141.3230 C   0  0  0  0  0  0  0  0  0  0  0  0
  186.6130  176.8350  145.2100 C   0  0  0  0  0  0  0  0  0  0  0  0
  186.1820  178.5360  147.3990 C   0  0  0  0  0  3  0  0  0  0  0  0
  185.3510  177.3750  142.5920 C   0  0  0  0  0  3  0  0  0  0  0  0
  189.2260  176.5390  144.1440 N   0  0  0  0  0  0  0  0  0  0  0  0
  183.8350  178.1800  147.1830 F   0  0  0  0  0  0  0  0  0  0  0  0
  188.3520  175.4830  141.5590 O   0  0  0  0  0  0  0  0  0  0  0  0
  183.8810  178.6100  141.2190 O   0  0  0  0  0  0  0  0  0  0  0  0
  189.1140  177.0660  145.5080 C   0  0  0  0  0  2  0  0  0  0  0  0
  188.2810  175.4200  143.9910 C   0  0  2  0  0  3  0  0  0  0  0  0
  185.3120  177.0870  145.6660 C   0  0  0  0  0  3  0  0  0  0  0  0
  185.9500  178.0300  140.1730 C   0  0  0  0  0  2  0  0  0  0  0  0
  187.7050  177.4390  145.8640 C   0  0  0  0  0  0  0  0  0  0  0  0
  187.4830  178.2780  146.9610 C   0  0  0  0  0  3  0  0  0  0  0  0
  188.5270  174.6400  142.6930 C   0  0  0  0  0  2  0  0  0  0  0  0
  187.2980  176.3920  141.4890 C   0  0  0  0  0  0  0  0  0  0  0  0
  187.0460  177.0100  140.3300 C   0  0  0  0  0  3  0  0  0  0  0  0
  190.3050  174.6240  145.8730 O   0  0  0  0  0  0  0  0  0  0  0  0
  191.0310  175.0500  144.9330 C   0  0  0  0  0  0  0  0  0  0  0  0
  190.5300  176.0310  144.0270 N   0  0  0  0  0  2  0  0  0  0  0  0
  194.4560  176.5720  145.4850 C   0  0  1  0  0  3  0  0  0  0  0  0
  193.1930  174.4890  146.0930 C   0  0  0  0  0  2  0  0  0  0  0  0
  192.5180  175.4230  142.5090 O   0  0  0  0  0  1  0  0  0  0  0  0
  194.8250  177.8410  145.9280 O   0  0  0  0  0  1  0  0  0  0  0  0
  193.6200  175.8820  146.5590 C   0  0  0  0  0  2  0  0  0  0  0  0
  193.2400  175.3130  143.6990 C   0  0  2  0  0  3  0  0  0  0  0  0
  192.4360  174.5450  144.7620 C   0  0  2  0  0  3  0  0  0  0  0  0
  193.6540  176.6980  144.1930 C   0  0  0  0  0  2  0  0  0  0  0  0
  1  9  1  0  0  0  0
  1  6  1  0  0  0  0
  2  3  1  6  0  0  0
  2  5  1  0  0  0  0
  4  7  1  0  0  0  0
  5 14  1  0  0  0  0
  5 16  2  0  0  0  0
  7  3  2  0  0  0  0
  8 12  1  0  0  0  0
 10 18  1  0  0  0  0
 11  4  2  0  0  0  0
 12 16  1  0  0  0  0
 13 18  1  6  0  0  0
 13  2  1  0  0  0  0
 13  8  1  0  0  0  0
 14  1  2  0  0  0  0
 15 20  1  0  0  0  0
 15  4  1  0  0  0  0
 16 17  1  0  0  0  0
 17  6  2  0  0  0  0
 19 10  1  0  0  0  0
 19  3  1  0  0  0  0
 20 19  2  0  0  0  0
 22 21  2  0  0  0  0
 23  8  1  0  0  0  0
 23 22  1  0  0  0  0
 24 27  1  1  0  0  0
 24 28  1  0  0  0  0
 25 28  1  0  0  0  0
 29 26  1  6  0  0  0
 29 31  1  0  0  0  0
 29 30  1  0  0  0  0
 30 22  1  1  0  0  0
 30 25  1  0  0  0  0
 31 24  1  0  0  0  0
M  END
>  <MODEL>
6

>  <REMARK>
 VINA RESULT:      -7.5      1.629      2.174
  Name = 
  2 active torsions:
  status: ('A' for Active; 'I' for Inactive)
    1  A    between atoms: C_5  and  C_30
    2  A    between atoms: N_10  and  N_16
                            x       y       z     vdW  Elec       q    Type
                         _______ _______ _______ _____ _____    ______ ____

>  <TORSDO>
F 2

$$$$
=
 OpenBabel11112417053D

 31 35  0  0  1  0  0  0  0  0999 V2000
  185.6670  177.4540  142.5840 C   0  0  0  0  0  0  0  0  0  0  0  0
  188.3270  174.7950  143.1820 C   0  0  2  0  0  3  0  0  0  0  0  0
  188.8520  174.4140  141.8050 C   0  0  0  0  0  0  0  0  0  0  0  0
  188.5830  174.1670  139.3890 C   0  0  0  0  0  0  0  0  0  0  0  0
  187.6090  176.1240  143.1820 C   0  0  0  0  0  0  0  0  0  0  0  0
  186.2890  178.5970  143.0940 C   0  0  0  0  0  3  0  0  0  0  0  0
  188.0920  174.5680  140.7140 C   0  0  0  0  0  3  0  0  0  0  0  0
  190.3020  175.9900  144.0630 N   0  0  0  0  0  0  0  0  0  0  0  0
  184.4280  177.5410  142.0440 F   0  0  0  0  0  0  0  0  0  0  0  0
  190.8600  173.3830  142.8560 O   0  0  0  0  0  0  0  0  0  0  0  0
  187.8160  174.2290  138.3950 O   0  0  0  0  0  0  0  0  0  0  0  0
  189.5330  177.1810  144.4360 C   0  0  0  0  0  2  0  0  0  0  0  0
  189.4520  174.8020  144.2440 C   0  0  2  0  0  3  0  0  0  0  0  0
  186.3230  176.2220  142.6310 C   0  0  0  0  0  3  0  0  0  0  0  0
  190.0110  173.7450  139.2050 C   0  0  0  0  0  2  0  0  0  0  0  0
  188.2310  177.2780  143.6960 C   0  0  0  0  0  0  0  0  0  0  0  0
  187.5630  178.5060  143.6590 C   0  0  0  0  0  3  0  0  0  0  0  0
  190.2580  173.5010  144.1420 C   0  0  0  0  0  2  0  0  0  0  0  0
  190.1610  173.7160  141.6960 C   0  0  0  0  0  0  0  0  0  0  0  0
  190.6810  173.3950  140.5070 C   0  0  0  0  0  3  0  0  0  0  0  0
  192.9950  176.1310  143.3210 O   0  0  0  0  0  0  0  0  0  0  0  0
  192.7250  175.9930  144.5450 C   0  0  0  0  0  0  0  0  0  0  0  0
  191.3670  175.9100  144.9760 N   0  0  0  0  0  2  0  0  0  0  0  0
  196.4430  175.2910  144.3480 C   0  0  1  0  0  3  0  0  0  0  0  0
  194.8890  176.9790  145.3670 C   0  0  0  0  0  2  0  0  0  0  0  0
  193.4840  173.5100  145.7630 O   0  0  0  0  0  1  0  0  0  0  0  0
  197.2590  175.0240  143.2500 O   0  0  0  0  0  1  0  0  0  0  0  0
  195.8000  176.6650  144.1790 C   0  0  0  0  0  2  0  0  0  0  0  0
  194.4620  174.5000  145.6520 C   0  0  2  0  0  3  0  0  0  0  0  0
  193.8230  175.8970  145.5650 C   0  0  2  0  0  3  0  0  0  0  0  0
  195.3660  174.2150  144.4560 C   0  0  0  0  0  2  0  0  0  0  0  0
  1 14  2  0  0  0  0
  1  6  1  0  0  0  0
  2  3  1  6  0  0  0
  2 13  1  0  0  0  0
  4  7  1  0  0  0  0
  5  2  1  0  0  0  0
  5 16  2  0  0  0  0
  6 17  2  0  0  0  0
  7  3  2  0  0  0  0
  8 13  1  0  0  0  0
  8 12  1  0  0  0  0
  8 23  1  0  0  0  0
  9  1  1  0  0  0  0
 10 18  1  0  0  0  0
 11  4  2  0  0  0  0
 13 18  1  6  0  0  0
 14  5  1  0  0  0  0
 15  4  1  0  0  0  0
 15 20  1  0  0  0  0
 16 12  1  0  0  0  0
 17 16  1  0  0  0  0
 19  3  1  0  0  0  0
 19 10  1  0  0  0  0
 20 19  2  0  0  0  0
 21 22  2  0  0  0  0
 22 23  1  0  0  0  0
 24 27  1  6  0  0  0
 24 31  1  0  0  0  0
 25 30  1  0  0  0  0
 28 24  1  0  0  0  0
 28 25  1  0  0  0  0
 29 26  1  6  0  0  0
 30 22  1  6  0  0  0
 30 29  1  0  0  0  0
 31 29  1  0  0  0  0
M  END
>  <MODEL>
7

>  <REMARK>
 VINA RESULT:      -7.4      2.528      3.058
  Name = 
  2 active torsions:
  status: ('A' for Active; 'I' for Inactive)
    1  A    between atoms: C_5  and  C_30
    2  A    between atoms: N_10  and  N_16
                            x       y       z     vdW  Elec       q    Type
                         _______ _______ _______ _____ _____    ______ ____

>  <TORSDO>
F 2

$$$$
=
 OpenBabel11112417053D

 31 35  0  0  1  0  0  0  0  0999 V2000
  185.9290  178.2790  140.8580 C   0  0  0  0  0  0  0  0  0  0  0  0
  188.2570  178.1260  143.8680 C   0  0  2  0  0  3  0  0  0  0  0  0
  187.3850  177.7220  145.0490 C   0  0  0  0  0  0  0  0  0  0  0  0
  185.2360  177.6240  146.2070 C   0  0  0  0  0  0  0  0  0  0  0  0
  187.6170  177.8050  142.5380 C   0  0  0  0  0  0  0  0  0  0  0  0
  186.3590  177.1790  140.1110 C   0  0  0  0  0  3  0  0  0  0  0  0
  186.0720  177.9810  145.0530 C   0  0  0  0  0  3  0  0  0  0  0  0
  189.5820  176.0580  143.6040 N   0  0  0  0  0  0  0  0  0  0  0  0
  184.9020  179.0410  140.4120 F   0  0  0  0  0  0  0  0  0  0  0  0
  189.4210  177.0920  146.3360 O   0  0  0  0  0  0  0  0  0  0  0  0
  184.0260  177.9650  146.2290 O   0  0  0  0  0  0  0  0  0  0  0  0
  189.2790  175.9340  142.1750 C   0  0  0  0  0  2  0  0  0  0  0  0
  189.6630  177.4880  143.9470 C   0  0  2  0  0  3  0  0  0  0  0  0
  186.5580  178.5930  142.0650 C   0  0  0  0  0  3  0  0  0  0  0  0
  185.7990  176.8000  147.3270 C   0  0  0  0  0  2  0  0  0  0  0  0
  188.0490  176.6980  141.7810 C   0  0  0  0  0  0  0  0  0  0  0  0
  187.4240  176.3980  140.5670 C   0  0  0  0  0  3  0  0  0  0  0  0
  190.2450  177.7050  145.3500 C   0  0  0  0  0  2  0  0  0  0  0  0
  188.0310  177.1780  146.2740 C   0  0  0  0  0  0  0  0  0  0  0  0
  187.3050  176.7740  147.3210 C   0  0  0  0  0  3  0  0  0  0  0  0
  190.0030  173.3940  144.3450 O   0  0  0  0  0  0  0  0  0  0  0  0
  191.0150  174.1230  144.1580 C   0  0  0  0  0  0  0  0  0  0  0  0
  190.8550  175.4910  143.7840 N   0  0  0  0  0  2  0  0  0  0  0  0
  193.7610  173.0700  141.7700 C   0  0  1  0  0  3  0  0  0  0  0  0
  193.4740  174.5210  143.7980 C   0  0  0  0  0  2  0  0  0  0  0  0
  191.5580  171.3080  144.2140 O   0  0  0  0  0  1  0  0  0  0  0  0
  193.8020  173.0690  140.3770 O   0  0  0  0  0  1  0  0  0  0  0  0
  193.5320  174.4940  142.2700 C   0  0  0  0  0  2  0  0  0  0  0  0
  192.5780  172.1540  143.7730 C   0  0  2  0  0  3  0  0  0  0  0  0
  192.4000  173.5720  144.3410 C   0  0  2  0  0  3  0  0  0  0  0  0
  192.6360  172.1570  142.2470 C   0  0  0  0  0  2  0  0  0  0  0  0
  1 14  1  0  0  0  0
  2  5  1  6  0  0  0
  2 13  1  0  0  0  0
  2  3  1  0  0  0  0
  3  7  2  0  0  0  0
  3 19  1  0  0  0  0
  4 11  2  0  0  0  0
  4 15  1  0  0  0  0
  6 17  1  0  0  0  0
  6  1  2  0  0  0  0
  7  4  1  0  0  0  0
  8 23  1  0  0  0  0
  8 13  1  0  0  0  0
  9  1  1  0  0  0  0
 12  8  1  0  0  0  0
 13 18  1  1  0  0  0
 14  5  2  0  0  0  0
 16 12  1  0  0  0  0
 16  5  1  0  0  0  0
 17 16  2  0  0  0  0
 18 10  1  0  0  0  0
 19 10  1  0  0  0  0
 19 20  2  0  0  0  0
 20 15  1  0  0  0  0
 22 21  2  0  0  0  0
 23 22  1  0  0  0  0
 24 27  1  6  0  0  0
 24 31  1  0  0  0  0
 24 28  1  0  0  0  0
 25 30  1  0  0  0  0
 28 25  1  0  0  0  0
 29 26  1  6  0  0  0
 29 30  1  0  0  0  0
 30 22  1  6  0  0  0
 31 29  1  0  0  0  0
M  END
>  <MODEL>
8

>  <REMARK>
 VINA RESULT:      -7.3      2.699      4.590
  Name = 
  2 active torsions:
  status: ('A' for Active; 'I' for Inactive)
    1  A    between atoms: C_5  and  C_30
    2  A    between atoms: N_10  and  N_16
                            x       y       z     vdW  Elec       q    Type
                         _______ _______ _______ _____ _____    ______ ____

>  <TORSDO>
F 2

$$$$
=
 OpenBabel11112417053D

 31 35  0  0  1  0  0  0  0  0999 V2000
  186.4030  178.4590  144.6350 C   0  0  0  0  0  0  0  0  0  0  0  0
  189.7570  176.9730  143.6130 C   0  0  2  0  0  3  0  0  0  0  0  0
  190.4220  176.5200  144.9050 C   0  0  0  0  0  0  0  0  0  0  0  0
  190.7810  176.6810  147.3160 C   0  0  0  0  0  0  0  0  0  0  0  0
  188.2670  177.1680  143.7660 C   0  0  0  0  0  0  0  0  0  0  0  0
  185.5080  177.5100  144.1340 C   0  0  0  0  0  3  0  0  0  0  0  0
  190.1130  177.0930  146.0740 C   0  0  0  0  0  3  0  0  0  0  0  0
  189.2530  174.7720  142.6110 N   0  0  0  0  0  0  0  0  0  0  0  0
  185.9380  179.5430  145.3010 F   0  0  0  0  0  0  0  0  0  0  0  0
  191.9890  175.0930  143.5970 O   0  0  0  0  0  0  0  0  0  0  0  0
  190.5460  177.3010  148.3850 O   0  0  0  0  0  0  0  0  0  0  0  0
  187.8390  175.0910  142.3890 C   0  0  0  0  0  2  0  0  0  0  0  0
  190.0460  176.0010  142.4460 C   0  0  2  0  0  3  0  0  0  0  0  0
  187.7770  178.2910  144.4480 C   0  0  0  0  0  3  0  0  0  0  0  0
  191.6900  175.4880  147.3300 C   0  0  0  0  0  2  0  0  0  0  0  0
  187.3620  176.2150  143.2610 C   0  0  0  0  0  0  0  0  0  0  0  0
  185.9860  176.3970  143.4390 C   0  0  0  0  0  3  0  0  0  0  0  0
  191.5510  175.7060  142.3880 C   0  0  0  0  0  2  0  0  0  0  0  0
  191.5410  175.5410  144.8390 C   0  0  0  0  0  0  0  0  0  0  0  0
  192.1310  175.0840  145.9480 C   0  0  0  0  0  3  0  0  0  0  0  0
  189.3940  172.0010  142.9610 O   0  0  0  0  0  0  0  0  0  0  0  0
  189.6670  172.4680  141.8220 C   0  0  0  0  0  0  0  0  0  0  0  0
  189.6160  173.8750  141.5920 N   0  0  0  0  0  2  0  0  0  0  0  0
  191.7980  172.9000  138.7200 C   0  0  1  0  0  3  0  0  0  0  0  0
  191.5790  171.3190  140.6570 C   0  0  0  0  0  2  0  0  0  0  0  0
  188.1750  172.2920  139.3790 O   0  0  0  0  0  1  0  0  0  0  0  0
  192.4880  174.0130  138.2400 O   0  0  0  0  0  1  0  0  0  0  0  0
  192.3280  172.5320  140.1030 C   0  0  0  0  0  2  0  0  0  0  0  0
  189.5410  172.0100  139.3230 C   0  0  2  0  0  3  0  0  0  0  0  0
  190.0660  171.5570  140.6970 C   0  0  2  0  0  3  0  0  0  0  0  0
  190.3080  173.2190  138.7940 C   0  0  0  0  0  2  0  0  0  0  0  0
  1  9  1  0  0  0  0
  2  5  1  1  0  0  0
  2  3  1  0  0  0  0
  3  7  2  0  0  0  0
  4 15  1  0  0  0  0
  4 11  2  0  0  0  0
  5 14  2  0  0  0  0
  6  1  2  0  0  0  0
  7  4  1  0  0  0  0
 10 19  1  0  0  0  0
 12  8  1  0  0  0  0
 12 16  1  0  0  0  0
 13 18  1  1  0  0  0
 13  8  1  0  0  0  0
 13  2  1  0  0  0  0
 14  1  1  0  0  0  0
 16 17  2  0  0  0  0
 16  5  1  0  0  0  0
 17  6  1  0  0  0  0
 18 10  1  0  0  0  0
 19  3  1  0  0  0  0
 19 20  2  0  0  0  0
 20 15  1  0  0  0  0
 22 21  2  0  0  0  0
 23 22  1  0  0  0  0
 23  8  1  0  0  0  0
 24 27  1  1  0  0  0
 24 31  1  0  0  0  0
 24 28  1  0  0  0  0
 25 30  1  0  0  0  0
 28 25  1  0  0  0  0
 29 26  1  1  0  0  0
 29 30  1  0  0  0  0
 30 22  1  1  0  0  0
 31 29  1  0  0  0  0
M  END
>  <MODEL>
9

>  <REMARK>
 VINA RESULT:      -7.3      3.436      5.734
  Name = 
  2 active torsions:
  status: ('A' for Active; 'I' for Inactive)
    1  A    between atoms: C_5  and  C_30
    2  A    between atoms: N_10  and  N_16
                            x       y       z     vdW  Elec       q    Type
                         _______ _______ _______ _____ _____    ______ ____

>  <TORSDO>
F 2

$$$$
