=
 OpenBabel11112416333D

 32 38  0  0  1  0  0  0  0  0999 V2000
  192.4400  175.0780  144.3570 C   0  0  1  0  0  3  0  0  0  0  0  0
  187.5180  176.7940  143.6590 C   0  0  0  0  0  0  0  0  0  0  0  0
  186.1770  177.8820  148.2260 C   0  0  0  0  0  3  0  0  0  0  0  0
  184.9550  178.3660  147.7630 C   0  0  0  0  0  3  0  0  0  0  0  0
  185.9390  177.2850  141.7530 C   0  0  0  0  0  0  0  0  0  0  0  0
  184.6900  177.7860  141.3800 C   0  0  0  0  0  0  0  0  0  0  0  0
  189.9690  176.3360  143.3210 C   0  0  1  0  0  3  0  0  0  0  0  0
  189.0400  176.3480  145.5620 N   0  0  0  0  0  2  0  0  0  0  0  0
  182.6990  178.6760  141.6390 N   0  0  0  0  0  0  0  0  0  0  0  0
  191.3920  175.6140  145.3370 C   0  0  2  0  0  3  0  0  0  0  0  0
  187.1100  177.3710  147.3240 C   0  0  0  0  0  3  0  0  0  0  0  0
  187.7780  176.8170  145.0550 C   0  0  0  0  0  0  0  0  0  0  0  0
  186.8340  177.3370  145.9470 C   0  0  0  0  0  0  0  0  0  0  0  0
  185.3120  177.8010  144.0920 C   0  0  0  0  0  0  0  0  0  0  0  0
  182.8630  178.4720  140.3390 N   0  0  0  0  0  0  0  0  0  0  0  0
  191.8650  174.7320  143.0330 N   0  0  0  0  0  2  0  0  0  0  0  0
  189.9970  175.6790  144.6950 C   0  0  2  0  0  3  0  0  0  0  0  0
  184.0870  177.9200  140.1380 C   0  0  0  0  0  3  0  0  0  0  0  0
  191.0390  175.7670  142.3880 C   0  0  0  0  0  2  0  0  0  0  0  0
  192.4110  176.5630  144.7100 C   0  0  1  0  0  3  0  0  0  0  0  0
  184.6680  178.3390  146.3970 C   0  0  0  0  0  3  0  0  0  0  0  0
  185.5990  177.8270  145.4720 C   0  0  0  0  0  0  0  0  0  0  0  0
  184.0670  178.2930  143.6410 C   0  0  0  0  0  3  0  0  0  0  0  0
  188.5680  176.1800  142.7520 C   0  0  0  0  0  2  0  0  0  0  0  0
  186.8370  176.8010  140.6590 C   0  0  0  0  0  1  0  0  0  0  0  0
  181.5040  179.2560  142.2300 C   0  0  0  0  0  1  0  0  0  0  0  0
  186.2750  177.2810  143.1530 C   0  0  0  0  0  0  0  0  0  0  0  0
  183.7990  178.2640  142.2840 C   0  0  0  0  0  0  0  0  0  0  0  0
  193.5060  176.8600  145.7210 C   0  0  0  0  0  2  0  0  0  0  0  0
  194.8140  176.1960  145.3910 C   0  0  0  0  0  0  0  0  0  0  0  0
  195.3170  175.0020  146.1380 C   0  0  0  0  0  1  0  0  0  0  0  0
  195.4890  176.6480  144.4810 O   0  0  0  0  0  0  0  0  0  0  0  0
  1 16  1  6  0  0  0
  1 20  1  0  0  0  0
  1 10  1  0  0  0  0
  2 12  1  0  0  0  0
  4  3  1  0  0  0  0
  5 27  1  0  0  0  0
  6  5  2  0  0  0  0
  6 28  1  0  0  0  0
  7 19  1  6  0  0  0
  7 17  1  0  0  0  0
  9 26  1  0  0  0  0
  9 28  1  0  0  0  0
 11  3  2  0  0  0  0
 12  8  1  0  0  0  0
 12 13  2  0  0  0  0
 13 11  1  0  0  0  0
 14 22  2  0  0  0  0
 15  9  1  0  0  0  0
 17 10  1  0  0  0  0
 17  8  1  0  0  0  0
 18 15  2  0  0  0  0
 18  6  1  0  0  0  0
 19 16  1  0  0  0  0
 20 10  1  0  0  0  0
 20 29  1  0  0  0  0
 21  4  2  0  0  0  0
 22 13  1  0  0  0  0
 22 21  1  0  0  0  0
 23 14  1  0  0  0  0
 24  7  1  0  0  0  0
 24  2  1  0  0  0  0
 25  5  1  0  0  0  0
 27  2  2  0  0  0  0
 27 14  1  0  0  0  0
 28 23  2  0  0  0  0
 30 29  1  0  0  0  0
 30 31  1  0  0  0  0
 32 30  2  0  0  0  0
M  END
>  <MODEL>
1

>  <REMARK>
 VINA RESULT:      -9.0      0.000      0.000
  Name = 
  2 active torsions:
  status: ('A' for Active; 'I' for Inactive)
    1  A    between atoms: C_20  and  C_29
    2  A    between atoms: C_29  and  C_30
                            x       y       z     vdW  Elec       q    Type
                         _______ _______ _______ _____ _____    ______ ____

>  <TORSDO>
F 2

$$$$
=
 OpenBabel11112416333D

 32 38  0  0  1  0  0  0  0  0999 V2000
  185.0420  177.7520  146.4940 C   0  0  1  0  0  3  0  0  0  0  0  0
  189.7430  175.8880  145.0530 C   0  0  0  0  0  0  0  0  0  0  0  0
  188.8060  174.1420  140.5900 C   0  0  0  0  0  3  0  0  0  0  0  0
  190.1510  173.8190  140.4230 C   0  0  0  0  0  3  0  0  0  0  0  0
  192.1080  175.8340  145.9330 C   0  0  0  0  0  0  0  0  0  0  0  0
  193.4320  175.4730  145.6810 C   0  0  0  0  0  0  0  0  0  0  0  0
  187.9390  177.3180  146.0660 C   0  0  1  0  0  3  0  0  0  0  0  0
  187.4420  175.9360  144.1360 N   0  0  0  0  0  2  0  0  0  0  0  0
  195.1370  174.6620  144.5600 N   0  0  0  0  0  0  0  0  0  0  0  0
  185.5270  177.0770  145.2070 C   0  0  2  0  0  3  0  0  0  0  0  0
  188.3750  174.7310  141.7790 C   0  0  0  0  0  3  0  0  0  0  0  0
  188.8330  175.5900  144.0040 C   0  0  0  0  0  0  0  0  0  0  0  0
  189.2820  175.0040  142.8160 C   0  0  0  0  0  0  0  0  0  0  0  0
  191.5660  174.9520  143.6840 C   0  0  0  0  0  0  0  0  0  0  0  0
  195.6090  175.0850  145.7250 N   0  0  0  0  0  0  0  0  0  0  0  0
  185.9990  177.6020  147.6180 N   0  0  0  0  0  2  0  0  0  0  0  0
  186.9050  176.4220  145.3960 C   0  0  2  0  0  3  0  0  0  0  0  0
  194.5810  175.5950  146.4490 C   0  0  0  0  0  3  0  0  0  0  0  0
  187.3980  177.9700  147.3400 C   0  0  0  0  0  2  0  0  0  0  0  0
  185.5390  178.6000  145.3260 C   0  0  1  0  0  3  0  0  0  0  0  0
  191.0640  174.0850  141.4450 C   0  0  0  0  0  3  0  0  0  0  0  0
  190.6460  174.6800  142.6520 C   0  0  0  0  0  0  0  0  0  0  0  0
  192.9250  174.6150  143.4990 C   0  0  0  0  0  3  0  0  0  0  0  0
  189.1840  176.4870  146.3290 C   0  0  0  0  0  2  0  0  0  0  0  0
  191.8140  176.4850  147.2490 C   0  0  0  0  0  1  0  0  0  0  0  0
  195.9530  174.0540  143.5210 C   0  0  0  0  0  1  0  0  0  0  0  0
  191.1280  175.5680  144.9130 C   0  0  0  0  0  0  0  0  0  0  0  0
  193.8180  174.8900  144.5190 C   0  0  0  0  0  0  0  0  0  0  0  0
  184.3480  179.1700  144.5750 C   0  0  0  0  0  2  0  0  0  0  0  0
  184.2910  178.7350  143.1370 C   0  0  0  0  0  0  0  0  0  0  0  0
  185.5020  178.7160  142.2580 C   0  0  0  0  0  1  0  0  0  0  0  0
  183.2210  178.3850  142.6700 O   0  0  0  0  0  0  0  0  0  0  0  0
  1 16  1  1  0  0  0
  2 24  1  0  0  0  0
  3 11  1  0  0  0  0
  4  3  2  0  0  0  0
  4 21  1  0  0  0  0
  5 25  1  0  0  0  0
  6  5  1  0  0  0  0
  6 18  1  0  0  0  0
  7 24  1  1  0  0  0
  7 19  1  0  0  0  0
  8 17  1  0  0  0  0
  9 15  1  0  0  0  0
 10 20  1  0  0  0  0
 10 17  1  0  0  0  0
 10  1  1  0  0  0  0
 11 13  2  0  0  0  0
 12  8  1  0  0  0  0
 12  2  2  0  0  0  0
 13 12  1  0  0  0  0
 14 27  1  0  0  0  0
 15 18  2  0  0  0  0
 17  7  1  0  0  0  0
 19 16  1  0  0  0  0
 20  1  1  0  0  0  0
 21 22  2  0  0  0  0
 22 13  1  0  0  0  0
 22 14  1  0  0  0  0
 23 14  2  0  0  0  0
 23 28  1  0  0  0  0
 26  9  1  0  0  0  0
 27  2  1  0  0  0  0
 27  5  2  0  0  0  0
 28  9  1  0  0  0  0
 28  6  2  0  0  0  0
 29 20  1  0  0  0  0
 30 29  1  0  0  0  0
 31 30  1  0  0  0  0
 32 30  2  0  0  0  0
M  END
>  <MODEL>
2

>  <REMARK>
 VINA RESULT:      -9.0      3.130      8.775
  Name = 
  2 active torsions:
  status: ('A' for Active; 'I' for Inactive)
    1  A    between atoms: C_20  and  C_29
    2  A    between atoms: C_29  and  C_30
                            x       y       z     vdW  Elec       q    Type
                         _______ _______ _______ _____ _____    ______ ____

>  <TORSDO>
F 2

$$$$
=
 OpenBabel11112416333D

 32 38  0  0  1  0  0  0  0  0999 V2000
  185.3740  179.1010  143.6620 C   0  0  1  0  0  3  0  0  0  0  0  0
  189.1550  175.5520  142.7910 C   0  0  0  0  0  0  0  0  0  0  0  0
  191.8560  175.9470  146.8390 C   0  0  0  0  0  3  0  0  0  0  0  0
  192.6720  174.9020  146.4100 C   0  0  0  0  0  3  0  0  0  0  0  0
  189.7430  173.7970  141.0760 C   0  0  0  0  0  0  0  0  0  0  0  0
  190.6140  172.7640  140.7230 C   0  0  0  0  0  0  0  0  0  0  0  0
  186.9250  176.7150  142.8490 C   0  0  1  0  0  3  0  0  0  0  0  0
  188.6080  177.2460  144.5130 N   0  0  0  0  0  2  0  0  0  0  0  0
  192.3050  171.3780  140.9210 N   0  0  0  0  0  0  0  0  0  0  0  0
  186.5700  178.6490  144.5060 C   0  0  2  0  0  3  0  0  0  0  0  0
  190.7870  176.3670  146.0470 C   0  0  0  0  0  3  0  0  0  0  0  0
  189.4470  176.1820  144.0300 C   0  0  0  0  0  0  0  0  0  0  0  0
  190.5200  175.7470  144.8150 C   0  0  0  0  0  0  0  0  0  0  0  0
  191.0820  174.0560  143.1430 C   0  0  0  0  0  0  0  0  0  0  0  0
  191.7090  171.0950  139.7700 N   0  0  0  0  0  0  0  0  0  0  0  0
  185.4640  178.6530  142.2500 N   0  0  0  0  0  2  0  0  0  0  0  0
  187.5660  177.8210  143.6780 C   0  0  2  0  0  3  0  0  0  0  0  0
  190.6550  171.9350  139.6120 C   0  0  0  0  0  3  0  0  0  0  0  0
  185.7340  177.2210  142.0340 C   0  0  0  0  0  2  0  0  0  0  0  0
  185.2080  177.9840  144.6890 C   0  0  1  0  0  3  0  0  0  0  0  0
  192.4170  174.2770  145.1880 C   0  0  0  0  0  3  0  0  0  0  0  0
  191.3420  174.6870  144.3750 C   0  0  0  0  0  0  0  0  0  0  0  0
  191.9210  173.0010  142.7210 C   0  0  0  0  0  3  0  0  0  0  0  0
  188.0020  176.0990  141.9710 C   0  0  0  0  0  2  0  0  0  0  0  0
  188.6260  174.1050  140.1280 C   0  0  0  0  0  1  0  0  0  0  0  0
  193.4760  170.6800  141.4260 C   0  0  0  0  0  1  0  0  0  0  0  0
  189.9730  174.4800  142.3220 C   0  0  0  0  0  0  0  0  0  0  0  0
  191.6530  172.3880  141.5100 C   0  0  0  0  0  0  0  0  0  0  0  0
  184.5430  178.5420  145.9360 C   0  0  0  0  0  2  0  0  0  0  0  0
  185.4270  178.4910  147.1520 C   0  0  0  0  0  0  0  0  0  0  0  0
  185.9750  177.2070  147.6900 C   0  0  0  0  0  1  0  0  0  0  0  0
  185.7060  179.5340  147.7190 O   0  0  0  0  0  0  0  0  0  0  0  0
  1 16  1  6  0  0  0
  1 10  1  0  0  0  0
  1 20  1  0  0  0  0
  2 12  1  0  0  0  0
  4  3  1  0  0  0  0
  5 27  1  0  0  0  0
  6  5  2  0  0  0  0
  6 28  1  0  0  0  0
  7 24  1  6  0  0  0
  7 17  1  0  0  0  0
  9 26  1  0  0  0  0
  9 28  1  0  0  0  0
 10 20  1  0  0  0  0
 11  3  2  0  0  0  0
 12  8  1  0  0  0  0
 12 13  2  0  0  0  0
 13 11  1  0  0  0  0
 14 22  2  0  0  0  0
 15  9  1  0  0  0  0
 17 10  1  0  0  0  0
 17  8  1  0  0  0  0
 18 15  2  0  0  0  0
 18  6  1  0  0  0  0
 19 16  1  0  0  0  0
 19  7  1  0  0  0  0
 20 29  1  0  0  0  0
 21  4  2  0  0  0  0
 22 13  1  0  0  0  0
 22 21  1  0  0  0  0
 23 14  1  0  0  0  0
 24  2  1  0  0  0  0
 25  5  1  0  0  0  0
 27  2  2  0  0  0  0
 27 14  1  0  0  0  0
 28 23  2  0  0  0  0
 29 30  1  0  0  0  0
 30 31  1  0  0  0  0
 30 32  2  0  0  0  0
M  END
>  <MODEL>
3

>  <REMARK>
 VINA RESULT:      -8.9      3.027      7.629
  Name = 
  2 active torsions:
  status: ('A' for Active; 'I' for Inactive)
    1  A    between atoms: C_20  and  C_29
    2  A    between atoms: C_29  and  C_30
                            x       y       z     vdW  Elec       q    Type
                         _______ _______ _______ _____ _____    ______ ____

>  <TORSDO>
F 2

$$$$
=
 OpenBabel11112416333D

 32 38  0  0  1  0  0  0  0  0999 V2000
  190.6760  172.4810  139.6320 C   0  0  1  0  0  3  0  0  0  0  0  0
  188.6970  175.3830  143.5450 C   0  0  0  0  0  0  0  0  0  0  0  0
  192.3150  175.2540  146.8210 C   0  0  0  0  0  3  0  0  0  0  0  0
  191.6070  176.1190  147.6530 C   0  0  0  0  0  3  0  0  0  0  0  0
  186.6530  176.7880  144.0110 C   0  0  0  0  0  0  0  0  0  0  0  0
  186.0140  177.6470  144.9080 C   0  0  0  0  0  0  0  0  0  0  0  0
  189.2690  174.5190  141.2520 C   0  0  1  0  0  3  0  0  0  0  0  0
  190.7320  174.0340  143.1260 N   0  0  0  0  0  2  0  0  0  0  0  0
  185.7350  178.8320  146.7350 N   0  0  0  0  0  0  0  0  0  0  0  0
  191.2500  172.9020  140.9880 C   0  0  2  0  0  3  0  0  0  0  0  0
  191.7660  174.8570  145.6010 C   0  0  0  0  0  3  0  0  0  0  0  0
  189.9650  174.9090  143.9730 C   0  0  0  0  0  0  0  0  0  0  0  0
  190.5040  175.3190  145.1970 C   0  0  0  0  0  0  0  0  0  0  0  0
  188.5160  176.6700  145.6380 C   0  0  0  0  0  0  0  0  0  0  0  0
  184.6540  179.0150  145.9890 N   0  0  0  0  0  0  0  0  0  0  0  0
  189.2130  172.7060  139.5330 N   0  0  0  0  0  2  0  0  0  0  0  0
  190.1620  173.4760  141.9100 C   0  0  2  0  0  3  0  0  0  0  0  0
  184.7890  178.2950  144.8460 C   0  0  0  0  0  3  0  0  0  0  0  0
  188.7300  174.0480  139.9010 C   0  0  0  0  0  2  0  0  0  0  0  0
  191.5220  173.7460  139.7450 C   0  0  1  0  0  3  0  0  0  0  0  0
  190.3510  176.5870  147.2630 C   0  0  0  0  0  3  0  0  0  0  0  0
  189.7820  176.1970  146.0340 C   0  0  0  0  0  0  0  0  0  0  0  0
  187.8100  177.5440  146.4950 C   0  0  0  0  0  3  0  0  0  0  0  0
  188.1540  174.8670  142.2260 C   0  0  0  0  0  2  0  0  0  0  0  0
  185.9420  176.4840  142.7290 C   0  0  0  0  0  1  0  0  0  0  0  0
  185.9430  179.4490  148.0350 C   0  0  0  0  0  1  0  0  0  0  0  0
  187.9460  176.2700  144.3750 C   0  0  0  0  0  0  0  0  0  0  0  0
  186.5690  178.0040  146.0930 C   0  0  0  0  0  0  0  0  0  0  0  0
  192.9270  173.4590  139.2420 C   0  0  0  0  0  2  0  0  0  0  0  0
  193.8480  174.6420  139.3510 C   0  0  0  0  0  0  0  0  0  0  0  0
  194.3590  175.1420  140.6650 C   0  0  0  0  0  1  0  0  0  0  0  0
  194.1910  175.2150  138.3300 O   0  0  0  0  0  0  0  0  0  0  0  0
  1 16  1  1  0  0  0
  1 20  1  0  0  0  0
  1 10  1  0  0  0  0
  2 12  2  0  0  0  0
  2 27  1  0  0  0  0
  3  4  1  0  0  0  0
  5 27  2  0  0  0  0
  5  6  1  0  0  0  0
  6 28  2  0  0  0  0
  7 19  1  6  0  0  0
  7 17  1  0  0  0  0
  7 24  1  0  0  0  0
  8 12  1  0  0  0  0
  9 26  1  0  0  0  0
 10 17  1  0  0  0  0
 11  3  2  0  0  0  0
 12 13  1  0  0  0  0
 13 11  1  0  0  0  0
 13 22  2  0  0  0  0
 14 22  1  0  0  0  0
 14 23  2  0  0  0  0
 15  9  1  0  0  0  0
 16 19  1  0  0  0  0
 17  8  1  0  0  0  0
 18  6  1  0  0  0  0
 18 15  2  0  0  0  0
 20 10  1  0  0  0  0
 21  4  2  0  0  0  0
 22 21  1  0  0  0  0
 24  2  1  0  0  0  0
 25  5  1  0  0  0  0
 27 14  1  0  0  0  0
 28 23  1  0  0  0  0
 28  9  1  0  0  0  0
 29 30  1  0  0  0  0
 29 20  1  0  0  0  0
 30 31  1  0  0  0  0
 32 30  2  0  0  0  0
M  END
>  <MODEL>
4

>  <REMARK>
 VINA RESULT:      -8.5      2.822      4.949
  Name = 
  2 active torsions:
  status: ('A' for Active; 'I' for Inactive)
    1  A    between atoms: C_20  and  C_29
    2  A    between atoms: C_29  and  C_30
                            x       y       z     vdW  Elec       q    Type
                         _______ _______ _______ _____ _____    ______ ____

>  <TORSDO>
F 2

$$$$
=
 OpenBabel11112416333D

 32 38  0  0  1  0  0  0  0  0999 V2000
  186.1600  178.2430  141.3360 C   0  0  1  0  0  3  0  0  0  0  0  0
  190.1130  175.4390  143.3780 C   0  0  0  0  0  0  0  0  0  0  0  0
  190.4590  177.3150  147.8720 C   0  0  0  0  0  3  0  0  0  0  0  0
  191.4490  176.3880  148.1940 C   0  0  0  0  0  3  0  0  0  0  0  0
  191.5800  173.4890  142.7320 C   0  0  0  0  0  0  0  0  0  0  0  0
  192.5780  172.6030  143.1400 C   0  0  0  0  0  0  0  0  0  0  0  0
  188.0670  176.1020  142.0730 C   0  0  1  0  0  3  0  0  0  0  0  0
  188.6820  177.3410  144.0660 N   0  0  0  0  0  2  0  0  0  0  0  0
  194.0460  171.6780  144.4860 N   0  0  0  0  0  0  0  0  0  0  0  0
  186.8190  178.2560  142.7190 C   0  0  2  0  0  3  0  0  0  0  0  0
  189.8880  177.3100  146.5990 C   0  0  0  0  0  3  0  0  0  0  0  0
  189.7200  176.3870  144.3590 C   0  0  0  0  0  0  0  0  0  0  0  0
  190.2990  176.3780  145.6320 C   0  0  0  0  0  0  0  0  0  0  0  0
  191.7170  174.4940  144.9910 C   0  0  0  0  0  0  0  0  0  0  0  0
  194.1080  171.0180  143.3370 N   0  0  0  0  0  0  0  0  0  0  0  0
  186.9580  177.5050  140.3260 N   0  0  0  0  0  2  0  0  0  0  0  0
  188.1460  177.4780  142.7210 C   0  0  2  0  0  3  0  0  0  0  0  0
  193.2120  171.5630  142.4760 C   0  0  0  0  0  3  0  0  0  0  0  0
  187.3940  176.1490  140.7000 C   0  0  0  0  0  2  0  0  0  0  0  0
  185.5890  177.3880  142.4640 C   0  0  1  0  0  3  0  0  0  0  0  0
  191.8650  175.4560  147.2430 C   0  0  0  0  0  3  0  0  0  0  0  0
  191.2990  175.4360  145.9530 C   0  0  0  0  0  0  0  0  0  0  0  0
  192.7240  173.5640  145.3340 C   0  0  0  0  0  3  0  0  0  0  0  0
  189.4740  175.5310  142.0050 C   0  0  0  0  0  2  0  0  0  0  0  0
  191.0500  173.3320  141.3410 C   0  0  0  0  0  1  0  0  0  0  0  0
  194.8650  171.3720  145.6480 C   0  0  0  0  0  1  0  0  0  0  0  0
  191.1250  174.4770  143.6760 C   0  0  0  0  0  0  0  0  0  0  0  0
  193.1230  172.6420  144.3820 C   0  0  0  0  0  0  0  0  0  0  0  0
  184.3640  178.0750  143.0450 C   0  0  0  0  0  2  0  0  0  0  0  0
  184.5990  178.6450  144.4160 C   0  0  0  0  0  0  0  0  0  0  0  0
  184.8340  177.7790  145.6140 C   0  0  0  0  0  1  0  0  0  0  0  0
  184.5970  179.8560  144.5570 O   0  0  0  0  0  0  0  0  0  0  0  0
  1 16  1  6  0  0  0
  1 20  1  0  0  0  0
  1 10  1  0  0  0  0
  2 27  2  0  0  0  0
  2 12  1  0  0  0  0
  3  4  1  0  0  0  0
  5  6  2  0  0  0  0
  5 27  1  0  0  0  0
  6 28  1  0  0  0  0
  7 19  1  6  0  0  0
  7 17  1  0  0  0  0
  8 12  1  0  0  0  0
  9 26  1  0  0  0  0
 10 17  1  0  0  0  0
 11  3  2  0  0  0  0
 12 13  2  0  0  0  0
 13 22  1  0  0  0  0
 13 11  1  0  0  0  0
 14 23  1  0  0  0  0
 14 22  2  0  0  0  0
 15  9  1  0  0  0  0
 16 19  1  0  0  0  0
 17  8  1  0  0  0  0
 18  6  1  0  0  0  0
 18 15  2  0  0  0  0
 20 10  1  0  0  0  0
 20 29  1  0  0  0  0
 21  4  2  0  0  0  0
 22 21  1  0  0  0  0
 24  7  1  0  0  0  0
 24  2  1  0  0  0  0
 25  5  1  0  0  0  0
 27 14  1  0  0  0  0
 28  9  1  0  0  0  0
 28 23  2  0  0  0  0
 29 30  1  0  0  0  0
 30 32  2  0  0  0  0
 30 31  1  0  0  0  0
M  END
>  <MODEL>
5

>  <REMARK>
 VINA RESULT:      -8.5      3.020      8.113
  Name = 
  2 active torsions:
  status: ('A' for Active; 'I' for Inactive)
    1  A    between atoms: C_20  and  C_29
    2  A    between atoms: C_29  and  C_30
                            x       y       z     vdW  Elec       q    Type
                         _______ _______ _______ _____ _____    ______ ____

>  <TORSDO>
F 2

$$$$
=
 OpenBabel11112416333D

 32 38  0  0  1  0  0  0  0  0999 V2000
  186.9030  177.8180  142.5700 C   0  0  1  0  0  3  0  0  0  0  0  0
  190.6830  174.2810  143.4910 C   0  0  0  0  0  0  0  0  0  0  0  0
  193.7350  176.7950  146.3550 C   0  0  0  0  0  3  0  0  0  0  0  0
  194.5360  175.6660  146.5120 C   0  0  0  0  0  3  0  0  0  0  0  0
  191.1580  171.8500  143.0070 C   0  0  0  0  0  0  0  0  0  0  0  0
  192.0210  170.7720  143.2140 C   0  0  0  0  0  0  0  0  0  0  0  0
  188.4370  175.3410  143.0930 C   0  0  1  0  0  3  0  0  0  0  0  0
  190.2510  176.6640  144.0120 N   0  0  0  0  0  2  0  0  0  0  0  0
  193.7610  169.6850  143.9970 N   0  0  0  0  0  0  0  0  0  0  0  0
  188.1840  177.8810  143.4070 C   0  0  2  0  0  3  0  0  0  0  0  0
  192.5870  176.7300  145.5670 C   0  0  0  0  0  3  0  0  0  0  0  0
  191.0710  175.4870  144.1320 C   0  0  0  0  0  0  0  0  0  0  0  0
  192.2240  175.5360  144.9230 C   0  0  0  0  0  0  0  0  0  0  0  0
  192.6740  173.1830  144.4410 C   0  0  0  0  0  0  0  0  0  0  0  0
  193.0690  168.8250  143.2630 N   0  0  0  0  0  0  0  0  0  0  0  0
  186.8740  176.6550  141.6500 N   0  0  0  0  0  2  0  0  0  0  0  0
  189.1220  176.7020  143.0980 C   0  0  2  0  0  3  0  0  0  0  0  0
  191.9810  169.4620  142.7590 C   0  0  0  0  0  3  0  0  0  0  0  0
  187.1620  175.3400  142.2480 C   0  0  0  0  0  2  0  0  0  0  0  0
  186.8630  177.4730  144.0560 C   0  0  1  0  0  3  0  0  0  0  0  0
  194.1870  174.4720  145.8790 C   0  0  0  0  0  3  0  0  0  0  0  0
  193.0300  174.3880  145.0790 C   0  0  0  0  0  0  0  0  0  0  0  0
  193.4990  172.0480  144.6070 C   0  0  0  0  0  3  0  0  0  0  0  0
  189.4450  174.3090  142.6160 C   0  0  0  0  0  2  0  0  0  0  0  0
  189.9500  171.6080  142.1570 C   0  0  0  0  0  1  0  0  0  0  0  0
  194.9920  169.3560  144.6960 C   0  0  0  0  0  1  0  0  0  0  0  0
  191.4840  173.1070  143.6300 C   0  0  0  0  0  0  0  0  0  0  0  0
  193.1380  170.8710  143.9780 C   0  0  0  0  0  0  0  0  0  0  0  0
  186.3010  178.6520  144.8320 C   0  0  0  0  0  2  0  0  0  0  0  0
  185.1800  178.2720  145.7580 C   0  0  0  0  0  0  0  0  0  0  0  0
  185.1710  176.9820  146.5180 C   0  0  0  0  0  1  0  0  0  0  0  0
  184.2450  179.0410  145.8960 O   0  0  0  0  0  0  0  0  0  0  0  0
  1 16  1  6  0  0  0
  1 10  1  0  0  0  0
  1 20  1  0  0  0  0
  2 27  2  0  0  0  0
  2 12  1  0  0  0  0
  3  4  1  0  0  0  0
  5  6  2  0  0  0  0
  5 27  1  0  0  0  0
  6 28  1  0  0  0  0
  7 19  1  6  0  0  0
  7 17  1  0  0  0  0
  8 12  1  0  0  0  0
  9 26  1  0  0  0  0
 10 20  1  0  0  0  0
 11  3  2  0  0  0  0
 12 13  2  0  0  0  0
 13 22  1  0  0  0  0
 13 11  1  0  0  0  0
 14 23  1  0  0  0  0
 14 22  2  0  0  0  0
 15  9  1  0  0  0  0
 16 19  1  0  0  0  0
 17 10  1  0  0  0  0
 17  8  1  0  0  0  0
 18  6  1  0  0  0  0
 18 15  2  0  0  0  0
 20 29  1  0  0  0  0
 21  4  2  0  0  0  0
 22 21  1  0  0  0  0
 24  7  1  0  0  0  0
 24  2  1  0  0  0  0
 25  5  1  0  0  0  0
 27 14  1  0  0  0  0
 28  9  1  0  0  0  0
 28 23  2  0  0  0  0
 29 30  1  0  0  0  0
 30 32  2  0  0  0  0
 30 31  1  0  0  0  0
M  END
>  <MODEL>
6

>  <REMARK>
 VINA RESULT:      -8.2      3.582      8.696
  Name = 
  2 active torsions:
  status: ('A' for Active; 'I' for Inactive)
    1  A    between atoms: C_20  and  C_29
    2  A    between atoms: C_29  and  C_30
                            x       y       z     vdW  Elec       q    Type
                         _______ _______ _______ _____ _____    ______ ____

>  <TORSDO>
F 2

$$$$
=
 OpenBabel11112416333D

 32 38  0  0  1  0  0  0  0  0999 V2000
  195.2560  174.5810  145.1820 C   0  0  1  0  0  3  0  0  0  0  0  0
  190.3010  176.3420  145.1560 C   0  0  0  0  0  0  0  0  0  0  0  0
  188.6700  174.6910  140.8610 C   0  0  0  0  0  3  0  0  0  0  0  0
  187.3980  175.1870  141.1410 C   0  0  0  0  0  3  0  0  0  0  0  0
  188.7120  177.5420  146.7070 C   0  0  0  0  0  0  0  0  0  0  0  0
  187.4110  178.0090  146.9020 C   0  0  0  0  0  0  0  0  0  0  0  0
  192.5110  175.4110  145.9160 C   0  0  1  0  0  3  0  0  0  0  0  0
  191.8170  175.1420  143.6070 N   0  0  0  0  0  2  0  0  0  0  0  0
  185.2980  178.3850  146.4370 N   0  0  0  0  0  0  0  0  0  0  0  0
  194.1200  174.4330  144.1650 C   0  0  2  0  0  3  0  0  0  0  0  0
  189.7010  174.8590  141.7850 C   0  0  0  0  0  3  0  0  0  0  0  0
  190.5210  175.6880  143.9160 C   0  0  0  0  0  0  0  0  0  0  0  0
  189.4750  175.5240  143.0010 C   0  0  0  0  0  0  0  0  0  0  0  0
  187.9490  176.6930  144.5100 C   0  0  0  0  0  0  0  0  0  0  0  0
  185.5250  178.9000  147.6380 N   0  0  0  0  0  0  0  0  0  0  0  0
  194.9850  175.6290  146.1960 N   0  0  0  0  0  2  0  0  0  0  0  0
  192.9640  175.4020  144.4620 C   0  0  2  0  0  3  0  0  0  0  0  0
  186.8260  178.6870  147.9610 C   0  0  0  0  0  3  0  0  0  0  0  0
  193.6860  175.5540  146.8850 C   0  0  0  0  0  2  0  0  0  0  0  0
  194.3320  173.3680  145.2390 C   0  0  1  0  0  3  0  0  0  0  0  0
  187.1590  175.8490  142.3470 C   0  0  0  0  0  3  0  0  0  0  0  0
  188.1890  176.0270  143.2920 C   0  0  0  0  0  0  0  0  0  0  0  0
  186.6550  177.1920  144.7770 C   0  0  0  0  0  3  0  0  0  0  0  0
  191.4870  176.5220  146.0840 C   0  0  0  0  0  2  0  0  0  0  0  0
  189.6960  177.7760  147.8100 C   0  0  0  0  0  1  0  0  0  0  0  0
  184.0110  178.4240  145.7630 C   0  0  0  0  0  1  0  0  0  0  0  0
  189.0100  176.8630  145.4730 C   0  0  0  0  0  0  0  0  0  0  0  0
  186.4320  177.8410  145.9780 C   0  0  0  0  0  0  0  0  0  0  0  0
  195.0360  172.1700  144.6230 C   0  0  0  0  0  2  0  0  0  0  0  0
  195.4160  171.1230  145.6330 C   0  0  0  0  0  0  0  0  0  0  0  0
  196.8160  170.9690  146.1380 C   0  0  0  0  0  1  0  0  0  0  0  0
  194.5530  170.3730  146.0550 O   0  0  0  0  0  0  0  0  0  0  0  0
  1 20  1  0  0  0  0
  1 16  1  1  0  0  0
  2 27  1  0  0  0  0
  2 24  1  0  0  0  0
  3  4  2  0  0  0  0
  3 11  1  0  0  0  0
  4 21  1  0  0  0  0
  5  6  1  0  0  0  0
  5 25  1  0  0  0  0
  6 18  1  0  0  0  0
  7 24  1  6  0  0  0
  7 19  1  0  0  0  0
  8 12  1  0  0  0  0
  8 17  1  0  0  0  0
  9 15  1  0  0  0  0
 10 17  1  0  0  0  0
 10  1  1  0  0  0  0
 10 20  1  0  0  0  0
 11 13  2  0  0  0  0
 12  2  2  0  0  0  0
 13 22  1  0  0  0  0
 13 12  1  0  0  0  0
 14 23  2  0  0  0  0
 14 27  1  0  0  0  0
 15 18  2  0  0  0  0
 16 19  1  0  0  0  0
 17  7  1  0  0  0  0
 21 22  2  0  0  0  0
 22 14  1  0  0  0  0
 23 28  1  0  0  0  0
 26  9  1  0  0  0  0
 27  5  2  0  0  0  0
 28  9  1  0  0  0  0
 28  6  2  0  0  0  0
 29 20  1  0  0  0  0
 29 30  1  0  0  0  0
 30 32  2  0  0  0  0
 30 31  1  0  0  0  0
M  END
>  <MODEL>
7

>  <REMARK>
 VINA RESULT:      -8.1      2.690      5.207
  Name = 
  2 active torsions:
  status: ('A' for Active; 'I' for Inactive)
    1  A    between atoms: C_20  and  C_29
    2  A    between atoms: C_29  and  C_30
                            x       y       z     vdW  Elec       q    Type
                         _______ _______ _______ _____ _____    ______ ____

>  <TORSDO>
F 2

$$$$
=
 OpenBabel11112416333D

 32 38  0  0  1  0  0  0  0  0999 V2000
  195.2980  174.4180  145.4920 C   0  0  1  0  0  3  0  0  0  0  0  0
  190.5250  175.9360  143.8900 C   0  0  0  0  0  0  0  0  0  0  0  0
  190.0320  173.4580  139.7120 C   0  0  0  0  0  3  0  0  0  0  0  0
  188.7330  173.9420  139.5650 C   0  0  0  0  0  3  0  0  0  0  0  0
  188.6010  177.3330  144.7360 C   0  0  0  0  0  0  0  0  0  0  0  0
  187.2960  177.7730  144.5060 C   0  0  0  0  0  0  0  0  0  0  0  0
  192.4620  175.2530  145.3420 C   0  0  1  0  0  3  0  0  0  0  0  0
  192.3770  174.5360  143.0260 N   0  0  0  0  0  2  0  0  0  0  0  0
  185.3740  177.9690  143.4620 N   0  0  0  0  0  0  0  0  0  0  0  0
  194.4570  174.0380  144.2680 C   0  0  2  0  0  3  0  0  0  0  0  0
  190.7950  173.8350  140.8170 C   0  0  0  0  0  3  0  0  0  0  0  0
  191.0490  175.0750  142.8900 C   0  0  0  0  0  0  0  0  0  0  0  0
  190.2700  174.7020  141.7890 C   0  0  0  0  0  0  0  0  0  0  0  0
  188.4180  176.0630  142.6180 C   0  0  0  0  0  0  0  0  0  0  0  0
  185.2920  178.7050  144.5620 N   0  0  0  0  0  0  0  0  0  0  0  0
  194.7840  175.6220  146.1900 N   0  0  0  0  0  2  0  0  0  0  0  0
  193.2700  174.9960  144.0770 C   0  0  2  0  0  3  0  0  0  0  0  0
  186.4660  178.6090  145.2370 C   0  0  0  0  0  3  0  0  0  0  0  0
  193.3520  175.6210  146.5310 C   0  0  0  0  0  2  0  0  0  0  0  0
  194.3810  173.1980  145.5410 C   0  0  1  0  0  3  0  0  0  0  0  0
  188.2000  174.8040  140.5240 C   0  0  0  0  0  3  0  0  0  0  0  0
  188.9560  175.1950  141.6470 C   0  0  0  0  0  0  0  0  0  0  0  0
  187.1020  176.5490  142.4520 C   0  0  0  0  0  3  0  0  0  0  0  0
  191.4360  176.3320  145.0350 C   0  0  0  0  0  2  0  0  0  0  0  0
  189.2730  177.8070  145.9870 C   0  0  0  0  0  1  0  0  0  0  0  0
  184.3020  177.8300  142.4910 C   0  0  0  0  0  1  0  0  0  0  0  0
  189.1990  176.4510  143.7670 C   0  0  0  0  0  0  0  0  0  0  0  0
  186.5840  177.3980  143.4140 C   0  0  0  0  0  0  0  0  0  0  0  0
  195.2110  171.9380  145.3600 C   0  0  0  0  0  2  0  0  0  0  0  0
  194.3800  170.6860  145.2970 C   0  0  0  0  0  0  0  0  0  0  0  0
  194.7140  169.4620  146.0900 C   0  0  0  0  0  1  0  0  0  0  0  0
  193.4000  170.6680  144.5730 O   0  0  0  0  0  0  0  0  0  0  0  0
  1 20  1  0  0  0  0
  1 16  1  1  0  0  0
  2 24  1  0  0  0  0
  3 11  1  0  0  0  0
  4  3  2  0  0  0  0
  4 21  1  0  0  0  0
  5 25  1  0  0  0  0
  6  5  1  0  0  0  0
  6 18  1  0  0  0  0
  7 24  1  6  0  0  0
  7 19  1  0  0  0  0
  8 17  1  0  0  0  0
  9 15  1  0  0  0  0
 10  1  1  0  0  0  0
 10 20  1  0  0  0  0
 11 13  2  0  0  0  0
 12  8  1  0  0  0  0
 12  2  2  0  0  0  0
 13 12  1  0  0  0  0
 14 27  1  0  0  0  0
 15 18  2  0  0  0  0
 16 19  1  0  0  0  0
 17 10  1  0  0  0  0
 17  7  1  0  0  0  0
 21 22  2  0  0  0  0
 22 13  1  0  0  0  0
 22 14  1  0  0  0  0
 23 14  2  0  0  0  0
 23 28  1  0  0  0  0
 26  9  1  0  0  0  0
 27  2  1  0  0  0  0
 27  5  2  0  0  0  0
 28  9  1  0  0  0  0
 28  6  2  0  0  0  0
 29 20  1  0  0  0  0
 30 29  1  0  0  0  0
 30 31  1  0  0  0  0
 32 30  2  0  0  0  0
M  END
>  <MODEL>
8

>  <REMARK>
 VINA RESULT:      -8.1      2.610      5.281
  Name = 
  2 active torsions:
  status: ('A' for Active; 'I' for Inactive)
    1  A    between atoms: C_20  and  C_29
    2  A    between atoms: C_29  and  C_30
                            x       y       z     vdW  Elec       q    Type
                         _______ _______ _______ _____ _____    ______ ____

>  <TORSDO>
F 2

$$$$
=
 OpenBabel11112416333D

 32 38  0  0  1  0  0  0  0  0999 V2000
  194.1750  172.9680  141.6220 C   0  0  1  0  0  3  0  0  0  0  0  0
  190.0260  175.5680  143.5390 C   0  0  0  0  0  0  0  0  0  0  0  0
  191.6240  176.8900  147.9600 C   0  0  0  0  0  3  0  0  0  0  0  0
  190.4430  177.5930  148.1880 C   0  0  0  0  0  3  0  0  0  0  0  0
  187.7540  176.3430  142.7600 C   0  0  0  0  0  0  0  0  0  0  0  0
  186.6030  177.0670  143.0770 C   0  0  0  0  0  0  0  0  0  0  0  0
  191.7730  174.6630  141.9730 C   0  0  1  0  0  3  0  0  0  0  0  0
  192.2560  174.8490  144.3430 N   0  0  0  0  0  2  0  0  0  0  0  0
  185.2550  178.3120  144.2820 N   0  0  0  0  0  0  0  0  0  0  0  0
  193.9420  173.6900  142.9530 C   0  0  2  0  0  3  0  0  0  0  0  0
  191.8090  176.2140  146.7540 C   0  0  0  0  0  3  0  0  0  0  0  0
  191.0140  175.5440  144.5580 C   0  0  0  0  0  0  0  0  0  0  0  0
  190.8160  176.2310  145.7610 C   0  0  0  0  0  0  0  0  0  0  0  0
  188.6150  176.9690  144.9960 C   0  0  0  0  0  0  0  0  0  0  0  0
  184.6380  178.0800  143.1320 N   0  0  0  0  0  0  0  0  0  0  0  0
  192.9180  172.7340  140.8680 N   0  0  0  0  0  2  0  0  0  0  0  0
  192.4550  174.0130  143.1700 C   0  0  2  0  0  3  0  0  0  0  0  0
  185.4420  177.3100  142.3560 C   0  0  0  0  0  3  0  0  0  0  0  0
  192.0450  173.9040  140.6720 C   0  0  0  0  0  2  0  0  0  0  0  0
  194.5760  174.4320  141.7780 C   0  0  1  0  0  3  0  0  0  0  0  0
  189.4480  177.6190  147.2100 C   0  0  0  0  0  3  0  0  0  0  0  0
  189.6180  176.9420  145.9860 C   0  0  0  0  0  0  0  0  0  0  0  0
  187.4220  177.6830  145.2450 C   0  0  0  0  0  3  0  0  0  0  0  0
  190.2880  174.7700  142.2770 C   0  0  0  0  0  2  0  0  0  0  0  0
  187.8090  175.7000  141.4100 C   0  0  0  0  0  1  0  0  0  0  0  0
  184.6930  179.1050  145.3640 C   0  0  0  0  0  1  0  0  0  0  0  0
  188.8030  176.2780  143.7430 C   0  0  0  0  0  0  0  0  0  0  0  0
  186.4470  177.7040  144.2640 C   0  0  0  0  0  0  0  0  0  0  0  0
  196.0780  174.5220  141.9940 C   0  0  0  0  0  2  0  0  0  0  0  0
  196.4510  175.2420  143.2600 C   0  0  0  0  0  0  0  0  0  0  0  0
  197.1980  174.5730  144.3710 C   0  0  0  0  0  1  0  0  0  0  0  0
  196.1340  176.4120  143.3860 O   0  0  0  0  0  0  0  0  0  0  0  0
  1 16  1  6  0  0  0
  1 20  1  0  0  0  0
  1 10  1  0  0  0  0
  2 27  2  0  0  0  0
  2 12  1  0  0  0  0
  3  4  1  0  0  0  0
  5  6  2  0  0  0  0
  5 27  1  0  0  0  0
  6 28  1  0  0  0  0
  7 19  1  6  0  0  0
  7 24  1  0  0  0  0
  7 17  1  0  0  0  0
  8 12  1  0  0  0  0
  9 26  1  0  0  0  0
 10 17  1  0  0  0  0
 11  3  2  0  0  0  0
 12 13  2  0  0  0  0
 13 22  1  0  0  0  0
 13 11  1  0  0  0  0
 14 23  1  0  0  0  0
 14 22  2  0  0  0  0
 15  9  1  0  0  0  0
 17  8  1  0  0  0  0
 18  6  1  0  0  0  0
 18 15  2  0  0  0  0
 19 16  1  0  0  0  0
 20 29  1  0  0  0  0
 20 10  1  0  0  0  0
 21  4  2  0  0  0  0
 22 21  1  0  0  0  0
 24  2  1  0  0  0  0
 25  5  1  0  0  0  0
 27 14  1  0  0  0  0
 28  9  1  0  0  0  0
 28 23  2  0  0  0  0
 29 30  1  0  0  0  0
 30 32  2  0  0  0  0
 30 31  1  0  0  0  0
M  END
>  <MODEL>
9

>  <REMARK>
 VINA RESULT:      -8.1      2.197      3.636
  Name = 
  2 active torsions:
  status: ('A' for Active; 'I' for Inactive)
    1  A    between atoms: C_20  and  C_29
    2  A    between atoms: C_29  and  C_30
                            x       y       z     vdW  Elec       q    Type
                         _______ _______ _______ _____ _____    ______ ____

>  <TORSDO>
F 2

$$$$
