=
 OpenBabel11112417193D

 37 43  0  0  1  0  0  0  0  0999 V2000
  195.2280  174.6410  143.0470 C   0  0  0  0  0  0  0  0  0  0  0  0
  191.9370  176.0100  145.2270 C   0  0  0  0  0  0  0  0  0  0  0  0
  188.4910  174.9270  143.9270 C   0  0  0  0  0  2  0  0  0  0  0  0
  194.3550  175.7830  145.1550 C   0  0  0  0  0  0  0  0  0  0  0  0
  190.9170  175.8370  144.2730 C   0  0  0  0  0  0  0  0  0  0  0  0
  193.1030  175.7220  144.5800 C   0  0  0  0  0  0  0  0  0  0  0  0
  189.3990  176.0760  144.4600 C   0  0  2  0  0  3  0  0  0  0  0  0
  194.4320  176.1960  146.4920 C   0  0  0  0  0  3  0  0  0  0  0  0
  192.8380  175.3910  143.2990 C   0  0  0  0  0  0  0  0  0  0  0  0
  195.0930  173.1870  143.4680 C   0  0  0  0  0  1  0  0  0  0  0  0
  190.7780  176.8060  147.3640 C   0  0  0  0  0  2  0  0  0  0  0  0
  193.2470  176.5160  147.1960 C   0  0  0  0  0  3  0  0  0  0  0  0
  193.9330  175.0850  142.3160 C   0  0  0  0  0  2  0  0  0  0  0  0
  188.5280  173.9780  141.6340 C   0  0  1  0  0  3  0  0  0  0  0  0
  189.1920  174.1440  142.9300 N   0  0  1  0  0  0  0  0  0  0  0  0
  191.9830  176.4410  146.5680 C   0  0  0  0  0  0  0  0  0  0  0  0
  191.5120  175.4740  143.0740 N   0  0  0  0  0  0  0  0  0  0  0  0
  195.5620  175.5080  144.2930 C   0  0  0  0  0  2  0  0  0  0  0  0
  188.8870  176.5290  145.8380 C   0  0  1  0  0  3  0  0  0  0  0  0
  196.3820  174.7420  142.0730 C   0  0  0  0  0  1  0  0  0  0  0  0
  189.4000  175.1400  141.8660 C   0  0  1  0  0  3  0  0  0  0  0  0
  190.9080  175.1810  141.7570 C   0  0  0  0  0  2  0  0  0  0  0  0
  189.7720  177.5520  146.5200 C   0  0  0  0  0  2  0  0  0  0  0  0
  186.4970  176.4940  146.5770 C   0  0  0  0  0  3  0  0  0  0  0  0
  187.4850  177.0570  145.7610 C   0  0  0  0  0  0  0  0  0  0  0  0
  187.1500  178.1040  144.8880 C   0  0  0  0  0  3  0  0  0  0  0  0
  185.4880  179.6880  143.9070 C   0  0  0  0  0  1  0  0  0  0  0  0
  184.8540  178.0130  145.6490 C   0  0  0  0  0  3  0  0  0  0  0  0
  185.8380  178.5800  144.8330 C   0  0  0  0  0  0  0  0  0  0  0  0
  185.1840  176.9720  146.5210 C   0  0  0  0  0  3  0  0  0  0  0  0
  189.2090  172.9110  140.8350 C   0  0  0  0  0  0  0  0  0  0  0  0
  189.9300  171.8740  141.5070 N   0  0  0  0  0  2  0  0  0  0  0  0
  189.1690  172.9490  139.5760 O   0  0  0  0  0  0  0  0  0  0  0  0
  190.8490  169.6180  141.7530 C   0  0  0  0  0  1  0  0  0  0  0  0
  190.5580  170.7660  140.7990 C   0  0  2  0  0  3  0  0  0  0  0  0
  192.8240  171.8640  141.0620 C   0  0  0  0  0  1  0  0  0  0  0  0
  191.8310  171.2320  140.0980 C   0  0  0  0  0  2  0  0  0  0  0  0
  1 10  1  0  0  0  0
  1 18  1  0  0  0  0
  2 16  1  0  0  0  0
  4  8  2  0  0  0  0
  5  7  1  0  0  0  0
  5  2  2  0  0  0  0
  6  4  1  0  0  0  0
  6  2  1  0  0  0  0
  7  3  1  1  0  0  0
  7 19  1  0  0  0  0
  8 12  1  0  0  0  0
  9  6  2  0  0  0  0
 13  1  1  0  0  0  0
 13  9  1  0  0  0  0
 14 31  1  6  0  0  0
 14 21  1  0  0  0  0
 14 15  1  0  0  0  0
 15  3  1  1  0  0  0
 16 12  2  0  0  0  0
 16 11  1  0  0  0  0
 17  9  1  0  0  0  0
 17  5  1  0  0  0  0
 18  4  1  0  0  0  0
 19 25  1  6  0  0  0
 19 23  1  0  0  0  0
 20  1  1  0  0  0  0
 21 22  1  6  0  0  0
 21 15  1  0  0  0  0
 22 17  1  0  0  0  0
 23 11  1  0  0  0  0
 25 24  2  0  0  0  0
 26 25  1  0  0  0  0
 27 29  1  0  0  0  0
 28 30  2  0  0  0  0
 29 26  2  0  0  0  0
 29 28  1  0  0  0  0
 30 24  1  0  0  0  0
 31 32  1  0  0  0  0
 33 31  2  0  0  0  0
 35 32  1  0  0  0  0
 35 34  1  1  0  0  0
 37 35  1  0  0  0  0
 37 36  1  0  0  0  0
M  END
>  <MODEL>
1

>  <REMARK>
 VINA RESULT:      -8.8      0.000      0.000
  Name = 
  4 active torsions:
  status: ('A' for Active; 'I' for Inactive)
    1  A    between atoms: C_4  and  N_12
    2  A    between atoms: C_4  and  C_37
    3  A    between atoms: C_8  and  C_18
    4  A    between atoms: C_23  and  C_30
                            x       y       z     vdW  Elec       q    Type
                         _______ _______ _______ _____ _____    ______ ____

>  <TORSDO>
F 4

$$$$
=
 OpenBabel11112417193D

 37 43  0  0  1  0  0  0  0  0999 V2000
  192.7790  171.5870  141.2280 C   0  0  0  0  0  0  0  0  0  0  0  0
  189.6310  174.2880  141.7290 C   0  0  0  0  0  0  0  0  0  0  0  0
  190.1400  176.9840  144.4140 C   0  0  0  0  0  2  0  0  0  0  0  0
  190.5630  172.5070  140.3630 C   0  0  0  0  0  0  0  0  0  0  0  0
  189.9350  174.7900  143.0080 C   0  0  0  0  0  0  0  0  0  0  0  0
  190.5230  173.2800  141.5050 C   0  0  0  0  0  0  0  0  0  0  0  0
  189.2020  175.9130  143.7800 C   0  0  2  0  0  3  0  0  0  0  0  0
  189.5990  172.7620  139.3770 C   0  0  0  0  0  3  0  0  0  0  0  0
  191.3370  173.1520  142.5720 C   0  0  0  0  0  0  0  0  0  0  0  0
  193.7350  172.5860  140.5980 C   0  0  0  0  0  1  0  0  0  0  0  0
  187.6010  175.6140  140.9130 C   0  0  0  0  0  2  0  0  0  0  0  0
  188.6470  173.7890  139.5770 C   0  0  0  0  0  3  0  0  0  0  0  0
  192.3860  172.0780  142.6470 C   0  0  0  0  0  2  0  0  0  0  0  0
  192.0420  176.5390  145.9460 C   0  0  1  0  0  3  0  0  0  0  0  0
  191.4740  176.4480  144.5970 N   0  0  1  0  0  0  0  0  0  0  0  0
  188.6410  174.5580  140.7630 C   0  0  0  0  0  0  0  0  0  0  0  0
  190.9880  174.0460  143.5190 N   0  0  0  0  0  0  0  0  0  0  0  0
  191.5600  171.3790  140.2860 C   0  0  0  0  0  2  0  0  0  0  0  0
  188.0120  176.6180  143.1050 C   0  0  1  0  0  3  0  0  0  0  0  0
  193.5050  170.2670  141.3660 C   0  0  0  0  0  1  0  0  0  0  0  0
  191.2280  175.3730  145.5720 C   0  0  1  0  0  3  0  0  0  0  0  0
  191.6890  174.1460  144.8170 C   0  0  0  0  0  2  0  0  0  0  0  0
  187.0990  175.6860  142.3360 C   0  0  0  0  0  2  0  0  0  0  0  0
  186.6240  178.6140  143.6940 C   0  0  0  0  0  3  0  0  0  0  0  0
  187.2030  177.4040  144.0940 C   0  0  0  0  0  0  0  0  0  0  0  0
  187.0140  176.9460  145.4070 C   0  0  0  0  0  3  0  0  0  0  0  0
  186.0610  177.2060  147.7000 C   0  0  0  0  0  1  0  0  0  0  0  0
  185.6820  178.9030  145.9070 C   0  0  0  0  0  3  0  0  0  0  0  0
  186.2560  177.6950  146.3100 C   0  0  0  0  0  0  0  0  0  0  0  0
  185.8640  179.3630  144.5990 C   0  0  0  0  0  3  0  0  0  0  0  0
  193.5080  176.2390  145.9110 C   0  0  0  0  0  0  0  0  0  0  0  0
  194.1770  176.1160  144.6540 N   0  0  0  0  0  2  0  0  0  0  0  0
  194.1370  176.0670  146.9900 O   0  0  0  0  0  0  0  0  0  0  0  0
  196.1680  176.5850  143.3090 C   0  0  0  0  0  1  0  0  0  0  0  0
  195.6130  175.8940  144.5440 C   0  0  2  0  0  3  0  0  0  0  0  0
  196.6840  173.9480  145.7620 C   0  0  0  0  0  1  0  0  0  0  0  0
  195.9240  174.4000  144.5230 C   0  0  0  0  0  2  0  0  0  0  0  0
  1 20  1  0  0  0  0
  1 13  1  0  0  0  0
  2  5  2  0  0  0  0
  4  6  1  0  0  0  0
  5 17  1  0  0  0  0
  5  7  1  0  0  0  0
  6  2  1  0  0  0  0
  6  9  2  0  0  0  0
  7  3  1  6  0  0  0
  8 12  1  0  0  0  0
  8  4  2  0  0  0  0
  9 13  1  0  0  0  0
  9 17  1  0  0  0  0
 10  1  1  0  0  0  0
 11 23  1  0  0  0  0
 12 16  2  0  0  0  0
 14 31  1  6  0  0  0
 15  3  1  1  0  0  0
 15 21  1  0  0  0  0
 15 14  1  0  0  0  0
 16 11  1  0  0  0  0
 16  2  1  0  0  0  0
 17 22  1  0  0  0  0
 18  4  1  0  0  0  0
 18  1  1  0  0  0  0
 19  7  1  0  0  0  0
 19 25  1  1  0  0  0
 21 22  1  6  0  0  0
 21 14  1  0  0  0  0
 23 19  1  0  0  0  0
 24 25  2  0  0  0  0
 24 30  1  0  0  0  0
 25 26  1  0  0  0  0
 26 29  2  0  0  0  0
 28 29  1  0  0  0  0
 29 27  1  0  0  0  0
 30 28  2  0  0  0  0
 31 33  2  0  0  0  0
 32 31  1  0  0  0  0
 35 34  1  6  0  0  0
 35 32  1  0  0  0  0
 37 35  1  0  0  0  0
 37 36  1  0  0  0  0
M  END
>  <MODEL>
2

>  <REMARK>
 VINA RESULT:      -8.2      2.182      5.444
  Name = 
  4 active torsions:
  status: ('A' for Active; 'I' for Inactive)
    1  A    between atoms: C_4  and  N_12
    2  A    between atoms: C_4  and  C_37
    3  A    between atoms: C_8  and  C_18
    4  A    between atoms: C_23  and  C_30
                            x       y       z     vdW  Elec       q    Type
                         _______ _______ _______ _____ _____    ______ ____

>  <TORSDO>
F 4

$$$$
=
 OpenBabel11112417193D

 37 43  0  0  1  0  0  0  0  0999 V2000
  194.4860  174.2670  145.1560 C   0  0  0  0  0  0  0  0  0  0  0  0
  190.7020  176.0290  145.3390 C   0  0  0  0  0  0  0  0  0  0  0  0
  188.1260  174.7490  142.7970 C   0  0  0  0  0  2  0  0  0  0  0  0
  192.8640  175.7790  146.4190 C   0  0  0  0  0  0  0  0  0  0  0  0
  190.2080  175.6920  144.0660 C   0  0  0  0  0  0  0  0  0  0  0  0
  192.0040  175.6220  145.3520 C   0  0  0  0  0  0  0  0  0  0  0  0
  188.7960  175.9700  143.4960 C   0  0  2  0  0  3  0  0  0  0  0  0
  192.3690  176.4270  147.5580 C   0  0  0  0  0  3  0  0  0  0  0  0
  192.3150  175.0650  144.1640 C   0  0  0  0  0  0  0  0  0  0  0  0
  194.0480  172.9150  145.6930 C   0  0  0  0  0  1  0  0  0  0  0  0
  188.7820  177.2080  146.5520 C   0  0  0  0  0  2  0  0  0  0  0  0
  191.0270  176.8760  147.5810 C   0  0  0  0  0  3  0  0  0  0  0  0
  193.7020  174.5780  143.8530 C   0  0  0  0  0  2  0  0  0  0  0  0
  189.1050  173.3980  140.9580 C   0  0  1  0  0  3  0  0  0  0  0  0
  189.1280  173.7930  142.3700 N   0  0  1  0  0  0  0  0  0  0  0  0
  190.1790  176.6970  146.4650 C   0  0  0  0  0  0  0  0  0  0  0  0
  191.2440  175.1130  143.3460 N   0  0  0  0  0  0  0  0  0  0  0  0
  194.3000  175.3450  146.2610 C   0  0  0  0  0  2  0  0  0  0  0  0
  187.7620  176.6680  144.3950 C   0  0  1  0  0  3  0  0  0  0  0  0
  195.9580  174.1820  144.8160 C   0  0  0  0  0  1  0  0  0  0  0  0
  189.8790  174.5770  141.3760 C   0  0  1  0  0  3  0  0  0  0  0  0
  191.2730  174.5900  141.9640 C   0  0  0  0  0  2  0  0  0  0  0  0
  188.3330  177.7930  145.2340 C   0  0  0  0  0  2  0  0  0  0  0  0
  185.4470  177.6120  144.2750 C   0  0  0  0  0  3  0  0  0  0  0  0
  186.5970  177.1820  143.6020 C   0  0  0  0  0  0  0  0  0  0  0  0
  186.6420  177.2410  142.2000 C   0  0  0  0  0  3  0  0  0  0  0  0
  185.5960  177.7830  139.9980 C   0  0  0  0  0  1  0  0  0  0  0  0
  184.3990  178.1500  142.1590 C   0  0  0  0  0  3  0  0  0  0  0  0
  185.5450  177.7230  141.4820 C   0  0  0  0  0  0  0  0  0  0  0  0
  184.3500  178.0950  143.5550 C   0  0  0  0  0  3  0  0  0  0  0  0
  189.9760  172.2000  140.7410 C   0  0  0  0  0  0  0  0  0  0  0  0
  190.6230  172.0120  139.4800 N   0  0  0  0  0  2  0  0  0  0  0  0
  190.1100  171.3490  141.6620 O   0  0  0  0  0  0  0  0  0  0  0  0
  192.9810  171.3760  139.3200 C   0  0  0  0  0  1  0  0  0  0  0  0
  191.5380  170.9080  139.2210 C   0  0  2  0  0  3  0  0  0  0  0  0
  189.7950  169.8940  137.6890 C   0  0  0  0  0  1  0  0  0  0  0  0
  191.2560  170.2870  137.8560 C   0  0  0  0  0  2  0  0  0  0  0  0
  1 10  1  0  0  0  0
  1 18  1  0  0  0  0
  2  6  1  0  0  0  0
  2 16  1  0  0  0  0
  4  8  2  0  0  0  0
  5  2  2  0  0  0  0
  6  4  1  0  0  0  0
  7  3  1  1  0  0  0
  7  5  1  0  0  0  0
  7 19  1  0  0  0  0
  8 12  1  0  0  0  0
  9  6  2  0  0  0  0
 13  9  1  0  0  0  0
 13  1  1  0  0  0  0
 14 31  1  1  0  0  0
 14 21  1  0  0  0  0
 14 15  1  0  0  0  0
 15  3  1  6  0  0  0
 16 11  1  0  0  0  0
 16 12  2  0  0  0  0
 17  5  1  0  0  0  0
 17  9  1  0  0  0  0
 18  4  1  0  0  0  0
 19 25  1  6  0  0  0
 19 23  1  0  0  0  0
 20  1  1  0  0  0  0
 21 22  1  1  0  0  0
 21 15  1  0  0  0  0
 22 17  1  0  0  0  0
 23 11  1  0  0  0  0
 25 24  1  0  0  0  0
 26 25  2  0  0  0  0
 27 29  1  0  0  0  0
 28 30  1  0  0  0  0
 29 28  2  0  0  0  0
 29 26  1  0  0  0  0
 30 24  2  0  0  0  0
 31 33  2  0  0  0  0
 32 31  1  0  0  0  0
 35 34  1  6  0  0  0
 35 32  1  0  0  0  0
 36 37  1  0  0  0  0
 37 35  1  0  0  0  0
M  END
>  <MODEL>
3

>  <REMARK>
 VINA RESULT:      -8.2      1.758      2.353
  Name = 
  4 active torsions:
  status: ('A' for Active; 'I' for Inactive)
    1  A    between atoms: C_4  and  N_12
    2  A    between atoms: C_4  and  C_37
    3  A    between atoms: C_8  and  C_18
    4  A    between atoms: C_23  and  C_30
                            x       y       z     vdW  Elec       q    Type
                         _______ _______ _______ _____ _____    ______ ____

>  <TORSDO>
F 4

$$$$
=
 OpenBabel11112417193D

 37 43  0  0  1  0  0  0  0  0999 V2000
  189.9770  172.5920  138.4700 C   0  0  0  0  0  0  0  0  0  0  0  0
  187.8040  175.6350  140.3330 C   0  0  0  0  0  0  0  0  0  0  0  0
  189.1020  176.7700  143.7630 C   0  0  0  0  0  2  0  0  0  0  0  0
  188.1530  174.3660  138.2900 C   0  0  0  0  0  0  0  0  0  0  0  0
  188.2420  175.4760  141.6610 C   0  0  0  0  0  0  0  0  0  0  0  0
  188.3460  174.5950  139.6370 C   0  0  0  0  0  0  0  0  0  0  0  0
  187.8840  176.3540  142.8850 C   0  0  2  0  0  3  0  0  0  0  0  0
  187.3180  175.2540  137.5980 C   0  0  0  0  0  3  0  0  0  0  0  0
  189.0770  173.8260  140.4700 C   0  0  0  0  0  0  0  0  0  0  0  0
  191.1960  173.4450  138.1610 C   0  0  0  0  0  1  0  0  0  0  0  0
  186.2820  177.6910  140.3320 C   0  0  0  0  0  2  0  0  0  0  0  0
  186.7260  176.3400  138.2860 C   0  0  0  0  0  3  0  0  0  0  0  0
  189.7470  172.5640  140.0040 C   0  0  0  0  0  2  0  0  0  0  0  0
  190.7690  175.2320  144.7730 C   0  0  1  0  0  3  0  0  0  0  0  0
  190.2070  175.8520  143.5690 N   0  0  1  0  0  0  0  0  0  0  0  0
  186.9490  176.5370  139.6680 C   0  0  0  0  0  0  0  0  0  0  0  0
  189.0140  174.3250  141.7210 N   0  0  0  0  0  0  0  0  0  0  0  0
  188.7570  173.1310  137.6710 C   0  0  0  0  0  2  0  0  0  0  0  0
  186.9710  177.5740  142.6760 C   0  0  1  0  0  3  0  0  0  0  0  0
  190.2630  171.1800  138.0060 C   0  0  0  0  0  1  0  0  0  0  0  0
  189.6390  174.5940  144.0810 C   0  0  1  0  0  3  0  0  0  0  0  0
  189.7050  173.6960  142.8650 C   0  0  0  0  0  2  0  0  0  0  0  0
  185.8200  177.3280  141.7230 C   0  0  0  0  0  2  0  0  0  0  0  0
  185.8400  179.3590  144.0160 C   0  0  0  0  0  3  0  0  0  0  0  0
  186.4360  178.0930  143.9780 C   0  0  0  0  0  0  0  0  0  0  0  0
  186.5210  177.3310  145.1540 C   0  0  0  0  0  3  0  0  0  0  0  0
  186.1090  177.0250  147.5980 C   0  0  0  0  0  1  0  0  0  0  0  0
  185.4230  179.1000  146.3880 C   0  0  0  0  0  3  0  0  0  0  0  0
  186.0150  177.8350  146.3550 C   0  0  0  0  0  0  0  0  0  0  0  0
  185.3340  179.8620  145.2190 C   0  0  0  0  0  3  0  0  0  0  0  0
  192.0730  174.5690  144.4530 C   0  0  0  0  0  0  0  0  0  0  0  0
  192.9770  175.1900  143.5350 N   0  0  0  0  0  2  0  0  0  0  0  0
  192.3530  173.4550  144.9710 O   0  0  0  0  0  0  0  0  0  0  0  0
  195.3880  175.5800  143.7020 C   0  0  0  0  0  1  0  0  0  0  0  0
  194.2910  174.6380  143.2310 C   0  0  2  0  0  3  0  0  0  0  0  0
  193.1080  174.5620  140.9930 C   0  0  0  0  0  1  0  0  0  0  0  0
  194.4190  174.3520  141.7370 C   0  0  0  0  0  2  0  0  0  0  0  0
  1 13  1  0  0  0  0
  2  5  2  0  0  0  0
  4  6  1  0  0  0  0
  5 17  1  0  0  0  0
  5  7  1  0  0  0  0
  6  2  1  0  0  0  0
  6  9  2  0  0  0  0
  7  3  1  6  0  0  0
  8 12  1  0  0  0  0
  8  4  2  0  0  0  0
  9 17  1  0  0  0  0
 10  1  1  0  0  0  0
 11 23  1  0  0  0  0
 12 16  2  0  0  0  0
 13  9  1  0  0  0  0
 14 31  1  6  0  0  0
 15  3  1  1  0  0  0
 15 21  1  0  0  0  0
 15 14  1  0  0  0  0
 16 11  1  0  0  0  0
 16  2  1  0  0  0  0
 17 22  1  0  0  0  0
 18  4  1  0  0  0  0
 18  1  1  0  0  0  0
 19  7  1  0  0  0  0
 19 25  1  1  0  0  0
 20  1  1  0  0  0  0
 21 22  1  6  0  0  0
 21 14  1  0  0  0  0
 23 19  1  0  0  0  0
 24 30  1  0  0  0  0
 25 24  2  0  0  0  0
 25 26  1  0  0  0  0
 26 29  2  0  0  0  0
 29 28  1  0  0  0  0
 29 27  1  0  0  0  0
 30 28  2  0  0  0  0
 31 33  2  0  0  0  0
 32 31  1  0  0  0  0
 35 32  1  0  0  0  0
 35 34  1  6  0  0  0
 36 37  1  0  0  0  0
 37 35  1  0  0  0  0
M  END
>  <MODEL>
4

>  <REMARK>
 VINA RESULT:      -8.0      2.396      5.856
  Name = 
  4 active torsions:
  status: ('A' for Active; 'I' for Inactive)
    1  A    between atoms: C_4  and  N_12
    2  A    between atoms: C_4  and  C_37
    3  A    between atoms: C_8  and  C_18
    4  A    between atoms: C_23  and  C_30
                            x       y       z     vdW  Elec       q    Type
                         _______ _______ _______ _____ _____    ______ ____

>  <TORSDO>
F 4

$$$$
=
 OpenBabel11112417193D

 37 43  0  0  1  0  0  0  0  0999 V2000
  189.8820  172.4930  138.3560 C   0  0  0  0  0  0  0  0  0  0  0  0
  187.7920  175.5850  140.2340 C   0  0  0  0  0  0  0  0  0  0  0  0
  189.0660  176.6060  143.7090 C   0  0  0  0  0  2  0  0  0  0  0  0
  188.1320  174.3400  138.1750 C   0  0  0  0  0  0  0  0  0  0  0  0
  188.1970  175.3850  141.5660 C   0  0  0  0  0  0  0  0  0  0  0  0
  188.3070  174.5370  139.5290 C   0  0  0  0  0  0  0  0  0  0  0  0
  187.8500  176.2540  142.8000 C   0  0  2  0  0  3  0  0  0  0  0  0
  187.3450  175.2720  137.4840 C   0  0  0  0  0  3  0  0  0  0  0  0
  188.9920  173.7250  140.3610 C   0  0  0  0  0  0  0  0  0  0  0  0
  191.1390  173.3030  138.0860 C   0  0  0  0  0  1  0  0  0  0  0  0
  186.3520  177.6990  140.2420 C   0  0  0  0  0  2  0  0  0  0  0  0
  186.7820  176.3670  138.1810 C   0  0  0  0  0  3  0  0  0  0  0  0
  189.6210  172.4460  139.8850 C   0  0  0  0  0  2  0  0  0  0  0  0
  190.6520  174.9870  144.7210 C   0  0  1  0  0  3  0  0  0  0  0  0
  190.1380  175.6500  143.5190 N   0  0  1  0  0  0  0  0  0  0  0  0
  186.9860  176.5310  139.5700 C   0  0  0  0  0  0  0  0  0  0  0  0
  188.9230  174.2040  141.6200 N   0  0  0  0  0  0  0  0  0  0  0  0
  188.7000  173.0930  137.5440 C   0  0  0  0  0  2  0  0  0  0  0  0
  186.9890  177.5130  142.5960 C   0  0  1  0  0  3  0  0  0  0  0  0
  190.1230  171.0790  137.8710 C   0  0  0  0  0  1  0  0  0  0  0  0
  189.5110  174.4060  143.9960 C   0  0  1  0  0  3  0  0  0  0  0  0
  189.5670  173.5280  142.7650 C   0  0  0  0  0  2  0  0  0  0  0  0
  185.8480  177.3290  141.6170 C   0  0  0  0  0  2  0  0  0  0  0  0
  185.8740  179.3050  143.9410 C   0  0  0  0  0  3  0  0  0  0  0  0
  186.4490  178.0290  143.8970 C   0  0  0  0  0  0  0  0  0  0  0  0
  186.5080  177.2550  145.0670 C   0  0  0  0  0  3  0  0  0  0  0  0
  186.0650  176.9340  147.5030 C   0  0  0  0  0  1  0  0  0  0  0  0
  185.4270  179.0310  146.3060 C   0  0  0  0  0  3  0  0  0  0  0  0
  185.9990  177.7560  146.2670 C   0  0  0  0  0  0  0  0  0  0  0  0
  185.3640  179.8050  145.1430 C   0  0  0  0  0  3  0  0  0  0  0  0
  191.9350  174.2800  144.4130 C   0  0  0  0  0  0  0  0  0  0  0  0
  192.1190  172.9280  144.8400 N   0  0  0  0  0  2  0  0  0  0  0  0
  192.8550  174.8890  143.8050 O   0  0  0  0  0  0  0  0  0  0  0  0
  192.9390  170.7330  144.1300 C   0  0  0  0  0  1  0  0  0  0  0  0
  193.3120  172.1560  144.5170 C   0  0  2  0  0  3  0  0  0  0  0  0
  195.6930  171.7410  145.2740 C   0  0  0  0  0  1  0  0  0  0  0  0
  194.2920  172.1670  145.6870 C   0  0  0  0  0  2  0  0  0  0  0  0
  1 13  1  0  0  0  0
  2  5  2  0  0  0  0
  4  6  1  0  0  0  0
  5 17  1  0  0  0  0
  5  7  1  0  0  0  0
  6  2  1  0  0  0  0
  6  9  2  0  0  0  0
  7  3  1  6  0  0  0
  8  4  2  0  0  0  0
  8 12  1  0  0  0  0
  9 17  1  0  0  0  0
 10  1  1  0  0  0  0
 11 23  1  0  0  0  0
 12 16  2  0  0  0  0
 13  9  1  0  0  0  0
 14 31  1  6  0  0  0
 15  3  1  1  0  0  0
 15 21  1  0  0  0  0
 15 14  1  0  0  0  0
 16  2  1  0  0  0  0
 16 11  1  0  0  0  0
 17 22  1  0  0  0  0
 18  4  1  0  0  0  0
 18  1  1  0  0  0  0
 19  7  1  0  0  0  0
 19 25  1  1  0  0  0
 20  1  1  0  0  0  0
 21 22  1  6  0  0  0
 21 14  1  0  0  0  0
 23 19  1  0  0  0  0
 24 30  1  0  0  0  0
 25 24  2  0  0  0  0
 25 26  1  0  0  0  0
 26 29  2  0  0  0  0
 29 28  1  0  0  0  0
 29 27  1  0  0  0  0
 30 28  2  0  0  0  0
 31 32  1  0  0  0  0
 33 31  2  0  0  0  0
 35 34  1  1  0  0  0
 35 32  1  0  0  0  0
 35 37  1  0  0  0  0
 36 37  1  0  0  0  0
M  END
>  <MODEL>
5

>  <REMARK>
 VINA RESULT:      -7.9      2.580      5.827
  Name = 
  4 active torsions:
  status: ('A' for Active; 'I' for Inactive)
    1  A    between atoms: C_4  and  N_12
    2  A    between atoms: C_4  and  C_37
    3  A    between atoms: C_8  and  C_18
    4  A    between atoms: C_23  and  C_30
                            x       y       z     vdW  Elec       q    Type
                         _______ _______ _______ _____ _____    ______ ____

>  <TORSDO>
F 4

$$$$
=
 OpenBabel11112417193D

 37 43  0  0  1  0  0  0  0  0999 V2000
  194.6090  173.9280  145.1200 C   0  0  0  0  0  0  0  0  0  0  0  0
  190.9040  175.8180  144.7170 C   0  0  0  0  0  0  0  0  0  0  0  0
  188.6300  174.4810  141.9280 C   0  0  0  0  0  2  0  0  0  0  0  0
  192.8980  175.5590  146.0810 C   0  0  0  0  0  0  0  0  0  0  0  0
  190.5660  175.4260  143.4080 C   0  0  0  0  0  0  0  0  0  0  0  0
  192.1770  175.3700  144.9200 C   0  0  0  0  0  0  0  0  0  0  0  0
  189.2510  175.7170  142.6450 C   0  0  2  0  0  3  0  0  0  0  0  0
  192.2850  176.2860  147.1110 C   0  0  0  0  0  3  0  0  0  0  0  0
  192.6160  174.7380  143.8130 C   0  0  0  0  0  0  0  0  0  0  0  0
  194.0520  172.6230  145.6650 C   0  0  0  0  0  1  0  0  0  0  0  0
  188.8920  177.1230  145.6050 C   0  0  0  0  0  2  0  0  0  0  0  0
  190.9710  176.7780  146.9350 C   0  0  0  0  0  3  0  0  0  0  0  0
  194.0120  174.1910  143.7120 C   0  0  0  0  0  2  0  0  0  0  0  0
  189.7840  172.9990  140.3050 C   0  0  1  0  0  3  0  0  0  0  0  0
  189.6410  173.4710  141.6850 N   0  0  1  0  0  0  0  0  0  0  0  0
  190.2670  176.5640  145.7280 C   0  0  0  0  0  0  0  0  0  0  0  0
  191.6630  174.7750  142.8610 N   0  0  0  0  0  0  0  0  0  0  0  0
  194.3240  175.0710  146.1350 C   0  0  0  0  0  2  0  0  0  0  0  0
  188.1380  176.4980  143.3650 C   0  0  1  0  0  3  0  0  0  0  0  0
  196.1080  173.7770  144.9810 C   0  0  0  0  0  1  0  0  0  0  0  0
  190.5430  174.1740  140.7590 C   0  0  1  0  0  3  0  0  0  0  0  0
  191.8490  174.1740  141.5230 C   0  0  0  0  0  2  0  0  0  0  0  0
  188.6400  177.6480  144.2120 C   0  0  0  0  0  2  0  0  0  0  0  0
  187.4200  177.0740  141.0380 C   0  0  0  0  0  3  0  0  0  0  0  0
  187.1060  177.0030  142.4000 C   0  0  0  0  0  0  0  0  0  0  0  0
  185.8330  177.4010  142.8390 C   0  0  0  0  0  3  0  0  0  0  0  0
  183.5430  178.2910  142.3930 C   0  0  0  0  0  1  0  0  0  0  0  0
  185.2080  177.9390  140.5640 C   0  0  0  0  0  3  0  0  0  0  0  0
  184.8880  177.8690  141.9220 C   0  0  0  0  0  0  0  0  0  0  0  0
  186.4730  177.5410  140.1210 C   0  0  0  0  0  3  0  0  0  0  0  0
  190.6270  171.7630  140.2660 C   0  0  0  0  0  0  0  0  0  0  0  0
  190.9910  171.1140  141.4870 N   0  0  0  0  0  2  0  0  0  0  0  0
  191.0360  171.3180  139.1590 O   0  0  0  0  0  0  0  0  0  0  0  0
  190.8150  168.6760  141.6390 C   0  0  0  0  0  1  0  0  0  0  0  0
  191.7500  169.8700  141.5220 C   0  0  2  0  0  3  0  0  0  0  0  0
  193.8820  170.8900  142.4300 C   0  0  0  0  0  1  0  0  0  0  0  0
  192.7600  169.8900  142.6660 C   0  0  0  0  0  2  0  0  0  0  0  0
  1 10  1  0  0  0  0
  1 18  1  0  0  0  0
  2  6  1  0  0  0  0
  2 16  1  0  0  0  0
  4 18  1  0  0  0  0
  4  8  2  0  0  0  0
  5  2  2  0  0  0  0
  6  4  1  0  0  0  0
  7  3  1  1  0  0  0
  7 19  1  0  0  0  0
  7  5  1  0  0  0  0
  9  6  2  0  0  0  0
 11 16  1  0  0  0  0
 12  8  1  0  0  0  0
 13  9  1  0  0  0  0
 13  1  1  0  0  0  0
 14 31  1  1  0  0  0
 14 21  1  0  0  0  0
 14 15  1  0  0  0  0
 15  3  1  6  0  0  0
 16 12  2  0  0  0  0
 17  5  1  0  0  0  0
 17  9  1  0  0  0  0
 19 25  1  6  0  0  0
 19 23  1  0  0  0  0
 20  1  1  0  0  0  0
 21 22  1  1  0  0  0
 21 15  1  0  0  0  0
 22 17  1  0  0  0  0
 23 11  1  0  0  0  0
 24 25  1  0  0  0  0
 25 26  2  0  0  0  0
 28 29  2  0  0  0  0
 29 27  1  0  0  0  0
 29 26  1  0  0  0  0
 30 28  1  0  0  0  0
 30 24  2  0  0  0  0
 31 32  1  0  0  0  0
 32 35  1  0  0  0  0
 33 31  2  0  0  0  0
 35 34  1  1  0  0  0
 35 37  1  0  0  0  0
 36 37  1  0  0  0  0
M  END
>  <MODEL>
6

>  <REMARK>
 VINA RESULT:      -7.8      1.852      2.627
  Name = 
  4 active torsions:
  status: ('A' for Active; 'I' for Inactive)
    1  A    between atoms: C_4  and  N_12
    2  A    between atoms: C_4  and  C_37
    3  A    between atoms: C_8  and  C_18
    4  A    between atoms: C_23  and  C_30
                            x       y       z     vdW  Elec       q    Type
                         _______ _______ _______ _____ _____    ______ ____

>  <TORSDO>
F 4

$$$$
=
 OpenBabel11112417193D

 37 43  0  0  1  0  0  0  0  0999 V2000
  187.3810  176.8410  142.7370 C   0  0  0  0  0  0  0  0  0  0  0  0
  190.8660  175.7140  144.7460 C   0  0  0  0  0  0  0  0  0  0  0  0
  193.3410  173.5670  142.7440 C   0  0  0  0  0  2  0  0  0  0  0  0
  188.8790  177.1120  144.7840 C   0  0  0  0  0  0  0  0  0  0  0  0
  191.2770  174.6340  143.9440 C   0  0  0  0  0  0  0  0  0  0  0  0
  189.6460  176.0880  144.2660 C   0  0  0  0  0  0  0  0  0  0  0  0
  192.5710  173.7940  144.0800 C   0  0  2  0  0  3  0  0  0  0  0  0
  189.3840  177.7960  145.8980 C   0  0  0  0  0  3  0  0  0  0  0  0
  189.3050  175.2950  143.2290 C   0  0  0  0  0  0  0  0  0  0  0  0
  188.0620  177.8150  141.7900 C   0  0  0  0  0  1  0  0  0  0  0  0
  192.7030  176.0320  146.4980 C   0  0  0  0  0  2  0  0  0  0  0  0
  190.6410  177.4300  146.4350 C   0  0  0  0  0  3  0  0  0  0  0  0
  187.9790  175.4240  142.5330 C   0  0  0  0  0  2  0  0  0  0  0  0
  192.3940  172.6160  140.6550 C   0  0  1  0  0  3  0  0  0  0  0  0
  192.4520  173.7270  141.6100 N   0  0  1  0  0  0  0  0  0  0  0  0
  191.3940  176.3730  145.8740 C   0  0  0  0  0  0  0  0  0  0  0  0
  190.2720  174.3790  143.0220 N   0  0  0  0  0  0  0  0  0  0  0  0
  187.5140  177.3650  144.1950 C   0  0  0  0  0  2  0  0  0  0  0  0
  193.5750  174.1610  145.1860 C   0  0  1  0  0  3  0  0  0  0  0  0
  185.9110  176.7920  142.3820 C   0  0  0  0  0  1  0  0  0  0  0  0
  191.5010  172.6230  141.8240 C   0  0  1  0  0  3  0  0  0  0  0  0
  190.1850  173.3560  141.9590 C   0  0  0  0  0  2  0  0  0  0  0  0
  192.9310  174.5390  146.5040 C   0  0  0  0  0  2  0  0  0  0  0  0
  195.9310  173.3770  145.4920 C   0  0  0  0  0  3  0  0  0  0  0  0
  194.5700  173.0620  145.4160 C   0  0  0  0  0  0  0  0  0  0  0  0
  194.1580  171.7270  145.5600 C   0  0  0  0  0  3  0  0  0  0  0  0
  194.6610  169.3090  145.9230 C   0  0  0  0  0  1  0  0  0  0  0  0
  196.4610  171.0400  145.8460 C   0  0  0  0  0  3  0  0  0  0  0  0
  195.1020  170.7200  145.7730 C   0  0  0  0  0  0  0  0  0  0  0  0
  196.8760  172.3670  145.7060 C   0  0  0  0  0  3  0  0  0  0  0  0
  191.6910  173.0440  139.4050 C   0  0  0  0  0  0  0  0  0  0  0  0
  190.7120  172.1870  138.8130 N   0  0  0  0  0  2  0  0  0  0  0  0
  191.9870  174.1440  138.8660 O   0  0  0  0  0  0  0  0  0  0  0  0
  188.6280  173.2200  138.0480 C   0  0  0  0  0  1  0  0  0  0  0  0
  189.9390  172.5680  137.6380 C   0  0  2  0  0  3  0  0  0  0  0  0
  189.6920  170.0510  137.5240 C   0  0  0  0  0  1  0  0  0  0  0  0
  189.6920  171.3570  136.7440 C   0  0  0  0  0  2  0  0  0  0  0  0
  1 18  1  0  0  0  0
  2 16  1  0  0  0  0
  4  8  2  0  0  0  0
  5  7  1  0  0  0  0
  5  2  2  0  0  0  0
  6  2  1  0  0  0  0
  6  4  1  0  0  0  0
  7  3  1  6  0  0  0
  7 19  1  0  0  0  0
  8 12  1  0  0  0  0
  9  6  2  0  0  0  0
 10  1  1  0  0  0  0
 11 23  1  0  0  0  0
 13  1  1  0  0  0  0
 13  9  1  0  0  0  0
 14 31  1  6  0  0  0
 14 15  1  0  0  0  0
 14 21  1  0  0  0  0
 15 21  1  0  0  0  0
 15  3  1  1  0  0  0
 16 12  2  0  0  0  0
 16 11  1  0  0  0  0
 17  9  1  0  0  0  0
 17  5  1  0  0  0  0
 18  4  1  0  0  0  0
 19 25  1  1  0  0  0
 19 23  1  0  0  0  0
 20  1  1  0  0  0  0
 21 22  1  6  0  0  0
 22 17  1  0  0  0  0
 24 30  1  0  0  0  0
 25 24  2  0  0  0  0
 25 26  1  0  0  0  0
 26 29  2  0  0  0  0
 29 28  1  0  0  0  0
 29 27  1  0  0  0  0
 30 28  2  0  0  0  0
 32 31  1  0  0  0  0
 33 31  2  0  0  0  0
 35 34  1  1  0  0  0
 35 32  1  0  0  0  0
 37 36  1  0  0  0  0
 37 35  1  0  0  0  0
M  END
>  <MODEL>
7

>  <REMARK>
 VINA RESULT:      -7.7      2.333      6.683
  Name = 
  4 active torsions:
  status: ('A' for Active; 'I' for Inactive)
    1  A    between atoms: C_4  and  N_12
    2  A    between atoms: C_4  and  C_37
    3  A    between atoms: C_8  and  C_18
    4  A    between atoms: C_23  and  C_30
                            x       y       z     vdW  Elec       q    Type
                         _______ _______ _______ _____ _____    ______ ____

>  <TORSDO>
F 4

$$$$
=
 OpenBabel11112417193D

 37 43  0  0  1  0  0  0  0  0999 V2000
  192.8750  170.7250  143.4430 C   0  0  0  0  0  0  0  0  0  0  0  0
  190.0400  173.2230  141.6600 C   0  0  0  0  0  0  0  0  0  0  0  0
  189.3810  176.5590  143.4430 C   0  0  0  0  0  2  0  0  0  0  0  0
  191.3960  171.2210  141.4240 C   0  0  0  0  0  0  0  0  0  0  0  0
  189.7320  174.0640  142.7460 C   0  0  0  0  0  0  0  0  0  0  0  0
  190.8670  172.2610  142.1600 C   0  0  0  0  0  0  0  0  0  0  0  0
  188.7910  175.2930  142.7510 C   0  0  2  0  0  3  0  0  0  0  0  0
  191.0330  171.1370  140.0730 C   0  0  0  0  0  3  0  0  0  0  0  0
  191.0680  172.4770  143.4770 C   0  0  0  0  0  0  0  0  0  0  0  0
  194.0750  171.5920  143.1010 C   0  0  0  0  0  1  0  0  0  0  0  0
  188.7270  174.1370  139.6640 C   0  0  0  0  0  2  0  0  0  0  0  0
  190.1670  172.1080  139.5180 C   0  0  0  0  0  3  0  0  0  0  0  0
  191.8870  171.5400  144.3200 C   0  0  0  0  0  2  0  0  0  0  0  0
  190.2960  176.6720  145.7480 C   0  0  1  0  0  3  0  0  0  0  0  0
  190.4320  176.1890  144.3710 N   0  0  1  0  0  0  0  0  0  0  0  0
  189.6460  173.1580  140.3090 C   0  0  0  0  0  0  0  0  0  0  0  0
  190.3680  173.5590  143.8710 N   0  0  0  0  0  0  0  0  0  0  0  0
  192.2380  170.1880  142.1300 C   0  0  0  0  0  2  0  0  0  0  0  0
  188.1110  175.7070  141.4350 C   0  0  1  0  0  3  0  0  0  0  0  0
  193.3650  169.5440  144.2520 C   0  0  0  0  0  1  0  0  0  0  0  0
  189.6860  175.3910  145.3580 C   0  0  1  0  0  3  0  0  0  0  0  0
  190.3730  174.0470  145.2660 C   0  0  0  0  0  2  0  0  0  0  0  0
  187.6160  174.5420  140.6030 C   0  0  0  0  0  2  0  0  0  0  0  0
  186.4750  177.4080  140.6020 C   0  0  0  0  0  3  0  0  0  0  0  0
  186.9790  176.6630  141.6750 C   0  0  0  0  0  0  0  0  0  0  0  0
  186.4180  176.8190  142.9520 C   0  0  0  0  0  3  0  0  0  0  0  0
  184.7750  177.8780  144.5050 C   0  0  0  0  0  1  0  0  0  0  0  0
  184.8660  178.4580  142.0780 C   0  0  0  0  0  3  0  0  0  0  0  0
  185.3640  177.7150  143.1510 C   0  0  0  0  0  0  0  0  0  0  0  0
  185.4210  178.3050  140.8030 C   0  0  0  0  0  3  0  0  0  0  0  0
  191.5810  176.4810  146.4920 C   0  0  0  0  0  0  0  0  0  0  0  0
  192.8230  176.5170  145.7830 N   0  0  0  0  0  2  0  0  0  0  0  0
  191.5600  176.2610  147.7330 O   0  0  0  0  0  0  0  0  0  0  0  0
  194.9330  177.6720  146.2370 C   0  0  0  0  0  1  0  0  0  0  0  0
  194.1140  176.4090  146.4510 C   0  0  2  0  0  3  0  0  0  0  0  0
  193.9390  174.0100  145.6580 C   0  0  0  0  0  1  0  0  0  0  0  0
  194.8690  175.1770  145.9610 C   0  0  0  0  0  2  0  0  0  0  0  0
  1 20  1  0  0  0  0
  1 13  1  0  0  0  0
  2  6  1  0  0  0  0
  2  5  2  0  0  0  0
  4 18  1  0  0  0  0
  4  6  1  0  0  0  0
  5  7  1  0  0  0  0
  5 17  1  0  0  0  0
  6  9  2  0  0  0  0
  7  3  1  6  0  0  0
  8  4  2  0  0  0  0
  9 17  1  0  0  0  0
  9 13  1  0  0  0  0
 10  1  1  0  0  0  0
 11 16  1  0  0  0  0
 11 23  1  0  0  0  0
 12  8  1  0  0  0  0
 12 16  2  0  0  0  0
 14 31  1  1  0  0  0
 15  3  1  6  0  0  0
 15 21  1  0  0  0  0
 15 14  1  0  0  0  0
 16  2  1  0  0  0  0
 17 22  1  0  0  0  0
 18  1  1  0  0  0  0
 19 25  1  1  0  0  0
 19  7  1  0  0  0  0
 21 22  1  1  0  0  0
 21 14  1  0  0  0  0
 23 19  1  0  0  0  0
 24 30  2  0  0  0  0
 24 25  1  0  0  0  0
 25 26  2  0  0  0  0
 26 29  1  0  0  0  0
 28 29  2  0  0  0  0
 29 27  1  0  0  0  0
 30 28  1  0  0  0  0
 31 33  2  0  0  0  0
 32 35  1  0  0  0  0
 32 31  1  0  0  0  0
 35 34  1  6  0  0  0
 36 37  1  0  0  0  0
 37 35  1  0  0  0  0
M  END
>  <MODEL>
8

>  <REMARK>
 VINA RESULT:      -7.2      2.523      5.781
  Name = 
  4 active torsions:
  status: ('A' for Active; 'I' for Inactive)
    1  A    between atoms: C_4  and  N_12
    2  A    between atoms: C_4  and  C_37
    3  A    between atoms: C_8  and  C_18
    4  A    between atoms: C_23  and  C_30
                            x       y       z     vdW  Elec       q    Type
                         _______ _______ _______ _____ _____    ______ ____

>  <TORSDO>
F 4

$$$$
=
 OpenBabel11112417193D

 37 43  0  0  1  0  0  0  0  0999 V2000
  187.0010  176.9940  141.5080 C   0  0  0  0  0  0  0  0  0  0  0  0
  190.2720  174.5500  142.3930 C   0  0  0  0  0  0  0  0  0  0  0  0
  191.7600  174.9410  145.9110 C   0  0  0  0  0  2  0  0  0  0  0  0
  188.4780  175.0280  140.8270 C   0  0  0  0  0  0  0  0  0  0  0  0
  190.8090  175.2420  143.4940 C   0  0  0  0  0  0  0  0  0  0  0  0
  189.2620  175.3350  141.9190 C   0  0  0  0  0  0  0  0  0  0  0  0
  192.0110  174.8260  144.3770 C   0  0  2  0  0  3  0  0  0  0  0  0
  188.7600  173.8370  140.1430 C   0  0  0  0  0  3  0  0  0  0  0  0
  189.1670  176.4520  142.6690 C   0  0  0  0  0  0  0  0  0  0  0  0
  186.0250  176.2760  142.4250 C   0  0  0  0  0  1  0  0  0  0  0  0
  191.6860  172.4340  142.1310 C   0  0  0  0  0  2  0  0  0  0  0  0
  189.8080  173.0020  140.5950 C   0  0  0  0  0  3  0  0  0  0  0  0
  188.1840  177.5430  142.3490 C   0  0  0  0  0  2  0  0  0  0  0  0
  190.9840  176.9670  147.1180 C   0  0  1  0  0  3  0  0  0  0  0  0
  190.6870  175.8770  146.1830 N   0  0  1  0  0  0  0  0  0  0  0  0
  190.5890  173.3540  141.7190 C   0  0  0  0  0  0  0  0  0  0  0  0
  190.1160  176.4360  143.6280 N   0  0  0  0  0  0  0  0  0  0  0  0
  187.4450  176.0290  140.3730 C   0  0  0  0  0  2  0  0  0  0  0  0
  192.7190  173.4930  144.0790 C   0  0  1  0  0  3  0  0  0  0  0  0
  186.2800  178.1670  140.8820 C   0  0  0  0  0  1  0  0  0  0  0  0
  191.2620  177.1370  145.6840 C   0  0  1  0  0  3  0  0  0  0  0  0
  190.2770  177.5320  144.6060 C   0  0  0  0  0  2  0  0  0  0  0  0
  192.8960  173.2050  142.6020 C   0  0  0  0  0  2  0  0  0  0  0  0
  194.7450  174.5900  145.0540 C   0  0  0  0  0  3  0  0  0  0  0  0
  194.0500  173.4090  144.7650 C   0  0  0  0  0  0  0  0  0  0  0  0
  194.6070  172.1710  145.1240 C   0  0  0  0  0  3  0  0  0  0  0  0
  196.4340  170.8060  146.1390 C   0  0  0  0  0  1  0  0  0  0  0  0
  196.5390  173.3000  146.0470 C   0  0  0  0  0  3  0  0  0  0  0  0
  195.8490  172.1180  145.7630 C   0  0  0  0  0  0  0  0  0  0  0  0
  195.9880  174.5350  145.6940 C   0  0  0  0  0  3  0  0  0  0  0  0
  189.7190  177.6510  147.5320 C   0  0  0  0  0  0  0  0  0  0  0  0
  188.4770  177.2680  146.9350 N   0  0  0  0  0  2  0  0  0  0  0  0
  189.7590  178.5810  148.3830 O   0  0  0  0  0  0  0  0  0  0  0  0
  186.3250  176.7880  148.0010 C   0  0  0  0  0  1  0  0  0  0  0  0
  187.1990  177.8420  147.3390 C   0  0  2  0  0  3  0  0  0  0  0  0
  184.9960  178.6320  146.3740 C   0  0  0  0  0  1  0  0  0  0  0  0
  186.4910  178.4680  146.1410 C   0  0  0  0  0  2  0  0  0  0  0  0
  1 13  1  0  0  0  0
  1 10  1  0  0  0  0
  2  5  2  0  0  0  0
  4  6  1  0  0  0  0
  5 17  1  0  0  0  0
  5  7  1  0  0  0  0
  6  2  1  0  0  0  0
  6  9  2  0  0  0  0
  7  3  1  1  0  0  0
  8 12  1  0  0  0  0
  8  4  2  0  0  0  0
  9 17  1  0  0  0  0
 11 23  1  0  0  0  0
 12 16  2  0  0  0  0
 13  9  1  0  0  0  0
 14 31  1  6  0  0  0
 15  3  1  1  0  0  0
 15 14  1  0  0  0  0
 16 11  1  0  0  0  0
 16  2  1  0  0  0  0
 17 22  1  0  0  0  0
 18  4  1  0  0  0  0
 18  1  1  0  0  0  0
 19  7  1  0  0  0  0
 19 25  1  1  0  0  0
 20  1  1  0  0  0  0
 21 22  1  6  0  0  0
 21 15  1  0  0  0  0
 21 14  1  0  0  0  0
 23 19  1  0  0  0  0
 24 30  1  0  0  0  0
 25 24  2  0  0  0  0
 25 26  1  0  0  0  0
 26 29  2  0  0  0  0
 29 28  1  0  0  0  0
 29 27  1  0  0  0  0
 30 28  2  0  0  0  0
 31 33  2  0  0  0  0
 32 35  1  0  0  0  0
 32 31  1  0  0  0  0
 35 34  1  6  0  0  0
 37 36  1  0  0  0  0
 37 35  1  0  0  0  0
M  END
>  <MODEL>
9

>  <REMARK>
 VINA RESULT:      -7.2      2.738      8.200
  Name = 
  4 active torsions:
  status: ('A' for Active; 'I' for Inactive)
    1  A    between atoms: C_4  and  N_12
    2  A    between atoms: C_4  and  C_37
    3  A    between atoms: C_8  and  C_18
    4  A    between atoms: C_23  and  C_30
                            x       y       z     vdW  Elec       q    Type
                         _______ _______ _______ _____ _____    ______ ____

>  <TORSDO>
F 4

$$$$
