=
 OpenBabel11112417543D

 34 41  0  0  1  0  0  0  0  0999 V2000
  189.5210  175.5240  142.5050 C   0  0  0  0  0  0  0  0  0  0  0  0
  191.6650  174.1580  142.4520 C   0  0  0  0  0  2  0  0  0  0  0  0
  184.9790  179.0950  145.7240 C   0  0  1  0  0  3  0  0  0  0  0  0
  187.3130  176.4600  142.8730 C   0  0  0  0  0  0  0  0  0  0  0  0
  186.7070  177.2120  145.0990 C   0  0  0  0  0  0  0  0  0  0  0  0
  184.9990  176.8770  147.0310 C   0  0  0  0  0  1  0  0  0  0  0  0
  186.1480  179.1100  146.7030 C   0  0  0  0  0  2  0  0  0  0  0  0
  184.8590  178.9780  143.1850 C   0  0  0  0  0  2  0  0  0  0  0  0
  191.3010  175.7150  144.2700 C   0  0  1  0  0  3  0  0  0  0  0  0
  193.1080  176.4600  146.4560 C   0  0  0  0  0  2  0  0  0  0  0  0
  187.9290  176.8180  145.5520 N   0  0  0  0  0  0  0  0  0  0  0  0
  185.0090  177.4530  143.2490 C   0  0  0  0  0  2  0  0  0  0  0  0
  190.1830  175.7800  145.3240 C   0  0  2  0  0  3  0  0  0  0  0  0
  192.8270  174.0320  143.4260 C   0  0  0  0  0  2  0  0  0  0  0  0
  186.3670  177.0290  143.7420 C   0  0  0  0  0  0  0  0  0  0  0  0
  185.4340  179.7110  144.4030 C   0  0  0  0  0  2  0  0  0  0  0  0
  193.5340  175.3800  145.4480 C   0  0  2  0  0  3  0  0  0  0  0  0
  188.5800  176.0950  143.3710 C   0  0  0  0  0  0  0  0  0  0  0  0
  185.7210  177.8030  146.0740 C   0  0  2  0  0  0  0  0  0  0  0  0
  188.8780  176.2860  144.7350 C   0  0  0  0  0  0  0  0  0  0  0  0
  187.9830  175.6360  140.6990 C   0  0  0  0  0  3  0  0  0  0  0  0
  191.8440  176.1020  147.2320 C   0  0  0  0  0  2  0  0  0  0  0  0
  187.0210  176.2250  141.5230 C   0  0  0  0  0  3  0  0  0  0  0  0
  190.6160  176.6500  146.5110 C   0  0  0  0  0  2  0  0  0  0  0  0
  192.3670  174.7240  144.7030 C   0  0  1  0  0  3  0  0  0  0  0  0
  189.2020  175.2990  141.2010 N   0  0  0  0  0  0  0  0  0  0  0  0
  190.8170  175.1930  143.0070 N   0  0  0  0  0  0  0  0  0  0  0  0
  194.2800  174.3980  146.1040 O   0  0  0  0  0  0  0  0  0  0  0  0
  195.6030  174.8560  146.0570 C   0  0  0  0  0  2  0  0  0  0  0  0
  196.3530  172.1080  144.3050 O   0  0  0  0  0  0  0  0  0  0  0  0
  197.6790  173.9170  145.0440 C   0  0  0  0  0  2  0  0  0  0  0  0
  196.5900  173.6940  146.0520 C   0  0  2  0  0  3  0  0  0  0  0  0
  197.6330  172.6700  144.1960 C   0  0  0  0  0  2  0  0  0  0  0  0
  195.9250  172.4070  145.6070 C   0  0  0  0  0  2  0  0  0  0  0  0
  1 27  1  0  0  0  0
  1 18  1  0  0  0  0
  2 27  1  0  0  0  0
  2 14  1  0  0  0  0
  3 16  1  6  0  0  0
  3 19  1  0  0  0  0
  3  7  1  0  0  0  0
  4 18  2  0  0  0  0
  4 15  1  0  0  0  0
  5 11  1  0  0  0  0
  5 19  1  0  0  0  0
  8 12  1  0  0  0  0
  8 16  1  0  0  0  0
  9 27  1  6  0  0  0
  9 25  1  0  0  0  0
  9 13  1  0  0  0  0
 10 22  1  0  0  0  0
 12 15  1  0  0  0  0
 13 24  1  1  0  0  0
 15  5  2  0  0  0  0
 17 28  1  1  0  0  0
 17 10  1  0  0  0  0
 18 20  1  0  0  0  0
 19  7  1  0  0  0  0
 19  6  1  1  0  0  0
 20 13  1  0  0  0  0
 20 11  2  0  0  0  0
 21 26  1  0  0  0  0
 21 23  2  0  0  0  0
 23  4  1  0  0  0  0
 24 22  1  0  0  0  0
 25 14  1  6  0  0  0
 25 17  1  0  0  0  0
 26  1  2  0  0  0  0
 29 28  1  0  0  0  0
 30 34  1  0  0  0  0
 31 32  1  0  0  0  0
 32 29  1  6  0  0  0
 33 30  1  0  0  0  0
 33 31  1  0  0  0  0
 34 32  1  0  0  0  0
M  END
>  <MODEL>
1

>  <REMARK>
 VINA RESULT:      -8.9      0.000      0.000
  Name = 
  3 active torsions:
  status: ('A' for Active; 'I' for Inactive)
    1  A    between atoms: C_17  and  O_28
    2  A    between atoms: O_28  and  C_29
    3  A    between atoms: C_29  and  C_32
                            x       y       z     vdW  Elec       q    Type
                         _______ _______ _______ _____ _____    ______ ____

>  <TORSDO>
F 3

$$$$
=
 OpenBabel11112417543D

 34 41  0  0  1  0  0  0  0  0999 V2000
  190.4120  175.1150  145.0410 C   0  0  0  0  0  0  0  0  0  0  0  0
  192.2350  173.9630  143.6940 C   0  0  0  0  0  2  0  0  0  0  0  0
  184.6410  178.3190  145.4650 C   0  0  1  0  0  3  0  0  0  0  0  0
  188.8020  176.6250  146.0480 C   0  0  0  0  0  0  0  0  0  0  0  0
  187.0280  177.5460  144.6730 C   0  0  0  0  0  0  0  0  0  0  0  0
  185.9830  179.7670  143.8120 C   0  0  0  0  0  1  0  0  0  0  0  0
  184.5550  177.6910  144.0780 C   0  0  0  0  0  2  0  0  0  0  0  0
  185.7920  177.5950  147.6170 C   0  0  0  0  0  2  0  0  0  0  0  0
  190.0200  174.1770  142.7420 C   0  0  1  0  0  3  0  0  0  0  0  0
  188.9830  173.1090  140.2150 C   0  0  0  0  0  2  0  0  0  0  0  0
  187.5320  176.8810  143.5970 N   0  0  0  0  0  0  0  0  0  0  0  0
  187.1110  178.1900  147.1110 C   0  0  0  0  0  2  0  0  0  0  0  0
  189.1820  175.4280  142.4250 C   0  0  2  0  0  3  0  0  0  0  0  0
  192.2700  173.4030  142.2800 C   0  0  0  0  0  2  0  0  0  0  0  0
  187.6640  177.4420  145.9280 C   0  0  0  0  0  0  0  0  0  0  0  0
  184.8150  177.2090  146.5000 C   0  0  0  0  0  2  0  0  0  0  0  0
  190.4620  172.9050  140.5800 C   0  0  2  0  0  3  0  0  0  0  0  0
  189.2750  175.9250  144.9210 C   0  0  0  0  0  0  0  0  0  0  0  0
  185.8140  178.4220  144.4880 C   0  0  2  0  0  0  0  0  0  0  0  0
  188.6170  176.0630  143.6830 C   0  0  0  0  0  0  0  0  0  0  0  0
  190.6340  175.7020  147.3310 C   0  0  0  0  0  3  0  0  0  0  0  0
  188.5830  174.5770  140.0970 C   0  0  0  0  0  2  0  0  0  0  0  0
  189.4930  176.5060  147.2610 C   0  0  0  0  0  3  0  0  0  0  0  0
  188.0600  175.0850  141.4380 C   0  0  0  0  0  2  0  0  0  0  0  0
  190.9960  173.9050  141.6110 C   0  0  1  0  0  3  0  0  0  0  0  0
  191.0680  175.0300  146.2310 N   0  0  0  0  0  0  0  0  0  0  0  0
  190.8630  174.3770  143.9050 N   0  0  0  0  0  0  0  0  0  0  0  0
  191.2410  172.9690  139.4220 O   0  0  0  0  0  0  0  0  0  0  0  0
  190.7640  171.9340  138.6080 C   0  0  0  0  0  2  0  0  0  0  0  0
  189.0550  173.8010  136.4210 O   0  0  0  0  0  0  0  0  0  0  0  0
  191.3520  173.7120  136.9610 C   0  0  0  0  0  2  0  0  0  0  0  0
  190.7780  172.3370  137.1370 C   0  0  2  0  0  3  0  0  0  0  0  0
  190.2800  174.4450  136.1940 C   0  0  0  0  0  2  0  0  0  0  0  0
  189.3720  172.4430  136.5810 C   0  0  0  0  0  2  0  0  0  0  0  0
  1 26  1  0  0  0  0
  2 27  1  0  0  0  0
  3  7  1  6  0  0  0
  3 16  1  0  0  0  0
  4 23  2  0  0  0  0
  5 15  2  0  0  0  0
  7 19  1  0  0  0  0
  9 27  1  1  0  0  0
 10 17  1  0  0  0  0
 11 20  2  0  0  0  0
 11  5  1  0  0  0  0
 12  8  1  0  0  0  0
 13 24  1  6  0  0  0
 13  9  1  0  0  0  0
 13 20  1  0  0  0  0
 14  2  1  0  0  0  0
 15  4  1  0  0  0  0
 15 12  1  0  0  0  0
 16  8  1  0  0  0  0
 17 28  1  6  0  0  0
 17 25  1  0  0  0  0
 18  1  2  0  0  0  0
 18  4  1  0  0  0  0
 19  6  1  6  0  0  0
 19  5  1  0  0  0  0
 19  3  1  0  0  0  0
 20 18  1  0  0  0  0
 22 10  1  0  0  0  0
 22 24  1  0  0  0  0
 23 21  1  0  0  0  0
 25 14  1  1  0  0  0
 25  9  1  0  0  0  0
 26 21  2  0  0  0  0
 27  1  1  0  0  0  0
 29 28  1  0  0  0  0
 30 34  1  0  0  0  0
 31 32  1  0  0  0  0
 32 29  1  1  0  0  0
 33 30  1  0  0  0  0
 33 31  1  0  0  0  0
 34 32  1  0  0  0  0
M  END
>  <MODEL>
2

>  <REMARK>
 VINA RESULT:      -8.3      3.254      5.961
  Name = 
  3 active torsions:
  status: ('A' for Active; 'I' for Inactive)
    1  A    between atoms: C_17  and  O_28
    2  A    between atoms: O_28  and  C_29
    3  A    between atoms: C_29  and  C_32
                            x       y       z     vdW  Elec       q    Type
                         _______ _______ _______ _____ _____    ______ ____

>  <TORSDO>
F 3

$$$$
=
 OpenBabel11112417543D

 34 41  0  0  1  0  0  0  0  0999 V2000
  192.3290  176.3730  145.5540 C   0  0  0  0  0  0  0  0  0  0  0  0
  190.1950  176.7120  146.8940 C   0  0  0  0  0  2  0  0  0  0  0  0
  195.5090  174.5860  140.0370 C   0  0  1  0  0  3  0  0  0  0  0  0
  194.2190  175.5580  144.2690 C   0  0  0  0  0  0  0  0  0  0  0  0
  193.8310  174.6270  142.0620 C   0  0  0  0  0  0  0  0  0  0  0  0
  194.1270  172.4910  140.6080 C   0  0  0  0  0  1  0  0  0  0  0  0
  194.0840  174.7840  139.5330 C   0  0  0  0  0  2  0  0  0  0  0  0
  196.8420  175.6790  141.9100 C   0  0  0  0  0  2  0  0  0  0  0  0
  190.0750  176.6510  144.4770 C   0  0  1  0  0  3  0  0  0  0  0  0
  187.7650  177.1060  142.7290 C   0  0  0  0  0  2  0  0  0  0  0  0
  192.4960  174.8390  142.2200 N   0  0  0  0  0  0  0  0  0  0  0  0
  196.2010  174.7230  142.9220 C   0  0  0  0  0  2  0  0  0  0  0  0
  190.4660  175.5440  143.4820 C   0  0  2  0  0  3  0  0  0  0  0  0
  188.7320  176.8150  146.4880 C   0  0  0  0  0  2  0  0  0  0  0  0
  194.7260  174.9730  143.0960 C   0  0  0  0  0  0  0  0  0  0  0  0
  196.0040  175.8970  140.6440 C   0  0  0  0  0  2  0  0  0  0  0  0
  187.5820  177.1240  144.2540 C   0  0  2  0  0  3  0  0  0  0  0  0
  192.8340  175.7940  144.3830 C   0  0  0  0  0  0  0  0  0  0  0  0
  194.3230  173.9820  140.7920 C   0  0  2  0  0  0  0  0  0  0  0  0
  191.9720  175.4250  143.3320 C   0  0  0  0  0  0  0  0  0  0  0  0
  194.5060  176.4530  146.4980 C   0  0  0  0  0  3  0  0  0  0  0  0
  188.2770  175.7720  142.1940 C   0  0  0  0  0  2  0  0  0  0  0  0
  195.0560  175.8950  145.3410 C   0  0  0  0  0  3  0  0  0  0  0  0
  189.8020  175.7880  142.1220 C   0  0  0  0  0  2  0  0  0  0  0  0
  188.6840  176.3890  145.0260 C   0  0  1  0  0  3  0  0  0  0  0  0
  193.1680  176.6780  146.5830 N   0  0  0  0  0  0  0  0  0  0  0  0
  190.9300  176.6460  145.6470 N   0  0  0  0  0  0  0  0  0  0  0  0
  186.3390  176.5780  144.5810 O   0  0  0  0  0  0  0  0  0  0  0  0
  185.4060  177.5570  144.2180 C   0  0  0  0  0  2  0  0  0  0  0  0
  185.6490  177.6170  147.5530 O   0  0  0  0  0  0  0  0  0  0  0  0
  185.4040  179.3420  145.9600 C   0  0  0  0  0  2  0  0  0  0  0  0
  184.6960  178.1250  145.4430 C   0  0  2  0  0  3  0  0  0  0  0  0
  185.6560  179.0120  147.4100 C   0  0  0  0  0  2  0  0  0  0  0  0
  184.7310  177.1500  146.6020 C   0  0  0  0  0  2  0  0  0  0  0  0
  1 27  1  0  0  0  0
  1 26  1  0  0  0  0
  3  7  1  6  0  0  0
  3 16  1  0  0  0  0
  3 19  1  0  0  0  0
  4 18  1  0  0  0  0
  4 23  2  0  0  0  0
  5 11  1  0  0  0  0
  5 15  2  0  0  0  0
  7 19  1  0  0  0  0
  8 12  1  0  0  0  0
  9 25  1  0  0  0  0
  9 27  1  1  0  0  0
 10 17  1  0  0  0  0
 11 20  2  0  0  0  0
 12 15  1  0  0  0  0
 13 24  1  6  0  0  0
 13  9  1  0  0  0  0
 14  2  1  0  0  0  0
 15  4  1  0  0  0  0
 16  8  1  0  0  0  0
 17 28  1  6  0  0  0
 17 25  1  0  0  0  0
 18  1  2  0  0  0  0
 19  6  1  6  0  0  0
 19  5  1  0  0  0  0
 20 13  1  0  0  0  0
 20 18  1  0  0  0  0
 21 26  2  0  0  0  0
 22 10  1  0  0  0  0
 23 21  1  0  0  0  0
 24 22  1  0  0  0  0
 25 14  1  1  0  0  0
 27  2  1  0  0  0  0
 29 28  1  0  0  0  0
 31 33  1  0  0  0  0
 32 29  1  6  0  0  0
 32 31  1  0  0  0  0
 32 34  1  0  0  0  0
 33 30  1  0  0  0  0
 34 30  1  0  0  0  0
M  END
>  <MODEL>
3

>  <REMARK>
 VINA RESULT:      -8.2      3.066      8.955
  Name = 
  3 active torsions:
  status: ('A' for Active; 'I' for Inactive)
    1  A    between atoms: C_17  and  O_28
    2  A    between atoms: O_28  and  C_29
    3  A    between atoms: C_29  and  C_32
                            x       y       z     vdW  Elec       q    Type
                         _______ _______ _______ _____ _____    ______ ____

>  <TORSDO>
F 3

$$$$
=
 OpenBabel11112417543D

 34 41  0  0  1  0  0  0  0  0999 V2000
  190.7390  174.1560  141.4330 C   0  0  0  0  0  0  0  0  0  0  0  0
  188.3880  175.0280  141.0090 C   0  0  0  0  0  2  0  0  0  0  0  0
  196.5740  174.4390  144.5330 C   0  0  1  0  0  3  0  0  0  0  0  0
  193.1250  173.7870  141.6700 C   0  0  0  0  0  0  0  0  0  0  0  0
  194.3720  175.1220  143.2670 C   0  0  0  0  0  0  0  0  0  0  0  0
  196.3530  176.7900  143.5080 C   0  0  0  0  0  1  0  0  0  0  0  0
  195.6910  175.2900  145.4390 C   0  0  0  0  0  2  0  0  0  0  0  0
  196.0870  172.4390  143.0370 C   0  0  0  0  0  2  0  0  0  0  0  0
  189.4940  175.5770  143.0910 C   0  0  1  0  0  3  0  0  0  0  0  0
  188.4430  177.0210  145.4180 C   0  0  0  0  0  2  0  0  0  0  0  0
  193.2280  175.7880  143.5850 N   0  0  0  0  0  0  0  0  0  0  0  0
  195.6170  173.3850  141.9260 C   0  0  0  0  0  2  0  0  0  0  0  0
  190.8070  176.3330  143.3590 C   0  0  2  0  0  3  0  0  0  0  0  0
  187.4780  175.9560  141.8000 C   0  0  0  0  0  2  0  0  0  0  0  0
  194.3470  174.1080  142.2860 C   0  0  0  0  0  0  0  0  0  0  0  0
  195.9830  173.0340  144.4460 C   0  0  0  0  0  2  0  0  0  0  0  0
  187.5690  176.8540  144.1650 C   0  0  2  0  0  3  0  0  0  0  0  0
  191.9550  174.4740  142.0510 C   0  0  0  0  0  0  0  0  0  0  0  0
  195.6600  175.5160  143.9440 C   0  0  2  0  0  0  0  0  0  0  0  0
  192.0240  175.4870  143.0280 C   0  0  0  0  0  0  0  0  0  0  0  0
  191.8120  172.5390  140.0660 C   0  0  0  0  0  3  0  0  0  0  0  0
  189.7370  177.7880  145.1590 C   0  0  0  0  0  2  0  0  0  0  0  0
  193.0430  172.8100  140.6690 C   0  0  0  0  0  3  0  0  0  0  0  0
  190.8610  176.8150  144.8140 C   0  0  0  0  0  2  0  0  0  0  0  0
  188.3590  176.5650  142.8840 C   0  0  1  0  0  3  0  0  0  0  0  0
  190.6950  173.2100  140.4550 N   0  0  0  0  0  0  0  0  0  0  0  0
  189.5500  174.8280  141.8510 N   0  0  0  0  0  0  0  0  0  0  0  0
  186.7900  177.9990  143.9840 O   0  0  0  0  0  0  0  0  0  0  0  0
  185.4660  177.5610  144.1140 C   0  0  0  0  0  2  0  0  0  0  0  0
  185.7690  177.6490  147.4430 O   0  0  0  0  0  0  0  0  0  0  0  0
  185.5660  179.3640  145.8340 C   0  0  0  0  0  2  0  0  0  0  0  0
  184.8000  178.1710  145.3430 C   0  0  2  0  0  3  0  0  0  0  0  0
  185.8300  179.0410  147.2830 C   0  0  0  0  0  2  0  0  0  0  0  0
  184.8160  177.2090  146.5130 C   0  0  0  0  0  2  0  0  0  0  0  0
  1 27  1  0  0  0  0
  1 18  1  0  0  0  0
  2 14  1  0  0  0  0
  2 27  1  0  0  0  0
  3 16  1  6  0  0  0
  3  7  1  0  0  0  0
  4 18  2  0  0  0  0
  4 15  1  0  0  0  0
  5 11  1  0  0  0  0
  5 19  1  0  0  0  0
  8 16  1  0  0  0  0
  9 27  1  6  0  0  0
  9 13  1  0  0  0  0
 12 15  1  0  0  0  0
 12  8  1  0  0  0  0
 13 24  1  1  0  0  0
 15  5  2  0  0  0  0
 17 28  1  6  0  0  0
 17 10  1  0  0  0  0
 18 20  1  0  0  0  0
 19  6  1  6  0  0  0
 19  3  1  0  0  0  0
 19  7  1  0  0  0  0
 20 13  1  0  0  0  0
 20 11  2  0  0  0  0
 21 26  1  0  0  0  0
 21 23  2  0  0  0  0
 22 10  1  0  0  0  0
 23  4  1  0  0  0  0
 24 22  1  0  0  0  0
 25 14  1  6  0  0  0
 25  9  1  0  0  0  0
 25 17  1  0  0  0  0
 26  1  2  0  0  0  0
 28 29  1  0  0  0  0
 31 33  1  0  0  0  0
 32 29  1  6  0  0  0
 32 31  1  0  0  0  0
 32 34  1  0  0  0  0
 33 30  1  0  0  0  0
 34 30  1  0  0  0  0
M  END
>  <MODEL>
4

>  <REMARK>
 VINA RESULT:      -8.1      2.884      8.531
  Name = 
  3 active torsions:
  status: ('A' for Active; 'I' for Inactive)
    1  A    between atoms: C_17  and  O_28
    2  A    between atoms: O_28  and  C_29
    3  A    between atoms: C_29  and  C_32
                            x       y       z     vdW  Elec       q    Type
                         _______ _______ _______ _____ _____    ______ ____

>  <TORSDO>
F 3

$$$$
=
 OpenBabel11112417543D

 34 41  0  0  1  0  0  0  0  0999 V2000
  192.1630  175.9740  145.3800 C   0  0  0  0  0  0  0  0  0  0  0  0
  190.0550  177.3670  145.6660 C   0  0  0  0  0  2  0  0  0  0  0  0
  195.3240  170.5930  143.1880 C   0  0  1  0  0  3  0  0  0  0  0  0
  193.9170  174.2980  145.3840 C   0  0  0  0  0  0  0  0  0  0  0  0
  193.5240  172.1770  144.2720 C   0  0  0  0  0  0  0  0  0  0  0  0
  193.4410  169.6040  144.6390 C   0  0  0  0  0  1  0  0  0  0  0  0
  194.0370  170.5620  142.3700 C   0  0  0  0  0  2  0  0  0  0  0  0
  196.6990  172.5000  144.1640 C   0  0  0  0  0  2  0  0  0  0  0  0
  190.1460  175.7100  143.9040 C   0  0  1  0  0  3  0  0  0  0  0  0
  188.1770  175.1310  141.8080 C   0  0  0  0  0  2  0  0  0  0  0  0
  192.2680  172.5910  143.9520 N   0  0  0  0  0  0  0  0  0  0  0  0
  195.7610  172.5560  145.3750 C   0  0  0  0  0  2  0  0  0  0  0  0
  190.3550  174.1870  143.9700 C   0  0  2  0  0  3  0  0  0  0  0  0
  188.7010  177.3360  144.9730 C   0  0  0  0  0  2  0  0  0  0  0  0
  194.3780  173.0230  145.0110 C   0  0  0  0  0  0  0  0  0  0  0  0
  196.0560  171.9040  142.9060 C   0  0  0  0  0  2  0  0  0  0  0  0
  187.8650  176.1910  142.8760 C   0  0  2  0  0  3  0  0  0  0  0  0
  192.6230  174.7050  145.0040 C   0  0  0  0  0  0  0  0  0  0  0  0
  193.9650  170.7950  143.8630 C   0  0  2  0  0  0  0  0  0  0  0  0
  191.7970  173.8270  144.2740 C   0  0  0  0  0  0  0  0  0  0  0  0
  194.2020  176.4190  146.5120 C   0  0  0  0  0  3  0  0  0  0  0  0
  188.4080  173.7370  142.3850 C   0  0  0  0  0  2  0  0  0  0  0  0
  194.7080  175.1700  146.1430 C   0  0  0  0  0  3  0  0  0  0  0  0
  189.8930  173.5260  142.6650 C   0  0  0  0  0  2  0  0  0  0  0  0
  188.6880  176.0470  144.1610 C   0  0  1  0  0  3  0  0  0  0  0  0
  192.9520  176.7930  146.1280 N   0  0  0  0  0  0  0  0  0  0  0  0
  190.8650  176.3960  144.9590 N   0  0  0  0  0  0  0  0  0  0  0  0
  186.5040  176.1530  143.1860 O   0  0  0  0  0  0  0  0  0  0  0  0
  185.9340  177.1940  142.4420 C   0  0  0  0  0  2  0  0  0  0  0  0
  185.5920  178.2860  145.5850 O   0  0  0  0  0  0  0  0  0  0  0  0
  185.5660  179.4160  143.5130 C   0  0  0  0  0  2  0  0  0  0  0  0
  185.0020  178.0420  143.3020 C   0  0  2  0  0  3  0  0  0  0  0  0
  185.5740  179.5660  145.0140 C   0  0  0  0  0  2  0  0  0  0  0  0
  184.8700  177.4720  144.6990 C   0  0  0  0  0  2  0  0  0  0  0  0
  1 26  1  0  0  0  0
  3  7  1  6  0  0  0
  3 19  1  0  0  0  0
  4 23  2  0  0  0  0
  5 15  2  0  0  0  0
  7 19  1  0  0  0  0
  8 12  1  0  0  0  0
  9 13  1  0  0  0  0
  9 25  1  0  0  0  0
  9 27  1  1  0  0  0
 10 22  1  0  0  0  0
 10 17  1  0  0  0  0
 11  5  1  0  0  0  0
 11 20  2  0  0  0  0
 13 24  1  6  0  0  0
 13 20  1  0  0  0  0
 14  2  1  0  0  0  0
 15 12  1  0  0  0  0
 15  4  1  0  0  0  0
 16  3  1  0  0  0  0
 16  8  1  0  0  0  0
 17 28  1  1  0  0  0
 17 25  1  0  0  0  0
 18  1  2  0  0  0  0
 18  4  1  0  0  0  0
 19  5  1  0  0  0  0
 19  6  1  1  0  0  0
 20 18  1  0  0  0  0
 22 24  1  0  0  0  0
 23 21  1  0  0  0  0
 25 14  1  6  0  0  0
 26 21  2  0  0  0  0
 27  1  1  0  0  0  0
 27  2  1  0  0  0  0
 29 28  1  0  0  0  0
 31 33  1  0  0  0  0
 32 29  1  6  0  0  0
 32 31  1  0  0  0  0
 32 34  1  0  0  0  0
 33 30  1  0  0  0  0
 34 30  1  0  0  0  0
M  END
>  <MODEL>
5

>  <REMARK>
 VINA RESULT:      -8.0      2.905      9.147
  Name = 
  3 active torsions:
  status: ('A' for Active; 'I' for Inactive)
    1  A    between atoms: C_17  and  O_28
    2  A    between atoms: O_28  and  C_29
    3  A    between atoms: C_29  and  C_32
                            x       y       z     vdW  Elec       q    Type
                         _______ _______ _______ _____ _____    ______ ____

>  <TORSDO>
F 3

$$$$
=
 OpenBabel11112417543D

 34 41  0  0  1  0  0  0  0  0999 V2000
  192.2520  175.9590  145.5990 C   0  0  0  0  0  0  0  0  0  0  0  0
  190.1840  176.8410  146.7860 C   0  0  0  0  0  2  0  0  0  0  0  0
  195.1510  172.5160  140.7530 C   0  0  1  0  0  3  0  0  0  0  0  0
  194.0310  174.6580  144.5840 C   0  0  0  0  0  0  0  0  0  0  0  0
  193.5170  173.2400  142.6830 C   0  0  0  0  0  0  0  0  0  0  0  0
  193.5750  170.7860  141.8250 C   0  0  0  0  0  1  0  0  0  0  0  0
  193.7440  172.7220  140.2000 C   0  0  0  0  0  2  0  0  0  0  0  0
  196.6150  173.9110  142.2990 C   0  0  0  0  0  2  0  0  0  0  0  0
  190.0200  176.1790  144.4630 C   0  0  1  0  0  3  0  0  0  0  0  0
  187.7400  176.4030  142.6330 C   0  0  0  0  0  2  0  0  0  0  0  0
  192.2120  173.6180  142.7680 N   0  0  0  0  0  0  0  0  0  0  0  0
  195.8980  173.3130  143.5150 C   0  0  0  0  0  2  0  0  0  0  0  0
  190.2830  174.8220  143.7880 C   0  0  2  0  0  3  0  0  0  0  0  0
  188.7320  176.9840  146.3520 C   0  0  0  0  0  2  0  0  0  0  0  0
  194.4590  173.7460  143.6040 C   0  0  0  0  0  0  0  0  0  0  0  0
  195.7840  173.8820  141.0110 C   0  0  0  0  0  2  0  0  0  0  0  0
  187.5840  176.8280  144.1020 C   0  0  2  0  0  3  0  0  0  0  0  0
  192.6780  175.0530  144.6190 C   0  0  0  0  0  0  0  0  0  0  0  0
  193.9230  172.2460  141.6250 C   0  0  2  0  0  0  0  0  0  0  0  0
  191.7670  174.5180  143.6880 C   0  0  0  0  0  0  0  0  0  0  0  0
  194.4410  176.0580  146.5140 C   0  0  0  0  0  3  0  0  0  0  0  0
  188.1080  174.9330  142.4610 C   0  0  0  0  0  2  0  0  0  0  0  0
  194.9140  175.1720  145.5430 C   0  0  0  0  0  3  0  0  0  0  0  0
  189.6250  174.7770  142.4030 C   0  0  0  0  0  2  0  0  0  0  0  0
  188.6190  176.2070  145.0460 C   0  0  1  0  0  3  0  0  0  0  0  0
  193.1330  176.4300  146.5240 N   0  0  0  0  0  0  0  0  0  0  0  0
  190.8890  176.3860  145.6050 N   0  0  0  0  0  0  0  0  0  0  0  0
  186.2980  176.5100  144.5440 O   0  0  0  0  0  0  0  0  0  0  0  0
  185.5020  177.5940  144.1510 C   0  0  0  0  0  2  0  0  0  0  0  0
  185.6320  177.6650  147.4920 O   0  0  0  0  0  0  0  0  0  0  0  0
  185.5630  179.3890  145.8810 C   0  0  0  0  0  2  0  0  0  0  0  0
  184.7900  178.2190  145.3470 C   0  0  2  0  0  3  0  0  0  0  0  0
  185.7420  179.0540  147.3410 C   0  0  0  0  0  2  0  0  0  0  0  0
  184.7170  177.2540  146.5120 C   0  0  0  0  0  2  0  0  0  0  0  0
  1 27  1  0  0  0  0
  1 26  1  0  0  0  0
  3  7  1  6  0  0  0
  3 16  1  0  0  0  0
  3 19  1  0  0  0  0
  4 18  1  0  0  0  0
  4 23  2  0  0  0  0
  5 11  1  0  0  0  0
  5 15  2  0  0  0  0
  7 19  1  0  0  0  0
  8 12  1  0  0  0  0
  9 25  1  0  0  0  0
  9 27  1  1  0  0  0
 10 17  1  0  0  0  0
 11 20  2  0  0  0  0
 12 15  1  0  0  0  0
 13 24  1  6  0  0  0
 13  9  1  0  0  0  0
 14  2  1  0  0  0  0
 15  4  1  0  0  0  0
 16  8  1  0  0  0  0
 17 28  1  1  0  0  0
 17 25  1  0  0  0  0
 18  1  2  0  0  0  0
 19  6  1  1  0  0  0
 19  5  1  0  0  0  0
 20 13  1  0  0  0  0
 20 18  1  0  0  0  0
 21 26  2  0  0  0  0
 22 10  1  0  0  0  0
 23 21  1  0  0  0  0
 24 22  1  0  0  0  0
 25 14  1  1  0  0  0
 27  2  1  0  0  0  0
 29 28  1  0  0  0  0
 31 33  1  0  0  0  0
 32 29  1  6  0  0  0
 32 31  1  0  0  0  0
 32 34  1  0  0  0  0
 33 30  1  0  0  0  0
 34 30  1  0  0  0  0
M  END
>  <MODEL>
6

>  <REMARK>
 VINA RESULT:      -8.0      2.916      9.003
  Name = 
  3 active torsions:
  status: ('A' for Active; 'I' for Inactive)
    1  A    between atoms: C_17  and  O_28
    2  A    between atoms: O_28  and  C_29
    3  A    between atoms: C_29  and  C_32
                            x       y       z     vdW  Elec       q    Type
                         _______ _______ _______ _____ _____    ______ ____

>  <TORSDO>
F 3

$$$$
=
 OpenBabel11112417543D

 34 41  0  0  1  0  0  0  0  0999 V2000
  189.4790  177.1570  146.4030 C   0  0  0  0  0  0  0  0  0  0  0  0
  187.0810  177.8220  146.9250 C   0  0  0  0  0  2  0  0  0  0  0  0
  194.0620  174.6180  142.3660 C   0  0  1  0  0  3  0  0  0  0  0  0
  191.5710  176.0500  145.8680 C   0  0  0  0  0  0  0  0  0  0  0  0
  191.8250  174.9940  143.6990 C   0  0  0  0  0  0  0  0  0  0  0  0
  192.3180  172.7300  142.5160 C   0  0  0  0  0  1  0  0  0  0  0  0
  192.9220  174.9240  141.4010 C   0  0  0  0  0  2  0  0  0  0  0  0
  194.8220  175.7100  144.5360 C   0  0  0  0  0  2  0  0  0  0  0  0
  187.7650  177.5830  144.6150 C   0  0  1  0  0  3  0  0  0  0  0  0
  186.2430  178.1380  142.1700 C   0  0  0  0  0  2  0  0  0  0  0  0
  190.5510  175.3560  143.3860 N   0  0  0  0  0  0  0  0  0  0  0  0
  193.7670  174.9090  145.3080 C   0  0  0  0  0  2  0  0  0  0  0  0
  188.3220  176.3670  143.8560 C   0  0  2  0  0  3  0  0  0  0  0  0
  185.8620  178.0450  146.0430 C   0  0  0  0  0  2  0  0  0  0  0  0
  192.3620  175.3250  144.9610 C   0  0  0  0  0  0  0  0  0  0  0  0
  194.4870  175.9140  143.0540 C   0  0  0  0  0  2  0  0  0  0  0  0
  185.5670  178.2960  143.5420 C   0  0  2  0  0  3  0  0  0  0  0  0
  190.2680  176.4380  145.4960 C   0  0  0  0  0  0  0  0  0  0  0  0
  192.6270  174.2020  142.6970 C   0  0  2  0  0  0  0  0  0  0  0  0
  189.7650  176.0800  144.2300 C   0  0  0  0  0  0  0  0  0  0  0  0
  191.2110  177.0830  148.0260 C   0  0  0  0  0  3  0  0  0  0  0  0
  186.7330  176.7200  141.8930 C   0  0  0  0  0  2  0  0  0  0  0  0
  192.0390  176.3820  147.1470 C   0  0  0  0  0  3  0  0  0  0  0  0
  188.1840  176.5710  142.3420 C   0  0  0  0  0  2  0  0  0  0  0  0
  186.2490  177.5130  144.6690 C   0  0  1  0  0  3  0  0  0  0  0  0
  189.9600  177.4530  147.6420 N   0  0  0  0  0  0  0  0  0  0  0  0
  188.1750  177.5810  146.0060 N   0  0  0  0  0  0  0  0  0  0  0  0
  184.2290  177.9100  143.4490 O   0  0  0  0  0  0  0  0  0  0  0  0
  183.7390  178.5700  142.3140 C   0  0  0  0  0  2  0  0  0  0  0  0
  180.6840  179.8000  141.7310 O   0  0  0  0  0  0  0  0  0  0  0  0
  182.0360  178.2970  140.5120 C   0  0  0  0  0  2  0  0  0  0  0  0
  182.3260  178.1070  141.9720 C   0  0  2  0  0  3  0  0  0  0  0  0
  180.7710  179.1170  140.5090 C   0  0  0  0  0  2  0  0  0  0  0  0
  181.2840  178.9520  142.6750 C   0  0  0  0  0  2  0  0  0  0  0  0
  1 26  1  0  0  0  0
  3  7  1  6  0  0  0
  3 19  1  0  0  0  0
  3 16  1  0  0  0  0
  4 23  2  0  0  0  0
  5 15  2  0  0  0  0
  7 19  1  0  0  0  0
  8 12  1  0  0  0  0
  9 25  1  0  0  0  0
  9 27  1  1  0  0  0
 10 17  1  0  0  0  0
 11  5  1  0  0  0  0
 11 20  2  0  0  0  0
 13 24  1  6  0  0  0
 13 20  1  0  0  0  0
 13  9  1  0  0  0  0
 14  2  1  0  0  0  0
 15 12  1  0  0  0  0
 15  4  1  0  0  0  0
 16  8  1  0  0  0  0
 17 28  1  6  0  0  0
 17 25  1  0  0  0  0
 18  4  1  0  0  0  0
 18  1  2  0  0  0  0
 19  6  1  6  0  0  0
 19  5  1  0  0  0  0
 20 18  1  0  0  0  0
 22 10  1  0  0  0  0
 22 24  1  0  0  0  0
 23 21  1  0  0  0  0
 25 14  1  1  0  0  0
 26 21  2  0  0  0  0
 27  1  1  0  0  0  0
 27  2  1  0  0  0  0
 29 28  1  0  0  0  0
 30 34  1  0  0  0  0
 31 32  1  0  0  0  0
 32 29  1  6  0  0  0
 32 34  1  0  0  0  0
 33 31  1  0  0  0  0
 33 30  1  0  0  0  0
M  END
>  <MODEL>
7

>  <REMARK>
 VINA RESULT:      -7.9      3.697      9.615
  Name = 
  3 active torsions:
  status: ('A' for Active; 'I' for Inactive)
    1  A    between atoms: C_17  and  O_28
    2  A    between atoms: O_28  and  C_29
    3  A    between atoms: C_29  and  C_32
                            x       y       z     vdW  Elec       q    Type
                         _______ _______ _______ _____ _____    ______ ____

>  <TORSDO>
F 3

$$$$
=
 OpenBabel11112417543D

 34 41  0  0  1  0  0  0  0  0999 V2000
  191.1040  173.1690  142.5730 C   0  0  0  0  0  0  0  0  0  0  0  0
  188.8570  174.3450  142.3970 C   0  0  0  0  0  2  0  0  0  0  0  0
  197.1830  172.5940  145.1160 C   0  0  1  0  0  3  0  0  0  0  0  0
  193.4350  172.4940  142.5730 C   0  0  0  0  0  0  0  0  0  0  0  0
  194.9820  173.5980  144.0820 C   0  0  0  0  0  0  0  0  0  0  0  0
  197.1750  174.9930  144.1820 C   0  0  0  0  0  1  0  0  0  0  0  0
  196.5020  173.5120  146.1240 C   0  0  0  0  0  2  0  0  0  0  0  0
  196.3090  170.7310  143.6170 C   0  0  0  0  0  2  0  0  0  0  0  0
  190.2070  174.6680  144.3800 C   0  0  1  0  0  3  0  0  0  0  0  0
  189.5640  176.1390  146.8350 C   0  0  0  0  0  2  0  0  0  0  0  0
  193.9670  174.3890  144.5260 N   0  0  0  0  0  0  0  0  0  0  0  0
  195.8670  171.7720  142.5820 C   0  0  0  0  0  2  0  0  0  0  0  0
  191.6250  175.2410  144.5440 C   0  0  2  0  0  3  0  0  0  0  0  0
  188.1490  175.3490  143.2950 C   0  0  0  0  0  2  0  0  0  0  0  0
  194.7380  172.6350  143.0800 C   0  0  0  0  0  0  0  0  0  0  0  0
  196.4100  171.2780  145.0460 C   0  0  0  0  0  2  0  0  0  0  0  0
  188.5670  176.1330  145.6660 C   0  0  2  0  0  3  0  0  0  0  0  0
  192.4020  173.3070  143.0820 C   0  0  0  0  0  0  0  0  0  0  0  0
  196.3660  173.7990  144.6450 C   0  0  2  0  0  0  0  0  0  0  0  0
  192.6880  174.2640  144.0760 C   0  0  0  0  0  0  0  0  0  0  0  0
  191.8330  171.4850  141.0660 C   0  0  0  0  0  3  0  0  0  0  0  0
  190.9170  176.7470  146.4760 C   0  0  0  0  0  2  0  0  0  0  0  0
  193.1380  171.5760  141.5570 C   0  0  0  0  0  3  0  0  0  0  0  0
  191.8710  175.6550  146.0000 C   0  0  0  0  0  2  0  0  0  0  0  0
  189.1950  175.7980  144.3080 C   0  0  1  0  0  3  0  0  0  0  0  0
  190.8520  172.2750  141.5770 N   0  0  0  0  0  0  0  0  0  0  0  0
  190.0540  173.9680  143.1200 N   0  0  0  0  0  0  0  0  0  0  0  0
  187.9290  177.3730  145.5910 O   0  0  0  0  0  0  0  0  0  0  0  0
  186.8860  177.3010  146.5230 C   0  0  0  0  0  2  0  0  0  0  0  0
  184.0750  178.9820  145.8440 O   0  0  0  0  0  0  0  0  0  0  0  0
  185.5430  177.7460  144.4690 C   0  0  0  0  0  2  0  0  0  0  0  0
  185.5390  177.1170  145.8310 C   0  0  2  0  0  3  0  0  0  0  0  0
  184.3520  178.6700  144.5050 C   0  0  0  0  0  2  0  0  0  0  0  0
  184.4340  177.8390  146.5740 C   0  0  0  0  0  2  0  0  0  0  0  0
  1 18  1  0  0  0  0
  1 27  1  0  0  0  0
  2 27  1  0  0  0  0
  2 14  1  0  0  0  0
  3 16  1  6  0  0  0
  3  7  1  0  0  0  0
  4 15  2  0  0  0  0
  4 18  1  0  0  0  0
  5 11  2  0  0  0  0
  5 19  1  0  0  0  0
  8 16  1  0  0  0  0
  9 27  1  6  0  0  0
  9 13  1  0  0  0  0
 12 15  1  0  0  0  0
 12  8  1  0  0  0  0
 13 24  1  1  0  0  0
 15  5  1  0  0  0  0
 17 28  1  6  0  0  0
 17 10  1  0  0  0  0
 18 20  2  0  0  0  0
 19  6  1  6  0  0  0
 19  3  1  0  0  0  0
 19  7  1  0  0  0  0
 20 11  1  0  0  0  0
 20 13  1  0  0  0  0
 21 23  2  0  0  0  0
 21 26  1  0  0  0  0
 22 10  1  0  0  0  0
 23  4  1  0  0  0  0
 24 22  1  0  0  0  0
 25 14  1  6  0  0  0
 25  9  1  0  0  0  0
 25 17  1  0  0  0  0
 26  1  2  0  0  0  0
 28 29  1  0  0  0  0
 30 34  1  0  0  0  0
 31 33  1  0  0  0  0
 31 32  1  0  0  0  0
 32 29  1  1  0  0  0
 32 34  1  0  0  0  0
 33 30  1  0  0  0  0
M  END
>  <MODEL>
8

>  <REMARK>
 VINA RESULT:      -7.8      2.830      8.881
  Name = 
  3 active torsions:
  status: ('A' for Active; 'I' for Inactive)
    1  A    between atoms: C_17  and  O_28
    2  A    between atoms: O_28  and  C_29
    3  A    between atoms: C_29  and  C_32
                            x       y       z     vdW  Elec       q    Type
                         _______ _______ _______ _____ _____    ______ ____

>  <TORSDO>
F 3

$$$$
=
 OpenBabel11112417543D

 34 41  0  0  1  0  0  0  0  0999 V2000
  194.5340  174.6170  144.4450 C   0  0  0  0  0  0  0  0  0  0  0  0
  192.8770  176.5390  144.2790 C   0  0  0  0  0  2  0  0  0  0  0  0
  195.9420  168.2090  145.2800 C   0  0  1  0  0  3  0  0  0  0  0  0
  195.9270  172.7340  145.0780 C   0  0  0  0  0  0  0  0  0  0  0  0
  194.8780  170.5990  145.5560 C   0  0  0  0  0  0  0  0  0  0  0  0
  194.5760  168.7770  147.3870 C   0  0  0  0  0  1  0  0  0  0  0  0
  194.4580  168.1660  144.9320 C   0  0  0  0  0  2  0  0  0  0  0  0
  197.8220  169.7920  144.6190 C   0  0  0  0  0  2  0  0  0  0  0  0
  192.1090  174.2790  143.8750 C   0  0  1  0  0  3  0  0  0  0  0  0
  189.4670  173.3520  143.0010 C   0  0  0  0  0  2  0  0  0  0  0  0
  193.6590  171.1590  145.3230 N   0  0  0  0  0  0  0  0  0  0  0  0
  197.3900  170.7640  145.7220 C   0  0  0  0  0  2  0  0  0  0  0  0
  192.1160  173.0400  144.7870 C   0  0  2  0  0  3  0  0  0  0  0  0
  191.3750  176.5830  144.0400 C   0  0  0  0  0  2  0  0  0  0  0  0
  196.0460  171.3840  145.4500 C   0  0  0  0  0  0  0  0  0  0  0  0
  196.7000  168.8680  144.1300 C   0  0  0  0  0  2  0  0  0  0  0  0
  189.7020  174.8480  143.2660 C   0  0  2  0  0  3  0  0  0  0  0  0
  194.6510  173.2700  144.8110 C   0  0  0  0  0  0  0  0  0  0  0  0
  194.9510  169.1510  145.9680 C   0  0  2  0  0  0  0  0  0  0  0  0
  193.5090  172.4550  144.9380 C   0  0  0  0  0  0  0  0  0  0  0  0
  196.8820  174.9130  144.6350 C   0  0  0  0  0  3  0  0  0  0  0  0
  189.6930  172.4750  144.2290 C   0  0  0  0  0  2  0  0  0  0  0  0
  197.0480  173.5710  144.9850 C   0  0  0  0  0  3  0  0  0  0  0  0
  191.1370  171.9830  144.2620 C   0  0  0  0  0  2  0  0  0  0  0  0
  190.8980  175.1420  144.1780 C   0  0  1  0  0  3  0  0  0  0  0  0
  195.6410  175.4060  144.3750 N   0  0  0  0  0  0  0  0  0  0  0  0
  193.2420  175.1440  144.1370 N   0  0  0  0  0  0  0  0  0  0  0  0
  188.5470  175.4110  143.8130 O   0  0  0  0  0  0  0  0  0  0  0  0
  187.8480  175.9370  142.7190 C   0  0  0  0  0  2  0  0  0  0  0  0
  185.4210  177.3300  144.5510 O   0  0  0  0  0  0  0  0  0  0  0  0
  187.7310  177.7890  144.3850 C   0  0  0  0  0  2  0  0  0  0  0  0
  187.2540  177.3030  143.0480 C   0  0  2  0  0  3  0  0  0  0  0  0
  186.4520  178.0870  145.1270 C   0  0  0  0  0  2  0  0  0  0  0  0
  185.7480  177.2300  143.1900 C   0  0  0  0  0  2  0  0  0  0  0  0
  1 18  1  0  0  0  0
  3 16  1  6  0  0  0
  3 19  1  0  0  0  0
  4 15  1  0  0  0  0
  5 19  1  0  0  0  0
  7  3  1  0  0  0  0
  7 19  1  0  0  0  0
  8 12  1  0  0  0  0
  9 27  1  1  0  0  0
  9 25  1  0  0  0  0
  9 13  1  0  0  0  0
 10 17  1  0  0  0  0
 10 22  1  0  0  0  0
 11  5  1  0  0  0  0
 13 24  1  6  0  0  0
 13 20  1  0  0  0  0
 14  2  1  0  0  0  0
 15  5  2  0  0  0  0
 15 12  1  0  0  0  0
 16  8  1  0  0  0  0
 17 28  1  1  0  0  0
 17 25  1  0  0  0  0
 18 20  1  0  0  0  0
 18  4  2  0  0  0  0
 19  6  1  1  0  0  0
 20 11  2  0  0  0  0
 21 23  2  0  0  0  0
 22 24  1  0  0  0  0
 23  4  1  0  0  0  0
 25 14  1  6  0  0  0
 26  1  2  0  0  0  0
 26 21  1  0  0  0  0
 27  2  1  0  0  0  0
 27  1  1  0  0  0  0
 29 28  1  0  0  0  0
 30 33  1  0  0  0  0
 31 33  1  0  0  0  0
 32 29  1  1  0  0  0
 32 34  1  0  0  0  0
 32 31  1  0  0  0  0
 34 30  1  0  0  0  0
M  END
>  <MODEL>
9

>  <REMARK>
 VINA RESULT:      -7.7      3.176      9.625
  Name = 
  3 active torsions:
  status: ('A' for Active; 'I' for Inactive)
    1  A    between atoms: C_17  and  O_28
    2  A    between atoms: O_28  and  C_29
    3  A    between atoms: C_29  and  C_32
                            x       y       z     vdW  Elec       q    Type
                         _______ _______ _______ _____ _____    ______ ____

>  <TORSDO>
F 3

$$$$
