=
 OpenBabel11112416123D

 30 35  0  0  1  0  0  0  0  0999 V2000
  187.5980  176.9420  143.9350 C   0  0  1  0  0  3  0  0  0  0  0  0
  185.7080  177.8650  145.4530 C   0  0  0  0  0  0  0  0  0  0  0  0
  190.1120  176.9330  147.2680 O   0  0  0  0  0  0  0  0  0  0  0  0
  188.6380  175.8520  144.2120 C   0  0  1  0  0  3  0  0  0  0  0  0
  186.5940  176.4120  143.0980 O   0  0  0  0  0  0  0  0  0  0  0  0
  188.6800  174.8150  140.7000 O   0  0  0  0  0  0  0  0  0  0  0  0
  191.5550  174.7360  143.4320 C   0  0  1  0  0  3  0  0  0  0  0  0
  188.3380  175.3870  141.7710 C   0  0  0  0  0  0  0  0  0  0  0  0
  191.7730  174.9630  144.8800 N   0  0  2  0  0  0  0  0  0  0  0  0
  190.7930  175.7630  147.0000 C   0  0  0  0  0  0  0  0  0  0  0  0
  187.1160  176.2630  141.7890 C   0  0  2  0  0  3  0  0  0  0  0  0
  189.1140  175.2250  142.9700 N   0  0  0  0  0  0  0  0  0  0  0  0
  185.2960  178.3470  146.6980 C   0  0  0  0  0  3  0  0  0  0  0  0
  192.3660  173.7260  145.3680 C   0  0  0  0  0  2  0  0  0  0  0  0
  192.6350  173.7740  142.9730 C   0  0  0  0  0  2  0  0  0  0  0  0
  184.6800  177.8310  144.3720 C   0  0  0  0  0  1  0  0  0  0  0  0
  189.4590  177.4230  146.1090 C   0  0  1  0  0  3  0  0  0  0  0  0
  186.2030  178.4760  147.7470 C   0  0  0  0  0  3  0  0  0  0  0  0
  187.0580  177.4690  145.2560 C   0  0  0  0  0  0  0  0  0  0  0  0
  189.8110  176.4240  144.9850 C   0  0  1  0  0  3  0  0  0  0  0  0
  191.4750  175.1610  147.8690 O   0  0  0  0  0  0  0  0  0  0  0  0
  190.5450  175.2550  145.6280 C   0  0  1  0  0  3  0  0  0  0  0  0
  193.1930  173.1540  144.2360 C   0  0  0  0  0  2  0  0  0  0  0  0
  189.7010  172.9430  143.7440 C   0  0  0  0  0  1  0  0  0  0  0  0
  187.5400  178.1390  147.5550 C   0  0  0  0  0  3  0  0  0  0  0  0
  187.9770  177.6350  146.3250 C   0  0  0  0  0  0  0  0  0  0  0  0
  190.1620  174.1930  143.0010 C   0  0  2  0  0  3  0  0  0  0  0  0
  187.3760  177.6050  141.1110 C   0  0  0  0  0  2  0  0  0  0  0  0
  185.3620  178.1910  140.4290 C   0  0  0  0  0  1  0  0  0  0  0  0
  186.5890  177.7170  139.9650 O   0  0  0  0  0  0  0  0  0  0  0  0
  1  5  1  6  0  0  0
  1  4  1  0  0  0  0
  1 19  1  0  0  0  0
  2 13  1  0  0  0  0
  4 12  1  6  0  0  0
  4 20  1  0  0  0  0
  6  8  2  0  0  0  0
  7 15  1  1  0  0  0
  7  9  1  0  0  0  0
  8 11  1  0  0  0  0
  8 12  1  0  0  0  0
  9 14  1  1  0  0  0
  9 22  1  0  0  0  0
 10  3  1  0  0  0  0
 10 21  2  0  0  0  0
 11 28  1  1  0  0  0
 11  5  1  0  0  0  0
 12 27  1  0  0  0  0
 13 18  2  0  0  0  0
 15 23  1  0  0  0  0
 16  2  1  0  0  0  0
 17 26  1  1  0  0  0
 17  3  1  0  0  0  0
 19  2  2  0  0  0  0
 19 26  1  0  0  0  0
 20 22  1  0  0  0  0
 20 17  1  0  0  0  0
 22 10  1  0  0  0  0
 23 14  1  0  0  0  0
 25 18  1  0  0  0  0
 26 25  2  0  0  0  0
 27  7  1  0  0  0  0
 27 24  1  0  0  0  0
 30 29  1  0  0  0  0
 30 28  1  0  0  0  0
M  END
>  <MODEL>
1

>  <REMARK>
 VINA RESULT:      -8.4      0.000      0.000
  Name = 
  2 active torsions:
  status: ('A' for Active; 'I' for Inactive)
    1  A    between atoms: C_11  and  C_28
    2  A    between atoms: C_28  and  O_30
                            x       y       z     vdW  Elec       q    Type
                         _______ _______ _______ _____ _____    ______ ____

>  <TORSDO>
F 2

$$$$
=
 OpenBabel11112416123D

 30 35  0  0  1  0  0  0  0  0999 V2000
  189.4010  175.2350  143.9160 C   0  0  1  0  0  3  0  0  0  0  0  0
  191.6270  174.9110  145.2080 C   0  0  0  0  0  0  0  0  0  0  0  0
  187.7340  176.7960  147.4120 O   0  0  0  0  0  0  0  0  0  0  0  0
  188.4130  176.4060  143.9380 C   0  0  1  0  0  3  0  0  0  0  0  0
  190.1610  175.3020  142.7300 O   0  0  0  0  0  0  0  0  0  0  0  0
  187.5140  175.8820  140.4270 O   0  0  0  0  0  0  0  0  0  0  0  0
  185.3530  177.2780  143.4470 C   0  0  1  0  0  3  0  0  0  0  0  0
  188.1170  175.7890  141.5300 C   0  0  0  0  0  0  0  0  0  0  0  0
  185.4870  177.6910  144.8630 N   0  0  2  0  0  0  0  0  0  0  0  0
  186.9650  177.7880  146.8390 C   0  0  0  0  0  0  0  0  0  0  0  0
  189.3430  174.9250  141.6370 C   0  0  2  0  0  3  0  0  0  0  0  0
  187.6370  176.4860  142.6910 N   0  0  0  0  0  0  0  0  0  0  0  0
  192.3360  174.9690  146.4110 C   0  0  0  0  0  3  0  0  0  0  0  0
  184.9770  179.0540  144.9070 C   0  0  0  0  0  2  0  0  0  0  0  0
  184.1600  178.0280  142.8840 C   0  0  0  0  0  2  0  0  0  0  0  0
  192.3720  174.4250  144.0110 C   0  0  0  0  0  1  0  0  0  0  0  0
  188.1180  175.8260  146.4510 C   0  0  1  0  0  3  0  0  0  0  0  0
  191.7040  175.3470  147.5930 C   0  0  0  0  0  3  0  0  0  0  0  0
  190.2540  175.2750  145.1760 C   0  0  0  0  0  0  0  0  0  0  0  0
  187.4750  176.2850  145.1240 C   0  0  1  0  0  3  0  0  0  0  0  0
  186.4820  178.7400  147.5050 O   0  0  0  0  0  0  0  0  0  0  0  0
  186.8660  177.6600  145.3640 C   0  0  1  0  0  3  0  0  0  0  0  0
  183.8870  179.1530  143.8600 C   0  0  0  0  0  2  0  0  0  0  0  0
  187.1580  178.9150  142.5450 C   0  0  0  0  0  1  0  0  0  0  0  0
  190.3470  175.6580  147.5860 C   0  0  0  0  0  3  0  0  0  0  0  0
  189.6160  175.6300  146.3930 C   0  0  0  0  0  0  0  0  0  0  0  0
  186.5860  177.5010  142.5230 C   0  0  2  0  0  3  0  0  0  0  0  0
  188.9840  173.4410  141.6650 C   0  0  0  0  0  2  0  0  0  0  0  0
  189.8920  171.6390  142.5580 C   0  0  0  0  0  1  0  0  0  0  0  0
  190.1490  172.6730  141.6570 O   0  0  0  0  0  0  0  0  0  0  0  0
  1  5  1  6  0  0  0
  1  4  1  0  0  0  0
  1 19  1  0  0  0  0
  2 13  1  0  0  0  0
  4 12  1  6  0  0  0
  4 20  1  0  0  0  0
  6  8  2  0  0  0  0
  7 15  1  6  0  0  0
  7  9  1  0  0  0  0
  8 11  1  0  0  0  0
  8 12  1  0  0  0  0
  9 14  1  6  0  0  0
  9 22  1  0  0  0  0
 10  3  1  0  0  0  0
 10 21  2  0  0  0  0
 11 28  1  1  0  0  0
 11  5  1  0  0  0  0
 13 18  2  0  0  0  0
 15 23  1  0  0  0  0
 16  2  1  0  0  0  0
 17 26  1  6  0  0  0
 17  3  1  0  0  0  0
 19  2  2  0  0  0  0
 19 26  1  0  0  0  0
 20 22  1  0  0  0  0
 20 17  1  0  0  0  0
 22 10  1  0  0  0  0
 23 14  1  0  0  0  0
 25 18  1  0  0  0  0
 26 25  2  0  0  0  0
 27 24  1  0  0  0  0
 27 12  1  0  0  0  0
 27  7  1  0  0  0  0
 30 28  1  0  0  0  0
 30 29  1  0  0  0  0
M  END
>  <MODEL>
2

>  <REMARK>
 VINA RESULT:      -8.3      1.885      5.663
  Name = 
  2 active torsions:
  status: ('A' for Active; 'I' for Inactive)
    1  A    between atoms: C_11  and  C_28
    2  A    between atoms: C_28  and  O_30
                            x       y       z     vdW  Elec       q    Type
                         _______ _______ _______ _____ _____    ______ ____

>  <TORSDO>
F 2

$$$$
=
 OpenBabel11112416123D

 30 35  0  0  1  0  0  0  0  0999 V2000
  190.7080  175.3700  143.9140 C   0  0  1  0  0  3  0  0  0  0  0  0
  193.2600  175.7120  143.6010 C   0  0  0  0  0  0  0  0  0  0  0  0
  191.0670  177.0510  147.7190 O   0  0  0  0  0  0  0  0  0  0  0  0
  189.6600  176.2990  144.5350 C   0  0  1  0  0  3  0  0  0  0  0  0
  190.5840  175.4170  142.5100 O   0  0  0  0  0  0  0  0  0  0  0  0
  187.0500  175.0850  142.2710 O   0  0  0  0  0  0  0  0  0  0  0  0
  186.7930  176.4340  145.9930 C   0  0  1  0  0  3  0  0  0  0  0  0
  188.1830  175.2850  142.7870 C   0  0  0  0  0  0  0  0  0  0  0  0
  187.6190  177.0700  147.0460 N   0  0  2  0  0  0  0  0  0  0  0  0
  189.8860  177.7650  147.7330 C   0  0  0  0  0  0  0  0  0  0  0  0
  189.4110  174.7200  142.1270 C   0  0  2  0  0  3  0  0  0  0  0  0
  188.3130  176.0300  144.0090 N   0  0  0  0  0  0  0  0  0  0  0  0
  194.4940  176.0930  144.1340 C   0  0  0  0  0  3  0  0  0  0  0  0
  186.9030  178.2890  147.3980 C   0  0  0  0  0  2  0  0  0  0  0  0
  185.3540  176.8260  146.2690 C   0  0  0  0  0  2  0  0  0  0  0  0
  193.2590  175.2190  142.1930 C   0  0  0  0  0  1  0  0  0  0  0  0
  191.0490  176.0510  146.7140 C   0  0  1  0  0  3  0  0  0  0  0  0
  194.6010  176.5030  145.4600 C   0  0  0  0  0  3  0  0  0  0  0  0
  192.0910  175.7730  144.4050 C   0  0  0  0  0  0  0  0  0  0  0  0
  189.6620  176.1640  146.0450 C   0  0  1  0  0  3  0  0  0  0  0  0
  189.6590  178.6840  148.5620 O   0  0  0  0  0  0  0  0  0  0  0  0
  188.9820  177.4020  146.6140 C   0  0  1  0  0  3  0  0  0  0  0  0
  185.4260  178.0020  147.2200 C   0  0  0  0  0  2  0  0  0  0  0  0
  187.2390  178.2580  144.1980 C   0  0  0  0  0  1  0  0  0  0  0  0
  193.4720  176.5200  146.2750 C   0  0  0  0  0  3  0  0  0  0  0  0
  192.2200  176.1640  145.7630 C   0  0  0  0  0  0  0  0  0  0  0  0
  187.1460  176.7680  144.5150 C   0  0  2  0  0  3  0  0  0  0  0  0
  189.5300  173.2150  142.3560 C   0  0  0  0  0  2  0  0  0  0  0  0
  189.2600  172.6790  140.2330 C   0  0  0  0  0  1  0  0  0  0  0  0
  190.1850  172.6230  141.2750 O   0  0  0  0  0  0  0  0  0  0  0  0
  1  5  1  6  0  0  0
  1 19  1  0  0  0  0
  1  4  1  0  0  0  0
  2 13  2  0  0  0  0
  2 19  1  0  0  0  0
  3 10  1  0  0  0  0
  4 12  1  6  0  0  0
  4 20  1  0  0  0  0
  6  8  2  0  0  0  0
  7 15  1  1  0  0  0
  7  9  1  0  0  0  0
  8 12  1  0  0  0  0
  9 14  1  6  0  0  0
 10 21  2  0  0  0  0
 11 28  1  1  0  0  0
 11  5  1  0  0  0  0
 11  8  1  0  0  0  0
 12 27  1  0  0  0  0
 13 18  1  0  0  0  0
 15 23  1  0  0  0  0
 16  2  1  0  0  0  0
 17 26  1  6  0  0  0
 17  3  1  0  0  0  0
 18 25  2  0  0  0  0
 19 26  2  0  0  0  0
 20 22  1  0  0  0  0
 20 17  1  0  0  0  0
 22  9  1  0  0  0  0
 22 10  1  0  0  0  0
 23 14  1  0  0  0  0
 24 27  1  0  0  0  0
 26 25  1  0  0  0  0
 27  7  1  0  0  0  0
 29 30  1  0  0  0  0
 30 28  1  0  0  0  0
M  END
>  <MODEL>
3

>  <REMARK>
 VINA RESULT:      -8.0      2.003      5.604
  Name = 
  2 active torsions:
  status: ('A' for Active; 'I' for Inactive)
    1  A    between atoms: C_11  and  C_28
    2  A    between atoms: C_28  and  O_30
                            x       y       z     vdW  Elec       q    Type
                         _______ _______ _______ _____ _____    ______ ____

>  <TORSDO>
F 2

$$$$
=
 OpenBabel11112416123D

 30 35  0  0  1  0  0  0  0  0999 V2000
  188.2290  176.7860  144.3320 C   0  0  1  0  0  3  0  0  0  0  0  0
  186.6700  178.0260  142.6700 C   0  0  0  0  0  0  0  0  0  0  0  0
  189.6730  174.5410  141.1210 O   0  0  0  0  0  0  0  0  0  0  0  0
  189.6940  176.3660  144.1790 C   0  0  1  0  0  3  0  0  0  0  0  0
  188.1650  177.9260  145.1590 O   0  0  0  0  0  0  0  0  0  0  0  0
  190.3370  176.8300  147.7530 O   0  0  0  0  0  0  0  0  0  0  0  0
  191.9590  174.3000  145.1630 C   0  0  1  0  0  3  0  0  0  0  0  0
  189.7640  176.8620  146.6310 C   0  0  0  0  0  0  0  0  0  0  0  0
  191.9780  173.9930  143.7140 N   0  0  2  0  0  0  0  0  0  0  0  0
  190.9970  174.4790  141.5010 C   0  0  0  0  0  0  0  0  0  0  0  0
  188.4290  177.5410  146.4970 C   0  0  2  0  0  3  0  0  0  0  0  0
  190.3640  176.2420  145.4820 N   0  0  0  0  0  0  0  0  0  0  0  0
  186.1590  178.1600  141.3760 C   0  0  0  0  0  3  0  0  0  0  0  0
  193.3860  174.0360  143.3410 C   0  0  0  0  0  2  0  0  0  0  0  0
  193.2670  173.7910  145.7370 C   0  0  0  0  0  2  0  0  0  0  0  0
  186.1370  178.9590  143.7040 C   0  0  0  0  0  1  0  0  0  0  0  0
  188.8420  174.9000  142.2130 C   0  0  1  0  0  3  0  0  0  0  0  0
  186.5490  177.2900  140.3620 C   0  0  0  0  0  3  0  0  0  0  0  0
  187.6250  177.0130  142.9530 C   0  0  0  0  0  0  0  0  0  0  0  0
  189.7930  175.0570  143.4190 C   0  0  1  0  0  3  0  0  0  0  0  0
  191.9150  174.1480  140.7080 O   0  0  0  0  0  0  0  0  0  0  0  0
  191.2180  174.9420  142.8940 C   0  0  1  0  0  3  0  0  0  0  0  0
  194.1780  173.5740  144.5470 C   0  0  0  0  0  2  0  0  0  0  0  0
  192.7160  176.7710  144.8980 C   0  0  0  0  0  1  0  0  0  0  0  0
  187.4460  176.2620  140.6360 C   0  0  0  0  0  3  0  0  0  0  0  0
  187.9900  176.1150  141.9170 C   0  0  0  0  0  0  0  0  0  0  0  0
  191.7600  175.7890  145.5700 C   0  0  2  0  0  3  0  0  0  0  0  0
  187.3050  176.6930  147.0880 C   0  0  0  0  0  2  0  0  0  0  0  0
  185.1780  176.7910  146.5130 C   0  0  0  0  0  1  0  0  0  0  0  0
  186.1560  177.4700  147.2380 O   0  0  0  0  0  0  0  0  0  0  0  0
  1 19  1  6  0  0  0
  1  5  1  0  0  0  0
  2 19  1  0  0  0  0
  2 16  1  0  0  0  0
  3 10  1  0  0  0  0
  4  1  1  0  0  0  0
  4 12  1  1  0  0  0
  5 11  1  0  0  0  0
  7 27  1  0  0  0  0
  7 15  1  6  0  0  0
  8  6  2  0  0  0  0
  9 14  1  6  0  0  0
  9  7  1  0  0  0  0
 10 22  1  0  0  0  0
 11  8  1  0  0  0  0
 11 28  1  6  0  0  0
 12 27  1  0  0  0  0
 12  8  1  0  0  0  0
 13  2  2  0  0  0  0
 14 23  1  0  0  0  0
 17  3  1  6  0  0  0
 17 20  1  0  0  0  0
 18 25  2  0  0  0  0
 18 13  1  0  0  0  0
 20  4  1  0  0  0  0
 21 10  2  0  0  0  0
 22 20  1  0  0  0  0
 22  9  1  0  0  0  0
 23 15  1  0  0  0  0
 24 27  1  0  0  0  0
 25 26  1  0  0  0  0
 26 17  1  0  0  0  0
 26 19  2  0  0  0  0
 28 30  1  0  0  0  0
 29 30  1  0  0  0  0
M  END
>  <MODEL>
4

>  <REMARK>
 VINA RESULT:      -7.8      1.692      4.671
  Name = 
  2 active torsions:
  status: ('A' for Active; 'I' for Inactive)
    1  A    between atoms: C_11  and  C_28
    2  A    between atoms: C_28  and  O_30
                            x       y       z     vdW  Elec       q    Type
                         _______ _______ _______ _____ _____    ______ ____

>  <TORSDO>
F 2

$$$$
=
 OpenBabel11112416123D

 30 35  0  0  1  0  0  0  0  0999 V2000
  189.2040  174.8940  143.3820 C   0  0  1  0  0  3  0  0  0  0  0  0
  189.6300  172.9060  141.7710 C   0  0  0  0  0  0  0  0  0  0  0  0
  187.0430  176.7510  140.3300 O   0  0  0  0  0  0  0  0  0  0  0  0
  187.9300  175.7130  143.6190 C   0  0  1  0  0  3  0  0  0  0  0  0
  189.3720  173.9930  144.4530 O   0  0  0  0  0  0  0  0  0  0  0  0
  188.7660  176.2380  147.1440 O   0  0  0  0  0  0  0  0  0  0  0  0
  186.7670  178.5460  144.6110 C   0  0  1  0  0  3  0  0  0  0  0  0
  188.7950  175.7920  145.9650 C   0  0  0  0  0  0  0  0  0  0  0  0
  186.2050  178.5310  143.2400 N   0  0  2  0  0  0  0  0  0  0  0  0
  186.0440  177.3060  141.1030 C   0  0  0  0  0  0  0  0  0  0  0  0
  189.7800  174.7140  145.6030 C   0  0  2  0  0  3  0  0  0  0  0  0
  187.9110  176.3130  144.9600 N   0  0  0  0  0  0  0  0  0  0  0  0
  189.5120  172.3470  140.4960 C   0  0  0  0  0  3  0  0  0  0  0  0
  184.7950  178.8570  143.4100 C   0  0  0  0  0  2  0  0  0  0  0  0
  185.9550  179.5500  145.4070 C   0  0  0  0  0  2  0  0  0  0  0  0
  190.3430  172.0910  142.7980 C   0  0  0  0  0  1  0  0  0  0  0  0
  188.1610  176.3860  141.1220 C   0  0  1  0  0  3  0  0  0  0  0  0
  188.9200  173.0620  139.4580 C   0  0  0  0  0  3  0  0  0  0  0  0
  189.1130  174.2030  142.0290 C   0  0  0  0  0  0  0  0  0  0  0  0
  187.7940  176.7950  142.5650 C   0  0  1  0  0  3  0  0  0  0  0  0
  184.9680  177.7350  140.6130 O   0  0  0  0  0  0  0  0  0  0  0  0
  186.3380  177.2400  142.5560 C   0  0  1  0  0  3  0  0  0  0  0  0
  184.6960  179.7870  144.6010 C   0  0  0  0  0  2  0  0  0  0  0  0
  185.4770  176.4420  145.4250 C   0  0  0  0  0  1  0  0  0  0  0  0
  188.4540  174.3550  139.6820 C   0  0  0  0  0  3  0  0  0  0  0  0
  188.5400  174.9320  140.9540 C   0  0  0  0  0  0  0  0  0  0  0  0
  186.8060  177.1910  145.3760 C   0  0  2  0  0  3  0  0  0  0  0  0
  191.1960  175.2680  145.4680 C   0  0  0  0  0  2  0  0  0  0  0  0
  192.8000  176.1620  146.6900 C   0  0  0  0  0  1  0  0  0  0  0  0
  191.8820  175.1130  146.6730 O   0  0  0  0  0  0  0  0  0  0  0  0
  1 19  1  6  0  0  0
  1  4  1  0  0  0  0
  1  5  1  0  0  0  0
  2 19  1  0  0  0  0
  2 16  1  0  0  0  0
  3 10  1  0  0  0  0
  4 12  1  1  0  0  0
  5 11  1  0  0  0  0
  7 27  1  0  0  0  0
  7 15  1  1  0  0  0
  8  6  2  0  0  0  0
  9 14  1  1  0  0  0
  9  7  1  0  0  0  0
 10 22  1  0  0  0  0
 11 28  1  6  0  0  0
 11  8  1  0  0  0  0
 12 27  1  0  0  0  0
 12  8  1  0  0  0  0
 13  2  2  0  0  0  0
 14 23  1  0  0  0  0
 17  3  1  6  0  0  0
 17 20  1  0  0  0  0
 18 25  2  0  0  0  0
 18 13  1  0  0  0  0
 20  4  1  0  0  0  0
 21 10  2  0  0  0  0
 22 20  1  0  0  0  0
 22  9  1  0  0  0  0
 23 15  1  0  0  0  0
 25 26  1  0  0  0  0
 26 17  1  0  0  0  0
 26 19  2  0  0  0  0
 27 24  1  0  0  0  0
 28 30  1  0  0  0  0
 30 29  1  0  0  0  0
M  END
>  <MODEL>
5

>  <REMARK>
 VINA RESULT:      -7.5      1.952      7.095
  Name = 
  2 active torsions:
  status: ('A' for Active; 'I' for Inactive)
    1  A    between atoms: C_11  and  C_28
    2  A    between atoms: C_28  and  O_30
                            x       y       z     vdW  Elec       q    Type
                         _______ _______ _______ _____ _____    ______ ____

>  <TORSDO>
F 2

$$$$
=
 OpenBabel11112416123D

 30 35  0  0  1  0  0  0  0  0999 V2000
  187.2180  176.8230  143.4380 C   0  0  1  0  0  3  0  0  0  0  0  0
  186.0740  177.6630  141.2660 C   0  0  0  0  0  0  0  0  0  0  0  0
  189.6820  174.4210  141.0740 O   0  0  0  0  0  0  0  0  0  0  0  0
  188.7000  176.5730  143.7360 C   0  0  1  0  0  3  0  0  0  0  0  0
  186.8290  178.0340  144.0470 O   0  0  0  0  0  0  0  0  0  0  0  0
  188.2890  177.5190  147.2490 O   0  0  0  0  0  0  0  0  0  0  0  0
  190.7770  174.9290  145.5640 C   0  0  1  0  0  3  0  0  0  0  0  0
  188.0470  177.3510  146.0230 C   0  0  0  0  0  0  0  0  0  0  0  0
  191.2230  174.4630  144.2310 N   0  0  2  0  0  0  0  0  0  0  0  0
  190.8500  174.5680  141.7920 C   0  0  0  0  0  0  0  0  0  0  0  0
  186.7460  177.8400  145.4480 C   0  0  2  0  0  3  0  0  0  0  0  0
  188.9920  176.6820  145.1720 N   0  0  0  0  0  0  0  0  0  0  0  0
  185.9300  177.5850  139.8780 C   0  0  0  0  0  3  0  0  0  0  0  0
  192.6690  174.6360  144.2370 C   0  0  0  0  0  2  0  0  0  0  0  0
  191.9170  174.6540  146.5270 C   0  0  0  0  0  2  0  0  0  0  0  0
  185.1970  178.6350  141.9800 C   0  0  0  0  0  1  0  0  0  0  0  0
  188.5540  174.7980  141.8460 C   0  0  1  0  0  3  0  0  0  0  0  0
  186.6600  176.6590  139.1370 C   0  0  0  0  0  3  0  0  0  0  0  0
  187.0000  176.8150  141.9310 C   0  0  0  0  0  0  0  0  0  0  0  0
  189.1190  175.2080  143.2240 C   0  0  1  0  0  3  0  0  0  0  0  0
  191.9780  174.2630  141.3230 O   0  0  0  0  0  0  0  0  0  0  0  0
  190.6370  175.2110  143.1120 C   0  0  1  0  0  3  0  0  0  0  0  0
  193.1350  174.4170  145.6610 C   0  0  0  0  0  2  0  0  0  0  0  0
  191.3580  177.4280  145.1550 C   0  0  0  0  0  1  0  0  0  0  0  0
  187.5330  175.7870  139.7820 C   0  0  0  0  0  3  0  0  0  0  0  0
  187.7140  175.8560  141.1670 C   0  0  0  0  0  0  0  0  0  0  0  0
  190.3450  176.4190  145.6870 C   0  0  2  0  0  3  0  0  0  0  0  0
  185.5820  176.9330  145.8400 C   0  0  0  0  0  2  0  0  0  0  0  0
  184.1090  178.5690  145.9910 C   0  0  0  0  0  1  0  0  0  0  0  0
  184.7540  177.5930  146.7500 O   0  0  0  0  0  0  0  0  0  0  0  0
  1 19  1  6  0  0  0
  1  4  1  0  0  0  0
  1  5  1  0  0  0  0
  2 19  1  0  0  0  0
  2 16  1  0  0  0  0
  3 10  1  0  0  0  0
  4 12  1  1  0  0  0
  5 11  1  0  0  0  0
  7 27  1  0  0  0  0
  7 15  1  1  0  0  0
  8  6  2  0  0  0  0
  9 14  1  1  0  0  0
  9  7  1  0  0  0  0
 10 22  1  0  0  0  0
 11 28  1  6  0  0  0
 11  8  1  0  0  0  0
 12 27  1  0  0  0  0
 12  8  1  0  0  0  0
 13  2  2  0  0  0  0
 14 23  1  0  0  0  0
 17  3  1  6  0  0  0
 17 20  1  0  0  0  0
 18 25  2  0  0  0  0
 18 13  1  0  0  0  0
 20  4  1  0  0  0  0
 21 10  2  0  0  0  0
 22 20  1  0  0  0  0
 22  9  1  0  0  0  0
 23 15  1  0  0  0  0
 24 27  1  0  0  0  0
 25 26  1  0  0  0  0
 26 17  1  0  0  0  0
 26 19  2  0  0  0  0
 28 30  1  0  0  0  0
 29 30  1  0  0  0  0
M  END
>  <MODEL>
6

>  <REMARK>
 VINA RESULT:      -7.4      1.722      4.770
  Name = 
  2 active torsions:
  status: ('A' for Active; 'I' for Inactive)
    1  A    between atoms: C_11  and  C_28
    2  A    between atoms: C_28  and  O_30
                            x       y       z     vdW  Elec       q    Type
                         _______ _______ _______ _____ _____    ______ ____

>  <TORSDO>
F 2

$$$$
=
 OpenBabel11112416123D

 30 35  0  0  1  0  0  0  0  0999 V2000
  189.9760  176.1810  144.3340 C   0  0  1  0  0  3  0  0  0  0  0  0
  191.4610  176.4630  146.4420 C   0  0  0  0  0  0  0  0  0  0  0  0
  193.2610  174.4960  142.3860 O   0  0  0  0  0  0  0  0  0  0  0  0
  189.8730  175.0090  143.3530 C   0  0  1  0  0  3  0  0  0  0  0  0
  188.8570  176.1570  145.1920 O   0  0  0  0  0  0  0  0  0  0  0  0
  186.3190  175.6540  142.7510 O   0  0  0  0  0  0  0  0  0  0  0  0
  189.0950  174.1500  140.3490 C   0  0  1  0  0  3  0  0  0  0  0  0
  187.4720  175.7090  143.2590 C   0  0  0  0  0  0  0  0  0  0  0  0
  190.5030  173.6890  140.3660 N   0  0  2  0  0  0  0  0  0  0  0  0
  192.5920  173.5240  141.6720 C   0  0  0  0  0  0  0  0  0  0  0  0
  187.7110  176.5710  144.4680 C   0  0  2  0  0  3  0  0  0  0  0  0
  188.5640  174.9720  142.6850 N   0  0  0  0  0  0  0  0  0  0  0  0
  192.7170  176.3640  147.0470 C   0  0  0  0  0  3  0  0  0  0  0  0
  190.4560  172.3240  139.8590 C   0  0  0  0  0  2  0  0  0  0  0  0
  188.4090  173.4190  139.2110 C   0  0  0  0  0  2  0  0  0  0  0  0
  190.3490  176.9910  147.2840 C   0  0  0  0  0  1  0  0  0  0  0  0
  192.3710  175.5000  142.8450 C   0  0  1  0  0  3  0  0  0  0  0  0
  193.8280  175.9440  146.3200 C   0  0  0  0  0  3  0  0  0  0  0  0
  191.3010  176.0980  145.0790 C   0  0  0  0  0  0  0  0  0  0  0  0
  190.9790  175.0870  142.3190 C   0  0  1  0  0  3  0  0  0  0  0  0
  193.1810  172.5490  141.1380 O   0  0  0  0  0  0  0  0  0  0  0  0
  191.1190  173.7030  141.6970 C   0  0  1  0  0  3  0  0  0  0  0  0
  189.3180  172.2600  138.8620 C   0  0  0  0  0  2  0  0  0  0  0  0
  188.2930  172.5480  142.2310 C   0  0  0  0  0  1  0  0  0  0  0  0
  193.6950  175.6310  144.9700 C   0  0  0  0  0  3  0  0  0  0  0  0
  192.4460  175.7010  144.3420 C   0  0  0  0  0  0  0  0  0  0  0  0
  188.2720  173.9620  141.6570 C   0  0  2  0  0  3  0  0  0  0  0  0
  187.7610  178.0520  144.1020 C   0  0  0  0  0  2  0  0  0  0  0  0
  185.9540  179.1210  143.4250 C   0  0  0  0  0  1  0  0  0  0  0  0
  186.6170  178.6950  144.5750 O   0  0  0  0  0  0  0  0  0  0  0  0
  1 19  1  1  0  0  0
  1  5  1  0  0  0  0
  2 13  1  0  0  0  0
  2 16  1  0  0  0  0
  4 12  1  6  0  0  0
  4  1  1  0  0  0  0
  6  8  2  0  0  0  0
  7 15  1  6  0  0  0
  7  9  1  0  0  0  0
  7 27  1  0  0  0  0
  8 11  1  0  0  0  0
  9 14  1  1  0  0  0
  9 22  1  0  0  0  0
 10 22  1  0  0  0  0
 10  3  1  0  0  0  0
 11 28  1  6  0  0  0
 11  5  1  0  0  0  0
 12  8  1  0  0  0  0
 17  3  1  1  0  0  0
 17 26  1  0  0  0  0
 18 13  2  0  0  0  0
 19  2  2  0  0  0  0
 20 17  1  0  0  0  0
 20  4  1  0  0  0  0
 21 10  2  0  0  0  0
 22 20  1  0  0  0  0
 23 15  1  0  0  0  0
 23 14  1  0  0  0  0
 25 18  1  0  0  0  0
 26 25  2  0  0  0  0
 26 19  1  0  0  0  0
 27 24  1  0  0  0  0
 27 12  1  0  0  0  0
 28 30  1  0  0  0  0
 29 30  1  0  0  0  0
M  END
>  <MODEL>
7

>  <REMARK>
 VINA RESULT:      -7.2      2.390      4.928
  Name = 
  2 active torsions:
  status: ('A' for Active; 'I' for Inactive)
    1  A    between atoms: C_11  and  C_28
    2  A    between atoms: C_28  and  O_30
                            x       y       z     vdW  Elec       q    Type
                         _______ _______ _______ _____ _____    ______ ____

>  <TORSDO>
F 2

$$$$
=
 OpenBabel11112416123D

 30 35  0  0  1  0  0  0  0  0999 V2000
  191.8370  175.3100  144.5430 C   0  0  1  0  0  3  0  0  0  0  0  0
  192.8070  173.5910  142.8600 C   0  0  0  0  0  0  0  0  0  0  0  0
  188.5230  175.7200  142.0370 O   0  0  0  0  0  0  0  0  0  0  0  0
  190.4030  175.4860  145.0520 C   0  0  1  0  0  3  0  0  0  0  0  0
  192.6030  174.6790  145.5460 O   0  0  0  0  0  0  0  0  0  0  0  0
  191.5670  176.6420  148.3260 O   0  0  0  0  0  0  0  0  0  0  0  0
  188.2880  177.5700  146.2960 C   0  0  1  0  0  3  0  0  0  0  0  0
  191.5700  176.1530  147.1630 C   0  0  0  0  0  0  0  0  0  0  0  0
  187.5420  177.1830  145.0760 N   0  0  2  0  0  0  0  0  0  0  0  0
  187.5520  175.8320  143.0090 C   0  0  0  0  0  0  0  0  0  0  0  0
  192.8480  175.6060  146.5900 C   0  0  2  0  0  3  0  0  0  0  0  0
  190.3700  176.1300  146.3730 N   0  0  0  0  0  0  0  0  0  0  0  0
  192.7140  172.9280  141.6330 C   0  0  0  0  0  3  0  0  0  0  0  0
  186.2030  176.8540  145.5430 C   0  0  0  0  0  2  0  0  0  0  0  0
  187.2760  178.1690  147.2550 C   0  0  0  0  0  2  0  0  0  0  0  0
  193.9960  173.2780  143.7040 C   0  0  0  0  0  1  0  0  0  0  0  0
  189.8140  175.9680  142.5700 C   0  0  1  0  0  3  0  0  0  0  0  0
  191.6730  173.2060  140.7510 C   0  0  0  0  0  3  0  0  0  0  0  0
  191.8140  174.5350  143.2340 C   0  0  0  0  0  0  0  0  0  0  0  0
  189.5860  176.2940  144.0620 C   0  0  1  0  0  3  0  0  0  0  0  0
  186.3260  175.6870  142.7630 O   0  0  0  0  0  0  0  0  0  0  0  0
  188.1160  176.0340  144.3660 C   0  0  1  0  0  3  0  0  0  0  0  0
  185.9200  177.7430  146.7370 C   0  0  0  0  0  2  0  0  0  0  0  0
  188.2880  175.1930  147.3440 C   0  0  0  0  0  1  0  0  0  0  0  0
  190.7200  174.1650  141.0820 C   0  0  0  0  0  3  0  0  0  0  0  0
  190.7760  174.8300  142.3120 C   0  0  0  0  0  0  0  0  0  0  0  0
  189.0890  176.4510  147.0220 C   0  0  2  0  0  3  0  0  0  0  0  0
  193.7970  176.7230  146.1630 C   0  0  0  0  0  2  0  0  0  0  0  0
  195.3180  176.6950  144.5660 C   0  0  0  0  0  1  0  0  0  0  0  0
  195.0420  176.1850  145.8340 O   0  0  0  0  0  0  0  0  0  0  0  0
  1 19  1  6  0  0  0
  1  4  1  0  0  0  0
  1  5  1  0  0  0  0
  2 19  1  0  0  0  0
  2 16  1  0  0  0  0
  3 10  1  0  0  0  0
  4 12  1  1  0  0  0
  5 11  1  0  0  0  0
  7 27  1  0  0  0  0
  7 15  1  1  0  0  0
  8  6  2  0  0  0  0
  9 14  1  1  0  0  0
  9  7  1  0  0  0  0
 10 22  1  0  0  0  0
 11 28  1  6  0  0  0
 11  8  1  0  0  0  0
 12 27  1  0  0  0  0
 12  8  1  0  0  0  0
 13  2  2  0  0  0  0
 14 23  1  0  0  0  0
 17  3  1  1  0  0  0
 17 20  1  0  0  0  0
 18 25  2  0  0  0  0
 18 13  1  0  0  0  0
 20 22  1  0  0  0  0
 20  4  1  0  0  0  0
 21 10  2  0  0  0  0
 22  9  1  0  0  0  0
 23 15  1  0  0  0  0
 25 26  1  0  0  0  0
 26 17  1  0  0  0  0
 26 19  2  0  0  0  0
 27 24  1  0  0  0  0
 29 30  1  0  0  0  0
 30 28  1  0  0  0  0
M  END
>  <MODEL>
8

>  <REMARK>
 VINA RESULT:      -7.1      1.951      7.072
  Name = 
  2 active torsions:
  status: ('A' for Active; 'I' for Inactive)
    1  A    between atoms: C_11  and  C_28
    2  A    between atoms: C_28  and  O_30
                            x       y       z     vdW  Elec       q    Type
                         _______ _______ _______ _____ _____    ______ ____

>  <TORSDO>
F 2

$$$$
=
 OpenBabel11112416123D

 30 35  0  0  1  0  0  0  0  0999 V2000
  187.3390  176.1930  141.3970 C   0  0  1  0  0  3  0  0  0  0  0  0
  187.4790  175.5380  138.8910 C   0  0  0  0  0  0  0  0  0  0  0  0
  190.0110  173.0960  142.2360 O   0  0  0  0  0  0  0  0  0  0  0  0
  188.4470  176.2880  142.4520 C   0  0  1  0  0  3  0  0  0  0  0  0
  186.9930  177.4960  140.9820 O   0  0  0  0  0  0  0  0  0  0  0  0
  186.7460  179.0310  144.1810 O   0  0  0  0  0  0  0  0  0  0  0  0
  189.0990  176.1710  145.6030 C   0  0  1  0  0  3  0  0  0  0  0  0
  187.0390  178.1730  143.3050 C   0  0  0  0  0  0  0  0  0  0  0  0
  189.9740  175.0680  145.1430 N   0  0  2  0  0  0  0  0  0  0  0  0
  190.7450  173.7280  143.2180 C   0  0  0  0  0  0  0  0  0  0  0  0
  186.2620  178.1300  142.0170 C   0  0  2  0  0  3  0  0  0  0  0  0
  188.0930  177.2230  143.5300 N   0  0  0  0  0  0  0  0  0  0  0  0
  187.9470  174.6690  137.9020 C   0  0  0  0  0  3  0  0  0  0  0  0
  191.2690  175.3380  145.7510 C   0  0  0  0  0  2  0  0  0  0  0  0
  189.6100  176.5960  146.9660 C   0  0  0  0  0  2  0  0  0  0  0  0
  186.6100  176.6630  138.4410 C   0  0  0  0  0  1  0  0  0  0  0  0
  188.7690  173.7470  142.0250 C   0  0  1  0  0  3  0  0  0  0  0  0
  188.7100  173.5530  138.2370 C   0  0  0  0  0  3  0  0  0  0  0  0
  187.8100  175.3070  140.2530 C   0  0  0  0  0  0  0  0  0  0  0  0
  188.7430  174.9180  143.0320 C   0  0  1  0  0  3  0  0  0  0  0  0
  191.8690  173.3090  143.5990 O   0  0  0  0  0  0  0  0  0  0  0  0
  190.1170  174.9880  143.6850 C   0  0  1  0  0  3  0  0  0  0  0  0
  191.0020  176.0130  147.0810 C   0  0  0  0  0  2  0  0  0  0  0  0
  190.3240  178.0270  144.2580 C   0  0  0  0  0  1  0  0  0  0  0  0
  189.0000  173.2860  139.5720 C   0  0  0  0  0  3  0  0  0  0  0  0
  188.5630  174.1500  140.5820 C   0  0  0  0  0  0  0  0  0  0  0  0
  188.9890  177.4200  144.6800 C   0  0  2  0  0  3  0  0  0  0  0  0
  184.8800  177.5130  142.2140 C   0  0  0  0  0  2  0  0  0  0  0  0
  183.6140  178.2820  140.5790 C   0  0  0  0  0  1  0  0  0  0  0  0
  183.8950  178.4610  141.9330 O   0  0  0  0  0  0  0  0  0  0  0  0
  1 19  1  6  0  0  0
  1  4  1  0  0  0  0
  2 19  1  0  0  0  0
  3 10  1  0  0  0  0
  4 20  1  0  0  0  0
  4 12  1  1  0  0  0
  5  1  1  0  0  0  0
  5 11  1  0  0  0  0
  7 15  1  1  0  0  0
  8 12  1  0  0  0  0
  8  6  2  0  0  0  0
  9  7  1  0  0  0  0
  9 14  1  1  0  0  0
 10 21  2  0  0  0  0
 10 22  1  0  0  0  0
 11 28  1  1  0  0  0
 11  8  1  0  0  0  0
 12 27  1  0  0  0  0
 13 18  1  0  0  0  0
 13  2  2  0  0  0  0
 14 23  1  0  0  0  0
 15 23  1  0  0  0  0
 16  2  1  0  0  0  0
 17 26  1  6  0  0  0
 17  3  1  0  0  0  0
 17 20  1  0  0  0  0
 18 25  2  0  0  0  0
 19 26  2  0  0  0  0
 20 22  1  0  0  0  0
 22  9  1  0  0  0  0
 24 27  1  0  0  0  0
 25 26  1  0  0  0  0
 27  7  1  0  0  0  0
 29 30  1  0  0  0  0
 30 28  1  0  0  0  0
M  END
>  <MODEL>
9

>  <REMARK>
 VINA RESULT:      -7.0      2.308      5.186
  Name = 
  2 active torsions:
  status: ('A' for Active; 'I' for Inactive)
    1  A    between atoms: C_11  and  C_28
    2  A    between atoms: C_28  and  O_30
                            x       y       z     vdW  Elec       q    Type
                         _______ _______ _______ _____ _____    ______ ____

>  <TORSDO>
F 2

$$$$
