=
 OpenBabel11112417383D

 28 32  0  0  1  0  0  0  0  0999 V2000
  187.1340  177.2540  144.4440 C   0  0  0  0  0  0  0  0  0  0  0  0
  187.1890  174.2780  142.7400 O   0  0  0  0  0  0  0  0  0  0  0  0
  193.3140  176.6740  145.8930 O   0  0  0  0  0  0  0  0  0  0  0  0
  186.7380  178.8830  142.1980 C   0  0  0  0  0  3  0  0  0  0  0  0
  192.7700  176.3050  143.6370 N   0  0  0  0  0  0  0  0  0  0  0  0
  187.3270  176.4240  145.6740 C   0  0  0  0  0  2  0  0  0  0  0  0
  188.3070  173.7690  140.6080 O   0  0  0  0  0  0  0  0  0  0  0  0
  188.5160  174.0820  142.0630 S   0  0  0  0  0  0  0  0  0  0  0  0
  190.6540  173.0090  143.3940 C   0  0  0  0  0  0  0  0  0  0  0  0
  189.5250  175.5380  142.2110 C   0  0  2  0  0  3  0  0  0  0  0  0
  189.8630  178.0370  147.7760 O   0  0  0  0  0  0  0  0  0  0  0  0
  190.5440  177.1760  143.6560 C   0  0  2  0  0  3  0  0  0  0  0  0
  191.3300  174.1010  143.1830 N   0  0  0  0  0  0  0  0  0  0  0  0
  189.3710  172.7910  142.8130 N   0  0  0  0  0  2  0  0  0  0  0  0
  189.3890  177.2600  146.9070 C   0  0  0  0  0  0  0  0  0  0  0  0
  188.0600  177.2250  143.3840 C   0  0  0  0  0  0  0  0  0  0  0  0
  192.4730  176.7170  144.9560 C   0  0  0  0  0  0  0  0  0  0  0  0
  191.1870  172.0260  144.2730 N   0  0  0  0  0  1  0  0  0  0  0  0
  190.3180  176.3950  146.1170 C   0  0  0  0  0  2  0  0  0  0  0  0
  187.8560  178.0500  142.2670 C   0  0  0  0  0  3  0  0  0  0  0  0
  186.0180  178.0960  144.3690 C   0  0  0  0  0  3  0  0  0  0  0  0
  185.8180  178.9040  143.2480 C   0  0  0  0  0  3  0  0  0  0  0  0
  187.9720  177.2110  146.7140 N   0  0  0  0  0  2  0  0  0  0  0  0
  191.6220  176.5150  142.7730 C   0  0  2  0  0  3  0  0  0  0  0  0
  191.0950  177.2360  145.1050 C   0  0  2  0  0  3  0  0  0  0  0  0
  191.0090  175.2050  142.2590 C   0  0  2  0  0  3  0  0  0  0  0  0
  194.0830  175.8900  143.1710 C   0  0  0  0  0  1  0  0  0  0  0  0
  189.2750  176.3470  143.4700 C   0  0  1  0  0  3  0  0  0  0  0  0
  1  6  1  0  0  0  0
  4 20  2  0  0  0  0
  4 22  1  0  0  0  0
  5 17  1  0  0  0  0
  6 23  1  0  0  0  0
  7  8  2  0  0  0  0
  8  2  2  0  0  0  0
  8 14  1  0  0  0  0
  9 18  1  0  0  0  0
 10  8  1  1  0  0  0
 10 26  1  0  0  0  0
 10 28  1  0  0  0  0
 12 25  1  0  0  0  0
 13  9  2  0  0  0  0
 14  9  1  0  0  0  0
 15 11  2  0  0  0  0
 16 28  1  0  0  0  0
 16  1  2  0  0  0  0
 17 25  1  0  0  0  0
 17  3  2  0  0  0  0
 19 15  1  0  0  0  0
 20 16  1  0  0  0  0
 21  1  1  0  0  0  0
 22 21  2  0  0  0  0
 23 15  1  0  0  0  0
 24  5  1  0  0  0  0
 24 12  1  0  0  0  0
 25 19  1  0  0  0  0
 26 24  1  0  0  0  0
 26 13  1  0  0  0  0
 27  5  1  0  0  0  0
 28 12  1  0  0  0  0
M  END
>  <MODEL>
1

>  <REMARK>
 VINA RESULT:      -7.8      0.000      0.000
  Name = 
  0 active torsions:
  status: ('A' for Active; 'I' for Inactive)
                            x       y       z     vdW  Elec       q    Type
                         _______ _______ _______ _____ _____    ______ ____

>  <TORSDO>
F 0

$$$$
=
 OpenBabel11112417383D

 28 32  0  0  1  0  0  0  0  0999 V2000
  188.6340  175.8920  145.4810 C   0  0  0  0  0  0  0  0  0  0  0  0
  188.8650  173.6460  142.9000 O   0  0  0  0  0  0  0  0  0  0  0  0
  194.9730  175.9490  146.1540 O   0  0  0  0  0  0  0  0  0  0  0  0
  187.7300  178.0450  143.9310 C   0  0  0  0  0  3  0  0  0  0  0  0
  194.1920  176.2100  143.9540 N   0  0  0  0  0  0  0  0  0  0  0  0
  189.0970  174.7660  146.3520 C   0  0  0  0  0  2  0  0  0  0  0  0
  189.7510  174.0210  140.6350 O   0  0  0  0  0  0  0  0  0  0  0  0
  190.1060  173.8970  142.0900 S   0  0  0  0  0  0  0  0  0  0  0  0
  192.5250  172.8440  142.8190 C   0  0  0  0  0  0  0  0  0  0  0  0
  190.9200  175.3840  142.6240 C   0  0  2  0  0  3  0  0  0  0  0  0
  191.6480  176.0540  148.6530 O   0  0  0  0  0  0  0  0  0  0  0  0
  191.8900  176.6420  144.4370 C   0  0  2  0  0  3  0  0  0  0  0  0
  193.0140  174.0450  142.9220 N   0  0  0  0  0  0  0  0  0  0  0  0
  191.2180  172.6030  142.3050 N   0  0  0  0  0  2  0  0  0  0  0  0
  191.1720  175.5160  147.6190 C   0  0  0  0  0  0  0  0  0  0  0  0
  189.4080  176.3500  144.3980 C   0  0  0  0  0  0  0  0  0  0  0  0
  194.0170  176.1360  145.3540 C   0  0  0  0  0  0  0  0  0  0  0  0
  193.2960  171.7420  143.2810 N   0  0  0  0  0  1  0  0  0  0  0  0
  192.0970  175.1100  146.5170 C   0  0  0  0  0  2  0  0  0  0  0  0
  188.9500  177.4340  143.6330 C   0  0  0  0  0  3  0  0  0  0  0  0
  187.4150  176.5130  145.7770 C   0  0  0  0  0  3  0  0  0  0  0  0
  186.9620  177.5830  145.0020 C   0  0  0  0  0  3  0  0  0  0  0  0
  189.7610  175.2900  147.5370 N   0  0  0  0  0  2  0  0  0  0  0  0
  192.9220  176.4810  143.3020 C   0  0  2  0  0  3  0  0  0  0  0  0
  192.6140  176.3420  145.7760 C   0  0  2  0  0  3  0  0  0  0  0  0
  192.4290  175.3100  142.4400 C   0  0  2  0  0  3  0  0  0  0  0  0
  195.4750  176.1900  143.2720 C   0  0  0  0  0  1  0  0  0  0  0  0
  190.7310  175.7090  144.0930 C   0  0  1  0  0  3  0  0  0  0  0  0
  1 21  1  0  0  0  0
  1  6  1  0  0  0  0
  4 22  1  0  0  0  0
  5 17  1  0  0  0  0
  6 23  1  0  0  0  0
  7  8  2  0  0  0  0
  8 14  1  0  0  0  0
  8  2  2  0  0  0  0
  9 13  2  0  0  0  0
  9 18  1  0  0  0  0
 10  8  1  1  0  0  0
 10 28  1  0  0  0  0
 12 25  1  0  0  0  0
 14  9  1  0  0  0  0
 15 11  2  0  0  0  0
 16  1  2  0  0  0  0
 17 25  1  0  0  0  0
 17  3  2  0  0  0  0
 19 15  1  0  0  0  0
 20  4  2  0  0  0  0
 20 16  1  0  0  0  0
 22 21  2  0  0  0  0
 23 15  1  0  0  0  0
 24  5  1  0  0  0  0
 24 12  1  0  0  0  0
 25 19  1  0  0  0  0
 26 10  1  0  0  0  0
 26 13  1  0  0  0  0
 26 24  1  0  0  0  0
 27  5  1  0  0  0  0
 28 16  1  0  0  0  0
 28 12  1  0  0  0  0
M  END
>  <MODEL>
2

>  <REMARK>
 VINA RESULT:      -7.8      1.668      2.006
  Name = 
  0 active torsions:
  status: ('A' for Active; 'I' for Inactive)
                            x       y       z     vdW  Elec       q    Type
                         _______ _______ _______ _____ _____    ______ ____

>  <TORSDO>
F 0

$$$$
=
 OpenBabel11112417383D

 28 32  0  0  1  0  0  0  0  0999 V2000
  186.4290  178.3000  144.4520 C   0  0  0  0  0  0  0  0  0  0  0  0
  189.5450  178.2910  145.8840 O   0  0  0  0  0  0  0  0  0  0  0  0
  188.4600  174.5290  139.7310 O   0  0  0  0  0  0  0  0  0  0  0  0
  185.1580  176.8400  146.4790 C   0  0  0  0  0  3  0  0  0  0  0  0
  189.0380  173.8290  141.8970 N   0  0  0  0  0  0  0  0  0  0  0  0
  187.0600  179.0980  143.3540 C   0  0  0  0  0  2  0  0  0  0  0  0
  190.6980  176.4260  146.9990 O   0  0  0  0  0  0  0  0  0  0  0  0
  190.2160  176.9620  145.6810 S   0  0  0  0  0  0  0  0  0  0  0  0
  191.6020  176.3980  143.3890 C   0  0  0  0  0  0  0  0  0  0  0  0
  189.0970  175.7930  144.9460 C   0  0  2  0  0  3  0  0  0  0  0  0
  185.8890  177.7750  140.1390 O   0  0  0  0  0  0  0  0  0  0  0  0
  187.5890  175.2680  143.1400 C   0  0  2  0  0  3  0  0  0  0  0  0
  190.7960  175.4060  143.1480 N   0  0  0  0  0  0  0  0  0  0  0  0
  191.5480  177.1360  144.6070 N   0  0  0  0  0  2  0  0  0  0  0  0
  186.6370  177.9160  141.1410 C   0  0  0  0  0  0  0  0  0  0  0  0
  186.8940  177.0140  144.7880 C   0  0  0  0  0  0  0  0  0  0  0  0
  188.3430  174.6480  140.9790 C   0  0  0  0  0  0  0  0  0  0  0  0
  192.5320  176.7910  142.3880 N   0  0  0  0  0  1  0  0  0  0  0  0
  187.8480  177.0490  141.2740 C   0  0  0  0  0  2  0  0  0  0  0  0
  186.2460  176.2890  145.8000 C   0  0  0  0  0  3  0  0  0  0  0  0
  185.3340  178.8430  145.1340 C   0  0  0  0  0  3  0  0  0  0  0  0
  184.7030  178.1180  146.1470 C   0  0  0  0  0  3  0  0  0  0  0  0
  186.3200  178.9160  142.1140 N   0  0  0  0  0  2  0  0  0  0  0  0
  188.6640  174.1690  143.2590 C   0  0  2  0  0  3  0  0  0  0  0  0
  187.4410  175.6210  141.6360 C   0  0  2  0  0  3  0  0  0  0  0  0
  189.8180  174.7860  144.0630 C   0  0  2  0  0  3  0  0  0  0  0  0
  189.8760  172.6980  141.5360 C   0  0  0  0  0  1  0  0  0  0  0  0
  188.0490  176.4130  144.0410 C   0  0  1  0  0  3  0  0  0  0  0  0
  1 16  2  0  0  0  0
  1 21  1  0  0  0  0
  3 17  2  0  0  0  0
  5 24  1  0  0  0  0
  6  1  1  0  0  0  0
  8  2  2  0  0  0  0
  8  7  2  0  0  0  0
  9 14  1  0  0  0  0
 10  8  1  6  0  0  0
 11 15  2  0  0  0  0
 12 24  1  0  0  0  0
 12 28  1  0  0  0  0
 13  9  2  0  0  0  0
 13 26  1  0  0  0  0
 14  8  1  0  0  0  0
 15 19  1  0  0  0  0
 15 23  1  0  0  0  0
 16 20  1  0  0  0  0
 17 25  1  0  0  0  0
 17  5  1  0  0  0  0
 18  9  1  0  0  0  0
 19 25  1  0  0  0  0
 20  4  2  0  0  0  0
 21 22  2  0  0  0  0
 22  4  1  0  0  0  0
 23  6  1  0  0  0  0
 24 26  1  0  0  0  0
 25 12  1  0  0  0  0
 26 10  1  0  0  0  0
 27  5  1  0  0  0  0
 28 16  1  0  0  0  0
 28 10  1  0  0  0  0
M  END
>  <MODEL>
3

>  <REMARK>
 VINA RESULT:      -7.7      2.207      4.818
  Name = 
  0 active torsions:
  status: ('A' for Active; 'I' for Inactive)
                            x       y       z     vdW  Elec       q    Type
                         _______ _______ _______ _____ _____    ______ ____

>  <TORSDO>
F 0

$$$$
=
 OpenBabel11112417383D

 28 32  0  0  1  0  0  0  0  0999 V2000
  191.6140  173.6060  144.8240 C   0  0  0  0  0  0  0  0  0  0  0  0
  190.0980  175.3460  147.3610 O   0  0  0  0  0  0  0  0  0  0  0  0
  187.4070  175.8670  140.6020 O   0  0  0  0  0  0  0  0  0  0  0  0
  193.9940  175.0870  144.8200 C   0  0  0  0  0  3  0  0  0  0  0  0
  188.3760  177.4730  142.0160 N   0  0  0  0  0  0  0  0  0  0  0  0
  190.3680  172.7760  144.8010 C   0  0  0  0  0  2  0  0  0  0  0  0
  190.0620  177.7780  147.7240 O   0  0  0  0  0  0  0  0  0  0  0  0
  189.5640  176.6570  146.8570 S   0  0  0  0  0  0  0  0  0  0  0  0
  187.1030  176.8380  145.6720 C   0  0  0  0  0  0  0  0  0  0  0  0
  190.0720  176.9440  145.1780 C   0  0  2  0  0  3  0  0  0  0  0  0
  189.3760  172.2690  141.3060 O   0  0  0  0  0  0  0  0  0  0  0  0
  190.1540  176.1450  142.9050 C   0  0  2  0  0  3  0  0  0  0  0  0
  187.6630  177.2770  144.5830 N   0  0  0  0  0  0  0  0  0  0  0  0
  187.8450  176.6360  146.8730 N   0  0  0  0  0  2  0  0  0  0  0  0
  189.4120  172.8060  142.4440 C   0  0  0  0  0  0  0  0  0  0  0  0
  191.5740  174.9980  144.6120 C   0  0  0  0  0  0  0  0  0  0  0  0
  188.2700  176.1750  141.4660 C   0  0  0  0  0  0  0  0  0  0  0  0
  185.7220  176.5020  145.6530 N   0  0  0  0  0  1  0  0  0  0  0  0
  188.6310  174.0590  142.6840 C   0  0  0  0  0  2  0  0  0  0  0  0
  192.7730  175.7280  144.6060 C   0  0  0  0  0  3  0  0  0  0  0  0
  192.8430  172.9690  145.0340 C   0  0  0  0  0  3  0  0  0  0  0  0
  194.0280  173.7080  145.0360 C   0  0  0  0  0  3  0  0  0  0  0  0
  190.1810  172.1900  143.4820 N   0  0  0  0  0  2  0  0  0  0  0  0
  189.4900  177.5360  142.9470 C   0  0  2  0  0  3  0  0  0  0  0  0
  189.2960  175.2410  141.9810 C   0  0  2  0  0  3  0  0  0  0  0  0
  189.0460  177.7550  144.4000 C   0  0  2  0  0  3  0  0  0  0  0  0
  187.5980  178.6240  141.5890 C   0  0  0  0  0  1  0  0  0  0  0  0
  190.2630  175.6830  144.3570 C   0  0  1  0  0  3  0  0  0  0  0  0
  1 21  1  0  0  0  0
  3 17  2  0  0  0  0
  4 22  1  0  0  0  0
  5 24  1  0  0  0  0
  6  1  1  0  0  0  0
  8 14  1  0  0  0  0
  8  2  2  0  0  0  0
  8  7  2  0  0  0  0
  9 14  1  0  0  0  0
 10  8  1  1  0  0  0
 11 15  2  0  0  0  0
 12 24  1  0  0  0  0
 12 28  1  0  0  0  0
 13  9  2  0  0  0  0
 15 19  1  0  0  0  0
 15 23  1  0  0  0  0
 16  1  2  0  0  0  0
 17 25  1  0  0  0  0
 17  5  1  0  0  0  0
 18  9  1  0  0  0  0
 20 16  1  0  0  0  0
 20  4  2  0  0  0  0
 21 22  2  0  0  0  0
 23  6  1  0  0  0  0
 24 26  1  0  0  0  0
 25 19  1  0  0  0  0
 25 12  1  0  0  0  0
 26 13  1  0  0  0  0
 26 10  1  0  0  0  0
 27  5  1  0  0  0  0
 28 16  1  0  0  0  0
 28 10  1  0  0  0  0
M  END
>  <MODEL>
4

>  <REMARK>
 VINA RESULT:      -7.5      2.152      6.058
  Name = 
  0 active torsions:
  status: ('A' for Active; 'I' for Inactive)
                            x       y       z     vdW  Elec       q    Type
                         _______ _______ _______ _____ _____    ______ ____

>  <TORSDO>
F 0

$$$$
=
 OpenBabel11112417383D

 28 32  0  0  1  0  0  0  0  0999 V2000
  188.2710  176.0590  144.1280 C   0  0  0  0  0  0  0  0  0  0  0  0
  191.3410  177.5460  143.7720 O   0  0  0  0  0  0  0  0  0  0  0  0
  190.5950  170.4980  142.0520 O   0  0  0  0  0  0  0  0  0  0  0  0
  188.1990  176.1780  146.9280 C   0  0  0  0  0  3  0  0  0  0  0  0
  191.8710  171.5650  143.7110 N   0  0  0  0  0  0  0  0  0  0  0  0
  188.2570  175.9900  142.6330 C   0  0  0  0  0  2  0  0  0  0  0  0
  193.3770  177.1630  145.0970 O   0  0  0  0  0  0  0  0  0  0  0  0
  192.4400  176.5700  144.0830 S   0  0  0  0  0  0  0  0  0  0  0  0
  193.3970  174.8430  142.1870 C   0  0  0  0  0  0  0  0  0  0  0  0
  191.7760  175.0480  144.7160 C   0  0  2  0  0  3  0  0  0  0  0  0
  187.0670  172.6660  141.6370 O   0  0  0  0  0  0  0  0  0  0  0  0
  190.2660  173.1950  144.4060 C   0  0  2  0  0  3  0  0  0  0  0  0
  193.0430  173.8360  142.9300 N   0  0  0  0  0  0  0  0  0  0  0  0
  193.3090  176.1890  142.6490 N   0  0  0  0  0  2  0  0  0  0  0  0
  187.8890  173.5720  141.9330 C   0  0  0  0  0  0  0  0  0  0  0  0
  189.2890  175.4460  144.8830 C   0  0  0  0  0  0  0  0  0  0  0  0
  190.7150  171.4110  142.9110 C   0  0  0  0  0  0  0  0  0  0  0  0
  193.8360  174.6000  140.8560 N   0  0  0  0  0  1  0  0  0  0  0  0
  189.3480  173.2450  141.9830 C   0  0  0  0  0  2  0  0  0  0  0  0
  189.2400  175.5060  146.2850 C   0  0  0  0  0  3  0  0  0  0  0  0
  187.2280  176.7280  144.7800 C   0  0  0  0  0  3  0  0  0  0  0  0
  187.1950  176.7910  146.1750 C   0  0  0  0  0  3  0  0  0  0  0  0
  187.4070  174.8940  142.1900 N   0  0  0  0  0  2  0  0  0  0  0  0
  191.6970  172.6700  144.6380 C   0  0  2  0  0  3  0  0  0  0  0  0
  189.6600  172.4020  143.2190 C   0  0  2  0  0  3  0  0  0  0  0  0
  192.6370  173.8490  144.3480 C   0  0  2  0  0  3  0  0  0  0  0  0
  193.0000  170.6510  143.7270 C   0  0  0  0  0  1  0  0  0  0  0  0
  190.3950  174.7020  144.1920 C   0  0  1  0  0  3  0  0  0  0  0  0
  1 21  2  0  0  0  0
  1 16  1  0  0  0  0
  2  8  2  0  0  0  0
  3 17  2  0  0  0  0
  5 27  1  0  0  0  0
  5 24  1  0  0  0  0
  6  1  1  0  0  0  0
  8  7  2  0  0  0  0
  9 14  1  0  0  0  0
  9 13  2  0  0  0  0
 10  8  1  6  0  0  0
 11 15  2  0  0  0  0
 12 24  1  0  0  0  0
 13 26  1  0  0  0  0
 14  8  1  0  0  0  0
 15 19  1  0  0  0  0
 15 23  1  0  0  0  0
 16 20  2  0  0  0  0
 17 25  1  0  0  0  0
 17  5  1  0  0  0  0
 18  9  1  0  0  0  0
 19 25  1  0  0  0  0
 20  4  1  0  0  0  0
 21 22  1  0  0  0  0
 22  4  2  0  0  0  0
 23  6  1  0  0  0  0
 25 12  1  0  0  0  0
 26 24  1  0  0  0  0
 26 10  1  0  0  0  0
 28 12  1  0  0  0  0
 28 10  1  0  0  0  0
 28 16  1  0  0  0  0
M  END
>  <MODEL>
5

>  <REMARK>
 VINA RESULT:      -7.5      2.394      4.929
  Name = 
  0 active torsions:
  status: ('A' for Active; 'I' for Inactive)
                            x       y       z     vdW  Elec       q    Type
                         _______ _______ _______ _____ _____    ______ ____

>  <TORSDO>
F 0

$$$$
=
 OpenBabel11112417383D

 28 32  0  0  1  0  0  0  0  0999 V2000
  189.0110  175.5240  146.2010 C   0  0  0  0  0  0  0  0  0  0  0  0
  189.3160  172.4130  144.7880 O   0  0  0  0  0  0  0  0  0  0  0  0
  195.1870  176.7240  145.1740 O   0  0  0  0  0  0  0  0  0  0  0  0
  187.3900  176.6130  144.1910 C   0  0  0  0  0  3  0  0  0  0  0  0
  194.0090  175.8650  143.3320 N   0  0  0  0  0  0  0  0  0  0  0  0
  189.8610  174.9800  147.3070 C   0  0  0  0  0  2  0  0  0  0  0  0
  189.6990  171.8500  142.4250 O   0  0  0  0  0  0  0  0  0  0  0  0
  190.3120  172.4390  143.6630 S   0  0  0  0  0  0  0  0  0  0  0  0
  192.9960  172.1580  144.1240 C   0  0  0  0  0  0  0  0  0  0  0  0
  190.8400  174.1020  143.3230 C   0  0  2  0  0  3  0  0  0  0  0  0
  192.3950  177.4900  148.1630 O   0  0  0  0  0  0  0  0  0  0  0  0
  191.7850  176.1550  144.1600 C   0  0  2  0  0  3  0  0  0  0  0  0
  193.2050  173.3320  143.6030 N   0  0  0  0  0  0  0  0  0  0  0  0
  191.7120  171.5400  144.0980 N   0  0  0  0  0  2  0  0  0  0  0  0
  191.8890  176.4880  147.5930 C   0  0  0  0  0  0  0  0  0  0  0  0
  189.4660  175.5480  144.8680 C   0  0  0  0  0  0  0  0  0  0  0  0
  194.0940  176.4030  144.6360 C   0  0  0  0  0  0  0  0  0  0  0  0
  194.0660  171.4940  144.7840 N   0  0  0  0  0  1  0  0  0  0  0  0
  192.6850  175.7590  146.5580 C   0  0  0  0  0  2  0  0  0  0  0  0
  188.6490  176.1020  143.8710 C   0  0  0  0  0  3  0  0  0  0  0  0
  187.7490  176.0420  146.5140 C   0  0  0  0  0  3  0  0  0  0  0  0
  186.9390  176.5810  145.5120 C   0  0  0  0  0  3  0  0  0  0  0  0
  190.5760  176.0630  147.9670 N   0  0  0  0  0  2  0  0  0  0  0  0
  192.6200  175.6420  142.9690 C   0  0  2  0  0  3  0  0  0  0  0  0
  192.7720  176.5870  145.2760 C   0  0  2  0  0  3  0  0  0  0  0  0
  192.2720  174.1560  142.8120 C   0  0  2  0  0  3  0  0  0  0  0  0
  195.1300  175.7140  142.4190 C   0  0  0  0  0  1  0  0  0  0  0  0
  190.8300  175.0210  144.5290 C   0  0  1  0  0  3  0  0  0  0  0  0
  1 21  1  0  0  0  0
  1  6  1  0  0  0  0
  4 22  1  0  0  0  0
  5 17  1  0  0  0  0
  6 23  1  0  0  0  0
  7  8  2  0  0  0  0
  8 14  1  0  0  0  0
  8  2  2  0  0  0  0
  9 18  1  0  0  0  0
 10  8  1  1  0  0  0
 10 28  1  0  0  0  0
 12 28  1  0  0  0  0
 12 25  1  0  0  0  0
 13  9  2  0  0  0  0
 14  9  1  0  0  0  0
 15 23  1  0  0  0  0
 15 11  2  0  0  0  0
 16  1  2  0  0  0  0
 17  3  2  0  0  0  0
 17 25  1  0  0  0  0
 19 15  1  0  0  0  0
 20  4  2  0  0  0  0
 20 16  1  0  0  0  0
 22 21  2  0  0  0  0
 24  5  1  0  0  0  0
 24 12  1  0  0  0  0
 25 19  1  0  0  0  0
 26 24  1  0  0  0  0
 26 10  1  0  0  0  0
 26 13  1  0  0  0  0
 27  5  1  0  0  0  0
 28 16  1  0  0  0  0
M  END
>  <MODEL>
6

>  <REMARK>
 VINA RESULT:      -7.5      2.064      2.589
  Name = 
  0 active torsions:
  status: ('A' for Active; 'I' for Inactive)
                            x       y       z     vdW  Elec       q    Type
                         _______ _______ _______ _____ _____    ______ ____

>  <TORSDO>
F 0

$$$$
=
 OpenBabel11112417383D

 28 32  0  0  1  0  0  0  0  0999 V2000
  188.9190  176.7670  144.3550 C   0  0  0  0  0  0  0  0  0  0  0  0
  192.1980  177.1150  145.2980 O   0  0  0  0  0  0  0  0  0  0  0  0
  190.3480  171.6300  140.8620 O   0  0  0  0  0  0  0  0  0  0  0  0
  187.9460  176.0670  146.8890 C   0  0  0  0  0  3  0  0  0  0  0  0
  191.2180  171.6360  143.0440 N   0  0  0  0  0  0  0  0  0  0  0  0
  189.3890  177.1540  142.9880 C   0  0  0  0  0  2  0  0  0  0  0  0
  193.5110  175.6660  146.7900 O   0  0  0  0  0  0  0  0  0  0  0  0
  192.8520  175.7700  145.4440 S   0  0  0  0  0  0  0  0  0  0  0  0
  193.9270  174.4640  143.2920 C   0  0  0  0  0  0  0  0  0  0  0  0
  191.6590  174.4640  145.2720 C   0  0  2  0  0  3  0  0  0  0  0  0
  187.8160  174.9160  140.5430 O   0  0  0  0  0  0  0  0  0  0  0  0
  189.9300  173.4400  143.9400 C   0  0  2  0  0  3  0  0  0  0  0  0
  193.1080  173.4730  143.4870 N   0  0  0  0  0  0  0  0  0  0  0  0
  194.0270  175.5520  144.2070 N   0  0  0  0  0  2  0  0  0  0  0  0
  188.6900  175.3440  141.3420 C   0  0  0  0  0  0  0  0  0  0  0  0
  189.4410  175.6400  145.0200 C   0  0  0  0  0  0  0  0  0  0  0  0
  190.3970  172.1430  142.0110 C   0  0  0  0  0  0  0  0  0  0  0  0
  194.7110  174.4890  142.1060 N   0  0  0  0  0  1  0  0  0  0  0  0
  189.9180  174.5270  141.5870 C   0  0  0  0  0  2  0  0  0  0  0  0
  188.9410  175.2950  146.2860 C   0  0  0  0  0  3  0  0  0  0  0  0
  187.9180  177.5330  144.9640 C   0  0  0  0  0  3  0  0  0  0  0  0
  187.4370  177.1860  146.2290 C   0  0  0  0  0  3  0  0  0  0  0  0
  188.4930  176.6110  141.9770 N   0  0  0  0  0  2  0  0  0  0  0  0
  191.0250  172.4030  144.2630 C   0  0  2  0  0  3  0  0  0  0  0  0
  189.5800  173.3010  142.4350 C   0  0  2  0  0  3  0  0  0  0  0  0
  192.2680  173.2060  144.6700 C   0  0  2  0  0  3  0  0  0  0  0  0
  192.0140  170.4230  142.9560 C   0  0  0  0  0  1  0  0  0  0  0  0
  190.4930  174.7970  144.3610 C   0  0  1  0  0  3  0  0  0  0  0  0
  1 21  2  0  0  0  0
  1 16  1  0  0  0  0
  2  8  2  0  0  0  0
  3 17  2  0  0  0  0
  5 24  1  0  0  0  0
  6  1  1  0  0  0  0
  8  7  2  0  0  0  0
  9 13  2  0  0  0  0
  9 14  1  0  0  0  0
 10  8  1  6  0  0  0
 11 15  2  0  0  0  0
 12 24  1  0  0  0  0
 12 28  1  0  0  0  0
 13 26  1  0  0  0  0
 14  8  1  0  0  0  0
 15 19  1  0  0  0  0
 15 23  1  0  0  0  0
 16 20  2  0  0  0  0
 17 25  1  0  0  0  0
 17  5  1  0  0  0  0
 18  9  1  0  0  0  0
 19 25  1  0  0  0  0
 20  4  1  0  0  0  0
 21 22  1  0  0  0  0
 22  4  2  0  0  0  0
 23  6  1  0  0  0  0
 24 26  1  0  0  0  0
 25 12  1  0  0  0  0
 26 10  1  0  0  0  0
 27  5  1  0  0  0  0
 28 16  1  0  0  0  0
 28 10  1  0  0  0  0
M  END
>  <MODEL>
7

>  <REMARK>
 VINA RESULT:      -7.3      2.343      5.003
  Name = 
  0 active torsions:
  status: ('A' for Active; 'I' for Inactive)
                            x       y       z     vdW  Elec       q    Type
                         _______ _______ _______ _____ _____    ______ ____

>  <TORSDO>
F 0

$$$$
=
 OpenBabel11112417383D

 28 32  0  0  1  0  0  0  0  0999 V2000
  190.4120  176.1550  146.2850 C   0  0  0  0  0  0  0  0  0  0  0  0
  189.6890  172.9230  145.3950 O   0  0  0  0  0  0  0  0  0  0  0  0
  195.9700  175.8920  143.1750 O   0  0  0  0  0  0  0  0  0  0  0  0
  188.4060  177.3530  144.7360 C   0  0  0  0  0  3  0  0  0  0  0  0
  194.1060  175.1200  141.9710 N   0  0  0  0  0  0  0  0  0  0  0  0
  191.4850  175.5600  147.1410 C   0  0  0  0  0  2  0  0  0  0  0  0
  189.1380  172.0490  143.1620 O   0  0  0  0  0  0  0  0  0  0  0  0
  190.2280  172.6180  144.0260 S   0  0  0  0  0  0  0  0  0  0  0  0
  192.8200  171.8180  143.6560 C   0  0  0  0  0  0  0  0  0  0  0  0
  190.8780  174.0850  143.2600 C   0  0  2  0  0  3  0  0  0  0  0  0
  194.5420  177.5430  146.7160 O   0  0  0  0  0  0  0  0  0  0  0  0
  192.3820  175.9640  143.3970 C   0  0  2  0  0  3  0  0  0  0  0  0
  193.0320  172.8590  142.9050 N   0  0  0  0  0  0  0  0  0  0  0  0
  191.5210  171.4900  144.1420 N   0  0  0  0  0  2  0  0  0  0  0  0
  193.7110  176.6190  146.5130 C   0  0  0  0  0  0  0  0  0  0  0  0
  190.3800  175.9440  144.8930 C   0  0  0  0  0  0  0  0  0  0  0  0
  194.7220  175.7590  143.0710 C   0  0  0  0  0  0  0  0  0  0  0  0
  193.9240  171.0120  144.0470 N   0  0  0  0  0  1  0  0  0  0  0  0
  193.9700  175.6340  145.4190 C   0  0  0  0  0  2  0  0  0  0  0  0
  189.3750  176.5540  144.1260 C   0  0  0  0  0  3  0  0  0  0  0  0
  189.4400  176.9610  146.8880 C   0  0  0  0  0  3  0  0  0  0  0  0
  188.4380  177.5540  146.1170 C   0  0  0  0  0  3  0  0  0  0  0  0
  192.5540  176.5260  147.3490 N   0  0  0  0  0  2  0  0  0  0  0  0
  192.6600  175.1640  142.1080 C   0  0  2  0  0  3  0  0  0  0  0  0
  193.7500  176.2860  144.0540 C   0  0  2  0  0  3  0  0  0  0  0  0
  192.0360  173.7780  142.3220 C   0  0  2  0  0  3  0  0  0  0  0  0
  194.8040  174.6390  140.7900 C   0  0  0  0  0  1  0  0  0  0  0  0
  191.4370  175.1050  144.2340 C   0  0  1  0  0  3  0  0  0  0  0  0
  1 21  1  0  0  0  0
  1  6  1  0  0  0  0
  4 22  1  0  0  0  0
  5 24  1  0  0  0  0
  5 17  1  0  0  0  0
  6 23  1  0  0  0  0
  7  8  2  0  0  0  0
  8 14  1  0  0  0  0
  8  2  2  0  0  0  0
  9 18  1  0  0  0  0
  9 14  1  0  0  0  0
 10  8  1  1  0  0  0
 10 28  1  0  0  0  0
 12 25  1  0  0  0  0
 12 28  1  0  0  0  0
 13  9  2  0  0  0  0
 15 11  2  0  0  0  0
 15 23  1  0  0  0  0
 16  1  2  0  0  0  0
 17  3  2  0  0  0  0
 17 25  1  0  0  0  0
 19 15  1  0  0  0  0
 20  4  2  0  0  0  0
 20 16  1  0  0  0  0
 22 21  2  0  0  0  0
 24 26  1  0  0  0  0
 24 12  1  0  0  0  0
 25 19  1  0  0  0  0
 26 13  1  0  0  0  0
 26 10  1  0  0  0  0
 27  5  1  0  0  0  0
 28 16  1  0  0  0  0
M  END
>  <MODEL>
8

>  <REMARK>
 VINA RESULT:      -7.1      2.353      3.336
  Name = 
  0 active torsions:
  status: ('A' for Active; 'I' for Inactive)
                            x       y       z     vdW  Elec       q    Type
                         _______ _______ _______ _____ _____    ______ ____

>  <TORSDO>
F 0

$$$$
=
 OpenBabel11112417383D

 28 32  0  0  1  0  0  0  0  0999 V2000
  188.6350  175.9540  144.6130 C   0  0  0  0  0  0  0  0  0  0  0  0
  189.5490  172.9190  143.3020 O   0  0  0  0  0  0  0  0  0  0  0  0
  194.5520  176.9330  146.7730 O   0  0  0  0  0  0  0  0  0  0  0  0
  188.1980  177.2280  142.1550 C   0  0  0  0  0  3  0  0  0  0  0  0
  194.4000  176.2360  144.5340 N   0  0  0  0  0  0  0  0  0  0  0  0
  188.8390  175.3100  145.9490 C   0  0  0  0  0  2  0  0  0  0  0  0
  191.0190  172.4760  141.3800 O   0  0  0  0  0  0  0  0  0  0  0  0
  190.9640  172.9650  142.7990 S   0  0  0  0  0  0  0  0  0  0  0  0
  193.0880  172.5380  144.4720 C   0  0  0  0  0  0  0  0  0  0  0  0
  191.6100  174.6200  142.8750 C   0  0  2  0  0  3  0  0  0  0  0  0
  190.6730  177.6510  148.0960 O   0  0  0  0  0  0  0  0  0  0  0  0
  192.0570  176.5770  144.2090 C   0  0  2  0  0  3  0  0  0  0  0  0
  193.5370  173.7290  144.2020 N   0  0  0  0  0  0  0  0  0  0  0  0
  191.9690  171.9800  143.7880 N   0  0  0  0  0  2  0  0  0  0  0  0
  190.4940  176.7070  147.2830 C   0  0  0  0  0  0  0  0  0  0  0  0
  189.6770  176.0340  143.6690 C   0  0  0  0  0  0  0  0  0  0  0  0
  193.8510  176.6940  145.7530 C   0  0  0  0  0  0  0  0  0  0  0  0
  193.6990  171.7900  145.5160 N   0  0  0  0  0  1  0  0  0  0  0  0
  191.6820  176.0040  146.7080 C   0  0  0  0  0  2  0  0  0  0  0  0
  189.4490  176.6810  142.4440 C   0  0  0  0  0  3  0  0  0  0  0  0
  187.3840  176.5090  144.3170 C   0  0  0  0  0  3  0  0  0  0  0  0
  187.1650  177.1400  143.0910 C   0  0  0  0  0  3  0  0  0  0  0  0
  189.1580  176.3190  146.9480 N   0  0  0  0  0  2  0  0  0  0  0  0
  193.3570  176.0970  143.5330 C   0  0  2  0  0  3  0  0  0  0  0  0
  192.3870  176.8990  145.6900 C   0  0  2  0  0  3  0  0  0  0  0  0
  193.1110  174.6380  143.1210 C   0  0  2  0  0  3  0  0  0  0  0  0
  195.8210  176.0880  144.2640 C   0  0  0  0  0  1  0  0  0  0  0  0
  191.0290  175.4670  143.9910 C   0  0  1  0  0  3  0  0  0  0  0  0
  1  6  1  0  0  0  0
  4 20  2  0  0  0  0
  4 22  1  0  0  0  0
  5 17  1  0  0  0  0
  6 23  1  0  0  0  0
  7  8  2  0  0  0  0
  8  2  2  0  0  0  0
  8 14  1  0  0  0  0
  9 18  1  0  0  0  0
 10  8  1  1  0  0  0
 10 26  1  0  0  0  0
 10 28  1  0  0  0  0
 12 25  1  0  0  0  0
 13  9  2  0  0  0  0
 14  9  1  0  0  0  0
 15 11  2  0  0  0  0
 16 28  1  0  0  0  0
 16  1  2  0  0  0  0
 17  3  2  0  0  0  0
 19 15  1  0  0  0  0
 20 16  1  0  0  0  0
 21  1  1  0  0  0  0
 22 21  2  0  0  0  0
 23 15  1  0  0  0  0
 24 12  1  0  0  0  0
 24  5  1  0  0  0  0
 25 17  1  0  0  0  0
 25 19  1  0  0  0  0
 26 24  1  0  0  0  0
 26 13  1  0  0  0  0
 27  5  1  0  0  0  0
 28 12  1  0  0  0  0
M  END
>  <MODEL>
9

>  <REMARK>
 VINA RESULT:      -7.1      1.738      2.147
  Name = 
  0 active torsions:
  status: ('A' for Active; 'I' for Inactive)
                            x       y       z     vdW  Elec       q    Type
                         _______ _______ _______ _____ _____    ______ ____

>  <TORSDO>
F 0

$$$$
