=
 OpenBabel11112416243D

 30 34  0  0  1  0  0  0  0  0999 V2000
  189.0810  175.3780  143.6180 C   0  0  2  0  0  3  0  0  0  0  0  0
  187.8110  177.0570  147.2840 O   0  0  0  0  0  0  0  0  0  0  0  0
  187.7390  176.1350  143.7550 C   0  0  2  0  0  3  0  0  0  0  0  0
  188.9640  174.3810  142.4700 C   0  0  0  0  0  2  0  0  0  0  0  0
  187.3700  176.7700  140.0750 O   0  0  0  0  0  1  0  0  0  0  0  0
  185.1750  177.4390  143.3790 C   0  0  1  0  0  3  0  0  0  0  0  0
  187.4810  176.0200  141.2480 C   0  0  1  0  0  3  0  0  0  0  0  0
  185.3210  177.8810  144.8290 C   0  0  2  0  0  3  0  0  0  0  0  0
  186.8790  177.9560  146.7960 C   0  0  0  0  0  0  0  0  0  0  0  0
  188.7300  175.1340  141.1630 C   0  0  2  0  0  3  0  0  0  0  0  0
  187.5550  176.9550  142.4670 C   0  0  1  0  0  3  0  0  0  0  0  0
  184.7130  179.2660  144.8860 C   0  0  0  0  0  2  0  0  0  0  0  0
  183.8930  178.1040  142.8970 C   0  0  0  0  0  2  0  0  0  0  0  0
  188.1120  176.1840  146.2120 C   0  0  1  0  0  3  0  0  0  0  0  0
  189.5900  174.7000  144.9180 C   0  0  2  0  0  3  0  0  0  0  0  0
  187.8290  177.0290  144.9880 C   0  0  2  0  0  3  0  0  0  0  0  0
  186.2430  178.7530  147.5330 O   0  0  0  0  0  0  0  0  0  0  0  0
  186.6850  177.8630  145.3850 N   0  0  0  0  0  0  0  0  0  0  0  0
  183.6060  179.2580  143.8490 C   0  0  0  0  0  2  0  0  0  0  0  0
  186.3720  178.9230  141.9560 O   0  0  0  0  0  0  0  0  0  0  0  0
  189.5240  175.6350  146.1480 C   0  0  2  0  0  3  0  0  0  0  0  0
  186.3530  177.8470  142.5350 C   0  0  0  0  0  0  0  0  0  0  0  0
  190.9880  174.2000  144.7190 C   0  0  0  0  0  0  0  0  0  0  0  0
  191.9220  175.0200  144.5220 O   0  0  0  0  0  0  0  0  0  0  0  0
  191.2610  172.8380  144.7530 O   0  0  0  0  0  1  0  0  0  0  0  0
  190.9330  175.3990  148.0680 O   0  0  0  0  0  1  0  0  0  0  0  0
  189.8290  174.8470  147.4170 C   0  0  0  0  0  2  0  0  0  0  0  0
  188.5920  174.2160  140.1190 O   0  0  0  0  0  0  0  0  0  0  0  0
  189.2730  171.9810  139.0830 C   0  0  0  0  0  1  0  0  0  0  0  0
  189.2580  172.7510  140.7270 S   0  0  0  0  0  0  0  0  0  0  0  0
  1  4  1  6  0  0  0
  1  3  1  0  0  0  0
  1 15  1  0  0  0  0
  3 16  1  0  0  0  0
  5  7  1  0  0  0  0
  6  8  1  0  0  0  0
  7 11  1  0  0  0  0
  8 12  1  0  0  0  0
  8 18  1  0  0  0  0
  9  2  1  0  0  0  0
  9 17  2  0  0  0  0
 10  7  1  0  0  0  0
 10  4  1  0  0  0  0
 11 22  1  0  0  0  0
 11  3  1  0  0  0  0
 13  6  1  0  0  0  0
 13 19  1  0  0  0  0
 14  2  1  0  0  0  0
 15 21  1  0  0  0  0
 16 18  1  0  0  0  0
 16 14  1  0  0  0  0
 18  9  1  0  0  0  0
 19 12  1  0  0  0  0
 20 22  2  0  0  0  0
 21 14  1  0  0  0  0
 21 27  1  0  0  0  0
 22  6  1  0  0  0  0
 23 25  1  0  0  0  0
 23 15  1  0  0  0  0
 24 23  2  0  0  0  0
 27 26  1  0  0  0  0
 28 30  1  0  0  0  0
 28 10  1  0  0  0  0
 29 30  1  0  0  0  0
M  END
>  <MODEL>
1

>  <REMARK>
 VINA RESULT:      -7.6      0.000      0.000
  Name = 
  4 active torsions:
  status: ('A' for Active; 'I' for Inactive)
    1  A    between atoms: C_2  and  C_19
    2  A    between atoms: C_11  and  O_28
    3  A    between atoms: C_25  and  C_26
    4  A    between atoms: O_28  and  S_30
                            x       y       z     vdW  Elec       q    Type
                         _______ _______ _______ _____ _____    ______ ____

>  <TORSDO>
F 4

$$$$
=
 OpenBabel11112416243D

 30 34  0  0  1  0  0  0  0  0999 V2000
  189.2110  174.6080  144.2100 C   0  0  2  0  0  3  0  0  0  0  0  0
  187.7350  176.0070  140.5040 O   0  0  0  0  0  0  0  0  0  0  0  0
  188.3580  175.8930  144.0970 C   0  0  2  0  0  3  0  0  0  0  0  0
  190.0980  174.7190  145.4450 C   0  0  0  0  0  2  0  0  0  0  0  0
  187.3970  175.9420  147.7240 O   0  0  0  0  0  1  0  0  0  0  0  0
  186.8170  178.3130  144.5270 C   0  0  1  0  0  3  0  0  0  0  0  0
  188.2470  175.9760  146.6160 C   0  0  1  0  0  3  0  0  0  0  0  0
  186.5080  178.2400  143.0380 C   0  0  2  0  0  3  0  0  0  0  0  0
  186.7250  176.8280  140.9730 C   0  0  0  0  0  0  0  0  0  0  0  0
  189.2250  174.7970  146.6950 C   0  0  2  0  0  3  0  0  0  0  0  0
  187.4240  175.9180  145.3180 C   0  0  1  0  0  3  0  0  0  0  0  0
  185.0870  178.7400  142.9000 C   0  0  0  0  0  2  0  0  0  0  0  0
  186.0100  179.5010  145.0330 C   0  0  0  0  0  2  0  0  0  0  0  0
  188.5400  175.6980  141.6260 C   0  0  1  0  0  3  0  0  0  0  0  0
  190.0330  174.2500  142.9430 C   0  0  2  0  0  3  0  0  0  0  0  0
  187.5780  175.8240  142.7880 C   0  0  2  0  0  3  0  0  0  0  0  0
  185.9400  177.4520  140.2120 O   0  0  0  0  0  0  0  0  0  0  0  0
  186.6860  176.9260  142.3960 N   0  0  0  0  0  0  0  0  0  0  0  0
  184.9170  179.7660  144.0050 C   0  0  0  0  0  2  0  0  0  0  0  0
  185.3280  176.9030  145.7330 O   0  0  0  0  0  0  0  0  0  0  0  0
  189.1990  174.3320  141.6430 C   0  0  2  0  0  3  0  0  0  0  0  0
  186.4420  177.0490  145.2520 C   0  0  0  0  0  0  0  0  0  0  0  0
  190.6300  172.8840  143.0920 C   0  0  0  0  0  0  0  0  0  0  0  0
  189.8780  171.8840  143.2150 O   0  0  0  0  0  1  0  0  0  0  0  0
  192.0100  172.7150  143.0930 O   0  0  0  0  0  0  0  0  0  0  0  0
  189.5420  173.3000  139.5110 O   0  0  0  0  0  1  0  0  0  0  0  0
  190.1100  174.1830  140.4310 C   0  0  0  0  0  2  0  0  0  0  0  0
  190.0400  174.9300  147.8210 O   0  0  0  0  0  0  0  0  0  0  0  0
  191.4320  177.0180  148.3080 C   0  0  0  0  0  1  0  0  0  0  0  0
  191.5220  175.5650  147.2230 S   0  0  0  0  0  0  0  0  0  0  0  0
  1  4  1  1  0  0  0
  2  9  1  0  0  0  0
  2 14  1  0  0  0  0
  3  1  1  0  0  0  0
  3 11  1  0  0  0  0
  4 10  1  0  0  0  0
  6 13  1  0  0  0  0
  6 22  1  0  0  0  0
  7 10  1  0  0  0  0
  7  5  1  0  0  0  0
  8  6  1  0  0  0  0
  9 18  1  0  0  0  0
 10 28  1  0  0  0  0
 11  7  1  0  0  0  0
 12  8  1  0  0  0  0
 12 19  1  0  0  0  0
 14 21  1  0  0  0  0
 14 16  1  0  0  0  0
 15 23  1  0  0  0  0
 15  1  1  0  0  0  0
 16  3  1  0  0  0  0
 17  9  2  0  0  0  0
 18 16  1  0  0  0  0
 18  8  1  0  0  0  0
 19 13  1  0  0  0  0
 21 15  1  0  0  0  0
 22 11  1  0  0  0  0
 22 20  2  0  0  0  0
 23 25  2  0  0  0  0
 23 24  1  0  0  0  0
 26 27  1  0  0  0  0
 27 21  1  0  0  0  0
 30 28  1  0  0  0  0
 30 29  1  0  0  0  0
M  END
>  <MODEL>
2

>  <REMARK>
 VINA RESULT:      -7.2      2.048      5.103
  Name = 
  4 active torsions:
  status: ('A' for Active; 'I' for Inactive)
    1  A    between atoms: C_2  and  C_19
    2  A    between atoms: C_11  and  O_28
    3  A    between atoms: C_25  and  C_26
    4  A    between atoms: O_28  and  S_30
                            x       y       z     vdW  Elec       q    Type
                         _______ _______ _______ _____ _____    ______ ____

>  <TORSDO>
F 4

$$$$
=
 OpenBabel11112416243D

 30 34  0  0  1  0  0  0  0  0999 V2000
  186.8060  177.2210  144.6470 C   0  0  2  0  0  3  0  0  0  0  0  0
  189.5450  177.4430  147.8600 O   0  0  0  0  0  0  0  0  0  0  0  0
  188.3360  177.1610  144.4290 C   0  0  2  0  0  3  0  0  0  0  0  0
  186.1540  177.7660  143.3810 C   0  0  0  0  0  2  0  0  0  0  0  0
  188.0960  175.6150  141.0180 O   0  0  0  0  0  1  0  0  0  0  0  0
  191.0420  176.9670  143.4020 C   0  0  1  0  0  3  0  0  0  0  0  0
  187.9130  176.5810  142.0110 C   0  0  1  0  0  3  0  0  0  0  0  0
  191.4710  176.9810  144.8620 C   0  0  2  0  0  3  0  0  0  0  0  0
  190.6520  176.8980  147.2340 C   0  0  0  0  0  0  0  0  0  0  0  0
  186.4110  176.8060  142.2230 C   0  0  2  0  0  3  0  0  0  0  0  0
  188.5880  176.1290  143.3170 C   0  0  1  0  0  3  0  0  0  0  0  0
  192.6680  176.0580  144.9350 C   0  0  0  0  0  2  0  0  0  0  0  0
  192.3330  176.7670  142.6190 C   0  0  0  0  0  2  0  0  0  0  0  0
  188.6190  177.7340  146.8310 C   0  0  1  0  0  3  0  0  0  0  0  0
  186.3520  178.0030  145.9090 C   0  0  2  0  0  3  0  0  0  0  0  0
  188.9810  176.7420  145.7470 C   0  0  2  0  0  3  0  0  0  0  0  0
  191.7470  176.7030  147.8240 O   0  0  0  0  0  0  0  0  0  0  0  0
  190.4420  176.6160  145.8510 N   0  0  0  0  0  0  0  0  0  0  0  0
  193.3560  176.1910  143.5890 C   0  0  0  0  0  2  0  0  0  0  0  0
  190.4200  174.7610  142.7620 O   0  0  0  0  0  0  0  0  0  0  0  0
  187.1470  177.6110  147.1770 C   0  0  2  0  0  3  0  0  0  0  0  0
  190.0500  175.8740  143.1080 C   0  0  0  0  0  0  0  0  0  0  0  0
  184.8840  177.8000  146.1330 C   0  0  0  0  0  0  0  0  0  0  0  0
  184.4640  176.6920  146.5560 O   0  0  0  0  0  1  0  0  0  0  0  0
  183.9850  178.8290  145.8800 O   0  0  0  0  0  0  0  0  0  0  0  0
  186.4990  179.8250  147.8160 O   0  0  0  0  0  1  0  0  0  0  0  0
  186.8040  178.5600  148.3190 C   0  0  0  0  0  2  0  0  0  0  0  0
  185.8390  177.3240  141.0580 O   0  0  0  0  0  0  0  0  0  0  0  0
  183.5010  177.9410  140.2270 C   0  0  0  0  0  1  0  0  0  0  0  0
  184.5980  178.3810  141.6060 S   0  0  0  0  0  0  0  0  0  0  0  0
  1  4  1  6  0  0  0
  1 15  1  0  0  0  0
  3  1  1  0  0  0  0
  3 16  1  0  0  0  0
  5  7  1  0  0  0  0
  6  8  1  0  0  0  0
  7 10  1  0  0  0  0
  7 11  1  0  0  0  0
  8 12  1  0  0  0  0
  8 18  1  0  0  0  0
  9 17  2  0  0  0  0
  9  2  1  0  0  0  0
 10  4  1  0  0  0  0
 11  3  1  0  0  0  0
 13  6  1  0  0  0  0
 13 19  1  0  0  0  0
 14 21  1  0  0  0  0
 14  2  1  0  0  0  0
 15 23  1  0  0  0  0
 15 21  1  0  0  0  0
 16 18  1  0  0  0  0
 16 14  1  0  0  0  0
 18  9  1  0  0  0  0
 19 12  1  0  0  0  0
 20 22  2  0  0  0  0
 21 27  1  0  0  0  0
 22 11  1  0  0  0  0
 22  6  1  0  0  0  0
 23 24  1  0  0  0  0
 25 23  2  0  0  0  0
 26 27  1  0  0  0  0
 28 30  1  0  0  0  0
 28 10  1  0  0  0  0
 29 30  1  0  0  0  0
M  END
>  <MODEL>
3

>  <REMARK>
 VINA RESULT:      -7.1      2.480      5.603
  Name = 
  4 active torsions:
  status: ('A' for Active; 'I' for Inactive)
    1  A    between atoms: C_2  and  C_19
    2  A    between atoms: C_11  and  O_28
    3  A    between atoms: C_25  and  C_26
    4  A    between atoms: O_28  and  S_30
                            x       y       z     vdW  Elec       q    Type
                         _______ _______ _______ _____ _____    ______ ____

>  <TORSDO>
F 4

$$$$
=
 OpenBabel11112416243D

 30 34  0  0  1  0  0  0  0  0999 V2000
  190.0900  175.9680  143.3360 C   0  0  2  0  0  3  0  0  0  0  0  0
  190.9620  177.1660  147.2950 O   0  0  0  0  0  0  0  0  0  0  0  0
  188.9800  176.3470  144.3440 C   0  0  2  0  0  3  0  0  0  0  0  0
  189.5070  175.0040  142.3090 C   0  0  0  0  0  2  0  0  0  0  0  0
  186.3750  176.9590  141.7130 O   0  0  0  0  0  1  0  0  0  0  0  0
  186.5060  176.9520  145.7340 C   0  0  1  0  0  3  0  0  0  0  0  0
  187.3060  176.2330  142.4600 C   0  0  1  0  0  3  0  0  0  0  0  0
  187.3980  177.3800  146.8910 C   0  0  2  0  0  3  0  0  0  0  0  0
  189.7710  177.8060  147.5920 C   0  0  0  0  0  0  0  0  0  0  0  0
  188.4000  175.7040  141.5250 C   0  0  2  0  0  3  0  0  0  0  0  0
  187.9100  177.1240  143.5590 C   0  0  1  0  0  3  0  0  0  0  0  0
  186.6920  178.5570  147.5250 C   0  0  0  0  0  2  0  0  0  0  0  0
  185.0910  177.2740  146.1950 C   0  0  0  0  0  2  0  0  0  0  0  0
  190.7260  176.4290  146.1110 C   0  0  1  0  0  3  0  0  0  0  0  0
  191.3930  175.4120  143.9710 C   0  0  2  0  0  3  0  0  0  0  0  0
  189.6120  177.2030  145.4380 C   0  0  2  0  0  3  0  0  0  0  0  0
  189.5610  178.3910  148.6860 O   0  0  0  0  0  0  0  0  0  0  0  0
  188.7970  177.7010  146.5560 N   0  0  0  0  0  0  0  0  0  0  0  0
  185.2120  178.2900  147.3240 C   0  0  0  0  0  2  0  0  0  0  0  0
  186.3030  178.7310  144.1670 O   0  0  0  0  0  0  0  0  0  0  0  0
  191.8940  176.2670  145.1580 C   0  0  2  0  0  3  0  0  0  0  0  0
  186.8420  177.6720  144.4560 C   0  0  0  0  0  0  0  0  0  0  0  0
  192.4600  175.2970  142.9250 C   0  0  0  0  0  0  0  0  0  0  0  0
  192.9490  176.3370  142.4150 O   0  0  0  0  0  0  0  0  0  0  0  0
  192.9150  174.0480  142.5180 O   0  0  0  0  0  1  0  0  0  0  0  0
  194.0850  176.4460  146.1040 O   0  0  0  0  0  1  0  0  0  0  0  0
  193.0410  175.5530  145.8640 C   0  0  0  0  0  2  0  0  0  0  0  0
  187.8470  174.8080  140.6060 O   0  0  0  0  0  0  0  0  0  0  0  0
  188.2730  172.6650  139.2780 C   0  0  0  0  0  1  0  0  0  0  0  0
  188.6030  173.3010  140.9460 S   0  0  0  0  0  0  0  0  0  0  0  0
  1  4  1  6  0  0  0
  1 15  1  0  0  0  0
  1  3  1  0  0  0  0
  2  9  1  0  0  0  0
  3 16  1  0  0  0  0
  5  7  1  0  0  0  0
  6 13  1  0  0  0  0
  6  8  1  0  0  0  0
  7 11  1  0  0  0  0
  8 12  1  0  0  0  0
  9 17  2  0  0  0  0
 10  4  1  0  0  0  0
 10  7  1  0  0  0  0
 11  3  1  0  0  0  0
 11 22  1  0  0  0  0
 13 19  1  0  0  0  0
 14  2  1  0  0  0  0
 15 21  1  0  0  0  0
 16 14  1  0  0  0  0
 16 18  1  0  0  0  0
 18  8  1  0  0  0  0
 18  9  1  0  0  0  0
 19 12  1  0  0  0  0
 20 22  2  0  0  0  0
 21 27  1  0  0  0  0
 21 14  1  0  0  0  0
 22  6  1  0  0  0  0
 23 15  1  0  0  0  0
 24 23  2  0  0  0  0
 25 23  1  0  0  0  0
 27 26  1  0  0  0  0
 28 30  1  0  0  0  0
 28 10  1  0  0  0  0
 29 30  1  0  0  0  0
M  END
>  <MODEL>
4

>  <REMARK>
 VINA RESULT:      -7.1      1.960      2.519
  Name = 
  4 active torsions:
  status: ('A' for Active; 'I' for Inactive)
    1  A    between atoms: C_2  and  C_19
    2  A    between atoms: C_11  and  O_28
    3  A    between atoms: C_25  and  C_26
    4  A    between atoms: O_28  and  S_30
                            x       y       z     vdW  Elec       q    Type
                         _______ _______ _______ _____ _____    ______ ____

>  <TORSDO>
F 4

$$$$
=
 OpenBabel11112416243D

 30 34  0  0  1  0  0  0  0  0999 V2000
  188.6730  175.3430  143.5600 C   0  0  2  0  0  3  0  0  0  0  0  0
  185.3210  177.6180  142.3530 O   0  0  0  0  0  0  0  0  0  0  0  0
  187.9930  176.3660  144.4990 C   0  0  2  0  0  3  0  0  0  0  0  0
  190.1330  175.1950  143.9760 C   0  0  0  0  0  2  0  0  0  0  0  0
  189.4380  174.9070  147.6390 O   0  0  0  0  0  1  0  0  0  0  0  0
  187.1530  178.0780  146.6860 C   0  0  1  0  0  3  0  0  0  0  0  0
  189.4390  175.5180  146.3830 C   0  0  1  0  0  3  0  0  0  0  0  0
  185.9990  178.4760  145.7760 C   0  0  2  0  0  3  0  0  0  0  0  0
  184.8460  177.9770  143.6030 C   0  0  0  0  0  0  0  0  0  0  0  0
  190.2030  174.6310  145.3930 C   0  0  2  0  0  3  0  0  0  0  0  0
  187.9950  175.7510  145.9080 C   0  0  1  0  0  3  0  0  0  0  0  0
  184.8150  178.6710  146.6960 C   0  0  0  0  0  2  0  0  0  0  0  0
  186.8810  178.8020  147.9980 C   0  0  0  0  0  2  0  0  0  0  0  0
  186.6240  177.1110  142.5620 C   0  0  1  0  0  3  0  0  0  0  0  0
  188.5360  175.6490  142.0440 C   0  0  2  0  0  3  0  0  0  0  0  0
  186.5750  176.6020  143.9870 C   0  0  2  0  0  3  0  0  0  0  0  0
  183.7920  178.6460  143.7700 O   0  0  0  0  0  0  0  0  0  0  0  0
  185.6850  177.5490  144.6740 N   0  0  0  0  0  0  0  0  0  0  0  0
  185.4030  179.1720  148.0020 C   0  0  0  0  0  2  0  0  0  0  0  0
  186.6360  176.0430  147.8060 O   0  0  0  0  0  0  0  0  0  0  0  0
  187.0890  176.0060  141.6320 C   0  0  2  0  0  3  0  0  0  0  0  0
  187.2340  176.5890  146.8900 C   0  0  0  0  0  0  0  0  0  0  0  0
  189.0320  174.4840  141.2430 C   0  0  0  0  0  0  0  0  0  0  0  0
  190.1610  174.5400  140.6910 O   0  0  0  0  0  0  0  0  0  0  0  0
  188.2540  173.3400  141.1090 O   0  0  0  0  0  1  0  0  0  0  0  0
  187.3410  177.8690  140.1500 O   0  0  0  0  0  1  0  0  0  0  0  0
  187.0660  176.5010  140.1910 C   0  0  0  0  0  2  0  0  0  0  0  0
  191.5410  174.5260  145.7820 O   0  0  0  0  0  0  0  0  0  0  0  0
  193.2720  176.4070  145.7570 C   0  0  0  0  0  1  0  0  0  0  0  0
  192.4250  175.3430  144.5530 S   0  0  0  0  0  0  0  0  0  0  0  0
  1  4  1  1  0  0  0
  1  3  1  0  0  0  0
  2 14  1  0  0  0  0
  2  9  1  0  0  0  0
  3 11  1  0  0  0  0
  4 10  1  0  0  0  0
  6 22  1  0  0  0  0
  6 13  1  0  0  0  0
  7  5  1  0  0  0  0
  8  6  1  0  0  0  0
  8 12  1  0  0  0  0
  9 17  2  0  0  0  0
  9 18  1  0  0  0  0
 10 28  1  0  0  0  0
 10  7  1  0  0  0  0
 11  7  1  0  0  0  0
 11 22  1  0  0  0  0
 12 19  1  0  0  0  0
 13 19  1  0  0  0  0
 14 16  1  0  0  0  0
 15  1  1  0  0  0  0
 16  3  1  0  0  0  0
 16 18  1  0  0  0  0
 18  8  1  0  0  0  0
 21 15  1  0  0  0  0
 21 14  1  0  0  0  0
 22 20  2  0  0  0  0
 23 15  1  0  0  0  0
 24 23  2  0  0  0  0
 25 23  1  0  0  0  0
 26 27  1  0  0  0  0
 27 21  1  0  0  0  0
 30 29  1  0  0  0  0
 30 28  1  0  0  0  0
M  END
>  <MODEL>
5

>  <REMARK>
 VINA RESULT:      -6.8      1.768      5.003
  Name = 
  4 active torsions:
  status: ('A' for Active; 'I' for Inactive)
    1  A    between atoms: C_2  and  C_19
    2  A    between atoms: C_11  and  O_28
    3  A    between atoms: C_25  and  C_26
    4  A    between atoms: O_28  and  S_30
                            x       y       z     vdW  Elec       q    Type
                         _______ _______ _______ _____ _____    ______ ____

>  <TORSDO>
F 4

$$$$
=
 OpenBabel11112416243D

 30 34  0  0  1  0  0  0  0  0999 V2000
  188.9120  174.6670  142.0350 C   0  0  2  0  0  3  0  0  0  0  0  0
  192.3890  172.6460  143.3360 O   0  0  0  0  0  0  0  0  0  0  0  0
  189.4940  174.8620  143.4540 C   0  0  2  0  0  3  0  0  0  0  0  0
  187.4150  174.9560  142.0780 C   0  0  0  0  0  2  0  0  0  0  0  0
  187.7100  178.1050  144.0720 O   0  0  0  0  0  1  0  0  0  0  0  0
  190.1050  175.6530  146.1780 C   0  0  1  0  0  3  0  0  0  0  0  0
  187.8480  176.7400  143.8130 C   0  0  1  0  0  3  0  0  0  0  0  0
  191.3520  174.7940  146.0230 C   0  0  2  0  0  3  0  0  0  0  0  0
  192.7300  173.4670  144.3960 C   0  0  0  0  0  0  0  0  0  0  0  0
  187.1890  176.4140  142.4660 C   0  0  2  0  0  3  0  0  0  0  0  0
  189.3360  176.3520  143.8010 C   0  0  1  0  0  3  0  0  0  0  0  0
  192.4320  175.5150  146.7980 C   0  0  0  0  0  2  0  0  0  0  0  0
  190.2390  176.2870  147.5560 C   0  0  0  0  0  2  0  0  0  0  0  0
  191.0670  172.9980  142.9770 C   0  0  1  0  0  3  0  0  0  0  0  0
  189.2130  173.2900  141.3840 C   0  0  2  0  0  3  0  0  0  0  0  0
  190.9600  174.4410  143.4220 C   0  0  2  0  0  3  0  0  0  0  0  0
  193.7630  173.2940  145.0940 O   0  0  0  0  0  0  0  0  0  0  0  0
  191.7770  174.5000  144.6430 N   0  0  0  0  0  0  0  0  0  0  0  0
  191.7100  176.2020  147.9430 C   0  0  0  0  0  2  0  0  0  0  0  0
  190.4850  177.8090  145.2480 O   0  0  0  0  0  0  0  0  0  0  0  0
  190.6980  172.8780  141.5110 C   0  0  2  0  0  3  0  0  0  0  0  0
  189.9930  176.7000  145.1030 C   0  0  0  0  0  0  0  0  0  0  0  0
  188.7990  173.3060  139.9440 C   0  0  0  0  0  0  0  0  0  0  0  0
  189.3350  174.1190  139.1490 O   0  0  0  0  0  0  0  0  0  0  0  0
  187.8280  172.4260  139.4820 O   0  0  0  0  0  1  0  0  0  0  0  0
  190.2590  170.5660  141.9460 O   0  0  0  0  0  1  0  0  0  0  0  0
  190.8790  171.4370  141.0490 C   0  0  0  0  0  2  0  0  0  0  0  0
  185.8160  176.6670  142.5350 O   0  0  0  0  0  0  0  0  0  0  0  0
  183.8390  178.1750  141.9420 C   0  0  0  0  0  1  0  0  0  0  0  0
  185.5290  177.8760  141.3470 S   0  0  0  0  0  0  0  0  0  0  0  0
  1  4  1  1  0  0  0
  1  3  1  0  0  0  0
  2  9  1  0  0  0  0
  3 11  1  0  0  0  0
  4 10  1  0  0  0  0
  6 13  1  0  0  0  0
  7  5  1  0  0  0  0
  8  6  1  0  0  0  0
  8 12  1  0  0  0  0
  9 18  1  0  0  0  0
  9 17  2  0  0  0  0
 10 28  1  0  0  0  0
 10  7  1  0  0  0  0
 11  7  1  0  0  0  0
 11 22  1  0  0  0  0
 12 19  1  0  0  0  0
 13 19  1  0  0  0  0
 14  2  1  0  0  0  0
 14 16  1  0  0  0  0
 15 21  1  0  0  0  0
 15  1  1  0  0  0  0
 16  3  1  0  0  0  0
 16 18  1  0  0  0  0
 18  8  1  0  0  0  0
 21 14  1  0  0  0  0
 22 20  2  0  0  0  0
 22  6  1  0  0  0  0
 23 15  1  0  0  0  0
 24 23  2  0  0  0  0
 25 23  1  0  0  0  0
 27 21  1  0  0  0  0
 27 26  1  0  0  0  0
 30 29  1  0  0  0  0
 30 28  1  0  0  0  0
M  END
>  <MODEL>
6

>  <REMARK>
 VINA RESULT:      -6.5      2.626      6.080
  Name = 
  4 active torsions:
  status: ('A' for Active; 'I' for Inactive)
    1  A    between atoms: C_2  and  C_19
    2  A    between atoms: C_11  and  O_28
    3  A    between atoms: C_25  and  C_26
    4  A    between atoms: O_28  and  S_30
                            x       y       z     vdW  Elec       q    Type
                         _______ _______ _______ _____ _____    ______ ____

>  <TORSDO>
F 4

$$$$
=
 OpenBabel11112416243D

 30 34  0  0  1  0  0  0  0  0999 V2000
  186.7750  176.6700  141.6350 C   0  0  2  0  0  3  0  0  0  0  0  0
  187.4530  177.8970  145.6230 O   0  0  0  0  0  0  0  0  0  0  0  0
  188.0200  176.2200  142.4330 C   0  0  2  0  0  3  0  0  0  0  0  0
  187.1120  176.6440  140.1480 C   0  0  0  0  0  2  0  0  0  0  0  0
  188.7640  173.2900  140.2100 O   0  0  0  0  0  1  0  0  0  0  0  0
  190.4880  175.0370  143.3980 C   0  0  1  0  0  3  0  0  0  0  0  0
  188.5810  174.6300  140.5570 C   0  0  1  0  0  3  0  0  0  0  0  0
  190.1340  175.6770  144.7330 C   0  0  2  0  0  3  0  0  0  0  0  0
  188.3540  176.9160  145.9980 C   0  0  0  0  0  0  0  0  0  0  0  0
  187.4330  175.2130  139.7240 C   0  0  2  0  0  3  0  0  0  0  0  0
  188.2830  174.7510  142.0600 C   0  0  1  0  0  3  0  0  0  0  0  0
  190.6080  174.6960  145.7830 C   0  0  0  0  0  2  0  0  0  0  0  0
  191.7550  174.2390  143.6720 C   0  0  0  0  0  2  0  0  0  0  0  0
  187.3580  177.8220  144.2140 C   0  0  1  0  0  3  0  0  0  0  0  0
  186.1770  178.0370  142.0640 C   0  0  2  0  0  3  0  0  0  0  0  0
  187.7080  176.3800  143.9180 C   0  0  2  0  0  3  0  0  0  0  0  0
  188.8280  176.8270  147.1610 O   0  0  0  0  0  0  0  0  0  0  0  0
  188.7210  176.0440  144.9300 N   0  0  0  0  0  0  0  0  0  0  0  0
  191.8270  174.0230  145.1790 C   0  0  0  0  0  2  0  0  0  0  0  0
  189.3420  172.9640  143.1650 O   0  0  0  0  0  0  0  0  0  0  0  0
  186.0160  178.1670  143.5970 C   0  0  2  0  0  3  0  0  0  0  0  0
  189.3860  174.1520  142.8780 C   0  0  0  0  0  0  0  0  0  0  0  0
  184.8610  178.2540  141.3820 C   0  0  0  0  0  0  0  0  0  0  0  0
  184.8260  178.8030  140.2510 O   0  0  0  0  0  0  0  0  0  0  0  0
  183.6780  177.8500  141.9900 O   0  0  0  0  0  1  0  0  0  0  0  0
  184.5330  179.5950  144.8180 O   0  0  0  0  0  1  0  0  0  0  0  0
  185.6330  179.5970  143.9590 C   0  0  0  0  0  2  0  0  0  0  0  0
  187.7720  175.1980  138.3690 O   0  0  0  0  0  0  0  0  0  0  0  0
  187.4050  176.0510  135.9870 C   0  0  0  0  0  1  0  0  0  0  0  0
  186.5990  176.1990  137.6070 S   0  0  0  0  0  0  0  0  0  0  0  0
  1  4  1  6  0  0  0
  1 15  1  0  0  0  0
  1  3  1  0  0  0  0
  2  9  1  0  0  0  0
  3 16  1  0  0  0  0
  5  7  1  0  0  0  0
  6 13  1  0  0  0  0
  6  8  1  0  0  0  0
  7 11  1  0  0  0  0
  8 18  1  0  0  0  0
  8 12  1  0  0  0  0
  9 17  2  0  0  0  0
 10  4  1  0  0  0  0
 10  7  1  0  0  0  0
 11  3  1  0  0  0  0
 11 22  1  0  0  0  0
 13 19  1  0  0  0  0
 14  2  1  0  0  0  0
 15 21  1  0  0  0  0
 16 14  1  0  0  0  0
 16 18  1  0  0  0  0
 18  9  1  0  0  0  0
 19 12  1  0  0  0  0
 21 27  1  0  0  0  0
 21 14  1  0  0  0  0
 22 20  2  0  0  0  0
 22  6  1  0  0  0  0
 23 25  1  0  0  0  0
 23 15  1  0  0  0  0
 24 23  2  0  0  0  0
 27 26  1  0  0  0  0
 28 10  1  0  0  0  0
 29 30  1  0  0  0  0
 30 28  1  0  0  0  0
M  END
>  <MODEL>
7

>  <REMARK>
 VINA RESULT:      -6.4      2.082      5.563
  Name = 
  4 active torsions:
  status: ('A' for Active; 'I' for Inactive)
    1  A    between atoms: C_2  and  C_19
    2  A    between atoms: C_11  and  O_28
    3  A    between atoms: C_25  and  C_26
    4  A    between atoms: O_28  and  S_30
                            x       y       z     vdW  Elec       q    Type
                         _______ _______ _______ _____ _____    ______ ____

>  <TORSDO>
F 4

$$$$
=
 OpenBabel11112416243D

 30 34  0  0  1  0  0  0  0  0999 V2000
  188.6930  175.6640  143.1720 C   0  0  2  0  0  3  0  0  0  0  0  0
  189.4240  177.6060  146.8540 O   0  0  0  0  0  0  0  0  0  0  0  0
  190.1060  175.7370  143.7970 C   0  0  2  0  0  3  0  0  0  0  0  0
  188.8350  175.5260  141.6600 C   0  0  0  0  0  2  0  0  0  0  0  0
  191.4770  172.8820  141.7840 O   0  0  0  0  0  1  0  0  0  0  0  0
  192.9220  175.5170  144.4580 C   0  0  1  0  0  3  0  0  0  0  0  0
  190.9150  174.1390  142.0210 C   0  0  1  0  0  3  0  0  0  0  0  0
  192.5480  176.2060  145.7630 C   0  0  2  0  0  3  0  0  0  0  0  0
  190.6330  177.0130  147.1720 C   0  0  0  0  0  0  0  0  0  0  0  0
  189.5460  174.2150  141.3330 C   0  0  2  0  0  3  0  0  0  0  0  0
  190.7820  174.3810  143.5330 C   0  0  1  0  0  3  0  0  0  0  0  0
  193.4400  175.5810  146.8140 C   0  0  0  0  0  2  0  0  0  0  0  0
  194.4030  175.1940  144.6000 C   0  0  0  0  0  2  0  0  0  0  0  0
  189.1850  177.3020  145.4940 C   0  0  1  0  0  3  0  0  0  0  0  0
  187.7440  176.8300  143.5550 C   0  0  2  0  0  3  0  0  0  0  0  0
  189.9440  176.0090  145.2900 C   0  0  2  0  0  3  0  0  0  0  0  0
  191.2500  177.2440  148.2460 O   0  0  0  0  0  0  0  0  0  0  0  0
  191.1280  176.1490  146.1510 N   0  0  0  0  0  0  0  0  0  0  0  0
  194.7260  175.2320  146.0880 C   0  0  0  0  0  2  0  0  0  0  0  0
  192.4900  173.1830  144.6220 O   0  0  0  0  0  0  0  0  0  0  0  0
  187.7390  177.1270  145.0730 C   0  0  2  0  0  3  0  0  0  0  0  0
  192.1110  174.2730  144.2160 C   0  0  0  0  0  0  0  0  0  0  0  0
  186.3540  176.5330  143.0790 C   0  0  0  0  0  0  0  0  0  0  0  0
  185.6670  175.6570  143.6640 O   0  0  0  0  0  1  0  0  0  0  0  0
  185.8180  177.2220  141.9970 O   0  0  0  0  0  0  0  0  0  0  0  0
  185.9440  178.1610  146.2710 O   0  0  0  0  0  1  0  0  0  0  0  0
  186.9620  178.4080  145.3500 C   0  0  0  0  0  2  0  0  0  0  0  0
  189.7020  174.1070  139.9490 O   0  0  0  0  0  0  0  0  0  0  0  0
  188.3630  173.8150  137.7910 C   0  0  0  0  0  1  0  0  0  0  0  0
  188.4360  173.0600  139.4410 S   0  0  0  0  0  0  0  0  0  0  0  0
  1  4  1  6  0  0  0
  1 15  1  0  0  0  0
  1  3  1  0  0  0  0
  2  9  1  0  0  0  0
  3 16  1  0  0  0  0
  5  7  1  0  0  0  0
  6 13  1  0  0  0  0
  6  8  1  0  0  0  0
  7 11  1  0  0  0  0
  8 18  1  0  0  0  0
  8 12  1  0  0  0  0
  9 17  2  0  0  0  0
 10  4  1  0  0  0  0
 10  7  1  0  0  0  0
 11  3  1  0  0  0  0
 11 22  1  0  0  0  0
 13 19  1  0  0  0  0
 14  2  1  0  0  0  0
 15 21  1  0  0  0  0
 16 14  1  0  0  0  0
 16 18  1  0  0  0  0
 18  9  1  0  0  0  0
 19 12  1  0  0  0  0
 21 27  1  0  0  0  0
 21 14  1  0  0  0  0
 22  6  1  0  0  0  0
 22 20  2  0  0  0  0
 23 15  1  0  0  0  0
 23 24  1  0  0  0  0
 25 23  2  0  0  0  0
 27 26  1  0  0  0  0
 28 10  1  0  0  0  0
 29 30  1  0  0  0  0
 30 28  1  0  0  0  0
M  END
>  <MODEL>
8

>  <REMARK>
 VINA RESULT:      -6.3      2.215      5.707
  Name = 
  4 active torsions:
  status: ('A' for Active; 'I' for Inactive)
    1  A    between atoms: C_2  and  C_19
    2  A    between atoms: C_11  and  O_28
    3  A    between atoms: C_25  and  C_26
    4  A    between atoms: O_28  and  S_30
                            x       y       z     vdW  Elec       q    Type
                         _______ _______ _______ _____ _____    ______ ____

>  <TORSDO>
F 4

$$$$
=
 OpenBabel11112416243D

 30 34  0  0  1  0  0  0  0  0999 V2000
  188.9910  176.0780  144.4120 C   0  0  2  0  0  3  0  0  0  0  0  0
  191.7940  173.0410  145.3020 O   0  0  0  0  0  0  0  0  0  0  0  0
  189.6510  175.2190  143.3080 C   0  0  2  0  0  3  0  0  0  0  0  0
  188.5920  177.4210  143.8130 C   0  0  0  0  0  2  0  0  0  0  0  0
  187.0470  175.9940  140.7210 O   0  0  0  0  0  1  0  0  0  0  0  0
  190.5100  173.9500  140.8440 C   0  0  1  0  0  3  0  0  0  0  0  0
  188.0700  176.2510  141.6360 C   0  0  1  0  0  3  0  0  0  0  0  0
  191.2970  173.0060  141.7430 C   0  0  2  0  0  3  0  0  0  0  0  0
  191.7100  172.3210  144.1230 C   0  0  0  0  0  0  0  0  0  0  0  0
  187.5490  177.2020  142.7200 C   0  0  2  0  0  3  0  0  0  0  0  0
  188.5680  174.9350  142.2550 C   0  0  1  0  0  3  0  0  0  0  0  0
  191.2340  171.6590  141.0590 C   0  0  0  0  0  2  0  0  0  0  0  0
  190.7260  173.4160  139.4360 C   0  0  0  0  0  2  0  0  0  0  0  0
  191.1490  174.2750  145.0530 C   0  0  1  0  0  3  0  0  0  0  0  0
  189.8350  176.2530  145.7030 C   0  0  2  0  0  3  0  0  0  0  0  0
  190.1630  173.9360  143.9560 C   0  0  2  0  0  3  0  0  0  0  0  0
  192.3500  171.2550  143.9230 O   0  0  0  0  0  0  0  0  0  0  0  0
  190.8600  172.9240  143.1480 N   0  0  0  0  0  0  0  0  0  0  0  0
  191.1800  171.9680  139.5740 C   0  0  0  0  0  2  0  0  0  0  0  0
  188.2530  173.2170  140.6790 O   0  0  0  0  0  0  0  0  0  0  0  0
  190.4260  174.9200  146.2190 C   0  0  2  0  0  3  0  0  0  0  0  0
  189.0470  173.9890  141.1960 C   0  0  0  0  0  0  0  0  0  0  0  0
  189.0070  176.9020  146.7690 C   0  0  0  0  0  0  0  0  0  0  0  0
  189.4460  177.9160  147.3710 O   0  0  0  0  0  1  0  0  0  0  0  0
  187.7550  176.3930  147.0960 O   0  0  0  0  0  0  0  0  0  0  0  0
  192.4550  175.9950  146.8930 O   0  0  0  0  0  1  0  0  0  0  0  0
  191.4110  175.1920  147.3510 C   0  0  0  0  0  2  0  0  0  0  0  0
  187.2090  178.4320  142.1520 O   0  0  0  0  0  0  0  0  0  0  0  0
  184.6750  178.1020  142.2320 C   0  0  0  0  0  1  0  0  0  0  0  0
  185.9380  179.0400  143.1390 S   0  0  0  0  0  0  0  0  0  0  0  0
  1  4  1  6  0  0  0
  1 15  1  0  0  0  0
  3 16  1  0  0  0  0
  3  1  1  0  0  0  0
  5  7  1  0  0  0  0
  6 22  1  0  0  0  0
  6  8  1  0  0  0  0
  7 11  1  0  0  0  0
  7 10  1  0  0  0  0
  8 18  1  0  0  0  0
  9  2  1  0  0  0  0
 10  4  1  0  0  0  0
 11  3  1  0  0  0  0
 12  8  1  0  0  0  0
 13 19  1  0  0  0  0
 13  6  1  0  0  0  0
 14  2  1  0  0  0  0
 14 21  1  0  0  0  0
 15 21  1  0  0  0  0
 15 23  1  0  0  0  0
 16 14  1  0  0  0  0
 17  9  2  0  0  0  0
 18 16  1  0  0  0  0
 18  9  1  0  0  0  0
 19 12  1  0  0  0  0
 20 22  2  0  0  0  0
 21 27  1  0  0  0  0
 22 11  1  0  0  0  0
 23 25  2  0  0  0  0
 23 24  1  0  0  0  0
 26 27  1  0  0  0  0
 28 10  1  0  0  0  0
 28 30  1  0  0  0  0
 29 30  1  0  0  0  0
M  END
>  <MODEL>
9

>  <REMARK>
 VINA RESULT:      -6.2      2.400      5.900
  Name = 
  4 active torsions:
  status: ('A' for Active; 'I' for Inactive)
    1  A    between atoms: C_2  and  C_19
    2  A    between atoms: C_11  and  O_28
    3  A    between atoms: C_25  and  C_26
    4  A    between atoms: O_28  and  S_30
                            x       y       z     vdW  Elec       q    Type
                         _______ _______ _______ _____ _____    ______ ____

>  <TORSDO>
F 4

$$$$
