=
 OpenBabel11112416233D

 30 35  0  0  1  0  0  0  0  0999 V2000
  186.8940  176.6680  143.8050 C   0  0  2  0  0  3  0  0  0  0  0  0
  185.0410  178.0300  144.9110 C   0  0  0  0  0  0  0  0  0  0  0  0
  189.1170  177.0210  147.4250 O   0  0  0  0  0  0  0  0  0  0  0  0
  188.3290  176.0590  144.0030 C   0  0  1  0  0  3  0  0  0  0  0  0
  186.8560  177.4960  142.6640 O   0  0  0  0  0  0  0  0  0  0  0  0
  188.1290  174.4970  141.1550 C   0  0  0  0  0  1  0  0  0  0  0  0
  191.6420  176.4890  143.2560 C   0  0  1  0  0  3  0  0  0  0  0  0
  188.3230  175.9810  141.4310 C   0  0  1  0  0  3  0  0  0  0  0  0
  191.5370  176.9690  144.7180 C   0  0  2  0  0  3  0  0  0  0  0  0
  190.4030  176.7390  146.9930 C   0  0  0  0  0  0  0  0  0  0  0  0
  186.9360  176.6360  141.5500 C   0  0  2  0  0  3  0  0  0  0  0  0
  189.1370  176.2300  142.7120 C   0  0  2  0  0  3  0  0  0  0  0  0
  184.5020  178.7090  146.0090 C   0  0  0  0  0  3  0  0  0  0  0  0
  192.9070  176.6760  145.2650 C   0  0  0  0  0  2  0  0  0  0  0  0
  192.8800  175.8530  143.0600 O   0  0  0  0  0  0  0  0  0  0  0  0
  184.3170  177.9870  143.7260 O   0  0  0  0  0  1  0  0  0  0  0  0
  188.2260  176.6380  146.3980 C   0  0  2  0  0  3  0  0  0  0  0  0
  185.1910  178.7500  147.2230 C   0  0  0  0  0  3  0  0  0  0  0  0
  186.2970  177.4000  145.0130 C   0  0  0  0  0  0  0  0  0  0  0  0
  189.0480  176.7670  145.1420 C   0  0  1  0  0  3  0  0  0  0  0  0
  191.4050  176.8100  147.7530 O   0  0  0  0  0  0  0  0  0  0  0  0
  190.4390  176.2850  145.5630 C   0  0  1  0  0  3  0  0  0  0  0  0
  193.7300  176.3870  144.0370 C   0  0  0  0  0  2  0  0  0  0  0  0
  190.6740  174.4280  142.5770 O   0  0  0  0  0  0  0  0  0  0  0  0
  186.4230  178.1080  147.3500 C   0  0  0  0  0  3  0  0  0  0  0  0
  186.9840  177.4470  146.2530 C   0  0  0  0  0  0  0  0  0  0  0  0
  190.5060  175.6210  142.7820 C   0  0  0  0  0  0  0  0  0  0  0  0
  186.6490  177.3470  140.3850 O   0  0  0  0  0  0  0  0  0  0  0  0
  184.4550  177.9050  140.1360 O   0  0  0  0  0  1  0  0  0  0  0  0
  185.6540  178.2520  140.7570 C   0  0  0  0  0  2  0  0  0  0  0  0
  1  5  1  6  0  0  0
  1  4  1  0  0  0  0
  1 19  1  0  0  0  0
  2 19  2  0  0  0  0
  2 13  1  0  0  0  0
  4 20  1  0  0  0  0
  6  8  1  0  0  0  0
  7  9  1  0  0  0  0
  8 11  1  0  0  0  0
  8 12  1  0  0  0  0
  9 14  1  0  0  0  0
  9 22  1  0  0  0  0
 10  3  1  0  0  0  0
 10 21  2  0  0  0  0
 11  5  1  0  0  0  0
 12 27  1  0  0  0  0
 12  4  1  0  0  0  0
 13 18  2  0  0  0  0
 15  7  1  0  0  0  0
 15 23  1  0  0  0  0
 16  2  1  0  0  0  0
 17  3  1  0  0  0  0
 18 25  1  0  0  0  0
 19 26  1  0  0  0  0
 20 22  1  0  0  0  0
 20 17  1  0  0  0  0
 22 10  1  0  0  0  0
 23 14  1  0  0  0  0
 24 27  2  0  0  0  0
 26 17  1  0  0  0  0
 26 25  2  0  0  0  0
 27  7  1  0  0  0  0
 28 30  1  0  0  0  0
 28 11  1  0  0  0  0
 29 30  1  0  0  0  0
M  END
>  <MODEL>
1

>  <REMARK>
 VINA RESULT:      -9.2      0.000      0.000
  Name = 
  2 active torsions:
  status: ('A' for Active; 'I' for Inactive)
    1  A    between atoms: C_11  and  O_28
    2  A    between atoms: O_28  and  C_30
                            x       y       z     vdW  Elec       q    Type
                         _______ _______ _______ _____ _____    ______ ____

>  <TORSDO>
F 2

$$$$
=
 OpenBabel11112416233D

 30 35  0  0  1  0  0  0  0  0999 V2000
  188.4630  177.2810  145.1370 C   0  0  2  0  0  3  0  0  0  0  0  0
  186.5010  178.2860  146.4240 C   0  0  0  0  0  0  0  0  0  0  0  0
  186.2630  177.9470  141.5480 O   0  0  0  0  0  0  0  0  0  0  0  0
  188.9950  176.8900  143.7110 C   0  0  1  0  0  3  0  0  0  0  0  0
  188.4950  176.1700  146.0040 O   0  0  0  0  0  0  0  0  0  0  0  0
  191.9220  176.1600  144.9300 C   0  0  0  0  0  1  0  0  0  0  0  0
  189.5010  174.2650  141.5730 C   0  0  1  0  0  3  0  0  0  0  0  0
  190.6090  175.4000  145.0500 C   0  0  1  0  0  3  0  0  0  0  0  0
  188.2270  174.9380  141.0230 C   0  0  2  0  0  3  0  0  0  0  0  0
  186.8990  177.0880  140.6660 C   0  0  0  0  0  0  0  0  0  0  0  0
  189.8560  175.9280  146.2840 C   0  0  2  0  0  3  0  0  0  0  0  0
  189.7350  175.5520  143.7930 C   0  0  2  0  0  3  0  0  0  0  0  0
  185.2400  178.8870  146.4680 C   0  0  0  0  0  3  0  0  0  0  0  0
  188.2900  174.6200  139.5540 C   0  0  0  0  0  2  0  0  0  0  0  0
  190.2680  173.7690  140.5060 O   0  0  0  0  0  0  0  0  0  0  0  0
  187.1650  178.0260  147.6170 O   0  0  0  0  0  1  0  0  0  0  0  0
  187.0790  178.0650  142.6940 C   0  0  2  0  0  3  0  0  0  0  0  0
  184.5560  179.1850  145.2890 C   0  0  0  0  0  3  0  0  0  0  0  0
  187.0860  177.9540  145.1860 C   0  0  0  0  0  0  0  0  0  0  0  0
  187.8340  176.7620  142.7350 C   0  0  1  0  0  3  0  0  0  0  0  0
  186.5030  176.9160  139.4820 O   0  0  0  0  0  0  0  0  0  0  0  0
  188.1250  176.4610  141.2620 C   0  0  1  0  0  3  0  0  0  0  0  0
  189.3580  173.5610  139.4600 C   0  0  0  0  0  2  0  0  0  0  0  0
  191.4200  175.5530  142.1230 O   0  0  0  0  0  0  0  0  0  0  0  0
  185.1320  178.8890  144.0530 C   0  0  0  0  0  3  0  0  0  0  0  0
  186.3820  178.2660  143.9950 C   0  0  0  0  0  0  0  0  0  0  0  0
  190.3360  175.1230  142.4870 C   0  0  0  0  0  0  0  0  0  0  0  0
  189.9650  175.0110  147.3300 O   0  0  0  0  0  0  0  0  0  0  0  0
  191.0270  176.8330  148.1870 O   0  0  0  0  0  1  0  0  0  0  0  0
  191.0660  175.4450  148.0690 C   0  0  0  0  0  2  0  0  0  0  0  0
  1 19  1  6  0  0  0
  1  5  1  0  0  0  0
  2 13  1  0  0  0  0
  2 16  1  0  0  0  0
  3 17  1  0  0  0  0
  4 12  1  0  0  0  0
  4  1  1  0  0  0  0
  5 11  1  0  0  0  0
  6  8  1  0  0  0  0
  7 27  1  0  0  0  0
  8 11  1  0  0  0  0
  9 22  1  0  0  0  0
  9  7  1  0  0  0  0
 10 22  1  0  0  0  0
 10  3  1  0  0  0  0
 11 28  1  0  0  0  0
 12  8  1  0  0  0  0
 14  9  1  0  0  0  0
 15  7  1  0  0  0  0
 17 20  1  0  0  0  0
 17 26  1  0  0  0  0
 18 13  2  0  0  0  0
 19  2  2  0  0  0  0
 20  4  1  0  0  0  0
 21 10  2  0  0  0  0
 22 20  1  0  0  0  0
 23 14  1  0  0  0  0
 23 15  1  0  0  0  0
 24 27  2  0  0  0  0
 25 18  1  0  0  0  0
 26 25  2  0  0  0  0
 26 19  1  0  0  0  0
 27 12  1  0  0  0  0
 28 30  1  0  0  0  0
 30 29  1  0  0  0  0
M  END
>  <MODEL>
2

>  <REMARK>
 VINA RESULT:      -8.6      1.366      5.249
  Name = 
  2 active torsions:
  status: ('A' for Active; 'I' for Inactive)
    1  A    between atoms: C_11  and  O_28
    2  A    between atoms: O_28  and  C_30
                            x       y       z     vdW  Elec       q    Type
                         _______ _______ _______ _____ _____    ______ ____

>  <TORSDO>
F 2

$$$$
=
 OpenBabel11112416233D

 30 35  0  0  1  0  0  0  0  0999 V2000
  187.0320  177.5910  144.2850 C   0  0  2  0  0  3  0  0  0  0  0  0
  184.9180  178.5050  143.1850 C   0  0  0  0  0  0  0  0  0  0  0  0
  187.9910  175.7390  140.5670 O   0  0  0  0  0  0  0  0  0  0  0  0
  188.3150  176.7110  144.0610 C   0  0  1  0  0  3  0  0  0  0  0  0
  186.2870  177.1170  145.3830 O   0  0  0  0  0  0  0  0  0  0  0  0
  189.4710  177.5360  146.9880 C   0  0  0  0  0  1  0  0  0  0  0  0
  189.6950  173.6350  144.6540 C   0  0  1  0  0  3  0  0  0  0  0  0
  188.3230  176.6040  146.6320 C   0  0  1  0  0  3  0  0  0  0  0  0
  189.2630  173.5570  143.1750 C   0  0  2  0  0  3  0  0  0  0  0  0
  188.9040  174.7750  140.9610 C   0  0  0  0  0  0  0  0  0  0  0  0
  187.0340  177.4380  146.5340 C   0  0  2  0  0  3  0  0  0  0  0  0
  188.5720  175.8590  145.3080 C   0  0  2  0  0  3  0  0  0  0  0  0
  184.0800  178.6670  142.0770 C   0  0  0  0  0  3  0  0  0  0  0  0
  190.2500  172.5850  142.5900 C   0  0  0  0  0  2  0  0  0  0  0  0
  190.8870  172.9120  144.8330 O   0  0  0  0  0  0  0  0  0  0  0  0
  184.5440  179.0700  144.3990 O   0  0  0  0  0  1  0  0  0  0  0  0
  187.8200  176.6350  141.6460 C   0  0  2  0  0  3  0  0  0  0  0  0
  184.4370  178.1350  140.8370 C   0  0  0  0  0  3  0  0  0  0  0  0
  186.1210  177.7810  143.0660 C   0  0  0  0  0  0  0  0  0  0  0  0
  188.1210  175.7960  142.8600 C   0  0  1  0  0  3  0  0  0  0  0  0
  189.3920  173.9350  140.1590 O   0  0  0  0  0  0  0  0  0  0  0  0
  189.2770  174.8990  142.4090 C   0  0  1  0  0  3  0  0  0  0  0  0
  190.9060  171.9680  143.7980 C   0  0  0  0  0  2  0  0  0  0  0  0
  190.9110  175.5040  145.4730 O   0  0  0  0  0  0  0  0  0  0  0  0
  185.6380  177.4400  140.6940 C   0  0  0  0  0  3  0  0  0  0  0  0
  186.4730  177.2500  141.7990 C   0  0  0  0  0  0  0  0  0  0  0  0
  189.8170  175.0270  145.2150 C   0  0  0  0  0  0  0  0  0  0  0  0
  186.2540  177.2340  147.6730 O   0  0  0  0  0  0  0  0  0  0  0  0
  185.9550  179.4920  147.6600 O   0  0  0  0  0  1  0  0  0  0  0  0
  185.3060  178.2580  147.6420 C   0  0  0  0  0  2  0  0  0  0  0  0
  1 19  1  6  0  0  0
  1  5  1  0  0  0  0
  2 16  1  0  0  0  0
  3 10  1  0  0  0  0
  3 17  1  0  0  0  0
  4  1  1  0  0  0  0
  4 12  1  0  0  0  0
  5 11  1  0  0  0  0
  7 15  1  0  0  0  0
  7 27  1  0  0  0  0
  8  6  1  0  0  0  0
  9  7  1  0  0  0  0
 10 22  1  0  0  0  0
 11  8  1  0  0  0  0
 11 28  1  0  0  0  0
 12  8  1  0  0  0  0
 13  2  2  0  0  0  0
 14  9  1  0  0  0  0
 14 23  1  0  0  0  0
 17 26  1  0  0  0  0
 17 20  1  0  0  0  0
 18 13  1  0  0  0  0
 19  2  1  0  0  0  0
 20  4  1  0  0  0  0
 21 10  2  0  0  0  0
 22 20  1  0  0  0  0
 22  9  1  0  0  0  0
 23 15  1  0  0  0  0
 25 18  2  0  0  0  0
 25 26  1  0  0  0  0
 26 19  2  0  0  0  0
 27 12  1  0  0  0  0
 27 24  2  0  0  0  0
 30 29  1  0  0  0  0
 30 28  1  0  0  0  0
M  END
>  <MODEL>
3

>  <REMARK>
 VINA RESULT:      -8.5      2.104      4.958
  Name = 
  2 active torsions:
  status: ('A' for Active; 'I' for Inactive)
    1  A    between atoms: C_11  and  O_28
    2  A    between atoms: O_28  and  C_30
                            x       y       z     vdW  Elec       q    Type
                         _______ _______ _______ _____ _____    ______ ____

>  <TORSDO>
F 2

$$$$
=
 OpenBabel11112416233D

 30 35  0  0  1  0  0  0  0  0999 V2000
  189.5780  176.1820  143.5510 C   0  0  2  0  0  3  0  0  0  0  0  0
  191.5050  174.7560  144.4270 C   0  0  0  0  0  0  0  0  0  0  0  0
  189.1600  177.7750  147.4820 O   0  0  0  0  0  0  0  0  0  0  0  0
  188.4870  177.2410  143.9440 C   0  0  1  0  0  3  0  0  0  0  0  0
  188.9850  175.0540  142.9480 O   0  0  0  0  0  0  0  0  0  0  0  0
  187.6350  177.6170  140.8260 C   0  0  0  0  0  1  0  0  0  0  0  0
  185.1620  177.6550  144.6480 C   0  0  1  0  0  3  0  0  0  0  0  0
  187.3660  176.4520  141.7670 C   0  0  1  0  0  3  0  0  0  0  0  0
  185.8300  177.6820  146.0370 C   0  0  2  0  0  3  0  0  0  0  0  0
  187.8730  178.2870  147.4420 C   0  0  0  0  0  0  0  0  0  0  0  0
  188.5490  175.4720  141.6740 C   0  0  2  0  0  3  0  0  0  0  0  0
  187.1750  176.9140  143.2220 C   0  0  2  0  0  3  0  0  0  0  0  0
  192.3670  174.3490  145.4510 C   0  0  0  0  0  3  0  0  0  0  0  0
  184.9030  178.5560  146.8360 C   0  0  0  0  0  2  0  0  0  0  0  0
  184.0740  178.5450  144.6330 O   0  0  0  0  0  0  0  0  0  0  0  0
  191.6280  174.1710  143.1720 O   0  0  0  0  0  1  0  0  0  0  0  0
  189.5510  177.4930  146.1550 C   0  0  2  0  0  3  0  0  0  0  0  0
  192.2880  174.9350  146.7160 C   0  0  0  0  0  3  0  0  0  0  0  0
  190.5320  175.7460  144.6700 C   0  0  0  0  0  0  0  0  0  0  0  0
  188.2490  177.2190  145.4480 C   0  0  1  0  0  3  0  0  0  0  0  0
  187.3130  178.7930  148.4500 O   0  0  0  0  0  0  0  0  0  0  0  0
  187.2760  178.2260  146.0670 C   0  0  1  0  0  3  0  0  0  0  0  0
  183.6750  178.6640  145.9710 C   0  0  0  0  0  2  0  0  0  0  0  0
  186.0220  178.9540  142.8550 O   0  0  0  0  0  0  0  0  0  0  0  0
  191.3490  175.9360  146.9660 C   0  0  0  0  0  3  0  0  0  0  0  0
  190.4660  176.3340  145.9580 C   0  0  0  0  0  0  0  0  0  0  0  0
  186.0850  177.9100  143.4860 C   0  0  0  0  0  0  0  0  0  0  0  0
  188.1820  174.3610  140.9140 O   0  0  0  0  0  0  0  0  0  0  0  0
  187.2160  172.5430  141.8860 O   0  0  0  0  0  1  0  0  0  0  0  0
  188.3980  173.2690  141.7550 C   0  0  0  0  0  2  0  0  0  0  0  0
  1  5  1  1  0  0  0
  1  4  1  0  0  0  0
  1 19  1  0  0  0  0
  2 19  2  0  0  0  0
  2 13  1  0  0  0  0
  4 20  1  0  0  0  0
  6  8  1  0  0  0  0
  7  9  1  0  0  0  0
  8 12  1  0  0  0  0
  9 22  1  0  0  0  0
  9 14  1  0  0  0  0
 10  3  1  0  0  0  0
 10 21  2  0  0  0  0
 11  8  1  0  0  0  0
 11  5  1  0  0  0  0
 12 27  1  0  0  0  0
 12  4  1  0  0  0  0
 13 18  2  0  0  0  0
 15  7  1  0  0  0  0
 15 23  1  0  0  0  0
 16  2  1  0  0  0  0
 17  3  1  0  0  0  0
 18 25  1  0  0  0  0
 19 26  1  0  0  0  0
 20 22  1  0  0  0  0
 20 17  1  0  0  0  0
 22 10  1  0  0  0  0
 23 14  1  0  0  0  0
 24 27  2  0  0  0  0
 26 17  1  0  0  0  0
 26 25  2  0  0  0  0
 27  7  1  0  0  0  0
 28 11  1  0  0  0  0
 28 30  1  0  0  0  0
 30 29  1  0  0  0  0
M  END
>  <MODEL>
4

>  <REMARK>
 VINA RESULT:      -8.3      1.612      5.531
  Name = 
  2 active torsions:
  status: ('A' for Active; 'I' for Inactive)
    1  A    between atoms: C_11  and  O_28
    2  A    between atoms: O_28  and  C_30
                            x       y       z     vdW  Elec       q    Type
                         _______ _______ _______ _____ _____    ______ ____

>  <TORSDO>
F 2

$$$$
=
 OpenBabel11112416233D

 30 35  0  0  1  0  0  0  0  0999 V2000
  187.9660  175.6400  142.8680 C   0  0  2  0  0  3  0  0  0  0  0  0
  186.2650  177.4440  142.2640 C   0  0  0  0  0  0  0  0  0  0  0  0
  188.5690  177.6530  146.5760 O   0  0  0  0  0  0  0  0  0  0  0  0
  188.9820  175.1520  143.9630 C   0  0  1  0  0  3  0  0  0  0  0  0
  188.6080  175.7930  141.6230 O   0  0  0  0  0  0  0  0  0  0  0  0
  189.5210  172.3920  142.3260 C   0  0  0  0  0  1  0  0  0  0  0  0
  192.3010  175.0220  144.7920 C   0  0  1  0  0  3  0  0  0  0  0  0
  189.9800  173.8080  142.0090 C   0  0  1  0  0  3  0  0  0  0  0  0
  191.7550  176.1680  145.6680 C   0  0  2  0  0  3  0  0  0  0  0  0
  189.7940  177.1430  146.9760 C   0  0  0  0  0  0  0  0  0  0  0  0
  188.8910  174.4910  141.1620 C   0  0  2  0  0  3  0  0  0  0  0  0
  190.2510  174.6280  143.2830 C   0  0  2  0  0  3  0  0  0  0  0  0
  185.5380  178.5990  142.5690 C   0  0  0  0  0  3  0  0  0  0  0  0
  192.6610  176.1310  146.8670 C   0  0  0  0  0  2  0  0  0  0  0  0
  193.2940  174.3230  145.4990 O   0  0  0  0  0  0  0  0  0  0  0  0
  186.0900  176.8470  141.0210 O   0  0  0  0  0  1  0  0  0  0  0  0
  188.0940  176.8470  145.5190 C   0  0  2  0  0  3  0  0  0  0  0  0
  185.6690  179.2090  143.8170 C   0  0  0  0  0  3  0  0  0  0  0  0
  187.1570  176.8980  143.2080 C   0  0  0  0  0  0  0  0  0  0  0  0
  189.3490  176.3030  144.8890 C   0  0  1  0  0  3  0  0  0  0  0  0
  190.3890  177.5420  148.0130 O   0  0  0  0  0  0  0  0  0  0  0  0
  190.2730  176.0380  146.0810 C   0  0  1  0  0  3  0  0  0  0  0  0
  193.7950  175.2380  146.4350 C   0  0  0  0  0  2  0  0  0  0  0  0
  191.1690  172.9360  144.6690 O   0  0  0  0  0  0  0  0  0  0  0  0
  186.5270  178.6660  144.7740 C   0  0  0  0  0  3  0  0  0  0  0  0
  187.2790  177.5260  144.4730 C   0  0  0  0  0  0  0  0  0  0  0  0
  191.2600  174.0790  144.2470 C   0  0  0  0  0  0  0  0  0  0  0  0
  189.2940  174.5410  139.8280 O   0  0  0  0  0  0  0  0  0  0  0  0
  188.1910  172.6890  139.0940 O   0  0  0  0  0  1  0  0  0  0  0  0
  188.1910  174.0820  139.1060 C   0  0  0  0  0  2  0  0  0  0  0  0
  1  5  1  6  0  0  0
  1 19  1  0  0  0  0
  1  4  1  0  0  0  0
  2 13  2  0  0  0  0
  2 19  1  0  0  0  0
  3 10  1  0  0  0  0
  4 20  1  0  0  0  0
  7 15  1  0  0  0  0
  7  9  1  0  0  0  0
  8  6  1  0  0  0  0
  8 12  1  0  0  0  0
  9 22  1  0  0  0  0
  9 14  1  0  0  0  0
 10 21  2  0  0  0  0
 11  5  1  0  0  0  0
 11  8  1  0  0  0  0
 12  4  1  0  0  0  0
 12 27  1  0  0  0  0
 13 18  1  0  0  0  0
 15 23  1  0  0  0  0
 16  2  1  0  0  0  0
 17  3  1  0  0  0  0
 18 25  2  0  0  0  0
 19 26  2  0  0  0  0
 20 17  1  0  0  0  0
 20 22  1  0  0  0  0
 22 10  1  0  0  0  0
 23 14  1  0  0  0  0
 26 25  1  0  0  0  0
 26 17  1  0  0  0  0
 27 24  2  0  0  0  0
 27  7  1  0  0  0  0
 28 11  1  0  0  0  0
 29 30  1  0  0  0  0
 30 28  1  0  0  0  0
M  END
>  <MODEL>
5

>  <REMARK>
 VINA RESULT:      -8.0      1.905      2.743
  Name = 
  2 active torsions:
  status: ('A' for Active; 'I' for Inactive)
    1  A    between atoms: C_11  and  O_28
    2  A    between atoms: O_28  and  C_30
                            x       y       z     vdW  Elec       q    Type
                         _______ _______ _______ _____ _____    ______ ____

>  <TORSDO>
F 2

$$$$
=
 OpenBabel11112416233D

 30 35  0  0  1  0  0  0  0  0999 V2000
  190.3200  174.3730  144.2820 C   0  0  2  0  0  3  0  0  0  0  0  0
  192.0480  173.4610  142.6400 C   0  0  0  0  0  0  0  0  0  0  0  0
  187.9400  175.4970  140.9300 O   0  0  0  0  0  0  0  0  0  0  0  0
  188.9320  175.0970  144.4100 C   0  0  1  0  0  3  0  0  0  0  0  0
  191.3200  175.0810  144.9800 O   0  0  0  0  0  0  0  0  0  0  0  0
  188.9380  174.6800  147.6380 C   0  0  0  0  0  1  0  0  0  0  0  0
  187.4340  178.1080  145.0480 C   0  0  1  0  0  3  0  0  0  0  0  0
  189.7670  175.6300  146.7850 C   0  0  1  0  0  3  0  0  0  0  0  0
  187.3330  177.9730  143.5150 C   0  0  2  0  0  3  0  0  0  0  0  0
  187.0920  176.4370  141.4910 C   0  0  0  0  0  0  0  0  0  0  0  0
  191.0490  174.8970  146.3510 C   0  0  2  0  0  3  0  0  0  0  0  0
  188.9950  176.1210  145.5480 C   0  0  2  0  0  3  0  0  0  0  0  0
  192.4820  173.1840  141.3400 C   0  0  0  0  0  3  0  0  0  0  0  0
  186.0880  178.7520  143.1930 C   0  0  0  0  0  2  0  0  0  0  0  0
  186.2850  178.7530  145.5380 O   0  0  0  0  0  0  0  0  0  0  0  0
  192.8770  173.1370  143.7090 O   0  0  0  0  0  1  0  0  0  0  0  0
  188.5780  174.8100  141.9860 C   0  0  2  0  0  3  0  0  0  0  0  0
  191.6650  173.4720  140.2450 C   0  0  0  0  0  3  0  0  0  0  0  0
  190.7900  174.0550  142.8570 C   0  0  0  0  0  0  0  0  0  0  0  0
  188.5910  175.8130  143.1110 C   0  0  1  0  0  3  0  0  0  0  0  0
  186.2570  177.0900  140.8100 O   0  0  0  0  0  0  0  0  0  0  0  0
  187.2420  176.5260  142.9810 C   0  0  1  0  0  3  0  0  0  0  0  0
  185.7960  179.5070  144.4630 C   0  0  0  0  0  2  0  0  0  0  0  0
  186.8190  176.3100  146.4740 O   0  0  0  0  0  0  0  0  0  0  0  0
  190.4040  174.0350  140.4430 C   0  0  0  0  0  3  0  0  0  0  0  0
  189.9690  174.3390  141.7370 C   0  0  0  0  0  0  0  0  0  0  0  0
  187.6920  176.8240  145.7900 C   0  0  0  0  0  0  0  0  0  0  0  0
  192.1290  175.3490  147.1090 O   0  0  0  0  0  0  0  0  0  0  0  0
  193.8420  176.7310  146.5250 O   0  0  0  0  0  1  0  0  0  0  0  0
  193.1450  175.5740  146.1790 C   0  0  0  0  0  2  0  0  0  0  0  0
  1 19  1  6  0  0  0
  1  4  1  0  0  0  0
  1  5  1  0  0  0  0
  2 19  1  0  0  0  0
  2 16  1  0  0  0  0
  3 10  1  0  0  0  0
  3 17  1  0  0  0  0
  4 12  1  0  0  0  0
  5 11  1  0  0  0  0
  7 15  1  0  0  0  0
  7 27  1  0  0  0  0
  8  6  1  0  0  0  0
  9  7  1  0  0  0  0
 10 22  1  0  0  0  0
 11  8  1  0  0  0  0
 11 28  1  0  0  0  0
 12 27  1  0  0  0  0
 12  8  1  0  0  0  0
 13  2  2  0  0  0  0
 14  9  1  0  0  0  0
 14 23  1  0  0  0  0
 17 20  1  0  0  0  0
 18 25  2  0  0  0  0
 18 13  1  0  0  0  0
 20  4  1  0  0  0  0
 21 10  2  0  0  0  0
 22 20  1  0  0  0  0
 22  9  1  0  0  0  0
 23 15  1  0  0  0  0
 25 26  1  0  0  0  0
 26 17  1  0  0  0  0
 26 19  2  0  0  0  0
 27 24  2  0  0  0  0
 30 29  1  0  0  0  0
 30 28  1  0  0  0  0
M  END
>  <MODEL>
6

>  <REMARK>
 VINA RESULT:      -7.9      2.008      7.134
  Name = 
  2 active torsions:
  status: ('A' for Active; 'I' for Inactive)
    1  A    between atoms: C_11  and  O_28
    2  A    between atoms: O_28  and  C_30
                            x       y       z     vdW  Elec       q    Type
                         _______ _______ _______ _____ _____    ______ ____

>  <TORSDO>
F 2

$$$$
=
 OpenBabel11112416233D

 30 35  0  0  1  0  0  0  0  0999 V2000
  188.5810  175.2470  143.5760 C   0  0  2  0  0  3  0  0  0  0  0  0
  186.6400  176.8900  143.3580 C   0  0  0  0  0  0  0  0  0  0  0  0
  189.6090  177.1700  147.2380 O   0  0  0  0  0  0  0  0  0  0  0  0
  189.8090  174.8250  144.4600 C   0  0  1  0  0  3  0  0  0  0  0  0
  188.9870  175.5120  142.2520 O   0  0  0  0  0  0  0  0  0  0  0  0
  190.3230  172.1980  142.6090 C   0  0  0  0  0  1  0  0  0  0  0  0
  193.2180  175.0030  144.7240 C   0  0  1  0  0  3  0  0  0  0  0  0
  190.5850  173.6650  142.2990 C   0  0  1  0  0  3  0  0  0  0  0  0
  192.7220  176.0540  145.7390 C   0  0  2  0  0  3  0  0  0  0  0  0
  190.9260  176.7730  147.4030 C   0  0  0  0  0  0  0  0  0  0  0  0
  189.3090  174.2640  141.6810 C   0  0  2  0  0  3  0  0  0  0  0  0
  190.9890  174.4590  143.5530 C   0  0  2  0  0  3  0  0  0  0  0  0
  185.8690  177.9520  143.8400 C   0  0  0  0  0  3  0  0  0  0  0  0
  193.8170  176.0640  146.7700 C   0  0  0  0  0  2  0  0  0  0  0  0
  194.3770  174.3840  145.2200 O   0  0  0  0  0  0  0  0  0  0  0  0
  186.3150  176.3260  142.1300 O   0  0  0  0  0  1  0  0  0  0  0  0
  189.0400  176.3610  146.2310 C   0  0  2  0  0  3  0  0  0  0  0  0
  186.1510  178.5250  145.0810 C   0  0  0  0  0  3  0  0  0  0  0  0
  187.7260  176.4020  144.1110 C   0  0  0  0  0  0  0  0  0  0  0  0
  190.2170  175.9710  145.3740 C   0  0  1  0  0  3  0  0  0  0  0  0
  191.6470  177.1910  148.3480 O   0  0  0  0  0  0  0  0  0  0  0  0
  191.3490  175.7580  146.3830 C   0  0  1  0  0  3  0  0  0  0  0  0
  194.9400  175.3080  146.1100 C   0  0  0  0  0  2  0  0  0  0  0  0
  192.2840  172.8190  144.6750 O   0  0  0  0  0  0  0  0  0  0  0  0
  187.2060  178.0360  145.8530 C   0  0  0  0  0  3  0  0  0  0  0  0
  188.0000  176.9910  145.3720 C   0  0  0  0  0  0  0  0  0  0  0  0
  192.1940  173.9800  144.3070 C   0  0  0  0  0  0  0  0  0  0  0  0
  189.4750  174.4060  140.3030 O   0  0  0  0  0  0  0  0  0  0  0  0
  188.3450  172.5830  139.5370 O   0  0  0  0  0  1  0  0  0  0  0  0
  188.2730  173.9580  139.7530 C   0  0  0  0  0  2  0  0  0  0  0  0
  1  5  1  6  0  0  0
  1 19  1  0  0  0  0
  1  4  1  0  0  0  0
  2 13  2  0  0  0  0
  2 19  1  0  0  0  0
  3 10  1  0  0  0  0
  4 20  1  0  0  0  0
  7 15  1  0  0  0  0
  7  9  1  0  0  0  0
  8  6  1  0  0  0  0
  8 12  1  0  0  0  0
  9 22  1  0  0  0  0
  9 14  1  0  0  0  0
 10 21  2  0  0  0  0
 11  5  1  0  0  0  0
 11  8  1  0  0  0  0
 12 27  1  0  0  0  0
 12  4  1  0  0  0  0
 13 18  1  0  0  0  0
 15 23  1  0  0  0  0
 16  2  1  0  0  0  0
 17  3  1  0  0  0  0
 18 25  2  0  0  0  0
 19 26  2  0  0  0  0
 20 17  1  0  0  0  0
 20 22  1  0  0  0  0
 22 10  1  0  0  0  0
 23 14  1  0  0  0  0
 26 25  1  0  0  0  0
 26 17  1  0  0  0  0
 27 24  2  0  0  0  0
 27  7  1  0  0  0  0
 28 11  1  0  0  0  0
 29 30  1  0  0  0  0
 30 28  1  0  0  0  0
M  END
>  <MODEL>
7

>  <REMARK>
 VINA RESULT:      -7.9      1.888      2.806
  Name = 
  2 active torsions:
  status: ('A' for Active; 'I' for Inactive)
    1  A    between atoms: C_11  and  O_28
    2  A    between atoms: O_28  and  C_30
                            x       y       z     vdW  Elec       q    Type
                         _______ _______ _______ _____ _____    ______ ____

>  <TORSDO>
F 2

$$$$
=
 OpenBabel11112416233D

 30 35  0  0  1  0  0  0  0  0999 V2000
  188.5870  175.4650  143.6950 C   0  0  2  0  0  3  0  0  0  0  0  0
  186.7210  176.7840  144.8320 C   0  0  0  0  0  0  0  0  0  0  0  0
  191.1520  176.6090  146.9010 O   0  0  0  0  0  0  0  0  0  0  0  0
  190.0980  175.0460  143.7860 C   0  0  1  0  0  3  0  0  0  0  0  0
  188.3160  176.0960  142.4630 O   0  0  0  0  0  0  0  0  0  0  0  0
  189.7640  173.0450  141.2410 C   0  0  0  0  0  1  0  0  0  0  0  0
  193.2260  175.6940  142.5540 C   0  0  1  0  0  3  0  0  0  0  0  0
  189.8060  174.5660  141.2750 C   0  0  1  0  0  3  0  0  0  0  0  0
  193.2320  176.3840  143.9330 C   0  0  2  0  0  3  0  0  0  0  0  0
  192.4040  176.3970  146.3470 C   0  0  0  0  0  0  0  0  0  0  0  0
  188.3710  175.0840  141.4830 C   0  0  2  0  0  3  0  0  0  0  0  0
  190.7260  175.0960  142.3890 C   0  0  2  0  0  3  0  0  0  0  0  0
  186.2340  177.5670  145.8830 C   0  0  0  0  0  3  0  0  0  0  0  0
  194.6810  176.3240  144.3290 C   0  0  0  0  0  2  0  0  0  0  0  0
  194.5010  175.1670  142.2870 O   0  0  0  0  0  0  0  0  0  0  0  0
  185.8750  176.4810  143.7710 O   0  0  0  0  0  1  0  0  0  0  0  0
  190.2020  175.9790  146.0670 C   0  0  2  0  0  3  0  0  0  0  0  0
  187.0470  177.8680  146.9770 C   0  0  0  0  0  3  0  0  0  0  0  0
  188.0480  176.3110  144.8550 C   0  0  0  0  0  0  0  0  0  0  0  0
  190.8520  175.9940  144.7070 C   0  0  1  0  0  3  0  0  0  0  0  0
  193.4710  176.6900  146.9500 O   0  0  0  0  0  0  0  0  0  0  0  0
  192.3310  175.7310  145.0050 C   0  0  1  0  0  3  0  0  0  0  0  0
  195.3870  175.9330  143.0570 C   0  0  0  0  0  2  0  0  0  0  0  0
  192.4450  173.4640  142.3090 O   0  0  0  0  0  0  0  0  0  0  0  0
  188.3550  177.3850  147.0290 C   0  0  0  0  0  3  0  0  0  0  0  0
  188.8620  176.6220  145.9730 C   0  0  0  0  0  0  0  0  0  0  0  0
  192.1580  174.6500  142.3620 C   0  0  0  0  0  0  0  0  0  0  0  0
  187.8680  175.5710  140.2760 O   0  0  0  0  0  0  0  0  0  0  0  0
  186.6290  177.3070  139.4790 O   0  0  0  0  0  1  0  0  0  0  0  0
  187.2280  176.7640  140.6140 C   0  0  0  0  0  2  0  0  0  0  0  0
  1  5  1  6  0  0  0
  1  4  1  0  0  0  0
  1 19  1  0  0  0  0
  2 19  2  0  0  0  0
  2 13  1  0  0  0  0
  4 20  1  0  0  0  0
  6  8  1  0  0  0  0
  7  9  1  0  0  0  0
  8 11  1  0  0  0  0
  8 12  1  0  0  0  0
  9 14  1  0  0  0  0
  9 22  1  0  0  0  0
 10  3  1  0  0  0  0
 10 21  2  0  0  0  0
 11  5  1  0  0  0  0
 12  4  1  0  0  0  0
 13 18  2  0  0  0  0
 15  7  1  0  0  0  0
 15 23  1  0  0  0  0
 16  2  1  0  0  0  0
 17  3  1  0  0  0  0
 18 25  1  0  0  0  0
 19 26  1  0  0  0  0
 20 22  1  0  0  0  0
 20 17  1  0  0  0  0
 22 10  1  0  0  0  0
 23 14  1  0  0  0  0
 24 27  2  0  0  0  0
 26 17  1  0  0  0  0
 26 25  2  0  0  0  0
 27 12  1  0  0  0  0
 27  7  1  0  0  0  0
 28 30  1  0  0  0  0
 28 11  1  0  0  0  0
 29 30  1  0  0  0  0
M  END
>  <MODEL>
8

>  <REMARK>
 VINA RESULT:      -7.8      1.422      2.078
  Name = 
  2 active torsions:
  status: ('A' for Active; 'I' for Inactive)
    1  A    between atoms: C_11  and  O_28
    2  A    between atoms: O_28  and  C_30
                            x       y       z     vdW  Elec       q    Type
                         _______ _______ _______ _____ _____    ______ ____

>  <TORSDO>
F 2

$$$$
=
 OpenBabel11112416233D

 30 35  0  0  1  0  0  0  0  0999 V2000
  186.8200  178.0470  144.3950 C   0  0  2  0  0  3  0  0  0  0  0  0
  185.4670  177.9800  142.2320 C   0  0  0  0  0  0  0  0  0  0  0  0
  190.3170  177.3500  142.0600 O   0  0  0  0  0  0  0  0  0  0  0  0
  188.2590  177.9150  145.0110 C   0  0  1  0  0  3  0  0  0  0  0  0
  185.9290  177.1440  145.0100 O   0  0  0  0  0  0  0  0  0  0  0  0
  187.1620  178.8170  147.9380 C   0  0  0  0  0  1  0  0  0  0  0  0
  190.3550  175.8120  146.7150 C   0  0  1  0  0  3  0  0  0  0  0  0
  186.9620  177.5050  147.1950 C   0  0  1  0  0  3  0  0  0  0  0  0
  190.8610  175.7250  145.2610 C   0  0  2  0  0  3  0  0  0  0  0  0
  191.2070  176.8920  143.0180 C   0  0  0  0  0  0  0  0  0  0  0  0
  185.7070  177.6340  146.3130 C   0  0  2  0  0  3  0  0  0  0  0  0
  188.1800  177.1380  146.3290 C   0  0  2  0  0  3  0  0  0  0  0  0
  185.3770  177.8630  140.8410 C   0  0  0  0  0  3  0  0  0  0  0  0
  192.3230  175.4170  145.4350 C   0  0  0  0  0  2  0  0  0  0  0  0
  191.4450  175.7240  147.5970 O   0  0  0  0  0  0  0  0  0  0  0  0
  184.3000  178.1450  142.9690 O   0  0  0  0  0  1  0  0  0  0  0  0
  189.2130  177.9160  142.7360 C   0  0  2  0  0  3  0  0  0  0  0  0
  186.5310  177.7230  140.0680 C   0  0  0  0  0  3  0  0  0  0  0  0
  186.7230  177.9340  142.8690 C   0  0  0  0  0  0  0  0  0  0  0  0
  189.1770  177.1750  144.0470 C   0  0  1  0  0  3  0  0  0  0  0  0
  192.3660  176.4910  142.7300 O   0  0  0  0  0  0  0  0  0  0  0  0
  190.6540  176.9960  144.4090 C   0  0  1  0  0  3  0  0  0  0  0  0
  192.4410  175.0390  146.8880 C   0  0  0  0  0  2  0  0  0  0  0  0
  189.9270  177.9160  147.7330 O   0  0  0  0  0  0  0  0  0  0  0  0
  187.7850  177.7030  140.6790 C   0  0  0  0  0  3  0  0  0  0  0  0
  187.8860  177.7950  142.0710 C   0  0  0  0  0  0  0  0  0  0  0  0
  189.5020  177.0140  147.0270 C   0  0  0  0  0  0  0  0  0  0  0  0
  184.6460  176.9460  146.9010 O   0  0  0  0  0  0  0  0  0  0  0  0
  183.6960  178.8690  146.1380 O   0  0  0  0  0  1  0  0  0  0  0  0
  183.6890  177.9260  147.1640 C   0  0  0  0  0  2  0  0  0  0  0  0
  1 19  1  6  0  0  0
  1  5  1  0  0  0  0
  1  4  1  0  0  0  0
  2 19  1  0  0  0  0
  2 16  1  0  0  0  0
  3 17  1  0  0  0  0
  3 10  1  0  0  0  0
  4 12  1  0  0  0  0
  5 11  1  0  0  0  0
  7 27  1  0  0  0  0
  7 15  1  0  0  0  0
  8  6  1  0  0  0  0
  9 14  1  0  0  0  0
  9  7  1  0  0  0  0
 10 22  1  0  0  0  0
 11 28  1  0  0  0  0
 11  8  1  0  0  0  0
 12 27  1  0  0  0  0
 12  8  1  0  0  0  0
 13  2  2  0  0  0  0
 14 23  1  0  0  0  0
 17 20  1  0  0  0  0
 18 25  2  0  0  0  0
 18 13  1  0  0  0  0
 20 22  1  0  0  0  0
 20  4  1  0  0  0  0
 21 10  2  0  0  0  0
 22  9  1  0  0  0  0
 23 15  1  0  0  0  0
 25 26  1  0  0  0  0
 26 17  1  0  0  0  0
 26 19  2  0  0  0  0
 27 24  2  0  0  0  0
 28 30  1  0  0  0  0
 29 30  1  0  0  0  0
M  END
>  <MODEL>
9

>  <REMARK>
 VINA RESULT:      -7.7      1.696      4.658
  Name = 
  2 active torsions:
  status: ('A' for Active; 'I' for Inactive)
    1  A    between atoms: C_11  and  O_28
    2  A    between atoms: O_28  and  C_30
                            x       y       z     vdW  Elec       q    Type
                         _______ _______ _______ _____ _____    ______ ____

>  <TORSDO>
F 2

$$$$
