=
 OpenBabel11112417483D

 34 42  0  0  1  0  0  0  0  0999 V2000
  189.6910  173.9440  143.6590 C   0  0  0  0  0  0  0  0  0  0  0  0
  191.6560  172.3600  143.9610 C   0  0  0  0  0  2  0  0  0  0  0  0
  185.9740  177.9590  145.6970 C   0  0  2  0  0  0  0  0  0  0  0  0
  188.2140  175.7680  143.0540 C   0  0  0  0  0  0  0  0  0  0  0  0
  188.2730  177.9560  144.4090 C   0  0  1  0  0  3  0  0  0  0  0  0
  186.4710  176.5180  145.6070 C   0  0  2  0  0  3  0  0  0  0  0  0
  185.2070  176.8440  146.3780 C   0  0  0  0  0  2  0  0  0  0  0  0
  185.3510  177.4580  143.2100 C   0  0  0  0  0  2  0  0  0  0  0  0
  191.4900  174.2150  145.4150 C   0  0  2  0  0  3  0  0  0  0  0  0
  194.3440  175.7780  145.6180 C   0  0  0  0  0  2  0  0  0  0  0  0
  189.7440  177.6300  144.6660 C   0  0  0  0  0  2  0  0  0  0  0  0
  186.6070  177.6980  142.3960 C   0  0  0  0  0  2  0  0  0  0  0  0
  191.3940  175.7320  145.1420 C   0  0  1  0  0  3  0  0  0  0  0  0
  192.8640  172.3960  144.6920 O   0  0  0  0  0  0  0  0  0  0  0  0
  187.8780  177.2350  143.1060 C   0  0  2  0  0  3  0  0  0  0  0  0
  185.3100  178.4290  144.3870 C   0  0  0  0  0  2  0  0  0  0  0  0
  193.9910  174.5410  144.7700 C   0  0  1  0  0  3  0  0  0  0  0  0
  189.2790  175.2750  143.8350 C   0  0  0  0  0  0  0  0  0  0  0  0
  187.4710  177.6590  145.7050 C   0  0  2  0  0  3  0  0  0  0  0  0
  189.9250  176.1220  144.9170 C   0  0  2  0  0  3  0  0  0  0  0  0
  187.9950  173.6650  141.9660 C   0  0  0  0  0  3  0  0  0  0  0  0
  193.3710  176.0650  146.7630 C   0  0  0  0  0  2  0  0  0  0  0  0
  187.6150  174.9590  142.1370 N   0  0  0  0  0  0  0  0  0  0  0  0
  192.0040  176.5590  146.2840 C   0  0  0  0  0  2  0  0  0  0  0  0
  192.9050  173.6290  145.3840 C   0  0  1  0  0  3  0  0  0  0  0  0
  189.0450  173.1370  142.7180 C   0  0  0  0  0  3  0  0  0  0  0  0
  190.8150  173.4520  144.4020 N   0  0  0  0  0  0  0  0  0  0  0  0
  193.6480  174.9330  143.4720 O   0  0  0  0  0  0  0  0  0  0  0  0
  194.4300  176.0590  143.2090 C   0  0  0  0  0  2  0  0  0  0  0  0
  196.7470  176.1160  140.3430 O   0  0  0  0  0  0  0  0  0  0  0  0
  194.7220  175.1880  140.9480 N   0  0  0  0  0  0  0  0  0  0  0  0
  195.1680  175.8600  141.9330 C   0  0  0  0  0  0  0  0  0  0  0  0
  195.6940  175.3340  139.9580 N   0  0  0  0  0  2  0  0  0  0  0  0
  196.4010  176.4680  141.6150 N   0  0  0  0  0  2  0  0  0  0  0  0
  1 18  1  0  0  0  0
  1 27  1  0  0  0  0
  2 27  1  0  0  0  0
  2 14  1  0  0  0  0
  3 16  1  6  0  0  0
  3 19  1  0  0  0  0
  3  7  1  0  0  0  0
  4 15  1  0  0  0  0
  4 18  2  0  0  0  0
  5 11  1  1  0  0  0
  5 19  1  0  0  0  0
  6  3  1  0  0  0  0
  6 19  1  0  0  0  0
  6  7  1  1  0  0  0
  8 16  1  0  0  0  0
  9 27  1  6  0  0  0
 10 22  1  0  0  0  0
 11 20  1  0  0  0  0
 12  8  1  0  0  0  0
 13  9  1  0  0  0  0
 13 24  1  1  0  0  0
 14 25  1  0  0  0  0
 15 12  1  1  0  0  0
 15  5  1  0  0  0  0
 17 28  1  6  0  0  0
 17 25  1  0  0  0  0
 17 10  1  0  0  0  0
 18 20  1  0  0  0  0
 20 13  1  0  0  0  0
 21 23  2  0  0  0  0
 21 26  1  0  0  0  0
 23  4  1  0  0  0  0
 24 22  1  0  0  0  0
 25  9  1  0  0  0  0
 26  1  2  0  0  0  0
 29 28  1  0  0  0  0
 30 34  1  0  0  0  0
 31 32  2  0  0  0  0
 32 29  1  0  0  0  0
 33 30  1  0  0  0  0
 33 31  1  0  0  0  0
 34 32  1  0  0  0  0
M  END
>  <MODEL>
1

>  <REMARK>
 VINA RESULT:      -9.1      0.000      0.000
  Name = 
  3 active torsions:
  status: ('A' for Active; 'I' for Inactive)
    1  A    between atoms: C_17  and  O_28
    2  A    between atoms: O_28  and  C_29
    3  A    between atoms: C_29  and  C_32
                            x       y       z     vdW  Elec       q    Type
                         _______ _______ _______ _____ _____    ______ ____

>  <TORSDO>
F 3

$$$$
=
 OpenBabel11112417483D

 34 42  0  0  1  0  0  0  0  0999 V2000
  189.9330  176.6390  144.8590 C   0  0  0  0  0  0  0  0  0  0  0  0
  192.1150  175.7720  143.8860 C   0  0  0  0  0  2  0  0  0  0  0  0
  184.6480  179.0500  144.2700 C   0  0  2  0  0  0  0  0  0  0  0  0
  187.7410  176.8850  145.8650 C   0  0  0  0  0  0  0  0  0  0  0  0
  185.6360  176.6110  144.4110 C   0  0  1  0  0  3  0  0  0  0  0  0
  186.1710  179.1500  144.2770 C   0  0  2  0  0  3  0  0  0  0  0  0
  185.3240  180.3960  144.1110 C   0  0  0  0  0  2  0  0  0  0  0  0
  185.0810  178.6450  146.8150 C   0  0  0  0  0  2  0  0  0  0  0  0
  190.2210  175.8510  142.4740 C   0  0  2  0  0  3  0  0  0  0  0  0
  189.8530  173.0290  140.8840 C   0  0  0  0  0  2  0  0  0  0  0  0
  186.4750  175.6510  143.5680 C   0  0  0  0  0  2  0  0  0  0  0  0
  185.4080  177.1730  146.9660 C   0  0  0  0  0  2  0  0  0  0  0  0
  188.8110  175.2360  142.6080 C   0  0  1  0  0  3  0  0  0  0  0  0
  192.4810  175.1000  142.6990 O   0  0  0  0  0  0  0  0  0  0  0  0
  186.2580  176.6280  145.8200 C   0  0  2  0  0  3  0  0  0  0  0  0
  184.0730  178.8330  145.6850 C   0  0  0  0  0  2  0  0  0  0  0  0
  190.9280  173.4080  141.9200 C   0  0  1  0  0  3  0  0  0  0  0  0
  188.5360  176.5500  144.7500 C   0  0  0  0  0  0  0  0  0  0  0  0
  185.4940  177.9490  143.6350 C   0  0  2  0  0  3  0  0  0  0  0  0
  187.9110  176.1840  143.4150 C   0  0  2  0  0  3  0  0  0  0  0  0
  189.6860  177.3750  147.1440 C   0  0  0  0  0  3  0  0  0  0  0  0
  189.1210  174.2180  140.2600 C   0  0  0  0  0  2  0  0  0  0  0  0
  188.3350  177.2720  147.0280 N   0  0  0  0  0  0  0  0  0  0  0  0
  188.1860  174.9330  141.2380 C   0  0  0  0  0  2  0  0  0  0  0  0
  191.3030  174.9070  141.9400 C   0  0  1  0  0  3  0  0  0  0  0  0
  190.5090  177.0530  146.0640 C   0  0  0  0  0  3  0  0  0  0  0  0
  190.7520  176.2390  143.7520 N   0  0  0  0  0  0  0  0  0  0  0  0
  190.5470  172.9640  143.1900 O   0  0  0  0  0  0  0  0  0  0  0  0
  190.8320  171.5980  143.2030 C   0  0  0  0  0  2  0  0  0  0  0  0
  193.8150  171.7760  145.3600 O   0  0  0  0  0  0  0  0  0  0  0  0
  192.7510  170.2890  143.9500 N   0  0  0  0  0  0  0  0  0  0  0  0
  192.0630  171.3590  144.0030 C   0  0  0  0  0  0  0  0  0  0  0  0
  193.8370  170.5330  144.7920 N   0  0  0  0  0  2  0  0  0  0  0  0
  192.6750  172.3150  144.8400 N   0  0  0  0  0  2  0  0  0  0  0  0
  1 26  1  0  0  0  0
  3  7  1  6  0  0  0
  3  6  1  0  0  0  0
  3 16  1  0  0  0  0
  4 23  2  0  0  0  0
  5 11  1  6  0  0  0
  5 15  1  0  0  0  0
  6  7  1  6  0  0  0
  8 12  1  0  0  0  0
  9 13  1  0  0  0  0
  9 27  1  1  0  0  0
 10 17  1  0  0  0  0
 13 24  1  6  0  0  0
 13 20  1  0  0  0  0
 14  2  1  0  0  0  0
 15  4  1  0  0  0  0
 15 12  1  1  0  0  0
 16  8  1  0  0  0  0
 17 25  1  0  0  0  0
 17 28  1  1  0  0  0
 18  1  2  0  0  0  0
 18  4  1  0  0  0  0
 19  3  1  0  0  0  0
 19  6  1  0  0  0  0
 19  5  1  0  0  0  0
 20 11  1  0  0  0  0
 20 18  1  0  0  0  0
 22 10  1  0  0  0  0
 22 24  1  0  0  0  0
 23 21  1  0  0  0  0
 25  9  1  0  0  0  0
 25 14  1  0  0  0  0
 26 21  2  0  0  0  0
 27  2  1  0  0  0  0
 27  1  1  0  0  0  0
 28 29  1  0  0  0  0
 29 32  1  0  0  0  0
 31 32  2  0  0  0  0
 31 33  1  0  0  0  0
 32 34  1  0  0  0  0
 33 30  1  0  0  0  0
 34 30  1  0  0  0  0
M  END
>  <MODEL>
2

>  <REMARK>
 VINA RESULT:      -8.8      2.619      4.713
  Name = 
  3 active torsions:
  status: ('A' for Active; 'I' for Inactive)
    1  A    between atoms: C_17  and  O_28
    2  A    between atoms: O_28  and  C_29
    3  A    between atoms: C_29  and  C_32
                            x       y       z     vdW  Elec       q    Type
                         _______ _______ _______ _____ _____    ______ ____

>  <TORSDO>
F 3

$$$$
=
 OpenBabel11112417483D

 34 42  0  0  1  0  0  0  0  0999 V2000
  190.9590  174.2860  142.5310 C   0  0  0  0  0  0  0  0  0  0  0  0
  192.9760  172.7560  142.3030 C   0  0  0  0  0  2  0  0  0  0  0  0
  187.4690  177.7450  145.6840 C   0  0  2  0  0  0  0  0  0  0  0  0
  189.3800  176.1230  142.4410 C   0  0  0  0  0  0  0  0  0  0  0  0
  189.5760  178.0530  144.1320 C   0  0  1  0  0  3  0  0  0  0  0  0
  187.9760  176.3610  145.2860 C   0  0  2  0  0  3  0  0  0  0  0  0
  186.8210  176.5010  146.2560 C   0  0  0  0  0  2  0  0  0  0  0  0
  186.5310  177.6420  143.2480 C   0  0  0  0  0  2  0  0  0  0  0  0
  192.9690  174.3330  144.0630 C   0  0  2  0  0  3  0  0  0  0  0  0
  195.7940  175.9570  144.1650 C   0  0  0  0  0  2  0  0  0  0  0  0
  191.0740  177.7490  144.1400 C   0  0  0  0  0  2  0  0  0  0  0  0
  187.6630  178.0660  142.3340 C   0  0  0  0  0  2  0  0  0  0  0  0
  192.8090  175.8690  144.0690 C   0  0  1  0  0  3  0  0  0  0  0  0
  194.2700  172.7190  142.8690 O   0  0  0  0  0  0  0  0  0  0  0  0
  189.0250  177.5450  142.7860 C   0  0  2  0  0  3  0  0  0  0  0  0
  186.6270  178.3990  144.5690 C   0  0  0  0  0  2  0  0  0  0  0  0
  195.3550  174.8660  143.1700 C   0  0  1  0  0  3  0  0  0  0  0  0
  190.5480  175.5500  142.9830 C   0  0  0  0  0  0  0  0  0  0  0  0
  188.9590  177.5100  145.4500 C   0  0  2  0  0  3  0  0  0  0  0  0
  191.3160  176.2300  144.1030 C   0  0  2  0  0  3  0  0  0  0  0  0
  189.0590  174.2240  141.0450 C   0  0  0  0  0  3  0  0  0  0  0  0
  194.9770  176.0080  145.4570 C   0  0  0  0  0  2  0  0  0  0  0  0
  188.6800  175.4540  141.4830 N   0  0  0  0  0  0  0  0  0  0  0  0
  193.5490  176.5170  145.2480 C   0  0  0  0  0  2  0  0  0  0  0  0
  194.3790  173.8200  143.7510 C   0  0  1  0  0  3  0  0  0  0  0  0
  190.2090  173.6220  141.5550 C   0  0  0  0  0  3  0  0  0  0  0  0
  192.1810  173.7230  143.0280 N   0  0  0  0  0  0  0  0  0  0  0  0
  194.8360  175.4550  142.0120 O   0  0  0  0  0  0  0  0  0  0  0  0
  195.8300  176.3290  141.5660 C   0  0  0  0  0  2  0  0  0  0  0  0
  196.4980  174.7830  138.2880 O   0  0  0  0  0  0  0  0  0  0  0  0
  197.6330  175.8430  139.9960 N   0  0  0  0  0  0  0  0  0  0  0  0
  196.3940  175.8220  140.2870 C   0  0  0  0  0  0  0  0  0  0  0  0
  197.7100  175.2070  138.7570 N   0  0  0  0  0  2  0  0  0  0  0  0
  195.6480  175.1680  139.2840 N   0  0  0  0  0  2  0  0  0  0  0  0
  1 18  1  0  0  0  0
  1 27  1  0  0  0  0
  2 14  1  0  0  0  0
  2 27  1  0  0  0  0
  3 16  1  6  0  0  0
  3  7  1  0  0  0  0
  4 15  1  0  0  0  0
  4 18  2  0  0  0  0
  5 11  1  1  0  0  0
  5 19  1  0  0  0  0
  6 19  1  0  0  0  0
  6  3  1  0  0  0  0
  6  7  1  1  0  0  0
  8 16  1  0  0  0  0
  9 27  1  6  0  0  0
  9 13  1  0  0  0  0
 10 22  1  0  0  0  0
 12  8  1  0  0  0  0
 13 20  1  0  0  0  0
 13 24  1  1  0  0  0
 14 25  1  0  0  0  0
 15 12  1  1  0  0  0
 15  5  1  0  0  0  0
 17 28  1  6  0  0  0
 17 25  1  0  0  0  0
 17 10  1  0  0  0  0
 18 20  1  0  0  0  0
 19  3  1  0  0  0  0
 20 11  1  0  0  0  0
 21 23  2  0  0  0  0
 21 26  1  0  0  0  0
 23  4  1  0  0  0  0
 24 22  1  0  0  0  0
 25  9  1  0  0  0  0
 26  1  2  0  0  0  0
 29 28  1  0  0  0  0
 30 33  1  0  0  0  0
 30 34  1  0  0  0  0
 31 32  2  0  0  0  0
 32 29  1  0  0  0  0
 33 31  1  0  0  0  0
 34 32  1  0  0  0  0
M  END
>  <MODEL>
3

>  <REMARK>
 VINA RESULT:      -8.2      1.541      1.885
  Name = 
  3 active torsions:
  status: ('A' for Active; 'I' for Inactive)
    1  A    between atoms: C_17  and  O_28
    2  A    between atoms: O_28  and  C_29
    3  A    between atoms: C_29  and  C_32
                            x       y       z     vdW  Elec       q    Type
                         _______ _______ _______ _____ _____    ______ ____

>  <TORSDO>
F 3

$$$$
=
 OpenBabel11112417483D

 34 42  0  0  1  0  0  0  0  0999 V2000
  190.2480  173.9440  142.9130 C   0  0  0  0  0  0  0  0  0  0  0  0
  192.2760  172.4800  142.4630 C   0  0  0  0  0  2  0  0  0  0  0  0
  187.2650  177.7000  146.2410 C   0  0  2  0  0  0  0  0  0  0  0  0
  188.5560  175.6800  142.9170 C   0  0  0  0  0  0  0  0  0  0  0  0
  188.9660  177.8520  144.2350 C   0  0  1  0  0  3  0  0  0  0  0  0
  187.7750  176.2940  145.9390 C   0  0  2  0  0  3  0  0  0  0  0  0
  186.8440  176.5330  147.1110 C   0  0  0  0  0  2  0  0  0  0  0  0
  185.8410  177.1890  144.1110 C   0  0  0  0  0  2  0  0  0  0  0  0
  192.5290  174.3060  143.9420 C   0  0  2  0  0  3  0  0  0  0  0  0
  195.1850  176.0390  143.1890 C   0  0  0  0  0  2  0  0  0  0  0  0
  190.4500  177.6140  143.9540 C   0  0  0  0  0  2  0  0  0  0  0  0
  186.7190  177.5140  142.9190 C   0  0  0  0  0  2  0  0  0  0  0  0
  192.2620  175.8170  143.7670 C   0  0  1  0  0  3  0  0  0  0  0  0
  193.6600  172.5820  142.7290 O   0  0  0  0  0  0  0  0  0  0  0  0
  188.1810  177.1230  143.1290 C   0  0  2  0  0  3  0  0  0  0  0  0
  186.1600  178.1420  145.2590 C   0  0  0  0  0  2  0  0  0  0  0  0
  194.6260  174.7920  142.4780 C   0  0  1  0  0  3  0  0  0  0  0  0
  189.8520  175.2450  143.2620 C   0  0  0  0  0  0  0  0  0  0  0  0
  188.6840  177.4930  145.7190 C   0  0  2  0  0  3  0  0  0  0  0  0
  190.7880  176.1180  144.0790 C   0  0  2  0  0  3  0  0  0  0  0  0
  188.0850  173.5800  141.9060 C   0  0  0  0  0  3  0  0  0  0  0  0
  194.6590  176.2530  144.6090 C   0  0  0  0  0  2  0  0  0  0  0  0
  187.7200  174.8460  142.2400 N   0  0  0  0  0  0  0  0  0  0  0  0
  193.1860  176.6670  144.6510 C   0  0  0  0  0  2  0  0  0  0  0  0
  193.8730  173.8080  143.4020 C   0  0  1  0  0  3  0  0  0  0  0  0
  189.3580  173.1090  142.2290 C   0  0  0  0  0  3  0  0  0  0  0  0
  191.5850  173.5130  143.2020 N   0  0  0  0  0  0  0  0  0  0  0  0
  193.8320  175.1760  141.3930 O   0  0  0  0  0  0  0  0  0  0  0  0
  194.5530  174.8010  140.2590 C   0  0  0  0  0  2  0  0  0  0  0  0
  191.8910  173.9710  137.8500 O   0  0  0  0  0  0  0  0  0  0  0  0
  193.8410  175.2000  137.9590 N   0  0  0  0  0  0  0  0  0  0  0  0
  193.6260  174.6810  139.1020 C   0  0  0  0  0  0  0  0  0  0  0  0
  192.7690  174.7720  137.1760 N   0  0  0  0  0  2  0  0  0  0  0  0
  192.4520  173.9000  139.0920 N   0  0  0  0  0  2  0  0  0  0  0  0
  1 27  1  0  0  0  0
  1 18  1  0  0  0  0
  2 14  1  0  0  0  0
  2 27  1  0  0  0  0
  3 16  1  6  0  0  0
  3  7  1  0  0  0  0
  4 15  1  0  0  0  0
  4 18  2  0  0  0  0
  5 11  1  6  0  0  0
  5 19  1  0  0  0  0
  6  3  1  0  0  0  0
  6  7  1  1  0  0  0
  8 16  1  0  0  0  0
  9 27  1  6  0  0  0
 10 22  1  0  0  0  0
 11 20  1  0  0  0  0
 12  8  1  0  0  0  0
 13  9  1  0  0  0  0
 13 20  1  0  0  0  0
 13 24  1  1  0  0  0
 14 25  1  0  0  0  0
 15 12  1  1  0  0  0
 15  5  1  0  0  0  0
 17 28  1  6  0  0  0
 17 10  1  0  0  0  0
 17 25  1  0  0  0  0
 18 20  1  0  0  0  0
 19  6  1  0  0  0  0
 19  3  1  0  0  0  0
 21 26  1  0  0  0  0
 21 23  2  0  0  0  0
 22 24  1  0  0  0  0
 23  4  1  0  0  0  0
 25  9  1  0  0  0  0
 26  1  2  0  0  0  0
 29 28  1  0  0  0  0
 30 34  1  0  0  0  0
 31 32  2  0  0  0  0
 32 29  1  0  0  0  0
 33 30  1  0  0  0  0
 33 31  1  0  0  0  0
 34 32  1  0  0  0  0
M  END
>  <MODEL>
4

>  <REMARK>
 VINA RESULT:      -7.9      1.924      2.271
  Name = 
  3 active torsions:
  status: ('A' for Active; 'I' for Inactive)
    1  A    between atoms: C_17  and  O_28
    2  A    between atoms: O_28  and  C_29
    3  A    between atoms: C_29  and  C_32
                            x       y       z     vdW  Elec       q    Type
                         _______ _______ _______ _____ _____    ______ ____

>  <TORSDO>
F 3

$$$$
=
 OpenBabel11112417483D

 34 42  0  0  1  0  0  0  0  0999 V2000
  191.5860  173.0860  143.3890 C   0  0  0  0  0  0  0  0  0  0  0  0
  189.1370  173.0380  142.7120 C   0  0  0  0  0  2  0  0  0  0  0  0
  196.9530  175.3640  143.0830 C   0  0  2  0  0  0  0  0  0  0  0  0
  193.7010  173.3440  144.5460 C   0  0  0  0  0  0  0  0  0  0  0  0
  194.8350  175.6530  144.6230 C   0  0  1  0  0  3  0  0  0  0  0  0
  195.8140  174.5380  142.4900 C   0  0  2  0  0  3  0  0  0  0  0  0
  197.1420  174.6390  141.7660 C   0  0  0  0  0  2  0  0  0  0  0  0
  197.0240  173.3250  144.7150 C   0  0  0  0  0  2  0  0  0  0  0  0
  190.3140  175.0740  142.4820 C   0  0  2  0  0  3  0  0  0  0  0  0
  188.6100  177.5400  143.7610 C   0  0  0  0  0  2  0  0  0  0  0  0
  193.4210  176.2290  144.5510 C   0  0  0  0  0  2  0  0  0  0  0  0
  195.9740  173.5870  145.7750 C   0  0  0  0  0  2  0  0  0  0  0  0
  191.1090  175.9240  143.4970 C   0  0  1  0  0  3  0  0  0  0  0  0
  188.1710  174.0170  142.3910 O   0  0  0  0  0  0  0  0  0  0  0  0
  194.7100  174.2380  145.2170 C   0  0  2  0  0  3  0  0  0  0  0  0
  197.6390  174.6470  144.2640 C   0  0  0  0  0  2  0  0  0  0  0  0
  188.2390  176.0460  143.7160 C   0  0  1  0  0  3  0  0  0  0  0  0
  192.6060  173.9210  143.8700 C   0  0  0  0  0  0  0  0  0  0  0  0
  195.5070  175.8280  143.2340 C   0  0  2  0  0  3  0  0  0  0  0  0
  192.5550  175.4110  143.5770 C   0  0  2  0  0  3  0  0  0  0  0  0
  192.7710  171.1740  144.2620 C   0  0  0  0  0  3  0  0  0  0  0  0
  189.7000  177.9570  142.7720 C   0  0  0  0  0  2  0  0  0  0  0  0
  193.7450  171.9960  144.7340 N   0  0  0  0  0  0  0  0  0  0  0  0
  191.0840  177.4170  143.1370 C   0  0  0  0  0  2  0  0  0  0  0  0
  188.7960  175.2810  142.4950 C   0  0  1  0  0  3  0  0  0  0  0  0
  191.6700  171.7040  143.5880 C   0  0  0  0  0  3  0  0  0  0  0  0
  190.4380  173.6690  142.7570 N   0  0  0  0  0  0  0  0  0  0  0  0
  188.6080  175.4250  144.9140 O   0  0  0  0  0  0  0  0  0  0  0  0
  188.5000  176.4170  145.8900 C   0  0  0  0  0  2  0  0  0  0  0  0
  191.2580  176.8510  148.2960 O   0  0  0  0  0  0  0  0  0  0  0  0
  190.1900  175.1690  147.1310 N   0  0  0  0  0  0  0  0  0  0  0  0
  189.6140  176.2730  146.8650 C   0  0  0  0  0  0  0  0  0  0  0  0
  191.2070  175.5130  148.0220 N   0  0  0  0  0  2  0  0  0  0  0  0
  190.2360  177.3450  147.5370 N   0  0  0  0  0  2  0  0  0  0  0  0
  1 26  2  0  0  0  0
  1 18  1  0  0  0  0
  2 27  1  0  0  0  0
  3  7  1  6  0  0  0
  3 19  1  0  0  0  0
  3 16  1  0  0  0  0
  4 23  1  0  0  0  0
  4 15  1  0  0  0  0
  5 11  1  6  0  0  0
  5 15  1  0  0  0  0
  6  7  1  6  0  0  0
  6  3  1  0  0  0  0
  6 19  1  0  0  0  0
  8 12  1  0  0  0  0
  9 25  1  0  0  0  0
  9 27  1  1  0  0  0
  9 13  1  0  0  0  0
 13 24  1  6  0  0  0
 13 20  1  0  0  0  0
 14 25  1  0  0  0  0
 14  2  1  0  0  0  0
 15 12  1  6  0  0  0
 16  8  1  0  0  0  0
 17 10  1  0  0  0  0
 17 28  1  1  0  0  0
 18  4  2  0  0  0  0
 19  5  1  0  0  0  0
 20 18  1  0  0  0  0
 20 11  1  0  0  0  0
 21 23  2  0  0  0  0
 22 24  1  0  0  0  0
 22 10  1  0  0  0  0
 25 17  1  0  0  0  0
 26 21  1  0  0  0  0
 27  1  1  0  0  0  0
 28 29  1  0  0  0  0
 29 32  1  0  0  0  0
 31 33  1  0  0  0  0
 32 31  2  0  0  0  0
 32 34  1  0  0  0  0
 33 30  1  0  0  0  0
 34 30  1  0  0  0  0
M  END
>  <MODEL>
5

>  <REMARK>
 VINA RESULT:      -7.7      3.168      7.360
  Name = 
  3 active torsions:
  status: ('A' for Active; 'I' for Inactive)
    1  A    between atoms: C_17  and  O_28
    2  A    between atoms: O_28  and  C_29
    3  A    between atoms: C_29  and  C_32
                            x       y       z     vdW  Elec       q    Type
                         _______ _______ _______ _____ _____    ______ ____

>  <TORSDO>
F 3

$$$$
=
 OpenBabel11112417483D

 34 42  0  0  1  0  0  0  0  0999 V2000
  192.8130  173.5670  142.8820 C   0  0  0  0  0  0  0  0  0  0  0  0
  194.6130  172.0170  141.9760 C   0  0  0  0  0  2  0  0  0  0  0  0
  189.8570  175.9650  147.3090 C   0  0  2  0  0  0  0  0  0  0  0  0
  191.4820  175.4690  143.5790 C   0  0  0  0  0  0  0  0  0  0  0  0
  191.9560  176.5920  145.8450 C   0  0  1  0  0  3  0  0  0  0  0  0
  190.1740  174.7830  146.3970 C   0  0  2  0  0  3  0  0  0  0  0  0
  189.0650  174.6790  147.4230 C   0  0  0  0  0  2  0  0  0  0  0  0
  188.8680  176.8870  145.0730 C   0  0  0  0  0  2  0  0  0  0  0  0
  194.8420  172.8120  144.1890 C   0  0  2  0  0  3  0  0  0  0  0  0
  197.8530  173.9520  144.6980 C   0  0  0  0  0  2  0  0  0  0  0  0
  193.4030  176.1420  145.6430 C   0  0  0  0  0  2  0  0  0  0  0  0
  190.0270  177.4910  144.3080 C   0  0  0  0  0  2  0  0  0  0  0  0
  194.8800  174.2420  144.7710 C   0  0  1  0  0  3  0  0  0  0  0  0
  195.9010  171.6260  142.4030 O   0  0  0  0  0  0  0  0  0  0  0  0
  191.3200  176.6890  144.4460 C   0  0  2  0  0  3  0  0  0  0  0  0
  189.0850  177.0790  146.5710 C   0  0  0  0  0  2  0  0  0  0  0  0
  197.2590  173.3690  143.4020 C   0  0  1  0  0  3  0  0  0  0  0  0
  192.5770  174.6080  143.7940 C   0  0  0  0  0  0  0  0  0  0  0  0
  191.3000  175.6690  146.9080 C   0  0  2  0  0  3  0  0  0  0  0  0
  193.4470  174.7290  145.0330 C   0  0  2  0  0  3  0  0  0  0  0  0
  190.8940  174.2790  141.6050 C   0  0  0  0  0  3  0  0  0  0  0  0
  197.0740  173.6080  145.9680 C   0  0  0  0  0  2  0  0  0  0  0  0
  190.6840  175.2900  142.4900 N   0  0  0  0  0  0  0  0  0  0  0  0
  195.7190  174.3150  146.0550 C   0  0  0  0  0  2  0  0  0  0  0  0
  196.1670  172.2980  143.6190 C   0  0  1  0  0  3  0  0  0  0  0  0
  191.9660  173.4040  141.7810 C   0  0  0  0  0  3  0  0  0  0  0  0
  193.9620  172.7250  143.0560 N   0  0  0  0  0  0  0  0  0  0  0  0
  196.7990  174.4020  142.5790 O   0  0  0  0  0  0  0  0  0  0  0  0
  197.9260  174.8550  141.8920 C   0  0  0  0  0  2  0  0  0  0  0  0
  197.5430  175.3400  138.2590 O   0  0  0  0  0  0  0  0  0  0  0  0
  197.1480  173.7340  139.8690 N   0  0  0  0  0  0  0  0  0  0  0  0
  197.6890  174.7420  140.4280 C   0  0  0  0  0  0  0  0  0  0  0  0
  197.0570  174.0900  138.5230 N   0  0  0  0  0  2  0  0  0  0  0  0
  197.9390  175.7680  139.4920 N   0  0  0  0  0  2  0  0  0  0  0  0
  1 27  1  0  0  0  0
  1 18  1  0  0  0  0
  2 14  1  0  0  0  0
  2 27  1  0  0  0  0
  3 16  1  6  0  0  0
  3  7  1  0  0  0  0
  4 18  2  0  0  0  0
  4 15  1  0  0  0  0
  5 11  1  6  0  0  0
  5 19  1  0  0  0  0
  6 19  1  0  0  0  0
  6  3  1  0  0  0  0
  6  7  1  1  0  0  0
  8 16  1  0  0  0  0
  9 27  1  6  0  0  0
  9 13  1  0  0  0  0
 10 22  1  0  0  0  0
 12  8  1  0  0  0  0
 13 20  1  0  0  0  0
 13 24  1  1  0  0  0
 14 25  1  0  0  0  0
 15 12  1  1  0  0  0
 15  5  1  0  0  0  0
 17 28  1  6  0  0  0
 17 25  1  0  0  0  0
 17 10  1  0  0  0  0
 18 20  1  0  0  0  0
 19  3  1  0  0  0  0
 20 11  1  0  0  0  0
 21 26  1  0  0  0  0
 21 23  2  0  0  0  0
 22 24  1  0  0  0  0
 23  4  1  0  0  0  0
 25  9  1  0  0  0  0
 26  1  2  0  0  0  0
 29 28  1  0  0  0  0
 30 33  1  0  0  0  0
 30 34  1  0  0  0  0
 31 32  2  0  0  0  0
 32 29  1  0  0  0  0
 33 31  1  0  0  0  0
 34 32  1  0  0  0  0
M  END
>  <MODEL>
6

>  <REMARK>
 VINA RESULT:      -7.6      2.515      3.733
  Name = 
  3 active torsions:
  status: ('A' for Active; 'I' for Inactive)
    1  A    between atoms: C_17  and  O_28
    2  A    between atoms: O_28  and  C_29
    3  A    between atoms: C_29  and  C_32
                            x       y       z     vdW  Elec       q    Type
                         _______ _______ _______ _____ _____    ______ ____

>  <TORSDO>
F 3

$$$$
=
 OpenBabel11112417483D

 34 42  0  0  1  0  0  0  0  0999 V2000
  189.5980  176.0490  145.6750 C   0  0  0  0  0  0  0  0  0  0  0  0
  187.0800  176.2680  145.4070 C   0  0  0  0  0  2  0  0  0  0  0  0
  194.6840  173.4530  144.4550 C   0  0  2  0  0  0  0  0  0  0  0  0
  192.0040  176.3360  145.5990 C   0  0  0  0  0  0  0  0  0  0  0  0
  193.3190  175.5150  143.5440 C   0  0  1  0  0  3  0  0  0  0  0  0
  193.3280  173.4780  145.1570 C   0  0  2  0  0  3  0  0  0  0  0  0
  194.3010  172.3440  145.4130 C   0  0  0  0  0  2  0  0  0  0  0  0
  195.1370  175.3710  146.1710 C   0  0  0  0  0  2  0  0  0  0  0  0
  188.2940  175.2120  143.6770 C   0  0  2  0  0  3  0  0  0  0  0  0
  187.4410  176.4160  140.7700 C   0  0  0  0  0  2  0  0  0  0  0  0
  192.0450  175.8010  142.7500 C   0  0  0  0  0  2  0  0  0  0  0  0
  194.5810  176.6390  145.5540 C   0  0  0  0  0  2  0  0  0  0  0  0
  189.4890  175.6850  142.8200 C   0  0  1  0  0  3  0  0  0  0  0  0
  186.1700  176.0850  144.3420 O   0  0  0  0  0  0  0  0  0  0  0  0
  193.2750  176.4130  144.7950 C   0  0  2  0  0  3  0  0  0  0  0  0
  195.6770  174.4600  145.0720 C   0  0  0  0  0  2  0  0  0  0  0  0
  186.9280  176.8290  142.1620 C   0  0  1  0  0  3  0  0  0  0  0  0
  190.8040  175.9610  144.9610 C   0  0  0  0  0  0  0  0  0  0  0  0
  193.4490  173.9790  143.7260 C   0  0  2  0  0  3  0  0  0  0  0  0
  190.8020  175.3820  143.5570 C   0  0  2  0  0  3  0  0  0  0  0  0
  190.8160  176.8690  147.5890 C   0  0  0  0  0  3  0  0  0  0  0  0
  188.1290  175.0510  140.7230 C   0  0  0  0  0  2  0  0  0  0  0  0
  191.9750  176.7900  146.8820 N   0  0  0  0  0  0  0  0  0  0  0  0
  189.4880  175.0350  141.4280 C   0  0  0  0  0  2  0  0  0  0  0  0
  186.9170  175.6910  143.2080 C   0  0  1  0  0  3  0  0  0  0  0  0
  189.6060  176.5070  146.9960 C   0  0  0  0  0  3  0  0  0  0  0  0
  188.3650  175.7310  145.0150 N   0  0  0  0  0  0  0  0  0  0  0  0
  187.6440  177.9370  142.6270 O   0  0  0  0  0  0  0  0  0  0  0  0
  186.8170  179.0360  142.3890 C   0  0  0  0  0  2  0  0  0  0  0  0
  183.6900  179.0300  144.3400 O   0  0  0  0  0  0  0  0  0  0  0  0
  185.9410  179.4510  144.6280 N   0  0  0  0  0  0  0  0  0  0  0  0
  185.7500  179.0840  143.4240 C   0  0  0  0  0  0  0  0  0  0  0  0
  184.6730  179.4160  145.2080 N   0  0  0  0  0  2  0  0  0  0  0  0
  184.3840  178.8290  143.1820 N   0  0  0  0  0  2  0  0  0  0  0  0
  1 26  1  0  0  0  0
  3 16  1  1  0  0  0
  3  6  1  0  0  0  0
  3  7  1  0  0  0  0
  4 23  2  0  0  0  0
  5 11  1  1  0  0  0
  5 19  1  0  0  0  0
  5 15  1  0  0  0  0
  6  7  1  6  0  0  0
  9 27  1  1  0  0  0
 10 17  1  0  0  0  0
 11 20  1  0  0  0  0
 12  8  1  0  0  0  0
 13 24  1  6  0  0  0
 13 20  1  0  0  0  0
 13  9  1  0  0  0  0
 14  2  1  0  0  0  0
 15 12  1  1  0  0  0
 15  4  1  0  0  0  0
 16  8  1  0  0  0  0
 17 28  1  1  0  0  0
 17 25  1  0  0  0  0
 18  4  1  0  0  0  0
 18  1  2  0  0  0  0
 19  3  1  0  0  0  0
 19  6  1  0  0  0  0
 20 18  1  0  0  0  0
 22 10  1  0  0  0  0
 22 24  1  0  0  0  0
 23 21  1  0  0  0  0
 25  9  1  0  0  0  0
 25 14  1  0  0  0  0
 26 21  2  0  0  0  0
 27  2  1  0  0  0  0
 27  1  1  0  0  0  0
 29 28  1  0  0  0  0
 29 32  1  0  0  0  0
 30 33  1  0  0  0  0
 31 33  1  0  0  0  0
 32 31  2  0  0  0  0
 34 32  1  0  0  0  0
 34 30  1  0  0  0  0
M  END
>  <MODEL>
7

>  <REMARK>
 VINA RESULT:      -7.6      3.596      7.861
  Name = 
  3 active torsions:
  status: ('A' for Active; 'I' for Inactive)
    1  A    between atoms: C_17  and  O_28
    2  A    between atoms: O_28  and  C_29
    3  A    between atoms: C_29  and  C_32
                            x       y       z     vdW  Elec       q    Type
                         _______ _______ _______ _____ _____    ______ ____

>  <TORSDO>
F 3

$$$$
=
 OpenBabel11112417483D

 34 42  0  0  1  0  0  0  0  0999 V2000
  194.0740  175.2400  145.0750 C   0  0  0  0  0  0  0  0  0  0  0  0
  196.3730  174.4820  144.3010 C   0  0  0  0  0  2  0  0  0  0  0  0
  188.3800  176.1340  144.1430 C   0  0  2  0  0  0  0  0  0  0  0  0
  191.9010  175.4570  146.1290 C   0  0  0  0  0  0  0  0  0  0  0  0
  189.8780  174.2100  145.1400 C   0  0  1  0  0  3  0  0  0  0  0  0
  189.8440  176.5170  143.9460 C   0  0  2  0  0  3  0  0  0  0  0  0
  188.7430  177.3960  143.3870 C   0  0  0  0  0  2  0  0  0  0  0  0
  188.9400  176.9090  146.5750 C   0  0  0  0  0  2  0  0  0  0  0  0
  194.4810  173.6070  143.1880 C   0  0  2  0  0  3  0  0  0  0  0  0
  194.7060  170.3670  142.9080 C   0  0  0  0  0  2  0  0  0  0  0  0
  190.8900  173.1670  144.6670 C   0  0  0  0  0  2  0  0  0  0  0  0
  189.5830  175.7230  147.2650 C   0  0  0  0  0  2  0  0  0  0  0  0
  193.2420  172.8460  143.7080 C   0  0  1  0  0  3  0  0  0  0  0  0
  196.8530  173.4620  143.4500 O   0  0  0  0  0  0  0  0  0  0  0  0
  190.5090  174.9260  146.3490 C   0  0  2  0  0  3  0  0  0  0  0  0
  187.8930  176.4170  145.5800 C   0  0  0  0  0  2  0  0  0  0  0  0
  195.6930  171.3380  143.5840 C   0  0  1  0  0  3  0  0  0  0  0  0
  192.7280  174.8490  145.1620 C   0  0  0  0  0  0  0  0  0  0  0  0
  189.4330  175.0530  143.9150 C   0  0  2  0  0  3  0  0  0  0  0  0
  192.1720  173.8520  144.1600 C   0  0  2  0  0  3  0  0  0  0  0  0
  193.7160  176.7920  146.8880 C   0  0  0  0  0  3  0  0  0  0  0  0
  193.7210  171.0280  141.9430 C   0  0  0  0  0  2  0  0  0  0  0  0
  192.4190  176.3950  146.9690 N   0  0  0  0  0  0  0  0  0  0  0  0
  192.6720  171.8900  142.6490 C   0  0  0  0  0  2  0  0  0  0  0  0
  195.7320  172.7520  142.9630 C   0  0  1  0  0  3  0  0  0  0  0  0
  194.5690  176.2160  145.9450 C   0  0  0  0  0  3  0  0  0  0  0  0
  194.9390  174.5820  144.1390 N   0  0  0  0  0  0  0  0  0  0  0  0
  195.4420  171.3950  144.9590 O   0  0  0  0  0  0  0  0  0  0  0  0
  196.4880  170.6870  145.5530 C   0  0  0  0  0  2  0  0  0  0  0  0
  195.8760  168.1730  148.1770 O   0  0  0  0  0  0  0  0  0  0  0  0
  194.7050  169.4030  146.6150 N   0  0  0  0  0  0  0  0  0  0  0  0
  195.9330  169.7310  146.5490 C   0  0  0  0  0  0  0  0  0  0  0  0
  194.6550  168.4420  147.6250 N   0  0  0  0  0  2  0  0  0  0  0  0
  196.7050  168.9960  147.4730 N   0  0  0  0  0  2  0  0  0  0  0  0
  1 18  2  0  0  0  0
  1 26  1  0  0  0  0
  3  7  1  6  0  0  0
  3 16  1  0  0  0  0
  4 15  1  0  0  0  0
  4 23  2  0  0  0  0
  5 11  1  6  0  0  0
  5 15  1  0  0  0  0
  6  7  1  6  0  0  0
  6  3  1  0  0  0  0
  8 12  1  0  0  0  0
  9 13  1  0  0  0  0
  9 27  1  1  0  0  0
 10 17  1  0  0  0  0
 13 24  1  6  0  0  0
 13 20  1  0  0  0  0
 14  2  1  0  0  0  0
 15 12  1  6  0  0  0
 16  8  1  0  0  0  0
 17 28  1  1  0  0  0
 18  4  1  0  0  0  0
 19  6  1  0  0  0  0
 19  3  1  0  0  0  0
 19  5  1  0  0  0  0
 20 11  1  0  0  0  0
 20 18  1  0  0  0  0
 21 23  1  0  0  0  0
 22 24  1  0  0  0  0
 22 10  1  0  0  0  0
 25  9  1  0  0  0  0
 25 14  1  0  0  0  0
 25 17  1  0  0  0  0
 26 21  2  0  0  0  0
 27  2  1  0  0  0  0
 27  1  1  0  0  0  0
 28 29  1  0  0  0  0
 29 32  1  0  0  0  0
 31 33  1  0  0  0  0
 32 31  2  0  0  0  0
 32 34  1  0  0  0  0
 33 30  1  0  0  0  0
 34 30  1  0  0  0  0
M  END
>  <MODEL>
8

>  <REMARK>
 VINA RESULT:      -7.5      3.328      5.887
  Name = 
  3 active torsions:
  status: ('A' for Active; 'I' for Inactive)
    1  A    between atoms: C_17  and  O_28
    2  A    between atoms: O_28  and  C_29
    3  A    between atoms: C_29  and  C_32
                            x       y       z     vdW  Elec       q    Type
                         _______ _______ _______ _____ _____    ______ ____

>  <TORSDO>
F 3

$$$$
=
 OpenBabel11112417483D

 34 42  0  0  1  0  0  0  0  0999 V2000
  193.2320  176.1530  145.3960 C   0  0  0  0  0  0  0  0  0  0  0  0
  195.6500  175.9900  144.6300 C   0  0  0  0  0  2  0  0  0  0  0  0
  187.5300  176.7610  144.2990 C   0  0  2  0  0  0  0  0  0  0  0  0
  190.9960  175.7240  146.2260 C   0  0  0  0  0  0  0  0  0  0  0  0
  189.2120  174.7610  144.6400 C   0  0  1  0  0  3  0  0  0  0  0  0
  188.9390  177.3350  144.4110 C   0  0  2  0  0  3  0  0  0  0  0  0
  187.7640  178.2460  144.1180 C   0  0  0  0  0  2  0  0  0  0  0  0
  187.8490  176.5830  146.8860 C   0  0  0  0  0  2  0  0  0  0  0  0
  193.9540  175.4300  143.0830 C   0  0  2  0  0  3  0  0  0  0  0  0
  194.6200  172.5930  141.6220 C   0  0  0  0  0  2  0  0  0  0  0  0
  190.3770  174.0920  143.9120 C   0  0  0  0  0  2  0  0  0  0  0  0
  188.6040  175.2930  147.1380 C   0  0  0  0  0  2  0  0  0  0  0  0
  192.8000  174.4060  143.1470 C   0  0  1  0  0  3  0  0  0  0  0  0
  196.3070  175.4350  143.5100 O   0  0  0  0  0  0  0  0  0  0  0  0
  189.6760  175.0120  146.0870 C   0  0  2  0  0  3  0  0  0  0  0  0
  186.9320  176.4130  145.6780 C   0  0  0  0  0  2  0  0  0  0  0  0
  195.4320  173.3200  142.7110 C   0  0  1  0  0  3  0  0  0  0  0  0
  191.9470  175.6260  145.1910 C   0  0  0  0  0  0  0  0  0  0  0  0
  188.7270  175.9650  143.7860 C   0  0  2  0  0  3  0  0  0  0  0  0
  191.5840  175.0450  143.8350 C   0  0  2  0  0  3  0  0  0  0  0  0
  192.5740  176.8360  147.6140 C   0  0  0  0  0  3  0  0  0  0  0  0
  193.6110  173.4740  140.8840 C   0  0  0  0  0  2  0  0  0  0  0  0
  191.3380  176.3100  147.4070 N   0  0  0  0  0  0  0  0  0  0  0  0
  192.4200  173.8840  141.7530 C   0  0  0  0  0  2  0  0  0  0  0  0
  195.3170  174.8600  142.6790 C   0  0  1  0  0  3  0  0  0  0  0  0
  193.5460  176.7600  146.6160 C   0  0  0  0  0  3  0  0  0  0  0  0
  194.2270  176.0010  144.3730 N   0  0  0  0  0  0  0  0  0  0  0  0
  195.1000  172.8130  143.9720 O   0  0  0  0  0  0  0  0  0  0  0  0
  196.2390  172.1330  144.4060 C   0  0  0  0  0  2  0  0  0  0  0  0
  196.0420  169.4130  146.8850 O   0  0  0  0  0  0  0  0  0  0  0  0
  194.6460  170.6980  145.5710 N   0  0  0  0  0  0  0  0  0  0  0  0
  195.8450  171.0850  145.3850 C   0  0  0  0  0  0  0  0  0  0  0  0
  194.7550  169.6660  146.5040 N   0  0  0  0  0  2  0  0  0  0  0  0
  196.7490  170.3210  146.1510 N   0  0  0  0  0  2  0  0  0  0  0  0
  1 26  1  0  0  0  0
  3  7  1  6  0  0  0
  3  6  1  0  0  0  0
  3 16  1  0  0  0  0
  4 23  2  0  0  0  0
  5 11  1  6  0  0  0
  5 15  1  0  0  0  0
  6  7  1  6  0  0  0
  8 12  1  0  0  0  0
  9 13  1  0  0  0  0
  9 27  1  1  0  0  0
 10 17  1  0  0  0  0
 13 24  1  6  0  0  0
 13 20  1  0  0  0  0
 14  2  1  0  0  0  0
 15  4  1  0  0  0  0
 15 12  1  6  0  0  0
 16  8  1  0  0  0  0
 17 28  1  1  0  0  0
 18  1  2  0  0  0  0
 18  4  1  0  0  0  0
 19  3  1  0  0  0  0
 19  6  1  0  0  0  0
 19  5  1  0  0  0  0
 20 11  1  0  0  0  0
 20 18  1  0  0  0  0
 22 10  1  0  0  0  0
 22 24  1  0  0  0  0
 23 21  1  0  0  0  0
 25 17  1  0  0  0  0
 25  9  1  0  0  0  0
 25 14  1  0  0  0  0
 26 21  2  0  0  0  0
 27  2  1  0  0  0  0
 27  1  1  0  0  0  0
 28 29  1  0  0  0  0
 29 32  1  0  0  0  0
 31 33  1  0  0  0  0
 32 31  2  0  0  0  0
 32 34  1  0  0  0  0
 33 30  1  0  0  0  0
 34 30  1  0  0  0  0
M  END
>  <MODEL>
9

>  <REMARK>
 VINA RESULT:      -7.4      2.813      5.090
  Name = 
  3 active torsions:
  status: ('A' for Active; 'I' for Inactive)
    1  A    between atoms: C_17  and  O_28
    2  A    between atoms: O_28  and  C_29
    3  A    between atoms: C_29  and  C_32
                            x       y       z     vdW  Elec       q    Type
                         _______ _______ _______ _____ _____    ______ ____

>  <TORSDO>
F 3

$$$$
