=
 OpenBabel11112416133D

 30 35  0  0  1  0  0  0  0  0999 V2000
  187.7140  175.5960  142.0990 C   0  0  1  0  0  3  0  0  0  0  0  0
  189.2130  173.6930  141.3360 C   0  0  0  0  0  0  0  0  0  0  0  0
  189.4100  175.5170  146.0830 C   0  0  0  0  0  2  0  0  0  0  0  0
  187.4470  176.6920  143.1670 C   0  0  1  0  0  3  0  0  0  0  0  0
  187.5530  176.1710  140.7670 N   0  0  0  0  0  2  0  0  0  0  0  0
  184.6450  178.3000  141.3770 O   0  0  0  0  0  0  0  0  0  0  0  0
  185.1330  177.6600  145.3620 C   0  0  1  0  0  3  0  0  0  0  0  0
  185.6580  177.5810  141.6030 C   0  0  0  0  0  0  0  0  0  0  0  0
  186.1920  176.9350  146.2090 C   0  0  2  0  0  3  0  0  0  0  0  0
  188.5290  176.5980  146.6960 C   0  0  1  0  0  3  0  0  0  0  0  0
  186.4810  177.0780  140.4840 C   0  0  0  0  0  0  0  0  0  0  0  0
  185.9870  177.1560  143.0180 C   0  0  2  0  0  3  0  0  0  0  0  0
  189.5960  172.4210  141.8750 N   0  0  0  0  0  0  0  0  0  0  0  0
  186.0340  177.5940  147.5590 C   0  0  0  0  0  2  0  0  0  0  0  0
  184.5130  178.6690  146.1220 O   0  0  0  0  0  0  0  0  0  0  0  0
  189.0230  173.8020  140.0960 O   0  0  0  0  0  0  0  0  0  0  0  0
  189.1780  175.7220  144.6180 C   0  0  2  0  0  3  0  0  0  0  0  0
  189.8410  172.2490  143.1370 C   0  0  0  0  0  3  0  0  0  0  0  0
  189.0940  174.9080  142.2280 C   0  0  2  0  0  3  0  0  0  0  0  0
  187.7370  176.1260  144.5700 C   0  0  1  0  0  3  0  0  0  0  0  0
  189.3920  177.7590  147.1540 C   0  0  0  0  0  1  0  0  0  0  0  0
  187.5660  177.0700  145.6800 N   0  0  1  0  0  0  0  0  0  0  0  0
  184.7080  178.3010  147.4600 C   0  0  0  0  0  2  0  0  0  0  0  0
  186.1390  179.4260  143.9650 C   0  0  0  0  0  2  0  0  0  0  0  0
  189.7280  173.3600  144.0920 C   0  0  0  0  0  3  0  0  0  0  0  0
  189.3900  174.5850  143.6770 C   0  0  0  0  0  0  0  0  0  0  0  0
  185.6300  178.1910  144.0460 C   0  0  0  0  0  0  0  0  0  0  0  0
  186.2510  177.4860  139.2360 C   0  0  0  0  0  3  0  0  0  0  0  0
  186.2440  176.0660  137.2350 C   0  0  0  0  0  1  0  0  0  0  0  0
  187.0660  177.0180  138.0780 C   0  0  0  0  0  2  0  0  0  0  0  0
  1  5  1  6  0  0  0
  1 19  1  0  0  0  0
  1  4  1  0  0  0  0
  2 13  1  0  0  0  0
  2 19  1  0  0  0  0
  3 10  1  0  0  0  0
  4 20  1  0  0  0  0
  6  8  2  0  0  0  0
  7 15  1  0  0  0  0
  7  9  1  0  0  0  0
  8 12  1  0  0  0  0
  9 14  1  0  0  0  0
 10 21  1  0  0  0  0
 11  5  1  0  0  0  0
 11  8  1  0  0  0  0
 12  4  1  0  0  0  0
 12 27  1  0  0  0  0
 13 18  2  0  0  0  0
 15 23  1  0  0  0  0
 16  2  2  0  0  0  0
 17  3  1  0  0  0  0
 18 25  1  0  0  0  0
 19 26  1  0  0  0  0
 20 17  1  0  0  0  0
 20 22  1  0  0  0  0
 22  9  1  0  0  0  0
 22 10  1  0  0  0  0
 23 14  1  0  0  0  0
 24 27  2  0  0  0  0
 26 25  2  0  0  0  0
 26 17  1  0  0  0  0
 27  7  1  0  0  0  0
 28 11  2  0  0  0  0
 29 30  1  0  0  0  0
 30 28  1  0  0  0  0
M  END
>  <MODEL>
1

>  <REMARK>
 VINA RESULT:      -8.8      0.000      0.000
  Name = 
  1 active torsions:
  status: ('A' for Active; 'I' for Inactive)
    1  A    between atoms: C_28  and  C_30
                            x       y       z     vdW  Elec       q    Type
                         _______ _______ _______ _____ _____    ______ ____

>  <TORSDO>
F 1

$$$$
=
 OpenBabel11112416133D

 30 35  0  0  1  0  0  0  0  0999 V2000
  188.0390  177.2270  146.2650 C   0  0  1  0  0  3  0  0  0  0  0  0
  186.2210  178.5720  147.4220 C   0  0  0  0  0  0  0  0  0  0  0  0
  185.9210  177.3550  142.4890 C   0  0  0  0  0  2  0  0  0  0  0  0
  188.6630  176.7780  144.9150 C   0  0  1  0  0  3  0  0  0  0  0  0
  189.1020  177.6470  147.1720 N   0  0  0  0  0  2  0  0  0  0  0  0
  191.6020  175.0970  146.3910 O   0  0  0  0  0  0  0  0  0  0  0  0
  189.3600  174.0230  143.1740 C   0  0  1  0  0  3  0  0  0  0  0  0
  190.5820  175.8330  146.2790 C   0  0  0  0  0  0  0  0  0  0  0  0
  188.0810  174.5780  142.5260 C   0  0  2  0  0  3  0  0  0  0  0  0
  186.8930  176.5000  141.6860 C   0  0  1  0  0  3  0  0  0  0  0  0
  190.3270  176.9080  147.2590 C   0  0  0  0  0  0  0  0  0  0  0  0
  189.5660  175.5620  145.1900 C   0  0  2  0  0  3  0  0  0  0  0  0
  184.7890  178.5270  147.4560 N   0  0  0  0  0  0  0  0  0  0  0  0
  188.1830  174.0580  141.1110 C   0  0  0  0  0  2  0  0  0  0  0  0
  190.1340  173.3440  142.2150 O   0  0  0  0  0  0  0  0  0  0  0  0
  186.8510  178.8570  148.4740 O   0  0  0  0  0  0  0  0  0  0  0  0
  186.7340  177.6970  143.6990 C   0  0  2  0  0  3  0  0  0  0  0  0
  184.0770  178.2750  146.4010 C   0  0  0  0  0  3  0  0  0  0  0  0
  186.9720  178.3400  146.1300 C   0  0  2  0  0  3  0  0  0  0  0  0
  187.5400  176.4540  143.9110 C   0  0  1  0  0  3  0  0  0  0  0  0
  187.4670  177.3190  140.5450 C   0  0  0  0  0  1  0  0  0  0  0  0
  187.9880  176.0520  142.5720 N   0  0  1  0  0  0  0  0  0  0  0  0
  189.2380  172.9870  141.1980 C   0  0  0  0  0  2  0  0  0  0  0  0
  191.1340  175.7320  143.2960 C   0  0  0  0  0  2  0  0  0  0  0  0
  184.7120  178.0090  145.1020 C   0  0  0  0  0  3  0  0  0  0  0  0
  186.0420  178.0440  144.9730 C   0  0  0  0  0  0  0  0  0  0  0  0
  190.1800  175.0350  143.9250 C   0  0  0  0  0  0  0  0  0  0  0  0
  191.2330  177.2070  148.1900 C   0  0  0  0  0  3  0  0  0  0  0  0
  191.6480  177.8920  150.5090 C   0  0  0  0  0  1  0  0  0  0  0  0
  191.0250  178.2940  149.1890 C   0  0  0  0  0  2  0  0  0  0  0  0
  1  5  1  1  0  0  0
  2 13  1  0  0  0  0
  2 16  2  0  0  0  0
  3 17  1  0  0  0  0
  4 12  1  0  0  0  0
  4  1  1  0  0  0  0
  5 11  1  0  0  0  0
  7 27  1  0  0  0  0
  8  6  2  0  0  0  0
  8 11  1  0  0  0  0
  9 22  1  0  0  0  0
  9  7  1  0  0  0  0
 10  3  1  0  0  0  0
 10 22  1  0  0  0  0
 11 28  2  0  0  0  0
 12  8  1  0  0  0  0
 14 23  1  0  0  0  0
 14  9  1  0  0  0  0
 15  7  1  0  0  0  0
 17 20  1  0  0  0  0
 17 26  1  0  0  0  0
 18 13  2  0  0  0  0
 19  1  1  0  0  0  0
 19  2  1  0  0  0  0
 20  4  1  0  0  0  0
 21 10  1  0  0  0  0
 22 20  1  0  0  0  0
 23 15  1  0  0  0  0
 24 27  2  0  0  0  0
 25 18  1  0  0  0  0
 26 25  2  0  0  0  0
 26 19  1  0  0  0  0
 27 12  1  0  0  0  0
 28 30  1  0  0  0  0
 30 29  1  0  0  0  0
M  END
>  <MODEL>
2

>  <REMARK>
 VINA RESULT:      -8.7      2.204      7.441
  Name = 
  1 active torsions:
  status: ('A' for Active; 'I' for Inactive)
    1  A    between atoms: C_28  and  C_30
                            x       y       z     vdW  Elec       q    Type
                         _______ _______ _______ _____ _____    ______ ____

>  <TORSDO>
F 1

$$$$
=
 OpenBabel11112416133D

 30 35  0  0  1  0  0  0  0  0999 V2000
  186.4110  177.6460  144.2700 C   0  0  1  0  0  3  0  0  0  0  0  0
  185.2040  178.7640  146.2050 C   0  0  0  0  0  0  0  0  0  0  0  0
  188.9570  175.4140  146.9710 C   0  0  0  0  0  2  0  0  0  0  0  0
  187.3400  176.4870  143.8140 C   0  0  1  0  0  3  0  0  0  0  0  0
  185.2940  177.7640  143.3400 N   0  0  0  0  0  2  0  0  0  0  0  0
  187.0620  177.1750  140.1960 O   0  0  0  0  0  0  0  0  0  0  0  0
  190.2850  175.9510  142.3500 C   0  0  1  0  0  3  0  0  0  0  0  0
  186.8180  177.1950  141.4340 C   0  0  0  0  0  0  0  0  0  0  0  0
  190.5490  175.7210  143.8480 C   0  0  2  0  0  3  0  0  0  0  0  0
  189.8110  174.7230  145.9150 C   0  0  1  0  0  3  0  0  0  0  0  0
  185.4980  177.6410  141.9270 C   0  0  0  0  0  0  0  0  0  0  0  0
  187.9050  176.8480  142.4290 C   0  0  2  0  0  3  0  0  0  0  0  0
  185.6090  179.4020  147.4240 N   0  0  0  0  0  0  0  0  0  0  0  0
  191.7090  174.7540  143.8280 C   0  0  0  0  0  2  0  0  0  0  0  0
  191.1390  175.1420  141.5790 O   0  0  0  0  0  0  0  0  0  0  0  0
  184.2310  179.2350  145.5610 O   0  0  0  0  0  0  0  0  0  0  0  0
  187.8020  175.9120  146.1590 C   0  0  2  0  0  3  0  0  0  0  0  0
  186.5800  178.9490  148.1550 C   0  0  0  0  0  3  0  0  0  0  0  0
  185.8940  177.5090  145.7220 C   0  0  2  0  0  3  0  0  0  0  0  0
  188.4510  176.2740  144.8590 C   0  0  1  0  0  3  0  0  0  0  0  0
  189.6360  173.2210  146.0220 C   0  0  0  0  0  1  0  0  0  0  0  0
  189.3820  175.1770  144.5750 N   0  0  1  0  0  0  0  0  0  0  0  0
  192.2220  174.8400  142.4150 C   0  0  0  0  0  2  0  0  0  0  0  0
  188.3870  174.6000  141.5420 C   0  0  0  0  0  2  0  0  0  0  0  0
  187.3320  177.7490  147.7600 C   0  0  0  0  0  3  0  0  0  0  0  0
  187.0160  177.0820  146.6450 C   0  0  0  0  0  0  0  0  0  0  0  0
  188.8510  175.7940  141.9280 C   0  0  0  0  0  0  0  0  0  0  0  0
  184.5060  177.8940  141.0750 C   0  0  0  0  0  3  0  0  0  0  0  0
  182.1280  177.9730  140.4720 C   0  0  0  0  0  1  0  0  0  0  0  0
  183.1530  178.3300  141.5280 C   0  0  0  0  0  2  0  0  0  0  0  0
  1  5  1  6  0  0  0
  1 19  1  0  0  0  0
  2 13  1  0  0  0  0
  4  1  1  0  0  0  0
  4 20  1  0  0  0  0
  6  8  2  0  0  0  0
  7  9  1  0  0  0  0
  8 11  1  0  0  0  0
  8 12  1  0  0  0  0
  9 22  1  0  0  0  0
 10 21  1  0  0  0  0
 10  3  1  0  0  0  0
 11  5  1  0  0  0  0
 12  4  1  0  0  0  0
 13 18  2  0  0  0  0
 14  9  1  0  0  0  0
 15  7  1  0  0  0  0
 15 23  1  0  0  0  0
 16  2  2  0  0  0  0
 17 26  1  0  0  0  0
 17  3  1  0  0  0  0
 19  2  1  0  0  0  0
 19 26  1  0  0  0  0
 20 17  1  0  0  0  0
 22 20  1  0  0  0  0
 22 10  1  0  0  0  0
 23 14  1  0  0  0  0
 24 27  2  0  0  0  0
 25 18  1  0  0  0  0
 26 25  2  0  0  0  0
 27  7  1  0  0  0  0
 27 12  1  0  0  0  0
 28 30  1  0  0  0  0
 28 11  2  0  0  0  0
 29 30  1  0  0  0  0
M  END
>  <MODEL>
3

>  <REMARK>
 VINA RESULT:      -8.6      2.093      5.501
  Name = 
  1 active torsions:
  status: ('A' for Active; 'I' for Inactive)
    1  A    between atoms: C_28  and  C_30
                            x       y       z     vdW  Elec       q    Type
                         _______ _______ _______ _____ _____    ______ ____

>  <TORSDO>
F 1

$$$$
=
 OpenBabel11112416133D

 30 35  0  0  1  0  0  0  0  0999 V2000
  188.5040  175.8490  141.9950 C   0  0  1  0  0  3  0  0  0  0  0  0
  186.4880  177.3090  141.4900 C   0  0  0  0  0  0  0  0  0  0  0  0
  188.1540  176.6000  146.2470 C   0  0  0  0  0  2  0  0  0  0  0  0
  189.3080  175.0710  143.0740 C   0  0  1  0  0  3  0  0  0  0  0  0
  188.3560  175.0150  140.8080 N   0  0  0  0  0  2  0  0  0  0  0  0
  191.6780  173.4930  140.7220 O   0  0  0  0  0  0  0  0  0  0  0  0
  192.3350  174.9470  144.4610 C   0  0  1  0  0  3  0  0  0  0  0  0
  190.6620  174.1000  141.1610 C   0  0  0  0  0  0  0  0  0  0  0  0
  191.4680  175.6970  145.4880 C   0  0  2  0  0  3  0  0  0  0  0  0
  189.3820  175.8160  146.6900 C   0  0  1  0  0  3  0  0  0  0  0  0
  189.4480  174.2200  140.3280 C   0  0  0  0  0  0  0  0  0  0  0  0
  190.7110  174.7870  142.5090 C   0  0  2  0  0  3  0  0  0  0  0  0
  186.0420  178.6060  141.9060 N   0  0  0  0  0  0  0  0  0  0  0  0
  192.1690  175.3880  146.7900 C   0  0  0  0  0  2  0  0  0  0  0  0
  193.3520  174.2310  145.1180 O   0  0  0  0  0  0  0  0  0  0  0  0
  186.3010  176.9490  140.2990 O   0  0  0  0  0  0  0  0  0  0  0  0
  187.9550  176.1010  144.8490 C   0  0  2  0  0  3  0  0  0  0  0  0
  186.1720  179.0260  143.1270 C   0  0  0  0  0  3  0  0  0  0  0  0
  187.1240  176.3560  142.4770 C   0  0  2  0  0  3  0  0  0  0  0  0
  189.3590  175.8960  144.3730 C   0  0  1  0  0  3  0  0  0  0  0  0
  188.9590  174.6830  147.6060 C   0  0  0  0  0  1  0  0  0  0  0  0
  190.0560  175.2600  145.4970 N   0  0  1  0  0  0  0  0  0  0  0  0
  193.5130  174.8630  146.3580 C   0  0  0  0  0  2  0  0  0  0  0  0
  191.3250  172.7910  143.8180 C   0  0  0  0  0  2  0  0  0  0  0  0
  186.8000  178.1860  144.1560 C   0  0  0  0  0  3  0  0  0  0  0  0
  187.2340  176.9560  143.8620 C   0  0  0  0  0  0  0  0  0  0  0  0
  191.5720  174.0700  143.5080 C   0  0  0  0  0  0  0  0  0  0  0  0
  189.3560  173.5750  139.1660 C   0  0  0  0  0  3  0  0  0  0  0  0
  188.4490  174.4960  137.0800 C   0  0  0  0  0  1  0  0  0  0  0  0
  188.1430  173.6540  138.3000 C   0  0  0  0  0  2  0  0  0  0  0  0
  1  5  1  6  0  0  0
  1 19  1  0  0  0  0
  1  4  1  0  0  0  0
  2 13  1  0  0  0  0
  2 19  1  0  0  0  0
  3 10  1  0  0  0  0
  4 20  1  0  0  0  0
  6  8  2  0  0  0  0
  7 15  1  0  0  0  0
  7  9  1  0  0  0  0
  8 12  1  0  0  0  0
  9 22  1  0  0  0  0
  9 14  1  0  0  0  0
 10 21  1  0  0  0  0
 11  5  1  0  0  0  0
 11  8  1  0  0  0  0
 12  4  1  0  0  0  0
 12 27  1  0  0  0  0
 13 18  2  0  0  0  0
 15 23  1  0  0  0  0
 16  2  2  0  0  0  0
 17  3  1  0  0  0  0
 18 25  1  0  0  0  0
 19 26  1  0  0  0  0
 20 17  1  0  0  0  0
 20 22  1  0  0  0  0
 22 10  1  0  0  0  0
 23 14  1  0  0  0  0
 26 25  2  0  0  0  0
 26 17  1  0  0  0  0
 27 24  2  0  0  0  0
 27  7  1  0  0  0  0
 28 11  2  0  0  0  0
 29 30  1  0  0  0  0
 30 28  1  0  0  0  0
M  END
>  <MODEL>
4

>  <REMARK>
 VINA RESULT:      -8.2      2.337      5.414
  Name = 
  1 active torsions:
  status: ('A' for Active; 'I' for Inactive)
    1  A    between atoms: C_28  and  C_30
                            x       y       z     vdW  Elec       q    Type
                         _______ _______ _______ _____ _____    ______ ____

>  <TORSDO>
F 1

$$$$
=
 OpenBabel11112416133D

 30 35  0  0  1  0  0  0  0  0999 V2000
  189.0630  175.8100  142.5880 C   0  0  1  0  0  3  0  0  0  0  0  0
  186.7670  176.8860  142.4350 C   0  0  0  0  0  0  0  0  0  0  0  0
  189.4530  176.9160  146.7580 C   0  0  0  0  0  2  0  0  0  0  0  0
  190.1880  175.2760  143.5170 C   0  0  1  0  0  3  0  0  0  0  0  0
  188.8240  174.8500  141.5170 N   0  0  0  0  0  2  0  0  0  0  0  0
  192.2700  173.8550  140.8170 O   0  0  0  0  0  0  0  0  0  0  0  0
  193.4090  175.7560  144.2250 C   0  0  1  0  0  3  0  0  0  0  0  0
  191.2750  174.3390  141.4240 C   0  0  0  0  0  0  0  0  0  0  0  0
  192.6520  176.4620  145.3640 C   0  0  2  0  0  3  0  0  0  0  0  0
  190.8620  176.3780  146.9760 C   0  0  1  0  0  3  0  0  0  0  0  0
  189.9150  174.1880  140.8660 C   0  0  0  0  0  0  0  0  0  0  0  0
  191.4770  175.1560  142.6830 C   0  0  2  0  0  3  0  0  0  0  0  0
  186.1990  178.1340  142.8530 N   0  0  0  0  0  0  0  0  0  0  0  0
  193.6430  176.3950  146.5020 C   0  0  0  0  0  2  0  0  0  0  0  0
  194.6450  175.2730  144.6930 O   0  0  0  0  0  0  0  0  0  0  0  0
  186.4080  176.3850  141.3380 O   0  0  0  0  0  0  0  0  0  0  0  0
  189.0650  176.2570  145.4710 C   0  0  2  0  0  3  0  0  0  0  0  0
  186.4990  178.6880  143.9870 C   0  0  0  0  0  3  0  0  0  0  0  0
  187.7420  176.1440  143.3220 C   0  0  2  0  0  3  0  0  0  0  0  0
  190.3590  176.2240  144.7190 C   0  0  1  0  0  3  0  0  0  0  0  0
  190.8320  175.2910  148.0340 C   0  0  0  0  0  1  0  0  0  0  0  0
  191.3660  175.8170  145.7050 N   0  0  1  0  0  0  0  0  0  0  0  0
  194.9410  176.0420  145.8260 C   0  0  0  0  0  2  0  0  0  0  0  0
  192.6740  173.4180  143.9550 C   0  0  0  0  0  2  0  0  0  0  0  0
  187.4560  178.0610  144.9090 C   0  0  0  0  0  3  0  0  0  0  0  0
  188.0250  176.8890  144.6090 C   0  0  0  0  0  0  0  0  0  0  0  0
  192.6310  174.6820  143.5180 C   0  0  0  0  0  0  0  0  0  0  0  0
  189.7030  173.4250  139.7950 C   0  0  0  0  0  3  0  0  0  0  0  0
  188.1910  174.1170  137.9900 C   0  0  0  0  0  1  0  0  0  0  0  0
  188.3460  173.2300  139.2070 C   0  0  0  0  0  2  0  0  0  0  0  0
  1  5  1  6  0  0  0
  1 19  1  0  0  0  0
  1  4  1  0  0  0  0
  2 13  1  0  0  0  0
  2 19  1  0  0  0  0
  3 10  1  0  0  0  0
  4 20  1  0  0  0  0
  6  8  2  0  0  0  0
  7 15  1  0  0  0  0
  7  9  1  0  0  0  0
  8 12  1  0  0  0  0
  9 22  1  0  0  0  0
  9 14  1  0  0  0  0
 10 21  1  0  0  0  0
 11  8  1  0  0  0  0
 11  5  1  0  0  0  0
 12  4  1  0  0  0  0
 12 27  1  0  0  0  0
 13 18  2  0  0  0  0
 15 23  1  0  0  0  0
 16  2  2  0  0  0  0
 17  3  1  0  0  0  0
 18 25  1  0  0  0  0
 19 26  1  0  0  0  0
 20 17  1  0  0  0  0
 20 22  1  0  0  0  0
 22 10  1  0  0  0  0
 23 14  1  0  0  0  0
 26 25  2  0  0  0  0
 26 17  1  0  0  0  0
 27 24  2  0  0  0  0
 27  7  1  0  0  0  0
 28 11  2  0  0  0  0
 29 30  1  0  0  0  0
 30 28  1  0  0  0  0
M  END
>  <MODEL>
5

>  <REMARK>
 VINA RESULT:      -7.9      2.893      5.781
  Name = 
  1 active torsions:
  status: ('A' for Active; 'I' for Inactive)
    1  A    between atoms: C_28  and  C_30
                            x       y       z     vdW  Elec       q    Type
                         _______ _______ _______ _____ _____    ______ ____

>  <TORSDO>
F 1

$$$$
=
 OpenBabel11112416133D

 30 35  0  0  1  0  0  0  0  0999 V2000
  189.9250  175.7030  145.0110 C   0  0  1  0  0  3  0  0  0  0  0  0
  191.3310  176.4360  146.9960 C   0  0  0  0  0  0  0  0  0  0  0  0
  192.7650  172.6030  143.9710 C   0  0  0  0  0  2  0  0  0  0  0  0
  189.6420  174.5970  143.9580 C   0  0  1  0  0  3  0  0  0  0  0  0
  188.6630  176.1720  145.5710 N   0  0  0  0  0  2  0  0  0  0  0  0
  186.6250  176.1850  142.5370 O   0  0  0  0  0  0  0  0  0  0  0  0
  189.5780  174.1150  140.6610 C   0  0  1  0  0  3  0  0  0  0  0  0
  187.5740  175.9260  143.3280 C   0  0  0  0  0  0  0  0  0  0  0  0
  190.9090  173.4930  141.1180 C   0  0  2  0  0  3  0  0  0  0  0  0
  192.0650  172.1040  142.7130 C   0  0  1  0  0  3  0  0  0  0  0  0
  187.5200  176.3800  144.7320 C   0  0  0  0  0  0  0  0  0  0  0  0
  188.8160  175.2240  142.8200 C   0  0  2  0  0  3  0  0  0  0  0  0
  192.7220  176.7030  147.2130 N   0  0  0  0  0  0  0  0  0  0  0  0
  191.1530  172.4390  140.0650 C   0  0  0  0  0  2  0  0  0  0  0  0
  189.0880  173.4320  139.5330 O   0  0  0  0  0  0  0  0  0  0  0  0
  190.4720  177.1570  147.5670 O   0  0  0  0  0  0  0  0  0  0  0  0
  191.6890  173.4120  144.6260 C   0  0  2  0  0  3  0  0  0  0  0  0
  193.6590  175.9770  146.6840 C   0  0  0  0  0  3  0  0  0  0  0  0
  190.8910  175.2700  146.1400 C   0  0  2  0  0  3  0  0  0  0  0  0
  190.9740  174.0100  143.4540 C   0  0  1  0  0  3  0  0  0  0  0  0
  191.6700  170.6510  142.8940 C   0  0  0  0  0  1  0  0  0  0  0  0
  190.8550  172.9200  142.4790 N   0  0  1  0  0  0  0  0  0  0  0  0
  190.2050  172.8130  138.9560 C   0  0  0  0  0  2  0  0  0  0  0  0
  187.6700  173.2260  141.9450 C   0  0  0  0  0  2  0  0  0  0  0  0
  193.3360  174.8370  145.8150 C   0  0  0  0  0  3  0  0  0  0  0  0
  192.0660  174.5050  145.5670 C   0  0  0  0  0  0  0  0  0  0  0  0
  188.5310  174.2280  141.7330 C   0  0  0  0  0  0  0  0  0  0  0  0
  186.4160  176.9450  145.2210 C   0  0  0  0  0  3  0  0  0  0  0  0
  185.5930  178.7370  146.6820 C   0  0  0  0  0  1  0  0  0  0  0  0
  186.3100  177.4040  146.6360 C   0  0  0  0  0  2  0  0  0  0  0  0
  1  5  1  1  0  0  0
  1 19  1  0  0  0  0
  2 13  1  0  0  0  0
  2 16  2  0  0  0  0
  3 17  1  0  0  0  0
  4  1  1  0  0  0  0
  6  8  2  0  0  0  0
  7  9  1  0  0  0  0
  7 27  1  0  0  0  0
  8 11  1  0  0  0  0
  9 22  1  0  0  0  0
 10 21  1  0  0  0  0
 10  3  1  0  0  0  0
 11 28  2  0  0  0  0
 11  5  1  0  0  0  0
 12  8  1  0  0  0  0
 12  4  1  0  0  0  0
 14  9  1  0  0  0  0
 15  7  1  0  0  0  0
 17 26  1  0  0  0  0
 18 13  2  0  0  0  0
 19  2  1  0  0  0  0
 20  4  1  0  0  0  0
 20 17  1  0  0  0  0
 22 10  1  0  0  0  0
 22 20  1  0  0  0  0
 23 15  1  0  0  0  0
 23 14  1  0  0  0  0
 25 18  1  0  0  0  0
 26 25  2  0  0  0  0
 26 19  1  0  0  0  0
 27 24  2  0  0  0  0
 27 12  1  0  0  0  0
 28 30  1  0  0  0  0
 30 29  1  0  0  0  0
M  END
>  <MODEL>
6

>  <REMARK>
 VINA RESULT:      -7.7      2.545      6.578
  Name = 
  1 active torsions:
  status: ('A' for Active; 'I' for Inactive)
    1  A    between atoms: C_28  and  C_30
                            x       y       z     vdW  Elec       q    Type
                         _______ _______ _______ _____ _____    ______ ____

>  <TORSDO>
F 1

$$$$
=
 OpenBabel11112416133D

 30 35  0  0  1  0  0  0  0  0999 V2000
  190.1970  175.0270  143.5430 C   0  0  1  0  0  3  0  0  0  0  0  0
  188.4680  174.2510  141.8510 C   0  0  0  0  0  0  0  0  0  0  0  0
  193.4590  173.9920  140.8880 C   0  0  0  0  0  2  0  0  0  0  0  0
  191.6730  175.4380  143.7960 C   0  0  1  0  0  3  0  0  0  0  0  0
  189.3100  175.9820  144.1990 N   0  0  0  0  0  2  0  0  0  0  0  0
  191.1780  176.5090  147.2960 O   0  0  0  0  0  0  0  0  0  0  0  0
  194.3290  174.5680  145.6120 C   0  0  1  0  0  3  0  0  0  0  0  0
  190.9240  176.1720  146.1060 C   0  0  0  0  0  0  0  0  0  0  0  0
  194.6120  173.9960  144.2130 C   0  0  2  0  0  3  0  0  0  0  0  0
  194.6020  174.3510  141.8280 C   0  0  1  0  0  3  0  0  0  0  0  0
  189.6090  176.4810  145.5080 C   0  0  0  0  0  0  0  0  0  0  0  0
  191.9330  175.3700  145.3120 C   0  0  2  0  0  3  0  0  0  0  0  0
  188.3100  173.0970  141.0150 N   0  0  0  0  0  0  0  0  0  0  0  0
  196.1210  173.9660  144.1740 C   0  0  0  0  0  2  0  0  0  0  0  0
  195.5370  174.9010  146.2520 O   0  0  0  0  0  0  0  0  0  0  0  0
  187.4510  174.7640  142.3860 O   0  0  0  0  0  0  0  0  0  0  0  0
  192.2930  174.6610  141.5480 C   0  0  2  0  0  3  0  0  0  0  0  0
  189.3100  172.5400  140.4060 C   0  0  0  0  0  3  0  0  0  0  0  0
  189.8270  174.8850  142.0470 C   0  0  2  0  0  3  0  0  0  0  0  0
  192.6110  174.5080  143.0030 C   0  0  1  0  0  3  0  0  0  0  0  0
  195.4350  175.4600  141.2150 C   0  0  0  0  0  1  0  0  0  0  0  0
  194.0420  174.8090  143.1170 N   0  0  1  0  0  0  0  0  0  0  0  0
  196.5200  174.1310  145.6170 C   0  0  0  0  0  2  0  0  0  0  0  0
  193.7920  176.9730  145.5210 C   0  0  0  0  0  2  0  0  0  0  0  0
  190.6760  173.0640  140.5510 C   0  0  0  0  0  3  0  0  0  0  0  0
  190.9160  174.1440  141.3010 C   0  0  0  0  0  0  0  0  0  0  0  0
  193.3560  175.7140  145.6430 C   0  0  0  0  0  0  0  0  0  0  0  0
  188.7270  177.2370  146.1620 C   0  0  0  0  0  3  0  0  0  0  0  0
  186.3120  176.8410  146.3420 C   0  0  0  0  0  1  0  0  0  0  0  0
  187.3950  177.5880  145.5920 C   0  0  0  0  0  2  0  0  0  0  0  0
  1  4  1  0  0  0  0
  1  5  1  6  0  0  0
  2 19  1  0  0  0  0
  2 16  2  0  0  0  0
  3 17  1  0  0  0  0
  3 10  1  0  0  0  0
  4 12  1  0  0  0  0
  5 11  1  0  0  0  0
  7 27  1  0  0  0  0
  7 15  1  0  0  0  0
  8  6  2  0  0  0  0
  9  7  1  0  0  0  0
 10 22  1  0  0  0  0
 11  8  1  0  0  0  0
 11 28  2  0  0  0  0
 12 27  1  0  0  0  0
 12  8  1  0  0  0  0
 13  2  1  0  0  0  0
 14  9  1  0  0  0  0
 14 23  1  0  0  0  0
 17 20  1  0  0  0  0
 18 25  1  0  0  0  0
 18 13  2  0  0  0  0
 19  1  1  0  0  0  0
 20 22  1  0  0  0  0
 20  4  1  0  0  0  0
 21 10  1  0  0  0  0
 22  9  1  0  0  0  0
 23 15  1  0  0  0  0
 24 27  2  0  0  0  0
 25 26  2  0  0  0  0
 26 17  1  0  0  0  0
 26 19  1  0  0  0  0
 30 28  1  0  0  0  0
 30 29  1  0  0  0  0
M  END
>  <MODEL>
7

>  <REMARK>
 VINA RESULT:      -7.4      4.061      7.112
  Name = 
  1 active torsions:
  status: ('A' for Active; 'I' for Inactive)
    1  A    between atoms: C_28  and  C_30
                            x       y       z     vdW  Elec       q    Type
                         _______ _______ _______ _____ _____    ______ ____

>  <TORSDO>
F 1

$$$$
=
 OpenBabel11112416133D

 30 35  0  0  1  0  0  0  0  0999 V2000
  188.5220  175.9480  142.0110 C   0  0  1  0  0  3  0  0  0  0  0  0
  186.7840  176.7110  140.3230 C   0  0  0  0  0  0  0  0  0  0  0  0
  186.2790  177.6600  145.2980 C   0  0  0  0  0  2  0  0  0  0  0  0
  188.8530  175.6850  143.5060 C   0  0  1  0  0  3  0  0  0  0  0  0
  188.9940  174.8270  141.2070 N   0  0  0  0  0  2  0  0  0  0  0  0
  192.1630  174.1610  142.9020 O   0  0  0  0  0  0  0  0  0  0  0  0
  190.9700  176.6390  145.8960 C   0  0  1  0  0  3  0  0  0  0  0  0
  190.9990  174.6030  142.6920 C   0  0  0  0  0  0  0  0  0  0  0  0
  189.6690  177.4000  146.2040 C   0  0  2  0  0  3  0  0  0  0  0  0
  187.2680  177.3280  146.4080 C   0  0  1  0  0  3  0  0  0  0  0  0
  190.2630  174.2160  141.4720 C   0  0  0  0  0  0  0  0  0  0  0  0
  190.3840  175.6050  143.6470 C   0  0  2  0  0  3  0  0  0  0  0  0
  186.0660  177.9290  140.0820 N   0  0  0  0  0  0  0  0  0  0  0  0
  189.7620  177.6100  147.6970 C   0  0  0  0  0  2  0  0  0  0  0  0
  191.6700  176.3760  147.0880 O   0  0  0  0  0  0  0  0  0  0  0  0
  187.1730  176.0240  139.3430 O   0  0  0  0  0  0  0  0  0  0  0  0
  186.7620  176.7870  144.1810 C   0  0  2  0  0  3  0  0  0  0  0  0
  185.6070  178.6660  141.0450 C   0  0  0  0  0  3  0  0  0  0  0  0
  187.0240  176.2210  141.7330 C   0  0  2  0  0  3  0  0  0  0  0  0
  188.2470  176.8040  144.3730 C   0  0  1  0  0  3  0  0  0  0  0  0
  186.6110  176.4020  147.4140 C   0  0  0  0  0  1  0  0  0  0  0  0
  188.4480  176.6600  145.8200 N   0  0  1  0  0  0  0  0  0  0  0  0
  191.2070  177.3240  148.0100 C   0  0  0  0  0  2  0  0  0  0  0  0
  190.5750  174.2150  145.6720 C   0  0  0  0  0  2  0  0  0  0  0  0
  185.8110  178.2910  142.4520 C   0  0  0  0  0  3  0  0  0  0  0  0
  186.4570  177.1660  142.7710 C   0  0  0  0  0  0  0  0  0  0  0  0
  190.7950  175.3920  145.0750 C   0  0  0  0  0  0  0  0  0  0  0  0
  190.7540  173.2910  140.6480 C   0  0  0  0  0  3  0  0  0  0  0  0
  190.6710  173.5160  138.2050 C   0  0  0  0  0  1  0  0  0  0  0  0
  190.0390  172.8570  139.4130 C   0  0  0  0  0  2  0  0  0  0  0  0
  1  5  1  6  0  0  0
  1  4  1  0  0  0  0
  2 19  1  0  0  0  0
  3 10  1  0  0  0  0
  4 12  1  0  0  0  0
  4 20  1  0  0  0  0
  5 11  1  0  0  0  0
  7  9  1  0  0  0  0
  7 15  1  0  0  0  0
  8  6  2  0  0  0  0
  8 12  1  0  0  0  0
  9 14  1  0  0  0  0
 10 21  1  0  0  0  0
 11  8  1  0  0  0  0
 12 27  1  0  0  0  0
 13  2  1  0  0  0  0
 13 18  2  0  0  0  0
 14 23  1  0  0  0  0
 15 23  1  0  0  0  0
 16  2  2  0  0  0  0
 17 20  1  0  0  0  0
 17  3  1  0  0  0  0
 18 25  1  0  0  0  0
 19  1  1  0  0  0  0
 19 26  1  0  0  0  0
 20 22  1  0  0  0  0
 22  9  1  0  0  0  0
 22 10  1  0  0  0  0
 25 26  2  0  0  0  0
 26 17  1  0  0  0  0
 27 24  2  0  0  0  0
 27  7  1  0  0  0  0
 28 11  2  0  0  0  0
 29 30  1  0  0  0  0
 30 28  1  0  0  0  0
M  END
>  <MODEL>
8

>  <REMARK>
 VINA RESULT:      -7.4      2.277      4.986
  Name = 
  1 active torsions:
  status: ('A' for Active; 'I' for Inactive)
    1  A    between atoms: C_28  and  C_30
                            x       y       z     vdW  Elec       q    Type
                         _______ _______ _______ _____ _____    ______ ____

>  <TORSDO>
F 1

$$$$
=
 OpenBabel11112416133D

 30 35  0  0  1  0  0  0  0  0999 V2000
  188.8210  175.0820  141.8030 C   0  0  1  0  0  3  0  0  0  0  0  0
  188.8010  173.6480  139.7070 C   0  0  0  0  0  0  0  0  0  0  0  0
  192.7620  173.6600  142.9010 C   0  0  0  0  0  2  0  0  0  0  0  0
  189.6750  175.7100  142.9390 C   0  0  1  0  0  3  0  0  0  0  0  0
  187.9040  176.0870  141.2770 N   0  0  0  0  0  2  0  0  0  0  0  0
  186.9450  177.7230  144.4010 O   0  0  0  0  0  0  0  0  0  0  0  0
  189.9570  175.7230  146.2600 C   0  0  1  0  0  3  0  0  0  0  0  0
  187.5980  177.0180  143.5830 C   0  0  0  0  0  0  0  0  0  0  0  0
  191.0830  174.7910  145.7780 C   0  0  2  0  0  3  0  0  0  0  0  0
  192.8840  174.4090  144.2220 C   0  0  1  0  0  3  0  0  0  0  0  0
  187.2170  176.9860  142.1560 C   0  0  0  0  0  0  0  0  0  0  0  0
  188.7220  176.1300  144.0730 C   0  0  2  0  0  3  0  0  0  0  0  0
  189.1290  172.2860  139.4030 N   0  0  0  0  0  0  0  0  0  0  0  0
  192.1030  174.9170  146.8850 C   0  0  0  0  0  2  0  0  0  0  0  0
  190.3380  176.3640  147.4530 O   0  0  0  0  0  0  0  0  0  0  0  0
  187.8160  174.1840  139.1330 O   0  0  0  0  0  0  0  0  0  0  0  0
  191.6130  174.3650  142.2490 C   0  0  2  0  0  3  0  0  0  0  0  0
  190.1500  171.6850  139.9310 C   0  0  0  0  0  3  0  0  0  0  0  0
  189.6530  174.4570  140.6580 C   0  0  2  0  0  3  0  0  0  0  0  0
  190.7300  174.6930  143.4130 C   0  0  1  0  0  3  0  0  0  0  0  0
  194.0580  175.3670  144.1580 C   0  0  0  0  0  1  0  0  0  0  0  0
  191.6390  175.1690  144.4620 N   0  0  1  0  0  0  0  0  0  0  0  0
  191.3320  175.5510  148.0130 C   0  0  0  0  0  2  0  0  0  0  0  0
  190.0470  177.9160  145.1340 C   0  0  0  0  0  2  0  0  0  0  0  0
  191.0270  172.3750  140.8880 C   0  0  0  0  0  3  0  0  0  0  0  0
  190.8050  173.6500  141.2200 C   0  0  0  0  0  0  0  0  0  0  0  0
  189.4720  176.7120  145.2360 C   0  0  0  0  0  0  0  0  0  0  0  0
  186.2730  177.8020  141.6870 C   0  0  0  0  0  3  0  0  0  0  0  0
  184.4340  178.2910  140.1380 C   0  0  0  0  0  1  0  0  0  0  0  0
  185.8680  177.8170  140.2520 C   0  0  0  0  0  2  0  0  0  0  0  0
  1  5  1  6  0  0  0
  1  4  1  0  0  0  0
  2 19  1  0  0  0  0
  3 10  1  0  0  0  0
  4 20  1  0  0  0  0
  4 12  1  0  0  0  0
  5 11  1  0  0  0  0
  7 15  1  0  0  0  0
  8 12  1  0  0  0  0
  8  6  2  0  0  0  0
  9  7  1  0  0  0  0
  9 14  1  0  0  0  0
 10 22  1  0  0  0  0
 11  8  1  0  0  0  0
 12 27  1  0  0  0  0
 13  2  1  0  0  0  0
 13 18  2  0  0  0  0
 14 23  1  0  0  0  0
 15 23  1  0  0  0  0
 16  2  2  0  0  0  0
 17  3  1  0  0  0  0
 17 20  1  0  0  0  0
 18 25  1  0  0  0  0
 19 26  1  0  0  0  0
 19  1  1  0  0  0  0
 20 22  1  0  0  0  0
 21 10  1  0  0  0  0
 22  9  1  0  0  0  0
 24 27  2  0  0  0  0
 25 26  2  0  0  0  0
 26 17  1  0  0  0  0
 27  7  1  0  0  0  0
 28 11  2  0  0  0  0
 29 30  1  0  0  0  0
 30 28  1  0  0  0  0
M  END
>  <MODEL>
9

>  <REMARK>
 VINA RESULT:      -7.4      2.483      4.042
  Name = 
  1 active torsions:
  status: ('A' for Active; 'I' for Inactive)
    1  A    between atoms: C_28  and  C_30
                            x       y       z     vdW  Elec       q    Type
                         _______ _______ _______ _____ _____    ______ ____

>  <TORSDO>
F 1

$$$$
