=
 OpenBabel11112416163D

 30 35  0  0  1  0  0  0  0  0999 V2000
  187.5750  176.5790  143.8810 C   0  0  1  0  0  3  0  0  0  0  0  0
  185.4860  177.9410  144.4000 C   0  0  0  0  0  0  0  0  0  0  0  0
  189.1650  177.6520  147.7720 C   0  0  0  0  0  2  0  0  0  0  0  0
  188.8000  175.8600  144.4900 C   0  0  1  0  0  3  0  0  0  0  0  0
  186.8440  175.6700  143.0900 O   0  0  0  0  0  0  0  0  0  0  0  0
  189.8410  174.3630  141.1770 C   0  0  0  0  0  1  0  0  0  0  0  0
  192.0510  175.8160  144.1880 C   0  0  1  0  0  3  0  0  0  0  0  0
  188.9890  174.6900  142.4020 C   0  0  2  0  0  3  0  0  0  0  0  0
  191.9240  176.5600  145.5290 C   0  0  2  0  0  3  0  0  0  0  0  0
  190.5040  177.0320  147.5870 C   0  0  0  0  0  0  0  0  0  0  0  0
  187.6430  175.3270  141.9730 C   0  0  2  0  0  3  0  0  0  0  0  0
  189.7120  175.5410  143.3710 N   0  0  2  0  0  0  0  0  0  0  0  0
  184.7260  178.7330  145.2640 C   0  0  0  0  0  3  0  0  0  0  0  0
  193.1530  176.1600  146.3280 C   0  0  0  0  0  2  0  0  0  0  0  0
  193.4030  175.1250  144.1790 C   0  0  0  0  0  2  0  0  0  0  0  0
  185.0340  177.7440  143.1000 O   0  0  0  0  0  1  0  0  0  0  0  0
  188.3990  176.9920  146.6440 C   0  0  2  0  0  3  0  0  0  0  0  0
  185.1620  178.9750  146.5660 C   0  0  0  0  0  3  0  0  0  0  0  0
  186.6920  177.3620  144.8440 C   0  0  0  0  0  0  0  0  0  0  0  0
  189.4170  176.7850  145.5400 C   0  0  1  0  0  3  0  0  0  0  0  0
  191.3770  177.0850  148.4390 O   0  0  0  0  0  0  0  0  0  0  0  0
  190.6310  176.2680  146.3000 C   0  0  1  0  0  3  0  0  0  0  0  0
  194.1890  175.7470  145.3090 C   0  0  0  0  0  2  0  0  0  0  0  0
  190.7010  173.6730  144.7760 C   0  0  0  0  0  1  0  0  0  0  0  0
  186.3690  178.4360  147.0090 C   0  0  0  0  0  3  0  0  0  0  0  0
  187.1540  177.6610  146.1470 C   0  0  0  0  0  0  0  0  0  0  0  0
  190.9330  174.8360  143.8040 C   0  0  2  0  0  3  0  0  0  0  0  0
  187.8010  176.5020  141.0020 C   0  0  0  0  0  2  0  0  0  0  0  0
  186.2610  177.4880  139.7710 C   0  0  0  0  0  1  0  0  0  0  0  0
  186.9910  176.3070  139.8840 O   0  0  0  0  0  0  0  0  0  0  0  0
  1  5  1  1  0  0  0
  1  4  1  0  0  0  0
  1 19  1  0  0  0  0
  2 19  2  0  0  0  0
  2 13  1  0  0  0  0
  4 20  1  0  0  0  0
  6  8  1  0  0  0  0
  7  9  1  0  0  0  0
  8 12  1  0  0  0  0
  9 22  1  0  0  0  0
  9 14  1  0  0  0  0
 10  3  1  0  0  0  0
 10 21  2  0  0  0  0
 11  8  1  0  0  0  0
 11  5  1  0  0  0  0
 12 27  1  0  0  0  0
 12  4  1  0  0  0  0
 13 18  2  0  0  0  0
 15  7  1  0  0  0  0
 15 23  1  0  0  0  0
 16  2  1  0  0  0  0
 17  3  1  0  0  0  0
 18 25  1  0  0  0  0
 19 26  1  0  0  0  0
 20 22  1  0  0  0  0
 20 17  1  0  0  0  0
 22 10  1  0  0  0  0
 23 14  1  0  0  0  0
 26 17  1  0  0  0  0
 26 25  2  0  0  0  0
 27  7  1  0  0  0  0
 27 24  1  0  0  0  0
 28 11  1  0  0  0  0
 29 30  1  0  0  0  0
 30 28  1  0  0  0  0
M  END
>  <MODEL>
1

>  <REMARK>
 VINA RESULT:      -8.5      0.000      0.000
  Name = 
  2 active torsions:
  status: ('A' for Active; 'I' for Inactive)
    1  A    between atoms: C_11  and  C_28
    2  A    between atoms: C_28  and  O_30
                            x       y       z     vdW  Elec       q    Type
                         _______ _______ _______ _____ _____    ______ ____

>  <TORSDO>
F 2

$$$$
=
 OpenBabel11112416163D

 30 35  0  0  1  0  0  0  0  0999 V2000
  187.1020  176.9950  144.0520 C   0  0  1  0  0  3  0  0  0  0  0  0
  185.3050  178.3020  145.2980 C   0  0  0  0  0  0  0  0  0  0  0  0
  189.6870  177.3710  147.5160 C   0  0  0  0  0  2  0  0  0  0  0  0
  188.3910  176.1570  144.2050 C   0  0  1  0  0  3  0  0  0  0  0  0
  186.1370  176.2480  143.3480 O   0  0  0  0  0  0  0  0  0  0  0  0
  188.4630  175.2050  140.5460 C   0  0  0  0  0  1  0  0  0  0  0  0
  191.4510  176.0870  143.0670 C   0  0  1  0  0  3  0  0  0  0  0  0
  187.9700  175.3450  141.9850 C   0  0  2  0  0  3  0  0  0  0  0  0
  191.7140  176.6010  144.4930 C   0  0  2  0  0  3  0  0  0  0  0  0
  190.8930  176.7590  146.8970 C   0  0  0  0  0  0  0  0  0  0  0  0
  186.6040  176.0760  142.0230 C   0  0  2  0  0  3  0  0  0  0  0  0
  188.9680  176.0070  142.8520 N   0  0  2  0  0  0  0  0  0  0  0  0
  184.8410  178.9580  146.4410 C   0  0  0  0  0  3  0  0  0  0  0  0
  193.0760  176.0450  144.8750 C   0  0  0  0  0  2  0  0  0  0  0  0
  192.7090  175.3750  142.6020 C   0  0  0  0  0  2  0  0  0  0  0  0
  184.5280  178.3340  144.1460 O   0  0  0  0  0  1  0  0  0  0  0  0
  188.6200  176.9260  146.5370 C   0  0  2  0  0  3  0  0  0  0  0  0
  185.6050  178.9710  147.6070 C   0  0  0  0  0  3  0  0  0  0  0  0
  186.5430  177.6290  145.3190 C   0  0  0  0  0  0  0  0  0  0  0  0
  189.3120  176.8810  145.1890 C   0  0  1  0  0  3  0  0  0  0  0  0
  191.9540  176.6500  147.4910 O   0  0  0  0  0  0  0  0  0  0  0  0
  190.6410  176.2160  145.5190 C   0  0  1  0  0  3  0  0  0  0  0  0
  193.7920  175.7820  143.5710 C   0  0  0  0  0  2  0  0  0  0  0  0
  190.1540  173.9090  143.6480 C   0  0  0  0  0  1  0  0  0  0  0  0
  186.8480  178.3380  147.6340 C   0  0  0  0  0  3  0  0  0  0  0  0
  187.3370  177.6970  146.4880 C   0  0  0  0  0  0  0  0  0  0  0  0
  190.2100  175.2110  142.8400 C   0  0  2  0  0  3  0  0  0  0  0  0
  186.5900  177.3910  141.2370 C   0  0  0  0  0  2  0  0  0  0  0  0
  184.6720  178.2850  140.6150 C   0  0  0  0  0  1  0  0  0  0  0  0
  185.6200  177.3360  140.2360 O   0  0  0  0  0  0  0  0  0  0  0  0
  1  5  1  1  0  0  0
  1  4  1  0  0  0  0
  1 19  1  0  0  0  0
  2 19  2  0  0  0  0
  2 13  1  0  0  0  0
  4 20  1  0  0  0  0
  6  8  1  0  0  0  0
  7  9  1  0  0  0  0
  8 11  1  0  0  0  0
  8 12  1  0  0  0  0
  9 14  1  0  0  0  0
  9 22  1  0  0  0  0
 10 21  2  0  0  0  0
 10  3  1  0  0  0  0
 11  5  1  0  0  0  0
 12  4  1  0  0  0  0
 13 18  2  0  0  0  0
 15  7  1  0  0  0  0
 15 23  1  0  0  0  0
 16  2  1  0  0  0  0
 17  3  1  0  0  0  0
 18 25  1  0  0  0  0
 19 26  1  0  0  0  0
 20 22  1  0  0  0  0
 20 17  1  0  0  0  0
 22 10  1  0  0  0  0
 23 14  1  0  0  0  0
 26 17  1  0  0  0  0
 26 25  2  0  0  0  0
 27 12  1  0  0  0  0
 27  7  1  0  0  0  0
 27 24  1  0  0  0  0
 28 11  1  0  0  0  0
 30 29  1  0  0  0  0
 30 28  1  0  0  0  0
M  END
>  <MODEL>
2

>  <REMARK>
 VINA RESULT:      -8.5      1.080      1.190
  Name = 
  2 active torsions:
  status: ('A' for Active; 'I' for Inactive)
    1  A    between atoms: C_11  and  C_28
    2  A    between atoms: C_28  and  O_30
                            x       y       z     vdW  Elec       q    Type
                         _______ _______ _______ _____ _____    ______ ____

>  <TORSDO>
F 2

$$$$
=
 OpenBabel11112416163D

 30 35  0  0  1  0  0  0  0  0999 V2000
  187.9030  175.7510  142.8740 C   0  0  1  0  0  3  0  0  0  0  0  0
  186.1850  177.6110  142.5950 C   0  0  0  0  0  0  0  0  0  0  0  0
  189.0470  177.4660  146.6920 C   0  0  0  0  0  2  0  0  0  0  0  0
  188.7790  174.9800  143.8870 C   0  0  1  0  0  3  0  0  0  0  0  0
  187.1020  174.8400  142.1580 O   0  0  0  0  0  0  0  0  0  0  0  0
  189.9300  172.4670  141.3070 C   0  0  0  0  0  1  0  0  0  0  0  0
  191.9100  174.1720  144.3450 C   0  0  1  0  0  3  0  0  0  0  0  0
  189.0010  173.2820  142.2050 C   0  0  2  0  0  3  0  0  0  0  0  0
  191.7600  175.2570  145.4260 C   0  0  2  0  0  3  0  0  0  0  0  0
  190.1900  176.5510  146.9550 C   0  0  0  0  0  0  0  0  0  0  0  0
  187.9590  174.0500  141.3530 C   0  0  2  0  0  3  0  0  0  0  0  0
  189.7500  174.1890  143.1010 N   0  0  2  0  0  0  0  0  0  0  0  0
  185.5250  178.7480  143.0700 C   0  0  0  0  0  3  0  0  0  0  0  0
  192.6910  174.8350  146.5500 C   0  0  0  0  0  2  0  0  0  0  0  0
  193.0170  173.2350  144.7950 C   0  0  0  0  0  2  0  0  0  0  0  0
  185.9210  177.1740  141.3030 O   0  0  0  0  0  1  0  0  0  0  0  0
  188.3340  176.7050  145.5930 C   0  0  2  0  0  3  0  0  0  0  0  0
  185.7860  179.2320  144.3520 C   0  0  0  0  0  3  0  0  0  0  0  0
  187.1080  176.9310  143.4170 C   0  0  0  0  0  0  0  0  0  0  0  0
  189.4330  176.0010  144.8210 C   0  0  1  0  0  3  0  0  0  0  0  0
  190.8920  176.6450  147.9490 O   0  0  0  0  0  0  0  0  0  0  0  0
  190.3260  175.4620  145.9300 C   0  0  1  0  0  3  0  0  0  0  0  0
  193.7380  173.9560  145.9080 C   0  0  0  0  0  2  0  0  0  0  0  0
  189.9690  172.6000  145.0680 C   0  0  0  0  0  1  0  0  0  0  0  0
  186.7200  178.5890  145.1640 C   0  0  0  0  0  3  0  0  0  0  0  0
  187.4080  177.4630  144.6920 C   0  0  0  0  0  0  0  0  0  0  0  0
  190.6550  173.3840  143.9430 C   0  0  2  0  0  3  0  0  0  0  0  0
  188.5770  174.8610  140.2100 C   0  0  0  0  0  2  0  0  0  0  0  0
  188.4940  173.8970  138.2290 C   0  0  0  0  0  1  0  0  0  0  0  0
  187.7840  174.7540  139.0680 O   0  0  0  0  0  0  0  0  0  0  0  0
  1  5  1  1  0  0  0
  1 19  1  0  0  0  0
  1  4  1  0  0  0  0
  2 13  2  0  0  0  0
  2 19  1  0  0  0  0
  3 10  1  0  0  0  0
  4 20  1  0  0  0  0
  6  8  1  0  0  0  0
  7 15  1  0  0  0  0
  7  9  1  0  0  0  0
  8 12  1  0  0  0  0
  9 22  1  0  0  0  0
  9 14  1  0  0  0  0
 10 21  2  0  0  0  0
 11  5  1  0  0  0  0
 11  8  1  0  0  0  0
 12  4  1  0  0  0  0
 12 27  1  0  0  0  0
 13 18  1  0  0  0  0
 15 23  1  0  0  0  0
 16  2  1  0  0  0  0
 17  3  1  0  0  0  0
 18 25  2  0  0  0  0
 19 26  2  0  0  0  0
 20 17  1  0  0  0  0
 20 22  1  0  0  0  0
 22 10  1  0  0  0  0
 23 14  1  0  0  0  0
 26 25  1  0  0  0  0
 26 17  1  0  0  0  0
 27  7  1  0  0  0  0
 27 24  1  0  0  0  0
 28 11  1  0  0  0  0
 29 30  1  0  0  0  0
 30 28  1  0  0  0  0
M  END
>  <MODEL>
3

>  <REMARK>
 VINA RESULT:      -8.0      1.481      1.765
  Name = 
  2 active torsions:
  status: ('A' for Active; 'I' for Inactive)
    1  A    between atoms: C_11  and  C_28
    2  A    between atoms: C_28  and  O_30
                            x       y       z     vdW  Elec       q    Type
                         _______ _______ _______ _____ _____    ______ ____

>  <TORSDO>
F 2

$$$$
=
 OpenBabel11112416163D

 30 35  0  0  1  0  0  0  0  0999 V2000
  187.2860  176.8050  144.0410 C   0  0  1  0  0  3  0  0  0  0  0  0
  185.3630  178.2190  143.1490 C   0  0  0  0  0  0  0  0  0  0  0  0
  187.8820  175.2130  140.0500 C   0  0  0  0  0  2  0  0  0  0  0  0
  188.5550  176.0120  143.6580 C   0  0  1  0  0  3  0  0  0  0  0  0
  187.6120  177.7750  145.0090 O   0  0  0  0  0  0  0  0  0  0  0  0
  189.5240  175.4060  147.2630 C   0  0  0  0  0  1  0  0  0  0  0  0
  189.8270  173.0300  144.0500 C   0  0  1  0  0  3  0  0  0  0  0  0
  189.1790  176.1470  145.9730 C   0  0  2  0  0  3  0  0  0  0  0  0
  189.4300  172.9520  142.5650 C   0  0  2  0  0  3  0  0  0  0  0  0
  188.9250  174.2170  140.4160 C   0  0  0  0  0  0  0  0  0  0  0  0
  187.9750  177.0970  146.1970 C   0  0  2  0  0  3  0  0  0  0  0  0
  188.9410  175.2200  144.8460 N   0  0  2  0  0  0  0  0  0  0  0  0
  184.5590  178.6660  142.0980 C   0  0  0  0  0  3  0  0  0  0  0  0
  190.4640  172.0430  141.9210 C   0  0  0  0  0  2  0  0  0  0  0  0
  190.9780  172.0640  144.2630 C   0  0  0  0  0  2  0  0  0  0  0  0
  185.0520  178.6140  144.4450 O   0  0  0  0  0  1  0  0  0  0  0  0
  187.8960  176.0920  141.2830 C   0  0  2  0  0  3  0  0  0  0  0  0
  184.8240  178.2670  140.7880 C   0  0  0  0  0  3  0  0  0  0  0  0
  186.4630  177.3750  142.8930 C   0  0  0  0  0  0  0  0  0  0  0  0
  188.2290  175.1590  142.4310 C   0  0  1  0  0  3  0  0  0  0  0  0
  189.4270  173.4600  139.6010 O   0  0  0  0  0  0  0  0  0  0  0  0
  189.3510  174.3080  141.8540 C   0  0  1  0  0  3  0  0  0  0  0  0
  191.0070  171.1820  143.0380 C   0  0  0  0  0  2  0  0  0  0  0  0
  191.3210  175.1560  143.9660 C   0  0  0  0  0  1  0  0  0  0  0  0
  185.8880  177.4070  140.5220 C   0  0  0  0  0  3  0  0  0  0  0  0
  186.6880  176.9310  141.5690 C   0  0  0  0  0  0  0  0  0  0  0  0
  190.1560  174.4130  144.6310 C   0  0  2  0  0  3  0  0  0  0  0  0
  186.7710  176.4160  146.8560 C   0  0  0  0  0  2  0  0  0  0  0  0
  186.5350  178.2780  148.0130 C   0  0  0  0  0  1  0  0  0  0  0  0
  185.8260  177.3740  147.2240 O   0  0  0  0  0  0  0  0  0  0  0  0
  1 19  1  6  0  0  0
  1  5  1  0  0  0  0
  2 16  1  0  0  0  0
  3 10  1  0  0  0  0
  3 17  1  0  0  0  0
  4  1  1  0  0  0  0
  4 12  1  0  0  0  0
  5 11  1  0  0  0  0
  7 15  1  0  0  0  0
  7 27  1  0  0  0  0
  8 11  1  0  0  0  0
  8  6  1  0  0  0  0
  9  7  1  0  0  0  0
 10 22  1  0  0  0  0
 11 28  1  0  0  0  0
 12  8  1  0  0  0  0
 13  2  2  0  0  0  0
 14  9  1  0  0  0  0
 14 23  1  0  0  0  0
 17 26  1  0  0  0  0
 17 20  1  0  0  0  0
 18 13  1  0  0  0  0
 19  2  1  0  0  0  0
 20  4  1  0  0  0  0
 21 10  2  0  0  0  0
 22 20  1  0  0  0  0
 22  9  1  0  0  0  0
 23 15  1  0  0  0  0
 24 27  1  0  0  0  0
 25 18  2  0  0  0  0
 25 26  1  0  0  0  0
 26 19  2  0  0  0  0
 27 12  1  0  0  0  0
 28 30  1  0  0  0  0
 30 29  1  0  0  0  0
M  END
>  <MODEL>
4

>  <REMARK>
 VINA RESULT:      -7.6      1.965      5.156
  Name = 
  2 active torsions:
  status: ('A' for Active; 'I' for Inactive)
    1  A    between atoms: C_11  and  C_28
    2  A    between atoms: C_28  and  O_30
                            x       y       z     vdW  Elec       q    Type
                         _______ _______ _______ _____ _____    ______ ____

>  <TORSDO>
F 2

$$$$
=
 OpenBabel11112416163D

 30 35  0  0  1  0  0  0  0  0999 V2000
  191.3500  174.7040  143.7130 C   0  0  1  0  0  3  0  0  0  0  0  0
  193.7060  173.8220  144.1150 C   0  0  0  0  0  0  0  0  0  0  0  0
  191.6610  177.0190  147.3690 C   0  0  0  0  0  2  0  0  0  0  0  0
  190.3420  175.8230  144.0610 C   0  0  1  0  0  3  0  0  0  0  0  0
  191.5130  174.6380  142.3150 O   0  0  0  0  0  0  0  0  0  0  0  0
  187.8090  174.6270  141.5200 C   0  0  0  0  0  1  0  0  0  0  0  0
  187.2960  176.1490  145.1920 C   0  0  1  0  0  3  0  0  0  0  0  0
  189.1190  175.1490  142.1080 C   0  0  2  0  0  3  0  0  0  0  0  0
  188.0850  176.5860  146.4380 C   0  0  2  0  0  3  0  0  0  0  0  0
  190.2600  177.5180  147.3760 C   0  0  0  0  0  0  0  0  0  0  0  0
  190.2900  174.1960  141.7570 C   0  0  2  0  0  3  0  0  0  0  0  0
  189.0210  175.3800  143.5650 N   0  0  2  0  0  0  0  0  0  0  0  0
  194.8870  173.7840  144.8610 C   0  0  0  0  0  3  0  0  0  0  0  0
  187.2120  177.6250  147.1220 C   0  0  0  0  0  2  0  0  0  0  0  0
  185.9380  176.8260  145.2550 C   0  0  0  0  0  2  0  0  0  0  0  0
  193.5640  172.9520  143.0400 O   0  0  0  0  0  1  0  0  0  0  0  0
  191.7740  176.5360  145.9380 C   0  0  2  0  0  3  0  0  0  0  0  0
  195.0530  174.6230  145.9620 C   0  0  0  0  0  3  0  0  0  0  0  0
  192.6780  174.7240  144.4590 C   0  0  0  0  0  0  0  0  0  0  0  0
  190.3860  176.0460  145.5740 C   0  0  1  0  0  3  0  0  0  0  0  0
  189.8200  178.2310  148.2640 O   0  0  0  0  0  0  0  0  0  0  0  0
  189.4880  177.1330  146.1460 C   0  0  1  0  0  3  0  0  0  0  0  0
  185.8000  177.3380  146.6680 C   0  0  0  0  0  2  0  0  0  0  0  0
  188.3020  177.8120  143.4640 C   0  0  0  0  0  1  0  0  0  0  0  0
  194.0320  175.4970  146.3340 C   0  0  0  0  0  3  0  0  0  0  0  0
  192.8330  175.5290  145.6110 C   0  0  0  0  0  0  0  0  0  0  0  0
  187.9510  176.3620  143.8190 C   0  0  2  0  0  3  0  0  0  0  0  0
  190.0080  172.7270  142.0910 C   0  0  0  0  0  2  0  0  0  0  0  0
  190.5940  170.6200  141.8140 C   0  0  0  0  0  1  0  0  0  0  0  0
  190.8100  171.8990  141.3060 O   0  0  0  0  0  0  0  0  0  0  0  0
  1  5  1  6  0  0  0
  1  4  1  0  0  0  0
  1 19  1  0  0  0  0
  2 19  2  0  0  0  0
  2 13  1  0  0  0  0
  3 10  1  0  0  0  0
  4 20  1  0  0  0  0
  6  8  1  0  0  0  0
  7 15  1  0  0  0  0
  7  9  1  0  0  0  0
  8 12  1  0  0  0  0
  9 14  1  0  0  0  0
 10 21  2  0  0  0  0
 11 28  1  0  0  0  0
 11  8  1  0  0  0  0
 11  5  1  0  0  0  0
 12 27  1  0  0  0  0
 12  4  1  0  0  0  0
 13 18  2  0  0  0  0
 15 23  1  0  0  0  0
 16  2  1  0  0  0  0
 17  3  1  0  0  0  0
 18 25  1  0  0  0  0
 19 26  1  0  0  0  0
 20 17  1  0  0  0  0
 20 22  1  0  0  0  0
 22  9  1  0  0  0  0
 22 10  1  0  0  0  0
 23 14  1  0  0  0  0
 24 27  1  0  0  0  0
 26 17  1  0  0  0  0
 26 25  2  0  0  0  0
 27  7  1  0  0  0  0
 30 29  1  0  0  0  0
 30 28  1  0  0  0  0
M  END
>  <MODEL>
5

>  <REMARK>
 VINA RESULT:      -7.5      2.285      5.863
  Name = 
  2 active torsions:
  status: ('A' for Active; 'I' for Inactive)
    1  A    between atoms: C_11  and  C_28
    2  A    between atoms: C_28  and  O_30
                            x       y       z     vdW  Elec       q    Type
                         _______ _______ _______ _____ _____    ______ ____

>  <TORSDO>
F 2

$$$$
=
 OpenBabel11112416163D

 30 35  0  0  1  0  0  0  0  0999 V2000
  188.2980  176.0530  143.2480 C   0  0  1  0  0  3  0  0  0  0  0  0
  186.6970  176.7910  141.4090 C   0  0  0  0  0  0  0  0  0  0  0  0
  186.2940  178.7550  145.9880 C   0  0  0  0  0  2  0  0  0  0  0  0
  188.5240  175.9860  144.7760 C   0  0  1  0  0  3  0  0  0  0  0  0
  188.4060  174.7600  142.7010 O   0  0  0  0  0  0  0  0  0  0  0  0
  191.6650  173.9070  144.4350 C   0  0  0  0  0  1  0  0  0  0  0  0
  190.7600  176.8590  146.9900 C   0  0  1  0  0  3  0  0  0  0  0  0
  190.2000  174.3280  144.3220 C   0  0  2  0  0  3  0  0  0  0  0  0
  189.6800  177.9160  147.2800 C   0  0  2  0  0  3  0  0  0  0  0  0
  187.2210  178.5570  147.1340 C   0  0  0  0  0  0  0  0  0  0  0  0
  189.7520  174.3430  142.8390 C   0  0  2  0  0  3  0  0  0  0  0  0
  189.9430  175.6250  144.9840 N   0  0  2  0  0  0  0  0  0  0  0  0
  185.6040  177.5410  140.9670 C   0  0  0  0  0  3  0  0  0  0  0  0
  189.7810  178.1950  148.7700 C   0  0  0  0  0  2  0  0  0  0  0  0
  191.5520  176.6580  148.2690 C   0  0  0  0  0  2  0  0  0  0  0  0
  187.4260  176.0570  140.4800 O   0  0  0  0  0  1  0  0  0  0  0  0
  186.6630  177.5650  145.1270 C   0  0  2  0  0  3  0  0  0  0  0  0
  184.8660  178.3100  141.8660 C   0  0  0  0  0  3  0  0  0  0  0  0
  187.0520  176.7890  142.7730 C   0  0  0  0  0  0  0  0  0  0  0  0
  188.1430  177.3430  145.3710 C   0  0  1  0  0  3  0  0  0  0  0  0
  187.0930  179.1490  148.1940 O   0  0  0  0  0  0  0  0  0  0  0  0
  188.2580  177.5000  146.8810 C   0  0  1  0  0  3  0  0  0  0  0  0
  191.1910  177.8200  149.1630 C   0  0  0  0  0  2  0  0  0  0  0  0
  189.3220  174.7110  147.2680 C   0  0  0  0  0  1  0  0  0  0  0  0
  185.2250  178.3450  143.2130 C   0  0  0  0  0  3  0  0  0  0  0  0
  186.3330  177.6180  143.6660 C   0  0  0  0  0  0  0  0  0  0  0  0
  190.3070  175.5120  146.4080 C   0  0  2  0  0  3  0  0  0  0  0  0
  190.6920  175.1320  141.9210 C   0  0  0  0  0  2  0  0  0  0  0  0
  190.5420  173.5220  140.4220 C   0  0  0  0  0  1  0  0  0  0  0  0
  191.4670  174.2530  141.1650 O   0  0  0  0  0  0  0  0  0  0  0  0
  1  5  1  1  0  0  0
  1  4  1  0  0  0  0
  2 19  1  0  0  0  0
  3 10  1  0  0  0  0
  4 12  1  0  0  0  0
  4 20  1  0  0  0  0
  5 11  1  0  0  0  0
  7  9  1  0  0  0  0
  7 15  1  0  0  0  0
  8  6  1  0  0  0  0
  8 12  1  0  0  0  0
  9 14  1  0  0  0  0
 10 21  2  0  0  0  0
 11  8  1  0  0  0  0
 12 27  1  0  0  0  0
 13  2  2  0  0  0  0
 13 18  1  0  0  0  0
 14 23  1  0  0  0  0
 15 23  1  0  0  0  0
 16  2  1  0  0  0  0
 17 20  1  0  0  0  0
 17  3  1  0  0  0  0
 18 25  2  0  0  0  0
 19  1  1  0  0  0  0
 19 26  2  0  0  0  0
 20 22  1  0  0  0  0
 22 10  1  0  0  0  0
 22  9  1  0  0  0  0
 25 26  1  0  0  0  0
 26 17  1  0  0  0  0
 27  7  1  0  0  0  0
 27 24  1  0  0  0  0
 28 11  1  0  0  0  0
 29 30  1  0  0  0  0
 30 28  1  0  0  0  0
M  END
>  <MODEL>
6

>  <REMARK>
 VINA RESULT:      -7.3      1.807      3.538
  Name = 
  2 active torsions:
  status: ('A' for Active; 'I' for Inactive)
    1  A    between atoms: C_11  and  C_28
    2  A    between atoms: C_28  and  O_30
                            x       y       z     vdW  Elec       q    Type
                         _______ _______ _______ _____ _____    ______ ____

>  <TORSDO>
F 2

$$$$
=
 OpenBabel11112416163D

 30 35  0  0  1  0  0  0  0  0999 V2000
  191.5770  175.1590  144.4860 C   0  0  1  0  0  3  0  0  0  0  0  0
  192.8700  174.2630  142.4820 C   0  0  0  0  0  0  0  0  0  0  0  0
  187.9840  175.2310  142.0560 C   0  0  0  0  0  2  0  0  0  0  0  0
  190.1740  175.3420  145.1070 C   0  0  1  0  0  3  0  0  0  0  0  0
  192.4030  174.4620  145.3900 O   0  0  0  0  0  0  0  0  0  0  0  0
  191.5550  176.6180  148.3880 C   0  0  0  0  0  1  0  0  0  0  0  0
  188.2960  177.7170  146.3310 C   0  0  1  0  0  3  0  0  0  0  0  0
  191.2890  175.6900  147.2040 C   0  0  2  0  0  3  0  0  0  0  0  0
  187.5820  177.4850  144.9880 C   0  0  2  0  0  3  0  0  0  0  0  0
  187.1090  175.8890  143.0630 C   0  0  0  0  0  0  0  0  0  0  0  0
  192.6200  175.2990  146.5120 C   0  0  2  0  0  3  0  0  0  0  0  0
  190.3260  176.2730  146.2460 N   0  0  2  0  0  0  0  0  0  0  0  0
  192.9200  173.8200  141.1580 C   0  0  0  0  0  3  0  0  0  0  0  0
  186.1140  177.7740  145.2580 C   0  0  0  0  0  2  0  0  0  0  0  0
  187.2670  178.2670  147.3020 C   0  0  0  0  0  2  0  0  0  0  0  0
  194.0580  174.3870  143.1930 O   0  0  0  0  0  1  0  0  0  0  0  0
  189.1370  174.7960  142.9370 C   0  0  2  0  0  3  0  0  0  0  0  0
  191.7510  173.7090  140.4060 C   0  0  0  0  0  3  0  0  0  0  0  0
  191.6330  174.5840  143.0770 C   0  0  0  0  0  0  0  0  0  0  0  0
  189.2370  175.8590  144.0140 C   0  0  1  0  0  3  0  0  0  0  0  0
  185.9410  176.1670  142.8390 O   0  0  0  0  0  0  0  0  0  0  0  0
  187.7800  176.0860  144.3920 C   0  0  1  0  0  3  0  0  0  0  0  0
  186.0910  178.6930  146.4570 C   0  0  0  0  0  2  0  0  0  0  0  0
  188.2180  175.2910  147.2620 C   0  0  0  0  0  1  0  0  0  0  0  0
  190.5230  174.0540  140.9700 C   0  0  0  0  0  3  0  0  0  0  0  0
  190.4600  174.5240  142.2880 C   0  0  0  0  0  0  0  0  0  0  0  0
  189.0570  176.5360  146.9500 C   0  0  2  0  0  3  0  0  0  0  0  0
  193.5080  176.4990  146.1660 C   0  0  0  0  0  2  0  0  0  0  0  0
  195.3160  176.8920  144.9670 C   0  0  0  0  0  1  0  0  0  0  0  0
  194.8250  176.0770  145.9860 O   0  0  0  0  0  0  0  0  0  0  0  0
  1 19  1  6  0  0  0
  1  4  1  0  0  0  0
  1  5  1  0  0  0  0
  2 19  1  0  0  0  0
  2 16  1  0  0  0  0
  3 17  1  0  0  0  0
  3 10  1  0  0  0  0
  4 12  1  0  0  0  0
  5 11  1  0  0  0  0
  7 27  1  0  0  0  0
  7 15  1  0  0  0  0
  8  6  1  0  0  0  0
  9 14  1  0  0  0  0
  9  7  1  0  0  0  0
 10 22  1  0  0  0  0
 11  8  1  0  0  0  0
 12 27  1  0  0  0  0
 12  8  1  0  0  0  0
 13  2  2  0  0  0  0
 14 23  1  0  0  0  0
 17 20  1  0  0  0  0
 18 25  2  0  0  0  0
 18 13  1  0  0  0  0
 20 22  1  0  0  0  0
 20  4  1  0  0  0  0
 21 10  2  0  0  0  0
 22  9  1  0  0  0  0
 23 15  1  0  0  0  0
 25 26  1  0  0  0  0
 26 17  1  0  0  0  0
 26 19  2  0  0  0  0
 27 24  1  0  0  0  0
 28 11  1  0  0  0  0
 29 30  1  0  0  0  0
 30 28  1  0  0  0  0
M  END
>  <MODEL>
7

>  <REMARK>
 VINA RESULT:      -7.2      2.091      6.890
  Name = 
  2 active torsions:
  status: ('A' for Active; 'I' for Inactive)
    1  A    between atoms: C_11  and  C_28
    2  A    between atoms: C_28  and  O_30
                            x       y       z     vdW  Elec       q    Type
                         _______ _______ _______ _____ _____    ______ ____

>  <TORSDO>
F 2

$$$$
=
 OpenBabel11112416163D

 30 35  0  0  1  0  0  0  0  0999 V2000
  189.3280  174.9090  143.3540 C   0  0  1  0  0  3  0  0  0  0  0  0
  187.1390  176.1950  143.5670 C   0  0  0  0  0  0  0  0  0  0  0  0
  190.8040  176.9620  146.8790 C   0  0  0  0  0  2  0  0  0  0  0  0
  190.5980  174.4430  144.1000 C   0  0  1  0  0  3  0  0  0  0  0  0
  188.6720  173.7920  142.8000 O   0  0  0  0  0  0  0  0  0  0  0  0
  191.7720  172.3070  141.2080 C   0  0  0  0  0  1  0  0  0  0  0  0
  193.8460  174.5730  143.7830 C   0  0  1  0  0  3  0  0  0  0  0  0
  190.8890  172.8430  142.3340 C   0  0  2  0  0  3  0  0  0  0  0  0
  193.6530  175.5930  144.9180 C   0  0  2  0  0  3  0  0  0  0  0  0
  192.1870  176.4180  146.8280 C   0  0  0  0  0  0  0  0  0  0  0  0
  189.5030  173.2620  141.7830 C   0  0  2  0  0  3  0  0  0  0  0  0
  191.5400  173.9450  143.0740 N   0  0  2  0  0  0  0  0  0  0  0  0
  186.3150  177.1060  144.2340 C   0  0  0  0  0  3  0  0  0  0  0  0
  194.9030  175.4800  145.7760 C   0  0  0  0  0  2  0  0  0  0  0  0
  195.2450  174.0010  143.9200 C   0  0  0  0  0  2  0  0  0  0  0  0
  186.7120  175.6720  142.3520 O   0  0  0  0  0  1  0  0  0  0  0  0
  190.0970  176.0060  145.9400 C   0  0  2  0  0  3  0  0  0  0  0  0
  186.7220  177.6720  145.4420 C   0  0  0  0  0  3  0  0  0  0  0  0
  188.3820  175.8250  144.1200 C   0  0  0  0  0  0  0  0  0  0  0  0
  191.1370  175.6280  144.9030 C   0  0  1  0  0  3  0  0  0  0  0  0
  193.0470  176.7300  147.6360 O   0  0  0  0  0  0  0  0  0  0  0  0
  192.3800  175.3910  145.7490 C   0  0  1  0  0  3  0  0  0  0  0  0
  195.9740  174.9220  144.8680 C   0  0  0  0  0  2  0  0  0  0  0  0
  192.6540  172.5280  144.8600 C   0  0  0  0  0  1  0  0  0  0  0  0
  187.9630  177.3410  145.9850 C   0  0  0  0  0  3  0  0  0  0  0  0
  188.8100  176.4480  145.3150 C   0  0  0  0  0  0  0  0  0  0  0  0
  192.8060  173.4510  143.6450 C   0  0  2  0  0  3  0  0  0  0  0  0
  189.5800  174.1920  140.5680 C   0  0  0  0  0  2  0  0  0  0  0  0
  188.3890  172.7060  139.4550 C   0  0  0  0  0  1  0  0  0  0  0  0
  188.4270  174.0580  139.7940 O   0  0  0  0  0  0  0  0  0  0  0  0
  1  5  1  1  0  0  0
  1  4  1  0  0  0  0
  1 19  1  0  0  0  0
  2 19  2  0  0  0  0
  2 13  1  0  0  0  0
  4 20  1  0  0  0  0
  6  8  1  0  0  0  0
  7 15  1  0  0  0  0
  7  9  1  0  0  0  0
  8 12  1  0  0  0  0
  9 22  1  0  0  0  0
  9 14  1  0  0  0  0
 10  3  1  0  0  0  0
 10 21  2  0  0  0  0
 11  8  1  0  0  0  0
 11  5  1  0  0  0  0
 12 27  1  0  0  0  0
 12  4  1  0  0  0  0
 13 18  2  0  0  0  0
 15 23  1  0  0  0  0
 16  2  1  0  0  0  0
 17  3  1  0  0  0  0
 18 25  1  0  0  0  0
 19 26  1  0  0  0  0
 20 22  1  0  0  0  0
 20 17  1  0  0  0  0
 22 10  1  0  0  0  0
 23 14  1  0  0  0  0
 26 17  1  0  0  0  0
 26 25  2  0  0  0  0
 27  7  1  0  0  0  0
 27 24  1  0  0  0  0
 28 11  1  0  0  0  0
 29 30  1  0  0  0  0
 30 28  1  0  0  0  0
M  END
>  <MODEL>
8

>  <REMARK>
 VINA RESULT:      -7.2      1.668      2.508
  Name = 
  2 active torsions:
  status: ('A' for Active; 'I' for Inactive)
    1  A    between atoms: C_11  and  C_28
    2  A    between atoms: C_28  and  O_30
                            x       y       z     vdW  Elec       q    Type
                         _______ _______ _______ _____ _____    ______ ____

>  <TORSDO>
F 2

$$$$
=
 OpenBabel11112416163D

 30 35  0  0  1  0  0  0  0  0999 V2000
  189.3580  176.4990  145.0430 C   0  0  1  0  0  3  0  0  0  0  0  0
  187.1790  177.6220  145.7380 C   0  0  0  0  0  0  0  0  0  0  0  0
  187.5160  175.4020  141.2710 C   0  0  0  0  0  2  0  0  0  0  0  0
  190.1890  175.9830  143.8470 C   0  0  1  0  0  3  0  0  0  0  0  0
  190.1240  177.4220  145.7820 O   0  0  0  0  0  0  0  0  0  0  0  0
  193.2130  175.2380  145.9920 C   0  0  0  0  0  1  0  0  0  0  0  0
  191.6850  173.2510  142.8650 C   0  0  1  0  0  3  0  0  0  0  0  0
  192.0860  176.0190  145.3170 C   0  0  2  0  0  3  0  0  0  0  0  0
  190.4700  173.2370  141.9210 C   0  0  2  0  0  3  0  0  0  0  0  0
  188.6460  174.5790  140.7610 C   0  0  0  0  0  0  0  0  0  0  0  0
  191.1970  176.7150  146.3780 C   0  0  2  0  0  3  0  0  0  0  0  0
  191.2890  175.1690  144.4070 N   0  0  2  0  0  0  0  0  0  0  0  0
  185.8650  178.0110  145.4700 C   0  0  0  0  0  3  0  0  0  0  0  0
  190.9650  172.5880  140.6390 C   0  0  0  0  0  2  0  0  0  0  0  0
  192.8030  172.4900  142.1750 C   0  0  0  0  0  2  0  0  0  0  0  0
  187.6960  177.8390  147.0100 O   0  0  0  0  0  1  0  0  0  0  0  0
  188.2070  176.1560  142.3890 C   0  0  2  0  0  3  0  0  0  0  0  0
  185.3030  177.7850  144.2130 C   0  0  0  0  0  3  0  0  0  0  0  0
  187.9590  177.0140  144.7320 C   0  0  0  0  0  0  0  0  0  0  0  0
  189.2540  175.1980  142.9250 C   0  0  1  0  0  3  0  0  0  0  0  0
  188.6050  173.9990  139.6880 O   0  0  0  0  0  0  0  0  0  0  0  0
  189.8540  174.6150  141.6530 C   0  0  1  0  0  3  0  0  0  0  0  0
  192.1510  171.7410  141.0390 C   0  0  0  0  0  2  0  0  0  0  0  0
  192.6220  175.6080  142.2930 C   0  0  0  0  0  1  0  0  0  0  0  0
  186.0510  177.1550  143.2190 C   0  0  0  0  0  3  0  0  0  0  0  0
  187.3620  176.7370  143.4800 C   0  0  0  0  0  0  0  0  0  0  0  0
  192.1810  174.6130  143.3730 C   0  0  2  0  0  3  0  0  0  0  0  0
  190.7140  175.7740  147.4870 C   0  0  0  0  0  2  0  0  0  0  0  0
  191.4920  177.4160  148.7370 C   0  0  0  0  0  1  0  0  0  0  0  0
  191.4200  176.0270  148.6640 O   0  0  0  0  0  0  0  0  0  0  0  0
  1 19  1  6  0  0  0
  1  5  1  0  0  0  0
  2 16  1  0  0  0  0
  3 17  1  0  0  0  0
  4 12  1  0  0  0  0
  4  1  1  0  0  0  0
  5 11  1  0  0  0  0
  7 27  1  0  0  0  0
  8  6  1  0  0  0  0
  8 11  1  0  0  0  0
  9  7  1  0  0  0  0
 10  3  1  0  0  0  0
 10 22  1  0  0  0  0
 11 28  1  0  0  0  0
 12  8  1  0  0  0  0
 13  2  1  0  0  0  0
 14 23  1  0  0  0  0
 14  9  1  0  0  0  0
 15  7  1  0  0  0  0
 17 20  1  0  0  0  0
 17 26  1  0  0  0  0
 18 13  2  0  0  0  0
 19  2  2  0  0  0  0
 20  4  1  0  0  0  0
 21 10  2  0  0  0  0
 22  9  1  0  0  0  0
 22 20  1  0  0  0  0
 23 15  1  0  0  0  0
 24 27  1  0  0  0  0
 25 26  2  0  0  0  0
 25 18  1  0  0  0  0
 26 19  1  0  0  0  0
 27 12  1  0  0  0  0
 28 30  1  0  0  0  0
 30 29  1  0  0  0  0
M  END
>  <MODEL>
9

>  <REMARK>
 VINA RESULT:      -7.0      1.808      5.295
  Name = 
  2 active torsions:
  status: ('A' for Active; 'I' for Inactive)
    1  A    between atoms: C_11  and  C_28
    2  A    between atoms: C_28  and  O_30
                            x       y       z     vdW  Elec       q    Type
                         _______ _______ _______ _____ _____    ______ ____

>  <TORSDO>
F 2

$$$$
