=
 OpenBabel11112416233D

 30 35  0  0  1  0  0  0  0  0999 V2000
  189.1800  174.6490  144.0560 C   0  0  2  0  0  3  0  0  0  0  0  0
  190.6370  172.9550  142.8540 C   0  0  2  0  0  3  0  0  0  0  0  0
  187.5220  176.0560  140.3730 N   0  0  0  0  0  2  0  0  0  0  0  0
  188.3030  175.9240  143.9870 C   0  0  2  0  0  3  0  0  0  0  0  0
  190.1390  174.7840  145.2350 C   0  0  0  0  0  2  0  0  0  0  0  0
  187.9780  176.5560  147.4610 O   0  0  0  0  0  0  0  0  0  0  0  0
  186.7930  178.3410  144.5170 C   0  0  1  0  0  3  0  0  0  0  0  0
  188.2560  175.8710  146.4860 C   0  0  0  0  0  0  0  0  0  0  0  0
  186.4330  178.2920  143.0390 C   0  0  2  0  0  3  0  0  0  0  0  0
  186.5380  176.9080  140.9440 C   0  0  0  0  0  0  0  0  0  0  0  0
  189.3670  174.8460  146.5570 C   0  0  2  0  0  3  0  0  0  0  0  0
  187.4050  175.9240  145.2350 C   0  0  1  0  0  3  0  0  0  0  0  0
  191.5260  172.6880  141.6430 C   0  0  0  0  0  2  0  0  0  0  0  0
  185.0110  178.8060  142.9590 C   0  0  0  0  0  2  0  0  0  0  0  0
  186.0150  179.5260  145.0700 C   0  0  0  0  0  2  0  0  0  0  0  0
  189.7060  171.9250  143.0150 O   0  0  0  0  0  1  0  0  0  0  0  0
  188.3820  175.7560  141.5040 C   0  0  1  0  0  3  0  0  0  0  0  0
  190.5460  172.5570  140.1090 S   0  0  0  0  0  0  0  0  0  0  0  0
  189.9430  174.3190  142.7470 C   0  0  1  0  0  3  0  0  0  0  0  0
  187.4730  175.8740  142.7070 C   0  0  2  0  0  3  0  0  0  0  0  0
  185.7170  177.5560  140.2410 O   0  0  0  0  0  0  0  0  0  0  0  0
  186.5790  176.9880  142.3680 N   0  0  0  0  0  0  0  0  0  0  0  0
  184.8900  179.8170  144.0830 C   0  0  0  0  0  2  0  0  0  0  0  0
  185.3450  176.9280  145.7700 O   0  0  0  0  0  0  0  0  0  0  0  0
  189.9010  174.2530  140.2400 C   0  0  0  0  0  2  0  0  0  0  0  0
  189.0440  174.3960  141.4920 C   0  0  2  0  0  3  0  0  0  0  0  0
  186.4350  177.0680  145.2350 C   0  0  0  0  0  0  0  0  0  0  0  0
  190.3320  175.1280  147.7010 C   0  0  0  0  0  2  0  0  0  0  0  0
  191.4550  177.3310  148.5460 C   0  0  0  0  0  1  0  0  0  0  0  0
  191.6790  176.2100  147.1380 S   0  0  0  0  0  0  0  0  0  0  0  0
  1  5  1  1  0  0  0
  2 16  1  6  0  0  0
  3 10  1  0  0  0  0
  3 17  1  0  0  0  0
  4  1  1  0  0  0  0
  4 12  1  0  0  0  0
  5 11  1  0  0  0  0
  7 15  1  0  0  0  0
  7 27  1  0  0  0  0
  8 11  1  0  0  0  0
  8  6  2  0  0  0  0
  9  7  1  0  0  0  0
 10 22  1  0  0  0  0
 11 28  1  0  0  0  0
 12 27  1  0  0  0  0
 12  8  1  0  0  0  0
 13  2  1  0  0  0  0
 14  9  1  0  0  0  0
 14 23  1  0  0  0  0
 17 20  1  0  0  0  0
 18 25  1  0  0  0  0
 18 13  1  0  0  0  0
 19  2  1  0  0  0  0
 19  1  1  0  0  0  0
 20  4  1  0  0  0  0
 21 10  2  0  0  0  0
 22 20  1  0  0  0  0
 22  9  1  0  0  0  0
 23 15  1  0  0  0  0
 25 26  1  0  0  0  0
 26 17  1  0  0  0  0
 26 19  1  0  0  0  0
 27 24  2  0  0  0  0
 30 28  1  0  0  0  0
 30 29  1  0  0  0  0
M  END
>  <MODEL>
1

>  <REMARK>
 VINA RESULT:      -7.7      0.000      0.000
  Name = 
  2 active torsions:
  status: ('A' for Active; 'I' for Inactive)
    1  A    between atoms: C_11  and  C_28
    2  A    between atoms: C_28  and  S_30
                            x       y       z     vdW  Elec       q    Type
                         _______ _______ _______ _____ _____    ______ ____

>  <TORSDO>
F 2

$$$$
=
 OpenBabel11112416233D

 30 35  0  0  1  0  0  0  0  0999 V2000
  190.5260  175.5020  143.8000 C   0  0  2  0  0  3  0  0  0  0  0  0
  192.9540  174.7870  143.6200 C   0  0  2  0  0  3  0  0  0  0  0  0
  191.1800  177.2760  147.6360 N   0  0  0  0  0  2  0  0  0  0  0  0
  189.3530  175.9890  144.6880 C   0  0  2  0  0  3  0  0  0  0  0  0
  190.0220  174.3650  142.9140 C   0  0  0  0  0  2  0  0  0  0  0  0
  186.6990  175.5600  142.3760 O   0  0  0  0  0  0  0  0  0  0  0  0
  186.7820  176.6610  145.8450 C   0  0  1  0  0  3  0  0  0  0  0  0
  187.8750  175.6450  142.7010 C   0  0  0  0  0  0  0  0  0  0  0  0
  187.5920  177.2550  146.9900 C   0  0  2  0  0  3  0  0  0  0  0  0
  189.8990  177.8780  147.7660 C   0  0  0  0  0  0  0  0  0  0  0  0
  188.9380  174.8650  141.9550 C   0  0  2  0  0  3  0  0  0  0  0  0
  188.3180  176.6380  143.7550 C   0  0  1  0  0  3  0  0  0  0  0  0
  194.1590  174.2140  144.3590 C   0  0  0  0  0  2  0  0  0  0  0  0
  186.8100  178.4710  147.4400 C   0  0  0  0  0  2  0  0  0  0  0  0
  185.3330  176.9790  146.1850 C   0  0  0  0  0  2  0  0  0  0  0  0
  193.3170  175.9290  142.9000 O   0  0  0  0  0  1  0  0  0  0  0  0
  190.9930  176.3620  146.5240 C   0  0  1  0  0  3  0  0  0  0  0  0
  194.8660  175.4280  145.5260 S   0  0  0  0  0  0  0  0  0  0  0  0
  191.7970  175.0820  144.5830 C   0  0  1  0  0  3  0  0  0  0  0  0
  189.8950  176.9950  145.6990 C   0  0  2  0  0  3  0  0  0  0  0  0
  189.5850  178.5890  148.7580 O   0  0  0  0  0  0  0  0  0  0  0  0
  188.9970  177.5870  146.6990 N   0  0  0  0  0  0  0  0  0  0  0  0
  185.3550  178.1230  147.1920 C   0  0  0  0  0  2  0  0  0  0  0  0
  186.6050  178.2230  144.0580 O   0  0  0  0  0  0  0  0  0  0  0  0
  193.3380  175.5450  146.5070 C   0  0  0  0  0  2  0  0  0  0  0  0
  192.2090  176.1150  145.6570 C   0  0  2  0  0  3  0  0  0  0  0  0
  187.1700  177.2380  144.5100 C   0  0  0  0  0  0  0  0  0  0  0  0
  188.3500  173.6890  141.1880 C   0  0  0  0  0  2  0  0  0  0  0  0
  188.2540  174.1170  138.6120 C   0  0  0  0  0  1  0  0  0  0  0  0
  189.3910  173.2860  139.7550 S   0  0  0  0  0  0  0  0  0  0  0  0
  1  5  1  1  0  0  0
  1 19  1  0  0  0  0
  1  4  1  0  0  0  0
  2 16  1  1  0  0  0
  2 13  1  0  0  0  0
  2 19  1  0  0  0  0
  3 10  1  0  0  0  0
  4 20  1  0  0  0  0
  6  8  2  0  0  0  0
  7 15  1  0  0  0  0
  7  9  1  0  0  0  0
  8 12  1  0  0  0  0
  9 14  1  0  0  0  0
 10 21  2  0  0  0  0
 11  8  1  0  0  0  0
 11  5  1  0  0  0  0
 12 27  1  0  0  0  0
 12  4  1  0  0  0  0
 13 18  1  0  0  0  0
 15 23  1  0  0  0  0
 17  3  1  0  0  0  0
 18 25  1  0  0  0  0
 19 26  1  0  0  0  0
 20 17  1  0  0  0  0
 20 22  1  0  0  0  0
 22  9  1  0  0  0  0
 22 10  1  0  0  0  0
 23 14  1  0  0  0  0
 24 27  2  0  0  0  0
 26 25  1  0  0  0  0
 26 17  1  0  0  0  0
 27  7  1  0  0  0  0
 28 11  1  0  0  0  0
 29 30  1  0  0  0  0
 30 28  1  0  0  0  0
M  END
>  <MODEL>
2

>  <REMARK>
 VINA RESULT:      -7.6      2.774      5.410
  Name = 
  2 active torsions:
  status: ('A' for Active; 'I' for Inactive)
    1  A    between atoms: C_11  and  C_28
    2  A    between atoms: C_28  and  S_30
                            x       y       z     vdW  Elec       q    Type
                         _______ _______ _______ _____ _____    ______ ____

>  <TORSDO>
F 2

$$$$
=
 OpenBabel11112416233D

 30 35  0  0  1  0  0  0  0  0999 V2000
  189.4490  174.8570  143.8130 C   0  0  2  0  0  3  0  0  0  0  0  0
  190.0920  173.7280  141.6330 C   0  0  2  0  0  3  0  0  0  0  0  0
  186.0480  176.7240  142.0140 N   0  0  0  0  0  2  0  0  0  0  0  0
  188.6340  175.9530  144.5440 C   0  0  2  0  0  3  0  0  0  0  0  0
  190.8840  174.8940  144.3310 C   0  0  0  0  0  2  0  0  0  0  0  0
  190.1870  175.7610  147.7260 O   0  0  0  0  0  0  0  0  0  0  0  0
  187.5690  177.9120  146.3950 C   0  0  1  0  0  3  0  0  0  0  0  0
  189.9230  175.3570  146.6020 C   0  0  0  0  0  0  0  0  0  0  0  0
  186.4790  178.1220  145.3530 C   0  0  2  0  0  3  0  0  0  0  0  0
  185.4940  177.2580  143.2090 C   0  0  0  0  0  0  0  0  0  0  0  0
  190.9310  174.5410  145.8210 C   0  0  2  0  0  3  0  0  0  0  0  0
  188.5360  175.5350  146.0210 C   0  0  1  0  0  3  0  0  0  0  0  0
  190.2080  173.8800  140.1190 C   0  0  0  0  0  2  0  0  0  0  0  0
  185.2190  178.3970  146.1460 C   0  0  0  0  0  2  0  0  0  0  0  0
  187.1700  178.8040  147.5620 C   0  0  0  0  0  2  0  0  0  0  0  0
  189.4180  172.5470  141.9570 O   0  0  0  0  0  1  0  0  0  0  0  0
  187.3850  176.3370  142.4240 C   0  0  1  0  0  3  0  0  0  0  0  0
  188.5670  173.9190  139.3230 S   0  0  0  0  0  0  0  0  0  0  0  0
  189.4090  174.9470  142.2660 C   0  0  1  0  0  3  0  0  0  0  0  0
  187.2520  176.0410  143.9010 C   0  0  2  0  0  3  0  0  0  0  0  0
  184.4070  177.8940  143.2230 O   0  0  0  0  0  0  0  0  0  0  0  0
  186.2830  177.0360  144.3770 N   0  0  0  0  0  0  0  0  0  0  0  0
  185.6850  179.1080  147.4010 C   0  0  0  0  0  2  0  0  0  0  0  0
  187.0480  176.0410  147.7720 O   0  0  0  0  0  0  0  0  0  0  0  0
  188.0420  175.4150  140.2150 C   0  0  0  0  0  2  0  0  0  0  0  0
  187.9780  175.1410  141.7120 C   0  0  2  0  0  3  0  0  0  0  0  0
  187.6830  176.4730  146.8210 C   0  0  0  0  0  0  0  0  0  0  0  0
  192.3480  174.7280  146.3470 C   0  0  0  0  0  2  0  0  0  0  0  0
  194.1910  176.5730  146.5130 C   0  0  0  0  0  1  0  0  0  0  0  0
  193.3340  175.7030  145.1720 S   0  0  0  0  0  0  0  0  0  0  0  0
  1  5  1  1  0  0  0
  1  4  1  0  0  0  0
  2 16  1  6  0  0  0
  2 19  1  0  0  0  0
  3 17  1  0  0  0  0
  3 10  1  0  0  0  0
  4 12  1  0  0  0  0
  5 11  1  0  0  0  0
  7 27  1  0  0  0  0
  7 15  1  0  0  0  0
  8  6  2  0  0  0  0
  9 14  1  0  0  0  0
  9  7  1  0  0  0  0
 10 21  2  0  0  0  0
 10 22  1  0  0  0  0
 11 28  1  0  0  0  0
 11  8  1  0  0  0  0
 12  8  1  0  0  0  0
 12 27  1  0  0  0  0
 13  2  1  0  0  0  0
 14 23  1  0  0  0  0
 17 20  1  0  0  0  0
 18 13  1  0  0  0  0
 18 25  1  0  0  0  0
 19  1  1  0  0  0  0
 20 22  1  0  0  0  0
 20  4  1  0  0  0  0
 22  9  1  0  0  0  0
 23 15  1  0  0  0  0
 25 26  1  0  0  0  0
 26 19  1  0  0  0  0
 26 17  1  0  0  0  0
 27 24  2  0  0  0  0
 30 28  1  0  0  0  0
 30 29  1  0  0  0  0
M  END
>  <MODEL>
3

>  <REMARK>
 VINA RESULT:      -7.6      1.705      2.212
  Name = 
  2 active torsions:
  status: ('A' for Active; 'I' for Inactive)
    1  A    between atoms: C_11  and  C_28
    2  A    between atoms: C_28  and  S_30
                            x       y       z     vdW  Elec       q    Type
                         _______ _______ _______ _____ _____    ______ ____

>  <TORSDO>
F 2

$$$$
=
 OpenBabel11112416233D

 30 35  0  0  1  0  0  0  0  0999 V2000
  190.2280  174.2180  143.2360 C   0  0  2  0  0  3  0  0  0  0  0  0
  190.5730  173.1690  140.9510 C   0  0  2  0  0  3  0  0  0  0  0  0
  186.6190  176.1350  141.9750 N   0  0  0  0  0  2  0  0  0  0  0  0
  189.5200  175.2850  144.1080 C   0  0  2  0  0  3  0  0  0  0  0  0
  191.7200  174.2430  143.5580 C   0  0  0  0  0  2  0  0  0  0  0  0
  191.4850  174.9870  147.0450 O   0  0  0  0  0  0  0  0  0  0  0  0
  188.7140  177.1740  146.1530 C   0  0  1  0  0  3  0  0  0  0  0  0
  191.0720  174.6220  145.9520 C   0  0  0  0  0  0  0  0  0  0  0  0
  187.4950  177.4170  145.2730 C   0  0  2  0  0  3  0  0  0  0  0  0
  186.2310  176.6240  143.2510 C   0  0  0  0  0  0  0  0  0  0  0  0
  191.9660  173.8370  145.0150 C   0  0  2  0  0  3  0  0  0  0  0  0
  189.6200  174.8150  145.5680 C   0  0  1  0  0  3  0  0  0  0  0  0
  190.4860  173.3740  139.4420 C   0  0  0  0  0  2  0  0  0  0  0  0
  186.3520  177.6590  146.2370 C   0  0  0  0  0  2  0  0  0  0  0  0
  188.4760  178.0230  147.3930 C   0  0  0  0  0  2  0  0  0  0  0  0
  189.9470  171.9740  141.3200 O   0  0  0  0  0  1  0  0  0  0  0  0
  187.9990  175.7390  142.1890 C   0  0  1  0  0  3  0  0  0  0  0  0
  188.7520  173.4350  138.8740 S   0  0  0  0  0  0  0  0  0  0  0  0
  189.9820  174.3630  141.7120 C   0  0  1  0  0  3  0  0  0  0  0  0
  188.0640  175.3900  143.6590 C   0  0  2  0  0  3  0  0  0  0  0  0
  185.1570  177.2560  143.4330 O   0  0  0  0  0  0  0  0  0  0  0  0
  187.1690  176.3650  144.2950 N   0  0  0  0  0  0  0  0  0  0  0  0
  186.9830  178.3270  147.4430 C   0  0  0  0  0  2  0  0  0  0  0  0
  188.3810  175.2540  147.5200 O   0  0  0  0  0  0  0  0  0  0  0  0
  188.3540  174.8980  139.8800 C   0  0  0  0  0  2  0  0  0  0  0  0
  188.4900  174.5700  141.3620 C   0  0  2  0  0  3  0  0  0  0  0  0
  188.8830  175.7210  146.5080 C   0  0  0  0  0  0  0  0  0  0  0  0
  193.4400  174.0110  145.3530 C   0  0  0  0  0  2  0  0  0  0  0  0
  194.5400  176.3070  145.9450 C   0  0  0  0  0  1  0  0  0  0  0  0
  194.1420  175.4050  144.4220 S   0  0  0  0  0  0  0  0  0  0  0  0
  1  5  1  6  0  0  0
  1  4  1  0  0  0  0
  2 16  1  6  0  0  0
  2 19  1  0  0  0  0
  3 17  1  0  0  0  0
  3 10  1  0  0  0  0
  4 12  1  0  0  0  0
  5 11  1  0  0  0  0
  7 27  1  0  0  0  0
  7 15  1  0  0  0  0
  8  6  2  0  0  0  0
  9  7  1  0  0  0  0
  9 14  1  0  0  0  0
 10 21  2  0  0  0  0
 10 22  1  0  0  0  0
 11 28  1  0  0  0  0
 11  8  1  0  0  0  0
 12  8  1  0  0  0  0
 12 27  1  0  0  0  0
 13  2  1  0  0  0  0
 14 23  1  0  0  0  0
 15 23  1  0  0  0  0
 17 20  1  0  0  0  0
 18 13  1  0  0  0  0
 18 25  1  0  0  0  0
 19  1  1  0  0  0  0
 20  4  1  0  0  0  0
 20 22  1  0  0  0  0
 22  9  1  0  0  0  0
 25 26  1  0  0  0  0
 26 19  1  0  0  0  0
 26 17  1  0  0  0  0
 27 24  2  0  0  0  0
 30 28  1  0  0  0  0
 30 29  1  0  0  0  0
M  END
>  <MODEL>
4

>  <REMARK>
 VINA RESULT:      -7.2      1.980      2.780
  Name = 
  2 active torsions:
  status: ('A' for Active; 'I' for Inactive)
    1  A    between atoms: C_11  and  C_28
    2  A    between atoms: C_28  and  S_30
                            x       y       z     vdW  Elec       q    Type
                         _______ _______ _______ _____ _____    ______ ____

>  <TORSDO>
F 2

$$$$
=
 OpenBabel11112416233D

 30 35  0  0  1  0  0  0  0  0999 V2000
  187.7990  176.4920  144.5040 C   0  0  2  0  0  3  0  0  0  0  0  0
  185.5680  177.4600  145.2300 C   0  0  2  0  0  3  0  0  0  0  0  0
  189.6960  177.7660  148.1190 N   0  0  0  0  0  2  0  0  0  0  0  0
  189.3360  176.4280  144.6890 C   0  0  2  0  0  3  0  0  0  0  0  0
  187.4970  176.6540  143.0160 C   0  0  0  0  0  2  0  0  0  0  0  0
  190.1730  174.6710  141.7240 O   0  0  0  0  0  0  0  0  0  0  0  0
  192.1990  176.0790  144.4020 C   0  0  1  0  0  3  0  0  0  0  0  0
  189.4040  175.0830  142.5820 C   0  0  0  0  0  0  0  0  0  0  0  0
  192.2760  176.5520  145.8470 C   0  0  2  0  0  3  0  0  0  0  0  0
  190.9380  177.1120  147.8990 C   0  0  0  0  0  0  0  0  0  0  0  0
  187.9720  175.4280  142.2310 C   0  0  2  0  0  3  0  0  0  0  0  0
  189.8160  175.1200  144.0390 C   0  0  1  0  0  3  0  0  0  0  0  0
  184.8610  178.6270  145.9120 C   0  0  0  0  0  2  0  0  0  0  0  0
  193.4110  175.7610  146.4640 C   0  0  0  0  0  2  0  0  0  0  0  0
  193.6320  175.7280  144.0290 C   0  0  0  0  0  2  0  0  0  0  0  0
  185.1240  176.2430  145.7550 O   0  0  0  0  0  1  0  0  0  0  0  0
  189.0600  177.6920  146.8160 C   0  0  1  0  0  3  0  0  0  0  0  0
  185.1640  178.6340  147.7120 S   0  0  0  0  0  0  0  0  0  0  0  0
  187.0930  177.5890  145.3420 C   0  0  1  0  0  3  0  0  0  0  0  0
  189.6470  176.4510  146.1830 C   0  0  2  0  0  3  0  0  0  0  0  0
  191.8760  177.1440  148.7400 O   0  0  0  0  0  0  0  0  0  0  0  0
  191.0410  176.4430  146.6430 N   0  0  0  0  0  0  0  0  0  0  0  0
  194.3940  175.5290  145.3330 C   0  0  0  0  0  2  0  0  0  0  0  0
  191.7090  173.7510  144.3170 O   0  0  0  0  0  0  0  0  0  0  0  0
  186.9640  178.8200  147.5240 C   0  0  0  0  0  2  0  0  0  0  0  0
  187.5490  177.6020  146.8190 C   0  0  2  0  0  3  0  0  0  0  0  0
  191.2850  174.8940  144.2360 C   0  0  0  0  0  0  0  0  0  0  0  0
  187.7940  175.6760  140.7390 C   0  0  0  0  0  2  0  0  0  0  0  0
  186.5710  176.8100  138.7280 C   0  0  0  0  0  1  0  0  0  0  0  0
  186.9060  177.2360  140.4590 S   0  0  0  0  0  0  0  0  0  0  0  0
  1  5  1  6  0  0  0
  1  4  1  0  0  0  0
  1 19  1  0  0  0  0
  2 19  1  0  0  0  0
  2 16  1  1  0  0  0
  2 13  1  0  0  0  0
  4 20  1  0  0  0  0
  6  8  2  0  0  0  0
  7  9  1  0  0  0  0
  8 12  1  0  0  0  0
  9 14  1  0  0  0  0
  9 22  1  0  0  0  0
 10  3  1  0  0  0  0
 10 21  2  0  0  0  0
 11  8  1  0  0  0  0
 11  5  1  0  0  0  0
 12 27  1  0  0  0  0
 12  4  1  0  0  0  0
 13 18  1  0  0  0  0
 15  7  1  0  0  0  0
 15 23  1  0  0  0  0
 17 26  1  0  0  0  0
 17  3  1  0  0  0  0
 19 26  1  0  0  0  0
 20 22  1  0  0  0  0
 20 17  1  0  0  0  0
 22 10  1  0  0  0  0
 23 14  1  0  0  0  0
 25 18  1  0  0  0  0
 26 25  1  0  0  0  0
 27 24  2  0  0  0  0
 27  7  1  0  0  0  0
 28 11  1  0  0  0  0
 29 30  1  0  0  0  0
 30 28  1  0  0  0  0
M  END
>  <MODEL>
5

>  <REMARK>
 VINA RESULT:      -7.0      3.146      7.291
  Name = 
  2 active torsions:
  status: ('A' for Active; 'I' for Inactive)
    1  A    between atoms: C_11  and  C_28
    2  A    between atoms: C_28  and  S_30
                            x       y       z     vdW  Elec       q    Type
                         _______ _______ _______ _____ _____    ______ ____

>  <TORSDO>
F 2

$$$$
=
 OpenBabel11112416233D

 30 35  0  0  1  0  0  0  0  0999 V2000
  189.7580  175.5930  143.2730 C   0  0  2  0  0  3  0  0  0  0  0  0
  191.9120  174.4410  143.9610 C   0  0  2  0  0  3  0  0  0  0  0  0
  189.1210  177.0870  147.2290 N   0  0  0  0  0  2  0  0  0  0  0  0
  188.4250  176.2630  143.6900 C   0  0  2  0  0  3  0  0  0  0  0  0
  189.4700  174.6010  142.1490 C   0  0  0  0  0  2  0  0  0  0  0  0
  186.8660  176.4160  140.5090 O   0  0  0  0  0  0  0  0  0  0  0  0
  185.7500  177.3690  143.8400 C   0  0  1  0  0  3  0  0  0  0  0  0
  187.8160  176.2670  141.2650 C   0  0  0  0  0  0  0  0  0  0  0  0
  186.1260  177.7620  145.2620 C   0  0  2  0  0  3  0  0  0  0  0  0
  188.0070  177.9150  146.9210 C   0  0  0  0  0  0  0  0  0  0  0  0
  188.9470  175.3270  140.9060 C   0  0  2  0  0  3  0  0  0  0  0  0
  187.9600  177.1250  142.5050 C   0  0  1  0  0  3  0  0  0  0  0  0
  192.6190  173.6280  145.0410 C   0  0  0  0  0  2  0  0  0  0  0  0
  185.4360  179.0890  145.5030 C   0  0  0  0  0  2  0  0  0  0  0  0
  184.3560  177.9430  143.6320 C   0  0  0  0  0  2  0  0  0  0  0  0
  192.7070  175.5170  143.5560 O   0  0  0  0  0  1  0  0  0  0  0  0
  189.2440  176.2610  146.0410 C   0  0  1  0  0  3  0  0  0  0  0  0
  192.9920  174.6480  146.5080 S   0  0  0  0  0  0  0  0  0  0  0  0
  190.5320  174.9170  144.4330 C   0  0  1  0  0  3  0  0  0  0  0  0
  188.6770  177.1170  144.9300 C   0  0  2  0  0  3  0  0  0  0  0  0
  187.4460  178.6400  147.7850 O   0  0  0  0  0  0  0  0  0  0  0  0
  187.5660  177.8340  145.5660 N   0  0  0  0  0  0  0  0  0  0  0  0
  184.1610  179.0290  144.6840 C   0  0  0  0  0  2  0  0  0  0  0  0
  186.5460  178.9930  142.2930 O   0  0  0  0  0  0  0  0  0  0  0  0
  191.2410  175.0190  146.8370 C   0  0  0  0  0  2  0  0  0  0  0  0
  190.6470  175.8180  145.6840 C   0  0  2  0  0  3  0  0  0  0  0  0
  186.7200  177.9060  142.8220 C   0  0  0  0  0  0  0  0  0  0  0  0
  188.5290  174.3070  139.8550 C   0  0  0  0  0  2  0  0  0  0  0  0
  189.2880  171.8990  139.1800 C   0  0  0  0  0  1  0  0  0  0  0  0
  189.9940  173.5670  139.0760 S   0  0  0  0  0  0  0  0  0  0  0  0
  1  5  1  6  0  0  0
  1  4  1  0  0  0  0
  1 19  1  0  0  0  0
  2 16  1  1  0  0  0
  2 19  1  0  0  0  0
  2 13  1  0  0  0  0
  4 20  1  0  0  0  0
  6  8  2  0  0  0  0
  7  9  1  0  0  0  0
  8 12  1  0  0  0  0
  9 14  1  0  0  0  0
  9 22  1  0  0  0  0
 10  3  1  0  0  0  0
 10 21  2  0  0  0  0
 11  8  1  0  0  0  0
 11  5  1  0  0  0  0
 12 27  1  0  0  0  0
 12  4  1  0  0  0  0
 13 18  1  0  0  0  0
 15  7  1  0  0  0  0
 15 23  1  0  0  0  0
 17  3  1  0  0  0  0
 18 25  1  0  0  0  0
 19 26  1  0  0  0  0
 20 22  1  0  0  0  0
 20 17  1  0  0  0  0
 22 10  1  0  0  0  0
 23 14  1  0  0  0  0
 24 27  2  0  0  0  0
 26 17  1  0  0  0  0
 26 25  1  0  0  0  0
 27  7  1  0  0  0  0
 28 11  1  0  0  0  0
 30 29  1  0  0  0  0
 30 28  1  0  0  0  0
M  END
>  <MODEL>
6

>  <REMARK>
 VINA RESULT:      -7.0      2.131      5.153
  Name = 
  2 active torsions:
  status: ('A' for Active; 'I' for Inactive)
    1  A    between atoms: C_11  and  C_28
    2  A    between atoms: C_28  and  S_30
                            x       y       z     vdW  Elec       q    Type
                         _______ _______ _______ _____ _____    ______ ____

>  <TORSDO>
F 2

$$$$
=
 OpenBabel11112416233D

 30 35  0  0  1  0  0  0  0  0999 V2000
  188.8820  174.8550  141.9590 C   0  0  2  0  0  3  0  0  0  0  0  0
  188.6340  173.3560  139.9270 C   0  0  2  0  0  3  0  0  0  0  0  0
  192.0960  172.4880  143.4960 N   0  0  0  0  0  2  0  0  0  0  0  0
  189.4400  175.0620  143.3900 C   0  0  2  0  0  3  0  0  0  0  0  0
  187.4170  175.2830  141.9450 C   0  0  0  0  0  2  0  0  0  0  0  0
  187.6460  177.9940  144.2610 O   0  0  0  0  0  0  0  0  0  0  0  0
  190.0010  175.9160  146.1020 C   0  0  1  0  0  3  0  0  0  0  0  0
  188.0750  177.1540  143.4810 C   0  0  0  0  0  0  0  0  0  0  0  0
  191.1360  174.9020  146.0550 C   0  0  2  0  0  3  0  0  0  0  0  0
  192.4430  173.3500  144.5720 C   0  0  0  0  0  0  0  0  0  0  0  0
  187.2870  176.7800  142.2430 C   0  0  2  0  0  3  0  0  0  0  0  0
  189.4640  176.5770  143.6520 C   0  0  1  0  0  3  0  0  0  0  0  0
  188.6370  171.9210  139.4090 C   0  0  0  0  0  2  0  0  0  0  0  0
  192.2570  175.5220  146.8620 C   0  0  0  0  0  2  0  0  0  0  0  0
  190.1420  176.5960  147.4560 C   0  0  0  0  0  2  0  0  0  0  0  0
  189.4540  174.1660  139.1350 O   0  0  0  0  0  1  0  0  0  0  0  0
  190.8050  173.0020  143.0770 C   0  0  1  0  0  3  0  0  0  0  0  0
  190.3190  171.2120  139.4130 S   0  0  0  0  0  0  0  0  0  0  0  0
  189.0520  173.4190  141.4020 C   0  0  1  0  0  3  0  0  0  0  0  0
  190.8440  174.4670  143.4540 C   0  0  2  0  0  3  0  0  0  0  0  0
  193.4080  173.1090  145.3450 O   0  0  0  0  0  0  0  0  0  0  0  0
  191.5930  174.4870  144.7170 N   0  0  0  0  0  0  0  0  0  0  0  0
  191.5680  176.3460  147.9330 C   0  0  0  0  0  2  0  0  0  0  0  0
  190.6820  177.9680  145.1070 O   0  0  0  0  0  0  0  0  0  0  0  0
  190.5120  171.3880  141.2140 C   0  0  0  0  0  2  0  0  0  0  0  0
  190.4790  172.8600  141.6060 C   0  0  2  0  0  3  0  0  0  0  0  0
  190.0780  176.9130  144.9780 C   0  0  0  0  0  0  0  0  0  0  0  0
  185.8160  177.1520  142.3690 C   0  0  0  0  0  2  0  0  0  0  0  0
  183.6020  178.2910  141.5780 C   0  0  0  0  0  1  0  0  0  0  0  0
  185.3200  178.2390  141.0010 S   0  0  0  0  0  0  0  0  0  0  0  0
  1  5  1  1  0  0  0
  1  4  1  0  0  0  0
  2 16  1  6  0  0  0
  2 19  1  0  0  0  0
  3 10  1  0  0  0  0
  4 20  1  0  0  0  0
  4 12  1  0  0  0  0
  5 11  1  0  0  0  0
  7 15  1  0  0  0  0
  8 12  1  0  0  0  0
  8  6  2  0  0  0  0
  9  7  1  0  0  0  0
  9 14  1  0  0  0  0
 10 22  1  0  0  0  0
 10 21  2  0  0  0  0
 11 28  1  0  0  0  0
 11  8  1  0  0  0  0
 12 27  1  0  0  0  0
 13 18  1  0  0  0  0
 13  2  1  0  0  0  0
 14 23  1  0  0  0  0
 15 23  1  0  0  0  0
 17 20  1  0  0  0  0
 17  3  1  0  0  0  0
 18 25  1  0  0  0  0
 19 26  1  0  0  0  0
 19  1  1  0  0  0  0
 20 22  1  0  0  0  0
 22  9  1  0  0  0  0
 25 26  1  0  0  0  0
 26 17  1  0  0  0  0
 27 24  2  0  0  0  0
 27  7  1  0  0  0  0
 30 29  1  0  0  0  0
 30 28  1  0  0  0  0
M  END
>  <MODEL>
7

>  <REMARK>
 VINA RESULT:      -6.8      3.092      5.648
  Name = 
  2 active torsions:
  status: ('A' for Active; 'I' for Inactive)
    1  A    between atoms: C_11  and  C_28
    2  A    between atoms: C_28  and  S_30
                            x       y       z     vdW  Elec       q    Type
                         _______ _______ _______ _____ _____    ______ ____

>  <TORSDO>
F 2

$$$$
=
 OpenBabel11112416233D

 30 35  0  0  1  0  0  0  0  0999 V2000
  190.5860  175.6480  144.4320 C   0  0  2  0  0  3  0  0  0  0  0  0
  192.3330  176.3680  146.1270 C   0  0  2  0  0  3  0  0  0  0  0  0
  193.4070  173.2100  142.3390 N   0  0  0  0  0  2  0  0  0  0  0  0
  190.2600  175.0180  143.0550 C   0  0  2  0  0  3  0  0  0  0  0  0
  189.7690  176.9290  144.5830 C   0  0  0  0  0  2  0  0  0  0  0  0
  186.8250  175.8730  142.8570 O   0  0  0  0  0  0  0  0  0  0  0  0
  189.0690  174.1660  140.5540 C   0  0  1  0  0  3  0  0  0  0  0  0
  187.8920  175.7230  143.4360 C   0  0  0  0  0  0  0  0  0  0  0  0
  190.3520  173.3710  140.3570 C   0  0  2  0  0  3  0  0  0  0  0  0
  192.4810  172.6030  141.4490 C   0  0  0  0  0  0  0  0  0  0  0  0
  188.2700  176.6170  144.5990 C   0  0  2  0  0  3  0  0  0  0  0  0
  188.7960  174.5540  143.1040 C   0  0  1  0  0  3  0  0  0  0  0  0
  193.7830  176.7900  146.3430 C   0  0  0  0  0  2  0  0  0  0  0  0
  189.9270  172.0990  139.6540 C   0  0  0  0  0  2  0  0  0  0  0  0
  188.1960  173.8010  139.3620 C   0  0  0  0  0  2  0  0  0  0  0  0
  191.9700  175.3710  147.0380 O   0  0  0  0  0  1  0  0  0  0  0  0
  192.6430  174.3100  142.8980 C   0  0  1  0  0  3  0  0  0  0  0  0
  194.9260  175.3820  146.1380 S   0  0  0  0  0  0  0  0  0  0  0  0
  192.0930  175.9120  144.6820 C   0  0  1  0  0  3  0  0  0  0  0  0
  191.2060  173.8420  142.8230 C   0  0  2  0  0  3  0  0  0  0  0  0
  192.8250  171.7270  140.6110 O   0  0  0  0  0  0  0  0  0  0  0  0
  191.1440  173.0860  141.5660 N   0  0  0  0  0  0  0  0  0  0  0  0
  188.7410  172.4950  138.7960 C   0  0  0  0  0  2  0  0  0  0  0  0
  187.5440  172.9520  141.9200 O   0  0  0  0  0  0  0  0  0  0  0  0
  194.4510  175.1010  144.4040 C   0  0  0  0  0  2  0  0  0  0  0  0
  192.9830  174.7000  144.3200 C   0  0  2  0  0  3  0  0  0  0  0  0
  188.3850  173.8350  141.8540 C   0  0  0  0  0  0  0  0  0  0  0  0
  187.4760  177.9160  144.6010 C   0  0  0  0  0  2  0  0  0  0  0  0
  184.8910  178.2500  144.7850 C   0  0  0  0  0  1  0  0  0  0  0  0
  186.2470  177.9020  145.9390 S   0  0  0  0  0  0  0  0  0  0  0  0
  1  5  1  6  0  0  0
  1 19  1  0  0  0  0
  2 13  1  0  0  0  0
  2 16  1  1  0  0  0
  3 17  1  0  0  0  0
  4 12  1  0  0  0  0
  4  1  1  0  0  0  0
  5 11  1  0  0  0  0
  6  8  2  0  0  0  0
  7 27  1  0  0  0  0
  8 11  1  0  0  0  0
  9  7  1  0  0  0  0
  9 22  1  0  0  0  0
 10 22  1  0  0  0  0
 10  3  1  0  0  0  0
 11 28  1  0  0  0  0
 12  8  1  0  0  0  0
 14  9  1  0  0  0  0
 15  7  1  0  0  0  0
 17 26  1  0  0  0  0
 18 13  1  0  0  0  0
 19  2  1  0  0  0  0
 20 17  1  0  0  0  0
 20  4  1  0  0  0  0
 21 10  2  0  0  0  0
 22 20  1  0  0  0  0
 23 15  1  0  0  0  0
 23 14  1  0  0  0  0
 25 18  1  0  0  0  0
 26 25  1  0  0  0  0
 26 19  1  0  0  0  0
 27 24  2  0  0  0  0
 27 12  1  0  0  0  0
 28 30  1  0  0  0  0
 29 30  1  0  0  0  0
M  END
>  <MODEL>
8

>  <REMARK>
 VINA RESULT:      -6.8      2.922      5.985
  Name = 
  2 active torsions:
  status: ('A' for Active; 'I' for Inactive)
    1  A    between atoms: C_11  and  C_28
    2  A    between atoms: C_28  and  S_30
                            x       y       z     vdW  Elec       q    Type
                         _______ _______ _______ _____ _____    ______ ____

>  <TORSDO>
F 2

$$$$
=
 OpenBabel11112416233D

 30 35  0  0  1  0  0  0  0  0999 V2000
  189.1250  175.7250  143.8130 C   0  0  2  0  0  3  0  0  0  0  0  0
  189.3940  176.6120  146.1760 C   0  0  2  0  0  3  0  0  0  0  0  0
  192.2470  172.8580  144.3760 N   0  0  0  0  0  2  0  0  0  0  0  0
  189.7060  174.9060  142.6340 C   0  0  2  0  0  3  0  0  0  0  0  0
  188.6020  177.0520  143.2690 C   0  0  0  0  0  2  0  0  0  0  0  0
  187.4240  175.8880  140.1040 O   0  0  0  0  0  0  0  0  0  0  0  0
  190.3610  173.7370  140.0640 C   0  0  1  0  0  3  0  0  0  0  0  0
  187.8070  175.7770  141.2600 C   0  0  0  0  0  0  0  0  0  0  0  0
  191.3270  172.8600  140.8480 C   0  0  2  0  0  3  0  0  0  0  0  0
  192.0670  172.1670  143.1470 C   0  0  0  0  0  0  0  0  0  0  0  0
  187.4420  176.8200  142.2960 C   0  0  2  0  0  3  0  0  0  0  0  0
  188.5290  174.5280  141.7210 C   0  0  1  0  0  3  0  0  0  0  0  0
  190.3790  176.9910  147.2770 C   0  0  0  0  0  2  0  0  0  0  0  0
  191.3000  171.5170  140.1500 C   0  0  0  0  0  2  0  0  0  0  0  0
  190.4550  173.2360  138.6300 C   0  0  0  0  0  2  0  0  0  0  0  0
  188.3850  175.7870  146.6820 O   0  0  0  0  0  1  0  0  0  0  0  0
  191.4680  174.0670  144.1810 C   0  0  1  0  0  3  0  0  0  0  0  0
  191.1610  175.5140  148.0120 S   0  0  0  0  0  0  0  0  0  0  0  0
  190.1080  175.9510  144.9900 C   0  0  1  0  0  3  0  0  0  0  0  0
  190.3920  173.6640  143.1970 C   0  0  2  0  0  3  0  0  0  0  0  0
  192.7520  171.1560  142.8350 O   0  0  0  0  0  0  0  0  0  0  0  0
  191.0710  172.7270  142.2930 N   0  0  0  0  0  0  0  0  0  0  0  0
  191.0480  171.8330  138.6880 C   0  0  0  0  0  2  0  0  0  0  0  0
  188.1640  172.8250  140.1390 O   0  0  0  0  0  0  0  0  0  0  0  0
  191.9160  174.9920  146.4410 C   0  0  0  0  0  2  0  0  0  0  0  0
  190.8340  174.6560  145.4230 C   0  0  2  0  0  3  0  0  0  0  0  0
  188.9520  173.6450  140.5850 C   0  0  0  0  0  0  0  0  0  0  0  0
  187.0370  178.1410  141.6570 C   0  0  0  0  0  2  0  0  0  0  0  0
  184.9240  177.7880  143.1530 C   0  0  0  0  0  1  0  0  0  0  0  0
  185.2370  178.1990  141.4140 S   0  0  0  0  0  0  0  0  0  0  0  0
  1  5  1  6  0  0  0
  1 19  1  0  0  0  0
  2 16  1  1  0  0  0
  2 13  1  0  0  0  0
  4 20  1  0  0  0  0
  4  1  1  0  0  0  0
  6  8  2  0  0  0  0
  7 27  1  0  0  0  0
  7  9  1  0  0  0  0
  8 12  1  0  0  0  0
  8 11  1  0  0  0  0
  9 22  1  0  0  0  0
 10  3  1  0  0  0  0
 11  5  1  0  0  0  0
 12  4  1  0  0  0  0
 13 18  1  0  0  0  0
 14  9  1  0  0  0  0
 15 23  1  0  0  0  0
 15  7  1  0  0  0  0
 17  3  1  0  0  0  0
 17 26  1  0  0  0  0
 19 26  1  0  0  0  0
 19  2  1  0  0  0  0
 20 17  1  0  0  0  0
 21 10  2  0  0  0  0
 22 10  1  0  0  0  0
 22 20  1  0  0  0  0
 23 14  1  0  0  0  0
 24 27  2  0  0  0  0
 25 18  1  0  0  0  0
 26 25  1  0  0  0  0
 27 12  1  0  0  0  0
 28 11  1  0  0  0  0
 30 28  1  0  0  0  0
 30 29  1  0  0  0  0
M  END
>  <MODEL>
9

>  <REMARK>
 VINA RESULT:      -6.7      2.666      6.860
  Name = 
  2 active torsions:
  status: ('A' for Active; 'I' for Inactive)
    1  A    between atoms: C_11  and  C_28
    2  A    between atoms: C_28  and  S_30
                            x       y       z     vdW  Elec       q    Type
                         _______ _______ _______ _____ _____    ______ ____

>  <TORSDO>
F 2

$$$$
