=
 OpenBabel11112416543D

 31 35  0  0  1  0  0  0  0  0999 V2000
  194.4200  175.9790  144.9530 C   0  0  0  0  0  0  0  0  0  0  0  0
  191.1830  176.8760  143.1600 C   0  0  2  0  0  3  0  0  0  0  0  0
  190.7190  175.6400  142.4020 C   0  0  0  0  0  0  0  0  0  0  0  0
  188.2020  176.4390  147.5690 O   0  0  0  0  0  0  0  0  0  0  0  0
  187.5540  177.0750  146.6960 C   0  0  0  0  0  0  0  0  0  0  0  0
  191.2750  173.5700  141.2460 C   0  0  0  0  0  0  0  0  0  0  0  0
  192.1720  176.5480  144.2490 C   0  0  0  0  0  0  0  0  0  0  0  0
  193.9660  175.7990  146.2630 C   0  0  0  0  0  3  0  0  0  0  0  0
  191.6610  174.6770  142.0050 C   0  0  0  0  0  3  0  0  0  0  0  0
  189.5240  177.2090  145.0690 C   0  0  0  0  0  0  0  0  0  0  0  0
  195.7600  175.7820  144.6500 O   0  0  0  0  0  1  0  0  0  0  0  0
  188.3150  176.4840  142.3550 C   0  0  0  0  0  2  0  0  0  0  0  0
  192.2170  172.6200  140.8750 O   0  0  0  0  0  1  0  0  0  0  0  0
  190.3500  176.6400  145.8980 N   0  0  0  0  0  0  0  0  0  0  0  0
  190.0170  177.7190  143.7260 C   0  0  2  0  0  3  0  0  0  0  0  0
  188.1700  177.4760  145.4650 N   0  0  0  0  0  2  0  0  0  0  0  0
  193.5240  176.3490  143.9460 C   0  0  0  0  0  3  0  0  0  0  0  0
  189.9440  173.4220  140.8560 C   0  0  0  0  0  3  0  0  0  0  0  0
  191.7210  176.3840  145.5700 C   0  0  0  0  0  0  0  0  0  0  0  0
  192.6180  176.0030  146.5720 C   0  0  0  0  0  3  0  0  0  0  0  0
  188.8990  177.8510  142.6920 C   0  0  0  0  0  2  0  0  0  0  0  0
  189.3790  175.5010  141.9680 C   0  0  0  0  0  0  0  0  0  0  0  0
  189.0000  174.3840  141.2170 C   0  0  0  0  0  3  0  0  0  0  0  0
  184.5680  178.7840  144.7970 C   0  0  1  0  0  3  0  0  0  0  0  0
  185.2170  176.6690  145.9270 C   0  0  0  0  0  2  0  0  0  0  0  0
  186.2560  179.5550  147.9440 O   0  0  0  0  0  0  0  0  0  0  0  0
  184.5970  179.4950  143.6130 F   0  0  0  0  0  0  0  0  0  0  0  0
  185.1840  177.4070  144.5910 C   0  0  0  0  0  2  0  0  0  0  0  0
  185.8710  178.8710  146.9610 C   0  0  0  0  0  0  0  0  0  0  0  0
  186.1110  177.3850  146.9440 C   0  0  2  0  0  3  0  0  0  0  0  0
  185.2800  179.5250  145.8330 N   0  0  0  0  0  2  0  0  0  0  0  0
  1  8  1  0  0  0  0
  2  3  1  1  0  0  0
  2 15  1  0  0  0  0
  2  7  1  0  0  0  0
  5  4  2  0  0  0  0
  6  9  2  0  0  0  0
  7 19  2  0  0  0  0
  8 20  2  0  0  0  0
  9  3  1  0  0  0  0
 10 16  1  0  0  0  0
 10 14  2  0  0  0  0
 11  1  1  0  0  0  0
 12 21  1  0  0  0  0
 13  6  1  0  0  0  0
 15 21  1  6  0  0  0
 15 10  1  0  0  0  0
 16  5  1  0  0  0  0
 17  7  1  0  0  0  0
 17  1  2  0  0  0  0
 18 23  2  0  0  0  0
 18  6  1  0  0  0  0
 19 14  1  0  0  0  0
 19 20  1  0  0  0  0
 22 12  1  0  0  0  0
 22  3  2  0  0  0  0
 23 22  1  0  0  0  0
 24 27  1  6  0  0  0
 24 31  1  0  0  0  0
 25 30  1  0  0  0  0
 28 24  1  0  0  0  0
 28 25  1  0  0  0  0
 29 26  2  0  0  0  0
 30  5  1  6  0  0  0
 30 29  1  0  0  0  0
 31 29  1  0  0  0  0
M  END
>  <MODEL>
1

>  <REMARK>
 VINA RESULT:      -9.3      0.000      0.000
  Name = 
  1 active torsions:
  status: ('A' for Active; 'I' for Inactive)
    1  A    between atoms: C_5  and  C_30
                            x       y       z     vdW  Elec       q    Type
                         _______ _______ _______ _____ _____    ______ ____

>  <TORSDO>
F 1

$$$$
=
 OpenBabel11112416543D

 31 35  0  0  1  0  0  0  0  0999 V2000
  185.9400  178.1040  140.8880 C   0  0  0  0  0  0  0  0  0  0  0  0
  188.4270  178.1390  143.7700 C   0  0  2  0  0  3  0  0  0  0  0  0
  187.7180  177.5820  144.9970 C   0  0  0  0  0  0  0  0  0  0  0  0
  190.9760  173.7570  142.0940 O   0  0  0  0  0  0  0  0  0  0  0  0
  191.7000  174.3590  142.9310 C   0  0  0  0  0  0  0  0  0  0  0  0
  185.6500  177.2400  146.2370 C   0  0  0  0  0  0  0  0  0  0  0  0
  187.7320  177.7720  142.4860 C   0  0  0  0  0  0  0  0  0  0  0  0
  186.3690  176.9840  140.1700 C   0  0  0  0  0  3  0  0  0  0  0  0
  186.3200  177.6760  145.0920 C   0  0  0  0  0  3  0  0  0  0  0  0
  190.1520  176.3900  143.0840 C   0  0  0  0  0  0  0  0  0  0  0  0
  184.8350  178.8240  140.4550 O   0  0  0  0  0  1  0  0  0  0  0  0
  189.9370  176.9540  146.0820 C   0  0  0  0  0  2  0  0  0  0  0  0
  184.2660  177.3270  146.3060 O   0  0  0  0  0  1  0  0  0  0  0  0
  189.3460  175.9450  142.1640 N   0  0  0  0  0  0  0  0  0  0  0  0
  189.9230  177.7570  143.7040 C   0  0  2  0  0  3  0  0  0  0  0  0
  191.3330  175.6530  143.4300 N   0  0  0  0  0  2  0  0  0  0  0  0
  186.6170  178.4960  142.0470 C   0  0  0  0  0  3  0  0  0  0  0  0
  186.3710  176.7210  147.3110 C   0  0  0  0  0  3  0  0  0  0  0  0
  188.1730  176.6560  141.7520 C   0  0  0  0  0  0  0  0  0  0  0  0
  187.4860  176.2620  140.6010 C   0  0  0  0  0  3  0  0  0  0  0  0
  190.5770  177.9050  145.0780 C   0  0  0  0  0  2  0  0  0  0  0  0
  188.4440  177.0910  146.1090 C   0  0  0  0  0  0  0  0  0  0  0  0
  187.7640  176.6460  147.2460 C   0  0  0  0  0  3  0  0  0  0  0  0
  194.3250  174.8560  145.8140 C   0  0  1  0  0  3  0  0  0  0  0  0
  192.7560  173.1820  144.8590 C   0  0  0  0  0  2  0  0  0  0  0  0
  194.6310  174.8400  142.1730 O   0  0  0  0  0  0  0  0  0  0  0  0
  194.4580  175.9230  146.6800 F   0  0  0  0  0  0  0  0  0  0  0  0
  192.9060  174.3070  145.8810 C   0  0  0  0  0  2  0  0  0  0  0  0
  194.1350  174.6080  143.3050 C   0  0  0  0  0  0  0  0  0  0  0  0
  192.9450  173.6940  143.4270 C   0  0  2  0  0  3  0  0  0  0  0  0
  194.6570  175.2790  144.4570 N   0  0  0  0  0  2  0  0  0  0  0  0
  1 17  1  0  0  0  0
  2  7  1  6  0  0  0
  2  3  1  0  0  0  0
  3  9  2  0  0  0  0
  3 22  1  0  0  0  0
  4  5  2  0  0  0  0
  5 16  1  0  0  0  0
  6 13  1  0  0  0  0
  6 18  2  0  0  0  0
  8 20  1  0  0  0  0
  8  1  2  0  0  0  0
  9  6  1  0  0  0  0
 10 16  1  0  0  0  0
 10 15  1  0  0  0  0
 11  1  1  0  0  0  0
 12 22  1  0  0  0  0
 14 10  2  0  0  0  0
 15  2  1  0  0  0  0
 15 21  1  1  0  0  0
 17  7  2  0  0  0  0
 19 14  1  0  0  0  0
 19  7  1  0  0  0  0
 20 19  2  0  0  0  0
 21 12  1  0  0  0  0
 22 23  2  0  0  0  0
 23 18  1  0  0  0  0
 24 28  1  0  0  0  0
 24 27  1  1  0  0  0
 25 28  1  0  0  0  0
 26 29  2  0  0  0  0
 29 30  1  0  0  0  0
 29 31  1  0  0  0  0
 30  5  1  1  0  0  0
 30 25  1  0  0  0  0
 31 24  1  0  0  0  0
M  END
>  <MODEL>
2

>  <REMARK>
 VINA RESULT:      -9.1      3.193      7.662
  Name = 
  1 active torsions:
  status: ('A' for Active; 'I' for Inactive)
    1  A    between atoms: C_5  and  C_30
                            x       y       z     vdW  Elec       q    Type
                         _______ _______ _______ _____ _____    ______ ____

>  <TORSDO>
F 1

$$$$
=
 OpenBabel11112416543D

 31 35  0  0  1  0  0  0  0  0999 V2000
  193.9850  170.3290  144.4430 C   0  0  0  0  0  0  0  0  0  0  0  0
  194.3110  173.9110  145.6910 C   0  0  2  0  0  3  0  0  0  0  0  0
  195.1380  174.6810  144.6700 C   0  0  0  0  0  0  0  0  0  0  0  0
  189.3920  175.2820  144.1270 O   0  0  0  0  0  0  0  0  0  0  0  0
  189.8180  176.1400  144.9450 C   0  0  0  0  0  0  0  0  0  0  0  0
  196.8710  174.6770  142.9600 C   0  0  0  0  0  0  0  0  0  0  0  0
  193.7320  172.6420  145.1240 C   0  0  0  0  0  0  0  0  0  0  0  0
  192.6810  170.3340  143.9380 C   0  0  0  0  0  3  0  0  0  0  0  0
  196.0470  173.9900  143.8530 C   0  0  0  0  0  3  0  0  0  0  0  0
  191.9330  174.8170  145.5130 C   0  0  0  0  0  0  0  0  0  0  0  0
  194.7600  169.1810  144.3520 O   0  0  0  0  0  1  0  0  0  0  0  0
  194.1680  176.9040  145.4540 C   0  0  0  0  0  2  0  0  0  0  0  0
  197.7520  173.9760  142.1480 O   0  0  0  0  0  1  0  0  0  0  0  0
  191.5920  173.8020  144.7730 N   0  0  0  0  0  0  0  0  0  0  0  0
  193.2010  174.7650  146.3460 C   0  0  2  0  0  3  0  0  0  0  0  0
  191.0520  175.9420  145.6480 N   0  0  0  0  0  2  0  0  0  0  0  0
  194.5110  171.4830  145.0320 C   0  0  0  0  0  3  0  0  0  0  0  0
  196.8120  176.0680  142.8870 C   0  0  0  0  0  3  0  0  0  0  0  0
  192.4150  172.6380  144.6320 C   0  0  0  0  0  0  0  0  0  0  0  0
  191.8960  171.4860  144.0330 C   0  0  0  0  0  3  0  0  0  0  0  0
  193.7340  176.1530  146.7070 C   0  0  0  0  0  2  0  0  0  0  0  0
  195.1140  176.0950  144.6170 C   0  0  0  0  0  0  0  0  0  0  0  0
  195.9350  176.7740  143.7120 C   0  0  0  0  0  3  0  0  0  0  0  0
  186.1690  177.1560  145.9950 C   0  0  1  0  0  3  0  0  0  0  0  0
  188.5510  177.4990  146.6090 C   0  0  0  0  0  2  0  0  0  0  0  0
  188.1280  177.7680  142.9720 O   0  0  0  0  0  0  0  0  0  0  0  0
  185.0620  176.3440  146.1480 F   0  0  0  0  0  0  0  0  0  0  0  0
  187.3150  176.6380  146.8540 C   0  0  0  0  0  2  0  0  0  0  0  0
  187.8920  177.4940  144.1770 C   0  0  0  0  0  0  0  0  0  0  0  0
  189.0310  177.3950  145.1570 C   0  0  2  0  0  3  0  0  0  0  0  0
  186.5520  177.2030  144.5880 N   0  0  0  0  0  2  0  0  0  0  0  0
  1 17  1  0  0  0  0
  2  3  1  6  0  0  0
  2 15  1  0  0  0  0
  4  5  2  0  0  0  0
  5 16  1  0  0  0  0
  6  9  1  0  0  0  0
  7  2  1  0  0  0  0
  8 20  1  0  0  0  0
  8  1  2  0  0  0  0
  9  3  2  0  0  0  0
 10 16  1  0  0  0  0
 10 15  1  0  0  0  0
 11  1  1  0  0  0  0
 12 21  1  0  0  0  0
 13  6  1  0  0  0  0
 14 10  2  0  0  0  0
 15 21  1  6  0  0  0
 17  7  2  0  0  0  0
 18  6  2  0  0  0  0
 18 23  1  0  0  0  0
 19 14  1  0  0  0  0
 19  7  1  0  0  0  0
 20 19  2  0  0  0  0
 22  3  1  0  0  0  0
 22 12  1  0  0  0  0
 23 22  2  0  0  0  0
 24 27  1  6  0  0  0
 24 28  1  0  0  0  0
 25 28  1  0  0  0  0
 26 29  2  0  0  0  0
 29 31  1  0  0  0  0
 29 30  1  0  0  0  0
 30  5  1  1  0  0  0
 30 25  1  0  0  0  0
 31 24  1  0  0  0  0
M  END
>  <MODEL>
3

>  <REMARK>
 VINA RESULT:      -8.6      2.955      5.026
  Name = 
  1 active torsions:
  status: ('A' for Active; 'I' for Inactive)
    1  A    between atoms: C_5  and  C_30
                            x       y       z     vdW  Elec       q    Type
                         _______ _______ _______ _____ _____    ______ ____

>  <TORSDO>
F 1

$$$$
=
 OpenBabel11112416543D

 31 35  0  0  1  0  0  0  0  0999 V2000
  191.2450  171.3640  142.9050 C   0  0  0  0  0  0  0  0  0  0  0  0
  190.6130  173.8070  145.7560 C   0  0  2  0  0  3  0  0  0  0  0  0
  191.8780  174.6330  145.9420 C   0  0  0  0  0  0  0  0  0  0  0  0
  187.7540  177.1520  142.7300 O   0  0  0  0  0  0  0  0  0  0  0  0
  187.5430  177.4140  143.9440 C   0  0  0  0  0  0  0  0  0  0  0  0
  194.3010  174.8060  145.7770 C   0  0  0  0  0  0  0  0  0  0  0  0
  190.5560  173.1360  144.4080 C   0  0  0  0  0  0  0  0  0  0  0  0
  190.5540  171.9810  141.8580 C   0  0  0  0  0  3  0  0  0  0  0  0
  193.1170  174.1010  145.5510 C   0  0  0  0  0  3  0  0  0  0  0  0
  188.8580  175.3920  144.7970 C   0  0  0  0  0  0  0  0  0  0  0  0
  191.9330  170.1800  142.6790 O   0  0  0  0  0  1  0  0  0  0  0  0
  190.5710  176.5090  147.0710 C   0  0  0  0  0  2  0  0  0  0  0  0
  195.5160  174.2710  145.3690 O   0  0  0  0  0  1  0  0  0  0  0  0
  189.0890  174.9360  143.6000 N   0  0  0  0  0  0  0  0  0  0  0  0
  189.3160  174.6090  146.0150 C   0  0  2  0  0  3  0  0  0  0  0  0
  188.0610  176.5700  144.9820 N   0  0  0  0  0  2  0  0  0  0  0  0
  191.2500  171.9420  144.1780 C   0  0  0  0  0  3  0  0  0  0  0  0
  194.2640  176.0440  146.4170 C   0  0  0  0  0  3  0  0  0  0  0  0
  189.8470  173.7460  143.3580 C   0  0  0  0  0  0  0  0  0  0  0  0
  189.8540  173.1700  142.0850 C   0  0  0  0  0  3  0  0  0  0  0  0
  189.4640  175.4800  147.2630 C   0  0  0  0  0  2  0  0  0  0  0  0
  191.8550  175.8730  146.6270 C   0  0  0  0  0  0  0  0  0  0  0  0
  193.0450  176.5750  146.8390 C   0  0  0  0  0  3  0  0  0  0  0  0
  184.4850  178.3780  146.2160 C   0  0  1  0  0  3  0  0  0  0  0  0
  186.8690  178.9380  145.7990 C   0  0  0  0  0  2  0  0  0  0  0  0
  185.0630  178.6310  142.6180 O   0  0  0  0  0  0  0  0  0  0  0  0
  183.6160  177.5410  146.8880 F   0  0  0  0  0  0  0  0  0  0  0  0
  185.9210  178.0590  146.6110 C   0  0  0  0  0  2  0  0  0  0  0  0
  185.3360  178.5300  143.8410 C   0  0  0  0  0  0  0  0  0  0  0  0
  186.7660  178.6420  144.2990 C   0  0  2  0  0  3  0  0  0  0  0  0
  184.2950  178.2330  144.7770 N   0  0  0  0  0  2  0  0  0  0  0  0
  1 17  1  0  0  0  0
  2  7  1  6  0  0  0
  2  3  1  0  0  0  0
  2 15  1  0  0  0  0
  3 22  1  0  0  0  0
  4  5  2  0  0  0  0
  5 16  1  0  0  0  0
  6 18  2  0  0  0  0
  8 20  1  0  0  0  0
  8  1  2  0  0  0  0
  9  6  1  0  0  0  0
  9  3  2  0  0  0  0
 10 16  1  0  0  0  0
 10 15  1  0  0  0  0
 11  1  1  0  0  0  0
 12 21  1  0  0  0  0
 13  6  1  0  0  0  0
 14 10  2  0  0  0  0
 15 21  1  1  0  0  0
 17  7  2  0  0  0  0
 18 23  1  0  0  0  0
 19 14  1  0  0  0  0
 19  7  1  0  0  0  0
 20 19  2  0  0  0  0
 22 23  2  0  0  0  0
 22 12  1  0  0  0  0
 24 28  1  0  0  0  0
 24 27  1  1  0  0  0
 25 28  1  0  0  0  0
 26 29  2  0  0  0  0
 29 30  1  0  0  0  0
 29 31  1  0  0  0  0
 30  5  1  1  0  0  0
 30 25  1  0  0  0  0
 31 24  1  0  0  0  0
M  END
>  <MODEL>
4

>  <REMARK>
 VINA RESULT:      -8.5      2.470      4.649
  Name = 
  1 active torsions:
  status: ('A' for Active; 'I' for Inactive)
    1  A    between atoms: C_5  and  C_30
                            x       y       z     vdW  Elec       q    Type
                         _______ _______ _______ _____ _____    ______ ____

>  <TORSDO>
F 1

$$$$
=
 OpenBabel11112416543D

 31 35  0  0  1  0  0  0  0  0999 V2000
  190.6190  171.2120  142.3650 C   0  0  0  0  0  0  0  0  0  0  0  0
  190.0720  174.2820  144.5500 C   0  0  2  0  0  3  0  0  0  0  0  0
  191.3310  175.1340  144.4700 C   0  0  0  0  0  0  0  0  0  0  0  0
  187.0390  176.7640  140.9230 O   0  0  0  0  0  0  0  0  0  0  0  0
  186.8760  177.3170  142.0420 C   0  0  0  0  0  0  0  0  0  0  0  0
  193.7430  175.2690  144.1600 C   0  0  0  0  0  0  0  0  0  0  0  0
  189.9680  173.2990  143.4130 C   0  0  0  0  0  0  0  0  0  0  0  0
  189.8750  171.5490  141.2300 C   0  0  0  0  0  3  0  0  0  0  0  0
  192.5600  174.5260  144.1670 C   0  0  0  0  0  3  0  0  0  0  0  0
  188.2560  175.5740  143.3090 C   0  0  0  0  0  0  0  0  0  0  0  0
  191.3140  170.0120  142.4080 O   0  0  0  0  0  1  0  0  0  0  0  0
  190.0470  177.2250  145.1580 C   0  0  0  0  0  2  0  0  0  0  0  0
  194.9470  174.6540  143.8430 O   0  0  0  0  0  1  0  0  0  0  0  0
  188.4420  174.8380  142.2520 N   0  0  0  0  0  0  0  0  0  0  0  0
  188.7760  175.1180  144.6600 C   0  0  2  0  0  3  0  0  0  0  0  0
  187.4490  176.7590  143.2330 N   0  0  0  0  0  2  0  0  0  0  0  0
  190.6690  172.0880  143.4540 C   0  0  0  0  0  3  0  0  0  0  0  0
  193.7150  176.6270  144.4750 C   0  0  0  0  0  3  0  0  0  0  0  0
  189.2070  173.6270  142.2780 C   0  0  0  0  0  0  0  0  0  0  0  0
  189.1690  172.7540  141.1870 C   0  0  0  0  0  3  0  0  0  0  0  0
  188.9630  176.2710  145.6470 C   0  0  0  0  0  2  0  0  0  0  0  0
  191.3190  176.5040  144.8280 C   0  0  0  0  0  0  0  0  0  0  0  0
  192.5060  177.2410  144.8070 C   0  0  0  0  0  3  0  0  0  0  0  0
  184.3280  179.0410  144.4880 C   0  0  1  0  0  3  0  0  0  0  0  0
  186.5040  179.4090  143.3480 C   0  0  0  0  0  2  0  0  0  0  0  0
  184.0700  177.9790  141.0010 O   0  0  0  0  0  0  0  0  0  0  0  0
  183.7020  178.5040  145.5960 F   0  0  0  0  0  0  0  0  0  0  0  0
  185.8370  178.8840  144.6160 C   0  0  0  0  0  2  0  0  0  0  0  0
  184.6150  178.3260  142.0810 C   0  0  0  0  0  0  0  0  0  0  0  0
  186.0960  178.5930  142.1170 C   0  0  2  0  0  3  0  0  0  0  0  0
  183.8360  178.3870  143.2800 N   0  0  0  0  0  2  0  0  0  0  0  0
  1 11  1  0  0  0  0
  1 17  1  0  0  0  0
  2  7  1  6  0  0  0
  2 15  1  0  0  0  0
  3  2  1  0  0  0  0
  3 22  1  0  0  0  0
  4  5  2  0  0  0  0
  5 16  1  0  0  0  0
  6  9  1  0  0  0  0
  6 18  2  0  0  0  0
  7 17  2  0  0  0  0
  8  1  2  0  0  0  0
  9  3  2  0  0  0  0
 10 15  1  0  0  0  0
 12 21  1  0  0  0  0
 13  6  1  0  0  0  0
 14 19  1  0  0  0  0
 14 10  2  0  0  0  0
 15 21  1  1  0  0  0
 16 10  1  0  0  0  0
 18 23  1  0  0  0  0
 19  7  1  0  0  0  0
 20  8  1  0  0  0  0
 20 19  2  0  0  0  0
 22 12  1  0  0  0  0
 23 22  2  0  0  0  0
 24 28  1  0  0  0  0
 24 27  1  1  0  0  0
 25 28  1  0  0  0  0
 26 29  2  0  0  0  0
 29 30  1  0  0  0  0
 29 31  1  0  0  0  0
 30  5  1  1  0  0  0
 30 25  1  0  0  0  0
 31 24  1  0  0  0  0
M  END
>  <MODEL>
5

>  <REMARK>
 VINA RESULT:      -8.4      2.732      4.740
  Name = 
  1 active torsions:
  status: ('A' for Active; 'I' for Inactive)
    1  A    between atoms: C_5  and  C_30
                            x       y       z     vdW  Elec       q    Type
                         _______ _______ _______ _____ _____    ______ ____

>  <TORSDO>
F 1

$$$$
=
 OpenBabel11112416543D

 31 35  0  0  1  0  0  0  0  0999 V2000
  186.6470  177.6100  140.8500 C   0  0  0  0  0  0  0  0  0  0  0  0
  188.6370  177.8740  144.0850 C   0  0  2  0  0  3  0  0  0  0  0  0
  187.6890  177.5630  145.2350 C   0  0  0  0  0  0  0  0  0  0  0  0
  190.9530  173.1020  143.4680 O   0  0  0  0  0  0  0  0  0  0  0  0
  191.5940  173.7620  144.3290 C   0  0  0  0  0  0  0  0  0  0  0  0
  185.4270  177.5750  146.1370 C   0  0  0  0  0  0  0  0  0  0  0  0
  188.1200  177.3760  142.7610 C   0  0  0  0  0  0  0  0  0  0  0  0
  187.0660  176.3650  140.3720 C   0  0  0  0  0  3  0  0  0  0  0  0
  186.3120  177.7820  145.0760 C   0  0  0  0  0  3  0  0  0  0  0  0
  190.2590  175.9100  143.9430 C   0  0  0  0  0  0  0  0  0  0  0  0
  185.7050  178.3440  140.1420 O   0  0  0  0  0  1  0  0  0  0  0  0
  189.6320  176.9270  146.7580 C   0  0  0  0  0  2  0  0  0  0  0  0
  184.0660  177.7810  145.9570 O   0  0  0  0  0  1  0  0  0  0  0  0
  189.5670  175.3990  142.9660 N   0  0  0  0  0  0  0  0  0  0  0  0
  190.0780  177.3680  144.3270 C   0  0  2  0  0  3  0  0  0  0  0  0
  191.2880  175.1400  144.5820 N   0  0  0  0  0  2  0  0  0  0  0  0
  187.1700  178.1140  142.0450 C   0  0  0  0  0  3  0  0  0  0  0  0
  185.9120  177.1660  147.3790 C   0  0  0  0  0  3  0  0  0  0  0  0
  188.5540  176.1330  142.2690 C   0  0  0  0  0  0  0  0  0  0  0  0
  188.0200  175.6280  141.0800 C   0  0  0  0  0  3  0  0  0  0  0  0
  190.5180  177.6650  145.7610 C   0  0  0  0  0  2  0  0  0  0  0  0
  188.1760  177.1860  146.5100 C   0  0  0  0  0  0  0  0  0  0  0  0
  187.2820  176.9700  147.5630 C   0  0  0  0  0  3  0  0  0  0  0  0
  195.4610  173.1230  144.0430 C   0  0  1  0  0  3  0  0  0  0  0  0
  193.7410  174.0820  145.5560 C   0  0  0  0  0  2  0  0  0  0  0  0
  192.5920  170.8660  144.2090 O   0  0  0  0  0  0  0  0  0  0  0  0
  196.2960  173.3700  142.9700 F   0  0  0  0  0  0  0  0  0  0  0  0
  194.7160  174.3950  144.4240 C   0  0  0  0  0  2  0  0  0  0  0  0
  193.2550  171.9260  144.3460 C   0  0  0  0  0  0  0  0  0  0  0  0
  192.6690  173.0800  145.1160 C   0  0  2  0  0  3  0  0  0  0  0  0
  194.5280  172.0530  143.7040 N   0  0  0  0  0  2  0  0  0  0  0  0
  1 17  1  0  0  0  0
  2  7  1  6  0  0  0
  2 15  1  0  0  0  0
  2  3  1  0  0  0  0
  3 22  1  0  0  0  0
  4  5  2  0  0  0  0
  5 16  1  0  0  0  0
  6 18  2  0  0  0  0
  8  1  2  0  0  0  0
  8 20  1  0  0  0  0
  9  3  2  0  0  0  0
  9  6  1  0  0  0  0
 10 15  1  0  0  0  0
 10 16  1  0  0  0  0
 11  1  1  0  0  0  0
 13  6  1  0  0  0  0
 14 10  2  0  0  0  0
 15 21  1  1  0  0  0
 17  7  2  0  0  0  0
 18 23  1  0  0  0  0
 19  7  1  0  0  0  0
 19 14  1  0  0  0  0
 20 19  2  0  0  0  0
 21 12  1  0  0  0  0
 22 12  1  0  0  0  0
 22 23  2  0  0  0  0
 24 27  1  6  0  0  0
 24 28  1  0  0  0  0
 26 29  2  0  0  0  0
 28 25  1  0  0  0  0
 29 30  1  0  0  0  0
 30  5  1  6  0  0  0
 30 25  1  0  0  0  0
 31 24  1  0  0  0  0
 31 29  1  0  0  0  0
M  END
>  <MODEL>
6

>  <REMARK>
 VINA RESULT:      -8.2      3.657      7.900
  Name = 
  1 active torsions:
  status: ('A' for Active; 'I' for Inactive)
    1  A    between atoms: C_5  and  C_30
                            x       y       z     vdW  Elec       q    Type
                         _______ _______ _______ _____ _____    ______ ____

>  <TORSDO>
F 1

$$$$
=
 OpenBabel11112416543D

 31 35  0  0  1  0  0  0  0  0999 V2000
  193.2200  170.0990  144.0480 C   0  0  0  0  0  0  0  0  0  0  0  0
  193.5380  173.5770  145.5650 C   0  0  2  0  0  3  0  0  0  0  0  0
  194.6630  174.2970  144.8330 C   0  0  0  0  0  0  0  0  0  0  0  0
  189.3200  175.5060  142.9200 O   0  0  0  0  0  0  0  0  0  0  0  0
  189.5990  176.2830  143.8710 C   0  0  0  0  0  0  0  0  0  0  0  0
  196.7650  174.1830  143.6100 C   0  0  0  0  0  0  0  0  0  0  0  0
  193.0110  172.3970  144.7920 C   0  0  0  0  0  0  0  0  0  0  0  0
  192.0930  170.2570  143.2360 C   0  0  0  0  0  3  0  0  0  0  0  0
  195.6830  173.5490  144.2250 C   0  0  0  0  0  3  0  0  0  0  0  0
  191.3740  174.7290  144.8610 C   0  0  0  0  0  0  0  0  0  0  0  0
  193.8870  168.8820  144.0800 O   0  0  0  0  0  1  0  0  0  0  0  0
  193.7290  176.5750  145.4930 C   0  0  0  0  0  2  0  0  0  0  0  0
  197.7570  173.4280  142.9990 O   0  0  0  0  0  1  0  0  0  0  0  0
  191.1430  173.7830  143.9960 N   0  0  0  0  0  0  0  0  0  0  0  0
  192.3800  174.5140  145.9780 C   0  0  2  0  0  3  0  0  0  0  0  0
  190.5920  175.9320  144.8450 N   0  0  0  0  0  2  0  0  0  0  0  0
  193.6810  171.1690  144.8220 C   0  0  0  0  0  3  0  0  0  0  0  0
  196.8520  175.5750  143.6140 C   0  0  0  0  0  3  0  0  0  0  0  0
  191.8670  172.5480  143.9890 C   0  0  0  0  0  0  0  0  0  0  0  0
  191.4160  171.4800  143.2080 C   0  0  0  0  0  3  0  0  0  0  0  0
  192.9260  175.8240  146.5480 C   0  0  0  0  0  2  0  0  0  0  0  0
  194.7800  175.7080  144.8670 C   0  0  0  0  0  0  0  0  0  0  0  0
  195.8610  176.3340  144.2390 C   0  0  0  0  0  3  0  0  0  0  0  0
  185.9500  177.6870  143.4670 C   0  0  1  0  0  3  0  0  0  0  0  0
  187.8440  177.5850  145.0720 C   0  0  0  0  0  2  0  0  0  0  0  0
  189.0750  178.3910  141.7080 O   0  0  0  0  0  0  0  0  0  0  0  0
  184.8270  177.0370  142.9920 F   0  0  0  0  0  0  0  0  0  0  0  0
  186.5610  176.8950  144.6160 C   0  0  0  0  0  2  0  0  0  0  0  0
  188.3150  177.9990  142.6320 C   0  0  0  0  0  0  0  0  0  0  0  0
  188.8990  177.6030  143.9620 C   0  0  2  0  0  3  0  0  0  0  0  0
  186.9120  177.8610  142.3840 N   0  0  0  0  0  2  0  0  0  0  0  0
  1 11  1  0  0  0  0
  1 17  1  0  0  0  0
  2  7  1  6  0  0  0
  2 15  1  0  0  0  0
  3 22  1  0  0  0  0
  3  2  1  0  0  0  0
  4  5  2  0  0  0  0
  5 16  1  0  0  0  0
  6 18  2  0  0  0  0
  6  9  1  0  0  0  0
  7 17  2  0  0  0  0
  8  1  2  0  0  0  0
  9  3  2  0  0  0  0
 10 15  1  0  0  0  0
 12 21  1  0  0  0  0
 13  6  1  0  0  0  0
 14 10  2  0  0  0  0
 15 21  1  6  0  0  0
 16 10  1  0  0  0  0
 18 23  1  0  0  0  0
 19 14  1  0  0  0  0
 19  7  1  0  0  0  0
 20  8  1  0  0  0  0
 20 19  2  0  0  0  0
 22 12  1  0  0  0  0
 23 22  2  0  0  0  0
 24 27  1  6  0  0  0
 24 28  1  0  0  0  0
 26 29  2  0  0  0  0
 28 25  1  0  0  0  0
 29 30  1  0  0  0  0
 30  5  1  6  0  0  0
 30 25  1  0  0  0  0
 31 29  1  0  0  0  0
 31 24  1  0  0  0  0
M  END
>  <MODEL>
7

>  <REMARK>
 VINA RESULT:      -8.1      3.012      5.135
  Name = 
  1 active torsions:
  status: ('A' for Active; 'I' for Inactive)
    1  A    between atoms: C_5  and  C_30
                            x       y       z     vdW  Elec       q    Type
                         _______ _______ _______ _____ _____    ______ ____

>  <TORSDO>
F 1

$$$$
=
 OpenBabel11112416543D

 31 35  0  0  1  0  0  0  0  0999 V2000
  191.6130  170.3950  141.1470 C   0  0  0  0  0  0  0  0  0  0  0  0
  190.9600  172.4280  144.2990 C   0  0  2  0  0  3  0  0  0  0  0  0
  192.2520  173.1480  144.6580 C   0  0  0  0  0  0  0  0  0  0  0  0
  188.4140  176.3280  141.6860 O   0  0  0  0  0  0  0  0  0  0  0  0
  188.1580  176.4210  142.9160 C   0  0  0  0  0  0  0  0  0  0  0  0
  194.6860  173.2110  144.6200 C   0  0  0  0  0  0  0  0  0  0  0  0
  190.9370  171.9650  142.8660 C   0  0  0  0  0  0  0  0  0  0  0  0
  191.0040  171.1950  140.1750 C   0  0  0  0  0  3  0  0  0  0  0  0
  193.4820  172.6120  144.2430 C   0  0  0  0  0  3  0  0  0  0  0  0
  189.3320  174.2280  143.5140 C   0  0  0  0  0  0  0  0  0  0  0  0
  192.2550  169.2210  140.7770 O   0  0  0  0  0  1  0  0  0  0  0  0
  190.9830  174.9070  145.9970 C   0  0  0  0  0  2  0  0  0  0  0  0
  195.8920  172.6760  144.1870 O   0  0  0  0  0  1  0  0  0  0  0  0
  189.5990  173.9400  142.2730 N   0  0  0  0  0  0  0  0  0  0  0  0
  189.6920  173.2520  144.6200 C   0  0  2  0  0  3  0  0  0  0  0  0
  188.5830  175.4090  143.8380 N   0  0  0  0  0  2  0  0  0  0  0  0
  191.5830  170.7810  142.4900 C   0  0  0  0  0  3  0  0  0  0  0  0
  194.6780  174.3430  145.4340 C   0  0  0  0  0  3  0  0  0  0  0  0
  190.3100  172.7580  141.8890 C   0  0  0  0  0  0  0  0  0  0  0  0
  190.3520  172.3740  140.5460 C   0  0  0  0  0  3  0  0  0  0  0  0
  189.8200  173.9230  145.9890 C   0  0  0  0  0  2  0  0  0  0  0  0
  192.2550  174.2740  145.5170 C   0  0  0  0  0  0  0  0  0  0  0  0
  193.4650  174.8730  145.8790 C   0  0  0  0  0  3  0  0  0  0  0  0
  185.5280  177.2860  145.7060 C   0  0  1  0  0  3  0  0  0  0  0  0
  187.7840  177.9160  144.8770 C   0  0  0  0  0  2  0  0  0  0  0  0
  185.4490  177.5750  142.0650 O   0  0  0  0  0  0  0  0  0  0  0  0
  184.8150  176.4210  146.5130 F   0  0  0  0  0  0  0  0  0  0  0  0
  187.0200  177.0060  145.8350 C   0  0  0  0  0  2  0  0  0  0  0  0
  185.9380  177.4750  143.2190 C   0  0  0  0  0  0  0  0  0  0  0  0
  187.4230  177.6250  143.4160 C   0  0  2  0  0  3  0  0  0  0  0  0
  185.0880  177.1430  144.3220 N   0  0  0  0  0  2  0  0  0  0  0  0
  1 17  1  0  0  0  0
  2  7  1  6  0  0  0
  2 15  1  0  0  0  0
  2  3  1  0  0  0  0
  3 22  1  0  0  0  0
  4  5  2  0  0  0  0
  5 16  1  0  0  0  0
  6 18  2  0  0  0  0
  8 20  1  0  0  0  0
  8  1  2  0  0  0  0
  9  6  1  0  0  0  0
  9  3  2  0  0  0  0
 10 16  1  0  0  0  0
 10 15  1  0  0  0  0
 11  1  1  0  0  0  0
 13  6  1  0  0  0  0
 14 10  2  0  0  0  0
 15 21  1  1  0  0  0
 17  7  2  0  0  0  0
 18 23  1  0  0  0  0
 19 14  1  0  0  0  0
 19  7  1  0  0  0  0
 20 19  2  0  0  0  0
 21 12  1  0  0  0  0
 22 23  2  0  0  0  0
 22 12  1  0  0  0  0
 24 28  1  0  0  0  0
 24 27  1  1  0  0  0
 25 28  1  0  0  0  0
 26 29  2  0  0  0  0
 29 30  1  0  0  0  0
 29 31  1  0  0  0  0
 30  5  1  1  0  0  0
 30 25  1  0  0  0  0
 31 24  1  0  0  0  0
M  END
>  <MODEL>
8

>  <REMARK>
 VINA RESULT:      -7.8      2.931      5.120
  Name = 
  1 active torsions:
  status: ('A' for Active; 'I' for Inactive)
    1  A    between atoms: C_5  and  C_30
                            x       y       z     vdW  Elec       q    Type
                         _______ _______ _______ _____ _____    ______ ____

>  <TORSDO>
F 1

$$$$
=
 OpenBabel11112416543D

 31 35  0  0  1  0  0  0  0  0999 V2000
  187.1070  177.8420  147.4360 C   0  0  0  0  0  0  0  0  0  0  0  0
  188.0860  175.4630  144.6290 C   0  0  2  0  0  3  0  0  0  0  0  0
  187.7390  176.1410  143.3100 C   0  0  0  0  0  0  0  0  0  0  0  0
  193.2810  176.6530  144.9500 O   0  0  0  0  0  0  0  0  0  0  0  0
  193.1440  175.5820  144.3020 C   0  0  0  0  0  0  0  0  0  0  0  0
  186.3340  177.6940  142.0680 C   0  0  0  0  0  0  0  0  0  0  0  0
  188.1750  176.4400  145.7720 C   0  0  0  0  0  0  0  0  0  0  0  0
  188.3520  178.3620  147.8000 C   0  0  0  0  0  3  0  0  0  0  0  0
  186.7230  177.1090  143.2750 C   0  0  0  0  0  3  0  0  0  0  0  0
  190.6330  175.4130  144.7590 C   0  0  0  0  0  0  0  0  0  0  0  0
  185.9570  178.2810  148.0770 O   0  0  0  0  0  1  0  0  0  0  0  0
  189.4170  174.6970  142.0460 C   0  0  0  0  0  2  0  0  0  0  0  0
  185.3390  178.6610  142.0540 O   0  0  0  0  0  1  0  0  0  0  0  0
  190.6220  176.4590  145.5330 N   0  0  0  0  0  0  0  0  0  0  0  0
  189.3660  174.6010  144.5540 C   0  0  2  0  0  3  0  0  0  0  0  0
  191.8650  174.9420  144.1940 N   0  0  0  0  0  2  0  0  0  0  0  0
  187.0170  176.8850  146.4200 C   0  0  0  0  0  3  0  0  0  0  0  0
  186.9420  177.3020  140.8760 C   0  0  0  0  0  3  0  0  0  0  0  0
  189.4290  176.9510  146.1520 C   0  0  0  0  0  0  0  0  0  0  0  0
  189.5120  177.9160  147.1600 C   0  0  0  0  0  3  0  0  0  0  0  0
  189.3870  173.7810  143.2630 C   0  0  0  0  0  2  0  0  0  0  0  0
  188.3230  175.7210  142.0900 C   0  0  0  0  0  0  0  0  0  0  0  0
  187.9340  176.3200  140.8880 C   0  0  0  0  0  3  0  0  0  0  0  0
  196.3290  173.4860  145.2550 C   0  0  1  0  0  3  0  0  0  0  0  0
  194.3480  173.4670  143.7570 C   0  0  0  0  0  2  0  0  0  0  0  0
  195.9080  176.7900  143.7540 O   0  0  0  0  0  0  0  0  0  0  0  0
  196.8060  173.1710  146.5130 F   0  0  0  0  0  0  0  0  0  0  0  0
  194.8800  173.0380  145.1220 C   0  0  0  0  0  2  0  0  0  0  0  0
  195.6120  175.6190  144.1030 C   0  0  0  0  0  0  0  0  0  0  0  0
  194.3340  174.9920  143.6120 C   0  0  2  0  0  3  0  0  0  0  0  0
  196.4550  174.9220  145.0270 N   0  0  0  0  0  2  0  0  0  0  0  0
  1  8  1  0  0  0  0
  1 11  1  0  0  0  0
  2  3  1  6  0  0  0
  2  7  1  0  0  0  0
  5  4  2  0  0  0  0
  6  9  2  0  0  0  0
  7 19  2  0  0  0  0
  7 17  1  0  0  0  0
  9  3  1  0  0  0  0
 10 14  2  0  0  0  0
 12 22  1  0  0  0  0
 12 21  1  0  0  0  0
 13  6  1  0  0  0  0
 14 19  1  0  0  0  0
 15 21  1  6  0  0  0
 15  2  1  0  0  0  0
 15 10  1  0  0  0  0
 16  5  1  0  0  0  0
 16 10  1  0  0  0  0
 17  1  2  0  0  0  0
 18 23  2  0  0  0  0
 18  6  1  0  0  0  0
 19 20  1  0  0  0  0
 20  8  2  0  0  0  0
 22  3  2  0  0  0  0
 23 22  1  0  0  0  0
 24 27  1  1  0  0  0
 25 28  1  0  0  0  0
 26 29  2  0  0  0  0
 28 24  1  0  0  0  0
 29 31  1  0  0  0  0
 30 25  1  0  0  0  0
 30 29  1  0  0  0  0
 30  5  1  1  0  0  0
 31 24  1  0  0  0  0
M  END
>  <MODEL>
9

>  <REMARK>
 VINA RESULT:      -7.8      3.490      7.377
  Name = 
  1 active torsions:
  status: ('A' for Active; 'I' for Inactive)
    1  A    between atoms: C_5  and  C_30
                            x       y       z     vdW  Elec       q    Type
                         _______ _______ _______ _____ _____    ______ ____

>  <TORSDO>
F 1

$$$$
