=
 OpenBabel11112416163D

 30 35  0  0  1  0  0  0  0  0999 V2000
  189.6720  176.0870  144.0760 C   0  0  1  0  0  3  0  0  0  0  0  0
  191.9210  175.5250  145.1150 C   0  0  2  0  0  3  0  0  0  0  0  0
  188.6820  177.6640  147.2940 N   0  0  0  0  0  2  0  0  0  0  0  0
  188.3480  176.8750  144.1950 C   0  0  1  0  0  3  0  0  0  0  0  0
  190.3570  176.4430  142.8980 O   0  0  0  0  0  0  0  0  0  0  0  0
  187.5710  175.8390  140.6330 O   0  0  0  0  0  1  0  0  0  0  0  0
  185.3490  177.6070  143.8740 C   0  0  1  0  0  3  0  0  0  0  0  0
  188.2950  176.4890  141.6370 C   0  0  2  0  0  3  0  0  0  0  0  0
  185.9420  178.4380  144.9840 C   0  0  1  0  0  3  0  0  0  0  0  0
  187.4730  178.4090  146.9700 C   0  0  2  0  0  3  0  0  0  0  0  0
  189.6790  175.8610  141.8070 C   0  0  2  0  0  3  0  0  0  0  0  0
  187.4800  176.5530  142.9420 C   0  0  2  0  0  3  0  0  0  0  0  0
  192.7180  175.4720  146.4160 C   0  0  0  0  0  2  0  0  0  0  0  0
  184.7500  179.1320  145.5740 C   0  0  0  0  0  2  0  0  0  0  0  0
  184.1510  178.2110  143.4710 O   0  0  0  0  0  0  0  0  0  0  0  0
  192.6900  176.1930  144.1610 O   0  0  0  0  0  1  0  0  0  0  0  0
  188.4830  176.3360  146.7250 C   0  0  1  0  0  3  0  0  0  0  0  0
  191.9170  174.7710  147.5010 C   0  0  0  0  0  2  0  0  0  0  0  0
  190.5660  176.2400  145.3100 C   0  0  2  0  0  3  0  0  0  0  0  0
  187.5830  176.4820  145.5000 C   0  0  1  0  0  3  0  0  0  0  0  0
  186.7500  178.6600  148.1360 O   0  0  0  0  0  1  0  0  0  0  0  0
  186.6380  177.5650  146.0200 C   0  0  2  0  0  3  0  0  0  0  0  0
  183.6150  178.7760  144.6380 C   0  0  0  0  0  2  0  0  0  0  0  0
  186.7920  178.8060  142.3550 O   0  0  0  0  0  1  0  0  0  0  0  0
  190.6320  175.5410  147.7540 C   0  0  0  0  0  2  0  0  0  0  0  0
  189.7990  175.6060  146.4730 C   0  0  1  0  0  3  0  0  0  0  0  0
  186.3220  177.5340  142.7070 C   0  0  2  0  0  3  0  0  0  0  0  0
  189.6630  174.3270  141.8480 C   0  0  0  0  0  2  0  0  0  0  0  0
  191.9180  173.7480  142.2760 F   0  0  0  0  0  0  0  0  0  0  0  0
  190.9580  173.7750  141.2830 C   0  0  0  0  0  2  0  0  0  0  0  0
  1  5  1  6  0  0  0
  1  4  1  0  0  0  0
  1 19  1  0  0  0  0
  2 16  1  6  0  0  0
  2 19  1  0  0  0  0
  2 13  1  0  0  0  0
  4 20  1  0  0  0  0
  6  8  1  0  0  0  0
  7  9  1  0  0  0  0
  8 11  1  0  0  0  0
  8 12  1  0  0  0  0
  9 14  1  0  0  0  0
  9 22  1  0  0  0  0
 10  3  1  0  0  0  0
 10 21  1  0  0  0  0
 11 28  1  0  0  0  0
 11  5  1  0  0  0  0
 12  4  1  0  0  0  0
 13 18  1  0  0  0  0
 15  7  1  0  0  0  0
 15 23  1  0  0  0  0
 17  3  1  0  0  0  0
 18 25  1  0  0  0  0
 19 26  1  0  0  0  0
 20 22  1  0  0  0  0
 20 17  1  0  0  0  0
 22 10  1  0  0  0  0
 23 14  1  0  0  0  0
 24 27  1  0  0  0  0
 26 17  1  0  0  0  0
 26 25  1  0  0  0  0
 27 12  1  0  0  0  0
 27  7  1  0  0  0  0
 30 28  1  0  0  0  0
 30 29  1  0  0  0  0
M  END
>  <MODEL>
1

>  <REMARK>
 VINA RESULT:      -7.8      0.000      0.000
  Name = 
  2 active torsions:
  status: ('A' for Active; 'I' for Inactive)
    1  A    between atoms: C_11  and  C_28
    2  A    between atoms: C_28  and  C_30
                            x       y       z     vdW  Elec       q    Type
                         _______ _______ _______ _____ _____    ______ ____

>  <TORSDO>
F 2

$$$$
=
 OpenBabel11112416163D

 30 35  0  0  1  0  0  0  0  0999 V2000
  187.3900  176.8970  144.5300 C   0  0  1  0  0  3  0  0  0  0  0  0
  185.8950  177.7880  146.3810 C   0  0  2  0  0  3  0  0  0  0  0  0
  189.8850  175.9590  147.1220 N   0  0  0  0  0  2  0  0  0  0  0  0
  188.6450  176.0760  144.1580 C   0  0  1  0  0  3  0  0  0  0  0  0
  186.2410  176.3480  143.9300 O   0  0  0  0  0  0  0  0  0  0  0  0
  187.5570  176.3150  140.5350 O   0  0  0  0  0  1  0  0  0  0  0  0
  191.1510  175.1250  142.5930 C   0  0  1  0  0  3  0  0  0  0  0  0
  187.4400  175.9270  141.8730 C   0  0  2  0  0  3  0  0  0  0  0  0
  191.2080  174.5740  143.9950 C   0  0  1  0  0  3  0  0  0  0  0  0
  190.8240  175.0950  146.4180 C   0  0  2  0  0  3  0  0  0  0  0  0
  186.2800  176.6540  142.5540 C   0  0  2  0  0  3  0  0  0  0  0  0
  188.7850  176.0860  142.6060 C   0  0  2  0  0  3  0  0  0  0  0  0
  185.8220  178.1510  147.8620 C   0  0  0  0  0  2  0  0  0  0  0  0
  192.5700  173.9480  144.0680 C   0  0  0  0  0  2  0  0  0  0  0  0
  192.0350  174.3830  141.7980 O   0  0  0  0  0  0  0  0  0  0  0  0
  184.7960  176.9830  146.0770 O   0  0  0  0  0  1  0  0  0  0  0  0
  189.7190  177.1290  146.2670 C   0  0  1  0  0  3  0  0  0  0  0  0
  187.0100  179.0120  148.2570 C   0  0  0  0  0  2  0  0  0  0  0  0
  187.2100  177.0520  146.0430 C   0  0  2  0  0  3  0  0  0  0  0  0
  189.9230  176.6840  144.8210 C   0  0  1  0  0  3  0  0  0  0  0  0
  192.0310  175.0480  147.1160 O   0  0  0  0  0  1  0  0  0  0  0  0
  191.0540  175.6780  145.0320 C   0  0  2  0  0  3  0  0  0  0  0  0
  193.0940  174.0390  142.6510 C   0  0  0  0  0  2  0  0  0  0  0  0
  189.2170  173.7240  142.2400 O   0  0  0  0  0  1  0  0  0  0  0  0
  188.2950  178.2390  148.0130 C   0  0  0  0  0  2  0  0  0  0  0  0
  188.4100  177.8660  146.5350 C   0  0  1  0  0  3  0  0  0  0  0  0
  189.7330  175.0120  142.0510 C   0  0  2  0  0  3  0  0  0  0  0  0
  186.2360  178.1610  142.2640 C   0  0  0  0  0  2  0  0  0  0  0  0
  185.3620  179.7850  143.7490 F   0  0  0  0  0  0  0  0  0  0  0  0
  184.9940  178.7770  142.8790 C   0  0  0  0  0  2  0  0  0  0  0  0
  1  5  1  1  0  0  0
  1 19  1  0  0  0  0
  2 16  1  1  0  0  0
  2 13  1  0  0  0  0
  4  1  1  0  0  0  0
  4 20  1  0  0  0  0
  6  8  1  0  0  0  0
  7  9  1  0  0  0  0
  8 11  1  0  0  0  0
  8 12  1  0  0  0  0
  9 14  1  0  0  0  0
  9 22  1  0  0  0  0
 10 21  1  0  0  0  0
 10  3  1  0  0  0  0
 11  5  1  0  0  0  0
 12  4  1  0  0  0  0
 13 18  1  0  0  0  0
 15  7  1  0  0  0  0
 15 23  1  0  0  0  0
 17 26  1  0  0  0  0
 17  3  1  0  0  0  0
 19  2  1  0  0  0  0
 19 26  1  0  0  0  0
 20 22  1  0  0  0  0
 20 17  1  0  0  0  0
 22 10  1  0  0  0  0
 23 14  1  0  0  0  0
 25 18  1  0  0  0  0
 26 25  1  0  0  0  0
 27 24  1  0  0  0  0
 27  7  1  0  0  0  0
 27 12  1  0  0  0  0
 28 11  1  0  0  0  0
 28 30  1  0  0  0  0
 30 29  1  0  0  0  0
M  END
>  <MODEL>
2

>  <REMARK>
 VINA RESULT:      -7.8      2.390      5.705
  Name = 
  2 active torsions:
  status: ('A' for Active; 'I' for Inactive)
    1  A    between atoms: C_11  and  C_28
    2  A    between atoms: C_28  and  C_30
                            x       y       z     vdW  Elec       q    Type
                         _______ _______ _______ _____ _____    ______ ____

>  <TORSDO>
F 2

$$$$
=
 OpenBabel11112416163D

 30 35  0  0  1  0  0  0  0  0999 V2000
  188.4050  176.0440  142.7070 C   0  0  1  0  0  3  0  0  0  0  0  0
  188.1400  175.2600  140.3040 C   0  0  2  0  0  3  0  0  0  0  0  0
  185.0320  177.5900  142.4790 N   0  0  0  0  0  2  0  0  0  0  0  0
  187.7280  176.6480  143.9570 C   0  0  1  0  0  3  0  0  0  0  0  0
  188.9680  174.7880  143.0050 O   0  0  0  0  0  0  0  0  0  0  0  0
  190.9140  175.9080  145.8720 O   0  0  0  0  0  1  0  0  0  0  0  0
  187.3640  178.2410  146.5960 C   0  0  1  0  0  3  0  0  0  0  0  0
  189.7650  175.5820  145.1450 C   0  0  2  0  0  3  0  0  0  0  0  0
  186.0090  177.9720  145.9930 C   0  0  1  0  0  3  0  0  0  0  0  0
  184.6920  177.9100  143.8590 C   0  0  2  0  0  3  0  0  0  0  0  0
  190.1280  175.0020  143.7770 C   0  0  2  0  0  3  0  0  0  0  0  0
  188.8080  176.7870  145.0710 C   0  0  2  0  0  3  0  0  0  0  0  0
  187.2980  175.3820  139.0370 C   0  0  0  0  0  2  0  0  0  0  0  0
  185.0780  178.7680  146.8600 C   0  0  0  0  0  2  0  0  0  0  0  0
  187.1810  178.5830  147.9420 O   0  0  0  0  0  0  0  0  0  0  0  0
  188.3230  173.9030  140.5750 O   0  0  0  0  0  1  0  0  0  0  0  0
  186.3850  178.1010  142.2850 C   0  0  1  0  0  3  0  0  0  0  0  0
  187.0480  176.8440  138.7040 C   0  0  0  0  0  2  0  0  0  0  0  0
  187.4630  175.9610  141.5020 C   0  0  2  0  0  3  0  0  0  0  0  0
  187.1040  178.0430  143.6300 C   0  0  1  0  0  3  0  0  0  0  0  0
  183.6960  178.8860  143.8820 O   0  0  0  0  0  1  0  0  0  0  0  0
  185.9440  178.4370  144.5440 C   0  0  2  0  0  3  0  0  0  0  0  0
  185.9600  179.2720  147.9820 C   0  0  0  0  0  2  0  0  0  0  0  0
  187.5610  175.8590  146.9380 O   0  0  0  0  0  1  0  0  0  0  0  0
  186.2930  177.4980  139.8480 C   0  0  0  0  0  2  0  0  0  0  0  0
  187.1110  177.4060  141.1360 C   0  0  1  0  0  3  0  0  0  0  0  0
  188.2360  176.9990  146.4810 C   0  0  2  0  0  3  0  0  0  0  0  0
  191.2150  175.7940  143.0370 C   0  0  0  0  0  2  0  0  0  0  0  0
  192.0650  173.5860  142.9850 F   0  0  0  0  0  0  0  0  0  0  0  0
  192.4080  174.9030  142.7500 C   0  0  0  0  0  2  0  0  0  0  0  0
  1  5  1  1  0  0  0
  1  4  1  0  0  0  0
  2 16  1  1  0  0  0
  2 19  1  0  0  0  0
  3 10  1  0  0  0  0
  4 12  1  0  0  0  0
  5 11  1  0  0  0  0
  7 15  1  0  0  0  0
  8  6  1  0  0  0  0
  9  7  1  0  0  0  0
  9 14  1  0  0  0  0
 10 21  1  0  0  0  0
 10 22  1  0  0  0  0
 11  8  1  0  0  0  0
 12  8  1  0  0  0  0
 12 27  1  0  0  0  0
 13  2  1  0  0  0  0
 14 23  1  0  0  0  0
 15 23  1  0  0  0  0
 17  3  1  0  0  0  0
 17 20  1  0  0  0  0
 18 13  1  0  0  0  0
 18 25  1  0  0  0  0
 19  1  1  0  0  0  0
 20  4  1  0  0  0  0
 20 22  1  0  0  0  0
 22  9  1  0  0  0  0
 25 26  1  0  0  0  0
 26 19  1  0  0  0  0
 26 17  1  0  0  0  0
 27  7  1  0  0  0  0
 27 24  1  0  0  0  0
 28 11  1  0  0  0  0
 30 29  1  0  0  0  0
 30 28  1  0  0  0  0
M  END
>  <MODEL>
3

>  <REMARK>
 VINA RESULT:      -7.4      2.053      4.920
  Name = 
  2 active torsions:
  status: ('A' for Active; 'I' for Inactive)
    1  A    between atoms: C_11  and  C_28
    2  A    between atoms: C_28  and  C_30
                            x       y       z     vdW  Elec       q    Type
                         _______ _______ _______ _____ _____    ______ ____

>  <TORSDO>
F 2

$$$$
=
 OpenBabel11112416163D

 30 35  0  0  1  0  0  0  0  0999 V2000
  188.0320  176.4300  145.1940 C   0  0  1  0  0  3  0  0  0  0  0  0
  187.3390  177.7290  147.2650 C   0  0  2  0  0  3  0  0  0  0  0  0
  185.6670  178.5050  143.2130 N   0  0  0  0  0  2  0  0  0  0  0  0
  187.9920  176.3280  143.6530 C   0  0  1  0  0  3  0  0  0  0  0  0
  189.3620  176.5000  145.6520 O   0  0  0  0  0  0  0  0  0  0  0  0
  190.5280  173.5230  143.9110 O   0  0  0  0  0  1  0  0  0  0  0  0
  187.9710  175.0790  140.8120 C   0  0  1  0  0  3  0  0  0  0  0  0
  190.0700  174.8360  144.0480 C   0  0  2  0  0  3  0  0  0  0  0  0
  187.4700  176.4990  140.7290 C   0  0  1  0  0  3  0  0  0  0  0  0
  186.0230  178.2270  141.8280 C   0  0  2  0  0  3  0  0  0  0  0  0
  189.9360  175.2190  145.5220 C   0  0  2  0  0  3  0  0  0  0  0  0
  188.7800  175.0510  143.2340 C   0  0  2  0  0  3  0  0  0  0  0  0
  186.3340  178.7260  147.8350 C   0  0  0  0  0  2  0  0  0  0  0  0
  187.0020  176.6200  139.3080 C   0  0  0  0  0  2  0  0  0  0  0  0
  188.3380  174.6720  139.5220 O   0  0  0  0  0  0  0  0  0  0  0  0
  188.6220  178.1680  147.5950 O   0  0  0  0  0  1  0  0  0  0  0  0
  185.5610  177.1990  143.8550 C   0  0  1  0  0  3  0  0  0  0  0  0
  184.9150  178.3090  147.4870 C   0  0  0  0  0  2  0  0  0  0  0  0
  187.1940  177.5930  145.7340 C   0  0  2  0  0  3  0  0  0  0  0  0
  186.5180  176.2480  143.1400 C   0  0  1  0  0  3  0  0  0  0  0  0
  184.9540  178.5580  140.9940 O   0  0  0  0  0  1  0  0  0  0  0  0
  186.3280  176.7430  141.7060 C   0  0  2  0  0  3  0  0  0  0  0  0
  187.4420  175.3240  138.6620 C   0  0  0  0  0  2  0  0  0  0  0  0
  190.1170  175.9910  141.4380 O   0  0  0  0  0  1  0  0  0  0  0  0
  184.7570  178.2760  145.9770 C   0  0  0  0  0  2  0  0  0  0  0  0
  185.7410  177.2770  145.3680 C   0  0  1  0  0  3  0  0  0  0  0  0
  189.1680  175.0080  141.7480 C   0  0  2  0  0  3  0  0  0  0  0  0
  189.2420  174.1510  146.3790 C   0  0  0  0  0  2  0  0  0  0  0  0
  190.5790  174.9180  148.1760 F   0  0  0  0  0  0  0  0  0  0  0  0
  189.2920  174.5420  147.8440 C   0  0  0  0  0  2  0  0  0  0  0  0
  1  5  1  6  0  0  0
  1 19  1  0  0  0  0
  2 16  1  6  0  0  0
  2 13  1  0  0  0  0
  3 17  1  0  0  0  0
  4  1  1  0  0  0  0
  6  8  1  0  0  0  0
  7 27  1  0  0  0  0
  8 11  1  0  0  0  0
  9  7  1  0  0  0  0
  9 22  1  0  0  0  0
 10  3  1  0  0  0  0
 11  5  1  0  0  0  0
 11 28  1  0  0  0  0
 12  4  1  0  0  0  0
 12  8  1  0  0  0  0
 14  9  1  0  0  0  0
 15  7  1  0  0  0  0
 17 26  1  0  0  0  0
 18 13  1  0  0  0  0
 19  2  1  0  0  0  0
 20  4  1  0  0  0  0
 20 17  1  0  0  0  0
 21 10  1  0  0  0  0
 22 10  1  0  0  0  0
 22 20  1  0  0  0  0
 23 14  1  0  0  0  0
 23 15  1  0  0  0  0
 24 27  1  0  0  0  0
 25 18  1  0  0  0  0
 26 19  1  0  0  0  0
 26 25  1  0  0  0  0
 27 12  1  0  0  0  0
 28 30  1  0  0  0  0
 30 29  1  0  0  0  0
M  END
>  <MODEL>
4

>  <REMARK>
 VINA RESULT:      -7.2      2.207      5.239
  Name = 
  2 active torsions:
  status: ('A' for Active; 'I' for Inactive)
    1  A    between atoms: C_11  and  C_28
    2  A    between atoms: C_28  and  C_30
                            x       y       z     vdW  Elec       q    Type
                         _______ _______ _______ _____ _____    ______ ____

>  <TORSDO>
F 2

$$$$
=
 OpenBabel11112416163D

 30 35  0  0  1  0  0  0  0  0999 V2000
  191.7910  175.1090  144.8230 C   0  0  1  0  0  3  0  0  0  0  0  0
  193.4640  173.6490  143.5870 C   0  0  2  0  0  3  0  0  0  0  0  0
  189.4280  174.6370  141.9920 N   0  0  0  0  0  2  0  0  0  0  0  0
  190.3380  175.6250  144.9130 C   0  0  1  0  0  3  0  0  0  0  0  0
  192.1570  174.4440  146.0090 O   0  0  0  0  0  0  0  0  0  0  0  0
  191.2330  177.1460  148.2670 O   0  0  0  0  0  1  0  0  0  0  0  0
  187.9410  177.5030  145.5100 C   0  0  1  0  0  3  0  0  0  0  0  0
  191.0310  176.1020  147.3610 C   0  0  2  0  0  3  0  0  0  0  0  0
  187.5000  176.4380  144.5390 C   0  0  1  0  0  3  0  0  0  0  0  0
  188.1550  175.1250  142.5050 C   0  0  2  0  0  3  0  0  0  0  0  0
  192.3520  175.4160  147.0110 C   0  0  2  0  0  3  0  0  0  0  0  0
  190.2450  176.5930  146.1300 C   0  0  2  0  0  3  0  0  0  0  0  0
  193.7880  172.9690  142.2600 C   0  0  0  0  0  2  0  0  0  0  0  0
  186.1210  176.8770  144.1430 C   0  0  0  0  0  2  0  0  0  0  0  0
  186.7940  178.0780  146.0750 O   0  0  0  0  0  0  0  0  0  0  0  0
  193.6090  172.7050  144.6050 O   0  0  0  0  0  1  0  0  0  0  0  0
  190.4010  175.6710  142.3240 C   0  0  1  0  0  3  0  0  0  0  0  0
  193.6260  173.9480  141.1080 C   0  0  0  0  0  2  0  0  0  0  0  0
  192.0340  174.2300  143.5920 C   0  0  2  0  0  3  0  0  0  0  0  0
  189.9290  176.3650  143.5990 C   0  0  1  0  0  3  0  0  0  0  0  0
  187.3090  175.4370  141.4400 O   0  0  0  0  0  1  0  0  0  0  0  0
  188.4240  176.3730  143.3300 C   0  0  2  0  0  3  0  0  0  0  0  0
  185.8300  178.0470  145.0570 C   0  0  0  0  0  2  0  0  0  0  0  0
  188.2070  175.7470  147.1440 O   0  0  0  0  0  1  0  0  0  0  0  0
  192.1880  174.4360  141.0630 C   0  0  0  0  0  2  0  0  0  0  0  0
  191.8290  175.1340  142.3740 C   0  0  1  0  0  3  0  0  0  0  0  0
  188.8100  176.8860  146.5960 C   0  0  2  0  0  3  0  0  0  0  0  0
  193.4940  176.3940  146.6980 C   0  0  0  0  0  2  0  0  0  0  0  0
  195.2080  175.9570  145.1250 F   0  0  0  0  0  0  0  0  0  0  0  0
  194.7670  175.6290  146.3920 C   0  0  0  0  0  2  0  0  0  0  0  0
  1  4  1  0  0  0  0
  1  5  1  1  0  0  0
  2 19  1  0  0  0  0
  2 16  1  1  0  0  0
  3 17  1  0  0  0  0
  3 10  1  0  0  0  0
  4 12  1  0  0  0  0
  5 11  1  0  0  0  0
  7 15  1  0  0  0  0
  7 27  1  0  0  0  0
  8  6  1  0  0  0  0
  9  7  1  0  0  0  0
 10 22  1  0  0  0  0
 11  8  1  0  0  0  0
 12 27  1  0  0  0  0
 12  8  1  0  0  0  0
 13  2  1  0  0  0  0
 14  9  1  0  0  0  0
 14 23  1  0  0  0  0
 17 26  1  0  0  0  0
 17 20  1  0  0  0  0
 18 13  1  0  0  0  0
 19  1  1  0  0  0  0
 20  4  1  0  0  0  0
 21 10  1  0  0  0  0
 22 20  1  0  0  0  0
 22  9  1  0  0  0  0
 23 15  1  0  0  0  0
 25 18  1  0  0  0  0
 25 26  1  0  0  0  0
 26 19  1  0  0  0  0
 27 24  1  0  0  0  0
 28 11  1  0  0  0  0
 29 30  1  0  0  0  0
 30 28  1  0  0  0  0
M  END
>  <MODEL>
5

>  <REMARK>
 VINA RESULT:      -7.2      2.386      4.980
  Name = 
  2 active torsions:
  status: ('A' for Active; 'I' for Inactive)
    1  A    between atoms: C_11  and  C_28
    2  A    between atoms: C_28  and  C_30
                            x       y       z     vdW  Elec       q    Type
                         _______ _______ _______ _____ _____    ______ ____

>  <TORSDO>
F 2

$$$$
=
 OpenBabel11112416163D

 30 35  0  0  1  0  0  0  0  0999 V2000
  189.4280  174.5840  144.0400 C   0  0  1  0  0  3  0  0  0  0  0  0
  189.7800  173.0900  142.0150 C   0  0  2  0  0  3  0  0  0  0  0  0
  186.3640  175.9170  142.4090 N   0  0  0  0  0  2  0  0  0  0  0  0
  188.4770  175.5320  144.8030 C   0  0  1  0  0  3  0  0  0  0  0  0
  189.7980  173.4940  144.8510 O   0  0  0  0  0  0  0  0  0  0  0  0
  190.9530  175.4850  147.6720 O   0  0  0  0  0  1  0  0  0  0  0  0
  187.5130  177.8560  146.6200 C   0  0  1  0  0  3  0  0  0  0  0  0
  190.0290  174.9280  146.7840 C   0  0  2  0  0  3  0  0  0  0  0  0
  186.3600  177.3880  145.7690 C   0  0  1  0  0  3  0  0  0  0  0  0
  185.6810  176.6420  143.4730 C   0  0  2  0  0  3  0  0  0  0  0  0
  190.7130  173.9600  145.8170 C   0  0  2  0  0  3  0  0  0  0  0  0
  189.2150  176.0310  146.0810 C   0  0  2  0  0  3  0  0  0  0  0  0
  189.3310  172.7970  140.5860 C   0  0  0  0  0  2  0  0  0  0  0  0
  185.2850  178.3950  146.0530 C   0  0  0  0  0  2  0  0  0  0  0  0
  186.9900  178.5960  147.6900 O   0  0  0  0  0  0  0  0  0  0  0  0
  189.7860  171.8880  142.7240 O   0  0  0  0  0  1  0  0  0  0  0  0
  187.7500  176.3690  142.4610 C   0  0  1  0  0  3  0  0  0  0  0  0
  189.2840  174.0790  139.7700 C   0  0  0  0  0  2  0  0  0  0  0  0
  188.8500  174.1140  142.7020 C   0  0  2  0  0  3  0  0  0  0  0  0
  188.0650  176.7450  143.9070 C   0  0  1  0  0  3  0  0  0  0  0  0
  184.7870  177.5570  142.9160 O   0  0  0  0  0  1  0  0  0  0  0  0
  186.7290  177.3800  144.2910 C   0  0  2  0  0  3  0  0  0  0  0  0
  185.8560  179.2380  147.1720 C   0  0  0  0  0  2  0  0  0  0  0  0
  187.4410  175.7020  147.7070 O   0  0  0  0  0  1  0  0  0  0  0  0
  188.2910  175.0400  140.4000 C   0  0  0  0  0  2  0  0  0  0  0  0
  188.7140  175.3670  141.8320 C   0  0  1  0  0  3  0  0  0  0  0  0
  188.2940  176.6580  147.1380 C   0  0  2  0  0  3  0  0  0  0  0  0
  192.0140  174.5050  145.2110 C   0  0  0  0  0  2  0  0  0  0  0  0
  192.8080  173.3510  143.3030 F   0  0  0  0  0  0  0  0  0  0  0  0
  192.8630  173.3650  144.6830 C   0  0  0  0  0  2  0  0  0  0  0  0
  1  4  1  0  0  0  0
  1  5  1  1  0  0  0
  2 19  1  0  0  0  0
  2 16  1  1  0  0  0
  3 17  1  0  0  0  0
  3 10  1  0  0  0  0
  4 12  1  0  0  0  0
  5 11  1  0  0  0  0
  7 27  1  0  0  0  0
  7 15  1  0  0  0  0
  8  6  1  0  0  0  0
  9 14  1  0  0  0  0
  9  7  1  0  0  0  0
 10 22  1  0  0  0  0
 11  8  1  0  0  0  0
 12  8  1  0  0  0  0
 12 27  1  0  0  0  0
 13  2  1  0  0  0  0
 14 23  1  0  0  0  0
 17 20  1  0  0  0  0
 18 25  1  0  0  0  0
 18 13  1  0  0  0  0
 19  1  1  0  0  0  0
 20 22  1  0  0  0  0
 20  4  1  0  0  0  0
 21 10  1  0  0  0  0
 22  9  1  0  0  0  0
 23 15  1  0  0  0  0
 25 26  1  0  0  0  0
 26 17  1  0  0  0  0
 26 19  1  0  0  0  0
 27 24  1  0  0  0  0
 28 11  1  0  0  0  0
 29 30  1  0  0  0  0
 30 28  1  0  0  0  0
M  END
>  <MODEL>
6

>  <REMARK>
 VINA RESULT:      -7.1      2.137      4.719
  Name = 
  2 active torsions:
  status: ('A' for Active; 'I' for Inactive)
    1  A    between atoms: C_11  and  C_28
    2  A    between atoms: C_28  and  C_30
                            x       y       z     vdW  Elec       q    Type
                         _______ _______ _______ _____ _____    ______ ____

>  <TORSDO>
F 2

$$$$
=
 OpenBabel11112416163D

 30 35  0  0  1  0  0  0  0  0999 V2000
  191.0130  174.4350  142.7930 C   0  0  1  0  0  3  0  0  0  0  0  0
  193.4390  173.9180  143.3470 C   0  0  2  0  0  3  0  0  0  0  0  0
  190.8990  176.6460  145.7800 N   0  0  0  0  0  2  0  0  0  0  0  0
  189.7800  175.3230  143.0710 C   0  0  1  0  0  3  0  0  0  0  0  0
  191.3880  174.5170  141.4380 O   0  0  0  0  0  0  0  0  0  0  0  0
  188.1100  173.7010  140.0800 O   0  0  0  0  0  1  0  0  0  0  0  0
  186.8130  176.1910  143.3490 C   0  0  1  0  0  3  0  0  0  0  0  0
  189.0770  174.4730  140.7300 C   0  0  2  0  0  3  0  0  0  0  0  0
  187.6840  177.1690  144.0960 C   0  0  1  0  0  3  0  0  0  0  0  0
  189.6640  177.4020  145.6170 C   0  0  2  0  0  3  0  0  0  0  0  0
  190.4460  173.7920  140.6810 C   0  0  2  0  0  3  0  0  0  0  0  0
  188.6180  174.8350  142.1550 C   0  0  2  0  0  3  0  0  0  0  0  0
  194.5360  174.0520  144.3990 C   0  0  0  0  0  2  0  0  0  0  0  0
  186.6930  178.0430  144.8090 C   0  0  0  0  0  2  0  0  0  0  0  0
  185.5650  176.7930  143.1370 O   0  0  0  0  0  0  0  0  0  0  0  0
  193.9580  174.3430  142.1220 O   0  0  0  0  0  1  0  0  0  0  0  0
  190.5340  175.2530  145.5490 C   0  0  1  0  0  3  0  0  0  0  0  0
  194.0180  173.6220  145.7630 C   0  0  0  0  0  2  0  0  0  0  0  0
  192.1920  174.7500  143.7190 C   0  0  2  0  0  3  0  0  0  0  0  0
  189.3590  175.2330  144.5740 C   0  0  1  0  0  3  0  0  0  0  0  0
  189.2630  177.9150  146.8510 O   0  0  0  0  0  1  0  0  0  0  0  0
  188.5990  176.4570  145.0830 C   0  0  2  0  0  3  0  0  0  0  0  0
  185.3520  177.6010  144.2640 C   0  0  0  0  0  2  0  0  0  0  0  0
  187.8540  176.9840  141.3200 O   0  0  0  0  0  1  0  0  0  0  0  0
  192.8550  174.5140  146.1620 C   0  0  0  0  0  2  0  0  0  0  0  0
  191.7290  174.3990  145.1350 C   0  0  1  0  0  3  0  0  0  0  0  0
  187.4600  175.8350  142.0190 C   0  0  2  0  0  3  0  0  0  0  0  0
  190.4070  172.2970  141.0250 C   0  0  0  0  0  2  0  0  0  0  0  0
  190.7760  172.2300  138.6880 F   0  0  0  0  0  0  0  0  0  0  0  0
  190.8750  171.4750  139.8400 C   0  0  0  0  0  2  0  0  0  0  0  0
  1  5  1  6  0  0  0
  1  4  1  0  0  0  0
  1 19  1  0  0  0  0
  2 16  1  6  0  0  0
  2 19  1  0  0  0  0
  2 13  1  0  0  0  0
  4 20  1  0  0  0  0
  6  8  1  0  0  0  0
  7  9  1  0  0  0  0
  8 12  1  0  0  0  0
  9 14  1  0  0  0  0
  9 22  1  0  0  0  0
 10  3  1  0  0  0  0
 10 21  1  0  0  0  0
 11  8  1  0  0  0  0
 11 28  1  0  0  0  0
 11  5  1  0  0  0  0
 12  4  1  0  0  0  0
 13 18  1  0  0  0  0
 15  7  1  0  0  0  0
 15 23  1  0  0  0  0
 17  3  1  0  0  0  0
 18 25  1  0  0  0  0
 19 26  1  0  0  0  0
 20 22  1  0  0  0  0
 20 17  1  0  0  0  0
 22 10  1  0  0  0  0
 23 14  1  0  0  0  0
 24 27  1  0  0  0  0
 26 17  1  0  0  0  0
 26 25  1  0  0  0  0
 27 12  1  0  0  0  0
 27  7  1  0  0  0  0
 29 30  1  0  0  0  0
 30 28  1  0  0  0  0
M  END
>  <MODEL>
7

>  <REMARK>
 VINA RESULT:      -7.1      1.959      2.613
  Name = 
  2 active torsions:
  status: ('A' for Active; 'I' for Inactive)
    1  A    between atoms: C_11  and  C_28
    2  A    between atoms: C_28  and  C_30
                            x       y       z     vdW  Elec       q    Type
                         _______ _______ _______ _____ _____    ______ ____

>  <TORSDO>
F 2

$$$$
=
 OpenBabel11112416163D

 30 35  0  0  1  0  0  0  0  0999 V2000
  190.3030  175.9290  144.3510 C   0  0  1  0  0  3  0  0  0  0  0  0
  188.4050  176.2720  142.6960 C   0  0  2  0  0  3  0  0  0  0  0  0
  192.4680  174.8910  141.5120 N   0  0  0  0  0  2  0  0  0  0  0  0
  191.8140  175.6820  144.5590 C   0  0  1  0  0  3  0  0  0  0  0  0
  189.9020  177.1200  144.9860 O   0  0  0  0  0  0  0  0  0  0  0  0
  191.2610  176.2870  148.2600 O   0  0  0  0  0  1  0  0  0  0  0  0
  194.4580  174.6930  145.8490 C   0  0  1  0  0  3  0  0  0  0  0  0
  191.2890  176.6360  146.9070 C   0  0  2  0  0  3  0  0  0  0  0  0
  194.7160  175.0430  144.4060 C   0  0  1  0  0  3  0  0  0  0  0  0
  193.8140  174.8950  142.0700 C   0  0  2  0  0  3  0  0  0  0  0  0
  189.8760  176.8840  146.3760 C   0  0  2  0  0  3  0  0  0  0  0  0
  192.0820  175.5980  146.0920 C   0  0  2  0  0  3  0  0  0  0  0  0
  187.9430  176.0390  141.2600 C   0  0  0  0  0  2  0  0  0  0  0  0
  196.1240  174.5750  144.1800 C   0  0  0  0  0  2  0  0  0  0  0  0
  195.6920  174.6440  146.5120 O   0  0  0  0  0  0  0  0  0  0  0  0
  188.1800  177.6130  143.0130 O   0  0  0  0  0  1  0  0  0  0  0  0
  191.6530  174.1570  142.4720 C   0  0  1  0  0  3  0  0  0  0  0  0
  188.1850  174.5950  140.8520 C   0  0  0  0  0  2  0  0  0  0  0  0
  189.8990  175.9210  142.8730 C   0  0  2  0  0  3  0  0  0  0  0  0
  192.2630  174.3600  143.8570 C   0  0  1  0  0  3  0  0  0  0  0  0
  194.6490  174.1010  141.2830 O   0  0  0  0  0  1  0  0  0  0  0  0
  193.7430  174.3260  143.4790 C   0  0  2  0  0  3  0  0  0  0  0  0
  196.6020  174.1670  145.5570 C   0  0  0  0  0  2  0  0  0  0  0  0
  194.0310  177.0390  146.2260 O   0  0  0  0  0  1  0  0  0  0  0  0
  189.6710  174.2920  140.9350 C   0  0  0  0  0  2  0  0  0  0  0  0
  190.1700  174.5030  142.3640 C   0  0  1  0  0  3  0  0  0  0  0  0
  193.5600  175.7460  146.4830 C   0  0  2  0  0  3  0  0  0  0  0  0
  188.8600  175.8120  146.7940 C   0  0  0  0  0  2  0  0  0  0  0  0
  186.8830  176.4140  145.6390 F   0  0  0  0  0  0  0  0  0  0  0  0
  187.4720  176.4160  146.8880 C   0  0  0  0  0  2  0  0  0  0  0  0
  1  4  1  0  0  0  0
  1  5  1  6  0  0  0
  2 19  1  0  0  0  0
  2 16  1  6  0  0  0
  3 10  1  0  0  0  0
  3 17  1  0  0  0  0
  4 12  1  0  0  0  0
  5 11  1  0  0  0  0
  7 27  1  0  0  0  0
  7 15  1  0  0  0  0
  8  6  1  0  0  0  0
  9  7  1  0  0  0  0
 10 22  1  0  0  0  0
 11 28  1  0  0  0  0
 11  8  1  0  0  0  0
 12 27  1  0  0  0  0
 12  8  1  0  0  0  0
 13  2  1  0  0  0  0
 14  9  1  0  0  0  0
 14 23  1  0  0  0  0
 17 20  1  0  0  0  0
 18 25  1  0  0  0  0
 18 13  1  0  0  0  0
 19  1  1  0  0  0  0
 20  4  1  0  0  0  0
 21 10  1  0  0  0  0
 22 20  1  0  0  0  0
 22  9  1  0  0  0  0
 23 15  1  0  0  0  0
 24 27  1  0  0  0  0
 25 26  1  0  0  0  0
 26 17  1  0  0  0  0
 26 19  1  0  0  0  0
 28 30  1  0  0  0  0
 29 30  1  0  0  0  0
M  END
>  <MODEL>
8

>  <REMARK>
 VINA RESULT:      -7.1      2.939      7.619
  Name = 
  2 active torsions:
  status: ('A' for Active; 'I' for Inactive)
    1  A    between atoms: C_11  and  C_28
    2  A    between atoms: C_28  and  C_30
                            x       y       z     vdW  Elec       q    Type
                         _______ _______ _______ _____ _____    ______ ____

>  <TORSDO>
F 2

$$$$
=
 OpenBabel11112416163D

 30 35  0  0  1  0  0  0  0  0999 V2000
  187.5940  177.1000  144.6970 C   0  0  1  0  0  3  0  0  0  0  0  0
  187.1580  178.1180  146.9850 C   0  0  2  0  0  3  0  0  0  0  0  0
  190.4110  175.1860  146.1870 N   0  0  0  0  0  2  0  0  0  0  0  0
  188.3370  176.0230  143.8770 C   0  0  1  0  0  3  0  0  0  0  0  0
  186.2010  176.9700  144.5410 O   0  0  0  0  0  0  0  0  0  0  0  0
  186.2130  177.0200  140.9010 O   0  0  0  0  0  1  0  0  0  0  0  0
  189.7520  174.6340  141.4890 C   0  0  1  0  0  3  0  0  0  0  0  0
  186.4440  176.5090  142.1810 C   0  0  2  0  0  3  0  0  0  0  0  0
  190.1120  173.9100  142.7620 C   0  0  1  0  0  3  0  0  0  0  0  0
  190.7480  174.1970  145.1710 C   0  0  2  0  0  3  0  0  0  0  0  0
  185.8610  177.4310  143.2530 C   0  0  2  0  0  3  0  0  0  0  0  0
  187.9390  176.1950  142.3810 C   0  0  2  0  0  3  0  0  0  0  0  0
  187.7040  178.2910  148.3990 C   0  0  0  0  0  2  0  0  0  0  0  0
  191.1610  172.9310  142.3220 C   0  0  0  0  0  2  0  0  0  0  0  0
  190.0470  173.7880  140.4110 O   0  0  0  0  0  0  0  0  0  0  0  0
  185.8320  177.6920  147.0800 O   0  0  0  0  0  1  0  0  0  0  0  0
  190.3270  176.4570  145.4780 C   0  0  1  0  0  3  0  0  0  0  0  0
  189.1580  178.7350  148.3570 C   0  0  0  0  0  2  0  0  0  0  0  0
  187.9920  177.1010  146.1760 C   0  0  2  0  0  3  0  0  0  0  0  0
  189.8850  176.1650  144.0460 C   0  0  1  0  0  3  0  0  0  0  0  0
  192.0450  173.7300  145.3830 O   0  0  0  0  0  1  0  0  0  0  0  0
  190.6600  174.8700  143.8100 C   0  0  2  0  0  3  0  0  0  0  0  0
  191.1750  173.0590  140.8140 C   0  0  0  0  0  2  0  0  0  0  0  0
  187.4860  173.8740  141.8290 O   0  0  0  0  0  1  0  0  0  0  0  0
  189.9850  177.6780  147.6460 C   0  0  0  0  0  2  0  0  0  0  0  0
  189.4740  177.4830  146.2190 C   0  0  1  0  0  3  0  0  0  0  0  0
  188.2720  174.9850  141.4950 C   0  0  2  0  0  3  0  0  0  0  0  0
  186.1800  178.9160  143.0330 C   0  0  0  0  0  2  0  0  0  0  0  0
  185.9420  180.1660  145.0290 F   0  0  0  0  0  0  0  0  0  0  0  0
  185.2700  179.7780  143.8860 C   0  0  0  0  0  2  0  0  0  0  0  0
  1  5  1  1  0  0  0
  1 19  1  0  0  0  0
  2 16  1  1  0  0  0
  2 13  1  0  0  0  0
  4 20  1  0  0  0  0
  4  1  1  0  0  0  0
  6  8  1  0  0  0  0
  7 27  1  0  0  0  0
  7  9  1  0  0  0  0
  8 12  1  0  0  0  0
  8 11  1  0  0  0  0
  9 22  1  0  0  0  0
 10 21  1  0  0  0  0
 10  3  1  0  0  0  0
 11  5  1  0  0  0  0
 12  4  1  0  0  0  0
 14  9  1  0  0  0  0
 15 23  1  0  0  0  0
 15  7  1  0  0  0  0
 17  3  1  0  0  0  0
 17 26  1  0  0  0  0
 18 13  1  0  0  0  0
 19 26  1  0  0  0  0
 19  2  1  0  0  0  0
 20 17  1  0  0  0  0
 22 20  1  0  0  0  0
 22 10  1  0  0  0  0
 23 14  1  0  0  0  0
 25 18  1  0  0  0  0
 26 25  1  0  0  0  0
 27 24  1  0  0  0  0
 27 12  1  0  0  0  0
 28 11  1  0  0  0  0
 28 30  1  0  0  0  0
 30 29  1  0  0  0  0
M  END
>  <MODEL>
9

>  <REMARK>
 VINA RESULT:      -6.9      2.453      5.571
  Name = 
  2 active torsions:
  status: ('A' for Active; 'I' for Inactive)
    1  A    between atoms: C_11  and  C_28
    2  A    between atoms: C_28  and  C_30
                            x       y       z     vdW  Elec       q    Type
                         _______ _______ _______ _____ _____    ______ ____

>  <TORSDO>
F 2

$$$$
