=
 OpenBabel11112417333D

 37 43  0  0  1  0  0  0  0  0999 V2000
  190.3550  174.1230  141.5710 C   0  0  1  0  0  3  0  0  0  0  0  0
  189.6360  177.3120  142.0970 O   0  0  0  0  0  0  0  0  0  0  0  0
  192.2060  172.3040  141.7490 C   0  0  2  0  0  3  0  0  0  0  0  0
  190.2740  175.0840  142.6980 C   0  0  2  0  0  3  0  0  0  0  0  0
  191.8420  173.8030  141.5990 C   0  0  2  0  0  3  0  0  0  0  0  0
  189.1310  176.0980  142.5940 C   0  0  2  0  0  3  0  0  0  0  0  0
  190.9940  171.4040  142.0340 C   0  0  0  0  0  2  0  0  0  0  0  0
  192.4390  174.6350  142.5750 O   0  0  0  0  0  0  0  0  0  0  0  0
  188.0220  173.3390  141.4350 C   0  0  0  0  0  2  0  0  0  0  0  0
  189.8880  171.8000  141.2650 O   0  0  0  0  0  0  0  0  0  0  0  0
  189.8580  177.7860  144.6010 C   0  0  0  0  0  2  0  0  0  0  0  0
  189.9680  178.2270  143.1430 C   0  0  1  0  0  3  0  0  0  0  0  0
  189.4300  172.9620  141.8940 C   0  0  1  0  0  3  0  0  0  0  0  0
  191.5860  175.6980  142.6930 N   0  0  2  0  0  0  0  0  0  0  0  0
  187.9270  175.5820  141.7750 C   0  0  1  0  0  3  0  0  0  0  0  0
  191.2310  177.8280  143.9500 C   0  0  2  0  0  3  0  0  0  0  0  0
  191.7660  176.3780  143.9790 C   0  0  2  0  0  3  0  0  0  0  0  0
  187.4880  174.3380  142.2750 O   0  0  0  0  0  0  0  0  0  0  0  0
  186.4650  177.2710  140.4920 C   0  0  0  0  0  2  0  0  0  0  0  0
  186.7990  176.5660  141.7840 C   0  0  0  0  0  0  0  0  0  0  0  0
  186.1100  176.7910  142.9080 C   0  0  0  0  0  3  0  0  0  0  0  0
  184.3560  177.9660  143.9640 O   0  0  0  0  0  0  0  0  0  0  0  0
  184.6920  178.4710  141.7150 N   0  0  0  0  0  0  0  0  0  0  0  0
  185.0120  177.7590  142.9110 C   0  0  0  0  0  0  0  0  0  0  0  0
  185.3400  178.2710  140.6060 C   0  0  0  0  0  3  0  0  0  0  0  0
  193.2340  176.4220  144.3950 C   0  0  0  0  0  2  0  0  0  0  0  0
  193.4210  175.8410  145.7900 C   0  0  0  0  0  0  0  0  0  0  0  0
  194.8570  175.6480  146.2130 C   0  0  0  0  0  2  0  0  0  0  0  0
  194.0310  176.7870  146.7970 C   0  0  0  0  0  2  0  0  0  0  0  0
  192.4260  174.8440  146.3780 C   0  0  0  0  0  2  0  0  0  0  0  0
  191.5560  175.4720  147.4580 C   0  0  0  0  0  2  0  0  0  0  0  0
  189.8110  175.0300  147.2210 S   0  0  0  0  0  1  0  0  0  0  0  0
  193.1800  172.1100  142.7320 O   0  0  0  0  0  0  0  0  0  0  0  0
  194.6250  171.8320  141.8910 P   0  0  0  0  0  4  0  0  0  0  0  0
  194.2960  171.1250  140.4070 F   0  0  0  0  0  0  0  0  0  0  0  0
  195.4350  173.2790  141.6560 F   0  0  0  0  0  0  0  0  0  0  0  0
  195.5920  170.8010  142.7860 F   0  0  0  0  0  0  0  0  0  0  0  0
  1  5  1  0  0  0  0
  1 13  1  0  0  0  0
  1  4  1  0  0  0  0
  2  6  1  0  0  0  0
  2 12  1  0  0  0  0
  3  7  1  0  0  0  0
  3 33  1  0  0  0  0
  5  3  1  0  0  0  0
  5  8  1  0  0  0  0
  6  4  1  0  0  0  0
  8 14  1  0  0  0  0
  9 13  1  0  0  0  0
  9 18  1  0  0  0  0
 10 13  1  0  0  0  0
 10  7  1  0  0  0  0
 12 16  1  0  0  0  0
 12 11  1  0  0  0  0
 14  4  1  0  0  0  0
 14 17  1  0  0  0  0
 15 20  1  0  0  0  0
 15 18  1  0  0  0  0
 15  6  1  0  0  0  0
 16 17  1  0  0  0  0
 16 11  1  0  0  0  0
 17 26  1  0  0  0  0
 19 25  1  0  0  0  0
 19 20  1  0  0  0  0
 20 21  2  0  0  0  0
 21 24  1  0  0  0  0
 23 24  1  0  0  0  0
 24 22  2  0  0  0  0
 25 23  2  0  0  0  0
 26 27  1  0  0  0  0
 27 28  1  0  0  0  0
 27 30  1  0  0  0  0
 27 29  1  0  0  0  0
 28 29  1  0  0  0  0
 30 31  1  0  0  0  0
 32 31  1  0  0  0  0
 34 33  1  0  0  0  0
 34 37  1  0  0  0  0
 35 34  1  0  0  0  0
 36 34  1  0  0  0  0
M  END
>  <MODEL>
1

>  <REMARK>
 VINA RESULT:      -7.4      0.000      0.000
  Name = 
  7 active torsions:
  status: ('A' for Active; 'I' for Inactive)
    1  A    between atoms: C_1  and  C_4
    2  A    between atoms: C_1  and  C_27
    3  A    between atoms: P_2  and  O_22
    4  A    between atoms: C_4  and  C_12
    5  A    between atoms: C_6  and  O_22
    6  A    between atoms: C_8  and  C_12
    7  A    between atoms: C_23  and  C_30
                            x       y       z     vdW  Elec       q    Type
                         _______ _______ _______ _____ _____    ______ ____

>  <TORSDO>
F 7

$$$$
=
 OpenBabel11112417333D

 37 43  0  0  1  0  0  0  0  0999 V2000
  190.5030  174.1930  141.6480 C   0  0  1  0  0  3  0  0  0  0  0  0
  189.7000  177.3620  142.1670 O   0  0  0  0  0  0  0  0  0  0  0  0
  192.3930  172.4170  141.8560 C   0  0  2  0  0  3  0  0  0  0  0  0
  190.3790  175.1490  142.7750 C   0  0  2  0  0  3  0  0  0  0  0  0
  191.9970  173.9080  141.7030 C   0  0  2  0  0  3  0  0  0  0  0  0
  189.2150  176.1360  142.6520 C   0  0  2  0  0  3  0  0  0  0  0  0
  191.1980  171.4880  142.1180 C   0  0  0  0  0  2  0  0  0  0  0  0
  192.5570  174.7510  142.6910 O   0  0  0  0  0  0  0  0  0  0  0  0
  188.1920  173.3540  141.4690 C   0  0  0  0  0  2  0  0  0  0  0  0
  190.0970  171.8600  141.3290 O   0  0  0  0  0  0  0  0  0  0  0  0
  189.8660  177.8370  144.6740 C   0  0  0  0  0  2  0  0  0  0  0  0
  189.9920  178.2820  143.2200 C   0  0  1  0  0  3  0  0  0  0  0  0
  189.6000  173.0090  141.9520 C   0  0  1  0  0  3  0  0  0  0  0  0
  191.6770  175.7940  142.7950 N   0  0  2  0  0  0  0  0  0  0  0  0
  188.0380  175.5930  141.8110 C   0  0  1  0  0  3  0  0  0  0  0  0
  191.2490  177.9120  144.0490 C   0  0  2  0  0  3  0  0  0  0  0  0
  191.8170  176.4750  144.0850 C   0  0  2  0  0  3  0  0  0  0  0  0
  187.6200  174.3380  142.3000 O   0  0  0  0  0  0  0  0  0  0  0  0
  186.5420  177.2280  140.4970 C   0  0  0  0  0  2  0  0  0  0  0  0
  186.8870  176.5510  141.8010 C   0  0  0  0  0  0  0  0  0  0  0  0
  186.1900  176.7760  142.9190 C   0  0  0  0  0  3  0  0  0  0  0  0
  184.4040  177.9260  143.9510 O   0  0  0  0  0  0  0  0  0  0  0  0
  184.7370  178.4040  141.6960 N   0  0  0  0  0  0  0  0  0  0  0  0
  185.0690  177.7180  142.9040 C   0  0  0  0  0  0  0  0  0  0  0  0
  185.3940  178.2030  140.5920 C   0  0  0  0  0  3  0  0  0  0  0  0
  193.2760  176.5530  144.5280 C   0  0  0  0  0  2  0  0  0  0  0  0
  193.4820  175.8280  145.8510 C   0  0  0  0  0  0  0  0  0  0  0  0
  192.6360  176.3350  146.9940 C   0  0  0  0  0  2  0  0  0  0  0  0
  192.3010  175.0110  146.3200 C   0  0  0  0  0  2  0  0  0  0  0  0
  194.8430  175.2610  146.2460 C   0  0  0  0  0  2  0  0  0  0  0  0
  195.3180  174.1860  145.2770 C   0  0  0  0  0  2  0  0  0  0  0  0
  196.7040  174.7890  144.2710 S   0  0  0  0  0  1  0  0  0  0  0  0
  193.3540  172.2440  142.8570 O   0  0  0  0  0  0  0  0  0  0  0  0
  194.8070  171.9330  142.0420 P   0  0  0  0  0  4  0  0  0  0  0  0
  194.5930  170.6780  140.9500 F   0  0  0  0  0  0  0  0  0  0  0  0
  195.3080  173.3070  141.2270 F   0  0  0  0  0  0  0  0  0  0  0  0
  195.9780  171.4970  143.1540 F   0  0  0  0  0  0  0  0  0  0  0  0
  1  5  1  0  0  0  0
  1 13  1  0  0  0  0
  1  4  1  0  0  0  0
  2  6  1  0  0  0  0
  2 12  1  0  0  0  0
  3  7  1  0  0  0  0
  3 33  1  0  0  0  0
  4 14  1  0  0  0  0
  5  3  1  0  0  0  0
  5  8  1  0  0  0  0
  6  4  1  0  0  0  0
  8 14  1  0  0  0  0
  9 13  1  0  0  0  0
  9 18  1  0  0  0  0
 10 13  1  0  0  0  0
 10  7  1  0  0  0  0
 12 16  1  0  0  0  0
 12 11  1  0  0  0  0
 14 17  1  0  0  0  0
 15 18  1  0  0  0  0
 15  6  1  0  0  0  0
 16 17  1  0  0  0  0
 16 11  1  0  0  0  0
 17 26  1  0  0  0  0
 19 25  1  0  0  0  0
 19 20  1  0  0  0  0
 20 15  1  0  0  0  0
 20 21  2  0  0  0  0
 23 24  1  0  0  0  0
 24 21  1  0  0  0  0
 24 22  2  0  0  0  0
 25 23  2  0  0  0  0
 26 27  1  0  0  0  0
 27 30  1  0  0  0  0
 27 29  1  0  0  0  0
 27 28  1  0  0  0  0
 29 28  1  0  0  0  0
 31 30  1  0  0  0  0
 32 31  1  0  0  0  0
 34 33  1  0  0  0  0
 34 37  1  0  0  0  0
 35 34  1  0  0  0  0
 36 34  1  0  0  0  0
M  END
>  <MODEL>
2

>  <REMARK>
 VINA RESULT:      -7.3      1.316      1.624
  Name = 
  7 active torsions:
  status: ('A' for Active; 'I' for Inactive)
    1  A    between atoms: C_1  and  C_4
    2  A    between atoms: C_1  and  C_27
    3  A    between atoms: P_2  and  O_22
    4  A    between atoms: C_4  and  C_12
    5  A    between atoms: C_6  and  O_22
    6  A    between atoms: C_8  and  C_12
    7  A    between atoms: C_23  and  C_30
                            x       y       z     vdW  Elec       q    Type
                         _______ _______ _______ _____ _____    ______ ____

>  <TORSDO>
F 7

$$$$
=
 OpenBabel11112417333D

 37 43  0  0  1  0  0  0  0  0999 V2000
  190.7290  176.8280  144.8910 C   0  0  1  0  0  3  0  0  0  0  0  0
  192.9550  175.7550  142.6890 O   0  0  0  0  0  0  0  0  0  0  0  0
  188.2170  177.3880  145.2740 C   0  0  2  0  0  3  0  0  0  0  0  0
  191.0110  175.6190  144.0780 C   0  0  2  0  0  3  0  0  0  0  0  0
  189.4000  177.2540  144.2830 C   0  0  2  0  0  3  0  0  0  0  0  0
  192.4970  175.2810  143.9290 C   0  0  2  0  0  3  0  0  0  0  0  0
  188.5410  176.8810  146.6880 C   0  0  0  0  0  2  0  0  0  0  0  0
  189.1350  176.3950  143.1910 O   0  0  0  0  0  0  0  0  0  0  0  0
  192.0990  176.3950  146.8930 C   0  0  0  0  0  2  0  0  0  0  0  0
  189.8400  177.2580  147.0660 O   0  0  0  0  0  0  0  0  0  0  0  0
  192.3220  173.3770  141.9930 C   0  0  0  0  0  2  0  0  0  0  0  0
  192.9190  174.7460  141.6780 C   0  0  1  0  0  3  0  0  0  0  0  0
  190.6720  176.3950  146.3470 C   0  0  1  0  0  3  0  0  0  0  0  0
  190.3630  175.9200  142.8180 N   0  0  2  0  0  0  0  0  0  0  0  0
  193.3600  175.7840  145.1080 C   0  0  1  0  0  3  0  0  0  0  0  0
  191.4890  174.3770  141.2080 C   0  0  2  0  0  3  0  0  0  0  0  0
  190.2380  174.6660  142.0690 C   0  0  2  0  0  3  0  0  0  0  0  0
  192.8330  175.3300  146.3350 O   0  0  0  0  0  0  0  0  0  0  0  0
  195.6440  176.0490  143.9440 C   0  0  0  0  0  2  0  0  0  0  0  0
  194.7850  175.3460  144.9660 C   0  0  0  0  0  0  0  0  0  0  0  0
  195.2680  174.3680  145.7400 C   0  0  0  0  0  3  0  0  0  0  0  0
  197.1220  173.0280  146.3250 O   0  0  0  0  0  0  0  0  0  0  0  0
  197.4920  174.5600  144.6100 N   0  0  0  0  0  0  0  0  0  0  0  0
  196.6600  173.9400  145.5930 C   0  0  0  0  0  0  0  0  0  0  0  0
  197.0520  175.5150  143.8460 C   0  0  0  0  0  3  0  0  0  0  0  0
  189.0200  174.6760  141.1490 C   0  0  0  0  0  2  0  0  0  0  0  0
  188.4680  173.2690  140.9630 C   0  0  0  0  0  0  0  0  0  0  0  0
  188.8170  172.2970  142.0650 C   0  0  0  0  0  2  0  0  0  0  0  0
  187.4070  172.8650  141.9600 C   0  0  0  0  0  2  0  0  0  0  0  0
  188.3030  172.6550  139.5760 C   0  0  0  0  0  2  0  0  0  0  0  0
  188.3160  173.7090  138.4770 C   0  0  0  0  0  2  0  0  0  0  0  0
  189.8670  173.6420  137.5350 S   0  0  0  0  0  1  0  0  0  0  0  0
  187.0720  176.7460  144.7930 O   0  0  0  0  0  0  0  0  0  0  0  0
  185.7640  177.6140  145.4310 P   0  0  0  0  0  4  0  0  0  0  0  0
  186.2630  179.1490  145.8870 F   0  0  0  0  0  0  0  0  0  0  0  0
  184.5480  177.7370  144.2850 F   0  0  0  0  0  0  0  0  0  0  0  0
  185.1720  176.8100  146.7740 F   0  0  0  0  0  0  0  0  0  0  0  0
  1 13  1  0  0  0  0
  2  6  1  0  0  0  0
  3  7  1  0  0  0  0
  4  1  1  0  0  0  0
  5  1  1  0  0  0  0
  5  3  1  0  0  0  0
  6  4  1  0  0  0  0
  6 15  1  0  0  0  0
  7 10  1  0  0  0  0
  8  5  1  0  0  0  0
 12 11  1  0  0  0  0
 12  2  1  0  0  0  0
 13  9  1  0  0  0  0
 13 10  1  0  0  0  0
 14  8  1  0  0  0  0
 14  4  1  0  0  0  0
 15 18  1  0  0  0  0
 16 12  1  0  0  0  0
 16 11  1  0  0  0  0
 16 17  1  0  0  0  0
 17 14  1  0  0  0  0
 18  9  1  0  0  0  0
 19 20  1  0  0  0  0
 20 15  1  0  0  0  0
 20 21  2  0  0  0  0
 23 24  1  0  0  0  0
 24 21  1  0  0  0  0
 24 22  2  0  0  0  0
 25 19  1  0  0  0  0
 25 23  2  0  0  0  0
 26 17  1  0  0  0  0
 27 26  1  0  0  0  0
 27 29  1  0  0  0  0
 27 28  1  0  0  0  0
 29 28  1  0  0  0  0
 30 27  1  0  0  0  0
 31 30  1  0  0  0  0
 32 31  1  0  0  0  0
 33  3  1  0  0  0  0
 33 34  1  0  0  0  0
 34 35  1  0  0  0  0
 34 37  1  0  0  0  0
 36 34  1  0  0  0  0
M  END
>  <MODEL>
3

>  <REMARK>
 VINA RESULT:      -7.3      4.881      8.435
  Name = 
  7 active torsions:
  status: ('A' for Active; 'I' for Inactive)
    1  A    between atoms: C_1  and  C_4
    2  A    between atoms: C_1  and  C_27
    3  A    between atoms: P_2  and  O_22
    4  A    between atoms: C_4  and  C_12
    5  A    between atoms: C_6  and  O_22
    6  A    between atoms: C_8  and  C_12
    7  A    between atoms: C_23  and  C_30
                            x       y       z     vdW  Elec       q    Type
                         _______ _______ _______ _____ _____    ______ ____

>  <TORSDO>
F 7

$$$$
=
 OpenBabel11112417333D

 37 43  0  0  1  0  0  0  0  0999 V2000
  191.3820  175.4090  142.4840 C   0  0  1  0  0  3  0  0  0  0  0  0
  191.0520  176.9620  145.3890 O   0  0  0  0  0  0  0  0  0  0  0  0
  193.0490  174.1900  140.9020 C   0  0  2  0  0  3  0  0  0  0  0  0
  191.5290  175.1230  143.9320 C   0  0  2  0  0  3  0  0  0  0  0  0
  192.8230  175.2300  142.0290 C   0  0  2  0  0  3  0  0  0  0  0  0
  190.4890  175.8040  144.8280 C   0  0  2  0  0  3  0  0  0  0  0  0
  191.7940  173.3730  140.5600 C   0  0  0  0  0  2  0  0  0  0  0  0
  193.6100  175.0010  143.1820 O   0  0  0  0  0  0  0  0  0  0  0  0
  188.9820  174.9600  142.1440 C   0  0  0  0  0  2  0  0  0  0  0  0
  190.6520  174.1890  140.5640 O   0  0  0  0  0  0  0  0  0  0  0  0
  191.6090  175.3060  147.2570 C   0  0  0  0  0  2  0  0  0  0  0  0
  191.5940  176.7230  146.6900 C   0  0  1  0  0  3  0  0  0  0  0  0
  190.3890  174.4070  141.9190 C   0  0  1  0  0  3  0  0  0  0  0  0
  192.8860  175.5470  144.2080 N   0  0  2  0  0  0  0  0  0  0  0  0
  189.1520  176.0880  144.1070 C   0  0  1  0  0  3  0  0  0  0  0  0
  192.8950  175.8800  146.6840 C   0  0  2  0  0  3  0  0  0  0  0  0
  193.2810  174.9690  145.4960 C   0  0  2  0  0  3  0  0  0  0  0  0
  188.6520  174.9100  143.5130 O   0  0  0  0  0  0  0  0  0  0  0  0
  187.9490  175.9860  146.3830 C   0  0  0  0  0  2  0  0  0  0  0  0
  188.1380  176.6610  145.0460 C   0  0  0  0  0  0  0  0  0  0  0  0
  187.4380  177.7470  144.7000 C   0  0  0  0  0  3  0  0  0  0  0  0
  185.7890  179.3260  145.3030 O   0  0  0  0  0  0  0  0  0  0  0  0
  186.2130  177.6640  146.8800 N   0  0  0  0  0  0  0  0  0  0  0  0
  186.4430  178.2990  145.6210 C   0  0  0  0  0  0  0  0  0  0  0  0
  186.8800  176.6100  147.2460 C   0  0  0  0  0  3  0  0  0  0  0  0
  194.7850  174.7130  145.5640 C   0  0  0  0  0  2  0  0  0  0  0  0
  195.0890  173.2270  145.4360 C   0  0  0  0  0  0  0  0  0  0  0  0
  196.1300  172.8760  144.4000 C   0  0  0  0  0  2  0  0  0  0  0  0
  196.4730  172.8190  145.8830 C   0  0  0  0  0  2  0  0  0  0  0  0
  194.0120  172.1700  145.6650 C   0  0  0  0  0  2  0  0  0  0  0  0
  193.8560  171.2420  144.4670 C   0  0  0  0  0  2  0  0  0  0  0  0
  192.1900  171.3770  143.7570 S   0  0  0  0  0  1  0  0  0  0  0  0
  194.1060  173.3280  141.2070 O   0  0  0  0  0  0  0  0  0  0  0  0
  195.4540  173.9590  140.3950 P   0  0  0  0  0  4  0  0  0  0  0  0
  194.9560  175.0240  139.2000 F   0  0  0  0  0  0  0  0  0  0  0  0
  196.4500  174.7570  141.4800 F   0  0  0  0  0  0  0  0  0  0  0  0
  196.3070  172.7040  139.6890 F   0  0  0  0  0  0  0  0  0  0  0  0
  1  4  1  0  0  0  0
  2 12  1  0  0  0  0
  3 33  1  0  0  0  0
  3  5  1  0  0  0  0
  4 14  1  0  0  0  0
  4  6  1  0  0  0  0
  5  1  1  0  0  0  0
  5  8  1  0  0  0  0
  6  2  1  0  0  0  0
  7 10  1  0  0  0  0
  7  3  1  0  0  0  0
  8 14  1  0  0  0  0
  9 18  1  0  0  0  0
 10 13  1  0  0  0  0
 12 11  1  0  0  0  0
 13  9  1  0  0  0  0
 13  1  1  0  0  0  0
 14 17  1  0  0  0  0
 15  6  1  0  0  0  0
 15 20  1  0  0  0  0
 16 12  1  0  0  0  0
 16 11  1  0  0  0  0
 17 26  1  0  0  0  0
 17 16  1  0  0  0  0
 18 15  1  0  0  0  0
 19 25  1  0  0  0  0
 20 19  1  0  0  0  0
 21 20  2  0  0  0  0
 21 24  1  0  0  0  0
 22 24  2  0  0  0  0
 23 25  2  0  0  0  0
 24 23  1  0  0  0  0
 27 26  1  0  0  0  0
 27 30  1  0  0  0  0
 27 29  1  0  0  0  0
 28 27  1  0  0  0  0
 28 29  1  0  0  0  0
 31 30  1  0  0  0  0
 32 31  1  0  0  0  0
 34 33  1  0  0  0  0
 34 36  1  0  0  0  0
 35 34  1  0  0  0  0
 37 34  1  0  0  0  0
M  END
>  <MODEL>
4

>  <REMARK>
 VINA RESULT:      -7.0      2.574      3.480
  Name = 
  7 active torsions:
  status: ('A' for Active; 'I' for Inactive)
    1  A    between atoms: C_1  and  C_4
    2  A    between atoms: C_1  and  C_27
    3  A    between atoms: P_2  and  O_22
    4  A    between atoms: C_4  and  C_12
    5  A    between atoms: C_6  and  O_22
    6  A    between atoms: C_8  and  C_12
    7  A    between atoms: C_23  and  C_30
                            x       y       z     vdW  Elec       q    Type
                         _______ _______ _______ _____ _____    ______ ____

>  <TORSDO>
F 7

$$$$
=
 OpenBabel11112417333D

 37 43  0  0  1  0  0  0  0  0999 V2000
  186.6500  176.4300  142.7650 C   0  0  1  0  0  3  0  0  0  0  0  0
  188.4540  173.6760  142.4120 O   0  0  0  0  0  0  0  0  0  0  0  0
  185.8360  178.2360  144.4510 C   0  0  2  0  0  3  0  0  0  0  0  0
  188.0570  175.9820  142.9170 C   0  0  2  0  0  3  0  0  0  0  0  0
  186.3260  176.7860  144.2080 C   0  0  2  0  0  3  0  0  0  0  0  0
  188.5230  174.9700  141.8670 C   0  0  2  0  0  3  0  0  0  0  0  0
  185.9400  179.1350  143.2090 C   0  0  0  0  0  2  0  0  0  0  0  0
  187.4400  176.4210  144.9990 O   0  0  0  0  0  0  0  0  0  0  0  0
  186.5880  177.0210  140.3730 C   0  0  0  0  0  2  0  0  0  0  0  0
  185.5600  178.4330  142.0540 O   0  0  0  0  0  0  0  0  0  0  0  0
  190.8830  174.2220  142.9970 C   0  0  0  0  0  2  0  0  0  0  0  0
  189.7040  173.2530  142.9580 C   0  0  1  0  0  3  0  0  0  0  0  0
  186.6460  177.5940  141.7880 C   0  0  1  0  0  3  0  0  0  0  0  0
  188.0840  175.4590  144.2680 N   0  0  2  0  0  0  0  0  0  0  0  0
  187.7660  175.0860  140.5260 C   0  0  1  0  0  3  0  0  0  0  0  0
  190.0940  173.9770  144.2730 C   0  0  2  0  0  3  0  0  0  0  0  0
  189.4870  175.3410  144.6730 C   0  0  2  0  0  3  0  0  0  0  0  0
  187.8150  176.4100  140.0440 O   0  0  0  0  0  0  0  0  0  0  0  0
  188.2160  174.5390  138.0490 C   0  0  0  0  0  2  0  0  0  0  0  0
  188.3220  174.1460  139.5020 C   0  0  0  0  0  0  0  0  0  0  0  0
  188.9020  173.0030  139.8830 C   0  0  0  0  0  3  0  0  0  0  0  0
  189.9940  171.0130  139.2310 O   0  0  0  0  0  0  0  0  0  0  0  0
  189.3240  172.4090  137.4900 N   0  0  0  0  0  0  0  0  0  0  0  0
  189.4390  172.0850  138.8760 C   0  0  0  0  0  0  0  0  0  0  0  0
  188.7690  173.5140  137.0890 C   0  0  0  0  0  3  0  0  0  0  0  0
  189.6570  175.5110  146.1810 C   0  0  0  0  0  2  0  0  0  0  0  0
  191.0260  176.0900  146.5110 C   0  0  0  0  0  0  0  0  0  0  0  0
  191.1830  176.5910  147.9260 C   0  0  0  0  0  2  0  0  0  0  0  0
  191.8370  175.2840  147.4980 C   0  0  0  0  0  2  0  0  0  0  0  0
  191.8540  176.8270  145.4610 C   0  0  0  0  0  2  0  0  0  0  0  0
  193.1870  176.1390  145.1970 C   0  0  0  0  0  2  0  0  0  0  0  0
  194.5700  177.1680  145.7710 S   0  0  0  0  0  1  0  0  0  0  0  0
  186.5090  178.8310  145.5220 O   0  0  0  0  0  0  0  0  0  0  0  0
  185.4750  178.6650  146.8550 P   0  0  0  0  0  4  0  0  0  0  0  0
  183.8840  178.8900  146.3770 F   0  0  0  0  0  0  0  0  0  0  0  0
  185.6500  177.1410  147.5260 F   0  0  0  0  0  0  0  0  0  0  0  0
  185.8700  179.8180  148.0030 F   0  0  0  0  0  0  0  0  0  0  0  0
  1  4  1  0  0  0  0
  1  5  1  0  0  0  0
  2 12  1  0  0  0  0
  3 33  1  0  0  0  0
  4 14  1  0  0  0  0
  5  3  1  0  0  0  0
  5  8  1  0  0  0  0
  6  2  1  0  0  0  0
  6  4  1  0  0  0  0
  7  3  1  0  0  0  0
  9 13  1  0  0  0  0
 10  7  1  0  0  0  0
 11 16  1  0  0  0  0
 12 11  1  0  0  0  0
 12 16  1  0  0  0  0
 13 10  1  0  0  0  0
 13  1  1  0  0  0  0
 14 17  1  0  0  0  0
 14  8  1  0  0  0  0
 15  6  1  0  0  0  0
 16 17  1  0  0  0  0
 17 26  1  0  0  0  0
 18  9  1  0  0  0  0
 18 15  1  0  0  0  0
 19 20  1  0  0  0  0
 20 21  2  0  0  0  0
 20 15  1  0  0  0  0
 23 24  1  0  0  0  0
 24 22  2  0  0  0  0
 24 21  1  0  0  0  0
 25 23  2  0  0  0  0
 25 19  1  0  0  0  0
 26 27  1  0  0  0  0
 27 29  1  0  0  0  0
 27 28  1  0  0  0  0
 29 28  1  0  0  0  0
 30 27  1  0  0  0  0
 31 30  1  0  0  0  0
 31 32  1  0  0  0  0
 33 34  1  0  0  0  0
 34 36  1  0  0  0  0
 34 37  1  0  0  0  0
 35 34  1  0  0  0  0
M  END
>  <MODEL>
5

>  <REMARK>
 VINA RESULT:      -6.8      4.860      6.863
  Name = 
  7 active torsions:
  status: ('A' for Active; 'I' for Inactive)
    1  A    between atoms: C_1  and  C_4
    2  A    between atoms: C_1  and  C_27
    3  A    between atoms: P_2  and  O_22
    4  A    between atoms: C_4  and  C_12
    5  A    between atoms: C_6  and  O_22
    6  A    between atoms: C_8  and  C_12
    7  A    between atoms: C_23  and  C_30
                            x       y       z     vdW  Elec       q    Type
                         _______ _______ _______ _____ _____    ______ ____

>  <TORSDO>
F 7

$$$$
=
 OpenBabel11112417333D

 37 43  0  0  1  0  0  0  0  0999 V2000
  190.6920  174.9710  145.2520 C   0  0  1  0  0  3  0  0  0  0  0  0
  187.8470  174.9150  143.5600 O   0  0  0  0  0  0  0  0  0  0  0  0
  193.0750  173.9430  145.4380 C   0  0  2  0  0  3  0  0  0  0  0  0
  190.1990  175.2280  143.8760 C   0  0  2  0  0  3  0  0  0  0  0  0
  191.6000  173.7780  144.9900 C   0  0  2  0  0  3  0  0  0  0  0  0
  188.8220  175.8960  143.8050 C   0  0  2  0  0  3  0  0  0  0  0  0
  193.4190  175.3650  145.9050 C   0  0  0  0  0  2  0  0  0  0  0  0
  191.4550  173.4200  143.6300 O   0  0  0  0  0  0  0  0  0  0  0  0
  190.3320  177.1660  146.3130 C   0  0  0  0  0  2  0  0  0  0  0  0
  192.3720  175.9050  146.6700 O   0  0  0  0  0  0  0  0  0  0  0  0
  188.3300  175.6020  141.1450 C   0  0  0  0  0  2  0  0  0  0  0  0
  187.5410  174.7920  142.1700 C   0  0  1  0  0  3  0  0  0  0  0  0
  191.3920  176.2330  145.7290 C   0  0  1  0  0  3  0  0  0  0  0  0
  190.2290  173.9120  143.2720 N   0  0  2  0  0  0  0  0  0  0  0  0
  188.4940  176.7570  145.0450 C   0  0  1  0  0  3  0  0  0  0  0  0
  188.6680  174.1320  141.3340 C   0  0  2  0  0  3  0  0  0  0  0  0
  190.1340  174.0860  141.8190 C   0  0  2  0  0  3  0  0  0  0  0  0
  189.5250  177.6900  145.2840 O   0  0  0  0  0  0  0  0  0  0  0  0
  186.9740  178.2920  143.6400 C   0  0  0  0  0  2  0  0  0  0  0  0
  187.1860  177.4660  144.8860 C   0  0  0  0  0  0  0  0  0  0  0  0
  186.2390  177.3500  145.8230 C   0  0  0  0  0  3  0  0  0  0  0  0
  184.0660  177.9350  146.5390 O   0  0  0  0  0  0  0  0  0  0  0  0
  184.7430  178.8690  144.5140 N   0  0  0  0  0  0  0  0  0  0  0  0
  184.9630  178.0500  145.6640 C   0  0  0  0  0  0  0  0  0  0  0  0
  185.6420  178.9990  143.5850 C   0  0  0  0  0  3  0  0  0  0  0  0
  190.8470  172.9640  141.0680 C   0  0  0  0  0  2  0  0  0  0  0  0
  191.8820  173.5280  140.1040 C   0  0  0  0  0  0  0  0  0  0  0  0
  192.8280  174.5410  140.7050 C   0  0  0  0  0  2  0  0  0  0  0  0
  193.3090  173.1290  140.3970 C   0  0  0  0  0  2  0  0  0  0  0  0
  191.5690  173.7230  138.6230 C   0  0  0  0  0  2  0  0  0  0  0  0
  190.4410  172.8150  138.1520 C   0  0  0  0  0  2  0  0  0  0  0  0
  189.0320  173.7910  137.5520 S   0  0  0  0  0  1  0  0  0  0  0  0
  193.9620  173.5480  144.4330 O   0  0  0  0  0  0  0  0  0  0  0  0
  195.0470  172.4820  145.1790 P   0  0  0  0  0  4  0  0  0  0  0  0
  195.8960  171.6220  144.0170 F   0  0  0  0  0  0  0  0  0  0  0  0
  196.1200  173.3390  146.1380 F   0  0  0  0  0  0  0  0  0  0  0  0
  194.1920  171.4090  146.1380 F   0  0  0  0  0  0  0  0  0  0  0  0
  1 13  1  0  0  0  0
  2  6  1  0  0  0  0
  3  7  1  0  0  0  0
  4  1  1  0  0  0  0
  5  1  1  0  0  0  0
  5  3  1  0  0  0  0
  6  4  1  0  0  0  0
  6 15  1  0  0  0  0
  7 10  1  0  0  0  0
  8  5  1  0  0  0  0
 11 16  1  0  0  0  0
 11 12  1  0  0  0  0
 12  2  1  0  0  0  0
 13  9  1  0  0  0  0
 13 10  1  0  0  0  0
 14  8  1  0  0  0  0
 14  4  1  0  0  0  0
 15 18  1  0  0  0  0
 16 17  1  0  0  0  0
 16 12  1  0  0  0  0
 17 14  1  0  0  0  0
 18  9  1  0  0  0  0
 19 20  1  0  0  0  0
 20 15  1  0  0  0  0
 20 21  2  0  0  0  0
 23 24  1  0  0  0  0
 24 21  1  0  0  0  0
 24 22  2  0  0  0  0
 25 19  1  0  0  0  0
 25 23  2  0  0  0  0
 26 17  1  0  0  0  0
 27 29  1  0  0  0  0
 27 28  1  0  0  0  0
 27 26  1  0  0  0  0
 29 28  1  0  0  0  0
 30 27  1  0  0  0  0
 31 30  1  0  0  0  0
 32 31  1  0  0  0  0
 33 34  1  0  0  0  0
 33  3  1  0  0  0  0
 34 36  1  0  0  0  0
 34 37  1  0  0  0  0
 35 34  1  0  0  0  0
M  END
>  <MODEL>
6

>  <REMARK>
 VINA RESULT:      -6.8      2.786      4.886
  Name = 
  7 active torsions:
  status: ('A' for Active; 'I' for Inactive)
    1  A    between atoms: C_1  and  C_4
    2  A    between atoms: C_1  and  C_27
    3  A    between atoms: P_2  and  O_22
    4  A    between atoms: C_4  and  C_12
    5  A    between atoms: C_6  and  O_22
    6  A    between atoms: C_8  and  C_12
    7  A    between atoms: C_23  and  C_30
                            x       y       z     vdW  Elec       q    Type
                         _______ _______ _______ _____ _____    ______ ____

>  <TORSDO>
F 7

$$$$
=
 OpenBabel11112417333D

 37 43  0  0  1  0  0  0  0  0999 V2000
  191.1860  175.7810  144.2350 C   0  0  1  0  0  3  0  0  0  0  0  0
  188.2420  174.8240  143.0600 O   0  0  0  0  0  0  0  0  0  0  0  0
  193.5910  174.9950  144.8390 C   0  0  2  0  0  3  0  0  0  0  0  0
  190.6040  175.2070  142.9960 C   0  0  2  0  0  3  0  0  0  0  0  0
  192.0940  174.6360  144.6580 C   0  0  2  0  0  3  0  0  0  0  0  0
  189.2150  175.7430  142.6340 C   0  0  2  0  0  3  0  0  0  0  0  0
  193.9410  176.4170  144.3760 C   0  0  0  0  0  2  0  0  0  0  0  0
  191.8700  173.5610  143.7660 O   0  0  0  0  0  0  0  0  0  0  0  0
  190.8580  178.1930  143.8510 C   0  0  0  0  0  2  0  0  0  0  0  0
  192.9360  177.3240  144.7490 O   0  0  0  0  0  0  0  0  0  0  0  0
  188.5640  173.9770  140.6680 C   0  0  0  0  0  2  0  0  0  0  0  0
  187.8530  173.9270  142.0180 C   0  0  1  0  0  3  0  0  0  0  0  0
  191.8940  177.0700  143.8520 C   0  0  1  0  0  3  0  0  0  0  0  0
  190.6170  173.7840  143.2630 N   0  0  2  0  0  0  0  0  0  0  0  0
  188.9520  177.1690  143.1650 C   0  0  1  0  0  3  0  0  0  0  0  0
  188.9360  172.8790  141.6520 C   0  0  2  0  0  3  0  0  0  0  0  0
  190.4300  173.0890  141.9870 C   0  0  2  0  0  3  0  0  0  0  0  0
  189.9800  178.0450  142.7580 O   0  0  0  0  0  0  0  0  0  0  0  0
  187.2800  177.5460  141.2400 C   0  0  0  0  0  2  0  0  0  0  0  0
  187.6250  177.6860  142.7030 C   0  0  0  0  0  0  0  0  0  0  0  0
  186.7770  178.2400  143.5770 C   0  0  0  0  0  3  0  0  0  0  0  0
  184.6790  179.2610  143.9390 O   0  0  0  0  0  0  0  0  0  0  0  0
  185.1400  178.6650  141.7340 N   0  0  0  0  0  0  0  0  0  0  0  0
  185.4830  178.7480  143.1180 C   0  0  0  0  0  0  0  0  0  0  0  0
  185.9400  178.1290  140.8620 C   0  0  0  0  0  3  0  0  0  0  0  0
  191.1130  171.7230  141.9810 C   0  0  0  0  0  2  0  0  0  0  0  0
  191.7950  171.4620  140.6460 C   0  0  0  0  0  0  0  0  0  0  0  0
  192.4030  170.0880  140.4970 C   0  0  0  0  0  2  0  0  0  0  0  0
  191.1110  170.4390  139.7700 C   0  0  0  0  0  2  0  0  0  0  0  0
  192.5050  172.5770  139.8820 C   0  0  0  0  0  2  0  0  0  0  0  0
  193.7790  173.0300  140.5830 C   0  0  0  0  0  2  0  0  0  0  0  0
  193.7830  174.8310  140.8170 S   0  0  0  0  0  1  0  0  0  0  0  0
  194.4200  174.0710  144.1970 O   0  0  0  0  0  0  0  0  0  0  0  0
  195.8660  174.0680  145.0810 P   0  0  0  0  0  4  0  0  0  0  0  0
  195.6640  174.9180  146.5120 F   0  0  0  0  0  0  0  0  0  0  0  0
  196.3200  172.4920  145.4240 F   0  0  0  0  0  0  0  0  0  0  0  0
  197.0670  174.8000  144.1740 F   0  0  0  0  0  0  0  0  0  0  0  0
  1  5  1  0  0  0  0
  4 14  1  0  0  0  0
  4  1  1  0  0  0  0
  5  3  1  0  0  0  0
  6  4  1  0  0  0  0
  6  2  1  0  0  0  0
  6 15  1  0  0  0  0
  7 10  1  0  0  0  0
  7  3  1  0  0  0  0
  8  5  1  0  0  0  0
  9 13  1  0  0  0  0
 11 16  1  0  0  0  0
 11 12  1  0  0  0  0
 12  2  1  0  0  0  0
 13  1  1  0  0  0  0
 13 10  1  0  0  0  0
 14  8  1  0  0  0  0
 16 17  1  0  0  0  0
 16 12  1  0  0  0  0
 17 14  1  0  0  0  0
 18 15  1  0  0  0  0
 18  9  1  0  0  0  0
 19 20  1  0  0  0  0
 20 15  1  0  0  0  0
 20 21  2  0  0  0  0
 23 24  1  0  0  0  0
 24 21  1  0  0  0  0
 24 22  2  0  0  0  0
 25 19  1  0  0  0  0
 25 23  2  0  0  0  0
 26 17  1  0  0  0  0
 27 26  1  0  0  0  0
 28 27  1  0  0  0  0
 29 28  1  0  0  0  0
 29 27  1  0  0  0  0
 30 31  1  0  0  0  0
 30 27  1  0  0  0  0
 31 32  1  0  0  0  0
 33  3  1  0  0  0  0
 33 34  1  0  0  0  0
 34 36  1  0  0  0  0
 34 35  1  0  0  0  0
 37 34  1  0  0  0  0
M  END
>  <MODEL>
7

>  <REMARK>
 VINA RESULT:      -6.8      2.333      4.878
  Name = 
  7 active torsions:
  status: ('A' for Active; 'I' for Inactive)
    1  A    between atoms: C_1  and  C_4
    2  A    between atoms: C_1  and  C_27
    3  A    between atoms: P_2  and  O_22
    4  A    between atoms: C_4  and  C_12
    5  A    between atoms: C_6  and  O_22
    6  A    between atoms: C_8  and  C_12
    7  A    between atoms: C_23  and  C_30
                            x       y       z     vdW  Elec       q    Type
                         _______ _______ _______ _____ _____    ______ ____

>  <TORSDO>
F 7

$$$$
=
 OpenBabel11112417333D

 37 43  0  0  1  0  0  0  0  0999 V2000
  190.9160  175.7840  144.0610 C   0  0  1  0  0  3  0  0  0  0  0  0
  188.1120  174.5990  142.7580 O   0  0  0  0  0  0  0  0  0  0  0  0
  193.3360  175.1820  144.8000 C   0  0  2  0  0  3  0  0  0  0  0  0
  190.4410  175.1510  142.8050 C   0  0  2  0  0  3  0  0  0  0  0  0
  191.8810  174.7140  144.5500 C   0  0  2  0  0  3  0  0  0  0  0  0
  189.0380  175.5790  142.3640 C   0  0  2  0  0  3  0  0  0  0  0  0
  193.6080  176.6190  144.3280 C   0  0  0  0  0  2  0  0  0  0  0  0
  191.7800  173.6120  143.6690 O   0  0  0  0  0  0  0  0  0  0  0  0
  190.4380  178.1600  143.6150 C   0  0  0  0  0  2  0  0  0  0  0  0
  192.5230  177.4560  144.6330 O   0  0  0  0  0  0  0  0  0  0  0  0
  188.6160  173.7410  140.4020 C   0  0  0  0  0  2  0  0  0  0  0  0
  187.8420  173.6610  141.7150 C   0  0  1  0  0  3  0  0  0  0  0  0
  191.5490  177.1140  143.6890 C   0  0  1  0  0  3  0  0  0  0  0  0
  190.5410  173.7360  143.1000 N   0  0  2  0  0  0  0  0  0  0  0  0
  188.6470  176.9910  142.8530 C   0  0  1  0  0  3  0  0  0  0  0  0
  189.0140  172.6880  141.4240 C   0  0  2  0  0  3  0  0  0  0  0  0
  190.4700  173.0100  141.8290 C   0  0  2  0  0  3  0  0  0  0  0  0
  189.6300  177.9320  142.4830 O   0  0  0  0  0  0  0  0  0  0  0  0
  187.1360  177.4530  140.8180 C   0  0  0  0  0  2  0  0  0  0  0  0
  187.3120  177.4040  142.3160 C   0  0  0  0  0  0  0  0  0  0  0  0
  186.3130  177.7040  143.1530 C   0  0  0  0  0  3  0  0  0  0  0  0
  184.0670  178.3870  143.4050 O   0  0  0  0  0  0  0  0  0  0  0  0
  184.8210  178.2040  141.2080 N   0  0  0  0  0  0  0  0  0  0  0  0
  185.0120  178.1130  142.6210 C   0  0  0  0  0  0  0  0  0  0  0  0
  185.7710  177.9150  140.3700 C   0  0  0  0  0  3  0  0  0  0  0  0
  191.2480  171.6970  141.8840 C   0  0  0  0  0  2  0  0  0  0  0  0
  192.2270  171.5960  140.7220 C   0  0  0  0  0  0  0  0  0  0  0  0
  192.6150  172.9150  140.0990 C   0  0  0  0  0  2  0  0  0  0  0  0
  193.5980  172.1690  140.9930 C   0  0  0  0  0  2  0  0  0  0  0  0
  192.2150  170.4020  139.7710 C   0  0  0  0  0  2  0  0  0  0  0  0
  190.8210  169.8120  139.6100 C   0  0  0  0  0  2  0  0  0  0  0  0
  189.9200  170.6370  138.2670 S   0  0  0  0  0  1  0  0  0  0  0  0
  194.2610  174.3110  144.2170 O   0  0  0  0  0  0  0  0  0  0  0  0
  195.6630  174.4410  145.1600 P   0  0  0  0  0  4  0  0  0  0  0  0
  195.3200  175.2490  146.5890 F   0  0  0  0  0  0  0  0  0  0  0  0
  196.2610  172.9160  145.5080 F   0  0  0  0  0  0  0  0  0  0  0  0
  196.8200  175.3020  144.3090 F   0  0  0  0  0  0  0  0  0  0  0  0
  1  5  1  0  0  0  0
  4 14  1  0  0  0  0
  4  1  1  0  0  0  0
  5  3  1  0  0  0  0
  6  2  1  0  0  0  0
  6  4  1  0  0  0  0
  6 15  1  0  0  0  0
  7 10  1  0  0  0  0
  7  3  1  0  0  0  0
  8  5  1  0  0  0  0
  9 13  1  0  0  0  0
 11 16  1  0  0  0  0
 11 12  1  0  0  0  0
 12  2  1  0  0  0  0
 13  1  1  0  0  0  0
 13 10  1  0  0  0  0
 14  8  1  0  0  0  0
 16 12  1  0  0  0  0
 16 17  1  0  0  0  0
 17 26  1  0  0  0  0
 17 14  1  0  0  0  0
 18 15  1  0  0  0  0
 18  9  1  0  0  0  0
 19 20  1  0  0  0  0
 20 15  1  0  0  0  0
 20 21  2  0  0  0  0
 23 24  1  0  0  0  0
 24 21  1  0  0  0  0
 24 22  2  0  0  0  0
 25 19  1  0  0  0  0
 25 23  2  0  0  0  0
 27 29  1  0  0  0  0
 27 26  1  0  0  0  0
 28 27  1  0  0  0  0
 28 29  1  0  0  0  0
 30 27  1  0  0  0  0
 31 30  1  0  0  0  0
 32 31  1  0  0  0  0
 33  3  1  0  0  0  0
 33 34  1  0  0  0  0
 34 36  1  0  0  0  0
 34 35  1  0  0  0  0
 37 34  1  0  0  0  0
M  END
>  <MODEL>
8

>  <REMARK>
 VINA RESULT:      -6.8      2.567      4.961
  Name = 
  7 active torsions:
  status: ('A' for Active; 'I' for Inactive)
    1  A    between atoms: C_1  and  C_4
    2  A    between atoms: C_1  and  C_27
    3  A    between atoms: P_2  and  O_22
    4  A    between atoms: C_4  and  C_12
    5  A    between atoms: C_6  and  O_22
    6  A    between atoms: C_8  and  C_12
    7  A    between atoms: C_23  and  C_30
                            x       y       z     vdW  Elec       q    Type
                         _______ _______ _______ _____ _____    ______ ____

>  <TORSDO>
F 7

$$$$
=
 OpenBabel11112417333D

 37 43  0  0  1  0  0  0  0  0999 V2000
  191.3800  175.0840  145.5610 C   0  0  1  0  0  3  0  0  0  0  0  0
  188.5660  174.7400  143.8510 O   0  0  0  0  0  0  0  0  0  0  0  0
  193.8750  174.3650  145.7150 C   0  0  2  0  0  3  0  0  0  0  0  0
  190.8580  175.3400  144.1960 C   0  0  2  0  0  3  0  0  0  0  0  0
  192.4350  174.0320  145.2510 C   0  0  2  0  0  3  0  0  0  0  0  0
  189.4070  175.8260  144.1470 C   0  0  2  0  0  3  0  0  0  0  0  0
  194.0330  175.7970  146.2500 C   0  0  0  0  0  2  0  0  0  0  0  0
  192.3370  173.7220  143.8740 O   0  0  0  0  0  0  0  0  0  0  0  0
  190.7390  177.1630  146.7200 C   0  0  0  0  0  2  0  0  0  0  0  0
  192.9250  176.1610  147.0320 O   0  0  0  0  0  0  0  0  0  0  0  0
  188.9580  175.5960  141.4720 C   0  0  0  0  0  2  0  0  0  0  0  0
  188.2790  174.6440  142.4550 C   0  0  1  0  0  3  0  0  0  0  0  0
  191.9110  176.4020  146.1000 C   0  0  1  0  0  3  0  0  0  0  0  0
  191.0580  174.0680  143.5310 N   0  0  2  0  0  0  0  0  0  0  0  0
  188.9700  176.5790  145.4230 C   0  0  1  0  0  3  0  0  0  0  0  0
  189.4830  174.1740  141.5960 C   0  0  2  0  0  3  0  0  0  0  0  0
  190.9430  174.2950  142.0880 C   0  0  2  0  0  3  0  0  0  0  0  0
  189.8710  177.6260  145.7110 O   0  0  0  0  0  0  0  0  0  0  0  0
  186.5710  176.7500  146.3480 C   0  0  0  0  0  2  0  0  0  0  0  0
  187.5800  177.1200  145.2880 C   0  0  0  0  0  0  0  0  0  0  0  0
  187.2640  177.9160  144.2610 C   0  0  0  0  0  3  0  0  0  0  0  0
  185.6030  179.1930  143.1730 O   0  0  0  0  0  0  0  0  0  0  0  0
  184.9120  178.0770  145.0980 N   0  0  0  0  0  0  0  0  0  0  0  0
  185.9020  178.4360  144.1330 C   0  0  0  0  0  0  0  0  0  0  0  0
  185.1900  177.3090  146.1100 C   0  0  0  0  0  3  0  0  0  0  0  0
  191.7950  173.3110  141.2910 C   0  0  0  0  0  2  0  0  0  0  0  0
  192.9020  174.0370  140.5390 C   0  0  0  0  0  0  0  0  0  0  0  0
  193.7030  173.1740  139.5940 C   0  0  0  0  0  2  0  0  0  0  0  0
  192.6820  174.1660  139.0500 C   0  0  0  0  0  2  0  0  0  0  0  0
  193.6650  175.1990  141.1700 C   0  0  0  0  0  2  0  0  0  0  0  0
  195.1590  175.1240  140.8860 C   0  0  0  0  0  2  0  0  0  0  0  0
  196.0560  176.4160  141.7950 S   0  0  0  0  0  1  0  0  0  0  0  0
  194.8070  174.1350  144.6990 O   0  0  0  0  0  0  0  0  0  0  0  0
  195.9250  173.0400  145.3470 P   0  0  0  0  0  4  0  0  0  0  0  0
  196.9420  172.4760  144.1400 F   0  0  0  0  0  0  0  0  0  0  0  0
  196.8320  173.7900  146.5390 F   0  0  0  0  0  0  0  0  0  0  0  0
  195.1020  171.7470  146.0180 F   0  0  0  0  0  0  0  0  0  0  0  0
  1 13  1  0  0  0  0
  2  6  1  0  0  0  0
  3  7  1  0  0  0  0
  4  1  1  0  0  0  0
  5  1  1  0  0  0  0
  5  3  1  0  0  0  0
  6  4  1  0  0  0  0
  6 15  1  0  0  0  0
  7 10  1  0  0  0  0
  8  5  1  0  0  0  0
 11 16  1  0  0  0  0
 11 12  1  0  0  0  0
 12  2  1  0  0  0  0
 13  9  1  0  0  0  0
 13 10  1  0  0  0  0
 14  8  1  0  0  0  0
 14  4  1  0  0  0  0
 15 18  1  0  0  0  0
 16 17  1  0  0  0  0
 16 12  1  0  0  0  0
 17 14  1  0  0  0  0
 18  9  1  0  0  0  0
 20 15  1  0  0  0  0
 20 19  1  0  0  0  0
 21 20  2  0  0  0  0
 22 24  2  0  0  0  0
 23 25  2  0  0  0  0
 24 21  1  0  0  0  0
 24 23  1  0  0  0  0
 25 19  1  0  0  0  0
 26 17  1  0  0  0  0
 27 30  1  0  0  0  0
 27 26  1  0  0  0  0
 28 27  1  0  0  0  0
 29 28  1  0  0  0  0
 29 27  1  0  0  0  0
 31 30  1  0  0  0  0
 31 32  1  0  0  0  0
 33 34  1  0  0  0  0
 33  3  1  0  0  0  0
 34 37  1  0  0  0  0
 34 36  1  0  0  0  0
 35 34  1  0  0  0  0
M  END
>  <MODEL>
9

>  <REMARK>
 VINA RESULT:      -6.7      2.831      4.908
  Name = 
  7 active torsions:
  status: ('A' for Active; 'I' for Inactive)
    1  A    between atoms: C_1  and  C_4
    2  A    between atoms: C_1  and  C_27
    3  A    between atoms: P_2  and  O_22
    4  A    between atoms: C_4  and  C_12
    5  A    between atoms: C_6  and  O_22
    6  A    between atoms: C_8  and  C_12
    7  A    between atoms: C_23  and  C_30
                            x       y       z     vdW  Elec       q    Type
                         _______ _______ _______ _____ _____    ______ ____

>  <TORSDO>
F 7

$$$$
