=
 OpenBabel11112418023D

 34 40  0  0  1  0  0  0  0  0999 V2000
  187.8440  176.9410  146.3600 C   0  0  1  0  0  3  0  0  0  0  0  0
  189.0950  175.1280  147.2100 C   0  0  0  0  0  2  0  0  0  0  0  0
  184.5340  178.4180  141.2500 C   0  0  1  0  0  3  0  0  0  0  0  0
  186.3780  178.6930  145.1030 C   0  0  0  0  0  0  0  0  0  0  0  0
  186.6260  178.8240  142.5580 C   0  0  2  0  0  3  0  0  0  0  0  0
  186.4450  176.9540  141.0480 O   0  0  0  0  0  1  0  0  0  0  0  0
  184.3290  177.9120  139.9640 O   0  0  0  0  0  1  0  0  0  0  0  0
  183.4120  178.5750  143.8480 S   0  0  0  0  0  0  0  0  0  0  0  0
  189.1210  175.3750  144.8820 C   0  0  1  0  0  3  0  0  0  0  0  0
  192.0140  175.0120  143.5060 C   0  0  0  0  0  2  0  0  0  0  0  0
  187.9580  178.2850  142.8210 N   0  0  0  0  0  2  0  0  0  0  0  0
  184.6030  179.9570  143.7250 C   0  0  0  0  0  2  0  0  0  0  0  0
  189.4630  176.6730  144.1150 C   0  0  2  0  0  3  0  0  0  0  0  0
  190.0660  174.0960  146.6990 C   0  0  0  0  0  2  0  0  0  0  0  0
  186.0570  179.4710  143.8420 C   0  0  1  0  0  3  0  0  0  0  0  0
  183.2390  178.2940  142.0480 C   0  0  0  0  0  2  0  0  0  0  0  0
  191.7050  175.0580  144.9960 C   0  0  1  0  0  3  0  0  0  0  0  0
  187.4750  177.6870  145.0950 C   0  0  0  0  0  0  0  0  0  0  0  0
  185.7180  177.7410  141.9510 C   0  0  2  0  0  3  0  0  0  0  0  0
  188.2420  177.5390  144.0140 C   0  0  0  0  0  0  0  0  0  0  0  0
  186.1550  178.3500  147.5580 C   0  0  0  0  0  2  0  0  0  0  0  0
  191.5420  176.2710  142.7980 C   0  0  0  0  0  2  0  0  0  0  0  0
  185.7670  178.9930  146.2580 C   0  0  0  0  0  3  0  0  0  0  0  0
  190.0260  176.3430  142.7390 C   0  0  0  0  0  2  0  0  0  0  0  0
  190.3030  174.4580  145.2470 C   0  0  2  0  0  3  0  0  0  0  0  0
  186.6550  176.9270  147.3270 C   0  0  0  0  0  2  0  0  0  0  0  0
  188.2760  175.5590  146.0860 N   0  0  2  0  0  0  0  0  0  0  0  0
  192.8010  174.2750  145.7070 C   0  0  0  0  0  2  0  0  0  0  0  0
  194.1330  174.9850  145.5460 C   0  0  0  0  0  2  0  0  0  0  0  0
  196.9840  173.2690  146.1790 C   0  0  0  0  0  2  0  0  0  0  0  0
  194.8120  172.7460  145.3940 C   0  0  0  0  0  2  0  0  0  0  0  0
  195.0940  174.0950  144.9150 N   0  0  0  0  0  0  0  0  0  0  0  0
  196.1260  172.1080  145.7670 C   0  0  0  0  0  2  0  0  0  0  0  0
  196.4110  174.4560  145.4320 C   0  0  0  0  0  2  0  0  0  0  0  0
  1 26  1  1  0  0  0
  3  7  1  6  0  0  0
  3 19  1  0  0  0  0
  3 16  1  0  0  0  0
  4 23  2  0  0  0  0
  5 11  1  1  0  0  0
  5 15  1  0  0  0  0
  6 19  1  0  0  0  0
  9 25  1  0  0  0  0
  9 27  1  0  0  0  0
 10 17  1  0  0  0  0
 11 20  1  0  0  0  0
 12 15  1  0  0  0  0
 12  8  1  0  0  0  0
 13  9  1  0  0  0  0
 14  2  1  0  0  0  0
 15  4  1  0  0  0  0
 16  8  1  0  0  0  0
 17 25  1  0  0  0  0
 17 28  1  0  0  0  0
 18  4  1  0  0  0  0
 18  1  1  0  0  0  0
 19  5  1  0  0  0  0
 20 13  1  0  0  0  0
 20 18  2  0  0  0  0
 22 10  1  0  0  0  0
 23 21  1  0  0  0  0
 24 22  1  0  0  0  0
 24 13  1  0  0  0  0
 25 14  1  0  0  0  0
 26 21  1  0  0  0  0
 27  1  1  0  0  0  0
 27  2  1  0  0  0  0
 29 28  1  0  0  0  0
 31 33  1  0  0  0  0
 32 31  1  0  0  0  0
 32 34  1  0  0  0  0
 32 29  1  0  0  0  0
 33 30  1  0  0  0  0
 34 30  1  0  0  0  0
M  END
>  <MODEL>
1

>  <REMARK>
 VINA RESULT:      -8.7      0.000      0.000
  Name = 
  3 active torsions:
  status: ('A' for Active; 'I' for Inactive)
    1  A    between atoms: C_17  and  C_28
    2  A    between atoms: C_28  and  C_29
    3  A    between atoms: C_29  and  N_32
                            x       y       z     vdW  Elec       q    Type
                         _______ _______ _______ _____ _____    ______ ____

>  <TORSDO>
F 3

$$$$
=
 OpenBabel11112418023D

 34 40  0  0  1  0  0  0  0  0999 V2000
  187.3230  176.4610  145.7720 C   0  0  1  0  0  3  0  0  0  0  0  0
  185.5190  177.9840  145.7630 C   0  0  0  0  0  2  0  0  0  0  0  0
  193.2040  176.0860  143.6470 C   0  0  1  0  0  3  0  0  0  0  0  0
  189.5260  175.0790  145.5900 C   0  0  0  0  0  0  0  0  0  0  0  0
  190.8550  175.2660  143.4090 C   0  0  2  0  0  3  0  0  0  0  0  0
  191.5620  177.3310  142.3880 O   0  0  0  0  0  1  0  0  0  0  0  0
  194.0360  176.7820  142.7660 O   0  0  0  0  0  1  0  0  0  0  0  0
  192.5840  175.7100  146.3870 S   0  0  0  0  0  0  0  0  0  0  0  0
  186.9140  178.0530  143.8840 C   0  0  1  0  0  3  0  0  0  0  0  0
  185.3820  178.2610  141.0560 C   0  0  0  0  0  2  0  0  0  0  0  0
  189.5550  175.6060  142.8350 N   0  0  0  0  0  2  0  0  0  0  0  0
  191.9590  174.2280  145.5160 C   0  0  0  0  0  2  0  0  0  0  0  0
  187.3240  176.8410  143.0170 C   0  0  2  0  0  3  0  0  0  0  0  0
  184.8750  178.9560  144.8090 C   0  0  0  0  0  2  0  0  0  0  0  0
  190.6590  174.5210  144.7500 C   0  0  1  0  0  3  0  0  0  0  0  0
  193.7330  176.2510  145.0690 C   0  0  0  0  0  2  0  0  0  0  0  0
  184.7550  178.0500  142.4270 C   0  0  1  0  0  3  0  0  0  0  0  0
  188.4910  175.9410  144.9600 C   0  0  0  0  0  0  0  0  0  0  0  0
  191.7390  176.5200  143.5150 C   0  0  2  0  0  3  0  0  0  0  0  0
  188.4970  176.1450  143.6410 C   0  0  0  0  0  0  0  0  0  0  0  0
  188.1940  175.1090  147.6920 C   0  0  0  0  0  2  0  0  0  0  0  0
  186.3910  177.1730  140.7290 C   0  0  0  0  0  2  0  0  0  0  0  0
  189.3790  174.6980  146.8670 C   0  0  0  0  0  3  0  0  0  0  0  0
  187.6340  177.2870  141.5940 C   0  0  0  0  0  2  0  0  0  0  0  0
  185.6070  178.7690  143.4960 C   0  0  2  0  0  3  0  0  0  0  0  0
  187.6880  176.4820  147.2610 C   0  0  0  0  0  2  0  0  0  0  0  0
  186.9030  177.8080  145.3460 N   0  0  2  0  0  0  0  0  0  0  0  0
  183.3340  178.5960  142.3610 C   0  0  0  0  0  2  0  0  0  0  0  0
  182.6980  178.2280  141.0330 C   0  0  0  0  0  2  0  0  0  0  0  0
  179.3370  177.8460  141.1770 C   0  0  0  0  0  2  0  0  0  0  0  0
  180.9410  179.2620  142.1900 C   0  0  0  0  0  2  0  0  0  0  0  0
  181.4570  178.9650  140.8580 N   0  0  0  0  0  0  0  0  0  0  0  0
  179.4680  178.9440  142.1930 C   0  0  0  0  0  2  0  0  0  0  0  0
  180.5050  178.0510  140.2350 C   0  0  0  0  0  2  0  0  0  0  0  0
  1 26  1  1  0  0  0
  3  7  1  6  0  0  0
  3 16  1  0  0  0  0
  4 23  2  0  0  0  0
  5 11  1  1  0  0  0
  5 19  1  0  0  0  0
  5 15  1  0  0  0  0
  6 19  1  0  0  0  0
  9 27  1  0  0  0  0
 10 17  1  0  0  0  0
 11 20  1  0  0  0  0
 12  8  1  0  0  0  0
 13 20  1  0  0  0  0
 13  9  1  0  0  0  0
 14  2  1  0  0  0  0
 15 12  1  0  0  0  0
 15  4  1  0  0  0  0
 16  8  1  0  0  0  0
 17 25  1  0  0  0  0
 18  4  1  0  0  0  0
 18  1  1  0  0  0  0
 19  3  1  0  0  0  0
 20 18  2  0  0  0  0
 22 10  1  0  0  0  0
 22 24  1  0  0  0  0
 23 21  1  0  0  0  0
 24 13  1  0  0  0  0
 25  9  1  0  0  0  0
 25 14  1  0  0  0  0
 26 21  1  0  0  0  0
 27  2  1  0  0  0  0
 27  1  1  0  0  0  0
 28 17  1  0  0  0  0
 29 28  1  0  0  0  0
 30 33  1  0  0  0  0
 31 33  1  0  0  0  0
 32 29  1  0  0  0  0
 32 31  1  0  0  0  0
 34 32  1  0  0  0  0
 34 30  1  0  0  0  0
M  END
>  <MODEL>
2

>  <REMARK>
 VINA RESULT:      -8.7      3.131      9.054
  Name = 
  3 active torsions:
  status: ('A' for Active; 'I' for Inactive)
    1  A    between atoms: C_17  and  C_28
    2  A    between atoms: C_28  and  C_29
    3  A    between atoms: C_29  and  N_32
                            x       y       z     vdW  Elec       q    Type
                         _______ _______ _______ _____ _____    ______ ____

>  <TORSDO>
F 3

$$$$
=
 OpenBabel11112418023D

 34 40  0  0  1  0  0  0  0  0999 V2000
  192.3990  176.0230  145.0190 C   0  0  1  0  0  3  0  0  0  0  0  0
  190.4610  177.3150  145.4080 C   0  0  0  0  0  2  0  0  0  0  0  0
  196.3150  174.6730  140.3190 C   0  0  1  0  0  3  0  0  0  0  0  0
  194.5310  174.7600  144.2090 C   0  0  0  0  0  0  0  0  0  0  0  0
  194.5090  173.8250  141.8250 C   0  0  2  0  0  3  0  0  0  0  0  0
  193.9840  175.0920  139.8430 O   0  0  0  0  0  1  0  0  0  0  0  0
  196.3660  174.8330  138.9320 O   0  0  0  0  0  1  0  0  0  0  0  0
  197.2480  175.7360  142.7750 S   0  0  0  0  0  0  0  0  0  0  0  0
  190.6750  176.4320  143.2500 C   0  0  1  0  0  3  0  0  0  0  0  0
  187.9790  175.1610  142.0250 C   0  0  0  0  0  2  0  0  0  0  0  0
  193.0600  173.8150  142.0150 N   0  0  0  0  0  2  0  0  0  0  0  0
  196.7480  174.0120  143.1240 C   0  0  0  0  0  2  0  0  0  0  0  0
  190.9490  174.9510  142.9020 C   0  0  2  0  0  3  0  0  0  0  0  0
  189.1800  177.6610  144.6940 C   0  0  0  0  0  2  0  0  0  0  0  0
  195.2190  173.8630  143.1980 C   0  0  1  0  0  3  0  0  0  0  0  0
  197.3920  175.5430  140.9610 C   0  0  0  0  0  2  0  0  0  0  0  0
  188.1920  175.6690  143.4430 C   0  0  1  0  0  3  0  0  0  0  0  0
  193.1180  175.1740  143.9920 C   0  0  0  0  0  0  0  0  0  0  0  0
  194.9180  174.9670  140.8790 C   0  0  2  0  0  3  0  0  0  0  0  0
  192.4230  174.6790  142.9660 C   0  0  0  0  0  0  0  0  0  0  0  0
  194.4480  175.8420  146.4480 C   0  0  0  0  0  2  0  0  0  0  0  0
  188.9720  174.0660  141.6680 C   0  0  0  0  0  2  0  0  0  0  0  0
  195.1430  175.0800  145.3580 C   0  0  0  0  0  3  0  0  0  0  0  0
  190.3810  174.6150  141.5300 C   0  0  0  0  0  2  0  0  0  0  0  0
  189.2000  176.8400  143.4220 C   0  0  2  0  0  3  0  0  0  0  0  0
  193.4170  176.8010  145.8620 C   0  0  0  0  0  2  0  0  0  0  0  0
  191.4490  176.9640  144.3980 N   0  0  2  0  0  0  0  0  0  0  0  0
  186.8300  176.0940  143.9780 C   0  0  0  0  0  2  0  0  0  0  0  0
  186.0030  176.7090  142.8640 C   0  0  0  0  0  2  0  0  0  0  0  0
  185.7400  179.0370  145.3090 C   0  0  0  0  0  2  0  0  0  0  0  0
  185.5130  179.0000  142.9530 C   0  0  0  0  0  2  0  0  0  0  0  0
  185.0790  177.6860  143.4150 N   0  0  0  0  0  0  0  0  0  0  0  0
  185.4820  179.9350  144.1340 C   0  0  0  0  0  2  0  0  0  0  0  0
  185.2590  177.6710  144.8630 C   0  0  0  0  0  2  0  0  0  0  0  0
  1 26  1  6  0  0  0
  3  7  1  6  0  0  0
  3 19  1  0  0  0  0
  3 16  1  0  0  0  0
  4 23  2  0  0  0  0
  5 11  1  1  0  0  0
  5 15  1  0  0  0  0
  6 19  1  0  0  0  0
  8 12  1  0  0  0  0
  9 25  1  0  0  0  0
  9 27  1  0  0  0  0
 10 17  1  0  0  0  0
 11 20  1  0  0  0  0
 12 15  1  0  0  0  0
 13 20  1  0  0  0  0
 13  9  1  0  0  0  0
 14  2  1  0  0  0  0
 15  4  1  0  0  0  0
 16  8  1  0  0  0  0
 17 28  1  0  0  0  0
 18  4  1  0  0  0  0
 18  1  1  0  0  0  0
 19  5  1  0  0  0  0
 20 18  2  0  0  0  0
 22 10  1  0  0  0  0
 23 21  1  0  0  0  0
 24 22  1  0  0  0  0
 24 13  1  0  0  0  0
 25 17  1  0  0  0  0
 25 14  1  0  0  0  0
 26 21  1  0  0  0  0
 27  1  1  0  0  0  0
 27  2  1  0  0  0  0
 29 32  1  0  0  0  0
 29 28  1  0  0  0  0
 31 32  1  0  0  0  0
 31 33  1  0  0  0  0
 32 34  1  0  0  0  0
 33 30  1  0  0  0  0
 34 30  1  0  0  0  0
M  END
>  <MODEL>
3

>  <REMARK>
 VINA RESULT:      -8.4      3.999      8.848
  Name = 
  3 active torsions:
  status: ('A' for Active; 'I' for Inactive)
    1  A    between atoms: C_17  and  C_28
    2  A    between atoms: C_28  and  C_29
    3  A    between atoms: C_29  and  N_32
                            x       y       z     vdW  Elec       q    Type
                         _______ _______ _______ _____ _____    ______ ____

>  <TORSDO>
F 3

$$$$
=
 OpenBabel11112418023D

 34 40  0  0  1  0  0  0  0  0999 V2000
  193.3310  176.2990  143.0560 C   0  0  1  0  0  3  0  0  0  0  0  0
  191.0300  176.7220  142.7290 C   0  0  0  0  0  2  0  0  0  0  0  0
  197.0420  171.7050  145.1460 C   0  0  1  0  0  3  0  0  0  0  0  0
  195.7500  175.4530  143.5310 C   0  0  0  0  0  0  0  0  0  0  0  0
  196.0950  173.9750  145.5940 C   0  0  2  0  0  3  0  0  0  0  0  0
  194.8400  171.9810  146.0970 O   0  0  0  0  0  1  0  0  0  0  0  0
  196.9110  170.4950  145.8300 O   0  0  0  0  0  1  0  0  0  0  0  0
  197.3910  172.8490  142.5760 S   0  0  0  0  0  0  0  0  0  0  0  0
  191.5580  175.3150  144.5240 C   0  0  1  0  0  3  0  0  0  0  0  0
  189.9300  175.9060  147.2420 C   0  0  0  0  0  2  0  0  0  0  0  0
  194.9040  174.6640  146.0870 N   0  0  0  0  0  2  0  0  0  0  0  0
  197.9410  174.1150  143.7740 C   0  0  0  0  0  2  0  0  0  0  0  0
  192.5760  175.6230  145.6460 C   0  0  2  0  0  3  0  0  0  0  0  0
  189.7280  176.4540  143.4370 C   0  0  0  0  0  2  0  0  0  0  0  0
  196.7530  174.8040  144.4650 C   0  0  1  0  0  3  0  0  0  0  0  0
  197.5040  171.4240  143.7190 C   0  0  0  0  0  2  0  0  0  0  0  0
  189.9170  176.7350  145.9660 C   0  0  1  0  0  3  0  0  0  0  0  0
  194.3320  175.6040  143.9540 C   0  0  0  0  0  0  0  0  0  0  0  0
  195.7510  172.5320  145.1880 C   0  0  2  0  0  3  0  0  0  0  0  0
  193.9590  175.2620  145.1890 C   0  0  0  0  0  0  0  0  0  0  0  0
  195.2280  176.7850  141.4940 C   0  0  0  0  0  2  0  0  0  0  0  0
  191.3360  175.7650  147.8030 C   0  0  0  0  0  2  0  0  0  0  0  0
  196.1570  176.0060  142.3800 C   0  0  0  0  0  3  0  0  0  0  0  0
  192.2010  174.8820  146.9220 C   0  0  0  0  0  2  0  0  0  0  0  0
  190.1150  175.8040  144.7490 C   0  0  2  0  0  3  0  0  0  0  0  0
  193.8060  176.2430  141.5990 C   0  0  0  0  0  2  0  0  0  0  0  0
  191.9840  175.7080  143.1600 N   0  0  2  0  0  0  0  0  0  0  0  0
  188.5820  177.4670  145.9180 C   0  0  0  0  0  2  0  0  0  0  0  0
  187.4580  176.5240  146.3070 C   0  0  0  0  0  2  0  0  0  0  0  0
  184.5280  178.2130  146.4610 C   0  0  0  0  0  2  0  0  0  0  0  0
  186.4110  178.1850  145.0270 C   0  0  0  0  0  2  0  0  0  0  0  0
  186.2700  176.8210  145.5250 N   0  0  0  0  0  0  0  0  0  0  0  0
  185.1000  178.8930  145.2510 C   0  0  0  0  0  2  0  0  0  0  0  0
  185.1420  176.8280  146.4510 C   0  0  0  0  0  2  0  0  0  0  0  0
  1 26  1  6  0  0  0
  1 27  1  0  0  0  0
  1 18  1  0  0  0  0
  2 27  1  0  0  0  0
  2 14  1  0  0  0  0
  3 19  1  0  0  0  0
  3  7  1  6  0  0  0
  4 18  1  0  0  0  0
  4 15  1  0  0  0  0
  5 11  1  6  0  0  0
  8 16  1  0  0  0  0
  8 12  1  0  0  0  0
  9 25  1  0  0  0  0
  9 13  1  0  0  0  0
 10 22  1  0  0  0  0
 12 15  1  0  0  0  0
 13 24  1  0  0  0  0
 14 25  1  0  0  0  0
 15  5  1  0  0  0  0
 16  3  1  0  0  0  0
 17 10  1  0  0  0  0
 18 20  2  0  0  0  0
 19  5  1  0  0  0  0
 19  6  1  0  0  0  0
 20 13  1  0  0  0  0
 20 11  1  0  0  0  0
 21 26  1  0  0  0  0
 21 23  1  0  0  0  0
 23  4  2  0  0  0  0
 24 22  1  0  0  0  0
 25 17  1  0  0  0  0
 27  9  1  0  0  0  0
 28 17  1  0  0  0  0
 28 29  1  0  0  0  0
 31 33  1  0  0  0  0
 31 32  1  0  0  0  0
 32 29  1  0  0  0  0
 32 34  1  0  0  0  0
 33 30  1  0  0  0  0
 34 30  1  0  0  0  0
M  END
>  <MODEL>
4

>  <REMARK>
 VINA RESULT:      -8.3      4.332      9.742
  Name = 
  3 active torsions:
  status: ('A' for Active; 'I' for Inactive)
    1  A    between atoms: C_17  and  C_28
    2  A    between atoms: C_28  and  C_29
    3  A    between atoms: C_29  and  N_32
                            x       y       z     vdW  Elec       q    Type
                         _______ _______ _______ _____ _____    ______ ____

>  <TORSDO>
F 3

$$$$
=
 OpenBabel11112418023D

 34 40  0  0  1  0  0  0  0  0999 V2000
  192.4120  176.2870  144.8170 C   0  0  1  0  0  3  0  0  0  0  0  0
  191.0190  177.9410  143.8680 C   0  0  0  0  0  2  0  0  0  0  0  0
  195.7550  171.3100  143.0020 C   0  0  1  0  0  3  0  0  0  0  0  0
  194.0080  174.3340  145.4760 C   0  0  0  0  0  0  0  0  0  0  0  0
  193.7300  172.1160  144.2260 C   0  0  2  0  0  3  0  0  0  0  0  0
  193.7180  171.8670  141.8290 O   0  0  0  0  0  1  0  0  0  0  0  0
  195.8930  170.5110  141.8640 O   0  0  0  0  0  1  0  0  0  0  0  0
  196.9300  173.4450  144.4480 S   0  0  0  0  0  0  0  0  0  0  0  0
  190.9750  175.8500  142.8140 C   0  0  1  0  0  3  0  0  0  0  0  0
  188.0400  174.7920  142.0070 C   0  0  0  0  0  2  0  0  0  0  0  0
  192.3590  172.5830  144.0300 N   0  0  0  0  0  2  0  0  0  0  0  0
  195.8650  172.5530  145.6360 C   0  0  0  0  0  2  0  0  0  0  0  0
  190.7380  174.4910  143.5110 C   0  0  2  0  0  3  0  0  0  0  0  0
  189.9500  178.0360  142.8090 C   0  0  0  0  0  2  0  0  0  0  0  0
  194.3760  172.8640  145.4160 C   0  0  1  0  0  3  0  0  0  0  0  0
  197.0470  172.0920  143.2220 C   0  0  0  0  0  2  0  0  0  0  0  0
  188.3760  176.0280  142.8270 C   0  0  1  0  0  3  0  0  0  0  0  0
  192.8250  174.8330  144.7240 C   0  0  0  0  0  0  0  0  0  0  0  0
  194.5270  172.2240  142.9150 C   0  0  2  0  0  3  0  0  0  0  0  0
  192.0300  173.9790  144.0770 C   0  0  0  0  0  0  0  0  0  0  0  0
  194.2390  176.5890  146.5020 C   0  0  0  0  0  2  0  0  0  0  0  0
  188.6100  173.5310  142.6360 C   0  0  0  0  0  2  0  0  0  0  0  0
  194.6620  175.1620  146.3020 C   0  0  0  0  0  3  0  0  0  0  0  0
  190.1250  173.4940  142.5360 C   0  0  0  0  0  2  0  0  0  0  0  0
  189.7230  176.6130  142.3440 C   0  0  2  0  0  3  0  0  0  0  0  0
  193.6110  177.1480  145.2300 C   0  0  0  0  0  2  0  0  0  0  0  0
  191.8540  176.7910  143.5490 N   0  0  2  0  0  0  0  0  0  0  0  0
  187.2260  177.0120  142.6510 C   0  0  0  0  0  2  0  0  0  0  0  0
  185.9780  176.4770  143.3290 C   0  0  0  0  0  2  0  0  0  0  0  0
  185.6260  179.1690  145.3530 C   0  0  0  0  0  2  0  0  0  0  0  0
  185.6290  178.7740  143.0180 C   0  0  0  0  0  2  0  0  0  0  0  0
  185.0680  177.5720  143.6240 N   0  0  0  0  0  0  0  0  0  0  0  0
  185.5420  179.8840  144.0350 C   0  0  0  0  0  2  0  0  0  0  0  0
  185.1040  177.7750  145.0690 C   0  0  0  0  0  2  0  0  0  0  0  0
  1 26  1  6  0  0  0
  3  7  1  6  0  0  0
  3 16  1  0  0  0  0
  4 23  2  0  0  0  0
  5 11  1  6  0  0  0
  5 15  1  0  0  0  0
  6 19  1  0  0  0  0
  8 12  1  0  0  0  0
  9 13  1  0  0  0  0
  9 27  1  0  0  0  0
 10 22  1  0  0  0  0
 10 17  1  0  0  0  0
 11 20  1  0  0  0  0
 13 20  1  0  0  0  0
 14  2  1  0  0  0  0
 15  4  1  0  0  0  0
 15 12  1  0  0  0  0
 16  8  1  0  0  0  0
 18  1  1  0  0  0  0
 18  4  1  0  0  0  0
 19  3  1  0  0  0  0
 19  5  1  0  0  0  0
 20 18  2  0  0  0  0
 23 21  1  0  0  0  0
 24 22  1  0  0  0  0
 24 13  1  0  0  0  0
 25 14  1  0  0  0  0
 25  9  1  0  0  0  0
 25 17  1  0  0  0  0
 26 21  1  0  0  0  0
 27  2  1  0  0  0  0
 27  1  1  0  0  0  0
 28 17  1  0  0  0  0
 28 29  1  0  0  0  0
 29 32  1  0  0  0  0
 31 32  1  0  0  0  0
 31 33  1  0  0  0  0
 32 34  1  0  0  0  0
 33 30  1  0  0  0  0
 34 30  1  0  0  0  0
M  END
>  <MODEL>
5

>  <REMARK>
 VINA RESULT:      -8.2      4.055      9.133
  Name = 
  3 active torsions:
  status: ('A' for Active; 'I' for Inactive)
    1  A    between atoms: C_17  and  C_28
    2  A    between atoms: C_28  and  C_29
    3  A    between atoms: C_29  and  N_32
                            x       y       z     vdW  Elec       q    Type
                         _______ _______ _______ _____ _____    ______ ____

>  <TORSDO>
F 3

$$$$
=
 OpenBabel11112418023D

 34 40  0  0  1  0  0  0  0  0999 V2000
  192.1540  174.5240  141.2360 C   0  0  1  0  0  3  0  0  0  0  0  0
  189.8250  174.1370  141.2050 C   0  0  0  0  0  2  0  0  0  0  0  0
  196.9690  174.0560  145.2160 C   0  0  1  0  0  3  0  0  0  0  0  0
  194.7130  174.7950  141.6550 C   0  0  0  0  0  0  0  0  0  0  0  0
  195.4460  175.6000  143.9730 C   0  0  2  0  0  3  0  0  0  0  0  0
  194.7750  174.6060  146.0630 O   0  0  0  0  0  1  0  0  0  0  0  0
  197.1700  173.8550  146.5840 O   0  0  0  0  0  1  0  0  0  0  0  0
  196.9940  172.7680  142.6910 S   0  0  0  0  0  0  0  0  0  0  0  0
  190.7140  174.8040  143.2650 C   0  0  1  0  0  3  0  0  0  0  0  0
  188.9900  177.0270  144.8380 C   0  0  0  0  0  2  0  0  0  0  0  0
  194.1140  176.2010  144.0080 N   0  0  0  0  0  2  0  0  0  0  0  0
  197.1840  174.5550  142.3520 C   0  0  0  0  0  2  0  0  0  0  0  0
  191.6130  176.0380  143.5050 C   0  0  2  0  0  3  0  0  0  0  0  0
  188.6430  174.3210  142.1220 C   0  0  0  0  0  2  0  0  0  0  0  0
  195.8550  175.3120  142.5090 C   0  0  1  0  0  3  0  0  0  0  0  0
  197.4890  172.8420  144.4520 C   0  0  0  0  0  2  0  0  0  0  0  0
  188.7530  176.5110  143.4260 C   0  0  1  0  0  3  0  0  0  0  0  0
  193.3070  174.9840  142.1040 C   0  0  0  0  0  0  0  0  0  0  0  0
  195.5030  174.3670  144.8910 C   0  0  2  0  0  3  0  0  0  0  0  0
  193.0410  175.6920  143.2030 C   0  0  0  0  0  0  0  0  0  0  0  0
  193.8480  173.8950  139.5020 C   0  0  0  0  0  2  0  0  0  0  0  0
  190.3830  177.6170  144.9920 C   0  0  0  0  0  2  0  0  0  0  0  0
  194.9540  174.2840  140.4390 C   0  0  0  0  0  3  0  0  0  0  0  0
  191.4530  176.5420  144.9340 C   0  0  0  0  0  2  0  0  0  0  0  0
  189.1930  175.0320  143.3400 C   0  0  2  0  0  3  0  0  0  0  0  0
  192.6240  173.4220  140.2800 C   0  0  0  0  0  2  0  0  0  0  0  0
  191.0160  174.0330  142.0350 N   0  0  2  0  0  0  0  0  0  0  0  0
  187.2700  176.6880  143.1260 C   0  0  0  0  0  2  0  0  0  0  0  0
  186.7200  177.8680  143.9050 C   0  0  0  0  0  2  0  0  0  0  0  0
  184.7540  177.7760  146.6610 C   0  0  0  0  0  2  0  0  0  0  0  0
  184.7090  178.8750  144.5650 C   0  0  0  0  0  2  0  0  0  0  0  0
  185.3560  177.5900  144.3260 N   0  0  0  0  0  0  0  0  0  0  0  0
  183.9620  178.7770  145.8700 C   0  0  0  0  0  2  0  0  0  0  0  0
  185.4390  176.9170  145.6180 C   0  0  0  0  0  2  0  0  0  0  0  0
  1 26  1  6  0  0  0
  1 27  1  0  0  0  0
  1 18  1  0  0  0  0
  2 27  1  0  0  0  0
  2 14  1  0  0  0  0
  3  7  1  1  0  0  0
  4 18  1  0  0  0  0
  4 15  1  0  0  0  0
  5 11  1  6  0  0  0
  5 19  1  0  0  0  0
  8 16  1  0  0  0  0
  9 25  1  0  0  0  0
  9 13  1  0  0  0  0
 10 22  1  0  0  0  0
 12 15  1  0  0  0  0
 12  8  1  0  0  0  0
 13 24  1  0  0  0  0
 14 25  1  0  0  0  0
 15  5  1  0  0  0  0
 16  3  1  0  0  0  0
 17 10  1  0  0  0  0
 18 20  2  0  0  0  0
 19  3  1  0  0  0  0
 19  6  1  0  0  0  0
 20 13  1  0  0  0  0
 20 11  1  0  0  0  0
 21 26  1  0  0  0  0
 21 23  1  0  0  0  0
 23  4  2  0  0  0  0
 24 22  1  0  0  0  0
 25 17  1  0  0  0  0
 27  9  1  0  0  0  0
 28 17  1  0  0  0  0
 28 29  1  0  0  0  0
 29 32  1  0  0  0  0
 31 33  1  0  0  0  0
 32 31  1  0  0  0  0
 32 34  1  0  0  0  0
 33 30  1  0  0  0  0
 34 30  1  0  0  0  0
M  END
>  <MODEL>
6

>  <REMARK>
 VINA RESULT:      -7.9      4.408      9.587
  Name = 
  3 active torsions:
  status: ('A' for Active; 'I' for Inactive)
    1  A    between atoms: C_17  and  C_28
    2  A    between atoms: C_28  and  C_29
    3  A    between atoms: C_29  and  N_32
                            x       y       z     vdW  Elec       q    Type
                         _______ _______ _______ _____ _____    ______ ____

>  <TORSDO>
F 3

$$$$
=
 OpenBabel11112418023D

 34 40  0  0  1  0  0  0  0  0999 V2000
  190.9420  173.3370  142.9290 C   0  0  1  0  0  3  0  0  0  0  0  0
  191.2570  175.0640  144.5090 C   0  0  0  0  0  2  0  0  0  0  0  0
  189.7490  172.6830  136.8140 C   0  0  1  0  0  3  0  0  0  0  0  0
  190.5690  171.7350  140.9060 C   0  0  0  0  0  0  0  0  0  0  0  0
  188.8600  172.4510  139.1390 C   0  0  2  0  0  3  0  0  0  0  0  0
  188.8430  174.5780  138.0070 O   0  0  0  0  0  1  0  0  0  0  0  0
  189.3450  173.4850  135.7440 O   0  0  0  0  0  1  0  0  0  0  0  0
  191.9980  171.4620  138.0310 S   0  0  0  0  0  0  0  0  0  0  0  0
  189.7860  175.5510  142.7530 C   0  0  1  0  0  3  0  0  0  0  0  0
  187.0680  177.0450  143.6280 C   0  0  0  0  0  2  0  0  0  0  0  0
  188.2750  173.2080  140.2440 N   0  0  0  0  0  2  0  0  0  0  0  0
  190.5360  170.5380  138.6230 C   0  0  0  0  0  2  0  0  0  0  0  0
  188.5870  174.6810  142.3100 C   0  0  2  0  0  3  0  0  0  0  0  0
  190.6710  176.4150  144.8260 C   0  0  0  0  0  2  0  0  0  0  0  0
  189.7590  171.3210  139.6930 C   0  0  1  0  0  3  0  0  0  0  0  0
  191.1840  172.2230  136.5790 C   0  0  0  0  0  2  0  0  0  0  0  0
  188.1360  176.4710  144.5470 C   0  0  1  0  0  3  0  0  0  0  0  0
  190.1770  172.9420  141.6840 C   0  0  0  0  0  0  0  0  0  0  0  0
  189.5780  173.3960  138.1610 C   0  0  2  0  0  3  0  0  0  0  0  0
  189.0590  173.6040  141.3790 C   0  0  0  0  0  0  0  0  0  0  0  0
  192.2900  171.2470  142.6360 C   0  0  0  0  0  2  0  0  0  0  0  0
  186.4980  175.9830  142.7010 C   0  0  0  0  0  2  0  0  0  0  0  0
  191.5590  170.9520  141.3590 C   0  0  0  0  0  3  0  0  0  0  0  0
  187.5150  175.5460  141.6620 C   0  0  0  0  0  2  0  0  0  0  0  0
  189.5160  176.5850  143.8620 C   0  0  2  0  0  3  0  0  0  0  0  0
  192.3580  172.7500  142.8830 C   0  0  0  0  0  2  0  0  0  0  0  0
  191.0170  174.8000  143.0960 N   0  0  2  0  0  0  0  0  0  0  0  0
  188.0760  177.2550  145.8520 C   0  0  0  0  0  2  0  0  0  0  0  0
  187.4420  176.4050  146.9380 C   0  0  0  0  0  2  0  0  0  0  0  0
  185.4780  179.1180  146.4430 C   0  0  0  0  0  2  0  0  0  0  0  0
  185.1540  176.7780  146.5900 C   0  0  0  0  0  2  0  0  0  0  0  0
  186.2730  177.0810  147.4760 N   0  0  0  0  0  0  0  0  0  0  0  0
  184.4150  178.0650  146.3280 C   0  0  0  0  0  2  0  0  0  0  0  0
  186.5210  178.5150  147.3610 C   0  0  0  0  0  2  0  0  0  0  0  0
  1 26  1  6  0  0  0
  1 27  1  0  0  0  0
  2 14  1  0  0  0  0
  3  7  1  6  0  0  0
  3 19  1  0  0  0  0
  4 23  2  0  0  0  0
  4 18  1  0  0  0  0
  5 15  1  0  0  0  0
  5 11  1  1  0  0  0
  6 19  1  0  0  0  0
  8 12  1  0  0  0  0
  9 27  1  0  0  0  0
  9 25  1  0  0  0  0
 10 17  1  0  0  0  0
 11 20  1  0  0  0  0
 12 15  1  0  0  0  0
 13  9  1  0  0  0  0
 15  4  1  0  0  0  0
 16  3  1  0  0  0  0
 16  8  1  0  0  0  0
 17 28  1  0  0  0  0
 18  1  1  0  0  0  0
 19  5  1  0  0  0  0
 20 18  2  0  0  0  0
 20 13  1  0  0  0  0
 21 26  1  0  0  0  0
 22 10  1  0  0  0  0
 23 21  1  0  0  0  0
 24 13  1  0  0  0  0
 24 22  1  0  0  0  0
 25 17  1  0  0  0  0
 25 14  1  0  0  0  0
 27  2  1  0  0  0  0
 28 29  1  0  0  0  0
 29 32  1  0  0  0  0
 30 34  1  0  0  0  0
 31 32  1  0  0  0  0
 33 30  1  0  0  0  0
 33 31  1  0  0  0  0
 34 32  1  0  0  0  0
M  END
>  <MODEL>
7

>  <REMARK>
 VINA RESULT:      -7.8      4.357      8.045
  Name = 
  3 active torsions:
  status: ('A' for Active; 'I' for Inactive)
    1  A    between atoms: C_17  and  C_28
    2  A    between atoms: C_28  and  C_29
    3  A    between atoms: C_29  and  N_32
                            x       y       z     vdW  Elec       q    Type
                         _______ _______ _______ _____ _____    ______ ____

>  <TORSDO>
F 3

$$$$
=
 OpenBabel11112418023D

 34 40  0  0  1  0  0  0  0  0999 V2000
  192.0410  175.3590  144.6510 C   0  0  1  0  0  3  0  0  0  0  0  0
  191.2900  177.5620  144.2520 C   0  0  0  0  0  2  0  0  0  0  0  0
  193.3480  170.1520  141.4240 C   0  0  1  0  0  3  0  0  0  0  0  0
  192.8660  172.8860  144.6810 C   0  0  0  0  0  0  0  0  0  0  0  0
  191.7810  171.2650  143.0210 C   0  0  2  0  0  3  0  0  0  0  0  0
  191.6010  171.6270  140.6450 O   0  0  0  0  0  1  0  0  0  0  0  0
  193.1570  169.6560  140.1320 O   0  0  0  0  0  1  0  0  0  0  0  0
  195.2500  171.3500  143.1510 S   0  0  0  0  0  0  0  0  0  0  0  0
  190.4760  175.9310  142.7830 C   0  0  1  0  0  3  0  0  0  0  0  0
  187.3310  176.1470  142.1140 C   0  0  0  0  0  2  0  0  0  0  0  0
  190.6580  172.1980  143.0930 N   0  0  0  0  0  2  0  0  0  0  0  0
  193.9790  170.6040  144.2330 C   0  0  0  0  0  2  0  0  0  0  0  0
  189.7980  174.6030  143.1920 C   0  0  2  0  0  3  0  0  0  0  0  0
  190.2890  178.2650  143.3720 C   0  0  0  0  0  2  0  0  0  0  0  0
  192.6890  171.4400  144.2610 C   0  0  1  0  0  3  0  0  0  0  0  0
  194.8400  170.3780  141.6550 C   0  0  0  0  0  2  0  0  0  0  0  0
  188.1090  176.9600  143.1380 C   0  0  1  0  0  3  0  0  0  0  0  0
  191.9110  173.9200  144.1980 C   0  0  0  0  0  0  0  0  0  0  0  0
  192.5200  171.4170  141.6810 C   0  0  2  0  0  3  0  0  0  0  0  0
  190.8440  173.5670  143.4790 C   0  0  0  0  0  0  0  0  0  0  0  0
  193.9130  174.6110  146.1370 C   0  0  0  0  0  2  0  0  0  0  0  0
  187.4400  174.6550  142.3840 C   0  0  0  0  0  2  0  0  0  0  0  0
  193.7980  173.2200  145.5850 C   0  0  0  0  0  3  0  0  0  0  0  0
  188.8400  174.1390  142.1030 C   0  0  0  0  0  2  0  0  0  0  0  0
  189.5580  177.1590  142.6390 C   0  0  2  0  0  3  0  0  0  0  0  0
  193.4800  175.6400  145.0980 C   0  0  0  0  0  2  0  0  0  0  0  0
  191.6550  176.3140  143.5960 N   0  0  2  0  0  0  0  0  0  0  0  0
  187.3760  178.2840  143.3140 C   0  0  0  0  0  2  0  0  0  0  0  0
  186.0280  178.0460  143.9710 C   0  0  0  0  0  2  0  0  0  0  0  0
  184.1960  178.3410  146.8040 C   0  0  0  0  0  2  0  0  0  0  0  0
  186.4830  178.0410  146.2700 C   0  0  0  0  0  2  0  0  0  0  0  0
  185.9230  178.8380  145.1850 N   0  0  0  0  0  0  0  0  0  0  0  0
  185.5390  178.1330  147.4420 C   0  0  0  0  0  2  0  0  0  0  0  0
  184.4990  178.9920  145.4700 C   0  0  0  0  0  2  0  0  0  0  0  0
  1 26  1  6  0  0  0
  3  7  1  6  0  0  0
  3 16  1  0  0  0  0
  3 19  1  0  0  0  0
  4 23  2  0  0  0  0
  5 11  1  1  0  0  0
  5 15  1  0  0  0  0
  6 19  1  0  0  0  0
  8 12  1  0  0  0  0
  9 13  1  0  0  0  0
  9 27  1  0  0  0  0
 10 22  1  0  0  0  0
 10 17  1  0  0  0  0
 11 20  1  0  0  0  0
 12 15  1  0  0  0  0
 13 20  1  0  0  0  0
 14  2  1  0  0  0  0
 15  4  1  0  0  0  0
 16  8  1  0  0  0  0
 17 28  1  0  0  0  0
 18  1  1  0  0  0  0
 18  4  1  0  0  0  0
 19  5  1  0  0  0  0
 20 18  2  0  0  0  0
 23 21  1  0  0  0  0
 24 22  1  0  0  0  0
 24 13  1  0  0  0  0
 25  9  1  0  0  0  0
 25 17  1  0  0  0  0
 25 14  1  0  0  0  0
 26 21  1  0  0  0  0
 27  2  1  0  0  0  0
 27  1  1  0  0  0  0
 28 29  1  0  0  0  0
 29 32  1  0  0  0  0
 30 33  1  0  0  0  0
 31 33  1  0  0  0  0
 32 34  1  0  0  0  0
 32 31  1  0  0  0  0
 34 30  1  0  0  0  0
M  END
>  <MODEL>
8

>  <REMARK>
 VINA RESULT:      -7.5      4.011      8.781
  Name = 
  3 active torsions:
  status: ('A' for Active; 'I' for Inactive)
    1  A    between atoms: C_17  and  C_28
    2  A    between atoms: C_28  and  C_29
    3  A    between atoms: C_29  and  N_32
                            x       y       z     vdW  Elec       q    Type
                         _______ _______ _______ _____ _____    ______ ____

>  <TORSDO>
F 3

$$$$
=
 OpenBabel11112418023D

 34 40  0  0  1  0  0  0  0  0999 V2000
  189.6010  176.0580  143.0680 C   0  0  1  0  0  3  0  0  0  0  0  0
  191.7370  176.1480  142.0650 C   0  0  0  0  0  2  0  0  0  0  0  0
  186.4990  178.7010  147.8260 C   0  0  1  0  0  3  0  0  0  0  0  0
  187.3820  176.2630  144.4200 C   0  0  0  0  0  0  0  0  0  0  0  0
  187.5740  176.6220  146.9490 C   0  0  2  0  0  3  0  0  0  0  0  0
  188.8800  178.3470  148.0090 O   0  0  0  0  0  1  0  0  0  0  0  0
  186.7850  179.4940  148.9390 O   0  0  0  0  0  1  0  0  0  0  0  0
  185.4950  178.7630  145.1760 S   0  0  0  0  0  0  0  0  0  0  0  0
  191.6840  176.5360  144.3730 C   0  0  1  0  0  3  0  0  0  0  0  0
  193.9920  175.0470  146.0590 C   0  0  0  0  0  2  0  0  0  0  0  0
  188.8670  175.9600  146.7810 N   0  0  0  0  0  2  0  0  0  0  0  0
  185.3110  177.0370  145.7480 C   0  0  0  0  0  2  0  0  0  0  0  0
  191.0100  175.6280  145.4270 C   0  0  2  0  0  3  0  0  0  0  0  0
  193.1770  176.2570  142.4960 C   0  0  0  0  0  2  0  0  0  0  0  0
  186.6540  176.2890  145.7510 C   0  0  1  0  0  3  0  0  0  0  0  0
  185.6650  179.5120  146.8370 C   0  0  0  0  0  2  0  0  0  0  0  0
  193.6780  174.8730  144.5800 C   0  0  1  0  0  3  0  0  0  0  0  0
  188.8650  176.1420  144.3880 C   0  0  0  0  0  0  0  0  0  0  0  0
  187.7690  178.1290  147.1860 C   0  0  2  0  0  3  0  0  0  0  0  0
  189.5490  175.9560  145.5190 C   0  0  0  0  0  0  0  0  0  0  0  0
  187.3650  176.0470  141.9410 C   0  0  0  0  0  2  0  0  0  0  0  0
  192.7860  174.7300  146.9280 C   0  0  0  0  0  2  0  0  0  0  0  0
  186.6920  176.2190  143.2720 C   0  0  0  0  0  3  0  0  0  0  0  0
  191.6990  175.7790  146.7770 C   0  0  0  0  0  2  0  0  0  0  0  0
  193.1430  176.2050  144.0090 C   0  0  2  0  0  3  0  0  0  0  0  0
  188.7520  176.6800  141.9530 C   0  0  0  0  0  2  0  0  0  0  0  0
  190.9150  176.7250  143.1200 N   0  0  2  0  0  0  0  0  0  0  0  0
  194.9650  174.4300  143.8950 C   0  0  0  0  0  2  0  0  0  0  0  0
  196.1660  174.9720  144.6490 C   0  0  0  0  0  2  0  0  0  0  0  0
  196.8040  171.9730  146.0860 C   0  0  0  0  0  2  0  0  0  0  0  0
  196.7820  172.8440  143.8850 C   0  0  0  0  0  2  0  0  0  0  0  0
  197.1930  173.9480  144.7450 N   0  0  0  0  0  0  0  0  0  0  0  0
  196.9850  171.5630  144.6540 C   0  0  0  0  0  2  0  0  0  0  0  0
  197.1640  173.4450  146.1150 C   0  0  0  0  0  2  0  0  0  0  0  0
  1 26  1  6  0  0  0
  1 27  1  0  0  0  0
  1 18  1  0  0  0  0
  2 14  1  0  0  0  0
  2 27  1  0  0  0  0
  3  7  1  1  0  0  0
  4 15  1  0  0  0  0
  5 11  1  6  0  0  0
  5 19  1  0  0  0  0
  8 12  1  0  0  0  0
  8 16  1  0  0  0  0
  9 13  1  0  0  0  0
 10 22  1  0  0  0  0
 12 15  1  0  0  0  0
 13 20  1  0  0  0  0
 13 24  1  0  0  0  0
 14 25  1  0  0  0  0
 15  5  1  0  0  0  0
 16  3  1  0  0  0  0
 17 10  1  0  0  0  0
 18  4  1  0  0  0  0
 18 20  2  0  0  0  0
 19  3  1  0  0  0  0
 19  6  1  0  0  0  0
 20 11  1  0  0  0  0
 21 26  1  0  0  0  0
 21 23  1  0  0  0  0
 23  4  2  0  0  0  0
 24 22  1  0  0  0  0
 25  9  1  0  0  0  0
 25 17  1  0  0  0  0
 27  9  1  0  0  0  0
 28 17  1  0  0  0  0
 28 29  1  0  0  0  0
 29 32  1  0  0  0  0
 30 34  1  0  0  0  0
 31 33  1  0  0  0  0
 31 32  1  0  0  0  0
 32 34  1  0  0  0  0
 33 30  1  0  0  0  0
M  END
>  <MODEL>
9

>  <REMARK>
 VINA RESULT:      -7.3      2.796      4.378
  Name = 
  3 active torsions:
  status: ('A' for Active; 'I' for Inactive)
    1  A    between atoms: C_17  and  C_28
    2  A    between atoms: C_28  and  C_29
    3  A    between atoms: C_29  and  N_32
                            x       y       z     vdW  Elec       q    Type
                         _______ _______ _______ _____ _____    ______ ____

>  <TORSDO>
F 3

$$$$
