=
 OpenBabel11112417153D

 37 43  0  0  1  0  0  0  0  0999 V2000
  193.3810  174.9320  143.6050 C   0  0  0  0  0  2  0  0  0  0  0  0
  191.4510  170.5940  141.8870 C   0  0  1  0  0  0  0  0  0  0  0  0
  190.0500  174.5020  142.8160 C   0  0  1  0  0  3  0  0  0  0  0  0
  194.8880  175.2270  143.6450 C   0  0  2  0  0  3  0  0  0  0  0  0
  190.7890  175.8490  146.4060 C   0  0  0  0  0  2  0  0  0  0  0  0
  189.9550  172.5380  141.1680 C   0  0  1  0  0  3  0  0  0  0  0  0
  190.3410  174.5360  144.3060 C   0  0  2  0  0  3  0  0  0  0  0  0
  194.3600  176.4770  145.7890 C   0  0  0  0  0  0  0  0  0  0  0  0
  190.1700  173.0390  142.6010 C   0  0  1  0  0  3  0  0  0  0  0  0
  190.6780  175.9320  144.8830 C   0  0  1  0  0  3  0  0  0  0  0  0
  189.7240  173.7000  140.1920 C   0  0  0  0  0  2  0  0  0  0  0  0
  195.4110  175.7700  144.9870 C   0  0  0  0  0  2  0  0  0  0  0  0
  191.4580  172.7050  143.1490 N   0  0  2  0  0  0  0  0  0  0  0  0
  192.6920  170.0530  141.6110 F   0  0  0  0  0  0  0  0  0  0  0  0
  188.2150  176.2020  142.5920 O   0  0  0  0  0  0  0  0  0  0  0  0
  188.6510  174.6900  140.7160 C   0  0  0  0  0  2  0  0  0  0  0  0
  191.5010  171.2560  143.2880 C   0  0  0  0  0  2  0  0  0  0  0  0
  193.2350  175.7410  146.2900 N   0  0  0  0  0  0  0  0  0  0  0  0
  192.1050  176.4340  146.8980 C   0  0  0  0  0  2  0  0  0  0  0  0
  188.6940  174.9220  142.2450 C   0  0  1  0  0  3  0  0  0  0  0  0
  191.4660  173.4300  144.4240 C   0  0  1  0  0  3  0  0  0  0  0  0
  191.0870  171.5890  140.7530 C   0  0  0  0  0  2  0  0  0  0  0  0
  189.7120  177.0780  144.5010 C   0  0  1  0  0  3  0  0  0  0  0  0
  190.5090  169.5650  141.9110 O   0  0  0  0  0  1  0  0  0  0  0  0
  193.1880  174.2890  146.1200 C   0  0  0  0  0  2  0  0  0  0  0  0
  194.4570  177.7170  145.9870 O   0  0  0  0  0  0  0  0  0  0  0  0
  192.9120  173.9110  144.6590 C   0  0  2  0  0  3  0  0  0  0  0  0
  189.5140  177.3400  142.7000 S   0  0  0  0  0  0  0  0  0  0  0  0
  188.2110  176.2610  146.3340 C   0  0  0  0  0  3  0  0  0  0  0  0
  188.4100  177.1350  145.2580 C   0  0  0  0  0  0  0  0  0  0  0  0
  187.4070  178.0580  144.9250 C   0  0  0  0  0  3  0  0  0  0  0  0
  184.9720  179.2520  145.2280 Cl  0  0  0  0  0  0  0  0  0  0  0  0
  186.0230  177.2210  146.7240 C   0  0  0  0  0  3  0  0  0  0  0  0
  186.2170  178.0990  145.6550 C   0  0  0  0  0  0  0  0  0  0  0  0
  187.0200  176.3040  147.0650 C   0  0  0  0  0  3  0  0  0  0  0  0
  196.5530  176.4330  142.8280 C   0  0  0  0  0  1  0  0  0  0  0  0
  195.2070  176.1270  142.6260 O   0  0  0  0  0  0  0  0  0  0  0  0
  1  4  1  0  0  0  0
  1 27  1  0  0  0  0
  2 14  1  6  0  0  0
  2 24  1  0  0  0  0
  2 17  1  0  0  0  0
  3  7  1  0  0  0  0
  4 12  1  0  0  0  0
  5 19  1  0  0  0  0
  6  9  1  0  0  0  0
  7 21  1  0  0  0  0
  7 10  1  0  0  0  0
  8 26  2  0  0  0  0
  8 18  1  0  0  0  0
  9  3  1  0  0  0  0
  9 13  1  0  0  0  0
 10  5  1  0  0  0  0
 11 16  1  0  0  0  0
 11  6  1  0  0  0  0
 12  8  1  0  0  0  0
 13 17  1  0  0  0  0
 13 21  1  0  0  0  0
 15 28  1  0  0  0  0
 16 20  1  0  0  0  0
 18 19  1  0  0  0  0
 20 15  1  0  0  0  0
 20  3  1  0  0  0  0
 21 27  1  0  0  0  0
 22  6  1  0  0  0  0
 22  2  1  0  0  0  0
 23 10  1  0  0  0  0
 23 30  1  0  0  0  0
 25 18  1  0  0  0  0
 27 25  1  0  0  0  0
 28 23  1  0  0  0  0
 29 35  1  0  0  0  0
 30 29  2  0  0  0  0
 31 30  1  0  0  0  0
 31 34  2  0  0  0  0
 32 34  1  0  0  0  0
 33 35  2  0  0  0  0
 34 33  1  0  0  0  0
 37 36  1  0  0  0  0
 37  4  1  0  0  0  0
M  END
>  <MODEL>
1

>  <REMARK>
 VINA RESULT:      -9.3      0.000      0.000
  Name = 
  2 active torsions:
  status: ('A' for Active; 'I' for Inactive)
    1  A    between atoms: C_4  and  O_37
    2  A    between atoms: C_23  and  C_30
                            x       y       z     vdW  Elec       q    Type
                         _______ _______ _______ _____ _____    ______ ____

>  <TORSDO>
F 2

$$$$
=
 OpenBabel11112417153D

 37 43  0  0  1  0  0  0  0  0999 V2000
  195.7210  173.4480  143.1610 C   0  0  0  0  0  2  0  0  0  0  0  0
  194.4820  168.9670  145.1330 C   0  0  1  0  0  0  0  0  0  0  0  0
  192.4690  172.4350  143.7100 C   0  0  1  0  0  3  0  0  0  0  0  0
  197.1210  173.7720  142.6180 C   0  0  2  0  0  3  0  0  0  0  0  0
  193.4770  175.8550  145.3020 C   0  0  0  0  0  2  0  0  0  0  0  0
  192.5210  169.8700  143.7650 C   0  0  1  0  0  3  0  0  0  0  0  0
  192.9810  173.4600  144.7050 C   0  0  2  0  0  3  0  0  0  0  0  0
  196.6940  176.0990  143.5360 C   0  0  0  0  0  0  0  0  0  0  0  0
  192.8530  171.2030  144.4440 C   0  0  1  0  0  3  0  0  0  0  0  0
  193.1090  174.9040  144.1620 C   0  0  1  0  0  3  0  0  0  0  0  0
  191.9010  170.0820  142.3770 C   0  0  0  0  0  2  0  0  0  0  0  0
  197.7270  175.0930  143.1250 C   0  0  0  0  0  2  0  0  0  0  0  0
  194.2530  171.3820  144.7250 N   0  0  2  0  0  0  0  0  0  0  0  0
  195.7480  168.4430  144.9520 F   0  0  0  0  0  0  0  0  0  0  0  0
  190.3090  173.4640  142.9450 O   0  0  0  0  0  0  0  0  0  0  0  0
  190.7430  171.1140  142.4120 C   0  0  0  0  0  2  0  0  0  0  0  0
  194.6180  170.3920  145.7290 C   0  0  0  0  0  2  0  0  0  0  0  0
  195.8410  175.8220  144.6560 N   0  0  0  0  0  0  0  0  0  0  0  0
  194.7050  176.6850  144.9550 C   0  0  0  0  0  2  0  0  0  0  0  0
  190.9810  172.3020  143.3760 C   0  0  1  0  0  3  0  0  0  0  0  0
  194.3150  172.7680  145.2000 C   0  0  1  0  0  3  0  0  0  0  0  0
  193.7430  168.9420  143.7680 C   0  0  0  0  0  2  0  0  0  0  0  0
  191.8790  175.4590  143.4080 C   0  0  1  0  0  3  0  0  0  0  0  0
  193.7910  168.1660  146.0410 O   0  0  0  0  0  1  0  0  0  0  0  0
  196.0700  174.6210  145.4590 C   0  0  0  0  0  2  0  0  0  0  0  0
  196.5630  177.1630  142.8750 O   0  0  0  0  0  0  0  0  0  0  0  0
  195.6480  173.3580  144.6970 C   0  0  2  0  0  3  0  0  0  0  0  0
  191.3450  174.4530  141.9740 S   0  0  0  0  0  0  0  0  0  0  0  0
  190.0470  177.0990  143.8890 C   0  0  0  0  0  3  0  0  0  0  0  0
  190.7310  175.9360  144.2610 C   0  0  0  0  0  0  0  0  0  0  0  0
  190.3200  175.2280  145.4000 C   0  0  0  0  0  3  0  0  0  0  0  0
  188.7390  174.7960  147.5830 Cl  0  0  0  0  0  0  0  0  0  0  0  0
  188.5660  176.8490  145.7880 C   0  0  0  0  0  3  0  0  0  0  0  0
  189.2420  175.6840  146.1620 C   0  0  0  0  0  0  0  0  0  0  0  0
  188.9680  177.5550  144.6520 C   0  0  0  0  0  3  0  0  0  0  0  0
  195.7220  173.8820  140.9070 C   0  0  0  0  0  1  0  0  0  0  0  0
  197.0780  173.7870  141.2230 O   0  0  0  0  0  0  0  0  0  0  0  0
  1 27  1  0  0  0  0
  2 14  1  6  0  0  0
  2 17  1  0  0  0  0
  2 24  1  0  0  0  0
  3  9  1  0  0  0  0
  3  7  1  0  0  0  0
  4 12  1  0  0  0  0
  4  1  1  0  0  0  0
  6 22  1  0  0  0  0
  6  9  1  0  0  0  0
  7 21  1  0  0  0  0
  8 18  1  0  0  0  0
  9 13  1  0  0  0  0
 10  7  1  0  0  0  0
 10  5  1  0  0  0  0
 11 16  1  0  0  0  0
 11  6  1  0  0  0  0
 12  8  1  0  0  0  0
 13 21  1  0  0  0  0
 13 17  1  0  0  0  0
 15 20  1  0  0  0  0
 16 20  1  0  0  0  0
 18 19  1  0  0  0  0
 18 25  1  0  0  0  0
 19  5  1  0  0  0  0
 20  3  1  0  0  0  0
 22  2  1  0  0  0  0
 23 10  1  0  0  0  0
 23 30  1  0  0  0  0
 26  8  2  0  0  0  0
 27 21  1  0  0  0  0
 27 25  1  0  0  0  0
 28 15  1  0  0  0  0
 28 23  1  0  0  0  0
 29 30  2  0  0  0  0
 29 35  1  0  0  0  0
 30 31  1  0  0  0  0
 31 34  2  0  0  0  0
 33 34  1  0  0  0  0
 34 32  1  0  0  0  0
 35 33  2  0  0  0  0
 36 37  1  0  0  0  0
 37  4  1  0  0  0  0
M  END
>  <MODEL>
2

>  <REMARK>
 VINA RESULT:      -8.5      2.623      3.718
  Name = 
  2 active torsions:
  status: ('A' for Active; 'I' for Inactive)
    1  A    between atoms: C_4  and  O_37
    2  A    between atoms: C_23  and  C_30
                            x       y       z     vdW  Elec       q    Type
                         _______ _______ _______ _____ _____    ______ ____

>  <TORSDO>
F 2

$$$$
=
 OpenBabel11112417153D

 37 43  0  0  1  0  0  0  0  0999 V2000
  193.0660  172.3560  142.9360 C   0  0  0  0  0  2  0  0  0  0  0  0
  196.6810  175.8640  143.2870 C   0  0  1  0  0  0  0  0  0  0  0  0
  192.5770  175.4700  144.3390 C   0  0  1  0  0  3  0  0  0  0  0  0
  193.3510  170.8800  142.6210 C   0  0  2  0  0  3  0  0  0  0  0  0
  190.0990  174.4810  141.4890 C   0  0  0  0  0  2  0  0  0  0  0  0
  194.8960  176.2970  145.0650 C   0  0  1  0  0  3  0  0  0  0  0  0
  191.9690  175.3040  142.9580 C   0  0  2  0  0  3  0  0  0  0  0  0
  191.1590  170.9620  141.3440 C   0  0  0  0  0  0  0  0  0  0  0  0
  193.9070  175.9900  143.9340 C   0  0  1  0  0  3  0  0  0  0  0  0
  190.6920  174.4320  142.8980 C   0  0  1  0  0  3  0  0  0  0  0  0
  194.3180  175.9220  146.4370 C   0  0  0  0  0  2  0  0  0  0  0  0
  192.4800  170.2720  141.5060 C   0  0  0  0  0  2  0  0  0  0  0  0
  194.3900  175.0230  142.9840 N   0  0  2  0  0  0  0  0  0  0  0  0
  197.6940  174.9690  142.9990 F   0  0  0  0  0  0  0  0  0  0  0  0
  190.6400  176.3510  145.6730 O   0  0  0  0  0  0  0  0  0  0  0  0
  192.8870  176.4870  146.6360 C   0  0  0  0  0  2  0  0  0  0  0  0
  195.5170  175.6300  142.2900 C   0  0  0  0  0  2  0  0  0  0  0  0
  191.1210  172.3290  140.9110 N   0  0  0  0  0  0  0  0  0  0  0  0
  189.8720  173.0810  140.9360 C   0  0  0  0  0  2  0  0  0  0  0  0
  192.0110  176.4590  145.3610 C   0  0  1  0  0  3  0  0  0  0  0  0
  193.2170  174.7910  142.1330 C   0  0  1  0  0  3  0  0  0  0  0  0
  196.2650  175.6700  144.7700 C   0  0  0  0  0  2  0  0  0  0  0  0
  189.5900  174.7660  143.9300 C   0  0  1  0  0  3  0  0  0  0  0  0
  197.1660  177.1600  143.1150 O   0  0  0  0  0  1  0  0  0  0  0  0
  192.3610  172.9960  140.5140 C   0  0  0  0  0  2  0  0  0  0  0  0
  190.0970  170.3450  141.6210 O   0  0  0  0  0  0  0  0  0  0  0  0
  193.2400  173.3020  141.7330 C   0  0  2  0  0  3  0  0  0  0  0  0
  190.1350  174.6960  145.6770 S   0  0  0  0  0  0  0  0  0  0  0  0
  189.1340  176.8550  142.6240 C   0  0  0  0  0  3  0  0  0  0  0  0
  188.7270  175.9620  143.6230 C   0  0  0  0  0  0  0  0  0  0  0  0
  187.5160  176.1860  144.2960 C   0  0  0  0  0  3  0  0  0  0  0  0
  185.2220  177.5660  144.8270 Cl  0  0  0  0  0  0  0  0  0  0  0  0
  187.1430  178.1840  142.9840 C   0  0  0  0  0  3  0  0  0  0  0  0
  186.7280  177.2950  143.9790 C   0  0  0  0  0  0  0  0  0  0  0  0
  188.3450  177.9640  142.3060 C   0  0  0  0  0  3  0  0  0  0  0  0
  193.7810  170.9040  144.7910 C   0  0  0  0  0  1  0  0  0  0  0  0
  193.2040  170.1260  143.7860 O   0  0  0  0  0  0  0  0  0  0  0  0
  2 14  1  6  0  0  0
  2 22  1  0  0  0  0
  3 20  1  0  0  0  0
  4  1  1  0  0  0  0
  4 37  1  0  0  0  0
  5 10  1  0  0  0  0
  6 11  1  0  0  0  0
  7  3  1  0  0  0  0
  8 12  1  0  0  0  0
  8 26  2  0  0  0  0
  9  3  1  0  0  0  0
  9  6  1  0  0  0  0
 10  7  1  0  0  0  0
 10 23  1  0  0  0  0
 11 16  1  0  0  0  0
 12  4  1  0  0  0  0
 13  9  1  0  0  0  0
 15 28  1  0  0  0  0
 17 13  1  0  0  0  0
 17  2  1  0  0  0  0
 18 19  1  0  0  0  0
 18  8  1  0  0  0  0
 19  5  1  0  0  0  0
 20 15  1  0  0  0  0
 20 16  1  0  0  0  0
 21  7  1  0  0  0  0
 21 13  1  0  0  0  0
 22  6  1  0  0  0  0
 23 28  1  0  0  0  0
 24  2  1  0  0  0  0
 25 18  1  0  0  0  0
 25 27  1  0  0  0  0
 27 21  1  0  0  0  0
 27  1  1  0  0  0  0
 29 30  1  0  0  0  0
 30 23  1  0  0  0  0
 30 31  2  0  0  0  0
 33 34  2  0  0  0  0
 34 31  1  0  0  0  0
 34 32  1  0  0  0  0
 35 29  2  0  0  0  0
 35 33  1  0  0  0  0
 37 36  1  0  0  0  0
M  END
>  <MODEL>
3

>  <REMARK>
 VINA RESULT:      -8.2      2.292      5.620
  Name = 
  2 active torsions:
  status: ('A' for Active; 'I' for Inactive)
    1  A    between atoms: C_4  and  O_37
    2  A    between atoms: C_23  and  C_30
                            x       y       z     vdW  Elec       q    Type
                         _______ _______ _______ _____ _____    ______ ____

>  <TORSDO>
F 2

$$$$
=
 OpenBabel11112417153D

 37 43  0  0  1  0  0  0  0  0999 V2000
  193.9940  174.1350  142.9540 C   0  0  0  0  0  2  0  0  0  0  0  0
  192.0520  169.5570  142.0800 C   0  0  1  0  0  0  0  0  0  0  0  0
  190.6080  173.4810  142.8680 C   0  0  1  0  0  3  0  0  0  0  0  0
  195.4610  174.4970  142.6740 C   0  0  2  0  0  3  0  0  0  0  0  0
  191.9190  175.2420  146.0970 C   0  0  0  0  0  2  0  0  0  0  0  0
  190.3290  171.3460  141.4720 C   0  0  1  0  0  3  0  0  0  0  0  0
  191.1690  173.6900  144.2630 C   0  0  2  0  0  3  0  0  0  0  0  0
  195.2650  175.9500  144.7450 C   0  0  0  0  0  0  0  0  0  0  0  0
  190.7760  172.0090  142.7800 C   0  0  1  0  0  3  0  0  0  0  0  0
  191.5200  175.1530  144.6230 C   0  0  1  0  0  3  0  0  0  0  0  0
  189.8480  172.3830  140.4480 C   0  0  0  0  0  2  0  0  0  0  0  0
  196.1900  175.2050  143.8310 C   0  0  0  0  0  2  0  0  0  0  0  0
  192.1630  171.7920  143.1000 N   0  0  2  0  0  0  0  0  0  0  0  0
  193.2510  169.0430  141.6240 F   0  0  0  0  0  0  0  0  0  0  0  0
  188.6600  175.0660  142.8330 O   0  0  0  0  0  0  0  0  0  0  0  0
  188.8310  173.3780  141.0680 C   0  0  0  0  0  2  0  0  0  0  0  0
  192.3220  170.3700  143.3720 C   0  0  0  0  0  2  0  0  0  0  0  0
  194.3010  175.2260  145.5240 N   0  0  0  0  0  0  0  0  0  0  0  0
  193.2640  175.9330  146.2660 C   0  0  0  0  0  2  0  0  0  0  0  0
  189.1450  173.7770  142.5300 C   0  0  1  0  0  3  0  0  0  0  0  0
  192.3630  172.6520  144.2720 C   0  0  1  0  0  3  0  0  0  0  0  0
  191.4210  170.4060  140.9430 C   0  0  0  0  0  2  0  0  0  0  0  0
  190.4300  176.2080  144.3220 C   0  0  1  0  0  3  0  0  0  0  0  0
  191.1980  168.4980  142.3870 O   0  0  0  0  0  1  0  0  0  0  0  0
  194.3150  173.7630  145.5110 C   0  0  0  0  0  2  0  0  0  0  0  0
  195.3200  177.2080  144.7970 O   0  0  0  0  0  0  0  0  0  0  0  0
  193.7950  173.2170  144.1750 C   0  0  2  0  0  3  0  0  0  0  0  0
  189.8830  176.2630  142.5760 S   0  0  0  0  0  0  0  0  0  0  0  0
  189.2010  175.3350  146.3230 C   0  0  0  0  0  3  0  0  0  0  0  0
  189.2910  176.2920  145.3060 C   0  0  0  0  0  0  0  0  0  0  0  0
  188.3390  177.3200  145.2400 C   0  0  0  0  0  3  0  0  0  0  0  0
  186.1180  178.6660  146.0820 Cl  0  0  0  0  0  0  0  0  0  0  0  0
  187.2160  176.4210  147.1850 C   0  0  0  0  0  3  0  0  0  0  0  0
  187.3030  177.3820  146.1750 C   0  0  0  0  0  0  0  0  0  0  0  0
  188.1650  175.3980  147.2600 C   0  0  0  0  0  3  0  0  0  0  0  0
  195.3870  174.4000  140.4650 C   0  0  0  0  0  1  0  0  0  0  0  0
  195.5260  175.2920  141.5290 O   0  0  0  0  0  0  0  0  0  0  0  0
  1 27  1  0  0  0  0
  2 14  1  6  0  0  0
  2 24  1  0  0  0  0
  2 17  1  0  0  0  0
  3  7  1  0  0  0  0
  4  1  1  0  0  0  0
  4 12  1  0  0  0  0
  5 19  1  0  0  0  0
  6  9  1  0  0  0  0
  7 21  1  0  0  0  0
  7 10  1  0  0  0  0
  8 26  2  0  0  0  0
  8 18  1  0  0  0  0
  9  3  1  0  0  0  0
  9 13  1  0  0  0  0
 10  5  1  0  0  0  0
 11 16  1  0  0  0  0
 11  6  1  0  0  0  0
 12  8  1  0  0  0  0
 13 17  1  0  0  0  0
 13 21  1  0  0  0  0
 16 20  1  0  0  0  0
 18 19  1  0  0  0  0
 20 15  1  0  0  0  0
 20  3  1  0  0  0  0
 22  6  1  0  0  0  0
 22  2  1  0  0  0  0
 23 10  1  0  0  0  0
 23 30  1  0  0  0  0
 25 18  1  0  0  0  0
 27 21  1  0  0  0  0
 27 25  1  0  0  0  0
 28 15  1  0  0  0  0
 28 23  1  0  0  0  0
 29 35  1  0  0  0  0
 30 29  2  0  0  0  0
 31 30  1  0  0  0  0
 31 34  2  0  0  0  0
 32 34  1  0  0  0  0
 33 35  2  0  0  0  0
 34 33  1  0  0  0  0
 36 37  1  0  0  0  0
 37  4  1  0  0  0  0
M  END
>  <MODEL>
4

>  <REMARK>
 VINA RESULT:      -8.1      1.274      1.405
  Name = 
  2 active torsions:
  status: ('A' for Active; 'I' for Inactive)
    1  A    between atoms: C_4  and  O_37
    2  A    between atoms: C_23  and  C_30
                            x       y       z     vdW  Elec       q    Type
                         _______ _______ _______ _____ _____    ______ ____

>  <TORSDO>
F 2

$$$$
=
 OpenBabel11112417153D

 37 43  0  0  1  0  0  0  0  0999 V2000
  190.8400  175.8320  145.3950 C   0  0  0  0  0  2  0  0  0  0  0  0
  187.0460  177.6580  142.6080 C   0  0  1  0  0  0  0  0  0  0  0  0
  190.0520  174.6690  142.2440 C   0  0  1  0  0  3  0  0  0  0  0  0
  190.9920  176.1100  146.8980 C   0  0  2  0  0  3  0  0  0  0  0  0
  193.7530  175.7990  142.7640 C   0  0  0  0  0  2  0  0  0  0  0  0
  187.5890  175.2760  141.8550 C   0  0  1  0  0  3  0  0  0  0  0  0
  191.2930  175.5410  142.2970 C   0  0  2  0  0  3  0  0  0  0  0  0
  193.4830  176.1250  146.4180 C   0  0  0  0  0  0  0  0  0  0  0  0
  189.0480  175.7300  141.9770 C   0  0  1  0  0  3  0  0  0  0  0  0
  192.5440  174.8760  142.9200 C   0  0  1  0  0  3  0  0  0  0  0  0
  187.4410  173.7710  142.1180 C   0  0  0  0  0  2  0  0  0  0  0  0
  192.3900  176.5800  147.3370 C   0  0  0  0  0  2  0  0  0  0  0  0
  189.2740  176.6990  143.0160 N   0  0  2  0  0  0  0  0  0  0  0  0
  186.4740  178.3280  143.6730 F   0  0  0  0  0  0  0  0  0  0  0  0
  190.8780  172.6360  141.0230 O   0  0  0  0  0  0  0  0  0  0  0  0
  188.4640  172.9380  141.3010 C   0  0  0  0  0  2  0  0  0  0  0  0
  188.5740  177.9160  142.6250 C   0  0  0  0  0  2  0  0  0  0  0  0
  193.5190  176.6060  145.0660 N   0  0  0  0  0  0  0  0  0  0  0  0
  194.4470  176.0330  144.0990 C   0  0  0  0  0  2  0  0  0  0  0  0
  189.8580  173.5980  141.1680 C   0  0  1  0  0  3  0  0  0  0  0  0
  190.7350  176.8270  143.0290 C   0  0  1  0  0  3  0  0  0  0  0  0
  186.6770  176.1540  142.7220 C   0  0  0  0  0  2  0  0  0  0  0  0
  192.9010  173.4680  142.3900 C   0  0  1  0  0  3  0  0  0  0  0  0
  186.5180  178.1680  141.4230 O   0  0  0  0  0  1  0  0  0  0  0  0
  192.5650  177.6290  144.6380 C   0  0  0  0  0  2  0  0  0  0  0  0
  194.3400  175.2990  146.8290 O   0  0  0  0  0  0  0  0  0  0  0  0
  191.1540  177.0440  144.4980 C   0  0  2  0  0  3  0  0  0  0  0  0
  191.5650  172.2270  142.5580 S   0  0  0  0  0  0  0  0  0  0  0  0
  194.5990  172.4530  140.8510 C   0  0  0  0  0  3  0  0  0  0  0  0
  193.6000  173.4130  141.0560 C   0  0  0  0  0  0  0  0  0  0  0  0
  193.2550  174.2830  140.0110 C   0  0  0  0  0  3  0  0  0  0  0  0
  193.4730  175.2910  137.4830 Cl  0  0  0  0  0  0  0  0  0  0  0  0
  194.9080  173.2410  138.5830 C   0  0  0  0  0  3  0  0  0  0  0  0
  193.9090  174.1990  138.7790 C   0  0  0  0  0  0  0  0  0  0  0  0
  195.2520  172.3680  139.6180 C   0  0  0  0  0  3  0  0  0  0  0  0
  189.3160  174.7110  147.2630 C   0  0  0  0  0  1  0  0  0  0  0  0
  190.6440  174.9620  147.6130 O   0  0  0  0  0  0  0  0  0  0  0  0
  1  4  1  0  0  0  0
  2 24  1  6  0  0  0
  2 17  1  0  0  0  0
  2 22  1  0  0  0  0
  2 14  1  0  0  0  0
  3  7  1  0  0  0  0
  4 12  1  0  0  0  0
  4 37  1  0  0  0  0
  5 10  1  0  0  0  0
  5 19  1  0  0  0  0
  6  9  1  0  0  0  0
  6 11  1  0  0  0  0
  6 22  1  0  0  0  0
  7 10  1  0  0  0  0
  7 21  1  0  0  0  0
  8 26  2  0  0  0  0
  8 12  1  0  0  0  0
  9  3  1  0  0  0  0
  9 13  1  0  0  0  0
 13 21  1  0  0  0  0
 15 20  1  0  0  0  0
 15 28  1  0  0  0  0
 16 11  1  0  0  0  0
 17 13  1  0  0  0  0
 18  8  1  0  0  0  0
 19 18  1  0  0  0  0
 20 16  1  0  0  0  0
 20  3  1  0  0  0  0
 21 27  1  0  0  0  0
 23 28  1  0  0  0  0
 23 10  1  0  0  0  0
 25 18  1  0  0  0  0
 27 25  1  0  0  0  0
 27  1  1  0  0  0  0
 29 30  1  0  0  0  0
 30 23  1  0  0  0  0
 31 30  2  0  0  0  0
 32 34  1  0  0  0  0
 33 34  2  0  0  0  0
 33 35  1  0  0  0  0
 34 31  1  0  0  0  0
 35 29  2  0  0  0  0
 36 37  1  0  0  0  0
M  END
>  <MODEL>
5

>  <REMARK>
 VINA RESULT:      -8.0      3.715      6.515
  Name = 
  2 active torsions:
  status: ('A' for Active; 'I' for Inactive)
    1  A    between atoms: C_4  and  O_37
    2  A    between atoms: C_23  and  C_30
                            x       y       z     vdW  Elec       q    Type
                         _______ _______ _______ _____ _____    ______ ____

>  <TORSDO>
F 2

$$$$
=
 OpenBabel11112417153D

 37 43  0  0  1  0  0  0  0  0999 V2000
  191.6010  173.2070  141.8680 C   0  0  0  0  0  2  0  0  0  0  0  0
  189.4690  175.4280  145.8710 C   0  0  1  0  0  0  0  0  0  0  0  0
  193.2220  173.6880  144.8750 C   0  0  1  0  0  3  0  0  0  0  0  0
  191.0140  173.2820  140.4500 C   0  0  2  0  0  3  0  0  0  0  0  0
  193.1800  170.0220  143.5310 C   0  0  0  0  0  2  0  0  0  0  0  0
  192.0120  175.6310  146.0350 C   0  0  1  0  0  3  0  0  0  0  0  0
  192.7860  172.2560  144.6210 C   0  0  2  0  0  3  0  0  0  0  0  0
  191.8790  170.9100  140.2070 C   0  0  0  0  0  0  0  0  0  0  0  0
  192.0090  174.1660  145.5860 C   0  0  1  0  0  3  0  0  0  0  0  0
  193.6210  171.4860  143.5700 C   0  0  1  0  0  3  0  0  0  0  0  0
  193.2840  176.3590  145.5790 C   0  0  0  0  0  2  0  0  0  0  0  0
  190.8970  171.9320  139.7210 C   0  0  0  0  0  2  0  0  0  0  0  0
  190.9250  173.8290  144.7010 N   0  0  2  0  0  0  0  0  0  0  0  0
  188.4110  175.9290  145.1360 F   0  0  0  0  0  0  0  0  0  0  0  0
  195.6490  173.4110  145.4600 O   0  0  0  0  0  0  0  0  0  0  0  0
  194.5660  175.5570  145.9260 C   0  0  0  0  0  2  0  0  0  0  0  0
  189.6930  173.9480  145.4680 C   0  0  0  0  0  2  0  0  0  0  0  0
  191.7880  170.4230  141.5540 N   0  0  0  0  0  0  0  0  0  0  0  0
  192.8410  169.5840  142.1140 C   0  0  0  0  0  2  0  0  0  0  0  0
  194.4170  174.0250  145.7690 C   0  0  1  0  0  3  0  0  0  0  0  0
  191.2500  172.4560  144.2990 C   0  0  1  0  0  3  0  0  0  0  0  0
  190.7100  176.3260  145.6170 C   0  0  0  0  0  2  0  0  0  0  0  0
  195.1560  171.5550  143.7370 C   0  0  1  0  0  3  0  0  0  0  0  0
  189.1380  175.4790  147.2240 O   0  0  0  0  0  1  0  0  0  0  0  0
  190.6660  170.8360  142.3970 C   0  0  0  0  0  2  0  0  0  0  0  0
  192.7950  170.5110  139.4410 O   0  0  0  0  0  0  0  0  0  0  0  0
  190.8080  172.3010  142.8290 C   0  0  2  0  0  3  0  0  0  0  0  0
  195.8470  173.2510  143.7490 S   0  0  0  0  0  0  0  0  0  0  0  0
  197.1360  170.4320  144.7860 C   0  0  0  0  0  3  0  0  0  0  0  0
  195.7550  170.6610  144.7930 C   0  0  0  0  0  0  0  0  0  0  0  0
  194.9640  170.0780  145.7940 C   0  0  0  0  0  3  0  0  0  0  0  0
  194.5540  168.5410  148.0130 Cl  0  0  0  0  0  0  0  0  0  0  0  0
  196.9280  169.0390  146.7540 C   0  0  0  0  0  3  0  0  0  0  0  0
  195.5490  169.2670  146.7710 C   0  0  0  0  0  0  0  0  0  0  0  0
  197.7210  169.6220  145.7630 C   0  0  0  0  0  3  0  0  0  0  0  0
  192.9650  174.3250  140.4050 C   0  0  0  0  0  1  0  0  0  0  0  0
  191.7820  174.1590  139.6820 O   0  0  0  0  0  0  0  0  0  0  0  0
  1 27  1  0  0  0  0
  2 14  1  6  0  0  0
  2 24  1  0  0  0  0
  3  9  1  0  0  0  0
  3 20  1  0  0  0  0
  4  1  1  0  0  0  0
  5 10  1  0  0  0  0
  7  3  1  0  0  0  0
  8 18  1  0  0  0  0
  9  6  1  0  0  0  0
 10 23  1  0  0  0  0
 10  7  1  0  0  0  0
 11 16  1  0  0  0  0
 11  6  1  0  0  0  0
 12  8  1  0  0  0  0
 12  4  1  0  0  0  0
 13 17  1  0  0  0  0
 13  9  1  0  0  0  0
 15 20  1  0  0  0  0
 17  2  1  0  0  0  0
 18 19  1  0  0  0  0
 18 25  1  0  0  0  0
 19  5  1  0  0  0  0
 20 16  1  0  0  0  0
 21  7  1  0  0  0  0
 21 13  1  0  0  0  0
 22  2  1  0  0  0  0
 22  6  1  0  0  0  0
 23 28  1  0  0  0  0
 23 30  1  0  0  0  0
 25 27  1  0  0  0  0
 26  8  2  0  0  0  0
 27 21  1  0  0  0  0
 28 15  1  0  0  0  0
 29 30  2  0  0  0  0
 29 35  1  0  0  0  0
 30 31  1  0  0  0  0
 31 34  2  0  0  0  0
 33 34  1  0  0  0  0
 34 32  1  0  0  0  0
 35 33  2  0  0  0  0
 37 36  1  0  0  0  0
 37  4  1  0  0  0  0
M  END
>  <MODEL>
6

>  <REMARK>
 VINA RESULT:      -7.8      4.245      7.857
  Name = 
  2 active torsions:
  status: ('A' for Active; 'I' for Inactive)
    1  A    between atoms: C_4  and  O_37
    2  A    between atoms: C_23  and  C_30
                            x       y       z     vdW  Elec       q    Type
                         _______ _______ _______ _____ _____    ______ ____

>  <TORSDO>
F 2

$$$$
=
 OpenBabel11112417153D

 37 43  0  0  1  0  0  0  0  0999 V2000
  194.3090  174.3210  143.4670 C   0  0  0  0  0  2  0  0  0  0  0  0
  190.3590  176.4810  145.7540 C   0  0  1  0  0  0  0  0  0  0  0  0
  191.0270  173.5160  142.7760 C   0  0  1  0  0  3  0  0  0  0  0  0
  195.7500  174.4320  143.9900 C   0  0  2  0  0  3  0  0  0  0  0  0
  193.2100  174.5410  139.7060 C   0  0  0  0  0  2  0  0  0  0  0  0
  189.6750  174.1890  144.8510 C   0  0  1  0  0  3  0  0  0  0  0  0
  191.7010  174.3630  141.7120 C   0  0  2  0  0  3  0  0  0  0  0  0
  196.3990  174.4710  141.5370 C   0  0  0  0  0  0  0  0  0  0  0  0
  190.4620  174.6100  143.6050 C   0  0  1  0  0  3  0  0  0  0  0  0
  192.7320  173.6200  140.8290 C   0  0  1  0  0  3  0  0  0  0  0  0
  189.6920  172.6660  145.0420 C   0  0  0  0  0  2  0  0  0  0  0  0
  196.7960  174.8360  142.9350 C   0  0  0  0  0  2  0  0  0  0  0  0
  191.5900  175.4590  143.8860 N   0  0  2  0  0  0  0  0  0  0  0  0
  191.1350  177.0380  146.7530 F   0  0  0  0  0  0  0  0  0  0  0  0
  190.0810  171.6180  141.4300 O   0  0  0  0  0  0  0  0  0  0  0  0
  189.3170  171.9160  143.7370 C   0  0  0  0  0  2  0  0  0  0  0  0
  191.0620  176.7180  144.3930 C   0  0  0  0  0  2  0  0  0  0  0  0
  195.2540  175.0960  140.9390 N   0  0  0  0  0  0  0  0  0  0  0  0
  194.7290  174.6210  139.6650 C   0  0  0  0  0  2  0  0  0  0  0  0
  189.8690  172.5710  142.4480 C   0  0  1  0  0  3  0  0  0  0  0  0
  192.2470  175.5680  142.5790 C   0  0  1  0  0  3  0  0  0  0  0  0
  190.1480  174.9780  146.0800 C   0  0  0  0  0  2  0  0  0  0  0  0
  192.2670  172.2740  140.2260 C   0  0  1  0  0  3  0  0  0  0  0  0
  189.1210  177.1230  145.7380 O   0  0  0  0  0  1  0  0  0  0  0  0
  194.5620  176.1700  141.6530 C   0  0  0  0  0  2  0  0  0  0  0  0
  197.0540  173.5960  140.9110 O   0  0  0  0  0  0  0  0  0  0  0  0
  193.7660  175.6200  142.8430 C   0  0  2  0  0  3  0  0  0  0  0  0
  191.7120  171.0380  141.4570 S   0  0  0  0  0  0  0  0  0  0  0  0
  191.5730  171.4660  137.9580 C   0  0  0  0  0  3  0  0  0  0  0  0
  191.3680  172.3570  139.0180 C   0  0  0  0  0  0  0  0  0  0  0  0
  190.3210  173.2870  138.9460 C   0  0  0  0  0  3  0  0  0  0  0  0
  188.1920  174.4960  137.7400 Cl  0  0  0  0  0  0  0  0  0  0  0  0
  189.7050  172.4410  136.7640 C   0  0  0  0  0  3  0  0  0  0  0  0
  189.4930  173.3300  137.8210 C   0  0  0  0  0  0  0  0  0  0  0  0
  190.7440  171.5090  136.8330 C   0  0  0  0  0  3  0  0  0  0  0  0
  196.8130  173.5700  145.7290 C   0  0  0  0  0  1  0  0  0  0  0  0
  196.1220  173.2170  144.5690 O   0  0  0  0  0  0  0  0  0  0  0  0
  1  4  1  0  0  0  0
  2 24  1  6  0  0  0
  2 22  1  0  0  0  0
  2 14  1  0  0  0  0
  3  9  1  0  0  0  0
  4 37  1  0  0  0  0
  5 10  1  0  0  0  0
  6 11  1  0  0  0  0
  6 22  1  0  0  0  0
  7 21  1  0  0  0  0
  7  3  1  0  0  0  0
  8 12  1  0  0  0  0
  9 13  1  0  0  0  0
  9  6  1  0  0  0  0
 10  7  1  0  0  0  0
 12  4  1  0  0  0  0
 13 17  1  0  0  0  0
 15 28  1  0  0  0  0
 15 20  1  0  0  0  0
 16 11  1  0  0  0  0
 17  2  1  0  0  0  0
 18  8  1  0  0  0  0
 18 25  1  0  0  0  0
 19  5  1  0  0  0  0
 19 18  1  0  0  0  0
 20  3  1  0  0  0  0
 20 16  1  0  0  0  0
 21 27  1  0  0  0  0
 21 13  1  0  0  0  0
 23 10  1  0  0  0  0
 23 28  1  0  0  0  0
 25 27  1  0  0  0  0
 26  8  2  0  0  0  0
 27  1  1  0  0  0  0
 29 30  1  0  0  0  0
 30 23  1  0  0  0  0
 31 30  2  0  0  0  0
 32 34  1  0  0  0  0
 33 35  1  0  0  0  0
 33 34  2  0  0  0  0
 34 31  1  0  0  0  0
 35 29  2  0  0  0  0
 37 36  1  0  0  0  0
M  END
>  <MODEL>
7

>  <REMARK>
 VINA RESULT:      -7.5      3.408      6.398
  Name = 
  2 active torsions:
  status: ('A' for Active; 'I' for Inactive)
    1  A    between atoms: C_4  and  O_37
    2  A    between atoms: C_23  and  C_30
                            x       y       z     vdW  Elec       q    Type
                         _______ _______ _______ _____ _____    ______ ____

>  <TORSDO>
F 2

$$$$
=
 OpenBabel11112417153D

 37 43  0  0  1  0  0  0  0  0999 V2000
  194.1200  175.3400  143.8250 C   0  0  0  0  0  2  0  0  0  0  0  0
  189.5580  177.2540  144.8340 C   0  0  1  0  0  0  0  0  0  0  0  0
  191.1700  173.6390  143.2740 C   0  0  1  0  0  3  0  0  0  0  0  0
  195.4260  175.9450  144.3610 C   0  0  2  0  0  3  0  0  0  0  0  0
  193.5600  173.9380  140.2010 C   0  0  0  0  0  2  0  0  0  0  0  0
  189.4320  174.7010  144.8350 C   0  0  1  0  0  3  0  0  0  0  0  0
  191.8300  174.1700  142.0150 C   0  0  2  0  0  3  0  0  0  0  0  0
  196.4090  175.2380  142.1310 C   0  0  0  0  0  0  0  0  0  0  0  0
  190.3040  174.8050  143.5790 C   0  0  1  0  0  3  0  0  0  0  0  0
  193.0950  173.4040  141.5570 C   0  0  1  0  0  3  0  0  0  0  0  0
  189.6910  173.3930  145.5960 C   0  0  0  0  0  2  0  0  0  0  0  0
  196.5260  176.1610  143.3060 C   0  0  0  0  0  2  0  0  0  0  0  0
  191.2100  175.9240  143.5890 N   0  0  2  0  0  0  0  0  0  0  0  0
  190.0680  178.2900  145.5930 F   0  0  0  0  0  0  0  0  0  0  0  0
  190.7840  171.2240  142.6980 O   0  0  0  0  0  0  0  0  0  0  0  0
  189.6500  172.1590  144.6560 C   0  0  0  0  0  2  0  0  0  0  0  0
  190.3990  177.1320  143.5360 C   0  0  0  0  0  2  0  0  0  0  0  0
  195.2700  175.3360  141.2630 N   0  0  0  0  0  0  0  0  0  0  0  0
  195.0310  174.3300  140.2360 C   0  0  0  0  0  2  0  0  0  0  0  0
  190.2590  172.4090  143.2560 C   0  0  1  0  0  3  0  0  0  0  0  0
  192.0210  175.6950  142.3880 C   0  0  1  0  0  3  0  0  0  0  0  0
  189.5720  175.9630  145.6960 C   0  0  0  0  0  2  0  0  0  0  0  0
  192.9700  171.8640  141.4860 C   0  0  1  0  0  3  0  0  0  0  0  0
  188.2410  177.5580  144.4880 O   0  0  0  0  0  1  0  0  0  0  0  0
  194.3020  176.4150  141.4610 C   0  0  0  0  0  2  0  0  0  0  0  0
  197.2930  174.3630  141.9360 O   0  0  0  0  0  0  0  0  0  0  0  0
  193.4510  176.1710  142.7140 C   0  0  2  0  0  3  0  0  0  0  0  0
  192.4700  171.0670  143.0570 S   0  0  0  0  0  0  0  0  0  0  0  0
  191.1500  171.9920  139.7690 C   0  0  0  0  0  3  0  0  0  0  0  0
  192.2570  171.3060  140.2810 C   0  0  0  0  0  0  0  0  0  0  0  0
  192.6940  170.1310  139.6500 C   0  0  0  0  0  3  0  0  0  0  0  0
  192.5740  168.1790  137.7460 Cl  0  0  0  0  0  0  0  0  0  0  0  0
  190.9160  170.3330  138.0210 C   0  0  0  0  0  3  0  0  0  0  0  0
  192.0240  169.6460  138.5240 C   0  0  0  0  0  0  0  0  0  0  0  0
  190.4800  171.5060  138.6430 C   0  0  0  0  0  3  0  0  0  0  0  0
  194.8990  174.2190  145.6400 C   0  0  0  0  0  1  0  0  0  0  0  0
  195.9200  175.1360  145.3860 O   0  0  0  0  0  0  0  0  0  0  0  0
  1  4  1  0  0  0  0
  2 24  1  6  0  0  0
  2 14  1  0  0  0  0
  2 22  1  0  0  0  0
  3  9  1  0  0  0  0
  4 37  1  0  0  0  0
  5 19  1  0  0  0  0
  5 10  1  0  0  0  0
  6 11  1  0  0  0  0
  6 22  1  0  0  0  0
  7 21  1  0  0  0  0
  7  3  1  0  0  0  0
  8 12  1  0  0  0  0
  9 13  1  0  0  0  0
  9  6  1  0  0  0  0
 10  7  1  0  0  0  0
 12  4  1  0  0  0  0
 15 28  1  0  0  0  0
 15 20  1  0  0  0  0
 16 11  1  0  0  0  0
 17 13  1  0  0  0  0
 17  2  1  0  0  0  0
 18 25  1  0  0  0  0
 18  8  1  0  0  0  0
 19 18  1  0  0  0  0
 20  3  1  0  0  0  0
 20 16  1  0  0  0  0
 21 27  1  0  0  0  0
 21 13  1  0  0  0  0
 23 10  1  0  0  0  0
 23 28  1  0  0  0  0
 25 27  1  0  0  0  0
 26  8  2  0  0  0  0
 27  1  1  0  0  0  0
 29 30  1  0  0  0  0
 30 23  1  0  0  0  0
 31 30  2  0  0  0  0
 32 34  1  0  0  0  0
 33 34  2  0  0  0  0
 33 35  1  0  0  0  0
 34 31  1  0  0  0  0
 35 29  2  0  0  0  0
 37 36  1  0  0  0  0
M  END
>  <MODEL>
8

>  <REMARK>
 VINA RESULT:      -7.3      3.831      6.849
  Name = 
  2 active torsions:
  status: ('A' for Active; 'I' for Inactive)
    1  A    between atoms: C_4  and  O_37
    2  A    between atoms: C_23  and  C_30
                            x       y       z     vdW  Elec       q    Type
                         _______ _______ _______ _____ _____    ______ ____

>  <TORSDO>
F 2

$$$$
=
 OpenBabel11112417153D

 37 43  0  0  1  0  0  0  0  0999 V2000
  193.7830  174.0050  144.1820 C   0  0  0  0  0  2  0  0  0  0  0  0
  188.9450  175.2750  143.4850 C   0  0  1  0  0  0  0  0  0  0  0  0
  192.1800  173.8250  141.1320 C   0  0  1  0  0  3  0  0  0  0  0  0
  194.4020  173.7720  145.5680 C   0  0  2  0  0  3  0  0  0  0  0  0
  195.4910  175.8930  141.1940 C   0  0  0  0  0  2  0  0  0  0  0  0
  189.6730  173.6480  141.6530 C   0  0  1  0  0  3  0  0  0  0  0  0
  193.1420  174.9910  141.2650 C   0  0  2  0  0  3  0  0  0  0  0  0
  196.4900  174.8050  144.5630 C   0  0  0  0  0  0  0  0  0  0  0  0
  190.9470  174.5000  141.6090 C   0  0  1  0  0  3  0  0  0  0  0  0
  194.6440  174.6200  141.2110 C   0  0  1  0  0  3  0  0  0  0  0  0
  189.9530  172.1930  141.2510 C   0  0  0  0  0  2  0  0  0  0  0  0
  195.7310  174.5060  145.8200 C   0  0  0  0  0  2  0  0  0  0  0  0
  191.3200  175.0590  142.8820 N   0  0  2  0  0  0  0  0  0  0  0  0
  188.6670  175.2910  144.8390 F   0  0  0  0  0  0  0  0  0  0  0  0
  192.9220  172.7620  138.9810 O   0  0  0  0  0  0  0  0  0  0  0  0
  190.7650  172.1030  139.9320 C   0  0  0  0  0  2  0  0  0  0  0  0
  190.2860  176.0170  143.2480 C   0  0  0  0  0  2  0  0  0  0  0  0
  195.9350  175.7110  143.5980 N   0  0  0  0  0  0  0  0  0  0  0  0
  196.5510  175.8670  142.2860 C   0  0  0  0  0  2  0  0  0  0  0  0
  191.8430  173.2020  139.7750 C   0  0  1  0  0  3  0  0  0  0  0  0
  192.6260  175.6650  142.6000 C   0  0  1  0  0  3  0  0  0  0  0  0
  188.9700  173.7980  143.0090 C   0  0  0  0  0  2  0  0  0  0  0  0
  195.0770  173.7000  140.0460 C   0  0  1  0  0  3  0  0  0  0  0  0
  187.9310  175.9550  142.8110 O   0  0  0  0  0  1  0  0  0  0  0  0
  194.6970  176.4260  143.9070 C   0  0  0  0  0  2  0  0  0  0  0  0
  197.5920  174.2340  144.3490 O   0  0  0  0  0  0  0  0  0  0  0  0
  193.4880  175.4830  143.8650 C   0  0  2  0  0  3  0  0  0  0  0  0
  194.1850  172.1030  139.9640 S   0  0  0  0  0  0  0  0  0  0  0  0
  196.4640  174.2290  138.0280 C   0  0  0  0  0  3  0  0  0  0  0  0
  195.2430  174.3590  138.7010 C   0  0  0  0  0  0  0  0  0  0  0  0
  194.1970  175.0760  138.1000 C   0  0  0  0  0  3  0  0  0  0  0  0
  193.0660  176.5570  136.1060 Cl  0  0  0  0  0  0  0  0  0  0  0  0
  195.5980  175.5320  136.1800 C   0  0  0  0  0  3  0  0  0  0  0  0
  194.3750  175.6620  136.8440 C   0  0  0  0  0  0  0  0  0  0  0  0
  196.6410  174.8150  136.7710 C   0  0  0  0  0  3  0  0  0  0  0  0
  193.7320  171.7910  144.8430 C   0  0  0  0  0  1  0  0  0  0  0  0
  194.5860  172.4020  145.7630 O   0  0  0  0  0  0  0  0  0  0  0  0
  1  4  1  0  0  0  0
  2 24  1  6  0  0  0
  2 14  1  0  0  0  0
  3  7  1  0  0  0  0
  3  9  1  0  0  0  0
  4 37  1  0  0  0  0
  4 12  1  0  0  0  0
  5 10  1  0  0  0  0
  5 19  1  0  0  0  0
  6 22  1  0  0  0  0
  7 21  1  0  0  0  0
  8 12  1  0  0  0  0
  9  6  1  0  0  0  0
  9 13  1  0  0  0  0
 10  7  1  0  0  0  0
 11  6  1  0  0  0  0
 13 17  1  0  0  0  0
 15 20  1  0  0  0  0
 15 28  1  0  0  0  0
 16 11  1  0  0  0  0
 17  2  1  0  0  0  0
 18 25  1  0  0  0  0
 18  8  1  0  0  0  0
 19 18  1  0  0  0  0
 20 16  1  0  0  0  0
 20  3  1  0  0  0  0
 21 13  1  0  0  0  0
 21 27  1  0  0  0  0
 22  2  1  0  0  0  0
 23 10  1  0  0  0  0
 26  8  2  0  0  0  0
 27 25  1  0  0  0  0
 27  1  1  0  0  0  0
 28 23  1  0  0  0  0
 29 30  1  0  0  0  0
 30 23  1  0  0  0  0
 31 30  2  0  0  0  0
 32 34  1  0  0  0  0
 33 35  1  0  0  0  0
 33 34  2  0  0  0  0
 34 31  1  0  0  0  0
 35 29  2  0  0  0  0
 36 37  1  0  0  0  0
M  END
>  <MODEL>
9

>  <REMARK>
 VINA RESULT:      -7.1      4.085      6.819
  Name = 
  2 active torsions:
  status: ('A' for Active; 'I' for Inactive)
    1  A    between atoms: C_4  and  O_37
    2  A    between atoms: C_23  and  C_30
                            x       y       z     vdW  Elec       q    Type
                         _______ _______ _______ _____ _____    ______ ____

>  <TORSDO>
F 2

$$$$
