=
 OpenBabel11112416463D

 31 35  0  0  1  0  0  0  0  0999 V2000
  184.8210  177.8340  146.5690 C   0  0  0  0  0  0  0  0  0  0  0  0
  187.1970  176.3930  144.0370 N   0  0  0  0  0  0  0  0  0  0  0  0
  186.7610  176.7620  142.7050 C   0  0  0  0  0  0  0  0  0  0  0  0
  185.1940  177.8510  141.1960 C   0  0  0  0  0  0  0  0  0  0  0  0
  186.6690  177.0450  145.2080 C   0  0  0  0  0  0  0  0  0  0  0  0
  185.7240  178.3090  147.5250 C   0  0  0  0  0  3  0  0  0  0  0  0
  185.5530  177.4430  142.4830 C   0  0  0  0  0  3  0  0  0  0  0  0
  189.4920  176.7470  144.8070 C   0  0  2  0  0  3  0  0  0  0  0  0
  183.4890  177.9860  146.7610 F   0  0  0  0  0  0  0  0  0  0  0  0
  188.8040  175.8250  141.8100 O   0  0  0  0  0  0  0  0  0  0  0  0
  183.6820  178.6950  140.9370 Cl  0  0  0  0  0  0  0  0  0  0  0  0
  188.9520  177.3290  145.9980 O   0  0  0  0  0  0  0  0  0  0  0  0
  188.4990  175.7300  144.2330 C   0  0  2  0  0  3  0  0  0  0  0  0
  185.2910  177.1990  145.4150 C   0  0  0  0  0  3  0  0  0  0  0  0
  186.0460  177.5990  140.1180 C   0  0  0  0  0  3  0  0  0  0  0  0
  187.5730  177.5170  146.1800 C   0  0  0  0  0  0  0  0  0  0  0  0
  187.0980  178.1490  147.3320 C   0  0  0  0  0  3  0  0  0  0  0  0
  189.0030  175.0250  142.9700 C   0  0  0  0  0  2  0  0  0  0  0  0
  187.6040  176.5000  141.6100 C   0  0  0  0  0  0  0  0  0  0  0  0
  187.2510  176.9260  140.3260 C   0  0  0  0  0  3  0  0  0  0  0  0
  190.7640  176.1110  145.1200 N   0  0  0  0  0  2  0  0  0  0  0  0
  191.3170  178.0970  143.8370 C   0  0  0  0  0  1  0  0  0  0  0  0
  191.7800  176.7070  144.2610 C   0  0  1  0  0  3  0  0  0  0  0  0
  194.1140  174.1430  145.3680 C   0  0  1  0  0  3  0  0  0  0  0  0
  194.2230  176.0710  144.1770 C   0  0  0  0  0  2  0  0  0  0  0  0
  192.1730  176.7170  147.2300 O   0  0  0  0  0  1  0  0  0  0  0  0
  194.0290  172.6340  145.2830 C   0  0  0  0  0  1  0  0  0  0  0  0
  193.9250  174.6960  144.0870 O   0  0  0  0  0  0  0  0  0  0  0  0
  193.1500  176.1770  146.3930 C   0  0  2  0  0  3  0  0  0  0  0  0
  193.1380  176.8020  144.9850 C   0  0  2  0  0  3  0  0  0  0  0  0
  193.0430  174.6570  146.3310 C   0  0  0  0  0  2  0  0  0  0  0  0
  1  9  1  0  0  0  0
  1  6  1  0  0  0  0
  2 13  1  0  0  0  0
  2  5  1  0  0  0  0
  3  2  1  0  0  0  0
  4  7  2  0  0  0  0
  5 14  1  0  0  0  0
  5 16  2  0  0  0  0
  7  3  1  0  0  0  0
  8 21  1  1  0  0  0
  8 12  1  0  0  0  0
 10 18  1  0  0  0  0
 11  4  1  0  0  0  0
 12 16  1  0  0  0  0
 13 18  1  6  0  0  0
 13  8  1  0  0  0  0
 14  1  2  0  0  0  0
 15 20  2  0  0  0  0
 15  4  1  0  0  0  0
 16 17  1  0  0  0  0
 17  6  2  0  0  0  0
 19 10  1  0  0  0  0
 19  3  2  0  0  0  0
 20 19  1  0  0  0  0
 23 22  1  1  0  0  0
 23 21  1  0  0  0  0
 24 27  1  6  0  0  0
 24 31  1  0  0  0  0
 25 30  1  0  0  0  0
 28 25  1  0  0  0  0
 28 24  1  0  0  0  0
 29 26  1  1  0  0  0
 30 23  1  6  0  0  0
 30 29  1  0  0  0  0
 31 29  1  0  0  0  0
M  END
>  <MODEL>
1

>  <REMARK>
 VINA RESULT:      -8.8      0.000      0.000
  Name = 
  3 active torsions:
  status: ('A' for Active; 'I' for Inactive)
    1  A    between atoms: C_5  and  N_16
    2  A    between atoms: C_5  and  C_30
    3  A    between atoms: C_10  and  N_16
                            x       y       z     vdW  Elec       q    Type
                         _______ _______ _______ _____ _____    ______ ____

>  <TORSDO>
F 3

$$$$
=
 OpenBabel11112416463D

 31 35  0  0  1  0  0  0  0  0999 V2000
  185.6030  178.2470  140.6380 C   0  0  0  0  0  0  0  0  0  0  0  0
  188.0840  177.7840  143.4270 N   0  0  0  0  0  0  0  0  0  0  0  0
  187.3970  177.8760  144.7000 C   0  0  0  0  0  0  0  0  0  0  0  0
  185.3850  178.2310  146.0200 C   0  0  0  0  0  0  0  0  0  0  0  0
  187.3580  177.6170  142.1920 C   0  0  0  0  0  0  0  0  0  0  0  0
  186.0140  177.2380  139.7620 C   0  0  0  0  0  3  0  0  0  0  0  0
  186.0380  178.2210  144.7860 C   0  0  0  0  0  3  0  0  0  0  0  0
  189.5650  175.9170  142.8730 C   0  0  2  0  0  3  0  0  0  0  0  0
  184.5550  179.0410  140.3140 F   0  0  0  0  0  0  0  0  0  0  0  0
  189.4360  177.1990  145.8120 O   0  0  0  0  0  0  0  0  0  0  0  0
  183.6910  178.6660  146.1090 Cl  0  0  0  0  0  0  0  0  0  0  0  0
  188.8800  175.8090  141.6190 O   0  0  0  0  0  0  0  0  0  0  0  0
  189.4950  177.3640  143.3750 C   0  0  2  0  0  3  0  0  0  0  0  0
  186.2760  178.4400  141.8490 C   0  0  0  0  0  3  0  0  0  0  0  0
  186.0770  177.8800  147.1810 C   0  0  0  0  0  3  0  0  0  0  0  0
  187.7730  176.6090  141.3000 C   0  0  0  0  0  0  0  0  0  0  0  0
  187.0990  176.4210  140.0910 C   0  0  0  0  0  3  0  0  0  0  0  0
  190.2310  177.5890  144.7000 C   0  0  0  0  0  2  0  0  0  0  0  0
  188.0880  177.5400  145.8770 C   0  0  0  0  0  0  0  0  0  0  0  0
  187.4270  177.5320  147.1090 C   0  0  0  0  0  3  0  0  0  0  0  0
  190.9470  175.4920  142.7010 N   0  0  0  0  0  2  0  0  0  0  0  0
  190.4850  173.4500  143.9310 C   0  0  0  0  0  1  0  0  0  0  0  0
  191.3230  174.7230  143.8810 C   0  0  1  0  0  3  0  0  0  0  0  0
  194.1350  175.9820  145.8200 C   0  0  1  0  0  3  0  0  0  0  0  0
  193.2900  173.9510  145.2650 C   0  0  0  0  0  2  0  0  0  0  0  0
  193.4010  176.0370  142.1710 O   0  0  0  0  0  1  0  0  0  0  0  0
  194.1910  177.0530  146.8880 C   0  0  0  0  0  1  0  0  0  0  0  0
  193.1590  175.0270  146.1650 O   0  0  0  0  0  0  0  0  0  0  0  0
  193.7430  175.5230  143.4220 C   0  0  2  0  0  3  0  0  0  0  0  0
  192.8240  174.3670  143.8600 C   0  0  2  0  0  3  0  0  0  0  0  0
  193.7970  176.6240  144.4750 C   0  0  0  0  0  2  0  0  0  0  0  0
  1 14  1  0  0  0  0
  2  3  1  0  0  0  0
  3  7  2  0  0  0  0
  3 19  1  0  0  0  0
  4 11  1  0  0  0  0
  4 15  2  0  0  0  0
  5  2  1  0  0  0  0
  6 17  1  0  0  0  0
  6  1  2  0  0  0  0
  7  4  1  0  0  0  0
  8 21  1  6  0  0  0
  8 13  1  0  0  0  0
  9  1  1  0  0  0  0
 10 19  1  0  0  0  0
 12  8  1  0  0  0  0
 13  2  1  0  0  0  0
 13 18  1  1  0  0  0
 14  5  2  0  0  0  0
 16 12  1  0  0  0  0
 16  5  1  0  0  0  0
 17 16  2  0  0  0  0
 18 10  1  0  0  0  0
 19 20  2  0  0  0  0
 20 15  1  0  0  0  0
 21 23  1  0  0  0  0
 23 22  1  6  0  0  0
 24 28  1  0  0  0  0
 24 27  1  1  0  0  0
 25 28  1  0  0  0  0
 29 26  1  6  0  0  0
 29 30  1  0  0  0  0
 29 31  1  0  0  0  0
 30 23  1  1  0  0  0
 30 25  1  0  0  0  0
 31 24  1  0  0  0  0
M  END
>  <MODEL>
2

>  <REMARK>
 VINA RESULT:      -8.5      2.013      4.435
  Name = 
  3 active torsions:
  status: ('A' for Active; 'I' for Inactive)
    1  A    between atoms: C_5  and  N_16
    2  A    between atoms: C_5  and  C_30
    3  A    between atoms: C_10  and  N_16
                            x       y       z     vdW  Elec       q    Type
                         _______ _______ _______ _____ _____    ______ ____

>  <TORSDO>
F 3

$$$$
=
 OpenBabel11112416463D

 31 35  0  0  1  0  0  0  0  0999 V2000
  186.8210  177.5490  140.9640 C   0  0  0  0  0  0  0  0  0  0  0  0
  188.2250  177.4460  144.4510 N   0  0  0  0  0  0  0  0  0  0  0  0
  187.1950  177.8290  145.3950 C   0  0  0  0  0  0  0  0  0  0  0  0
  184.9350  178.5740  145.9040 C   0  0  0  0  0  0  0  0  0  0  0  0
  187.9060  177.1000  143.0880 C   0  0  0  0  0  0  0  0  0  0  0  0
  187.3480  176.3650  140.4420 C   0  0  0  0  0  3  0  0  0  0  0  0
  185.9340  178.2810  144.9720 C   0  0  0  0  0  3  0  0  0  0  0  0
  189.5480  175.4050  144.7160 C   0  0  2  0  0  3  0  0  0  0  0  0
  186.0390  178.3410  140.1920 F   0  0  0  0  0  0  0  0  0  0  0  0
  188.6780  177.2290  147.2090 O   0  0  0  0  0  0  0  0  0  0  0  0
  183.3710  179.1400  145.3600 Cl  0  0  0  0  0  0  0  0  0  0  0  0
  189.2810  175.1100  143.3400 O   0  0  0  0  0  0  0  0  0  0  0  0
  189.5150  176.9220  144.9340 C   0  0  2  0  0  3  0  0  0  0  0  0
  187.1020  177.9200  142.2830 C   0  0  0  0  0  3  0  0  0  0  0  0
  185.1790  178.4010  147.2690 C   0  0  0  0  0  3  0  0  0  0  0  0
  188.4430  175.9130  142.5530 C   0  0  0  0  0  0  0  0  0  0  0  0
  188.1600  175.5490  141.2330 C   0  0  0  0  0  3  0  0  0  0  0  0
  189.8240  177.3410  146.3750 C   0  0  0  0  0  2  0  0  0  0  0  0
  187.4340  177.6740  146.7720 C   0  0  0  0  0  0  0  0  0  0  0  0
  186.4270  177.9490  147.7020 C   0  0  0  0  0  3  0  0  0  0  0  0
  190.8470  174.8560  145.0790 N   0  0  0  0  0  2  0  0  0  0  0  0
  192.6560  175.1090  143.4800 C   0  0  0  0  0  1  0  0  0  0  0  0
  191.4370  174.2830  143.8750 C   0  0  1  0  0  3  0  0  0  0  0  0
  191.2430  171.3630  141.7110 C   0  0  1  0  0  3  0  0  0  0  0  0
  192.8210  172.3590  143.0010 C   0  0  0  0  0  2  0  0  0  0  0  0
  189.6730  172.1370  144.9960 O   0  0  0  0  0  1  0  0  0  0  0  0
  190.7010  171.2150  140.3060 C   0  0  0  0  0  1  0  0  0  0  0  0
  192.1940  172.4010  141.7390 O   0  0  0  0  0  0  0  0  0  0  0  0
  190.6690  171.8170  144.0730 C   0  0  2  0  0  3  0  0  0  0  0  0
  191.8450  172.8120  144.0990 C   0  0  2  0  0  3  0  0  0  0  0  0
  190.0930  171.6710  142.6690 C   0  0  0  0  0  2  0  0  0  0  0  0
  1 14  1  0  0  0  0
  2 13  1  0  0  0  0
  2  3  1  0  0  0  0
  3 19  1  0  0  0  0
  4 15  2  0  0  0  0
  5  2  1  0  0  0  0
  6  1  2  0  0  0  0
  6 17  1  0  0  0  0
  7  3  2  0  0  0  0
  7  4  1  0  0  0  0
  8 13  1  0  0  0  0
  8 21  1  6  0  0  0
  9  1  1  0  0  0  0
 11  4  1  0  0  0  0
 12  8  1  0  0  0  0
 13 18  1  1  0  0  0
 14  5  2  0  0  0  0
 15 20  1  0  0  0  0
 16  5  1  0  0  0  0
 16 12  1  0  0  0  0
 17 16  2  0  0  0  0
 18 10  1  0  0  0  0
 19 10  1  0  0  0  0
 19 20  2  0  0  0  0
 23 22  1  1  0  0  0
 23 21  1  0  0  0  0
 24 27  1  6  0  0  0
 24 28  1  0  0  0  0
 24 31  1  0  0  0  0
 25 30  1  0  0  0  0
 28 25  1  0  0  0  0
 29 30  1  0  0  0  0
 29 26  1  1  0  0  0
 30 23  1  6  0  0  0
 31 29  1  0  0  0  0
M  END
>  <MODEL>
3

>  <REMARK>
 VINA RESULT:      -8.5      2.703      4.802
  Name = 
  3 active torsions:
  status: ('A' for Active; 'I' for Inactive)
    1  A    between atoms: C_5  and  N_16
    2  A    between atoms: C_5  and  C_30
    3  A    between atoms: C_10  and  N_16
                            x       y       z     vdW  Elec       q    Type
                         _______ _______ _______ _____ _____    ______ ____

>  <TORSDO>
F 3

$$$$
=
 OpenBabel11112416463D

 31 35  0  0  1  0  0  0  0  0999 V2000
  189.6890  171.9890  142.4480 C   0  0  0  0  0  0  0  0  0  0  0  0
  190.3600  174.4090  145.2460 N   0  0  0  0  0  0  0  0  0  0  0  0
  191.7910  174.5190  145.4530 C   0  0  0  0  0  0  0  0  0  0  0  0
  194.0790  173.8870  144.9240 C   0  0  0  0  0  0  0  0  0  0  0  0
  189.8170  173.8010  144.0580 C   0  0  0  0  0  0  0  0  0  0  0  0
  188.6950  172.6780  141.7480 C   0  0  0  0  0  3  0  0  0  0  0  0
  192.7040  173.7090  144.7590 C   0  0  0  0  0  3  0  0  0  0  0  0
  188.9250  176.3710  144.9640 C   0  0  2  0  0  3  0  0  0  0  0  0
  190.1110  170.7790  142.0100 F   0  0  0  0  0  0  0  0  0  0  0  0
  191.3940  176.3240  147.0150 O   0  0  0  0  0  0  0  0  0  0  0  0
  195.2030  172.8660  144.0530 Cl  0  0  0  0  0  0  0  0  0  0  0  0
  188.3450  175.7230  143.8260 O   0  0  0  0  0  0  0  0  0  0  0  0
  189.4380  175.3160  145.9520 C   0  0  2  0  0  3  0  0  0  0  0  0
  190.2460  172.5450  143.6040 C   0  0  0  0  0  3  0  0  0  0  0  0
  194.5590  174.8880  145.7720 C   0  0  0  0  0  3  0  0  0  0  0  0
  188.8080  174.4860  143.3540 C   0  0  0  0  0  0  0  0  0  0  0  0
  188.2520  173.9240  142.2010 C   0  0  0  0  0  3  0  0  0  0  0  0
  190.0490  175.9130  147.2240 C   0  0  0  0  0  2  0  0  0  0  0  0
  192.2840  175.5130  146.3160 C   0  0  0  0  0  0  0  0  0  0  0  0
  193.6620  175.7030  146.4650 C   0  0  0  0  0  3  0  0  0  0  0  0
  187.9260  177.2260  145.5880 N   0  0  0  0  0  2  0  0  0  0  0  0
  185.5290  176.8560  145.4740 C   0  0  0  0  0  1  0  0  0  0  0  0
  186.7720  177.2790  144.6990 C   0  0  1  0  0  3  0  0  0  0  0  0
  184.2710  178.6470  142.4360 C   0  0  1  0  0  3  0  0  0  0  0  0
  185.1650  179.2110  144.4430 C   0  0  0  0  0  2  0  0  0  0  0  0
  187.9670  178.3010  142.1500 O   0  0  0  0  0  1  0  0  0  0  0  0
  183.1050  177.9780  141.7400 C   0  0  0  0  0  1  0  0  0  0  0  0
  184.1940  178.4010  143.8200 O   0  0  0  0  0  0  0  0  0  0  0  0
  186.7360  178.7850  142.5930 C   0  0  2  0  0  3  0  0  0  0  0  0
  186.5770  178.6970  144.1220 C   0  0  2  0  0  3  0  0  0  0  0  0
  185.5810  178.0970  141.8720 C   0  0  0  0  0  2  0  0  0  0  0  0
  1 14  1  0  0  0  0
  2  3  1  0  0  0  0
  2 13  1  0  0  0  0
  3 19  1  0  0  0  0
  4 15  2  0  0  0  0
  5  2  1  0  0  0  0
  6 17  1  0  0  0  0
  6  1  2  0  0  0  0
  7  4  1  0  0  0  0
  7  3  2  0  0  0  0
  8 21  1  1  0  0  0
  8 13  1  0  0  0  0
  9  1  1  0  0  0  0
 10 18  1  0  0  0  0
 11  4  1  0  0  0  0
 12  8  1  0  0  0  0
 13 18  1  1  0  0  0
 14  5  2  0  0  0  0
 15 20  1  0  0  0  0
 16 12  1  0  0  0  0
 16  5  1  0  0  0  0
 17 16  2  0  0  0  0
 19 20  2  0  0  0  0
 19 10  1  0  0  0  0
 23 22  1  1  0  0  0
 23 21  1  0  0  0  0
 24 27  1  6  0  0  0
 24 28  1  0  0  0  0
 28 25  1  0  0  0  0
 29 26  1  1  0  0  0
 29 30  1  0  0  0  0
 30 25  1  0  0  0  0
 30 23  1  6  0  0  0
 31 24  1  0  0  0  0
 31 29  1  0  0  0  0
M  END
>  <MODEL>
4

>  <REMARK>
 VINA RESULT:      -8.4      3.650      7.864
  Name = 
  3 active torsions:
  status: ('A' for Active; 'I' for Inactive)
    1  A    between atoms: C_5  and  N_16
    2  A    between atoms: C_5  and  C_30
    3  A    between atoms: C_10  and  N_16
                            x       y       z     vdW  Elec       q    Type
                         _______ _______ _______ _____ _____    ______ ____

>  <TORSDO>
F 3

$$$$
=
 OpenBabel11112416463D

 31 35  0  0  1  0  0  0  0  0999 V2000
  185.3950  177.8940  146.8240 C   0  0  0  0  0  0  0  0  0  0  0  0
  187.6570  176.0680  144.4400 N   0  0  0  0  0  0  0  0  0  0  0  0
  187.2760  176.3860  143.0780 C   0  0  0  0  0  0  0  0  0  0  0  0
  185.8390  177.5120  141.4700 C   0  0  0  0  0  0  0  0  0  0  0  0
  187.1780  176.8450  145.5550 C   0  0  0  0  0  0  0  0  0  0  0  0
  186.3260  178.3460  147.7640 C   0  0  0  0  0  3  0  0  0  0  0  0
  186.1410  177.1600  142.7880 C   0  0  0  0  0  3  0  0  0  0  0  0
  189.9650  176.2560  145.2290 C   0  0  2  0  0  3  0  0  0  0  0  0
  184.0810  178.1830  146.9800 F   0  0  0  0  0  0  0  0  0  0  0  0
  189.2320  175.2020  142.2880 O   0  0  0  0  0  0  0  0  0  0  0  0
  184.4180  178.4750  141.1270 Cl  0  0  0  0  0  0  0  0  0  0  0  0
  189.4660  176.9660  146.3690 O   0  0  0  0  0  0  0  0  0  0  0  0
  188.8870  175.3010  144.7050 C   0  0  2  0  0  3  0  0  0  0  0  0
  185.8180  177.1410  145.7240 C   0  0  0  0  0  3  0  0  0  0  0  0
  186.6770  177.1090  140.4280 C   0  0  0  0  0  3  0  0  0  0  0  0
  188.1100  177.2940  146.5110 C   0  0  0  0  0  0  0  0  0  0  0  0
  187.6820  178.0440  147.6090 C   0  0  0  0  0  3  0  0  0  0  0  0
  189.3390  174.4670  143.5010 C   0  0  0  0  0  2  0  0  0  0  0  0
  188.1040  175.9720  142.0200 C   0  0  0  0  0  0  0  0  0  0  0  0
  187.8110  176.3420  140.7040 C   0  0  0  0  0  3  0  0  0  0  0  0
  191.1670  175.5260  145.6090 N   0  0  0  0  0  2  0  0  0  0  0  0
  191.9830  177.3390  144.2160 C   0  0  0  0  0  1  0  0  0  0  0  0
  192.2260  175.9090  144.6840 C   0  0  1  0  0  3  0  0  0  0  0  0
  195.4910  175.0220  143.3410 C   0  0  1  0  0  3  0  0  0  0  0  0
  194.6280  176.6900  144.6130 C   0  0  0  0  0  2  0  0  0  0  0  0
  193.3600  173.4440  145.9540 O   0  0  0  0  0  1  0  0  0  0  0  0
  195.9000  174.6120  141.9430 C   0  0  0  0  0  1  0  0  0  0  0  0
  194.7970  176.2460  143.2860 O   0  0  0  0  0  0  0  0  0  0  0  0
  194.2050  174.3780  145.3530 C   0  0  2  0  0  3  0  0  0  0  0  0
  193.6140  175.8000  145.3500 C   0  0  2  0  0  3  0  0  0  0  0  0
  194.6040  173.9360  143.9490 C   0  0  0  0  0  2  0  0  0  0  0  0
  1  9  1  0  0  0  0
  1  6  1  0  0  0  0
  2 13  1  0  0  0  0
  2  5  1  0  0  0  0
  3  2  1  0  0  0  0
  4  7  2  0  0  0  0
  5 14  1  0  0  0  0
  5 16  2  0  0  0  0
  7  3  1  0  0  0  0
  8 21  1  1  0  0  0
  8 12  1  0  0  0  0
 10 18  1  0  0  0  0
 11  4  1  0  0  0  0
 12 16  1  0  0  0  0
 13 18  1  6  0  0  0
 13  8  1  0  0  0  0
 14  1  2  0  0  0  0
 15 20  2  0  0  0  0
 15  4  1  0  0  0  0
 16 17  1  0  0  0  0
 17  6  2  0  0  0  0
 19 10  1  0  0  0  0
 19  3  2  0  0  0  0
 20 19  1  0  0  0  0
 23 22  1  1  0  0  0
 23 21  1  0  0  0  0
 24 27  1  6  0  0  0
 24 31  1  0  0  0  0
 25 30  1  0  0  0  0
 28 24  1  0  0  0  0
 28 25  1  0  0  0  0
 29 26  1  6  0  0  0
 30 23  1  6  0  0  0
 30 29  1  0  0  0  0
 31 29  1  0  0  0  0
M  END
>  <MODEL>
5

>  <REMARK>
 VINA RESULT:      -8.2      1.136      1.536
  Name = 
  3 active torsions:
  status: ('A' for Active; 'I' for Inactive)
    1  A    between atoms: C_5  and  N_16
    2  A    between atoms: C_5  and  C_30
    3  A    between atoms: C_10  and  N_16
                            x       y       z     vdW  Elec       q    Type
                         _______ _______ _______ _____ _____    ______ ____

>  <TORSDO>
F 3

$$$$
=
 OpenBabel11112416463D

 31 35  0  0  1  0  0  0  0  0999 V2000
  191.5730  171.2560  143.1710 C   0  0  0  0  0  0  0  0  0  0  0  0
  192.1790  174.2260  145.3960 N   0  0  0  0  0  0  0  0  0  0  0  0
  193.3990  174.8910  144.9860 C   0  0  0  0  0  0  0  0  0  0  0  0
  195.3640  175.0620  143.5610 C   0  0  0  0  0  0  0  0  0  0  0  0
  191.5340  173.2510  144.5520 C   0  0  0  0  0  0  0  0  0  0  0  0
  190.2010  171.3880  142.9380 C   0  0  0  0  0  3  0  0  0  0  0  0
  194.2330  174.3620  143.9870 C   0  0  0  0  0  3  0  0  0  0  0  0
  190.0730  175.4310  145.7070 C   0  0  2  0  0  3  0  0  0  0  0  0
  192.2580  170.2280  142.6160 F   0  0  0  0  0  0  0  0  0  0  0  0
  192.9100  176.6780  146.5420 O   0  0  0  0  0  0  0  0  0  0  0  0
  196.3930  174.3850  142.3170 Cl  0  0  0  0  0  0  0  0  0  0  0  0
  189.4320  174.4170  144.9240 O   0  0  0  0  0  0  0  0  0  0  0  0
  191.3020  174.8420  146.4080 C   0  0  2  0  0  3  0  0  0  0  0  0
  192.2380  172.1820  143.9800 C   0  0  0  0  0  3  0  0  0  0  0  0
  195.6660  176.3070  144.1160 C   0  0  0  0  0  3  0  0  0  0  0  0
  190.1500  173.3730  144.3220 C   0  0  0  0  0  0  0  0  0  0  0  0
  189.4890  172.4430  143.5140 C   0  0  0  0  0  3  0  0  0  0  0  0
  192.0400  175.8470  147.2990 C   0  0  0  0  0  2  0  0  0  0  0  0
  193.7220  176.1390  145.5490 C   0  0  0  0  0  0  0  0  0  0  0  0
  194.8440  176.8470  145.1070 C   0  0  0  0  0  3  0  0  0  0  0  0
  189.1230  175.9570  146.6770 N   0  0  0  0  0  2  0  0  0  0  0  0
  189.1990  177.5620  144.8560 C   0  0  0  0  0  1  0  0  0  0  0  0
  188.3830  177.0350  146.0320 C   0  0  1  0  0  3  0  0  0  0  0  0
  185.5830  178.8150  144.5370 C   0  0  1  0  0  3  0  0  0  0  0  0
  186.7900  176.9510  144.0730 C   0  0  0  0  0  2  0  0  0  0  0  0
  185.9000  176.8760  147.6980 O   0  0  0  0  0  1  0  0  0  0  0  0
  185.4040  180.2870  144.2300 C   0  0  0  0  0  1  0  0  0  0  0  0
  186.7750  178.3550  143.9460 O   0  0  0  0  0  0  0  0  0  0  0  0
  185.8120  177.1260  146.3290 C   0  0  2  0  0  3  0  0  0  0  0  0
  187.0040  176.5490  145.5420 C   0  0  2  0  0  3  0  0  0  0  0  0
  185.6280  178.6140  146.0510 C   0  0  0  0  0  2  0  0  0  0  0  0
  1 14  1  0  0  0  0
  2 13  1  0  0  0  0
  3  2  1  0  0  0  0
  3 19  1  0  0  0  0
  4  7  1  0  0  0  0
  4 15  2  0  0  0  0
  5  2  1  0  0  0  0
  6  1  2  0  0  0  0
  6 17  1  0  0  0  0
  7  3  2  0  0  0  0
  8 13  1  0  0  0  0
  8 21  1  1  0  0  0
  9  1  1  0  0  0  0
 10 18  1  0  0  0  0
 11  4  1  0  0  0  0
 12  8  1  0  0  0  0
 13 18  1  6  0  0  0
 14  5  2  0  0  0  0
 15 20  1  0  0  0  0
 16  5  1  0  0  0  0
 16 12  1  0  0  0  0
 17 16  2  0  0  0  0
 19 10  1  0  0  0  0
 20 19  2  0  0  0  0
 23 22  1  6  0  0  0
 23 21  1  0  0  0  0
 24 27  1  1  0  0  0
 24 31  1  0  0  0  0
 25 30  1  0  0  0  0
 28 25  1  0  0  0  0
 28 24  1  0  0  0  0
 29 26  1  1  0  0  0
 30 23  1  1  0  0  0
 30 29  1  0  0  0  0
 31 29  1  0  0  0  0
M  END
>  <MODEL>
6

>  <REMARK>
 VINA RESULT:      -8.1      3.960      7.880
  Name = 
  3 active torsions:
  status: ('A' for Active; 'I' for Inactive)
    1  A    between atoms: C_5  and  N_16
    2  A    between atoms: C_5  and  C_30
    3  A    between atoms: C_10  and  N_16
                            x       y       z     vdW  Elec       q    Type
                         _______ _______ _______ _____ _____    ______ ____

>  <TORSDO>
F 3

$$$$
=
 OpenBabel11112416463D

 31 35  0  0  1  0  0  0  0  0999 V2000
  189.0370  174.7790  147.6480 C   0  0  0  0  0  0  0  0  0  0  0  0
  188.9790  176.4240  144.2670 N   0  0  0  0  0  0  0  0  0  0  0  0
  187.8110  177.2770  144.1680 C   0  0  0  0  0  0  0  0  0  0  0  0
  185.7580  178.2010  145.0900 C   0  0  0  0  0  0  0  0  0  0  0  0
  189.4290  175.9100  145.5360 C   0  0  0  0  0  0  0  0  0  0  0  0
  190.3880  174.9200  147.9770 C   0  0  0  0  0  3  0  0  0  0  0  0
  186.8350  177.3170  145.1780 C   0  0  0  0  0  3  0  0  0  0  0  0
  191.2290  177.2220  143.7310 C   0  0  2  0  0  3  0  0  0  0  0  0
  188.1910  174.1660  148.5090 F   0  0  0  0  0  0  0  0  0  0  0  0
  188.6400  178.1150  142.0560 O   0  0  0  0  0  0  0  0  0  0  0  0
  184.5500  178.2360  146.3560 Cl  0  0  0  0  0  0  0  0  0  0  0  0
  191.6750  176.6440  144.9630 O   0  0  0  0  0  0  0  0  0  0  0  0
  190.0080  176.4530  143.2130 C   0  0  2  0  0  3  0  0  0  0  0  0
  188.5580  175.2680  146.4290 C   0  0  0  0  0  3  0  0  0  0  0  0
  185.6510  179.0680  144.0000 C   0  0  0  0  0  3  0  0  0  0  0  0
  190.7910  176.0400  145.8690 C   0  0  0  0  0  0  0  0  0  0  0  0
  191.2660  175.5470  147.0880 C   0  0  0  0  0  3  0  0  0  0  0  0
  189.4740  176.9780  141.8760 C   0  0  0  0  0  2  0  0  0  0  0  0
  187.6850  178.1420  143.0680 C   0  0  0  0  0  0  0  0  0  0  0  0
  186.6160  179.0410  142.9910 C   0  0  0  0  0  3  0  0  0  0  0  0
  192.3160  177.1850  142.7630 N   0  0  0  0  0  2  0  0  0  0  0  0
  192.8150  174.9730  141.8960 C   0  0  0  0  0  1  0  0  0  0  0  0
  193.0880  175.9740  143.0130 C   0  0  1  0  0  3  0  0  0  0  0  0
  195.8530  174.1570  144.5310 C   0  0  1  0  0  3  0  0  0  0  0  0
  195.4090  175.1060  142.5190 C   0  0  0  0  0  2  0  0  0  0  0  0
  194.4410  177.5400  145.1780 O   0  0  0  0  0  1  0  0  0  0  0  0
  195.8650  172.8650  145.3190 C   0  0  0  0  0  1  0  0  0  0  0  0
  195.2080  173.9480  143.2970 O   0  0  0  0  0  0  0  0  0  0  0  0
  195.1250  176.5210  144.5160 C   0  0  2  0  0  3  0  0  0  0  0  0
  194.5980  176.2810  143.0890 C   0  0  2  0  0  3  0  0  0  0  0  0
  195.1250  175.2340  145.3350 C   0  0  0  0  0  2  0  0  0  0  0  0
  1  6  1  0  0  0  0
  1  9  1  0  0  0  0
  2  5  1  0  0  0  0
  3  2  1  0  0  0  0
  3  7  1  0  0  0  0
  4  7  2  0  0  0  0
  4 11  1  0  0  0  0
  5 16  2  0  0  0  0
  5 14  1  0  0  0  0
  8 21  1  6  0  0  0
  8 12  1  0  0  0  0
 10 19  1  0  0  0  0
 12 16  1  0  0  0  0
 13 18  1  6  0  0  0
 13  8  1  0  0  0  0
 13  2  1  0  0  0  0
 14  1  2  0  0  0  0
 15  4  1  0  0  0  0
 16 17  1  0  0  0  0
 17  6  2  0  0  0  0
 18 10  1  0  0  0  0
 19  3  2  0  0  0  0
 20 19  1  0  0  0  0
 20 15  2  0  0  0  0
 21 23  1  0  0  0  0
 23 22  1  6  0  0  0
 24 27  1  1  0  0  0
 24 31  1  0  0  0  0
 25 30  1  0  0  0  0
 25 28  1  0  0  0  0
 28 24  1  0  0  0  0
 29 26  1  1  0  0  0
 29 31  1  0  0  0  0
 30 23  1  1  0  0  0
 30 29  1  0  0  0  0
M  END
>  <MODEL>
7

>  <REMARK>
 VINA RESULT:      -7.9      2.491      3.404
  Name = 
  3 active torsions:
  status: ('A' for Active; 'I' for Inactive)
    1  A    between atoms: C_5  and  N_16
    2  A    between atoms: C_5  and  C_30
    3  A    between atoms: C_10  and  N_16
                            x       y       z     vdW  Elec       q    Type
                         _______ _______ _______ _____ _____    ______ ____

>  <TORSDO>
F 3

$$$$
=
 OpenBabel11112416463D

 31 35  0  0  1  0  0  0  0  0999 V2000
  187.0430  176.8510  146.8870 C   0  0  0  0  0  0  0  0  0  0  0  0
  187.6040  176.0410  143.2580 N   0  0  0  0  0  0  0  0  0  0  0  0
  186.6470  176.7690  142.4500 C   0  0  0  0  0  0  0  0  0  0  0  0
  184.7560  178.2830  142.2260 C   0  0  0  0  0  0  0  0  0  0  0  0
  187.8320  176.3790  144.6410 C   0  0  0  0  0  0  0  0  0  0  0  0
  188.3620  177.0170  147.3180 C   0  0  0  0  0  3  0  0  0  0  0  0
  185.6190  177.5330  143.0270 C   0  0  0  0  0  3  0  0  0  0  0  0
  190.0060  176.0840  142.7950 C   0  0  2  0  0  3  0  0  0  0  0  0
  186.0200  177.0000  147.7620 F   0  0  0  0  0  0  0  0  0  0  0  0
  187.8040  176.0220  140.4610 O   0  0  0  0  0  0  0  0  0  0  0  0
  183.4780  179.2270  142.9620 Cl  0  0  0  0  0  0  0  0  0  0  0  0
  190.2210  176.3490  144.1860 O   0  0  0  0  0  0  0  0  0  0  0  0
  188.7030  175.2980  142.6160 C   0  0  2  0  0  3  0  0  0  0  0  0
  186.7770  176.5280  145.5530 C   0  0  0  0  0  3  0  0  0  0  0  0
  184.9200  178.2930  140.8390 C   0  0  0  0  0  3  0  0  0  0  0  0
  189.1600  176.5370  145.0840 C   0  0  0  0  0  0  0  0  0  0  0  0
  189.4200  176.8580  146.4190 C   0  0  0  0  0  3  0  0  0  0  0  0
  188.4010  174.9350  141.1580 C   0  0  0  0  0  2  0  0  0  0  0  0
  186.7930  176.7740  141.0520 C   0  0  0  0  0  0  0  0  0  0  0  0
  185.9400  177.5410  140.2530 C   0  0  0  0  0  3  0  0  0  0  0  0
  191.1410  175.3360  142.2710 N   0  0  0  0  0  2  0  0  0  0  0  0
  191.1380  173.0930  143.1990 C   0  0  0  0  0  1  0  0  0  0  0  0
  191.6680  174.5150  143.3530 C   0  0  1  0  0  3  0  0  0  0  0  0
  194.1020  175.9600  145.6410 C   0  0  1  0  0  3  0  0  0  0  0  0
  193.7440  173.9400  144.6730 C   0  0  0  0  0  2  0  0  0  0  0  0
  193.4150  176.5570  142.0320 O   0  0  0  0  0  1  0  0  0  0  0  0
  193.9040  176.7900  146.8910 C   0  0  0  0  0  1  0  0  0  0  0  0
  193.3630  174.7660  145.7500 O   0  0  0  0  0  0  0  0  0  0  0  0
  193.8500  175.8980  143.1820 C   0  0  2  0  0  3  0  0  0  0  0  0
  193.2100  174.5070  143.3480 C   0  0  2  0  0  3  0  0  0  0  0  0
  193.6430  176.7600  144.4230 C   0  0  0  0  0  2  0  0  0  0  0  0
  1  6  1  0  0  0  0
  1  9  1  0  0  0  0
  2  5  1  0  0  0  0
  3  7  1  0  0  0  0
  3  2  1  0  0  0  0
  4 11  1  0  0  0  0
  4  7  2  0  0  0  0
  5 16  2  0  0  0  0
  5 14  1  0  0  0  0
  8 21  1  1  0  0  0
  8 12  1  0  0  0  0
 10 19  1  0  0  0  0
 10 18  1  0  0  0  0
 12 16  1  0  0  0  0
 13 18  1  6  0  0  0
 13  8  1  0  0  0  0
 13  2  1  0  0  0  0
 14  1  2  0  0  0  0
 15  4  1  0  0  0  0
 16 17  1  0  0  0  0
 17  6  2  0  0  0  0
 19  3  2  0  0  0  0
 20 15  2  0  0  0  0
 20 19  1  0  0  0  0
 21 23  1  0  0  0  0
 23 22  1  6  0  0  0
 24 28  1  0  0  0  0
 24 27  1  1  0  0  0
 25 28  1  0  0  0  0
 29 26  1  6  0  0  0
 29 30  1  0  0  0  0
 29 31  1  0  0  0  0
 30 23  1  1  0  0  0
 30 25  1  0  0  0  0
 31 24  1  0  0  0  0
M  END
>  <MODEL>
8

>  <REMARK>
 VINA RESULT:      -7.9      1.626      2.541
  Name = 
  3 active torsions:
  status: ('A' for Active; 'I' for Inactive)
    1  A    between atoms: C_5  and  N_16
    2  A    between atoms: C_5  and  C_30
    3  A    between atoms: C_10  and  N_16
                            x       y       z     vdW  Elec       q    Type
                         _______ _______ _______ _____ _____    ______ ____

>  <TORSDO>
F 3

$$$$
=
 OpenBabel11112416463D

 31 35  0  0  1  0  0  0  0  0999 V2000
  186.2240  177.0670  142.8330 C   0  0  0  0  0  0  0  0  0  0  0  0
  188.7620  174.3020  142.6120 N   0  0  0  0  0  0  0  0  0  0  0  0
  188.9640  173.9460  141.2220 C   0  0  0  0  0  0  0  0  0  0  0  0
  188.4570  174.2020  138.8560 C   0  0  0  0  0  0  0  0  0  0  0  0
  188.0870  175.5190  142.9860 C   0  0  0  0  0  0  0  0  0  0  0  0
  186.8310  177.8950  143.7820 C   0  0  0  0  0  3  0  0  0  0  0  0
  188.1910  174.5080  140.1930 C   0  0  0  0  0  3  0  0  0  0  0  0
  190.6230  174.8070  144.1170 C   0  0  2  0  0  3  0  0  0  0  0  0
  185.0300  177.4140  142.2970 F   0  0  0  0  0  0  0  0  0  0  0  0
  190.7870  172.5020  141.8890 O   0  0  0  0  0  0  0  0  0  0  0  0
  187.4810  174.9100  137.5870 Cl  0  0  0  0  0  0  0  0  0  0  0  0
  189.9080  175.9770  144.5300 O   0  0  0  0  0  0  0  0  0  0  0  0
  189.6310  173.7330  143.6570 C   0  0  2  0  0  3  0  0  0  0  0  0
  186.8470  175.8790  142.4380 C   0  0  0  0  0  3  0  0  0  0  0  0
  189.5100  173.3440  138.5310 C   0  0  0  0  0  3  0  0  0  0  0  0
  188.6880  176.3520  143.9490 C   0  0  0  0  0  0  0  0  0  0  0  0
  188.0600  177.5370  144.3420 C   0  0  0  0  0  3  0  0  0  0  0  0
  190.3020  172.4240  143.2240 C   0  0  0  0  0  2  0  0  0  0  0  0
  190.0120  173.0710  140.8830 C   0  0  0  0  0  0  0  0  0  0  0  0
  190.2890  172.7810  139.5440 C   0  0  0  0  0  3  0  0  0  0  0  0
  191.4350  174.3250  145.2260 N   0  0  0  0  0  2  0  0  0  0  0  0
  192.2870  176.1750  146.5480 C   0  0  0  0  0  1  0  0  0  0  0  0
  192.5620  175.2370  145.3780 C   0  0  1  0  0  3  0  0  0  0  0  0
  195.9370  175.7530  144.1160 C   0  0  1  0  0  3  0  0  0  0  0  0
  194.9650  175.4160  146.1380 C   0  0  0  0  0  2  0  0  0  0  0  0
  193.5450  172.9250  143.7470 O   0  0  0  0  0  1  0  0  0  0  0  0
  196.4800  176.7910  143.1570 C   0  0  0  0  0  1  0  0  0  0  0  0
  195.2620  176.3980  145.1710 O   0  0  0  0  0  0  0  0  0  0  0  0
  194.4530  173.7900  144.3580 C   0  0  2  0  0  3  0  0  0  0  0  0
  193.8750  174.4640  145.6170 C   0  0  2  0  0  3  0  0  0  0  0  0
  194.9860  174.8200  143.3680 C   0  0  0  0  0  2  0  0  0  0  0  0
  1  6  1  0  0  0  0
  2  5  1  0  0  0  0
  2 13  1  0  0  0  0
  3  2  1  0  0  0  0
  4  7  1  0  0  0  0
  5 16  2  0  0  0  0
  6 17  2  0  0  0  0
  7  3  2  0  0  0  0
  8 12  1  0  0  0  0
  8 21  1  1  0  0  0
  9  1  1  0  0  0  0
 10 18  1  0  0  0  0
 11  4  1  0  0  0  0
 13 18  1  6  0  0  0
 13  8  1  0  0  0  0
 14  1  2  0  0  0  0
 14  5  1  0  0  0  0
 15  4  2  0  0  0  0
 15 20  1  0  0  0  0
 16 17  1  0  0  0  0
 16 12  1  0  0  0  0
 19  3  1  0  0  0  0
 19 10  1  0  0  0  0
 20 19  2  0  0  0  0
 21 23  1  0  0  0  0
 23 22  1  1  0  0  0
 24 27  1  6  0  0  0
 24 28  1  0  0  0  0
 28 25  1  0  0  0  0
 29 26  1  6  0  0  0
 29 30  1  0  0  0  0
 30 23  1  6  0  0  0
 30 25  1  0  0  0  0
 31 24  1  0  0  0  0
 31 29  1  0  0  0  0
M  END
>  <MODEL>
9

>  <REMARK>
 VINA RESULT:      -7.8      2.646      3.812
  Name = 
  3 active torsions:
  status: ('A' for Active; 'I' for Inactive)
    1  A    between atoms: C_5  and  N_16
    2  A    between atoms: C_5  and  C_30
    3  A    between atoms: C_10  and  N_16
                            x       y       z     vdW  Elec       q    Type
                         _______ _______ _______ _____ _____    ______ ____

>  <TORSDO>
F 3

$$$$
