=
 OpenBabel11112416243D

 30 35  0  0  1  0  0  0  0  0999 V2000
  188.2130  177.3120  145.8610 C   0  0  2  0  0  3  0  0  0  0  0  0
  186.0400  178.3860  146.5810 C   0  0  0  0  0  0  0  0  0  0  0  0
  186.6370  176.9190  141.9300 N   0  0  0  0  0  2  0  0  0  0  0  0
  189.1700  177.1570  144.6400 C   0  0  1  0  0  3  0  0  0  0  0  0
  188.0190  176.0760  146.4880 O   0  0  0  0  0  1  0  0  0  0  0  0
  191.0640  175.1610  142.7870 C   0  0  0  0  0  0  0  0  0  0  0  0
  189.6610  174.8370  142.3860 C   0  0  2  0  0  3  0  0  0  0  0  0
  187.6820  176.1350  141.3630 C   0  0  0  0  0  0  0  0  0  0  0  0
  190.4010  176.2680  144.9960 C   0  0  1  0  0  3  0  0  0  0  0  0
  184.7450  178.8390  146.3160 C   0  0  0  0  0  3  0  0  0  0  0  0
  189.9260  174.0910  141.1160 C   0  0  0  0  0  3  0  0  0  0  0  0
  191.9360  174.7060  141.9530 N   0  0  0  0  0  0  0  0  0  0  0  0
  186.5140  178.4130  147.8880 O   0  0  0  0  0  1  0  0  0  0  0  0
  187.2490  177.5470  143.0870 C   0  0  2  0  0  3  0  0  0  0  0  0
  184.2450  178.8220  145.0130 C   0  0  0  0  0  3  0  0  0  0  0  0
  186.8510  177.9070  145.5360 C   0  0  0  0  0  0  0  0  0  0  0  0
  188.3270  176.5790  143.5050 C   0  0  1  0  0  3  0  0  0  0  0  0
  187.5620  175.5540  140.2530 O   0  0  0  0  0  0  0  0  0  0  0  0
  188.9370  176.1620  142.1810 C   0  0  1  0  0  3  0  0  0  0  0  0
  191.2350  174.0270  140.9240 C   0  0  0  0  0  3  0  0  0  0  0  0
  191.7940  177.3560  143.3360 O   0  0  0  0  0  1  0  0  0  0  0  0
  185.0390  178.3520  143.9660 C   0  0  0  0  0  3  0  0  0  0  0  0
  186.3280  177.8690  144.2200 C   0  0  0  0  0  0  0  0  0  0  0  0
  191.4550  176.1140  143.8780 C   0  0  2  0  0  3  0  0  0  0  0  0
  191.1850  175.3960  147.3160 C   0  0  0  0  0  2  0  0  0  0  0  0
  190.9990  176.5910  146.3910 C   0  0  1  0  0  3  0  0  0  0  0  0
  192.3690  175.9470  146.5520 C   0  0  1  0  0  3  0  0  0  0  0  0
  193.1770  176.7690  147.4330 N   0  0  0  0  0  2  0  0  0  0  0  0
  194.7770  175.9270  145.8210 C   0  0  0  0  0  1  0  0  0  0  0  0
  194.3920  177.0930  146.7060 C   0  0  0  0  0  2  0  0  0  0  0  0
  1  5  1  6  0  0  0
  2 13  1  0  0  0  0
  3 14  1  0  0  0  0
  4  9  1  0  0  0  0
  4  1  1  0  0  0  0
  6 24  1  0  0  0  0
  7  6  1  0  0  0  0
  8  3  1  0  0  0  0
  8 19  1  0  0  0  0
  9 26  1  0  0  0  0
 10  2  1  0  0  0  0
 11  7  1  0  0  0  0
 12  6  2  0  0  0  0
 14 17  1  0  0  0  0
 14 23  1  0  0  0  0
 15 10  2  0  0  0  0
 16  1  1  0  0  0  0
 16  2  2  0  0  0  0
 17  4  1  0  0  0  0
 18  8  2  0  0  0  0
 19  7  1  0  0  0  0
 19 17  1  0  0  0  0
 20 11  2  0  0  0  0
 20 12  1  0  0  0  0
 21 24  1  0  0  0  0
 22 23  2  0  0  0  0
 22 15  1  0  0  0  0
 23 16  1  0  0  0  0
 24  9  1  0  0  0  0
 26 27  1  0  0  0  0
 26 25  1  0  0  0  0
 27 25  1  0  0  0  0
 27 28  1  0  0  0  0
 29 30  1  0  0  0  0
 30 28  1  0  0  0  0
M  END
>  <MODEL>
1

>  <REMARK>
 VINA RESULT:      -8.5      0.000      0.000
  Name = 
  3 active torsions:
  status: ('A' for Active; 'I' for Inactive)
    1  A    between atoms: C_8  and  C_12
    2  A    between atoms: C_11  and  N_28
    3  A    between atoms: N_28  and  C_30
                            x       y       z     vdW  Elec       q    Type
                         _______ _______ _______ _____ _____    ______ ____

>  <TORSDO>
F 3

$$$$
=
 OpenBabel11112416243D

 30 35  0  0  1  0  0  0  0  0999 V2000
  187.6020  177.3330  145.7940 C   0  0  2  0  0  3  0  0  0  0  0  0
  185.3680  178.4520  146.1860 C   0  0  0  0  0  0  0  0  0  0  0  0
  186.6500  177.0330  141.6600 N   0  0  0  0  0  2  0  0  0  0  0  0
  188.7340  177.1710  144.7350 C   0  0  1  0  0  3  0  0  0  0  0  0
  187.2840  176.0950  146.3620 O   0  0  0  0  0  1  0  0  0  0  0  0
  190.8490  175.1540  143.1650 C   0  0  0  0  0  0  0  0  0  0  0  0
  189.5190  174.8710  142.5450 C   0  0  2  0  0  3  0  0  0  0  0  0
  187.7530  176.2320  141.2490 C   0  0  0  0  0  0  0  0  0  0  0  0
  189.8740  176.2480  145.2630 C   0  0  1  0  0  3  0  0  0  0  0  0
  184.1400  178.9400  145.7300 C   0  0  0  0  0  3  0  0  0  0  0  0
  189.9610  174.1360  141.3190 C   0  0  0  0  0  3  0  0  0  0  0  0
  191.8300  174.6880  142.4690 N   0  0  0  0  0  0  0  0  0  0  0  0
  185.6320  178.4490  147.5510 O   0  0  0  0  0  1  0  0  0  0  0  0
  187.0880  177.6310  142.9080 C   0  0  2  0  0  3  0  0  0  0  0  0
  183.8500  178.9530  144.3640 C   0  0  0  0  0  3  0  0  0  0  0  0
  186.3210  177.9660  145.2710 C   0  0  0  0  0  0  0  0  0  0  0  0
  188.0660  176.6300  143.4730 C   0  0  1  0  0  3  0  0  0  0  0  0
  187.7940  175.6690  140.1240 O   0  0  0  0  0  0  0  0  0  0  0  0
  188.8650  176.2160  142.2530 C   0  0  1  0  0  3  0  0  0  0  0  0
  191.2820  174.0410  141.3310 C   0  0  0  0  0  3  0  0  0  0  0  0
  191.5330  177.3230  143.8580 O   0  0  0  0  0  1  0  0  0  0  0  0
  184.7870  178.4780  143.4460 C   0  0  0  0  0  3  0  0  0  0  0  0
  186.0090  177.9590  143.8900 C   0  0  0  0  0  0  0  0  0  0  0  0
  191.0860  176.0820  144.3200 C   0  0  2  0  0  3  0  0  0  0  0  0
  190.4900  175.3080  147.6070 C   0  0  0  0  0  2  0  0  0  0  0  0
  190.2540  176.5360  146.7390 C   0  0  1  0  0  3  0  0  0  0  0  0
  191.6700  176.0620  147.0340 C   0  0  1  0  0  3  0  0  0  0  0  0
  192.2490  176.9100  148.0580 N   0  0  0  0  0  2  0  0  0  0  0  0
  191.5620  178.1840  149.9990 C   0  0  0  0  0  1  0  0  0  0  0  0
  191.1590  177.6800  148.6300 C   0  0  0  0  0  2  0  0  0  0  0  0
  1  5  1  6  0  0  0
  2 13  1  0  0  0  0
  3 14  1  0  0  0  0
  4  9  1  0  0  0  0
  4  1  1  0  0  0  0
  6 24  1  0  0  0  0
  7  6  1  0  0  0  0
  8  3  1  0  0  0  0
  8 19  1  0  0  0  0
  9 26  1  0  0  0  0
 10  2  1  0  0  0  0
 11 20  2  0  0  0  0
 11  7  1  0  0  0  0
 12  6  2  0  0  0  0
 14 17  1  0  0  0  0
 14 23  1  0  0  0  0
 15 10  2  0  0  0  0
 16  1  1  0  0  0  0
 16  2  2  0  0  0  0
 17  4  1  0  0  0  0
 18  8  2  0  0  0  0
 19  7  1  0  0  0  0
 19 17  1  0  0  0  0
 20 12  1  0  0  0  0
 21 24  1  0  0  0  0
 22 23  2  0  0  0  0
 22 15  1  0  0  0  0
 23 16  1  0  0  0  0
 24  9  1  0  0  0  0
 26 27  1  0  0  0  0
 26 25  1  0  0  0  0
 27 25  1  0  0  0  0
 27 28  1  0  0  0  0
 28 30  1  0  0  0  0
 30 29  1  0  0  0  0
M  END
>  <MODEL>
2

>  <REMARK>
 VINA RESULT:      -8.4      1.022      1.386
  Name = 
  3 active torsions:
  status: ('A' for Active; 'I' for Inactive)
    1  A    between atoms: C_8  and  C_12
    2  A    between atoms: C_11  and  N_28
    3  A    between atoms: N_28  and  C_30
                            x       y       z     vdW  Elec       q    Type
                         _______ _______ _______ _____ _____    ______ ____

>  <TORSDO>
F 3

$$$$
=
 OpenBabel11112416243D

 30 35  0  0  1  0  0  0  0  0999 V2000
  187.0260  176.6150  144.0980 C   0  0  2  0  0  3  0  0  0  0  0  0
  185.1110  178.0090  144.9850 C   0  0  0  0  0  0  0  0  0  0  0  0
  189.2150  177.4940  147.6370 N   0  0  0  0  0  2  0  0  0  0  0  0
  188.1940  175.6880  144.5530 C   0  0  1  0  0  3  0  0  0  0  0  0
  187.4700  177.5180  143.1270 O   0  0  0  0  0  1  0  0  0  0  0  0
  191.3780  174.8150  144.2360 C   0  0  0  0  0  0  0  0  0  0  0  0
  191.4080  176.0960  145.0060 C   0  0  2  0  0  3  0  0  0  0  0  0
  190.4630  176.9250  147.2580 C   0  0  0  0  0  0  0  0  0  0  0  0
  189.0110  175.1680  143.3310 C   0  0  1  0  0  3  0  0  0  0  0  0
  184.5310  178.8220  145.9630 C   0  0  0  0  0  3  0  0  0  0  0  0
  192.8100  176.0480  145.5260 C   0  0  0  0  0  3  0  0  0  0  0  0
  192.4980  174.1790  144.2900 N   0  0  0  0  0  0  0  0  0  0  0  0
  184.4420  177.8130  143.7820 O   0  0  0  0  0  1  0  0  0  0  0  0
  188.2480  176.8470  146.7690 C   0  0  2  0  0  3  0  0  0  0  0  0
  185.1830  179.0360  147.1790 C   0  0  0  0  0  3  0  0  0  0  0  0
  186.3580  177.4010  145.2170 C   0  0  0  0  0  0  0  0  0  0  0  0
  189.0360  176.5070  145.5290 C   0  0  1  0  0  3  0  0  0  0  0  0
  191.5250  177.1420  147.8980 O   0  0  0  0  0  0  0  0  0  0  0  0
  190.3450  175.9900  146.0930 C   0  0  1  0  0  3  0  0  0  0  0  0
  193.3940  174.9480  145.0760 C   0  0  0  0  0  3  0  0  0  0  0  0
  189.6920  173.1620  144.5110 O   0  0  0  0  0  1  0  0  0  0  0  0
  186.4190  178.4370  147.4240 C   0  0  0  0  0  3  0  0  0  0  0  0
  187.0250  177.6430  146.4430 C   0  0  0  0  0  0  0  0  0  0  0  0
  190.1470  174.1770  143.6640 C   0  0  2  0  0  3  0  0  0  0  0  0
  188.2950  175.5270  140.8580 C   0  0  0  0  0  2  0  0  0  0  0  0
  188.1150  174.7300  142.1430 C   0  0  1  0  0  3  0  0  0  0  0  0
  188.9610  174.1760  141.0060 C   0  0  1  0  0  3  0  0  0  0  0  0
  188.1940  173.1740  140.2910 N   0  0  0  0  0  2  0  0  0  0  0  0
  190.2140  171.8830  140.6390 C   0  0  0  0  0  1  0  0  0  0  0  0
  189.1520  172.2970  139.6420 C   0  0  0  0  0  2  0  0  0  0  0  0
  1  5  1  6  0  0  0
  1  4  1  0  0  0  0
  1 16  1  0  0  0  0
  2 16  2  0  0  0  0
  2 10  1  0  0  0  0
  4 17  1  0  0  0  0
  6 12  2  0  0  0  0
  6  7  1  0  0  0  0
  7 11  1  0  0  0  0
  7 19  1  0  0  0  0
  8  3  1  0  0  0  0
  8 18  2  0  0  0  0
  9 24  1  0  0  0  0
  9  4  1  0  0  0  0
 10 15  2  0  0  0  0
 12 20  1  0  0  0  0
 13  2  1  0  0  0  0
 14  3  1  0  0  0  0
 15 22  1  0  0  0  0
 16 23  1  0  0  0  0
 17 19  1  0  0  0  0
 17 14  1  0  0  0  0
 19  8  1  0  0  0  0
 20 11  2  0  0  0  0
 23 14  1  0  0  0  0
 23 22  2  0  0  0  0
 24  6  1  0  0  0  0
 24 21  1  0  0  0  0
 25 27  1  0  0  0  0
 25 26  1  0  0  0  0
 26  9  1  0  0  0  0
 27 26  1  0  0  0  0
 28 27  1  0  0  0  0
 30 28  1  0  0  0  0
 30 29  1  0  0  0  0
M  END
>  <MODEL>
3

>  <REMARK>
 VINA RESULT:      -7.7      2.216      5.022
  Name = 
  3 active torsions:
  status: ('A' for Active; 'I' for Inactive)
    1  A    between atoms: C_8  and  C_12
    2  A    between atoms: C_11  and  N_28
    3  A    between atoms: N_28  and  C_30
                            x       y       z     vdW  Elec       q    Type
                         _______ _______ _______ _____ _____    ______ ____

>  <TORSDO>
F 3

$$$$
=
 OpenBabel11112416243D

 30 35  0  0  1  0  0  0  0  0999 V2000
  187.2580  176.4190  143.4840 C   0  0  2  0  0  3  0  0  0  0  0  0
  185.2240  177.9060  143.7020 C   0  0  0  0  0  0  0  0  0  0  0  0
  188.6060  177.8240  147.2650 N   0  0  0  0  0  2  0  0  0  0  0  0
  188.2710  175.5800  144.3210 C   0  0  1  0  0  3  0  0  0  0  0  0
  187.9310  177.1770  142.5200 O   0  0  0  0  0  1  0  0  0  0  0  0
  191.4240  174.7050  144.8660 C   0  0  0  0  0  0  0  0  0  0  0  0
  191.3070  176.0840  145.4310 C   0  0  2  0  0  3  0  0  0  0  0  0
  189.8950  177.2200  147.2660 C   0  0  0  0  0  0  0  0  0  0  0  0
  189.3330  174.8980  143.4050 C   0  0  1  0  0  3  0  0  0  0  0  0
  184.4560  178.8460  144.3960 C   0  0  0  0  0  3  0  0  0  0  0  0
  192.5530  176.1270  146.2580 C   0  0  0  0  0  3  0  0  0  0  0  0
  192.4880  174.0950  145.2640 N   0  0  0  0  0  0  0  0  0  0  0  0
  184.8410  177.5310  142.4190 O   0  0  0  0  0  1  0  0  0  0  0  0
  187.8470  177.0480  146.3020 C   0  0  2  0  0  3  0  0  0  0  0  0
  184.8190  179.2400  145.6840 C   0  0  0  0  0  3  0  0  0  0  0  0
  186.3720  177.3520  144.2970 C   0  0  0  0  0  0  0  0  0  0  0  0
  188.8880  176.5410  145.3350 C   0  0  1  0  0  3  0  0  0  0  0  0
  190.7880  177.5380  148.0930 O   0  0  0  0  0  0  0  0  0  0  0  0
  190.0230  176.1250  146.2510 C   0  0  1  0  0  3  0  0  0  0  0  0
  193.1990  174.9800  146.1150 C   0  0  0  0  0  3  0  0  0  0  0  0
  189.6830  173.0910  144.9840 O   0  0  0  0  0  1  0  0  0  0  0  0
  185.9530  178.6960  146.2880 C   0  0  0  0  0  3  0  0  0  0  0  0
  186.7490  177.7760  145.5950 C   0  0  0  0  0  0  0  0  0  0  0  0
  190.3400  173.9770  144.1270 C   0  0  2  0  0  3  0  0  0  0  0  0
  189.4180  174.6530  140.8180 C   0  0  0  0  0  2  0  0  0  0  0  0
  188.7200  174.2830  142.1200 C   0  0  1  0  0  3  0  0  0  0  0  0
  189.6960  173.3140  141.4670 C   0  0  1  0  0  3  0  0  0  0  0  0
  188.9470  172.2770  140.7830 N   0  0  0  0  0  2  0  0  0  0  0  0
  189.3200  171.7640  138.4450 C   0  0  0  0  0  1  0  0  0  0  0  0
  188.7220  172.7480  139.4280 C   0  0  0  0  0  2  0  0  0  0  0  0
  1  5  1  6  0  0  0
  1 16  1  0  0  0  0
  1  4  1  0  0  0  0
  2 16  2  0  0  0  0
  2 10  1  0  0  0  0
  3  8  1  0  0  0  0
  4 17  1  0  0  0  0
  6 12  2  0  0  0  0
  6  7  1  0  0  0  0
  7 19  1  0  0  0  0
  7 11  1  0  0  0  0
  8 18  2  0  0  0  0
  9 24  1  0  0  0  0
  9  4  1  0  0  0  0
 10 15  2  0  0  0  0
 12 20  1  0  0  0  0
 13  2  1  0  0  0  0
 14  3  1  0  0  0  0
 15 22  1  0  0  0  0
 16 23  1  0  0  0  0
 17 19  1  0  0  0  0
 17 14  1  0  0  0  0
 19  8  1  0  0  0  0
 20 11  2  0  0  0  0
 23 22  2  0  0  0  0
 23 14  1  0  0  0  0
 24  6  1  0  0  0  0
 24 21  1  0  0  0  0
 25 27  1  0  0  0  0
 25 26  1  0  0  0  0
 26  9  1  0  0  0  0
 27 26  1  0  0  0  0
 28 27  1  0  0  0  0
 29 30  1  0  0  0  0
 30 28  1  0  0  0  0
M  END
>  <MODEL>
4

>  <REMARK>
 VINA RESULT:      -7.5      2.200      5.183
  Name = 
  3 active torsions:
  status: ('A' for Active; 'I' for Inactive)
    1  A    between atoms: C_8  and  C_12
    2  A    between atoms: C_11  and  N_28
    3  A    between atoms: N_28  and  C_30
                            x       y       z     vdW  Elec       q    Type
                         _______ _______ _______ _____ _____    ______ ____

>  <TORSDO>
F 3

$$$$
=
 OpenBabel11112416243D

 30 35  0  0  1  0  0  0  0  0999 V2000
  187.6300  176.1190  143.5300 C   0  0  2  0  0  3  0  0  0  0  0  0
  185.5650  177.5620  143.7550 C   0  0  0  0  0  0  0  0  0  0  0  0
  188.9640  177.5610  147.3030 N   0  0  0  0  0  2  0  0  0  0  0  0
  188.6650  175.3040  144.3640 C   0  0  1  0  0  3  0  0  0  0  0  0
  188.2820  176.8890  142.5620 O   0  0  0  0  0  1  0  0  0  0  0  0
  191.8390  174.4990  144.8970 C   0  0  0  0  0  0  0  0  0  0  0  0
  191.6940  175.8770  145.4590 C   0  0  2  0  0  3  0  0  0  0  0  0
  190.2660  176.9840  147.2980 C   0  0  0  0  0  0  0  0  0  0  0  0
  189.7370  174.6430  143.4450 C   0  0  1  0  0  3  0  0  0  0  0  0
  184.7800  178.4860  144.4500 C   0  0  0  0  0  3  0  0  0  0  0  0
  192.9420  175.9480  146.2810 C   0  0  0  0  0  3  0  0  0  0  0  0
  192.9170  173.9130  145.2910 N   0  0  0  0  0  0  0  0  0  0  0  0
  185.1840  177.1760  142.4750 O   0  0  0  0  0  1  0  0  0  0  0  0
  188.2180  176.7660  146.3440 C   0  0  2  0  0  3  0  0  0  0  0  0
  185.1400  178.8910  145.7360 C   0  0  0  0  0  3  0  0  0  0  0  0
  186.7280  177.0340  144.3460 C   0  0  0  0  0  0  0  0  0  0  0  0
  189.2660  176.2800  145.3730 C   0  0  1  0  0  3  0  0  0  0  0  0
  191.1560  177.3240  148.1210 O   0  0  0  0  0  0  0  0  0  0  0  0
  190.4130  175.8910  146.2850 C   0  0  1  0  0  3  0  0  0  0  0  0
  193.6130  174.8150  146.1370 C   0  0  0  0  0  3  0  0  0  0  0  0
  190.1330  172.8480  145.0260 O   0  0  0  0  0  1  0  0  0  0  0  0
  186.2890  178.3730  146.3360 C   0  0  0  0  0  3  0  0  0  0  0  0
  187.1010  177.4680  145.6410 C   0  0  0  0  0  0  0  0  0  0  0  0
  190.7680  173.7460  144.1630 C   0  0  2  0  0  3  0  0  0  0  0  0
  189.7290  174.4960  140.8490 C   0  0  0  0  0  2  0  0  0  0  0  0
  189.1310  174.0130  142.1630 C   0  0  1  0  0  3  0  0  0  0  0  0
  190.1700  173.1720  141.4340 C   0  0  1  0  0  3  0  0  0  0  0  0
  189.5000  172.0870  140.7430 N   0  0  0  0  0  2  0  0  0  0  0  0
  191.0210  170.7390  142.0600 C   0  0  0  0  0  1  0  0  0  0  0  0
  190.4410  170.9830  140.6830 C   0  0  0  0  0  2  0  0  0  0  0  0
  1  5  1  6  0  0  0
  1 16  1  0  0  0  0
  1  4  1  0  0  0  0
  2 16  2  0  0  0  0
  2 10  1  0  0  0  0
  4 17  1  0  0  0  0
  6 12  2  0  0  0  0
  6  7  1  0  0  0  0
  7 11  1  0  0  0  0
  7 19  1  0  0  0  0
  8  3  1  0  0  0  0
  8 18  2  0  0  0  0
  9 24  1  0  0  0  0
  9  4  1  0  0  0  0
 10 15  2  0  0  0  0
 12 20  1  0  0  0  0
 13  2  1  0  0  0  0
 14  3  1  0  0  0  0
 15 22  1  0  0  0  0
 16 23  1  0  0  0  0
 17 19  1  0  0  0  0
 17 14  1  0  0  0  0
 19  8  1  0  0  0  0
 20 11  2  0  0  0  0
 23 22  2  0  0  0  0
 23 14  1  0  0  0  0
 24  6  1  0  0  0  0
 24 21  1  0  0  0  0
 25 27  1  0  0  0  0
 25 26  1  0  0  0  0
 26  9  1  0  0  0  0
 27 26  1  0  0  0  0
 28 27  1  0  0  0  0
 30 28  1  0  0  0  0
 30 29  1  0  0  0  0
M  END
>  <MODEL>
5

>  <REMARK>
 VINA RESULT:      -7.5      2.245      5.020
  Name = 
  3 active torsions:
  status: ('A' for Active; 'I' for Inactive)
    1  A    between atoms: C_8  and  C_12
    2  A    between atoms: C_11  and  N_28
    3  A    between atoms: N_28  and  C_30
                            x       y       z     vdW  Elec       q    Type
                         _______ _______ _______ _____ _____    ______ ____

>  <TORSDO>
F 3

$$$$
=
 OpenBabel11112416243D

 30 35  0  0  1  0  0  0  0  0999 V2000
  188.0420  176.5840  142.1960 C   0  0  2  0  0  3  0  0  0  0  0  0
  186.0340  177.4210  140.9060 C   0  0  0  0  0  0  0  0  0  0  0  0
  186.2170  177.9470  145.7880 N   0  0  0  0  0  2  0  0  0  0  0  0
  188.4650  175.9840  143.5710 C   0  0  1  0  0  3  0  0  0  0  0  0
  188.9360  177.5860  141.8050 O   0  0  0  0  0  1  0  0  0  0  0  0
  190.6250  175.9710  146.0880 C   0  0  0  0  0  0  0  0  0  0  0  0
  189.8060  177.2040  146.2940 C   0  0  2  0  0  3  0  0  0  0  0  0
  187.3100  177.7250  146.6740 C   0  0  0  0  0  0  0  0  0  0  0  0
  189.9990  175.7120  143.6210 C   0  0  1  0  0  3  0  0  0  0  0  0
  184.7820  178.0420  140.8450 C   0  0  0  0  0  3  0  0  0  0  0  0
  190.1640  177.5120  147.7140 C   0  0  0  0  0  3  0  0  0  0  0  0
  191.3030  175.6450  147.1350 N   0  0  0  0  0  0  0  0  0  0  0  0
  186.6780  177.0770  139.7240 O   0  0  0  0  0  1  0  0  0  0  0  0
  186.4960  177.0840  144.6540 C   0  0  2  0  0  3  0  0  0  0  0  0
  184.1140  178.3990  142.0180 C   0  0  0  0  0  3  0  0  0  0  0  0
  186.6310  177.1540  142.1520 C   0  0  0  0  0  0  0  0  0  0  0  0
  188.0010  176.9790  144.6330 C   0  0  1  0  0  3  0  0  0  0  0  0
  187.3380  178.2000  147.8390 O   0  0  0  0  0  0  0  0  0  0  0  0
  188.3470  176.8100  146.1000 C   0  0  1  0  0  3  0  0  0  0  0  0
  191.0330  176.6080  148.1410 C   0  0  0  0  0  3  0  0  0  0  0  0
  189.7340  173.9330  145.2470 O   0  0  0  0  0  1  0  0  0  0  0  0
  184.6940  178.1370  143.2590 C   0  0  0  0  0  3  0  0  0  0  0  0
  185.9590  177.5420  143.3370 C   0  0  0  0  0  0  0  0  0  0  0  0
  190.5150  175.0430  144.9140 C   0  0  2  0  0  3  0  0  0  0  0  0
  192.0190  175.3260  142.0310 C   0  0  0  0  0  2  0  0  0  0  0  0
  190.5450  175.0750  142.3160 C   0  0  1  0  0  3  0  0  0  0  0  0
  191.5840  174.0070  142.6310 C   0  0  1  0  0  3  0  0  0  0  0  0
  191.5460  172.9910  141.5980 N   0  0  0  0  0  2  0  0  0  0  0  0
  189.9220  171.4790  142.5700 C   0  0  0  0  0  1  0  0  0  0  0  0
  190.1710  172.5320  141.5110 C   0  0  0  0  0  2  0  0  0  0  0  0
  1  5  1  1  0  0  0
  1  4  1  0  0  0  0
  2 16  1  0  0  0  0
  3  8  1  0  0  0  0
  4  9  1  0  0  0  0
  4 17  1  0  0  0  0
  6  7  1  0  0  0  0
  6 12  2  0  0  0  0
  7 11  1  0  0  0  0
  8 18  2  0  0  0  0
  9 24  1  0  0  0  0
 10  2  2  0  0  0  0
 10 15  1  0  0  0  0
 11 20  2  0  0  0  0
 12 20  1  0  0  0  0
 13  2  1  0  0  0  0
 14  3  1  0  0  0  0
 15 22  2  0  0  0  0
 16  1  1  0  0  0  0
 16 23  2  0  0  0  0
 17 14  1  0  0  0  0
 17 19  1  0  0  0  0
 19  7  1  0  0  0  0
 19  8  1  0  0  0  0
 22 23  1  0  0  0  0
 23 14  1  0  0  0  0
 24 21  1  0  0  0  0
 24  6  1  0  0  0  0
 25 26  1  0  0  0  0
 25 27  1  0  0  0  0
 26 27  1  0  0  0  0
 26  9  1  0  0  0  0
 28 27  1  0  0  0  0
 30 28  1  0  0  0  0
 30 29  1  0  0  0  0
M  END
>  <MODEL>
6

>  <REMARK>
 VINA RESULT:      -7.4      1.963      5.058
  Name = 
  3 active torsions:
  status: ('A' for Active; 'I' for Inactive)
    1  A    between atoms: C_8  and  C_12
    2  A    between atoms: C_11  and  N_28
    3  A    between atoms: N_28  and  C_30
                            x       y       z     vdW  Elec       q    Type
                         _______ _______ _______ _____ _____    ______ ____

>  <TORSDO>
F 3

$$$$
=
 OpenBabel11112416243D

 30 35  0  0  1  0  0  0  0  0999 V2000
  188.9990  174.8970  141.6870 C   0  0  2  0  0  3  0  0  0  0  0  0
  189.4860  173.4030  139.7050 C   0  0  0  0  0  0  0  0  0  0  0  0
  192.6260  173.5840  143.4800 N   0  0  0  0  0  2  0  0  0  0  0  0
  189.6940  175.7600  142.7840 C   0  0  1  0  0  3  0  0  0  0  0  0
  187.9800  174.1210  142.2500 O   0  0  0  0  0  1  0  0  0  0  0  0
  189.8470  176.6650  145.9720 C   0  0  0  0  0  0  0  0  0  0  0  0
  190.4510  175.2980  145.9330 C   0  0  2  0  0  3  0  0  0  0  0  0
  192.4630  174.1960  144.7550 C   0  0  0  0  0  0  0  0  0  0  0  0
  188.6450  176.4280  143.7260 C   0  0  1  0  0  3  0  0  0  0  0  0
  190.2850  172.4750  139.0310 C   0  0  0  0  0  3  0  0  0  0  0  0
  191.1270  175.2820  147.2680 C   0  0  0  0  0  3  0  0  0  0  0  0
  190.1040  177.2900  147.0700 N   0  0  0  0  0  0  0  0  0  0  0  0
  188.2490  173.7480  139.1710 O   0  0  0  0  0  1  0  0  0  0  0  0
  191.7420  174.3340  142.6070 C   0  0  2  0  0  3  0  0  0  0  0  0
  191.5310  172.1110  139.5460 C   0  0  0  0  0  3  0  0  0  0  0  0
  189.9310  173.9770  140.9110 C   0  0  0  0  0  0  0  0  0  0  0  0
  190.6490  174.8260  143.5240 C   0  0  1  0  0  3  0  0  0  0  0  0
  193.1860  173.9010  145.7420 O   0  0  0  0  0  0  0  0  0  0  0  0
  191.4160  175.2690  144.7540 C   0  0  1  0  0  3  0  0  0  0  0  0
  190.8850  176.4290  147.8840 C   0  0  0  0  0  3  0  0  0  0  0  0
  190.1330  178.2710  144.2430 O   0  0  0  0  0  1  0  0  0  0  0  0
  191.9850  172.6750  140.7390 C   0  0  0  0  0  3  0  0  0  0  0  0
  191.1840  173.5850  141.4400 C   0  0  0  0  0  0  0  0  0  0  0  0
  189.2240  177.3700  144.8030 C   0  0  2  0  0  3  0  0  0  0  0  0
  186.0700  176.4590  143.3740 C   0  0  0  0  0  2  0  0  0  0  0  0
  187.4280  177.0100  142.9610 C   0  0  1  0  0  3  0  0  0  0  0  0
  186.5290  177.8010  143.9020 C   0  0  1  0  0  3  0  0  0  0  0  0
  185.8830  178.8640  143.1560 N   0  0  0  0  0  2  0  0  0  0  0  0
  185.5740  179.2890  145.5200 C   0  0  0  0  0  1  0  0  0  0  0  0
  185.4710  179.8650  144.1240 C   0  0  0  0  0  2  0  0  0  0  0  0
  1  5  1  1  0  0  0
  1  4  1  0  0  0  0
  2 16  1  0  0  0  0
  3  8  1  0  0  0  0
  4 17  1  0  0  0  0
  4  9  1  0  0  0  0
  6 12  2  0  0  0  0
  7  6  1  0  0  0  0
  7 11  1  0  0  0  0
  8 18  2  0  0  0  0
  9 24  1  0  0  0  0
 10 15  1  0  0  0  0
 10  2  2  0  0  0  0
 11 20  2  0  0  0  0
 12 20  1  0  0  0  0
 13  2  1  0  0  0  0
 14  3  1  0  0  0  0
 14 17  1  0  0  0  0
 15 22  2  0  0  0  0
 16 23  2  0  0  0  0
 16  1  1  0  0  0  0
 17 19  1  0  0  0  0
 19  8  1  0  0  0  0
 19  7  1  0  0  0  0
 21 24  1  0  0  0  0
 22 23  1  0  0  0  0
 23 14  1  0  0  0  0
 24  6  1  0  0  0  0
 25 27  1  0  0  0  0
 26 25  1  0  0  0  0
 26  9  1  0  0  0  0
 26 27  1  0  0  0  0
 28 27  1  0  0  0  0
 28 30  1  0  0  0  0
 30 29  1  0  0  0  0
M  END
>  <MODEL>
7

>  <REMARK>
 VINA RESULT:      -7.3      2.010      6.912
  Name = 
  3 active torsions:
  status: ('A' for Active; 'I' for Inactive)
    1  A    between atoms: C_8  and  C_12
    2  A    between atoms: C_11  and  N_28
    3  A    between atoms: N_28  and  C_30
                            x       y       z     vdW  Elec       q    Type
                         _______ _______ _______ _____ _____    ______ ____

>  <TORSDO>
F 3

$$$$
=
 OpenBabel11112416243D

 30 35  0  0  1  0  0  0  0  0999 V2000
  186.0290  177.4750  143.5840 C   0  0  2  0  0  3  0  0  0  0  0  0
  184.4490  178.4960  145.2730 C   0  0  0  0  0  0  0  0  0  0  0  0
  188.5190  176.1970  146.7870 N   0  0  0  0  0  2  0  0  0  0  0  0
  187.0300  176.2960  143.3820 C   0  0  1  0  0  3  0  0  0  0  0  0
  186.5810  178.6690  143.1100 O   0  0  0  0  0  1  0  0  0  0  0  0
  189.9820  175.2720  142.2670 C   0  0  0  0  0  0  0  0  0  0  0  0
  190.2830  175.9920  143.5420 C   0  0  2  0  0  3  0  0  0  0  0  0
  189.6210  175.7250  146.0200 C   0  0  0  0  0  0  0  0  0  0  0  0
  187.6760  176.3400  141.9640 C   0  0  1  0  0  3  0  0  0  0  0  0
  184.0770  178.7930  146.5880 C   0  0  0  0  0  3  0  0  0  0  0  0
  191.6780  175.5060  143.7840 C   0  0  0  0  0  3  0  0  0  0  0  0
  190.9680  174.5480  141.8610 N   0  0  0  0  0  0  0  0  0  0  0  0
  183.6950  179.0080  144.2240 O   0  0  0  0  0  1  0  0  0  0  0  0
  187.4070  176.1970  145.8540 C   0  0  2  0  0  3  0  0  0  0  0  0
  184.8180  178.2910  147.6600 C   0  0  0  0  0  3  0  0  0  0  0  0
  185.5740  177.6910  145.0200 C   0  0  0  0  0  0  0  0  0  0  0  0
  188.0560  176.4080  144.5080 C   0  0  1  0  0  3  0  0  0  0  0  0
  190.7360  175.4540  146.5380 O   0  0  0  0  0  0  0  0  0  0  0  0
  189.2750  175.5100  144.5780 C   0  0  1  0  0  3  0  0  0  0  0  0
  192.0280  174.7030  142.7920 C   0  0  0  0  0  3  0  0  0  0  0  0
  188.0380  173.9420  141.9450 O   0  0  0  0  0  1  0  0  0  0  0  0
  185.9340  177.4890  147.4230 C   0  0  0  0  0  3  0  0  0  0  0  0
  186.3360  177.2070  146.1120 C   0  0  0  0  0  0  0  0  0  0  0  0
  188.6270  175.1700  141.6300 C   0  0  2  0  0  3  0  0  0  0  0  0
  186.9330  177.9410  140.0560 C   0  0  0  0  0  2  0  0  0  0  0  0
  186.6560  176.6670  140.8420 C   0  0  1  0  0  3  0  0  0  0  0  0
  187.3190  176.5980  139.4740 C   0  0  1  0  0  3  0  0  0  0  0  0
  186.3320  176.1920  138.4910 N   0  0  0  0  0  2  0  0  0  0  0  0
  187.9680  174.5390  137.8130 C   0  0  0  0  0  1  0  0  0  0  0  0
  187.0660  175.6650  137.3540 C   0  0  0  0  0  2  0  0  0  0  0  0
  1  5  1  1  0  0  0
  1 16  1  0  0  0  0
  2 10  1  0  0  0  0
  4  1  1  0  0  0  0
  4 17  1  0  0  0  0
  6  7  1  0  0  0  0
  7 11  1  0  0  0  0
  7 19  1  0  0  0  0
  8 18  2  0  0  0  0
  8  3  1  0  0  0  0
  9  4  1  0  0  0  0
 10 15  2  0  0  0  0
 12  6  2  0  0  0  0
 12 20  1  0  0  0  0
 13  2  1  0  0  0  0
 14 23  1  0  0  0  0
 14  3  1  0  0  0  0
 16  2  2  0  0  0  0
 16 23  1  0  0  0  0
 17 19  1  0  0  0  0
 17 14  1  0  0  0  0
 19  8  1  0  0  0  0
 20 11  2  0  0  0  0
 22 15  1  0  0  0  0
 23 22  2  0  0  0  0
 24 21  1  0  0  0  0
 24  9  1  0  0  0  0
 24  6  1  0  0  0  0
 25 26  1  0  0  0  0
 26  9  1  0  0  0  0
 27 25  1  0  0  0  0
 27 26  1  0  0  0  0
 28 27  1  0  0  0  0
 30 29  1  0  0  0  0
 30 28  1  0  0  0  0
M  END
>  <MODEL>
8

>  <REMARK>
 VINA RESULT:      -7.1      2.299      5.406
  Name = 
  3 active torsions:
  status: ('A' for Active; 'I' for Inactive)
    1  A    between atoms: C_8  and  C_12
    2  A    between atoms: C_11  and  N_28
    3  A    between atoms: N_28  and  C_30
                            x       y       z     vdW  Elec       q    Type
                         _______ _______ _______ _____ _____    ______ ____

>  <TORSDO>
F 3

$$$$
=
 OpenBabel11112416243D

 30 35  0  0  1  0  0  0  0  0999 V2000
  190.6550  175.6750  143.7550 C   0  0  2  0  0  3  0  0  0  0  0  0
  191.4610  174.4350  141.7040 C   0  0  0  0  0  0  0  0  0  0  0  0
  186.7510  175.7840  142.0710 N   0  0  0  0  0  2  0  0  0  0  0  0
  189.4080  175.8720  144.6690 C   0  0  1  0  0  3  0  0  0  0  0  0
  191.2440  176.9090  143.4620 O   0  0  0  0  0  1  0  0  0  0  0  0
  187.4440  177.9630  146.3360 C   0  0  0  0  0  0  0  0  0  0  0  0
  187.0660  178.1450  144.9020 C   0  0  2  0  0  3  0  0  0  0  0  0
  186.1340  176.6380  143.0280 C   0  0  0  0  0  0  0  0  0  0  0  0
  189.7050  176.8800  145.8210 C   0  0  1  0  0  3  0  0  0  0  0  0
  191.2420  173.8590  140.4490 C   0  0  0  0  0  3  0  0  0  0  0  0
  185.7660  178.8650  145.0720 C   0  0  0  0  0  3  0  0  0  0  0  0
  186.5760  178.4650  147.1460 N   0  0  0  0  0  0  0  0  0  0  0  0
  192.7570  174.4980  142.2040 O   0  0  0  0  0  1  0  0  0  0  0  0
  187.9130  175.2550  142.7600 C   0  0  2  0  0  3  0  0  0  0  0  0
  189.9500  173.7840  139.9240 C   0  0  0  0  0  3  0  0  0  0  0  0
  190.3820  174.9490  142.4460 C   0  0  0  0  0  0  0  0  0  0  0  0
  188.2740  176.3310  143.7540 C   0  0  1  0  0  3  0  0  0  0  0  0
  185.0080  177.1660  142.8330 O   0  0  0  0  0  0  0  0  0  0  0  0
  186.9230  176.7530  144.2970 C   0  0  1  0  0  3  0  0  0  0  0  0
  185.5400  179.0410  146.3650 C   0  0  0  0  0  3  0  0  0  0  0  0
  188.0500  175.8640  147.2740 O   0  0  0  0  0  1  0  0  0  0  0  0
  188.8710  174.2860  140.6510 C   0  0  0  0  0  3  0  0  0  0  0  0
  189.0780  174.8920  141.8960 C   0  0  0  0  0  0  0  0  0  0  0  0
  188.5580  177.0890  146.8340 C   0  0  2  0  0  3  0  0  0  0  0  0
  191.0770  176.3400  147.9620 C   0  0  0  0  0  2  0  0  0  0  0  0
  191.0950  176.6630  146.4740 C   0  0  1  0  0  3  0  0  0  0  0  0
  191.2470  175.2250  146.9520 C   0  0  1  0  0  3  0  0  0  0  0  0
  192.6460  174.8470  146.8750 N   0  0  0  0  0  2  0  0  0  0  0  0
  194.8030  175.6650  146.1380 C   0  0  0  0  0  1  0  0  0  0  0  0
  193.3830  176.0420  146.5050 C   0  0  0  0  0  2  0  0  0  0  0  0
  1  5  1  6  0  0  0
  1  4  1  0  0  0  0
  2 13  1  0  0  0  0
  2 16  1  0  0  0  0
  3 14  1  0  0  0  0
  3  8  1  0  0  0  0
  4  9  1  0  0  0  0
  6 24  1  0  0  0  0
  6 12  2  0  0  0  0
  7 11  1  0  0  0  0
  7  6  1  0  0  0  0
  8 19  1  0  0  0  0
  9 26  1  0  0  0  0
  9 24  1  0  0  0  0
 10  2  2  0  0  0  0
 11 20  2  0  0  0  0
 14 17  1  0  0  0  0
 15 10  1  0  0  0  0
 15 22  2  0  0  0  0
 16  1  1  0  0  0  0
 17 19  1  0  0  0  0
 17  4  1  0  0  0  0
 18  8  2  0  0  0  0
 19  7  1  0  0  0  0
 20 12  1  0  0  0  0
 22 23  1  0  0  0  0
 23 16  2  0  0  0  0
 23 14  1  0  0  0  0
 24 21  1  0  0  0  0
 26 27  1  0  0  0  0
 26 25  1  0  0  0  0
 27 25  1  0  0  0  0
 28 27  1  0  0  0  0
 29 30  1  0  0  0  0
 30 28  1  0  0  0  0
M  END
>  <MODEL>
9

>  <REMARK>
 VINA RESULT:      -7.0      1.686      5.290
  Name = 
  3 active torsions:
  status: ('A' for Active; 'I' for Inactive)
    1  A    between atoms: C_8  and  C_12
    2  A    between atoms: C_11  and  N_28
    3  A    between atoms: N_28  and  C_30
                            x       y       z     vdW  Elec       q    Type
                         _______ _______ _______ _____ _____    ______ ____

>  <TORSDO>
F 3

$$$$
