=
 OpenBabel11112418093D

 34 37  0  0  1  0  0  0  0  0999 V2000
  187.6070  175.7730  141.7740 C   0  0  2  0  0  3  0  0  0  0  0  0
  186.1420  177.0360  140.3370 O   0  0  0  0  0  0  0  0  0  0  0  0
  188.9850  174.5110  143.4610 C   0  0  0  0  0  2  0  0  0  0  0  0
  186.6260  178.0530  142.4380 C   0  0  2  0  0  3  0  0  0  0  0  0
  183.9510  178.7100  143.8440 C   0  0  0  0  0  2  0  0  0  0  0  0
  186.5240  177.3220  143.7900 C   0  0  1  0  0  3  0  0  0  0  0  0
  185.3990  178.2200  140.4310 C   0  0  0  0  0  2  0  0  0  0  0  0
  184.1240  178.0510  142.5510 N   0  0  0  0  0  0  0  0  0  0  0  0
  188.5190  175.8920  143.0070 C   0  0  2  0  0  3  0  0  0  0  0  0
  187.8460  176.6300  144.1760 C   0  0  1  0  0  3  0  0  0  0  0  0
  188.8030  173.6750  141.1090 C   0  0  0  0  0  2  0  0  0  0  0  0
  184.7180  177.9600  144.9250 C   0  0  0  0  0  2  0  0  0  0  0  0
  189.7170  173.8030  142.3240 C   0  0  0  0  0  2  0  0  0  0  0  0
  186.0910  178.1970  144.7940 O   0  0  0  0  0  0  0  0  0  0  0  0
  185.3170  178.6250  141.8970 C   0  0  1  0  0  3  0  0  0  0  0  0
  188.3470  175.0570  140.6460 C   0  0  0  0  0  2  0  0  0  0  0  0
  187.1480  177.1590  141.3070 C   0  0  1  0  0  3  0  0  0  0  0  0
  188.8410  177.5470  144.8940 C   0  0  0  0  0  2  0  0  0  0  0  0
  188.9520  177.2300  146.3800 C   0  0  0  0  0  2  0  0  0  0  0  0
  188.9780  174.8820  147.2570 C   0  0  0  0  0  1  0  0  0  0  0  0
  189.8000  175.9890  146.5950 C   0  0  2  0  0  3  0  0  0  0  0  0
  191.0090  176.3340  147.3530 N   0  0  0  0  0  0  0  0  0  0  0  0
  191.2720  175.3520  148.2510 O   0  0  0  0  0  1  0  0  0  0  0  0
  192.1380  176.3990  146.4340 C   0  0  0  0  0  2  0  0  0  0  0  0
  191.9680  175.3770  145.3240 C   0  0  0  0  0  2  0  0  0  0  0  0
  192.2350  175.9660  144.0870 O   0  0  0  0  0  0  0  0  0  0  0  0
  192.3430  177.2510  144.3500 O   0  0  0  0  0  1  0  0  0  0  0  0
  182.9320  178.4090  141.7900 C   0  0  0  0  0  2  0  0  0  0  0  0
  181.8380  178.8690  142.7380 C   0  0  0  0  0  2  0  0  0  0  0  0
  180.5300  179.0780  141.9830 C   0  0  0  0  0  3  0  0  0  0  0  0
  180.1580  180.8380  140.3740 O   0  0  0  0  0  1  0  0  0  0  0  0
  180.7780  179.6020  140.5710 C   0  0  0  0  0  2  0  0  0  0  0  0
  179.6450  177.8310  141.9870 C   0  0  0  0  0  2  0  0  0  0  0  0
  178.3550  178.1290  142.4360 O   0  0  0  0  0  1  0  0  0  0  0  0
  1 16  1  6  0  0  0
  1  9  1  0  0  0  0
  2  7  1  0  0  0  0
  2 17  1  0  0  0  0
  4  6  1  0  0  0  0
  5 12  1  0  0  0  0
  6 10  1  0  0  0  0
  6 14  1  0  0  0  0
  7 15  1  0  0  0  0
  8  5  1  0  0  0  0
  9  3  1  0  0  0  0
  9 10  1  0  0  0  0
 10 18  1  0  0  0  0
 11 13  1  0  0  0  0
 13  3  1  0  0  0  0
 14 12  1  0  0  0  0
 15  4  1  0  0  0  0
 15  8  1  0  0  0  0
 16 11  1  0  0  0  0
 17  1  1  0  0  0  0
 17  4  1  0  0  0  0
 18 19  1  0  0  0  0
 19 21  1  0  0  0  0
 21 20  1  0  0  0  0
 21 22  1  0  0  0  0
 22 23  1  0  0  0  0
 24 22  1  0  0  0  0
 25 24  1  0  0  0  0
 26 27  1  0  0  0  0
 26 25  1  0  0  0  0
 28  8  1  0  0  0  0
 28 29  1  0  0  0  0
 30 33  1  0  0  0  0
 30 29  1  0  0  0  0
 31 32  1  0  0  0  0
 32 30  1  0  0  0  0
 33 34  1  0  0  0  0
M  END
>  <MODEL>
1

>  <REMARK>
 VINA RESULT:      -6.5      0.000      0.000
  Name = 
  12 active torsions:
  status: ('A' for Active; 'I' for Inactive)
    1  A    between atoms: N_3  and  C_16
    2  A    between atoms: N_3  and  C_19
    3  A    between atoms: C_5  and  C_11
    4  A    between atoms: C_5  and  C_19
    5  A    between atoms: C_8  and  O_12
    6  A    between atoms: C_8  and  C_16
    7  A    between atoms: C_11  and  C_20
    8  A    between atoms: N_17  and  C_28
    9  A    between atoms: C_28  and  C_29
   10  A    between atoms: C_29  and  C_32
   11  A    between atoms: C_31  and  C_32
   12  A    between atoms: C_32  and  C_34
                            x       y       z     vdW  Elec       q    Type
                         _______ _______ _______ _____ _____    ______ ____

>  <TORSDO>
F 12

$$$$
=
 OpenBabel11112418093D

 34 37  0  0  1  0  0  0  0  0999 V2000
  189.0670  175.4410  143.1120 C   0  0  2  0  0  3  0  0  0  0  0  0
  190.8010  173.7740  142.9770 O   0  0  0  0  0  0  0  0  0  0  0  0
  187.3960  177.2990  143.4210 C   0  0  0  0  0  2  0  0  0  0  0  0
  190.2630  174.5000  145.1820 C   0  0  2  0  0  3  0  0  0  0  0  0
  192.8630  175.4550  146.5580 C   0  0  0  0  0  2  0  0  0  0  0  0
  190.1510  175.9790  145.5970 C   0  0  1  0  0  3  0  0  0  0  0  0
  191.6760  173.1420  143.8700 C   0  0  0  0  0  2  0  0  0  0  0  0
  192.7250  174.9610  145.1900 N   0  0  0  0  0  0  0  0  0  0  0  0
  188.0710  176.1000  144.0820 C   0  0  2  0  0  3  0  0  0  0  0  0
  188.7230  176.5280  145.4070 C   0  0  1  0  0  3  0  0  0  0  0  0
  187.6810  176.2250  141.1780 C   0  0  0  0  0  2  0  0  0  0  0  0
  191.9140  176.6230  146.7940 C   0  0  0  0  0  2  0  0  0  0  0  0
  186.6860  176.8640  142.1420 C   0  0  0  0  0  2  0  0  0  0  0  0
  190.5990  176.1600  146.9120 O   0  0  0  0  0  0  0  0  0  0  0  0
  191.6760  173.9200  145.1790 C   0  0  1  0  0  3  0  0  0  0  0  0
  188.3460  175.0170  141.8340 C   0  0  0  0  0  2  0  0  0  0  0  0
  189.7360  174.2280  143.7680 C   0  0  1  0  0  3  0  0  0  0  0  0
  187.7910  176.2590  146.5920 C   0  0  0  0  0  2  0  0  0  0  0  0
  187.1700  177.5370  147.1410 C   0  0  0  0  0  2  0  0  0  0  0  0
  185.1140  176.3780  146.2940 C   0  0  0  0  0  1  0  0  0  0  0  0
  185.6720  177.3630  147.3240 C   0  0  2  0  0  3  0  0  0  0  0  0
  185.0070  178.6710  147.2830 N   0  0  0  0  0  0  0  0  0  0  0  0
  185.9360  179.6510  147.4150 O   0  0  0  0  0  1  0  0  0  0  0  0
  184.3770  178.8370  145.9810 C   0  0  0  0  0  2  0  0  0  0  0  0
  185.2010  179.7770  145.1170 C   0  0  0  0  0  2  0  0  0  0  0  0
  184.8360  179.6370  143.7770 O   0  0  0  0  0  0  0  0  0  0  0  0
  183.9910  178.6290  143.7680 O   0  0  0  0  0  1  0  0  0  0  0  0
  194.0160  174.3530  144.8830 C   0  0  0  0  0  2  0  0  0  0  0  0
  195.0340  174.7560  145.9350 C   0  0  0  0  0  2  0  0  0  0  0  0
  196.4450  174.4110  145.4730 C   0  0  0  0  0  3  0  0  0  0  0  0
  196.8170  172.0440  145.7550 O   0  0  0  0  0  1  0  0  0  0  0  0
  197.0550  173.2980  146.3210 C   0  0  0  0  0  2  0  0  0  0  0  0
  196.5120  174.0970  143.9770 C   0  0  0  0  0  2  0  0  0  0  0  0
  197.7090  174.5520  143.4180 O   0  0  0  0  0  1  0  0  0  0  0  0
  1 16  1  6  0  0  0
  1 17  1  0  0  0  0
  1  9  1  0  0  0  0
  2 17  1  0  0  0  0
  2  7  1  0  0  0  0
  3  9  1  0  0  0  0
  4  6  1  0  0  0  0
  5 12  1  0  0  0  0
  6 14  1  0  0  0  0
  7 15  1  0  0  0  0
  8  5  1  0  0  0  0
  9 10  1  0  0  0  0
 10  6  1  0  0  0  0
 10 18  1  0  0  0  0
 11 16  1  0  0  0  0
 11 13  1  0  0  0  0
 12 14  1  0  0  0  0
 13  3  1  0  0  0  0
 15  4  1  0  0  0  0
 15  8  1  0  0  0  0
 17  4  1  0  0  0  0
 18 19  1  0  0  0  0
 19 21  1  0  0  0  0
 20 21  1  0  0  0  0
 22 21  1  0  0  0  0
 22 23  1  0  0  0  0
 24 22  1  0  0  0  0
 25 24  1  0  0  0  0
 26 25  1  0  0  0  0
 27 26  1  0  0  0  0
 28  8  1  0  0  0  0
 28 29  1  0  0  0  0
 30 29  1  0  0  0  0
 30 32  1  0  0  0  0
 31 32  1  0  0  0  0
 33 30  1  0  0  0  0
 34 33  1  0  0  0  0
M  END
>  <MODEL>
2

>  <REMARK>
 VINA RESULT:      -6.4      3.102      9.456
  Name = 
  12 active torsions:
  status: ('A' for Active; 'I' for Inactive)
    1  A    between atoms: N_3  and  C_16
    2  A    between atoms: N_3  and  C_19
    3  A    between atoms: C_5  and  C_11
    4  A    between atoms: C_5  and  C_19
    5  A    between atoms: C_8  and  O_12
    6  A    between atoms: C_8  and  C_16
    7  A    between atoms: C_11  and  C_20
    8  A    between atoms: N_17  and  C_28
    9  A    between atoms: C_28  and  C_29
   10  A    between atoms: C_29  and  C_32
   11  A    between atoms: C_31  and  C_32
   12  A    between atoms: C_32  and  C_34
                            x       y       z     vdW  Elec       q    Type
                         _______ _______ _______ _____ _____    ______ ____

>  <TORSDO>
F 12

$$$$
=
 OpenBabel11112418093D

 34 37  0  0  1  0  0  0  0  0999 V2000
  191.9790  176.1920  145.5880 C   0  0  2  0  0  3  0  0  0  0  0  0
  189.9170  176.1700  146.8360 O   0  0  0  0  0  0  0  0  0  0  0  0
  194.0090  176.3380  144.1060 C   0  0  0  0  0  2  0  0  0  0  0  0
  189.7020  175.6740  144.5150 C   0  0  2  0  0  3  0  0  0  0  0  0
  187.6170  177.6030  143.2920 C   0  0  0  0  0  2  0  0  0  0  0  0
  190.3320  176.5210  143.3930 C   0  0  1  0  0  3  0  0  0  0  0  0
  188.5550  176.0170  146.5460 C   0  0  0  0  0  2  0  0  0  0  0  0
  188.0820  177.5770  144.6770 N   0  0  0  0  0  0  0  0  0  0  0  0
  192.6200  175.7260  144.2690 C   0  0  2  0  0  3  0  0  0  0  0  0
  191.7560  176.0490  143.0390 C   0  0  1  0  0  3  0  0  0  0  0  0
  194.2580  176.4370  146.5950 C   0  0  0  0  0  2  0  0  0  0  0  0
  188.7990  177.7470  142.3420 C   0  0  0  0  0  2  0  0  0  0  0  0
  194.8930  175.9590  145.2920 C   0  0  0  0  0  2  0  0  0  0  0  0
  189.5030  176.5410  142.2630 O   0  0  0  0  0  0  0  0  0  0  0  0
  188.3590  176.1730  145.0440 C   0  0  1  0  0  3  0  0  0  0  0  0
  192.8750  175.8150  146.7650 C   0  0  0  0  0  2  0  0  0  0  0  0
  190.5890  175.5690  145.7610 C   0  0  1  0  0  3  0  0  0  0  0  0
  191.7970  174.9040  142.0210 C   0  0  0  0  0  2  0  0  0  0  0  0
  192.0130  173.5490  142.6830 C   0  0  0  0  0  2  0  0  0  0  0  0
  190.5230  172.0750  144.0590 C   0  0  0  0  0  1  0  0  0  0  0  0
  190.7170  172.7570  142.7030 C   0  0  2  0  0  3  0  0  0  0  0  0
  190.6900  171.8130  141.5790 N   0  0  0  0  0  0  0  0  0  0  0  0
  190.3790  170.5760  142.0390 O   0  0  0  0  0  1  0  0  0  0  0  0
  189.6380  172.2140  140.6540 C   0  0  0  0  0  2  0  0  0  0  0  0
  190.2460  172.7090  139.3530 C   0  0  0  0  0  2  0  0  0  0  0  0
  189.5010  173.7800  138.8560 O   0  0  0  0  0  0  0  0  0  0  0  0
  188.8500  174.2430  139.9010 O   0  0  0  0  0  1  0  0  0  0  0  0
  186.9520  178.0690  145.4570 C   0  0  0  0  0  2  0  0  0  0  0  0
  186.1150  179.0110  144.6090 C   0  0  0  0  0  2  0  0  0  0  0  0
  184.6730  179.0350  145.1010 C   0  0  0  0  0  3  0  0  0  0  0  0
  184.1190  177.9960  142.9940 O   0  0  0  0  0  1  0  0  0  0  0  0
  183.6850  178.9250  143.9420 C   0  0  0  0  0  2  0  0  0  0  0  0
  184.4060  177.9900  146.1860 C   0  0  0  0  0  2  0  0  0  0  0  0
  184.3550  178.5790  147.4520 O   0  0  0  0  0  1  0  0  0  0  0  0
  1 17  1  0  0  0  0
  1 16  1  1  0  0  0
  3  9  1  0  0  0  0
  3 13  1  0  0  0  0
  4 15  1  0  0  0  0
  4 17  1  0  0  0  0
  5  8  1  0  0  0  0
  6  4  1  0  0  0  0
  7  2  1  0  0  0  0
  8 15  1  0  0  0  0
  8 28  1  0  0  0  0
  9  1  1  0  0  0  0
 10  6  1  0  0  0  0
 10  9  1  0  0  0  0
 11 16  1  0  0  0  0
 12  5  1  0  0  0  0
 13 11  1  0  0  0  0
 14 12  1  0  0  0  0
 14  6  1  0  0  0  0
 15  7  1  0  0  0  0
 17  2  1  0  0  0  0
 18 19  1  0  0  0  0
 18 10  1  0  0  0  0
 19 21  1  0  0  0  0
 21 20  1  0  0  0  0
 22 23  1  0  0  0  0
 22 21  1  0  0  0  0
 24 22  1  0  0  0  0
 25 24  1  0  0  0  0
 26 25  1  0  0  0  0
 26 27  1  0  0  0  0
 29 30  1  0  0  0  0
 29 28  1  0  0  0  0
 30 33  1  0  0  0  0
 31 32  1  0  0  0  0
 32 30  1  0  0  0  0
 33 34  1  0  0  0  0
M  END
>  <MODEL>
3

>  <REMARK>
 VINA RESULT:      -6.4      2.881      5.905
  Name = 
  12 active torsions:
  status: ('A' for Active; 'I' for Inactive)
    1  A    between atoms: N_3  and  C_16
    2  A    between atoms: N_3  and  C_19
    3  A    between atoms: C_5  and  C_11
    4  A    between atoms: C_5  and  C_19
    5  A    between atoms: C_8  and  O_12
    6  A    between atoms: C_8  and  C_16
    7  A    between atoms: C_11  and  C_20
    8  A    between atoms: N_17  and  C_28
    9  A    between atoms: C_28  and  C_29
   10  A    between atoms: C_29  and  C_32
   11  A    between atoms: C_31  and  C_32
   12  A    between atoms: C_32  and  C_34
                            x       y       z     vdW  Elec       q    Type
                         _______ _______ _______ _____ _____    ______ ____

>  <TORSDO>
F 12

$$$$
=
 OpenBabel11112418093D

 34 37  0  0  1  0  0  0  0  0999 V2000
  189.7290  174.4750  143.5310 C   0  0  2  0  0  3  0  0  0  0  0  0
  189.3150  176.4930  142.2810 O   0  0  0  0  0  0  0  0  0  0  0  0
  189.9750  172.4350  144.9860 C   0  0  0  0  0  2  0  0  0  0  0  0
  189.2770  176.7430  144.6510 C   0  0  2  0  0  3  0  0  0  0  0  0
  186.5870  178.0420  145.4530 C   0  0  0  0  0  2  0  0  0  0  0  0
  188.4860  175.8230  145.6000 C   0  0  1  0  0  3  0  0  0  0  0  0
  188.9640  177.8170  142.5750 C   0  0  0  0  0  2  0  0  0  0  0  0
  187.0180  177.6760  144.1050 N   0  0  0  0  0  0  0  0  0  0  0  0
  190.1240  173.9530  144.9230 C   0  0  2  0  0  3  0  0  0  0  0  0
  189.3190  174.6080  146.0570 C   0  0  1  0  0  3  0  0  0  0  0  0
  190.4230  172.2880  142.5280 C   0  0  0  0  0  2  0  0  0  0  0  0
  186.6590  176.8310  146.3750 C   0  0  0  0  0  2  0  0  0  0  0  0
  190.8310  171.7770  143.9070 C   0  0  0  0  0  2  0  0  0  0  0  0
  187.9920  176.5460  146.6930 O   0  0  0  0  0  0  0  0  0  0  0  0
  188.4780  177.8800  144.0170 C   0  0  1  0  0  3  0  0  0  0  0  0
  190.5860  173.8040  142.4600 C   0  0  0  0  0  2  0  0  0  0  0  0
  189.8910  175.9980  143.4600 C   0  0  1  0  0  3  0  0  0  0  0  0
  190.2060  174.8860  147.2740 C   0  0  0  0  0  2  0  0  0  0  0  0
  191.6880  174.8790  146.9230 C   0  0  0  0  0  2  0  0  0  0  0  0
  191.3420  177.0600  148.1100 C   0  0  0  0  0  1  0  0  0  0  0  0
  192.3670  176.1240  147.4660 C   0  0  2  0  0  3  0  0  0  0  0  0
  193.1470  176.7720  146.4050 N   0  0  0  0  0  0  0  0  0  0  0  0
  194.2540  177.3410  146.9440 O   0  0  0  0  0  1  0  0  0  0  0  0
  193.5930  175.7550  145.4610 C   0  0  0  0  0  2  0  0  0  0  0  0
  194.7640  176.2760  144.6460 C   0  0  0  0  0  2  0  0  0  0  0  0
  195.4690  175.2080  144.0880 O   0  0  0  0  0  0  0  0  0  0  0  0
  196.3660  174.8930  144.9980 O   0  0  0  0  0  1  0  0  0  0  0  0
  186.3400  178.6270  143.2300 C   0  0  0  0  0  2  0  0  0  0  0  0
  185.2210  177.9250  142.4800 C   0  0  0  0  0  2  0  0  0  0  0  0
  185.0960  178.4790  141.0660 C   0  0  0  0  0  3  0  0  0  0  0  0
  186.5440  176.6150  140.5600 O   0  0  0  0  0  1  0  0  0  0  0  0
  186.1560  177.8890  140.1390 C   0  0  0  0  0  2  0  0  0  0  0  0
  183.6840  178.3220  140.4970 C   0  0  0  0  0  2  0  0  0  0  0  0
  182.7490  178.1220  141.5160 O   0  0  0  0  0  1  0  0  0  0  0  0
  1 16  1  6  0  0  0
  1  9  1  0  0  0  0
  2  7  1  0  0  0  0
  2 17  1  0  0  0  0
  4  6  1  0  0  0  0
  5 12  1  0  0  0  0
  6 10  1  0  0  0  0
  6 14  1  0  0  0  0
  7 15  1  0  0  0  0
  8  5  1  0  0  0  0
  9  3  1  0  0  0  0
  9 10  1  0  0  0  0
 10 18  1  0  0  0  0
 11 13  1  0  0  0  0
 12 14  1  0  0  0  0
 13  3  1  0  0  0  0
 15  8  1  0  0  0  0
 15  4  1  0  0  0  0
 16 11  1  0  0  0  0
 17  1  1  0  0  0  0
 17  4  1  0  0  0  0
 19 18  1  0  0  0  0
 19 21  1  0  0  0  0
 21 20  1  0  0  0  0
 22 23  1  0  0  0  0
 22 21  1  0  0  0  0
 24 22  1  0  0  0  0
 25 24  1  0  0  0  0
 26 25  1  0  0  0  0
 26 27  1  0  0  0  0
 28  8  1  0  0  0  0
 29 28  1  0  0  0  0
 30 29  1  0  0  0  0
 32 31  1  0  0  0  0
 32 30  1  0  0  0  0
 33 30  1  0  0  0  0
 33 34  1  0  0  0  0
M  END
>  <MODEL>
4

>  <REMARK>
 VINA RESULT:      -6.4      2.451      3.727
  Name = 
  12 active torsions:
  status: ('A' for Active; 'I' for Inactive)
    1  A    between atoms: N_3  and  C_16
    2  A    between atoms: N_3  and  C_19
    3  A    between atoms: C_5  and  C_11
    4  A    between atoms: C_5  and  C_19
    5  A    between atoms: C_8  and  O_12
    6  A    between atoms: C_8  and  C_16
    7  A    between atoms: C_11  and  C_20
    8  A    between atoms: N_17  and  C_28
    9  A    between atoms: C_28  and  C_29
   10  A    between atoms: C_29  and  C_32
   11  A    between atoms: C_31  and  C_32
   12  A    between atoms: C_32  and  C_34
                            x       y       z     vdW  Elec       q    Type
                         _______ _______ _______ _____ _____    ______ ____

>  <TORSDO>
F 12

$$$$
=
 OpenBabel11112418093D

 34 37  0  0  1  0  0  0  0  0999 V2000
  189.1360  175.3850  142.7850 C   0  0  2  0  0  3  0  0  0  0  0  0
  190.1290  173.2060  143.0420 O   0  0  0  0  0  0  0  0  0  0  0  0
  188.3030  177.7560  142.6180 C   0  0  0  0  0  2  0  0  0  0  0  0
  190.3740  174.6590  144.9150 C   0  0  2  0  0  3  0  0  0  0  0  0
  193.3820  174.8590  145.6090 C   0  0  0  0  0  2  0  0  0  0  0  0
  190.8640  176.1160  144.8140 C   0  0  1  0  0  3  0  0  0  0  0  0
  190.9160  172.5540  144.0010 C   0  0  0  0  0  2  0  0  0  0  0  0
  192.7830  174.1030  144.5110 N   0  0  0  0  0  0  0  0  0  0  0  0
  188.6640  176.6200  143.5720 C   0  0  2  0  0  3  0  0  0  0  0  0
  189.7010  177.1050  144.5990 C   0  0  1  0  0  3  0  0  0  0  0  0
  187.7010  176.0850  140.8550 C   0  0  0  0  0  2  0  0  0  0  0  0
  192.9610  176.3210  145.5330 C   0  0  0  0  0  2  0  0  0  0  0  0
  187.2210  177.3000  141.6430 C   0  0  0  0  0  2  0  0  0  0  0  0
  191.6290  176.4600  145.9360 O   0  0  0  0  0  0  0  0  0  0  0  0
  191.4710  173.5970  144.9620 C   0  0  1  0  0  3  0  0  0  0  0  0
  188.0480  174.9440  141.8080 C   0  0  0  0  0  2  0  0  0  0  0  0
  189.4850  174.2380  143.7400 C   0  0  1  0  0  3  0  0  0  0  0  0
  189.0230  177.5580  145.8950 C   0  0  0  0  0  2  0  0  0  0  0  0
  187.6460  176.9320  146.0780 C   0  0  0  0  0  2  0  0  0  0  0  0
  186.4930  178.4180  147.7350 C   0  0  0  0  0  1  0  0  0  0  0  0
  186.5930  178.0110  146.2640 C   0  0  2  0  0  3  0  0  0  0  0  0
  185.3120  177.5620  145.7060 N   0  0  0  0  0  0  0  0  0  0  0  0
  184.7690  176.6270  146.5250 O   0  0  0  0  0  1  0  0  0  0  0  0
  184.3950  178.6930  145.6640 C   0  0  0  0  0  2  0  0  0  0  0  0
  184.1230  179.0930  144.2240 C   0  0  0  0  0  2  0  0  0  0  0  0
  184.2790  177.9890  143.3840 O   0  0  0  0  0  0  0  0  0  0  0  0
  183.4590  178.2190  142.3810 O   0  0  0  0  0  1  0  0  0  0  0  0
  193.6900  172.9810  144.2960 C   0  0  0  0  0  2  0  0  0  0  0  0
  194.3700  172.6130  145.6040 C   0  0  0  0  0  2  0  0  0  0  0  0
  195.3810  171.4950  145.3840 C   0  0  0  0  0  3  0  0  0  0  0  0
  196.7960  173.2340  146.2770 O   0  0  0  0  0  1  0  0  0  0  0  0
  196.7820  171.9140  145.8240 C   0  0  0  0  0  2  0  0  0  0  0  0
  194.9470  170.1760  146.0270 C   0  0  0  0  0  2  0  0  0  0  0  0
  194.9530  169.1340  145.0960 O   0  0  0  0  0  1  0  0  0  0  0  0
  1 16  1  6  0  0  0
  1  9  1  0  0  0  0
  1 17  1  0  0  0  0
  2 17  1  0  0  0  0
  2  7  1  0  0  0  0
  3  9  1  0  0  0  0
  4 15  1  0  0  0  0
  6  4  1  0  0  0  0
  6 14  1  0  0  0  0
  7 15  1  0  0  0  0
  8 15  1  0  0  0  0
  8  5  1  0  0  0  0
  9 10  1  0  0  0  0
 10  6  1  0  0  0  0
 10 18  1  0  0  0  0
 11 13  1  0  0  0  0
 11 16  1  0  0  0  0
 12  5  1  0  0  0  0
 12 14  1  0  0  0  0
 13  3  1  0  0  0  0
 17  4  1  0  0  0  0
 18 19  1  0  0  0  0
 19 21  1  0  0  0  0
 21 20  1  0  0  0  0
 22 21  1  0  0  0  0
 22 23  1  0  0  0  0
 24 22  1  0  0  0  0
 25 24  1  0  0  0  0
 26 25  1  0  0  0  0
 27 26  1  0  0  0  0
 28  8  1  0  0  0  0
 28 29  1  0  0  0  0
 30 29  1  0  0  0  0
 30 32  1  0  0  0  0
 30 33  1  0  0  0  0
 32 31  1  0  0  0  0
 34 33  1  0  0  0  0
M  END
>  <MODEL>
5

>  <REMARK>
 VINA RESULT:      -6.4      3.089      9.483
  Name = 
  12 active torsions:
  status: ('A' for Active; 'I' for Inactive)
    1  A    between atoms: N_3  and  C_16
    2  A    between atoms: N_3  and  C_19
    3  A    between atoms: C_5  and  C_11
    4  A    between atoms: C_5  and  C_19
    5  A    between atoms: C_8  and  O_12
    6  A    between atoms: C_8  and  C_16
    7  A    between atoms: C_11  and  C_20
    8  A    between atoms: N_17  and  C_28
    9  A    between atoms: C_28  and  C_29
   10  A    between atoms: C_29  and  C_32
   11  A    between atoms: C_31  and  C_32
   12  A    between atoms: C_32  and  C_34
                            x       y       z     vdW  Elec       q    Type
                         _______ _______ _______ _____ _____    ______ ____

>  <TORSDO>
F 12

$$$$
=
 OpenBabel11112418093D

 34 37  0  0  1  0  0  0  0  0999 V2000
  189.7530  173.6810  141.7630 C   0  0  2  0  0  3  0  0  0  0  0  0
  191.2020  173.0810  143.5930 O   0  0  0  0  0  0  0  0  0  0  0  0
  188.2630  174.5430  139.9270 C   0  0  0  0  0  2  0  0  0  0  0  0
  189.5120  174.6780  144.1190 C   0  0  2  0  0  3  0  0  0  0  0  0
  190.8720  177.1670  145.3520 C   0  0  0  0  0  2  0  0  0  0  0  0
  189.2240  175.9330  143.2750 C   0  0  1  0  0  3  0  0  0  0  0  0
  191.3840  173.4880  144.9210 C   0  0  0  0  0  2  0  0  0  0  0  0
  191.5330  175.9630  144.8550 N   0  0  0  0  0  0  0  0  0  0  0  0
  188.4000  174.3330  141.4330 C   0  0  2  0  0  3  0  0  0  0  0  0
  188.1820  175.6630  142.1710 C   0  0  1  0  0  3  0  0  0  0  0  0
  189.7570  172.5780  139.5150 C   0  0  0  0  0  2  0  0  0  0  0  0
  189.9940  177.7730  144.2650 C   0  0  0  0  0  2  0  0  0  0  0  0
  188.4070  173.2120  139.1940 C   0  0  0  0  0  2  0  0  0  0  0  0
  188.8380  177.0020  144.0940 O   0  0  0  0  0  0  0  0  0  0  0  0
  190.6530  174.8080  145.1270 C   0  0  1  0  0  3  0  0  0  0  0  0
  189.8890  172.3540  141.0200 C   0  0  0  0  0  2  0  0  0  0  0  0
  189.8880  173.4550  143.2740 C   0  0  1  0  0  3  0  0  0  0  0  0
  186.7300  175.8020  142.6400 C   0  0  0  0  0  2  0  0  0  0  0  0
  186.1270  177.1480  142.2600 C   0  0  0  0  0  2  0  0  0  0  0  0
  183.9260  178.2750  142.6770 C   0  0  0  0  0  1  0  0  0  0  0  0
  185.1420  177.6070  143.3220 C   0  0  2  0  0  3  0  0  0  0  0  0
  185.8220  178.4710  144.2940 N   0  0  0  0  0  0  0  0  0  0  0  0
  185.5590  179.7700  144.0000 O   0  0  0  0  0  1  0  0  0  0  0  0
  185.2790  178.2050  145.6200 C   0  0  0  0  0  2  0  0  0  0  0  0
  185.7840  176.8660  146.1320 C   0  0  0  0  0  2  0  0  0  0  0  0
  186.8000  177.0660  147.0680 O   0  0  0  0  0  0  0  0  0  0  0  0
  187.5950  176.0280  146.9190 O   0  0  0  0  0  1  0  0  0  0  0  0
  192.7470  175.8490  145.6560 C   0  0  0  0  0  2  0  0  0  0  0  0
  193.8160  176.7740  145.1000 C   0  0  0  0  0  2  0  0  0  0  0  0
  195.1800  176.0950  145.1350 C   0  0  0  0  0  3  0  0  0  0  0  0
  196.3790  174.2000  146.0270 O   0  0  0  0  0  1  0  0  0  0  0  0
  195.1040  174.7200  145.7930 C   0  0  0  0  0  2  0  0  0  0  0  0
  195.8430  176.0380  143.7570 C   0  0  0  0  0  2  0  0  0  0  0  0
  194.9340  176.3640  142.7470 O   0  0  0  0  0  1  0  0  0  0  0  0
  1 16  1  6  0  0  0
  1 17  1  0  0  0  0
  2  7  1  0  0  0  0
  3  9  1  0  0  0  0
  4 15  1  0  0  0  0
  6 14  1  0  0  0  0
  6  4  1  0  0  0  0
  7 15  1  0  0  0  0
  8 15  1  0  0  0  0
  8  5  1  0  0  0  0
  8 28  1  0  0  0  0
  9  1  1  0  0  0  0
  9 10  1  0  0  0  0
 10 18  1  0  0  0  0
 10  6  1  0  0  0  0
 11 16  1  0  0  0  0
 12  5  1  0  0  0  0
 13 11  1  0  0  0  0
 13  3  1  0  0  0  0
 14 12  1  0  0  0  0
 17  2  1  0  0  0  0
 17  4  1  0  0  0  0
 19 18  1  0  0  0  0
 19 21  1  0  0  0  0
 20 21  1  0  0  0  0
 21 22  1  0  0  0  0
 22 24  1  0  0  0  0
 23 22  1  0  0  0  0
 24 25  1  0  0  0  0
 25 26  1  0  0  0  0
 27 26  1  0  0  0  0
 29 30  1  0  0  0  0
 29 28  1  0  0  0  0
 30 32  1  0  0  0  0
 32 31  1  0  0  0  0
 33 30  1  0  0  0  0
 34 33  1  0  0  0  0
M  END
>  <MODEL>
6

>  <REMARK>
 VINA RESULT:      -6.2      2.816      8.584
  Name = 
  12 active torsions:
  status: ('A' for Active; 'I' for Inactive)
    1  A    between atoms: N_3  and  C_16
    2  A    between atoms: N_3  and  C_19
    3  A    between atoms: C_5  and  C_11
    4  A    between atoms: C_5  and  C_19
    5  A    between atoms: C_8  and  O_12
    6  A    between atoms: C_8  and  C_16
    7  A    between atoms: C_11  and  C_20
    8  A    between atoms: N_17  and  C_28
    9  A    between atoms: C_28  and  C_29
   10  A    between atoms: C_29  and  C_32
   11  A    between atoms: C_31  and  C_32
   12  A    between atoms: C_32  and  C_34
                            x       y       z     vdW  Elec       q    Type
                         _______ _______ _______ _____ _____    ______ ____

>  <TORSDO>
F 12

$$$$
=
 OpenBabel11112418093D

 34 37  0  0  1  0  0  0  0  0999 V2000
  189.7470  173.8570  142.0550 C   0  0  2  0  0  3  0  0  0  0  0  0
  189.0090  176.1470  142.1790 O   0  0  0  0  0  0  0  0  0  0  0  0
  190.4670  171.4470  142.1680 C   0  0  0  0  0  2  0  0  0  0  0  0
  190.3940  175.4290  143.9810 C   0  0  2  0  0  3  0  0  0  0  0  0
  188.9150  176.0010  146.6370 C   0  0  0  0  0  2  0  0  0  0  0  0
  190.1670  174.1280  144.7730 C   0  0  1  0  0  3  0  0  0  0  0  0
  189.1080  177.1990  143.1000 C   0  0  0  0  0  2  0  0  0  0  0  0
  188.4190  176.2510  145.2850 N   0  0  0  0  0  0  0  0  0  0  0  0
  190.7890  172.8720  142.6120 C   0  0  2  0  0  3  0  0  0  0  0  0
  190.9060  172.9300  144.1440 C   0  0  1  0  0  3  0  0  0  0  0  0
  189.3750  172.3380  140.0990 C   0  0  0  0  0  2  0  0  0  0  0  0
  189.3160  174.5400  146.7890 C   0  0  0  0  0  2  0  0  0  0  0  0
  190.4200  171.3690  140.6440 C   0  0  0  0  0  2  0  0  0  0  0  0
  190.5200  174.2990  146.1180 O   0  0  0  0  0  0  0  0  0  0  0  0
  189.5670  176.6300  144.4360 C   0  0  1  0  0  3  0  0  0  0  0  0
  189.7050  173.7650  140.5310 C   0  0  0  0  0  2  0  0  0  0  0  0
  190.0760  175.2900  142.4880 C   0  0  1  0  0  3  0  0  0  0  0  0
  192.3660  172.7960  144.5900 C   0  0  0  0  0  2  0  0  0  0  0  0
  193.3410  173.3230  143.5460 C   0  0  0  0  0  2  0  0  0  0  0  0
  194.8450  172.5340  145.3900 C   0  0  0  0  0  1  0  0  0  0  0  0
  194.7500  173.3700  144.1120 C   0  0  2  0  0  3  0  0  0  0  0  0
  195.1640  174.7640  144.3080 N   0  0  0  0  0  0  0  0  0  0  0  0
  194.2970  175.5850  143.6640 O   0  0  0  0  0  1  0  0  0  0  0  0
  195.0930  175.0800  145.7290 C   0  0  0  0  0  2  0  0  0  0  0  0
  194.0100  176.1160  145.9800 C   0  0  0  0  0  2  0  0  0  0  0  0
  194.5390  177.1950  146.6910 O   0  0  0  0  0  0  0  0  0  0  0  0
  194.9420  178.0360  145.7620 O   0  0  0  0  0  1  0  0  0  0  0  0
  187.5190  177.3910  145.4250 C   0  0  0  0  0  2  0  0  0  0  0  0
  186.2070  176.9360  146.0400 C   0  0  0  0  0  2  0  0  0  0  0  0
  185.0370  177.6930  145.4240 C   0  0  0  0  0  3  0  0  0  0  0  0
  185.0530  178.6550  147.6380 O   0  0  0  0  0  1  0  0  0  0  0  0
  184.3020  178.5310  146.4670 C   0  0  0  0  0  2  0  0  0  0  0  0
  185.4510  178.5230  144.2070 C   0  0  0  0  0  2  0  0  0  0  0  0
  184.8590  179.7890  144.2350 O   0  0  0  0  0  1  0  0  0  0  0  0
  1 16  1  6  0  0  0
  1 17  1  0  0  0  0
  1  9  1  0  0  0  0
  2 17  1  0  0  0  0
  2  7  1  0  0  0  0
  3  9  1  0  0  0  0
  4 15  1  0  0  0  0
  4  6  1  0  0  0  0
  5 12  1  0  0  0  0
  6 14  1  0  0  0  0
  7 15  1  0  0  0  0
  8 28  1  0  0  0  0
  8  5  1  0  0  0  0
  9 10  1  0  0  0  0
 10 18  1  0  0  0  0
 10  6  1  0  0  0  0
 11 16  1  0  0  0  0
 11 13  1  0  0  0  0
 13  3  1  0  0  0  0
 14 12  1  0  0  0  0
 15  8  1  0  0  0  0
 17  4  1  0  0  0  0
 19 21  1  0  0  0  0
 19 18  1  0  0  0  0
 21 22  1  0  0  0  0
 21 20  1  0  0  0  0
 22 24  1  0  0  0  0
 23 22  1  0  0  0  0
 24 25  1  0  0  0  0
 25 26  1  0  0  0  0
 27 26  1  0  0  0  0
 28 29  1  0  0  0  0
 30 29  1  0  0  0  0
 30 32  1  0  0  0  0
 32 31  1  0  0  0  0
 33 34  1  0  0  0  0
 33 30  1  0  0  0  0
M  END
>  <MODEL>
7

>  <REMARK>
 VINA RESULT:      -6.1      3.258      5.197
  Name = 
  12 active torsions:
  status: ('A' for Active; 'I' for Inactive)
    1  A    between atoms: N_3  and  C_16
    2  A    between atoms: N_3  and  C_19
    3  A    between atoms: C_5  and  C_11
    4  A    between atoms: C_5  and  C_19
    5  A    between atoms: C_8  and  O_12
    6  A    between atoms: C_8  and  C_16
    7  A    between atoms: C_11  and  C_20
    8  A    between atoms: N_17  and  C_28
    9  A    between atoms: C_28  and  C_29
   10  A    between atoms: C_29  and  C_32
   11  A    between atoms: C_31  and  C_32
   12  A    between atoms: C_32  and  C_34
                            x       y       z     vdW  Elec       q    Type
                         _______ _______ _______ _____ _____    ______ ____

>  <TORSDO>
F 12

$$$$
=
 OpenBabel11112418093D

 34 37  0  0  1  0  0  0  0  0999 V2000
  192.4100  175.8480  145.4070 C   0  0  2  0  0  3  0  0  0  0  0  0
  190.4610  175.5740  146.7970 O   0  0  0  0  0  0  0  0  0  0  0  0
  194.2990  176.2480  143.7910 C   0  0  0  0  0  2  0  0  0  0  0  0
  190.1270  175.1190  144.4810 C   0  0  2  0  0  3  0  0  0  0  0  0
  187.7670  176.8470  143.4770 C   0  0  0  0  0  2  0  0  0  0  0  0
  190.5800  176.0580  143.3470 C   0  0  1  0  0  3  0  0  0  0  0  0
  189.1040  175.2850  146.6000 C   0  0  0  0  0  2  0  0  0  0  0  0
  188.3340  176.8340  144.8240 N   0  0  0  0  0  0  0  0  0  0  0  0
  192.9970  175.4880  144.0320 C   0  0  2  0  0  3  0  0  0  0  0  0
  192.0150  175.7490  142.8780 C   0  0  1  0  0  3  0  0  0  0  0  0
  194.7200  176.3070  146.2580 C   0  0  0  0  0  2  0  0  0  0  0  0
  188.8530  177.1420  142.4510 C   0  0  0  0  0  2  0  0  0  0  0  0
  195.3030  175.9340  144.8980 C   0  0  0  0  0  2  0  0  0  0  0  0
  189.6720  176.0190  142.2810 O   0  0  0  0  0  0  0  0  0  0  0  0
  188.7820  175.4580  145.1210 C   0  0  1  0  0  3  0  0  0  0  0  0
  193.4250  175.5360  146.5050 C   0  0  0  0  0  2  0  0  0  0  0  0
  191.1090  175.0760  145.6570 C   0  0  1  0  0  3  0  0  0  0  0  0
  192.0990  174.6430  141.8210 C   0  0  0  0  0  2  0  0  0  0  0  0
  192.9080  173.4450  142.3010 C   0  0  0  0  0  2  0  0  0  0  0  0
  190.6270  172.4910  141.8830 C   0  0  0  0  0  1  0  0  0  0  0  0
  192.0020  172.2430  142.5070 C   0  0  2  0  0  3  0  0  0  0  0  0
  191.9310  171.9080  143.9340 N   0  0  0  0  0  0  0  0  0  0  0  0
  190.6380  171.6880  144.2800 O   0  0  0  0  0  1  0  0  0  0  0  0
  192.6620  170.6680  144.1630 C   0  0  0  0  0  2  0  0  0  0  0  0
  193.9120  170.9410  144.9820 C   0  0  0  0  0  2  0  0  0  0  0  0
  193.8710  172.2380  145.4970 O   0  0  0  0  0  0  0  0  0  0  0  0
  195.1310  172.5420  145.7250 O   0  0  0  0  0  1  0  0  0  0  0  0
  187.2190  177.1830  145.6980 C   0  0  0  0  0  2  0  0  0  0  0  0
  186.0180  177.5890  144.8620 C   0  0  0  0  0  2  0  0  0  0  0  0
  185.4240  178.8940  145.3780 C   0  0  0  0  0  3  0  0  0  0  0  0
  185.6530  179.3840  143.0260 O   0  0  0  0  0  1  0  0  0  0  0  0
  185.2470  179.9110  144.2540 C   0  0  0  0  0  2  0  0  0  0  0  0
  184.1310  178.6780  146.1670 C   0  0  0  0  0  2  0  0  0  0  0  0
  184.4020  178.2930  147.4830 O   0  0  0  0  0  1  0  0  0  0  0  0
  1 17  1  0  0  0  0
  1 16  1  1  0  0  0
  3  9  1  0  0  0  0
  3 13  1  0  0  0  0
  4 15  1  0  0  0  0
  4 17  1  0  0  0  0
  5  8  1  0  0  0  0
  6  4  1  0  0  0  0
  7  2  1  0  0  0  0
  8 15  1  0  0  0  0
  8 28  1  0  0  0  0
  9  1  1  0  0  0  0
 10  6  1  0  0  0  0
 10  9  1  0  0  0  0
 11 16  1  0  0  0  0
 12  5  1  0  0  0  0
 13 11  1  0  0  0  0
 14 12  1  0  0  0  0
 14  6  1  0  0  0  0
 15  7  1  0  0  0  0
 17  2  1  0  0  0  0
 18 19  1  0  0  0  0
 18 10  1  0  0  0  0
 19 21  1  0  0  0  0
 20 21  1  0  0  0  0
 21 22  1  0  0  0  0
 22 24  1  0  0  0  0
 22 23  1  0  0  0  0
 24 25  1  0  0  0  0
 25 26  1  0  0  0  0
 26 27  1  0  0  0  0
 29 30  1  0  0  0  0
 29 28  1  0  0  0  0
 30 33  1  0  0  0  0
 31 32  1  0  0  0  0
 32 30  1  0  0  0  0
 33 34  1  0  0  0  0
M  END
>  <MODEL>
8

>  <REMARK>
 VINA RESULT:      -6.1      3.333      5.935
  Name = 
  12 active torsions:
  status: ('A' for Active; 'I' for Inactive)
    1  A    between atoms: N_3  and  C_16
    2  A    between atoms: N_3  and  C_19
    3  A    between atoms: C_5  and  C_11
    4  A    between atoms: C_5  and  C_19
    5  A    between atoms: C_8  and  O_12
    6  A    between atoms: C_8  and  C_16
    7  A    between atoms: C_11  and  C_20
    8  A    between atoms: N_17  and  C_28
    9  A    between atoms: C_28  and  C_29
   10  A    between atoms: C_29  and  C_32
   11  A    between atoms: C_31  and  C_32
   12  A    between atoms: C_32  and  C_34
                            x       y       z     vdW  Elec       q    Type
                         _______ _______ _______ _____ _____    ______ ____

>  <TORSDO>
F 12

$$$$
=
 OpenBabel11112418093D

 34 37  0  0  1  0  0  0  0  0999 V2000
  189.8060  174.0740  142.4070 C   0  0  2  0  0  3  0  0  0  0  0  0
  188.9530  176.3270  142.4360 O   0  0  0  0  0  0  0  0  0  0  0  0
  190.6440  171.7090  142.6190 C   0  0  0  0  0  2  0  0  0  0  0  0
  190.3550  175.7500  144.2750 C   0  0  2  0  0  3  0  0  0  0  0  0
  188.8250  176.3500  146.8950 C   0  0  0  0  0  2  0  0  0  0  0  0
  190.1870  174.4710  145.1160 C   0  0  1  0  0  3  0  0  0  0  0  0
  188.9910  177.4170  143.3160 C   0  0  0  0  0  2  0  0  0  0  0  0
  188.3300  176.5210  145.5310 N   0  0  0  0  0  0  0  0  0  0  0  0
  190.8900  173.1640  143.0100 C   0  0  2  0  0  3  0  0  0  0  0  0
  190.9900  173.2880  144.5390 C   0  0  1  0  0  3  0  0  0  0  0  0
  189.5280  172.4640  140.5090 C   0  0  0  0  0  2  0  0  0  0  0  0
  189.2970  174.9170  147.1080 C   0  0  0  0  0  2  0  0  0  0  0  0
  190.6150  171.5700  141.0990 C   0  0  0  0  0  2  0  0  0  0  0  0
  190.5180  174.7110  146.4560 O   0  0  0  0  0  0  0  0  0  0  0  0
  189.4650  176.9250  144.6770 C   0  0  1  0  0  3  0  0  0  0  0  0
  189.7820  173.9210  140.8880 C   0  0  0  0  0  2  0  0  0  0  0  0
  190.0580  175.5380  142.7870 C   0  0  1  0  0  3  0  0  0  0  0  0
  192.4500  173.2450  145.0010 C   0  0  0  0  0  2  0  0  0  0  0  0
  193.3820  173.9740  144.0420 C   0  0  0  0  0  2  0  0  0  0  0  0
  193.8940  175.3710  146.0600 C   0  0  0  0  0  1  0  0  0  0  0  0
  194.4720  174.7010  144.8120 C   0  0  2  0  0  3  0  0  0  0  0  0
  195.1670  175.6430  143.9270 N   0  0  0  0  0  0  0  0  0  0  0  0
  196.4880  175.6560  144.2340 O   0  0  0  0  0  1  0  0  0  0  0  0
  195.0420  175.1750  142.5520 C   0  0  0  0  0  2  0  0  0  0  0  0
  194.8270  176.3530  141.6170 C   0  0  0  0  0  2  0  0  0  0  0  0
  196.0560  176.9140  141.2660 O   0  0  0  0  0  0  0  0  0  0  0  0
  196.7600  175.9050  140.8010 O   0  0  0  0  0  1  0  0  0  0  0  0
  187.3730  177.6190  145.6200 C   0  0  0  0  0  2  0  0  0  0  0  0
  185.9590  177.0780  145.5030 C   0  0  0  0  0  2  0  0  0  0  0  0
  185.0300  178.1320  144.9130 C   0  0  0  0  0  3  0  0  0  0  0  0
  184.4410  178.2870  147.2480 O   0  0  0  0  0  1  0  0  0  0  0  0
  184.0620  178.6750  145.9610 C   0  0  0  0  0  2  0  0  0  0  0  0
  185.7910  179.2500  144.1980 C   0  0  0  0  0  2  0  0  0  0  0  0
  185.8030  179.0490  142.8160 O   0  0  0  0  0  1  0  0  0  0  0  0
  1 16  1  6  0  0  0
  1 17  1  0  0  0  0
  1  9  1  0  0  0  0
  2 17  1  0  0  0  0
  2  7  1  0  0  0  0
  3  9  1  0  0  0  0
  4 15  1  0  0  0  0
  4  6  1  0  0  0  0
  5 12  1  0  0  0  0
  6 14  1  0  0  0  0
  7 15  1  0  0  0  0
  8 28  1  0  0  0  0
  8  5  1  0  0  0  0
  9 10  1  0  0  0  0
 10 18  1  0  0  0  0
 10  6  1  0  0  0  0
 11 16  1  0  0  0  0
 11 13  1  0  0  0  0
 13  3  1  0  0  0  0
 14 12  1  0  0  0  0
 15  8  1  0  0  0  0
 17  4  1  0  0  0  0
 19 21  1  0  0  0  0
 19 18  1  0  0  0  0
 21 20  1  0  0  0  0
 22 23  1  0  0  0  0
 22 21  1  0  0  0  0
 24 22  1  0  0  0  0
 25 24  1  0  0  0  0
 26 25  1  0  0  0  0
 27 26  1  0  0  0  0
 29 28  1  0  0  0  0
 30 29  1  0  0  0  0
 30 32  1  0  0  0  0
 32 31  1  0  0  0  0
 33 30  1  0  0  0  0
 34 33  1  0  0  0  0
M  END
>  <MODEL>
9

>  <REMARK>
 VINA RESULT:      -6.1      3.357      5.230
  Name = 
  12 active torsions:
  status: ('A' for Active; 'I' for Inactive)
    1  A    between atoms: N_3  and  C_16
    2  A    between atoms: N_3  and  C_19
    3  A    between atoms: C_5  and  C_11
    4  A    between atoms: C_5  and  C_19
    5  A    between atoms: C_8  and  O_12
    6  A    between atoms: C_8  and  C_16
    7  A    between atoms: C_11  and  C_20
    8  A    between atoms: N_17  and  C_28
    9  A    between atoms: C_28  and  C_29
   10  A    between atoms: C_29  and  C_32
   11  A    between atoms: C_31  and  C_32
   12  A    between atoms: C_32  and  C_34
                            x       y       z     vdW  Elec       q    Type
                         _______ _______ _______ _____ _____    ______ ____

>  <TORSDO>
F 12

$$$$
