=
 OpenBabel11112417503D

 34 42  0  0  1  0  0  0  0  0999 V2000
  189.7100  173.9930  143.6190 C   0  0  0  0  0  0  0  0  0  0  0  0
  191.5400  172.2340  143.7590 C   0  0  0  0  0  2  0  0  0  0  0  0
  186.3100  178.0610  145.9630 C   0  0  2  0  0  0  0  0  0  0  0  0
  188.3060  175.9200  143.2010 C   0  0  0  0  0  0  0  0  0  0  0  0
  188.4830  177.9610  144.6730 N   0  0  1  0  0  0  0  0  0  0  0  0
  186.5610  176.5890  145.6530 C   0  0  2  0  0  3  0  0  0  0  0  0
  185.3770  176.9990  146.5040 C   0  0  0  0  0  2  0  0  0  0  0  0
  185.6100  177.9980  143.4470 C   0  0  0  0  0  2  0  0  0  0  0  0
  191.6170  174.1130  145.2840 C   0  0  2  0  0  3  0  0  0  0  0  0
  194.4800  175.5250  145.3030 C   0  0  0  0  0  2  0  0  0  0  0  0
  189.8960  177.6030  144.8750 C   0  0  0  0  0  2  0  0  0  0  0  0
  186.9060  178.0750  142.6660 C   0  0  0  0  0  2  0  0  0  0  0  0
  191.5490  175.6440  145.1050 C   0  0  1  0  0  3  0  0  0  0  0  0
  192.8540  172.1530  144.5260 C   0  0  0  0  0  2  0  0  0  0  0  0
  188.0850  177.3980  143.3670 C   0  0  2  0  0  3  0  0  0  0  0  0
  185.7270  178.8040  144.7400 C   0  0  0  0  0  2  0  0  0  0  0  0
  194.0590  174.3270  144.5510 N   0  0  0  0  0  0  0  0  0  0  0  0
  189.3640  175.3230  143.9030 C   0  0  0  0  0  0  0  0  0  0  0  0
  187.7400  177.5260  145.8850 C   0  0  2  0  0  3  0  0  0  0  0  0
  190.0810  176.0740  145.0040 C   0  0  2  0  0  3  0  0  0  0  0  0
  187.9290  173.9130  141.9880 C   0  0  0  0  0  3  0  0  0  0  0  0
  193.6570  175.8320  146.5620 C   0  0  0  0  0  2  0  0  0  0  0  0
  187.6250  175.2110  142.2590 N   0  0  0  0  0  0  0  0  0  0  0  0
  192.2640  176.3810  146.2440 C   0  0  0  0  0  2  0  0  0  0  0  0
  193.0270  173.4990  145.2260 C   0  0  1  0  0  3  0  0  0  0  0  0
  188.9830  173.2840  142.6550 C   0  0  0  0  0  3  0  0  0  0  0  0
  190.8550  173.4120  144.2610 N   0  0  0  0  0  0  0  0  0  0  0  0
  193.6580  174.7470  143.2100 C   0  0  0  0  0  2  0  0  0  0  0  0
  194.2730  176.0930  142.8760 C   0  0  0  0  0  2  0  0  0  0  0  0
  195.8870  175.3460  139.8030 N   0  0  0  0  0  0  0  0  0  0  0  0
  196.3970  176.4430  141.5990 N   0  0  0  0  0  0  0  0  0  0  0  0
  195.1490  175.9530  141.6820 C   0  0  0  0  0  0  0  0  0  0  0  0
  196.8290  176.0500  140.4120 N   0  0  0  0  0  2  0  0  0  0  0  0
  194.8190  175.2620  140.5790 N   0  0  0  0  0  0  0  0  0  0  0  0
  1 18  1  0  0  0  0
  1 27  1  0  0  0  0
  2 27  1  0  0  0  0
  2 14  1  0  0  0  0
  3 16  1  6  0  0  0
  3  7  1  0  0  0  0
  4 15  1  0  0  0  0
  4 18  2  0  0  0  0
  5 11  1  1  0  0  0
  5 19  1  0  0  0  0
  6 19  1  0  0  0  0
  6  3  1  0  0  0  0
  6  7  1  1  0  0  0
  8 16  1  0  0  0  0
  9 27  1  6  0  0  0
 10 22  1  0  0  0  0
 11 20  1  0  0  0  0
 12  8  1  0  0  0  0
 13  9  1  0  0  0  0
 13 24  1  1  0  0  0
 14 25  1  0  0  0  0
 15 12  1  1  0  0  0
 15  5  1  0  0  0  0
 17 25  1  0  0  0  0
 17 10  1  0  0  0  0
 18 20  1  0  0  0  0
 19  3  1  0  0  0  0
 20 13  1  0  0  0  0
 21 23  2  0  0  0  0
 21 26  1  0  0  0  0
 23  4  1  0  0  0  0
 24 22  1  0  0  0  0
 25  9  1  0  0  0  0
 26  1  2  0  0  0  0
 28 17  1  0  0  0  0
 29 28  1  0  0  0  0
 30 33  1  0  0  0  0
 30 34  2  0  0  0  0
 31 32  2  0  0  0  0
 32 29  1  0  0  0  0
 33 31  1  0  0  0  0
 34 32  1  0  0  0  0
M  END
>  <MODEL>
1

>  <REMARK>
 VINA RESULT:      -8.8      0.000      0.000
  Name = 
  3 active torsions:
  status: ('A' for Active; 'I' for Inactive)
    1  A    between atoms: N_17  and  C_28
    2  A    between atoms: C_28  and  C_29
    3  A    between atoms: C_29  and  C_32
                            x       y       z     vdW  Elec       q    Type
                         _______ _______ _______ _____ _____    ______ ____

>  <TORSDO>
F 3

$$$$
=
 OpenBabel11112417503D

 34 42  0  0  1  0  0  0  0  0999 V2000
  189.6620  174.0570  143.6290 C   0  0  0  0  0  0  0  0  0  0  0  0
  191.5160  172.3280  143.8200 C   0  0  0  0  0  2  0  0  0  0  0  0
  186.1000  178.0320  145.8890 C   0  0  2  0  0  0  0  0  0  0  0  0
  188.2400  175.9630  143.1810 C   0  0  0  0  0  0  0  0  0  0  0  0
  188.3230  177.9870  144.6850 N   0  0  1  0  0  0  0  0  0  0  0  0
  186.3900  176.5680  145.5710 C   0  0  2  0  0  3  0  0  0  0  0  0
  185.1660  176.9460  146.3800 C   0  0  0  0  0  2  0  0  0  0  0  0
  185.5000  177.9900  143.3470 C   0  0  0  0  0  2  0  0  0  0  0  0
  191.5000  174.1870  145.3700 C   0  0  2  0  0  3  0  0  0  0  0  0
  194.3330  175.6500  145.5190 C   0  0  0  0  0  2  0  0  0  0  0  0
  189.7330  177.6520  144.9380 C   0  0  0  0  0  2  0  0  0  0  0  0
  186.8240  178.1000  142.6190 C   0  0  0  0  0  2  0  0  0  0  0  0
  191.4110  175.7200  145.2080 C   0  0  1  0  0  3  0  0  0  0  0  0
  192.8010  172.2600  144.6360 C   0  0  0  0  0  2  0  0  0  0  0  0
  187.9870  177.4350  143.3570 C   0  0  2  0  0  3  0  0  0  0  0  0
  185.5520  178.7800  144.6540 C   0  0  0  0  0  2  0  0  0  0  0  0
  193.9650  174.4540  144.7360 N   0  0  0  0  0  0  0  0  0  0  0  0
  189.2810  175.3750  143.9160 C   0  0  0  0  0  0  0  0  0  0  0  0
  187.5410  177.5230  145.8610 C   0  0  2  0  0  3  0  0  0  0  0  0
  189.9410  176.1240  145.0550 C   0  0  2  0  0  3  0  0  0  0  0  0
  187.9480  173.9660  141.9290 C   0  0  0  0  0  3  0  0  0  0  0  0
  193.4570  175.9250  146.7490 C   0  0  0  0  0  2  0  0  0  0  0  0
  187.6100  175.2550  142.2040 N   0  0  0  0  0  0  0  0  0  0  0  0
  192.0670  176.4530  146.3830 C   0  0  0  0  0  2  0  0  0  0  0  0
  192.9220  173.5990  145.3590 C   0  0  1  0  0  3  0  0  0  0  0  0
  188.9860  173.3480  142.6290 C   0  0  0  0  0  3  0  0  0  0  0  0
  190.7910  173.4870  144.3090 N   0  0  0  0  0  0  0  0  0  0  0  0
  193.6090  174.8850  143.3860 C   0  0  0  0  0  2  0  0  0  0  0  0
  194.6540  174.4120  142.3920 C   0  0  0  0  0  2  0  0  0  0  0  0
  197.9150  175.5820  143.1660 N   0  0  0  0  0  0  0  0  0  0  0  0
  196.0540  176.4820  142.5220 N   0  0  0  0  0  0  0  0  0  0  0  0
  195.9240  175.1490  142.6240 C   0  0  0  0  0  0  0  0  0  0  0  0
  197.3100  176.7190  142.8620 N   0  0  0  0  0  0  0  0  0  0  0  0
  197.0690  174.5740  143.0320 N   0  0  0  0  0  2  0  0  0  0  0  0
  1 18  1  0  0  0  0
  1 27  1  0  0  0  0
  2 27  1  0  0  0  0
  2 14  1  0  0  0  0
  3 16  1  6  0  0  0
  3  7  1  0  0  0  0
  4 15  1  0  0  0  0
  4 18  2  0  0  0  0
  5 11  1  1  0  0  0
  5 19  1  0  0  0  0
  6 19  1  0  0  0  0
  6  3  1  0  0  0  0
  6  7  1  1  0  0  0
  8 16  1  0  0  0  0
  9 27  1  6  0  0  0
 10 22  1  0  0  0  0
 11 20  1  0  0  0  0
 12  8  1  0  0  0  0
 13  9  1  0  0  0  0
 13 24  1  1  0  0  0
 14 25  1  0  0  0  0
 15 12  1  1  0  0  0
 15  5  1  0  0  0  0
 17 25  1  0  0  0  0
 17 10  1  0  0  0  0
 18 20  1  0  0  0  0
 19  3  1  0  0  0  0
 20 13  1  0  0  0  0
 21 23  2  0  0  0  0
 21 26  1  0  0  0  0
 23  4  1  0  0  0  0
 24 22  1  0  0  0  0
 25  9  1  0  0  0  0
 26  1  2  0  0  0  0
 28 17  1  0  0  0  0
 29 32  1  0  0  0  0
 29 28  1  0  0  0  0
 31 32  2  0  0  0  0
 31 33  1  0  0  0  0
 32 34  1  0  0  0  0
 33 30  2  0  0  0  0
 34 30  1  0  0  0  0
M  END
>  <MODEL>
2

>  <REMARK>
 VINA RESULT:      -8.7      0.889      1.097
  Name = 
  3 active torsions:
  status: ('A' for Active; 'I' for Inactive)
    1  A    between atoms: N_17  and  C_28
    2  A    between atoms: C_28  and  C_29
    3  A    between atoms: C_29  and  C_32
                            x       y       z     vdW  Elec       q    Type
                         _______ _______ _______ _____ _____    ______ ____

>  <TORSDO>
F 3

$$$$
=
 OpenBabel11112417503D

 34 42  0  0  1  0  0  0  0  0999 V2000
  189.9280  176.6620  144.8160 C   0  0  0  0  0  0  0  0  0  0  0  0
  192.1680  175.8710  143.9090 C   0  0  0  0  0  2  0  0  0  0  0  0
  184.6770  179.0310  144.1710 C   0  0  2  0  0  0  0  0  0  0  0  0
  187.7140  176.9200  145.7580 C   0  0  0  0  0  0  0  0  0  0  0  0
  185.6770  176.7100  144.2840 N   0  0  1  0  0  0  0  0  0  0  0  0
  186.1750  179.2160  144.3930 C   0  0  2  0  0  3  0  0  0  0  0  0
  185.2790  180.4200  144.1840 C   0  0  0  0  0  2  0  0  0  0  0  0
  184.8330  178.4770  146.7190 C   0  0  0  0  0  2  0  0  0  0  0  0
  190.2400  175.8260  142.4440 C   0  0  2  0  0  3  0  0  0  0  0  0
  189.8910  172.9950  141.0100 C   0  0  0  0  0  2  0  0  0  0  0  0
  186.4610  175.7810  143.4560 C   0  0  0  0  0  2  0  0  0  0  0  0
  185.3040  177.0390  146.7910 C   0  0  0  0  0  2  0  0  0  0  0  0
  188.8150  175.2470  142.5630 C   0  0  1  0  0  3  0  0  0  0  0  0
  192.5860  175.1800  142.6170 C   0  0  0  0  0  2  0  0  0  0  0  0
  186.2400  176.6420  145.6490 C   0  0  2  0  0  3  0  0  0  0  0  0
  183.9500  178.6800  145.4880 C   0  0  0  0  0  2  0  0  0  0  0  0
  190.9650  173.4270  141.9250 N   0  0  0  0  0  0  0  0  0  0  0  0
  188.5350  176.5940  144.6680 C   0  0  0  0  0  0  0  0  0  0  0  0
  185.6700  178.0240  143.5890 C   0  0  2  0  0  3  0  0  0  0  0  0
  187.9320  176.2410  143.3250 C   0  0  2  0  0  3  0  0  0  0  0  0
  189.6170  177.3980  147.0960 C   0  0  0  0  0  3  0  0  0  0  0  0
  189.1590  174.1270  140.2760 C   0  0  0  0  0  2  0  0  0  0  0  0
  188.2690  177.3000  146.9420 N   0  0  0  0  0  0  0  0  0  0  0  0
  188.2190  174.9190  141.1890 C   0  0  0  0  0  2  0  0  0  0  0  0
  191.2970  174.8730  141.8570 C   0  0  1  0  0  3  0  0  0  0  0  0
  190.4710  177.0700  146.0400 C   0  0  0  0  0  3  0  0  0  0  0  0
  190.7720  176.2320  143.7360 N   0  0  0  0  0  0  0  0  0  0  0  0
  190.6160  172.9900  143.2760 C   0  0  0  0  0  2  0  0  0  0  0  0
  190.9280  171.5150  143.4480 C   0  0  0  0  0  2  0  0  0  0  0  0
  193.9770  170.5080  144.9630 N   0  0  0  0  0  0  0  0  0  0  0  0
  192.8410  172.3470  144.8310 N   0  0  0  0  0  0  0  0  0  0  0  0
  192.2340  171.3650  144.1430 C   0  0  0  0  0  0  0  0  0  0  0  0
  193.9280  171.7800  145.3270 N   0  0  0  0  0  0  0  0  0  0  0  0
  192.9220  170.2140  144.2210 N   0  0  0  0  0  2  0  0  0  0  0  0
  1 26  1  0  0  0  0
  3  7  1  6  0  0  0
  3  6  1  0  0  0  0
  3 16  1  0  0  0  0
  4 23  2  0  0  0  0
  5 11  1  6  0  0  0
  5 15  1  0  0  0  0
  6  7  1  6  0  0  0
  8 12  1  0  0  0  0
  9 13  1  0  0  0  0
  9 27  1  1  0  0  0
 10 17  1  0  0  0  0
 13 24  1  6  0  0  0
 13 20  1  0  0  0  0
 14  2  1  0  0  0  0
 15  4  1  0  0  0  0
 15 12  1  1  0  0  0
 16  8  1  0  0  0  0
 17 28  1  0  0  0  0
 18  1  2  0  0  0  0
 18  4  1  0  0  0  0
 19  3  1  0  0  0  0
 19  5  1  0  0  0  0
 19  6  1  0  0  0  0
 20 11  1  0  0  0  0
 20 18  1  0  0  0  0
 22 10  1  0  0  0  0
 22 24  1  0  0  0  0
 23 21  1  0  0  0  0
 25 17  1  0  0  0  0
 25  9  1  0  0  0  0
 25 14  1  0  0  0  0
 26 21  2  0  0  0  0
 27  2  1  0  0  0  0
 27  1  1  0  0  0  0
 28 29  1  0  0  0  0
 29 32  1  0  0  0  0
 30 33  2  0  0  0  0
 31 33  1  0  0  0  0
 32 34  1  0  0  0  0
 32 31  2  0  0  0  0
 34 30  1  0  0  0  0
M  END
>  <MODEL>
3

>  <REMARK>
 VINA RESULT:      -8.7      2.577      4.702
  Name = 
  3 active torsions:
  status: ('A' for Active; 'I' for Inactive)
    1  A    between atoms: N_17  and  C_28
    2  A    between atoms: C_28  and  C_29
    3  A    between atoms: C_29  and  C_32
                            x       y       z     vdW  Elec       q    Type
                         _______ _______ _______ _____ _____    ______ ____

>  <TORSDO>
F 3

$$$$
=
 OpenBabel11112417503D

 34 42  0  0  1  0  0  0  0  0999 V2000
  189.7030  173.9590  143.6260 C   0  0  0  0  0  0  0  0  0  0  0  0
  191.5630  172.2310  143.7720 C   0  0  0  0  0  2  0  0  0  0  0  0
  186.2590  177.9990  145.9520 C   0  0  2  0  0  0  0  0  0  0  0  0
  188.2650  175.8570  143.1980 C   0  0  0  0  0  0  0  0  0  0  0  0
  188.4220  177.9180  144.6440 N   0  0  1  0  0  0  0  0  0  0  0  0
  186.5310  176.5270  145.6580 C   0  0  2  0  0  3  0  0  0  0  0  0
  185.3480  176.9280  146.5140 C   0  0  0  0  0  2  0  0  0  0  0  0
  185.5380  177.8940  143.4430 C   0  0  0  0  0  2  0  0  0  0  0  0
  191.6230  174.1290  145.2730 C   0  0  2  0  0  3  0  0  0  0  0  0
  194.4620  175.5880  145.2490 C   0  0  0  0  0  2  0  0  0  0  0  0
  189.8420  177.5860  144.8370 C   0  0  0  0  0  2  0  0  0  0  0  0
  186.8250  177.9820  142.6490 C   0  0  0  0  0  2  0  0  0  0  0  0
  191.5280  175.6570  145.0760 C   0  0  1  0  0  3  0  0  0  0  0  0
  192.8850  172.1800  144.5270 C   0  0  0  0  0  2  0  0  0  0  0  0
  188.0220  177.3330  143.3480 C   0  0  2  0  0  3  0  0  0  0  0  0
  185.6530  178.7170  144.7260 C   0  0  0  0  0  2  0  0  0  0  0  0
  194.0550  174.3730  144.5150 N   0  0  0  0  0  0  0  0  0  0  0  0
  189.3380  175.2850  143.8970 C   0  0  0  0  0  0  0  0  0  0  0  0
  187.6970  177.4860  145.8670 C   0  0  2  0  0  3  0  0  0  0  0  0
  190.0530  176.0610  144.9830 C   0  0  2  0  0  3  0  0  0  0  0  0
  187.9100  173.8290  142.0130 C   0  0  0  0  0  3  0  0  0  0  0  0
  193.6460  175.8960  146.5120 C   0  0  0  0  0  2  0  0  0  0  0  0
  187.5880  175.1260  142.2700 N   0  0  0  0  0  0  0  0  0  0  0  0
  192.2410  176.4190  146.2000 C   0  0  0  0  0  2  0  0  0  0  0  0
  193.0420  173.5370  145.2090 C   0  0  1  0  0  3  0  0  0  0  0  0
  188.9800  173.2260  142.6770 C   0  0  0  0  0  3  0  0  0  0  0  0
  190.8630  173.4030  144.2660 N   0  0  0  0  0  0  0  0  0  0  0  0
  193.6360  174.7710  143.1730 C   0  0  0  0  0  2  0  0  0  0  0  0
  194.5440  174.1430  142.1320 C   0  0  0  0  0  2  0  0  0  0  0  0
  193.1490  172.6260  139.2410 N   0  0  0  0  0  0  0  0  0  0  0  0
  192.4560  174.0080  140.7580 N   0  0  0  0  0  0  0  0  0  0  0  0
  193.7210  173.6270  141.0060 C   0  0  0  0  0  0  0  0  0  0  0  0
  192.1280  173.3620  139.6520 N   0  0  0  0  0  0  0  0  0  0  0  0
  194.1700  172.7750  140.0690 N   0  0  0  0  0  2  0  0  0  0  0  0
  1 18  1  0  0  0  0
  1 27  1  0  0  0  0
  2 27  1  0  0  0  0
  2 14  1  0  0  0  0
  3 16  1  6  0  0  0
  3  7  1  0  0  0  0
  4 15  1  0  0  0  0
  4 18  2  0  0  0  0
  5 11  1  1  0  0  0
  5 19  1  0  0  0  0
  6 19  1  0  0  0  0
  6  3  1  0  0  0  0
  6  7  1  1  0  0  0
  8 16  1  0  0  0  0
  9 27  1  6  0  0  0
 10 22  1  0  0  0  0
 11 20  1  0  0  0  0
 12  8  1  0  0  0  0
 13  9  1  0  0  0  0
 13 24  1  1  0  0  0
 14 25  1  0  0  0  0
 15 12  1  1  0  0  0
 15  5  1  0  0  0  0
 17 25  1  0  0  0  0
 17 10  1  0  0  0  0
 18 20  1  0  0  0  0
 19  3  1  0  0  0  0
 20 13  1  0  0  0  0
 21 23  2  0  0  0  0
 21 26  1  0  0  0  0
 23  4  1  0  0  0  0
 24 22  1  0  0  0  0
 25  9  1  0  0  0  0
 26  1  2  0  0  0  0
 28 17  1  0  0  0  0
 29 28  1  0  0  0  0
 30 33  2  0  0  0  0
 30 34  1  0  0  0  0
 31 32  2  0  0  0  0
 32 29  1  0  0  0  0
 33 31  1  0  0  0  0
 34 32  1  0  0  0  0
M  END
>  <MODEL>
4

>  <REMARK>
 VINA RESULT:      -8.2      1.316      1.596
  Name = 
  3 active torsions:
  status: ('A' for Active; 'I' for Inactive)
    1  A    between atoms: N_17  and  C_28
    2  A    between atoms: C_28  and  C_29
    3  A    between atoms: C_29  and  C_32
                            x       y       z     vdW  Elec       q    Type
                         _______ _______ _______ _____ _____    ______ ____

>  <TORSDO>
F 3

$$$$
=
 OpenBabel11112417503D

 34 42  0  0  1  0  0  0  0  0999 V2000
  192.8810  175.5710  145.6300 C   0  0  0  0  0  0  0  0  0  0  0  0
  190.6550  175.3610  146.8420 C   0  0  0  0  0  2  0  0  0  0  0  0
  197.1560  173.4440  142.3440 C   0  0  2  0  0  0  0  0  0  0  0  0
  194.7450  176.0940  144.1780 C   0  0  0  0  0  0  0  0  0  0  0  0
  195.0630  174.8270  142.0200 N   0  0  1  0  0  0  0  0  0  0  0  0
  196.5400  173.6290  143.7280 C   0  0  2  0  0  3  0  0  0  0  0  0
  197.7680  172.7600  143.5480 C   0  0  0  0  0  2  0  0  0  0  0  0
  197.8790  175.9040  142.8410 C   0  0  0  0  0  2  0  0  0  0  0  0
  191.0280  174.0230  144.8590 C   0  0  2  0  0  3  0  0  0  0  0  0
  188.6280  174.2800  142.7700 C   0  0  0  0  0  2  0  0  0  0  0  0
  193.6020  174.6650  141.9830 C   0  0  0  0  0  2  0  0  0  0  0  0
  196.6670  176.7540  142.5170 C   0  0  0  0  0  2  0  0  0  0  0  0
  191.4940  174.3390  143.4220 C   0  0  1  0  0  3  0  0  0  0  0  0
  189.3460  174.6590  146.5070 C   0  0  0  0  0  2  0  0  0  0  0  0
  195.3350  176.0550  142.7960 C   0  0  2  0  0  3  0  0  0  0  0  0
  197.9410  174.6990  141.9040 C   0  0  0  0  0  2  0  0  0  0  0  0
  188.7430  174.8950  144.1070 N   0  0  0  0  0  0  0  0  0  0  0  0
  193.5510  175.3940  144.4110 C   0  0  0  0  0  0  0  0  0  0  0  0
  195.6380  173.5450  142.5030 C   0  0  2  0  0  3  0  0  0  0  0  0
  193.0250  174.4050  143.3930 C   0  0  2  0  0  3  0  0  0  0  0  0
  194.6200  177.0950  146.3280 C   0  0  0  0  0  3  0  0  0  0  0  0
  189.4700  173.0150  142.5560 C   0  0  0  0  0  2  0  0  0  0  0  0
  195.2420  176.9310  145.1290 N   0  0  0  0  0  0  0  0  0  0  0  0
  190.9650  173.3110  142.4150 C   0  0  0  0  0  2  0  0  0  0  0  0
  189.5090  174.0960  145.0960 C   0  0  1  0  0  3  0  0  0  0  0  0
  193.4230  176.4270  146.5960 C   0  0  0  0  0  3  0  0  0  0  0  0
  191.6080  174.9360  145.8320 N   0  0  0  0  0  0  0  0  0  0  0  0
  189.2720  176.2480  143.9420 C   0  0  0  0  0  2  0  0  0  0  0  0
  188.1450  177.2200  143.6470 C   0  0  0  0  0  2  0  0  0  0  0  0
  186.3620  177.3620  146.7140 N   0  0  0  0  0  0  0  0  0  0  0  0
  185.9120  176.7660  144.6810 N   0  0  0  0  0  0  0  0  0  0  0  0
  187.1770  177.2100  144.7750 C   0  0  0  0  0  0  0  0  0  0  0  0
  185.4300  176.8780  145.9080 N   0  0  0  0  0  0  0  0  0  0  0  0
  187.4760  177.5760  146.0330 N   0  0  0  0  0  2  0  0  0  0  0  0
  1 27  1  0  0  0  0
  1 26  1  0  0  0  0
  3 16  1  6  0  0  0
  3 19  1  0  0  0  0
  3  7  1  0  0  0  0
  3  6  1  0  0  0  0
  4 18  1  0  0  0  0
  4 23  2  0  0  0  0
  5 11  1  1  0  0  0
  5 19  1  0  0  0  0
  5 15  1  0  0  0  0
  6  7  1  1  0  0  0
  9 25  1  0  0  0  0
  9 27  1  1  0  0  0
 10 17  1  0  0  0  0
 11 20  1  0  0  0  0
 12  8  1  0  0  0  0
 13 24  1  6  0  0  0
 13  9  1  0  0  0  0
 14  2  1  0  0  0  0
 15 12  1  1  0  0  0
 15  4  1  0  0  0  0
 16  8  1  0  0  0  0
 17 25  1  0  0  0  0
 18  1  2  0  0  0  0
 19  6  1  0  0  0  0
 20 13  1  0  0  0  0
 20 18  1  0  0  0  0
 21 26  2  0  0  0  0
 22 10  1  0  0  0  0
 23 21  1  0  0  0  0
 24 22  1  0  0  0  0
 25 14  1  0  0  0  0
 27  2  1  0  0  0  0
 28 17  1  0  0  0  0
 29 28  1  0  0  0  0
 29 32  1  0  0  0  0
 31 32  2  0  0  0  0
 31 33  1  0  0  0  0
 32 34  1  0  0  0  0
 33 30  2  0  0  0  0
 34 30  1  0  0  0  0
M  END
>  <MODEL>
5

>  <REMARK>
 VINA RESULT:      -7.7      2.134      8.111
  Name = 
  3 active torsions:
  status: ('A' for Active; 'I' for Inactive)
    1  A    between atoms: N_17  and  C_28
    2  A    between atoms: C_28  and  C_29
    3  A    between atoms: C_29  and  C_32
                            x       y       z     vdW  Elec       q    Type
                         _______ _______ _______ _____ _____    ______ ____

>  <TORSDO>
F 3

$$$$
=
 OpenBabel11112417503D

 34 42  0  0  1  0  0  0  0  0999 V2000
  191.0170  173.0520  144.0680 C   0  0  0  0  0  0  0  0  0  0  0  0
  192.8470  171.3020  144.2950 C   0  0  0  0  0  2  0  0  0  0  0  0
  187.9380  177.5450  146.0500 C   0  0  2  0  0  0  0  0  0  0  0  0
  189.5750  174.9070  143.4890 C   0  0  0  0  0  0  0  0  0  0  0  0
  189.9360  177.1700  144.5450 N   0  0  1  0  0  0  0  0  0  0  0  0
  188.1470  176.0360  145.9770 C   0  0  2  0  0  3  0  0  0  0  0  0
  187.0770  176.6160  146.8790 C   0  0  0  0  0  2  0  0  0  0  0  0
  186.9340  177.0590  143.6880 C   0  0  0  0  0  2  0  0  0  0  0  0
  193.1140  173.4160  145.4430 C   0  0  2  0  0  3  0  0  0  0  0  0
  195.9600  174.7430  144.8660 C   0  0  0  0  0  2  0  0  0  0  0  0
  191.3620  176.8200  144.6340 C   0  0  0  0  0  2  0  0  0  0  0  0
  188.1230  176.9670  142.7540 C   0  0  0  0  0  2  0  0  0  0  0  0
  193.0280  174.8940  145.0060 C   0  0  1  0  0  3  0  0  0  0  0  0
  194.2460  171.3250  144.8990 C   0  0  0  0  0  2  0  0  0  0  0  0
  189.3790  176.3960  143.4160 C   0  0  2  0  0  3  0  0  0  0  0  0
  187.2100  178.0760  144.7950 C   0  0  0  0  0  2  0  0  0  0  0  0
  195.4480  173.4410  144.3940 N   0  0  0  0  0  0  0  0  0  0  0  0
  190.7100  174.4170  144.1520 C   0  0  0  0  0  0  0  0  0  0  0  0
  189.3470  176.9710  145.8950 C   0  0  2  0  0  3  0  0  0  0  0  0
  191.5590  175.3330  145.0080 C   0  0  2  0  0  3  0  0  0  0  0  0
  189.0490  172.7280  142.7040 C   0  0  0  0  0  3  0  0  0  0  0  0
  195.2990  175.2850  146.1400 C   0  0  0  0  0  2  0  0  0  0  0  0
  188.7830  174.0610  142.7760 N   0  0  0  0  0  0  0  0  0  0  0  0
  193.8780  175.8020  145.9010 C   0  0  0  0  0  2  0  0  0  0  0  0
  194.5060  172.7690  145.3240 C   0  0  1  0  0  3  0  0  0  0  0  0
  190.1760  172.2020  143.3390 C   0  0  0  0  0  3  0  0  0  0  0  0
  192.2310  172.5650  144.6600 N   0  0  0  0  0  0  0  0  0  0  0  0
  194.8860  173.6300  143.0580 C   0  0  0  0  0  2  0  0  0  0  0  0
  195.6170  174.7450  142.3330 C   0  0  0  0  0  2  0  0  0  0  0  0
  194.6780  175.2250  138.9430 N   0  0  0  0  0  0  0  0  0  0  0  0
  195.3160  173.5480  140.1560 N   0  0  0  0  0  0  0  0  0  0  0  0
  195.3020  174.6790  140.8810 C   0  0  0  0  0  0  0  0  0  0  0  0
  194.9250  173.9250  138.9490 N   0  0  0  0  0  2  0  0  0  0  0  0
  194.8990  175.7290  140.1460 N   0  0  0  0  0  0  0  0  0  0  0  0
  1 18  1  0  0  0  0
  1 27  1  0  0  0  0
  2 27  1  0  0  0  0
  2 14  1  0  0  0  0
  3 16  1  6  0  0  0
  3  7  1  0  0  0  0
  4 18  2  0  0  0  0
  5 11  1  1  0  0  0
  5 19  1  0  0  0  0
  6  3  1  0  0  0  0
  6  7  1  1  0  0  0
  8 16  1  0  0  0  0
  9 27  1  6  0  0  0
 10 22  1  0  0  0  0
 11 20  1  0  0  0  0
 12  8  1  0  0  0  0
 13 20  1  0  0  0  0
 13  9  1  0  0  0  0
 13 24  1  1  0  0  0
 14 25  1  0  0  0  0
 15 12  1  1  0  0  0
 15  4  1  0  0  0  0
 15  5  1  0  0  0  0
 17 10  1  0  0  0  0
 17 25  1  0  0  0  0
 18 20  1  0  0  0  0
 19  6  1  0  0  0  0
 19  3  1  0  0  0  0
 21 23  2  0  0  0  0
 21 26  1  0  0  0  0
 23  4  1  0  0  0  0
 24 22  1  0  0  0  0
 25  9  1  0  0  0  0
 26  1  2  0  0  0  0
 28 17  1  0  0  0  0
 29 28  1  0  0  0  0
 30 33  1  0  0  0  0
 30 34  2  0  0  0  0
 31 32  2  0  0  0  0
 32 29  1  0  0  0  0
 33 31  1  0  0  0  0
 34 32  1  0  0  0  0
M  END
>  <MODEL>
6

>  <REMARK>
 VINA RESULT:      -7.6      1.367      1.803
  Name = 
  3 active torsions:
  status: ('A' for Active; 'I' for Inactive)
    1  A    between atoms: N_17  and  C_28
    2  A    between atoms: C_28  and  C_29
    3  A    between atoms: C_29  and  C_32
                            x       y       z     vdW  Elec       q    Type
                         _______ _______ _______ _____ _____    ______ ____

>  <TORSDO>
F 3

$$$$
=
 OpenBabel11112417503D

 34 42  0  0  1  0  0  0  0  0999 V2000
  191.5240  173.2040  143.3460 C   0  0  0  0  0  0  0  0  0  0  0  0
  189.0810  173.0800  142.6510 C   0  0  0  0  0  2  0  0  0  0  0  0
  196.8650  175.4200  142.9530 C   0  0  2  0  0  0  0  0  0  0  0  0
  193.6600  173.4980  144.4450 C   0  0  0  0  0  0  0  0  0  0  0  0
  194.8120  175.7420  144.3940 N   0  0  1  0  0  0  0  0  0  0  0  0
  195.8270  174.4200  142.4550 C   0  0  2  0  0  3  0  0  0  0  0  0
  197.1560  174.5580  141.7420 C   0  0  0  0  0  2  0  0  0  0  0  0
  197.0500  173.6040  144.8210 C   0  0  0  0  0  2  0  0  0  0  0  0
  190.2390  175.1960  142.4490 C   0  0  2  0  0  3  0  0  0  0  0  0
  188.6070  177.5890  143.7910 C   0  0  0  0  0  2  0  0  0  0  0  0
  193.4740  176.3470  144.3260 C   0  0  0  0  0  2  0  0  0  0  0  0
  195.8970  173.8770  145.7650 C   0  0  0  0  0  2  0  0  0  0  0  0
  191.0860  176.0540  143.4130 C   0  0  1  0  0  3  0  0  0  0  0  0
  188.0540  174.1320  142.2540 C   0  0  0  0  0  2  0  0  0  0  0  0
  194.6550  174.4370  145.0690 C   0  0  2  0  0  3  0  0  0  0  0  0
  197.5690  174.9150  144.2310 C   0  0  0  0  0  2  0  0  0  0  0  0
  188.2100  176.1730  143.6640 N   0  0  0  0  0  0  0  0  0  0  0  0
  192.5620  174.0480  143.7670 C   0  0  0  0  0  0  0  0  0  0  0  0
  195.3760  175.7610  143.0190 C   0  0  2  0  0  3  0  0  0  0  0  0
  192.5230  175.5230  143.4270 C   0  0  2  0  0  3  0  0  0  0  0  0
  192.7290  171.3210  144.2620 C   0  0  0  0  0  3  0  0  0  0  0  0
  189.6390  178.0750  142.7650 C   0  0  0  0  0  2  0  0  0  0  0  0
  193.7130  172.1600  144.6860 N   0  0  0  0  0  0  0  0  0  0  0  0
  191.0470  177.5390  143.0350 C   0  0  0  0  0  2  0  0  0  0  0  0
  188.7280  175.4880  142.4530 C   0  0  1  0  0  3  0  0  0  0  0  0
  191.6120  171.8290  143.5950 C   0  0  0  0  0  3  0  0  0  0  0  0
  190.3530  173.7750  142.7430 N   0  0  0  0  0  0  0  0  0  0  0  0
  188.5730  175.4850  144.9010 C   0  0  0  0  0  2  0  0  0  0  0  0
  188.6240  176.4700  146.0540 C   0  0  0  0  0  2  0  0  0  0  0  0
  191.5310  176.5760  148.0890 N   0  0  0  0  0  0  0  0  0  0  0  0
  190.5860  175.1100  146.8060 N   0  0  0  0  0  0  0  0  0  0  0  0
  189.8630  176.2420  146.8440 C   0  0  0  0  0  0  0  0  0  0  0  0
  191.6180  175.3500  147.5970 N   0  0  0  0  0  0  0  0  0  0  0  0
  190.4410  177.1670  147.6290 N   0  0  0  0  0  2  0  0  0  0  0  0
  1 26  2  0  0  0  0
  1 18  1  0  0  0  0
  2 27  1  0  0  0  0
  3  7  1  6  0  0  0
  3 19  1  0  0  0  0
  3 16  1  0  0  0  0
  4 23  1  0  0  0  0
  4 15  1  0  0  0  0
  5 11  1  6  0  0  0
  5 15  1  0  0  0  0
  6  7  1  6  0  0  0
  6  3  1  0  0  0  0
  6 19  1  0  0  0  0
  8 12  1  0  0  0  0
  9 25  1  0  0  0  0
  9 27  1  1  0  0  0
  9 13  1  0  0  0  0
 13 24  1  6  0  0  0
 13 20  1  0  0  0  0
 14 25  1  0  0  0  0
 14  2  1  0  0  0  0
 15 12  1  6  0  0  0
 16  8  1  0  0  0  0
 17 10  1  0  0  0  0
 17 28  1  0  0  0  0
 18  4  2  0  0  0  0
 19  5  1  0  0  0  0
 20 18  1  0  0  0  0
 20 11  1  0  0  0  0
 21 23  2  0  0  0  0
 22 24  1  0  0  0  0
 22 10  1  0  0  0  0
 25 17  1  0  0  0  0
 26 21  1  0  0  0  0
 27  1  1  0  0  0  0
 28 29  1  0  0  0  0
 29 32  1  0  0  0  0
 31 32  2  0  0  0  0
 31 33  1  0  0  0  0
 32 34  1  0  0  0  0
 33 30  2  0  0  0  0
 34 30  1  0  0  0  0
M  END
>  <MODEL>
7

>  <REMARK>
 VINA RESULT:      -7.5      2.213      7.273
  Name = 
  3 active torsions:
  status: ('A' for Active; 'I' for Inactive)
    1  A    between atoms: N_17  and  C_28
    2  A    between atoms: C_28  and  C_29
    3  A    between atoms: C_29  and  C_32
                            x       y       z     vdW  Elec       q    Type
                         _______ _______ _______ _____ _____    ______ ____

>  <TORSDO>
F 3

$$$$
=
 OpenBabel11112417503D

 34 42  0  0  1  0  0  0  0  0999 V2000
  193.4060  175.5630  145.6790 C   0  0  0  0  0  0  0  0  0  0  0  0
  195.8440  175.0670  145.1540 C   0  0  0  0  0  2  0  0  0  0  0  0
  187.9010  176.4740  144.1120 C   0  0  2  0  0  0  0  0  0  0  0  0
  191.0930  175.5730  146.3910 C   0  0  0  0  0  0  0  0  0  0  0  0
  189.3140  174.5420  144.9290 N   0  0  1  0  0  0  0  0  0  0  0  0
  189.3000  177.0330  144.3520 C   0  0  2  0  0  3  0  0  0  0  0  0
  188.2160  177.9140  143.7640 C   0  0  0  0  0  2  0  0  0  0  0  0
  187.8760  176.6630  146.7170 C   0  0  0  0  0  2  0  0  0  0  0  0
  194.1380  174.2170  143.6600 C   0  0  2  0  0  3  0  0  0  0  0  0
  194.5080  171.1020  143.0670 C   0  0  0  0  0  2  0  0  0  0  0  0
  190.3500  173.6210  144.4400 C   0  0  0  0  0  2  0  0  0  0  0  0
  188.6060  175.4330  147.2180 C   0  0  0  0  0  2  0  0  0  0  0  0
  192.8480  173.3950  143.8610 C   0  0  1  0  0  3  0  0  0  0  0  0
  196.5300  174.1670  144.1340 C   0  0  0  0  0  2  0  0  0  0  0  0
  189.7230  174.9620  146.2850 C   0  0  2  0  0  3  0  0  0  0  0  0
  187.1130  176.3360  145.4340 C   0  0  0  0  0  2  0  0  0  0  0  0
  195.3690  171.9840  143.8800 N   0  0  0  0  0  0  0  0  0  0  0  0
  192.0780  175.1570  145.4830 C   0  0  0  0  0  0  0  0  0  0  0  0
  189.1290  175.5910  143.8920 C   0  0  2  0  0  3  0  0  0  0  0  0
  191.7090  174.3380  144.2640 C   0  0  2  0  0  3  0  0  0  0  0  0
  192.7060  176.7900  147.6390 C   0  0  0  0  0  3  0  0  0  0  0  0
  193.6570  171.8130  142.0060 C   0  0  0  0  0  2  0  0  0  0  0  0
  191.4280  176.3640  147.4460 N   0  0  0  0  0  0  0  0  0  0  0  0
  192.4850  172.5930  142.6060 C   0  0  0  0  0  2  0  0  0  0  0  0
  195.4190  173.3970  143.4240 C   0  0  1  0  0  3  0  0  0  0  0  0
  193.7190  176.3890  146.7660 C   0  0  0  0  0  3  0  0  0  0  0  0
  194.4330  175.0570  144.8120 N   0  0  0  0  0  0  0  0  0  0  0  0
  194.9630  171.8560  145.2780 C   0  0  0  0  0  2  0  0  0  0  0  0
  194.3030  170.5090  145.5110 C   0  0  0  0  0  2  0  0  0  0  0  0
  195.7110  168.3820  147.9810 N   0  0  0  0  0  0  0  0  0  0  0  0
  196.4710  169.8300  146.5620 N   0  0  0  0  0  0  0  0  0  0  0  0
  195.1380  169.7060  146.4440 C   0  0  0  0  0  0  0  0  0  0  0  0
  196.7970  168.9870  147.5270 N   0  0  0  0  0  0  0  0  0  0  0  0
  194.6480  168.8170  147.3240 N   0  0  0  0  0  2  0  0  0  0  0  0
  1 26  1  0  0  0  0
  3  7  1  6  0  0  0
  3  6  1  0  0  0  0
  3 16  1  0  0  0  0
  4 23  2  0  0  0  0
  5 11  1  6  0  0  0
  5 15  1  0  0  0  0
  6  7  1  6  0  0  0
  8 12  1  0  0  0  0
  9 13  1  0  0  0  0
  9 27  1  1  0  0  0
 10 17  1  0  0  0  0
 13 24  1  6  0  0  0
 13 20  1  0  0  0  0
 14  2  1  0  0  0  0
 15  4  1  0  0  0  0
 15 12  1  6  0  0  0
 16  8  1  0  0  0  0
 17 28  1  0  0  0  0
 18  1  2  0  0  0  0
 18  4  1  0  0  0  0
 19  3  1  0  0  0  0
 19  6  1  0  0  0  0
 19  5  1  0  0  0  0
 20 11  1  0  0  0  0
 20 18  1  0  0  0  0
 22 24  1  0  0  0  0
 22 10  1  0  0  0  0
 23 21  1  0  0  0  0
 25  9  1  0  0  0  0
 25 17  1  0  0  0  0
 25 14  1  0  0  0  0
 26 21  2  0  0  0  0
 27  2  1  0  0  0  0
 27  1  1  0  0  0  0
 28 29  1  0  0  0  0
 29 32  1  0  0  0  0
 31 33  1  0  0  0  0
 32 31  2  0  0  0  0
 32 34  1  0  0  0  0
 33 30  2  0  0  0  0
 34 30  1  0  0  0  0
M  END
>  <MODEL>
8

>  <REMARK>
 VINA RESULT:      -7.4      2.849      5.494
  Name = 
  3 active torsions:
  status: ('A' for Active; 'I' for Inactive)
    1  A    between atoms: N_17  and  C_28
    2  A    between atoms: C_28  and  C_29
    3  A    between atoms: C_29  and  C_32
                            x       y       z     vdW  Elec       q    Type
                         _______ _______ _______ _____ _____    ______ ____

>  <TORSDO>
F 3

$$$$
=
 OpenBabel11112417503D

 34 42  0  0  1  0  0  0  0  0999 V2000
  192.9190  175.0220  143.4550 C   0  0  0  0  0  0  0  0  0  0  0  0
  193.6090  176.4410  145.4490 C   0  0  0  0  0  2  0  0  0  0  0  0
  190.8160  170.1620  141.0980 C   0  0  2  0  0  0  0  0  0  0  0  0
  191.8950  174.0170  141.5060 C   0  0  0  0  0  0  0  0  0  0  0  0
  189.9450  172.4390  141.7710 N   0  0  1  0  0  0  0  0  0  0  0  0
  192.0110  170.9400  141.6390 C   0  0  2  0  0  3  0  0  0  0  0  0
  192.1660  169.4890  141.2300 C   0  0  0  0  0  2  0  0  0  0  0  0
  191.3120  171.7140  139.0570 C   0  0  0  0  0  2  0  0  0  0  0  0
  191.8460  174.8080  145.7420 C   0  0  2  0  0  3  0  0  0  0  0  0
  189.2580  176.0700  147.1210 C   0  0  0  0  0  2  0  0  0  0  0  0
  189.5900  173.1950  142.9810 C   0  0  0  0  0  2  0  0  0  0  0  0
  190.6730  173.0450  139.3970 C   0  0  0  0  0  2  0  0  0  0  0  0
  190.5340  174.4970  144.9900 C   0  0  1  0  0  3  0  0  0  0  0  0
  193.0310  176.6320  146.8450 C   0  0  0  0  0  2  0  0  0  0  0  0
  190.6860  173.3670  140.8920 C   0  0  2  0  0  3  0  0  0  0  0  0
  190.4880  170.5690  139.6450 C   0  0  0  0  0  2  0  0  0  0  0  0
  190.5470  176.7280  146.8260 N   0  0  0  0  0  0  0  0  0  0  0  0
  191.8950  174.2470  142.8900 C   0  0  0  0  0  0  0  0  0  0  0  0
  190.6220  171.1920  142.2120 C   0  0  2  0  0  3  0  0  0  0  0  0
  190.8470  173.6120  143.7790 C   0  0  2  0  0  3  0  0  0  0  0  0
  193.8970  175.2710  141.2610 C   0  0  0  0  0  3  0  0  0  0  0  0
  189.3160  174.5420  147.2520 C   0  0  0  0  0  2  0  0  0  0  0  0
  192.8810  174.5400  140.7270 N   0  0  0  0  0  0  0  0  0  0  0  0
  189.4990  173.8350  145.9070 C   0  0  0  0  0  2  0  0  0  0  0  0
  191.7300  175.8320  146.8850 C   0  0  1  0  0  3  0  0  0  0  0  0
  193.9280  175.5350  142.6320 C   0  0  0  0  0  3  0  0  0  0  0  0
  192.8670  175.3440  144.8540 N   0  0  0  0  0  0  0  0  0  0  0  0
  190.4240  177.4180  145.5430 C   0  0  0  0  0  2  0  0  0  0  0  0
  188.9730  177.7730  145.2760 C   0  0  0  0  0  2  0  0  0  0  0  0
  187.4870  176.0590  142.5450 N   0  0  0  0  0  0  0  0  0  0  0  0
  189.2570  177.2710  142.8400 N   0  0  0  0  0  0  0  0  0  0  0  0
  188.5510  177.1780  143.9800 C   0  0  0  0  0  0  0  0  0  0  0  0
  188.5630  176.5650  141.9630 N   0  0  0  0  0  0  0  0  0  0  0  0
  187.4530  176.4210  143.8170 N   0  0  0  0  0  2  0  0  0  0  0  0
  1 27  1  0  0  0  0
  2 14  1  0  0  0  0
  3 16  1  6  0  0  0
  3  7  1  0  0  0  0
  3  6  1  0  0  0  0
  3 19  1  0  0  0  0
  4 18  2  0  0  0  0
  5 19  1  0  0  0  0
  5 11  1  1  0  0  0
  6  7  1  1  0  0  0
  6 19  1  0  0  0  0
  8 12  1  0  0  0  0
  8 16  1  0  0  0  0
  9 27  1  6  0  0  0
  9 25  1  0  0  0  0
 10 22  1  0  0  0  0
 11 20  1  0  0  0  0
 13  9  1  0  0  0  0
 13 24  1  1  0  0  0
 14 25  1  0  0  0  0
 15 12  1  6  0  0  0
 15  4  1  0  0  0  0
 15  5  1  0  0  0  0
 17 25  1  0  0  0  0
 17 10  1  0  0  0  0
 18  1  1  0  0  0  0
 18 20  1  0  0  0  0
 20 13  1  0  0  0  0
 21 26  1  0  0  0  0
 23 21  2  0  0  0  0
 23  4  1  0  0  0  0
 24 22  1  0  0  0  0
 26  1  2  0  0  0  0
 27  2  1  0  0  0  0
 28 17  1  0  0  0  0
 29 28  1  0  0  0  0
 30 34  1  0  0  0  0
 31 32  2  0  0  0  0
 32 29  1  0  0  0  0
 33 30  2  0  0  0  0
 33 31  1  0  0  0  0
 34 32  1  0  0  0  0
M  END
>  <MODEL>
9

>  <REMARK>
 VINA RESULT:      -7.3      2.268      6.446
  Name = 
  3 active torsions:
  status: ('A' for Active; 'I' for Inactive)
    1  A    between atoms: N_17  and  C_28
    2  A    between atoms: C_28  and  C_29
    3  A    between atoms: C_29  and  C_32
                            x       y       z     vdW  Elec       q    Type
                         _______ _______ _______ _____ _____    ______ ____

>  <TORSDO>
F 3

$$$$
