=
 OpenBabel11112417083D

 37 44  0  0  1  0  0  0  0  0999 V2000
  190.8410  173.0790  141.1550 C   0  0  0  0  0  2  0  0  0  0  0  0
  193.8840  173.5600  144.7070 C   0  0  0  0  0  0  0  0  0  0  0  0
  190.0410  175.2460  145.2130 C   0  0  0  0  0  0  0  0  0  0  0  0
  191.2500  172.9900  139.6910 C   0  0  2  0  0  3  0  0  0  0  0  0
  187.3920  175.0680  142.5050 C   0  0  0  0  0  2  0  0  0  0  0  0
  192.2160  174.7310  146.1570 C   0  0  0  0  0  0  0  0  0  0  0  0
  189.5460  175.2390  143.9790 C   0  0  0  0  0  0  0  0  0  0  0  0
  188.7470  173.3990  139.2560 C   0  0  2  0  0  3  0  0  0  0  0  0
  191.3680  174.7370  145.1590 C   0  0  0  0  0  0  0  0  0  0  0  0
  188.1940  175.7750  143.5940 C   0  0  0  0  0  0  0  0  0  0  0  0
  191.7470  175.2400  147.4670 C   0  0  0  0  0  3  0  0  0  0  0  0
  190.1830  173.5440  138.7460 C   0  0  0  0  0  2  0  0  0  0  0  0
  191.6920  174.3990  143.8230 C   0  0  0  0  0  0  0  0  0  0  0  0
  193.6250  172.0790  144.9170 C   0  0  0  0  0  1  0  0  0  0  0  0
  189.0990  177.2310  146.2540 C   0  0  0  0  0  3  0  0  0  0  0  0
  190.4890  175.7220  147.6130 C   0  0  0  0  0  3  0  0  0  0  0  0
  193.0970  174.0330  143.4510 C   0  0  0  0  0  2  0  0  0  0  0  0
  188.2610  174.5300  140.1820 C   0  0  1  0  0  3  0  0  0  0  0  0
  188.2610  174.2190  141.6040 C   0  0  1  0  0  3  0  0  0  0  0  0
  189.4680  175.8040  146.4750 C   0  0  2  0  0  3  0  0  0  0  0  0
  190.6230  174.6810  143.0740 C   0  0  0  0  0  0  0  0  0  0  0  0
  193.5230  174.2770  145.9140 O   0  0  0  0  0  0  0  0  0  0  0  0
  187.6400  176.8640  144.2050 C   0  0  0  0  0  0  0  0  0  0  0  0
  195.3630  173.7500  144.4490 C   0  0  0  0  0  1  0  0  0  0  0  0
  189.3000  175.1280  141.0700 N   0  0  1  0  0  0  0  0  0  0  0  0
  188.4610  172.1180  139.7410 O   0  0  0  0  0  1  0  0  0  0  0  0
  190.5550  174.5260  141.5700 C   0  0  2  0  0  3  0  0  0  0  0  0
  188.2910  177.6600  145.2820 C   0  0  0  0  0  3  0  0  0  0  0  0
  185.3860  177.8390  144.6560 C   0  0  0  0  0  3  0  0  0  0  0  0
  186.3610  177.4430  143.7280 C   0  0  0  0  0  0  0  0  0  0  0  0
  186.1310  177.6600  142.3600 C   0  0  0  0  0  3  0  0  0  0  0  0
  184.7080  178.4460  140.5390 N   0  0  0  0  0  1  0  0  0  0  0  0
  183.9640  178.6170  142.8580 C   0  0  0  0  0  3  0  0  0  0  0  0
  184.9350  178.2380  141.9270 C   0  0  0  0  0  0  0  0  0  0  0  0
  184.1910  178.4190  144.2230 C   0  0  0  0  0  3  0  0  0  0  0  0
  191.4280  170.7320  140.4480 O   0  0  0  0  0  1  0  0  0  0  0  0
  191.5620  171.5490  139.3250 C   0  0  0  0  0  2  0  0  0  0  0  0
  1 27  1  0  0  0  0
  2 14  1  0  0  0  0
  2 22  1  0  0  0  0
  3 20  1  0  0  0  0
  4 37  1  6  0  0  0
  4  1  1  0  0  0  0
  5 10  1  0  0  0  0
  6 11  1  0  0  0  0
  7  3  2  0  0  0  0
  8 26  1  1  0  0  0
  8 18  1  0  0  0  0
  9  3  1  0  0  0  0
  9  6  2  0  0  0  0
 10  7  1  0  0  0  0
 10 23  2  0  0  0  0
 11 16  2  0  0  0  0
 12  8  1  0  0  0  0
 12  4  1  0  0  0  0
 13  9  1  0  0  0  0
 15 20  1  0  0  0  0
 17 13  1  0  0  0  0
 17  2  1  0  0  0  0
 18 25  1  0  0  0  0
 18 19  1  0  0  0  0
 19  5  1  0  0  0  0
 20 16  1  0  0  0  0
 21 13  2  0  0  0  0
 21  7  1  0  0  0  0
 22  6  1  0  0  0  0
 23 28  1  0  0  0  0
 24  2  1  0  0  0  0
 25 27  1  0  0  0  0
 25 19  1  0  0  0  0
 27 21  1  0  0  0  0
 28 15  2  0  0  0  0
 30 23  1  0  0  0  0
 30 29  2  0  0  0  0
 31 30  1  0  0  0  0
 32 34  1  0  0  0  0
 33 35  2  0  0  0  0
 34 31  2  0  0  0  0
 34 33  1  0  0  0  0
 35 29  1  0  0  0  0
 37 36  1  0  0  0  0
M  END
>  <MODEL>
1

>  <REMARK>
 VINA RESULT:      -9.3      0.000      0.000
  Name = 
  2 active torsions:
  status: ('A' for Active; 'I' for Inactive)
    1  A    between atoms: C_4  and  C_37
    2  A    between atoms: C_23  and  C_30
                            x       y       z     vdW  Elec       q    Type
                         _______ _______ _______ _____ _____    ______ ____

>  <TORSDO>
F 2

$$$$
=
 OpenBabel11112417083D

 37 44  0  0  1  0  0  0  0  0999 V2000
  190.1970  174.5200  143.3940 C   0  0  0  0  0  2  0  0  0  0  0  0
  191.3590  176.7010  147.3950 C   0  0  0  0  0  0  0  0  0  0  0  0
  187.5120  177.4700  145.8220 C   0  0  0  0  0  0  0  0  0  0  0  0
  191.1990  174.1280  142.3180 C   0  0  2  0  0  3  0  0  0  0  0  0
  186.3100  175.9030  142.5840 C   0  0  0  0  0  2  0  0  0  0  0  0
  189.1160  177.7860  147.6150 C   0  0  0  0  0  0  0  0  0  0  0  0
  187.5950  176.9980  144.5810 C   0  0  0  0  0  0  0  0  0  0  0  0
  189.0940  173.7760  140.8800 C   0  0  2  0  0  3  0  0  0  0  0  0
  188.7800  177.3060  146.4430 C   0  0  0  0  0  0  0  0  0  0  0  0
  186.4880  177.0590  143.5640 C   0  0  0  0  0  0  0  0  0  0  0  0
  188.0810  178.5100  148.3880 C   0  0  0  0  0  3  0  0  0  0  0  0
  190.5850  174.1190  140.9170 C   0  0  0  0  0  2  0  0  0  0  0  0
  189.6790  176.6980  145.5330 C   0  0  0  0  0  0  0  0  0  0  0  0
  191.1960  175.3210  148.0060 C   0  0  0  0  0  1  0  0  0  0  0  0
  186.0090  179.3740  145.6670 C   0  0  0  0  0  3  0  0  0  0  0  0
  186.8370  178.6910  147.8810 C   0  0  0  0  0  3  0  0  0  0  0  0
  191.1380  176.5970  145.8580 C   0  0  0  0  0  2  0  0  0  0  0  0
  188.1400  174.9670  141.0970 C   0  0  1  0  0  3  0  0  0  0  0  0
  187.5660  175.0740  142.4290 C   0  0  1  0  0  3  0  0  0  0  0  0
  186.3980  178.2010  146.4990 C   0  0  2  0  0  3  0  0  0  0  0  0
  189.0090  176.4910  144.3970 C   0  0  0  0  0  0  0  0  0  0  0  0
  190.4420  177.6150  148.0460 O   0  0  0  0  0  0  0  0  0  0  0  0
  185.6130  178.1060  143.5000 C   0  0  0  0  0  0  0  0  0  0  0  0
  192.7760  177.1660  147.6490 C   0  0  0  0  0  1  0  0  0  0  0  0
  188.6290  176.0230  142.0290 N   0  0  1  0  0  0  0  0  0  0  0  0
  188.7670  172.6520  141.6470 O   0  0  0  0  0  1  0  0  0  0  0  0
  189.6070  175.9090  143.1330 C   0  0  2  0  0  3  0  0  0  0  0  0
  185.6530  179.3040  144.3820 C   0  0  0  0  0  3  0  0  0  0  0  0
  185.0180  178.1330  141.0760 C   0  0  0  0  0  3  0  0  0  0  0  0
  184.6070  178.1990  142.4150 C   0  0  0  0  0  0  0  0  0  0  0  0
  183.2360  178.2910  142.7060 C   0  0  0  0  0  3  0  0  0  0  0  0
  180.9110  178.4450  141.9800 N   0  0  0  0  0  1  0  0  0  0  0  0
  182.7150  178.2910  140.3430 C   0  0  0  0  0  3  0  0  0  0  0  0
  182.2960  178.3440  141.6750 C   0  0  0  0  0  0  0  0  0  0  0  0
  184.0770  178.1840  140.0440 C   0  0  0  0  0  3  0  0  0  0  0  0
  192.3140  172.1950  141.4670 O   0  0  0  0  0  1  0  0  0  0  0  0
  191.7890  172.7640  142.6290 C   0  0  0  0  0  2  0  0  0  0  0  0
  2 24  1  0  0  0  0
  2 14  1  0  0  0  0
  2 22  1  0  0  0  0
  3  9  1  0  0  0  0
  3 20  1  0  0  0  0
  4 37  1  1  0  0  0
  4  1  1  0  0  0  0
  5 10  1  0  0  0  0
  6 22  1  0  0  0  0
  6 11  1  0  0  0  0
  7  3  2  0  0  0  0
  8 12  1  0  0  0  0
  8 18  1  0  0  0  0
  8 26  1  1  0  0  0
  9  6  2  0  0  0  0
 10  7  1  0  0  0  0
 12  4  1  0  0  0  0
 13 17  1  0  0  0  0
 13  9  1  0  0  0  0
 15 20  1  0  0  0  0
 16 11  2  0  0  0  0
 17  2  1  0  0  0  0
 18 25  1  0  0  0  0
 18 19  1  0  0  0  0
 19  5  1  0  0  0  0
 20 16  1  0  0  0  0
 21  7  1  0  0  0  0
 21 13  2  0  0  0  0
 23 10  2  0  0  0  0
 23 28  1  0  0  0  0
 25 19  1  0  0  0  0
 25 27  1  0  0  0  0
 27  1  1  0  0  0  0
 27 21  1  0  0  0  0
 28 15  2  0  0  0  0
 29 30  1  0  0  0  0
 30 31  2  0  0  0  0
 30 23  1  0  0  0  0
 33 34  2  0  0  0  0
 34 32  1  0  0  0  0
 34 31  1  0  0  0  0
 35 33  1  0  0  0  0
 35 29  2  0  0  0  0
 36 37  1  0  0  0  0
M  END
>  <MODEL>
2

>  <REMARK>
 VINA RESULT:      -9.2      1.977      3.390
  Name = 
  2 active torsions:
  status: ('A' for Active; 'I' for Inactive)
    1  A    between atoms: C_4  and  C_37
    2  A    between atoms: C_23  and  C_30
                            x       y       z     vdW  Elec       q    Type
                         _______ _______ _______ _____ _____    ______ ____

>  <TORSDO>
F 2

$$$$
=
 OpenBabel11112417083D

 37 44  0  0  1  0  0  0  0  0999 V2000
  193.7250  174.8150  144.0970 C   0  0  0  0  0  2  0  0  0  0  0  0
  192.9010  171.7200  140.6540 C   0  0  0  0  0  0  0  0  0  0  0  0
  189.8430  174.5070  141.5200 C   0  0  0  0  0  0  0  0  0  0  0  0
  194.6130  174.5320  145.3000 C   0  0  2  0  0  3  0  0  0  0  0  0
  190.1930  177.0890  144.2760 C   0  0  0  0  0  2  0  0  0  0  0  0
  190.6650  172.7050  140.1180 C   0  0  0  0  0  0  0  0  0  0  0  0
  190.2150  175.0050  142.6950 C   0  0  1  0  0  3  0  0  0  0  0  0
  193.5210  176.6580  146.2540 C   0  0  2  0  0  3  0  0  0  0  0  0
  190.7850  173.5100  141.1440 C   0  0  0  0  0  0  0  0  0  0  0  0
  189.4390  176.0290  143.4770 C   0  0  0  0  0  0  0  0  0  0  0  0
  189.4850  172.8760  139.2390 C   0  0  0  0  0  3  0  0  0  0  0  0
  194.1830  175.3090  146.5450 C   0  0  0  0  0  2  0  0  0  0  0  0
  191.7840  173.4020  142.1420 C   0  0  0  0  0  0  0  0  0  0  0  0
  193.9020  172.5580  139.8800 C   0  0  0  0  0  1  0  0  0  0  0  0
  187.4130  174.5100  141.5800 C   0  0  0  0  0  3  0  0  0  0  0  0
  188.5490  173.8180  139.5100 C   0  0  0  0  0  3  0  0  0  0  0  0
  192.7840  172.2870  142.0990 C   0  0  0  0  0  2  0  0  0  0  0  0
  192.0050  176.6020  145.9830 C   0  0  1  0  0  3  0  0  0  0  0  0
  191.6170  176.6790  144.5830 C   0  0  1  0  0  3  0  0  0  0  0  0
  188.6050  174.7540  140.7200 C   0  0  0  0  0  0  0  0  0  0  0  0
  191.4840  174.2860  143.0970 C   0  0  0  0  0  0  0  0  0  0  0  0
  191.6410  171.7100  139.9380 O   0  0  0  0  0  0  0  0  0  0  0  0
  188.0730  176.0630  143.4810 C   0  0  0  0  0  0  0  0  0  0  0  0
  193.4290  170.3040  140.7330 C   0  0  0  0  0  1  0  0  0  0  0  0
  191.5210  175.3780  145.2820 N   0  0  1  0  0  0  0  0  0  0  0  0
  194.2270  177.4290  145.3230 O   0  0  0  0  0  1  0  0  0  0  0  0
  192.2620  174.4660  144.3840 C   0  0  2  0  0  3  0  0  0  0  0  0
  187.1960  175.1040  142.7560 C   0  0  0  0  0  3  0  0  0  0  0  0
  186.8030  178.1870  143.8100 C   0  0  0  0  0  3  0  0  0  0  0  0
  187.3320  177.0060  144.3520 C   0  0  0  0  0  0  0  0  0  0  0  0
  187.0950  176.7080  145.7040 C   0  0  0  0  0  3  0  0  0  0  0  0
  186.1380  177.2830  147.8750 N   0  0  0  0  0  1  0  0  0  0  0  0
  185.8540  178.7710  145.9600 C   0  0  0  0  0  3  0  0  0  0  0  0
  186.3650  177.5900  146.5050 C   0  0  0  0  0  0  0  0  0  0  0  0
  186.0720  179.0680  144.6110 C   0  0  0  0  0  3  0  0  0  0  0  0
  196.9130  174.0700  145.7430 O   0  0  0  0  0  1  0  0  0  0  0  0
  196.0590  174.8550  144.9670 C   0  0  0  0  0  2  0  0  0  0  0  0
  1 27  1  0  0  0  0
  1  4  1  0  0  0  0
  2 24  1  0  0  0  0
  2 17  1  0  0  0  0
  4 37  1  6  0  0  0
  4 12  1  0  0  0  0
  5 19  1  0  0  0  0
  6  9  1  0  0  0  0
  7  3  1  1  0  0  0
  7 21  1  0  0  0  0
  7 10  1  0  0  0  0
  8 26  1  6  0  0  0
  8 12  1  0  0  0  0
  9  3  2  0  0  0  0
  9 13  1  0  0  0  0
 10 23  2  0  0  0  0
 10  5  1  0  0  0  0
 11 16  1  0  0  0  0
 11  6  2  0  0  0  0
 13 21  2  0  0  0  0
 14  2  1  0  0  0  0
 15 28  2  0  0  0  0
 16 20  2  0  0  0  0
 17 13  1  0  0  0  0
 18  8  1  0  0  0  0
 19 25  1  0  0  0  0
 19 18  1  0  0  0  0
 20  3  1  0  0  0  0
 20 15  1  0  0  0  0
 21 27  1  0  0  0  0
 22  6  1  0  0  0  0
 22  2  1  0  0  0  0
 23 30  1  0  0  0  0
 25 18  1  0  0  0  0
 27 25  1  0  0  0  0
 28 23  1  0  0  0  0
 29 30  2  0  0  0  0
 29 35  1  0  0  0  0
 30 31  1  0  0  0  0
 31 34  2  0  0  0  0
 33 34  1  0  0  0  0
 34 32  1  0  0  0  0
 35 33  2  0  0  0  0
 37 36  1  0  0  0  0
M  END
>  <MODEL>
3

>  <REMARK>
 VINA RESULT:      -9.1      2.208      5.548
  Name = 
  2 active torsions:
  status: ('A' for Active; 'I' for Inactive)
    1  A    between atoms: C_4  and  C_37
    2  A    between atoms: C_23  and  C_30
                            x       y       z     vdW  Elec       q    Type
                         _______ _______ _______ _____ _____    ______ ____

>  <TORSDO>
F 2

$$$$
=
 OpenBabel11112417083D

 37 44  0  0  1  0  0  0  0  0999 V2000
  193.7820  174.8810  144.0650 C   0  0  0  0  0  2  0  0  0  0  0  0
  192.9620  171.8130  140.5970 C   0  0  0  0  0  0  0  0  0  0  0  0
  189.8710  174.5380  141.5370 C   0  0  0  0  0  0  0  0  0  0  0  0
  194.6900  174.5990  145.2530 C   0  0  2  0  0  3  0  0  0  0  0  0
  190.2150  177.0930  144.3180 C   0  0  0  0  0  2  0  0  0  0  0  0
  190.7030  172.7660  140.1030 C   0  0  0  0  0  0  0  0  0  0  0  0
  190.2500  175.0280  142.7130 C   0  0  1  0  0  3  0  0  0  0  0  0
  193.5770  176.6950  146.2460 C   0  0  2  0  0  3  0  0  0  0  0  0
  190.8230  173.5620  141.1370 C   0  0  0  0  0  0  0  0  0  0  0  0
  189.4680  176.0300  143.5180 C   0  0  0  0  0  0  0  0  0  0  0  0
  189.5090  172.9280  139.2420 C   0  0  0  0  0  3  0  0  0  0  0  0
  194.2650  175.3540  146.5130 C   0  0  0  0  0  2  0  0  0  0  0  0
  191.8380  173.4580  142.1190 C   0  0  0  0  0  0  0  0  0  0  0  0
  193.9380  172.6770  139.8200 C   0  0  0  0  0  1  0  0  0  0  0  0
  187.4420  174.4990  141.6300 C   0  0  0  0  0  3  0  0  0  0  0  0
  188.5610  173.8510  139.5370 C   0  0  0  0  0  3  0  0  0  0  0  0
  192.8560  172.3610  142.0500 C   0  0  0  0  0  2  0  0  0  0  0  0
  192.0590  176.6170  145.9960 C   0  0  1  0  0  3  0  0  0  0  0  0
  191.6490  176.7040  144.6020 C   0  0  1  0  0  3  0  0  0  0  0  0
  188.6180  174.7730  140.7570 C   0  0  0  0  0  0  0  0  0  0  0  0
  191.5370  174.3250  143.0890 C   0  0  0  0  0  0  0  0  0  0  0  0
  191.6930  171.7900  139.8980 O   0  0  0  0  0  0  0  0  0  0  0  0
  188.1020  176.0410  143.5400 C   0  0  0  0  0  0  0  0  0  0  0  0
  193.5150  170.4050  140.6520 C   0  0  0  0  0  1  0  0  0  0  0  0
  191.5850  175.3930  145.2860 N   0  0  1  0  0  0  0  0  0  0  0  0
  194.2570  177.4890  145.3150 O   0  0  0  0  0  1  0  0  0  0  0  0
  192.3280  174.5040  144.3680 C   0  0  2  0  0  3  0  0  0  0  0  0
  187.2310  175.0750  142.8150 C   0  0  0  0  0  3  0  0  0  0  0  0
  187.3080  176.7070  145.8110 C   0  0  0  0  0  3  0  0  0  0  0  0
  187.3570  176.9610  144.4320 C   0  0  0  0  0  0  0  0  0  0  0  0
  186.7470  178.1210  143.9280 C   0  0  0  0  0  3  0  0  0  0  0  0
  185.4540  180.1650  144.2640 N   0  0  0  0  0  1  0  0  0  0  0  0
  186.0210  178.7290  146.1560 C   0  0  0  0  0  3  0  0  0  0  0  0
  186.0760  178.9970  144.7850 C   0  0  0  0  0  0  0  0  0  0  0  0
  186.6390  177.5850  146.6690 C   0  0  0  0  0  3  0  0  0  0  0  0
  197.0040  174.1630  145.6510 O   0  0  0  0  0  1  0  0  0  0  0  0
  196.1260  174.9500  144.9040 C   0  0  0  0  0  2  0  0  0  0  0  0
  1 27  1  0  0  0  0
  1  4  1  0  0  0  0
  2 24  1  0  0  0  0
  2 17  1  0  0  0  0
  4 37  1  6  0  0  0
  4 12  1  0  0  0  0
  5 19  1  0  0  0  0
  6  9  1  0  0  0  0
  7  3  1  1  0  0  0
  7 21  1  0  0  0  0
  7 10  1  0  0  0  0
  8 26  1  6  0  0  0
  8 12  1  0  0  0  0
  9  3  2  0  0  0  0
  9 13  1  0  0  0  0
 10 23  2  0  0  0  0
 10  5  1  0  0  0  0
 11 16  1  0  0  0  0
 11  6  2  0  0  0  0
 13 21  2  0  0  0  0
 14  2  1  0  0  0  0
 15 28  2  0  0  0  0
 16 20  2  0  0  0  0
 17 13  1  0  0  0  0
 18  8  1  0  0  0  0
 19 25  1  0  0  0  0
 19 18  1  0  0  0  0
 20  3  1  0  0  0  0
 20 15  1  0  0  0  0
 21 27  1  0  0  0  0
 22  6  1  0  0  0  0
 22  2  1  0  0  0  0
 23 30  1  0  0  0  0
 25 18  1  0  0  0  0
 27 25  1  0  0  0  0
 28 23  1  0  0  0  0
 29 35  1  0  0  0  0
 30 29  2  0  0  0  0
 31 30  1  0  0  0  0
 31 34  2  0  0  0  0
 32 34  1  0  0  0  0
 33 35  2  0  0  0  0
 34 33  1  0  0  0  0
 37 36  1  0  0  0  0
M  END
>  <MODEL>
4

>  <REMARK>
 VINA RESULT:      -9.1      1.955      5.434
  Name = 
  2 active torsions:
  status: ('A' for Active; 'I' for Inactive)
    1  A    between atoms: C_4  and  C_37
    2  A    between atoms: C_23  and  C_30
                            x       y       z     vdW  Elec       q    Type
                         _______ _______ _______ _____ _____    ______ ____

>  <TORSDO>
F 2

$$$$
=
 OpenBabel11112417083D

 37 44  0  0  1  0  0  0  0  0999 V2000
  191.1630  173.4430  140.9700 C   0  0  0  0  0  2  0  0  0  0  0  0
  195.2780  174.4130  143.0300 C   0  0  0  0  0  0  0  0  0  0  0  0
  191.7670  175.4650  145.1360 C   0  0  0  0  0  0  0  0  0  0  0  0
  190.9520  173.4160  139.4630 C   0  0  2  0  0  3  0  0  0  0  0  0
  188.3060  174.8600  143.7100 C   0  0  0  0  0  2  0  0  0  0  0  0
  194.1890  175.3060  145.0960 C   0  0  0  0  0  0  0  0  0  0  0  0
  190.8210  175.3760  144.2060 C   0  0  0  0  0  0  0  0  0  0  0  0
  188.4570  173.4200  140.0940 C   0  0  2  0  0  3  0  0  0  0  0  0
  193.0170  175.1750  144.5240 C   0  0  0  0  0  0  0  0  0  0  0  0
  189.3670  175.6890  144.4290 C   0  0  0  0  0  0  0  0  0  0  0  0
  194.2210  175.7370  146.5130 C   0  0  0  0  0  3  0  0  0  0  0  0
  189.5250  173.7910  139.0610 C   0  0  0  0  0  2  0  0  0  0  0  0
  192.8190  174.8890  143.1520 C   0  0  0  0  0  0  0  0  0  0  0  0
  195.3470  172.9100  143.2330 C   0  0  0  0  0  1  0  0  0  0  0  0
  191.0480  177.2770  146.5880 C   0  0  0  0  0  3  0  0  0  0  0  0
  193.0740  176.0130  147.1800 C   0  0  0  0  0  3  0  0  0  0  0  0
  193.9890  174.7500  142.2260 C   0  0  0  0  0  2  0  0  0  0  0  0
  188.2280  174.4620  141.2050 C   0  0  1  0  0  3  0  0  0  0  0  0
  188.8500  174.1580  142.4850 C   0  0  1  0  0  3  0  0  0  0  0  0
  191.6800  175.9280  146.5540 C   0  0  2  0  0  3  0  0  0  0  0  0
  191.5090  174.9950  142.9120 C   0  0  0  0  0  0  0  0  0  0  0  0
  195.3360  175.0660  144.3220 O   0  0  0  0  0  0  0  0  0  0  0  0
  188.9540  176.6770  145.2770 C   0  0  0  0  0  0  0  0  0  0  0  0
  196.4800  174.8350  142.2140 C   0  0  0  0  0  1  0  0  0  0  0  0
  189.4370  175.2200  141.6380 N   0  0  1  0  0  0  0  0  0  0  0  0
  188.5840  172.1110  140.5720 O   0  0  0  0  0  1  0  0  0  0  0  0
  190.8600  174.8260  141.5550 C   0  0  2  0  0  3  0  0  0  0  0  0
  189.8620  177.5690  146.0490 C   0  0  0  0  0  3  0  0  0  0  0  0
  186.7200  176.4300  146.3620 C   0  0  0  0  0  3  0  0  0  0  0  0
  187.5230  177.0440  145.3890 C   0  0  0  0  0  0  0  0  0  0  0  0
  186.9660  178.0430  144.5750 C   0  0  0  0  0  3  0  0  0  0  0  0
  185.0670  179.4110  143.8790 N   0  0  0  0  0  1  0  0  0  0  0  0
  184.8280  177.7760  145.6770 C   0  0  0  0  0  3  0  0  0  0  0  0
  185.6230  178.4030  144.7140 C   0  0  0  0  0  0  0  0  0  0  0  0
  185.3770  176.7910  146.5020 C   0  0  0  0  0  3  0  0  0  0  0  0
  191.7720  171.2240  139.9400 O   0  0  0  0  0  1  0  0  0  0  0  0
  191.2970  172.0430  138.9140 C   0  0  0  0  0  2  0  0  0  0  0  0
  1 27  1  0  0  0  0
  2 14  1  0  0  0  0
  2 22  1  0  0  0  0
  3 20  1  0  0  0  0
  4 37  1  1  0  0  0
  4  1  1  0  0  0  0
  5 10  1  0  0  0  0
  6 11  1  0  0  0  0
  7 10  1  0  0  0  0
  7  3  2  0  0  0  0
  8 26  1  1  0  0  0
  8 18  1  0  0  0  0
  9  6  2  0  0  0  0
  9  3  1  0  0  0  0
 10 23  2  0  0  0  0
 11 16  2  0  0  0  0
 12  4  1  0  0  0  0
 12  8  1  0  0  0  0
 13  9  1  0  0  0  0
 17  2  1  0  0  0  0
 17 13  1  0  0  0  0
 18 25  1  0  0  0  0
 18 19  1  0  0  0  0
 19  5  1  0  0  0  0
 20 15  1  0  0  0  0
 20 16  1  0  0  0  0
 21 13  2  0  0  0  0
 21  7  1  0  0  0  0
 22  6  1  0  0  0  0
 23 30  1  0  0  0  0
 23 28  1  0  0  0  0
 24  2  1  0  0  0  0
 25 19  1  0  0  0  0
 27 25  1  0  0  0  0
 27 21  1  0  0  0  0
 28 15  2  0  0  0  0
 29 35  1  0  0  0  0
 30 29  2  0  0  0  0
 31 34  2  0  0  0  0
 31 30  1  0  0  0  0
 32 34  1  0  0  0  0
 33 35  2  0  0  0  0
 34 33  1  0  0  0  0
 37 36  1  0  0  0  0
M  END
>  <MODEL>
5

>  <REMARK>
 VINA RESULT:      -8.8      1.475      1.950
  Name = 
  2 active torsions:
  status: ('A' for Active; 'I' for Inactive)
    1  A    between atoms: C_4  and  C_37
    2  A    between atoms: C_23  and  C_30
                            x       y       z     vdW  Elec       q    Type
                         _______ _______ _______ _____ _____    ______ ____

>  <TORSDO>
F 2

$$$$
=
 OpenBabel11112417083D

 37 44  0  0  1  0  0  0  0  0999 V2000
  189.7780  174.1660  140.5150 C   0  0  0  0  0  2  0  0  0  0  0  0
  187.0700  176.9560  143.1590 C   0  0  0  0  0  0  0  0  0  0  0  0
  190.8640  175.9150  144.7060 C   0  0  0  0  0  0  0  0  0  0  0  0
  189.2360  173.1210  139.5500 C   0  0  2  0  0  3  0  0  0  0  0  0
  193.2470  173.6370  142.8310 C   0  0  0  0  0  2  0  0  0  0  0  0
  188.8140  177.1940  144.9360 C   0  0  0  0  0  0  0  0  0  0  0  0
  191.2380  174.9050  143.9270 C   0  0  0  0  0  0  0  0  0  0  0  0
  191.6650  172.2710  139.5440 C   0  0  2  0  0  3  0  0  0  0  0  0
  189.5620  176.3230  144.3050 C   0  0  0  0  0  0  0  0  0  0  0  0
  192.5220  174.1340  144.0790 C   0  0  0  0  0  0  0  0  0  0  0  0
  189.3830  177.8540  146.1340 C   0  0  0  0  0  3  0  0  0  0  0  0
  190.1810  171.9310  139.3770 C   0  0  0  0  0  2  0  0  0  0  0  0
  189.1270  175.5230  143.2210 C   0  0  0  0  0  0  0  0  0  0  0  0
  187.4150  178.0060  142.1180 C   0  0  0  0  0  1  0  0  0  0  0  0
  191.8090  175.4060  146.8870 C   0  0  0  0  0  3  0  0  0  0  0  0
  190.6260  177.5410  146.5740 C   0  0  0  0  0  3  0  0  0  0  0  0
  187.7120  175.6030  142.7360 C   0  0  0  0  0  2  0  0  0  0  0  0
  192.1850  172.2460  140.9940 C   0  0  1  0  0  3  0  0  0  0  0  0
  192.3350  173.5470  141.6270 C   0  0  1  0  0  3  0  0  0  0  0  0
  191.5290  176.4970  145.9110 C   0  0  2  0  0  3  0  0  0  0  0  0
  190.1060  174.6540  142.9550 C   0  0  0  0  0  0  0  0  0  0  0  0
  187.5120  177.4190  144.4600 O   0  0  0  0  0  0  0  0  0  0  0  0
  193.0810  173.8820  145.2990 C   0  0  0  0  0  0  0  0  0  0  0  0
  185.5660  176.7910  143.1840 C   0  0  0  0  0  1  0  0  0  0  0  0
  191.2100  172.6780  142.0370 N   0  0  1  0  0  0  0  0  0  0  0  0
  192.0540  173.4100  138.8300 O   0  0  0  0  0  1  0  0  0  0  0  0
  190.0370  173.5680  141.9010 C   0  0  2  0  0  3  0  0  0  0  0  0
  192.5000  174.2990  146.6050 C   0  0  0  0  0  3  0  0  0  0  0  0
  195.5500  173.6070  145.5450 C   0  0  0  0  0  3  0  0  0  0  0  0
  194.2810  173.0210  145.4300 C   0  0  0  0  0  0  0  0  0  0  0  0
  194.1630  171.6240  145.5020 C   0  0  0  0  0  3  0  0  0  0  0  0
  195.1710  169.4110  145.7220 N   0  0  0  0  0  1  0  0  0  0  0  0
  196.5610  171.4170  145.7590 C   0  0  0  0  0  3  0  0  0  0  0  0
  195.2990  170.8250  145.6590 C   0  0  0  0  0  0  0  0  0  0  0  0
  196.6860  172.8090  145.7040 C   0  0  0  0  0  3  0  0  0  0  0  0
  187.8160  174.5570  138.2740 O   0  0  0  0  0  1  0  0  0  0  0  0
  188.9570  173.7560  138.1990 C   0  0  0  0  0  2  0  0  0  0  0  0
  1 27  1  0  0  0  0
  2 24  1  0  0  0  0
  2 22  1  0  0  0  0
  3 20  1  0  0  0  0
  4 37  1  6  0  0  0
  4  1  1  0  0  0  0
  5 10  1  0  0  0  0
  6 11  1  0  0  0  0
  7 10  1  0  0  0  0
  7  3  2  0  0  0  0
  8 26  1  1  0  0  0
  8 18  1  0  0  0  0
  9  3  1  0  0  0  0
  9  6  2  0  0  0  0
 10 23  2  0  0  0  0
 11 16  2  0  0  0  0
 12  8  1  0  0  0  0
 12  4  1  0  0  0  0
 13  9  1  0  0  0  0
 14  2  1  0  0  0  0
 17  2  1  0  0  0  0
 17 13  1  0  0  0  0
 18 19  1  0  0  0  0
 18 25  1  0  0  0  0
 19 25  1  0  0  0  0
 19  5  1  0  0  0  0
 20 16  1  0  0  0  0
 20 15  1  0  0  0  0
 21 13  2  0  0  0  0
 21  7  1  0  0  0  0
 22  6  1  0  0  0  0
 23 30  1  0  0  0  0
 23 28  1  0  0  0  0
 27 25  1  0  0  0  0
 27 21  1  0  0  0  0
 28 15  2  0  0  0  0
 29 35  1  0  0  0  0
 30 31  1  0  0  0  0
 30 29  2  0  0  0  0
 31 34  2  0  0  0  0
 34 32  1  0  0  0  0
 34 33  1  0  0  0  0
 35 33  2  0  0  0  0
 37 36  1  0  0  0  0
M  END
>  <MODEL>
6

>  <REMARK>
 VINA RESULT:      -8.5      2.433      6.940
  Name = 
  2 active torsions:
  status: ('A' for Active; 'I' for Inactive)
    1  A    between atoms: C_4  and  C_37
    2  A    between atoms: C_23  and  C_30
                            x       y       z     vdW  Elec       q    Type
                         _______ _______ _______ _____ _____    ______ ____

>  <TORSDO>
F 2

$$$$
=
 OpenBabel11112417083D

 37 44  0  0  1  0  0  0  0  0999 V2000
  194.5840  174.0050  143.5980 C   0  0  0  0  0  2  0  0  0  0  0  0
  193.7700  170.2240  140.9230 C   0  0  0  0  0  0  0  0  0  0  0  0
  190.7410  173.1680  141.0820 C   0  0  0  0  0  0  0  0  0  0  0  0
  195.4480  173.9900  144.8510 C   0  0  2  0  0  3  0  0  0  0  0  0
  191.0840  176.2990  143.1930 C   0  0  0  0  0  2  0  0  0  0  0  0
  191.5590  171.0870  140.1370 C   0  0  0  0  0  0  0  0  0  0  0  0
  191.1010  173.9130  142.1220 C   0  0  1  0  0  3  0  0  0  0  0  0
  194.3730  176.2880  145.2810 C   0  0  2  0  0  3  0  0  0  0  0  0
  191.6730  172.1010  140.9580 C   0  0  0  0  0  0  0  0  0  0  0  0
  190.3270  175.0950  142.6390 C   0  0  0  0  0  0  0  0  0  0  0  0
  190.3960  171.0690  139.2200 C   0  0  0  0  0  3  0  0  0  0  0  0
  195.0100  175.0320  145.8810 C   0  0  0  0  0  2  0  0  0  0  0  0
  192.6540  172.2090  141.9730 C   0  0  0  0  0  0  0  0  0  0  0  0
  194.7960  170.8550  140.0000 C   0  0  0  0  0  1  0  0  0  0  0  0
  188.3100  173.2100  141.0930 C   0  0  0  0  0  3  0  0  0  0  0  0
  189.4700  172.0580  139.2540 C   0  0  0  0  0  3  0  0  0  0  0  0
  193.6390  171.1030  142.2010 C   0  0  0  0  0  2  0  0  0  0  0  0
  192.8610  176.1890  145.0010 C   0  0  1  0  0  3  0  0  0  0  0  0
  192.4960  175.9540  143.6120 C   0  0  1  0  0  3  0  0  0  0  0  0
  189.5200  173.2410  140.2230 C   0  0  0  0  0  0  0  0  0  0  0  0
  192.3530  173.2880  142.7000 C   0  0  0  0  0  0  0  0  0  0  0  0
  192.5220  170.0670  140.2040 O   0  0  0  0  0  0  0  0  0  0  0  0
  188.9620  175.1440  142.6090 C   0  0  0  0  0  0  0  0  0  0  0  0
  194.2760  168.8560  141.3280 C   0  0  0  0  0  1  0  0  0  0  0  0
  192.3700  174.8440  144.5830 N   0  0  1  0  0  0  0  0  0  0  0  0
  195.1050  176.8220  144.2150 O   0  0  0  0  0  1  0  0  0  0  0  0
  193.1110  173.7450  143.9280 C   0  0  2  0  0  3  0  0  0  0  0  0
  188.0830  174.0550  142.1010 C   0  0  0  0  0  3  0  0  0  0  0  0
  187.6900  177.2830  142.4240 C   0  0  0  0  0  3  0  0  0  0  0  0
  188.2210  176.2660  143.2310 C   0  0  0  0  0  0  0  0  0  0  0  0
  187.9870  176.2990  144.6150 C   0  0  0  0  0  3  0  0  0  0  0  0
  187.0330  177.3750  146.5890 N   0  0  0  0  0  1  0  0  0  0  0  0
  186.7430  178.3620  144.3750 C   0  0  0  0  0  3  0  0  0  0  0  0
  187.2580  177.3460  145.1850 C   0  0  0  0  0  0  0  0  0  0  0  0
  186.9580  178.3290  142.9940 C   0  0  0  0  0  3  0  0  0  0  0  0
  197.7320  173.5050  145.3530 O   0  0  0  0  0  1  0  0  0  0  0  0
  196.9040  174.2140  144.4820 C   0  0  0  0  0  2  0  0  0  0  0  0
  1 27  1  0  0  0  0
  1  4  1  0  0  0  0
  2 24  1  0  0  0  0
  2 17  1  0  0  0  0
  4 37  1  6  0  0  0
  4 12  1  0  0  0  0
  5 19  1  0  0  0  0
  6 22  1  0  0  0  0
  6  9  1  0  0  0  0
  7  3  1  1  0  0  0
  7 10  1  0  0  0  0
  7 21  1  0  0  0  0
  8 26  1  6  0  0  0
  8 12  1  0  0  0  0
  9  3  2  0  0  0  0
  9 13  1  0  0  0  0
 10  5  1  0  0  0  0
 11 16  1  0  0  0  0
 11  6  2  0  0  0  0
 13 17  1  0  0  0  0
 13 21  2  0  0  0  0
 14  2  1  0  0  0  0
 15 28  2  0  0  0  0
 16 20  2  0  0  0  0
 18  8  1  0  0  0  0
 19 25  1  0  0  0  0
 19 18  1  0  0  0  0
 20  3  1  0  0  0  0
 20 15  1  0  0  0  0
 21 27  1  0  0  0  0
 22  2  1  0  0  0  0
 23 10  2  0  0  0  0
 23 30  1  0  0  0  0
 25 18  1  0  0  0  0
 27 25  1  0  0  0  0
 28 23  1  0  0  0  0
 29 35  2  0  0  0  0
 29 30  1  0  0  0  0
 30 31  2  0  0  0  0
 31 34  1  0  0  0  0
 33 34  2  0  0  0  0
 34 32  1  0  0  0  0
 35 33  1  0  0  0  0
 37 36  1  0  0  0  0
M  END
>  <MODEL>
7

>  <REMARK>
 VINA RESULT:      -8.0      2.306      5.768
  Name = 
  2 active torsions:
  status: ('A' for Active; 'I' for Inactive)
    1  A    between atoms: C_4  and  C_37
    2  A    between atoms: C_23  and  C_30
                            x       y       z     vdW  Elec       q    Type
                         _______ _______ _______ _____ _____    ______ ____

>  <TORSDO>
F 2

$$$$
=
 OpenBabel11112417083D

 37 44  0  0  1  0  0  0  0  0999 V2000
  192.7460  172.2530  140.5310 C   0  0  0  0  0  2  0  0  0  0  0  0
  196.5700  174.4340  142.1830 C   0  0  0  0  0  0  0  0  0  0  0  0
  192.8260  175.7010  143.6790 C   0  0  0  0  0  0  0  0  0  0  0  0
  192.6430  171.6580  139.1340 C   0  0  2  0  0  3  0  0  0  0  0  0
  189.5630  174.1710  142.4980 C   0  0  0  0  0  2  0  0  0  0  0  0
  195.2460  175.8600  143.7540 C   0  0  0  0  0  0  0  0  0  0  0  0
  191.9630  175.1580  142.8260 C   0  0  0  0  0  0  0  0  0  0  0  0
  190.1270  171.5580  139.6650 C   0  0  2  0  0  3  0  0  0  0  0  0
  194.1400  175.3770  143.2440 C   0  0  0  0  0  0  0  0  0  0  0  0
  190.4700  175.3350  142.8870 C   0  0  0  0  0  0  0  0  0  0  0  0
  195.1310  176.7720  144.9150 C   0  0  0  0  0  3  0  0  0  0  0  0
  191.2140  171.6700  138.5920 C   0  0  0  0  0  2  0  0  0  0  0  0
  194.0700  174.5930  142.0680 C   0  0  0  0  0  0  0  0  0  0  0  0
  196.7970  173.1290  142.9230 C   0  0  0  0  0  1  0  0  0  0  0  0
  191.8050  177.8020  144.3520 C   0  0  0  0  0  3  0  0  0  0  0  0
  193.9170  177.1160  145.4100 C   0  0  0  0  0  3  0  0  0  0  0  0
  195.3090  174.2860  141.2830 C   0  0  0  0  0  2  0  0  0  0  0  0
  189.7030  172.8900  140.3120 C   0  0  1  0  0  3  0  0  0  0  0  0
  190.2670  173.1530  141.6280 C   0  0  1  0  0  3  0  0  0  0  0  0
  192.5890  176.6280  144.8270 C   0  0  2  0  0  3  0  0  0  0  0  0
  192.7770  174.4320  141.7770 C   0  0  0  0  0  0  0  0  0  0  0  0
  196.4640  175.5110  143.1470 O   0  0  0  0  0  0  0  0  0  0  0  0
  189.8890  176.4990  143.3050 C   0  0  0  0  0  0  0  0  0  0  0  0
  197.7690  174.6890  141.2950 C   0  0  0  0  0  1  0  0  0  0  0  0
  190.7850  173.9060  140.4640 N   0  0  1  0  0  0  0  0  0  0  0  0
  190.3700  170.5380  140.5910 O   0  0  0  0  0  1  0  0  0  0  0  0
  192.2460  173.7010  140.5620 C   0  0  2  0  0  3  0  0  0  0  0  0
  190.6330  177.7210  143.7170 C   0  0  0  0  0  3  0  0  0  0  0  0
  187.7880  176.8350  142.0010 C   0  0  0  0  0  3  0  0  0  0  0  0
  188.4210  176.6890  143.2440 C   0  0  0  0  0  0  0  0  0  0  0  0
  187.6390  176.6630  144.4100 C   0  0  0  0  0  3  0  0  0  0  0  0
  185.4690  176.7900  145.5230 N   0  0  0  0  0  1  0  0  0  0  0  0
  185.6310  176.9690  143.0930 C   0  0  0  0  0  3  0  0  0  0  0  0
  186.2510  176.8100  144.3360 C   0  0  0  0  0  0  0  0  0  0  0  0
  186.4000  176.9800  141.9260 C   0  0  0  0  0  3  0  0  0  0  0  0
  192.5830  169.5010  138.1100 O   0  0  0  0  0  1  0  0  0  0  0  0
  193.1800  170.2370  139.1340 C   0  0  0  0  0  2  0  0  0  0  0  0
  1 27  1  0  0  0  0
  2 14  1  0  0  0  0
  2 22  1  0  0  0  0
  3 20  1  0  0  0  0
  4 37  1  1  0  0  0
  4  1  1  0  0  0  0
  5 10  1  0  0  0  0
  6 11  1  0  0  0  0
  7 10  1  0  0  0  0
  7  3  2  0  0  0  0
  8 18  1  0  0  0  0
  8 26  1  1  0  0  0
  9  3  1  0  0  0  0
  9  6  2  0  0  0  0
 10 23  2  0  0  0  0
 11 16  2  0  0  0  0
 12  4  1  0  0  0  0
 12  8  1  0  0  0  0
 13  9  1  0  0  0  0
 15 20  1  0  0  0  0
 17 13  1  0  0  0  0
 17  2  1  0  0  0  0
 18 25  1  0  0  0  0
 18 19  1  0  0  0  0
 19  5  1  0  0  0  0
 20 16  1  0  0  0  0
 21 13  2  0  0  0  0
 21  7  1  0  0  0  0
 22  6  1  0  0  0  0
 23 28  1  0  0  0  0
 24  2  1  0  0  0  0
 25 27  1  0  0  0  0
 25 19  1  0  0  0  0
 27 21  1  0  0  0  0
 28 15  2  0  0  0  0
 29 30  1  0  0  0  0
 30 23  1  0  0  0  0
 30 31  2  0  0  0  0
 33 34  2  0  0  0  0
 34 31  1  0  0  0  0
 34 32  1  0  0  0  0
 35 29  2  0  0  0  0
 35 33  1  0  0  0  0
 36 37  1  0  0  0  0
M  END
>  <MODEL>
8

>  <REMARK>
 VINA RESULT:      -8.0      2.242      3.126
  Name = 
  2 active torsions:
  status: ('A' for Active; 'I' for Inactive)
    1  A    between atoms: C_4  and  C_37
    2  A    between atoms: C_23  and  C_30
                            x       y       z     vdW  Elec       q    Type
                         _______ _______ _______ _____ _____    ______ ____

>  <TORSDO>
F 2

$$$$
=
 OpenBabel11112417083D

 37 44  0  0  1  0  0  0  0  0999 V2000
  189.1350  175.7420  145.6170 C   0  0  0  0  0  2  0  0  0  0  0  0
  185.9680  178.9290  147.0050 C   0  0  0  0  0  0  0  0  0  0  0  0
  185.5860  177.4060  143.0800 C   0  0  0  0  0  0  0  0  0  0  0  0
  190.5690  175.6920  146.1240 C   0  0  2  0  0  3  0  0  0  0  0  0
  188.0190  174.8680  141.6590 C   0  0  0  0  0  2  0  0  0  0  0  0
  184.6950  178.8010  144.8560 C   0  0  0  0  0  0  0  0  0  0  0  0
  186.7560  176.8090  142.8750 C   0  0  0  0  0  0  0  0  0  0  0  0
  190.9190  174.0910  144.1410 C   0  0  2  0  0  3  0  0  0  0  0  0
  185.6150  178.0050  144.3700 C   0  0  2  0  0  3  0  0  0  0  0  0
  187.1570  176.1260  141.5960 C   0  0  0  0  0  0  0  0  0  0  0  0
  183.4960  179.0590  144.0250 C   0  0  0  0  0  3  0  0  0  0  0  0
  191.5390  175.1180  145.0920 C   0  0  0  0  0  2  0  0  0  0  0  0
  186.8670  177.7520  144.9810 C   0  0  0  0  0  0  0  0  0  0  0  0
  185.4320  177.7910  147.8540 C   0  0  0  0  0  1  0  0  0  0  0  0
  184.9310  178.2650  140.9020 C   0  0  0  0  0  3  0  0  0  0  0  0
  183.3750  178.5100  142.7920 C   0  0  0  0  0  3  0  0  0  0  0  0
  187.2430  178.4400  146.2580 C   0  0  0  0  0  2  0  0  0  0  0  0
  190.2250  174.6810  142.8980 C   0  0  1  0  0  3  0  0  0  0  0  0
  188.7730  174.7460  142.9650 C   0  0  1  0  0  3  0  0  0  0  0  0
  184.4360  177.6150  142.1480 C   0  0  0  0  0  0  0  0  0  0  0  0
  187.5880  177.0320  144.1190 C   0  0  0  0  0  0  0  0  0  0  0  0
  184.9200  179.3850  146.1130 O   0  0  0  0  0  0  0  0  0  0  0  0
  186.7570  176.5790  140.3710 C   0  0  0  0  0  0  0  0  0  0  0  0
  186.3540  180.0660  147.9260 C   0  0  0  0  0  1  0  0  0  0  0  0
  189.5520  175.9970  143.0990 N   0  0  1  0  0  0  0  0  0  0  0  0
  190.1560  173.1200  144.8000 O   0  0  0  0  0  1  0  0  0  0  0  0
  189.0180  176.5880  144.3450 C   0  0  2  0  0  3  0  0  0  0  0  0
  185.9180  177.7870  140.1410 C   0  0  0  0  0  3  0  0  0  0  0  0
  188.1080  174.8420  139.1910 C   0  0  0  0  0  3  0  0  0  0  0  0
  187.2630  175.9600  139.1220 C   0  0  0  0  0  0  0  0  0  0  0  0
  186.8610  176.4370  137.8640 C   0  0  0  0  0  3  0  0  0  0  0  0
  186.9120  176.3190  135.4260 N   0  0  0  0  0  1  0  0  0  0  0  0
  188.1700  174.7180  136.7730 C   0  0  0  0  0  3  0  0  0  0  0  0
  187.3180  175.8230  136.6950 C   0  0  0  0  0  0  0  0  0  0  0  0
  188.5630  174.2270  138.0210 C   0  0  0  0  0  3  0  0  0  0  0  0
  189.3580  174.4850  147.7920 O   0  0  0  0  0  1  0  0  0  0  0  0
  190.6400  174.8780  147.4040 C   0  0  0  0  0  2  0  0  0  0  0  0
  1  4  1  0  0  0  0
  2 14  1  0  0  0  0
  2 24  1  0  0  0  0
  4 37  1  1  0  0  0
  5 19  1  0  0  0  0
  6 22  1  0  0  0  0
  7  3  2  0  0  0  0
  7 21  1  0  0  0  0
  8 26  1  1  0  0  0
  8 12  1  0  0  0  0
  9  3  1  6  0  0  0
  9  6  1  0  0  0  0
  9 13  1  0  0  0  0
 10  5  1  0  0  0  0
 10  7  1  0  0  0  0
 11  6  2  0  0  0  0
 12  4  1  0  0  0  0
 13 17  1  0  0  0  0
 15 20  1  0  0  0  0
 16 11  1  0  0  0  0
 17  2  1  0  0  0  0
 18 19  1  0  0  0  0
 18 25  1  0  0  0  0
 18  8  1  0  0  0  0
 19 25  1  0  0  0  0
 20 16  2  0  0  0  0
 20  3  1  0  0  0  0
 21 27  1  0  0  0  0
 21 13  2  0  0  0  0
 22  2  1  0  0  0  0
 23 10  2  0  0  0  0
 25 27  1  0  0  0  0
 27  1  1  0  0  0  0
 28 23  1  0  0  0  0
 28 15  2  0  0  0  0
 30 29  1  0  0  0  0
 30 23  1  0  0  0  0
 31 30  2  0  0  0  0
 32 34  1  0  0  0  0
 33 35  1  0  0  0  0
 34 33  2  0  0  0  0
 34 31  1  0  0  0  0
 35 29  2  0  0  0  0
 37 36  1  0  0  0  0
M  END
>  <MODEL>
9

>  <REMARK>
 VINA RESULT:      -7.8      2.758      6.804
  Name = 
  2 active torsions:
  status: ('A' for Active; 'I' for Inactive)
    1  A    between atoms: C_4  and  C_37
    2  A    between atoms: C_23  and  C_30
                            x       y       z     vdW  Elec       q    Type
                         _______ _______ _______ _____ _____    ______ ____

>  <TORSDO>
F 2

$$$$
