=
 OpenBabel11112417393D

 28 32  0  0  1  0  0  0  0  0999 V2000
  190.5200  175.3010  143.9750 C   0  0  0  0  0  0  0  0  0  0  0  0
  185.8080  176.4560  145.7100 O   0  0  0  0  0  1  0  0  0  0  0  0
  188.3540  175.1200  139.9620 O   0  0  0  0  0  0  0  0  0  0  0  0
  191.5440  177.7130  142.9890 C   0  0  0  0  0  3  0  0  0  0  0  0
  187.0180  176.6630  141.2090 C   0  0  0  0  0  0  0  0  0  0  0  0
  189.9840  174.0910  144.4150 O   0  0  0  0  0  0  0  0  0  0  0  0
  187.3190  177.7240  147.0210 C   0  0  0  0  0  1  0  0  0  0  0  0
  186.5580  177.6380  145.7130 C   0  0  1  0  0  0  0  0  0  0  0  0
  184.9090  178.8260  144.3000 C   0  0  1  0  0  3  0  0  0  0  0  0
  187.5760  177.6710  144.5380 C   0  0  2  0  0  3  0  0  0  0  0  0
  190.3500  173.5990  141.4400 F   0  0  0  0  0  0  0  0  0  0  0  0
  187.3230  175.6070  143.3230 C   0  0  1  0  0  3  0  0  0  0  0  0
  185.9520  179.0330  143.2160 C   0  0  0  0  0  2  0  0  0  0  0  0
  185.6090  178.8220  145.6430 C   0  0  0  0  0  2  0  0  0  0  0  0
  189.5720  172.8880  142.3350 C   0  0  2  0  0  3  0  0  0  0  0  0
  189.6930  176.4340  143.9210 C   0  0  0  0  0  0  0  0  0  0  0  0
  187.8700  175.5190  141.0540 C   0  0  0  0  0  0  0  0  0  0  0  0
  183.9860  179.8700  144.2600 O   0  0  0  0  0  1  0  0  0  0  0  0
  188.1240  173.3870  142.3490 C   0  0  0  0  0  2  0  0  0  0  0  0
  190.2150  177.6370  143.4120 C   0  0  0  0  0  3  0  0  0  0  0  0
  191.8530  175.3800  143.5440 C   0  0  0  0  0  3  0  0  0  0  0  0
  192.3640  176.5850  143.0570 C   0  0  0  0  0  3  0  0  0  0  0  0
  190.2120  172.8680  143.7260 C   0  0  0  0  0  2  0  0  0  0  0  0
  186.5510  176.7510  142.6200 C   0  0  1  0  0  3  0  0  0  0  0  0
  188.0390  174.8460  142.2900 N   0  0  0  0  0  0  0  0  0  0  0  0
  187.0010  178.0020  143.2220 N   0  0  2  0  0  0  0  0  0  0  0  0
  186.6820  177.4480  140.2830 O   0  0  0  0  0  0  0  0  0  0  0  0
  188.2410  176.3090  144.3450 C   0  0  1  0  0  3  0  0  0  0  0  0
  1  6  1  0  0  0  0
  2  8  1  0  0  0  0
  3 17  2  0  0  0  0
  4 22  2  0  0  0  0
  4 20  1  0  0  0  0
  5 24  1  0  0  0  0
  8  7  1  1  0  0  0
  9 18  1  1  0  0  0
  9 14  1  0  0  0  0
 10  8  1  0  0  0  0
 11 15  1  0  0  0  0
 12 28  1  0  0  0  0
 13 26  1  0  0  0  0
 13  9  1  0  0  0  0
 14  8  1  0  0  0  0
 15 19  1  0  0  0  0
 15 23  1  0  0  0  0
 16  1  1  0  0  0  0
 16 28  1  0  0  0  0
 17  5  1  0  0  0  0
 17 25  1  0  0  0  0
 20 16  2  0  0  0  0
 21  1  2  0  0  0  0
 22 21  1  0  0  0  0
 23  6  1  0  0  0  0
 24 26  1  0  0  0  0
 24 12  1  0  0  0  0
 25 19  1  0  0  0  0
 25 12  1  0  0  0  0
 26 10  1  0  0  0  0
 27  5  2  0  0  0  0
 28 10  1  0  0  0  0
M  END
>  <MODEL>
1

>  <REMARK>
 VINA RESULT:      -8.2      0.000      0.000
  Name = 
  0 active torsions:
  status: ('A' for Active; 'I' for Inactive)
                            x       y       z     vdW  Elec       q    Type
                         _______ _______ _______ _____ _____    ______ ____

>  <TORSDO>
F 0

$$$$
=
 OpenBabel11112417393D

 28 32  0  0  1  0  0  0  0  0999 V2000
  189.4090  176.6830  145.2040 C   0  0  0  0  0  0  0  0  0  0  0  0
  194.4100  176.0420  144.1420 O   0  0  0  0  0  1  0  0  0  0  0  0
  189.0130  172.8140  142.8160 O   0  0  0  0  0  0  0  0  0  0  0  0
  188.9160  175.0340  147.4120 C   0  0  0  0  0  3  0  0  0  0  0  0
  191.2290  172.6570  143.7020 C   0  0  0  0  0  0  0  0  0  0  0  0
  189.6450  177.4580  144.0680 O   0  0  0  0  0  0  0  0  0  0  0  0
  194.3150  176.9750  146.3170 C   0  0  0  0  0  1  0  0  0  0  0  0
  194.2210  175.7090  145.4890 C   0  0  1  0  0  0  0  0  0  0  0  0
  195.2070  173.4580  145.1910 C   0  0  1  0  0  3  0  0  0  0  0  0
  192.8280  175.0580  145.7240 C   0  0  2  0  0  3  0  0  0  0  0  0
  187.6720  175.3890  143.0440 F   0  0  0  0  0  0  0  0  0  0  0  0
  191.7070  174.9890  143.5940 C   0  0  1  0  0  3  0  0  0  0  0  0
  193.9010  172.8060  145.6060 C   0  0  0  0  0  2  0  0  0  0  0  0
  195.3370  174.7770  145.9250 C   0  0  0  0  0  2  0  0  0  0  0  0
  188.5020  176.2160  142.3100 C   0  0  2  0  0  3  0  0  0  0  0  0
  190.4200  175.8270  145.6680 C   0  0  0  0  0  0  0  0  0  0  0  0
  190.0880  173.3570  143.1850 C   0  0  0  0  0  0  0  0  0  0  0  0
  196.2710  172.6270  145.5370 O   0  0  0  0  0  1  0  0  0  0  0  0
  189.8230  175.5260  141.9570 C   0  0  0  0  0  2  0  0  0  0  0  0
  190.1570  174.9940  146.7710 C   0  0  0  0  0  3  0  0  0  0  0  0
  188.1630  176.7160  145.8470 C   0  0  0  0  0  3  0  0  0  0  0  0
  187.9200  175.8970  146.9510 C   0  0  0  0  0  3  0  0  0  0  0  0
  188.6990  177.5630  143.0120 C   0  0  0  0  0  2  0  0  0  0  0  0
  192.3480  173.6160  143.9170 C   0  0  1  0  0  3  0  0  0  0  0  0
  190.3550  174.7440  143.0710 N   0  0  0  0  0  0  0  0  0  0  0  0
  192.7250  173.6430  145.3270 N   0  0  2  0  0  0  0  0  0  0  0  0
  191.2900  171.4160  143.9040 O   0  0  0  0  0  0  0  0  0  0  0  0
  191.7420  175.7720  144.9230 C   0  0  1  0  0  3  0  0  0  0  0  0
  1 16  2  0  0  0  0
  1 21  1  0  0  0  0
  2  8  1  0  0  0  0
  3 17  2  0  0  0  0
  5 27  2  0  0  0  0
  5 24  1  0  0  0  0
  6  1  1  0  0  0  0
  8 10  1  0  0  0  0
  8 14  1  0  0  0  0
  8  7  1  1  0  0  0
  9 18  1  1  0  0  0
  9 13  1  0  0  0  0
  9 14  1  0  0  0  0
 12 24  1  0  0  0  0
 12 28  1  0  0  0  0
 15 23  1  0  0  0  0
 15 11  1  0  0  0  0
 16 20  1  0  0  0  0
 17  5  1  0  0  0  0
 19 15  1  0  0  0  0
 19 25  1  0  0  0  0
 20  4  2  0  0  0  0
 21 22  2  0  0  0  0
 22  4  1  0  0  0  0
 23  6  1  0  0  0  0
 24 26  1  0  0  0  0
 25 17  1  0  0  0  0
 25 12  1  0  0  0  0
 26 13  1  0  0  0  0
 26 10  1  0  0  0  0
 28 16  1  0  0  0  0
 28 10  1  0  0  0  0
M  END
>  <MODEL>
2

>  <REMARK>
 VINA RESULT:      -7.9      3.108      6.678
  Name = 
  0 active torsions:
  status: ('A' for Active; 'I' for Inactive)
                            x       y       z     vdW  Elec       q    Type
                         _______ _______ _______ _____ _____    ______ ____

>  <TORSDO>
F 0

$$$$
=
 OpenBabel11112417393D

 28 32  0  0  1  0  0  0  0  0999 V2000
  188.4640  177.2210  144.5590 C   0  0  0  0  0  0  0  0  0  0  0  0
  193.1930  176.1790  142.7970 O   0  0  0  0  0  1  0  0  0  0  0  0
  187.4410  173.3400  142.3880 O   0  0  0  0  0  0  0  0  0  0  0  0
  188.1890  175.6660  146.8700 C   0  0  0  0  0  3  0  0  0  0  0  0
  189.7480  173.0360  142.9440 C   0  0  0  0  0  0  0  0  0  0  0  0
  188.5840  177.9500  143.3760 O   0  0  0  0  0  0  0  0  0  0  0  0
  193.4890  177.1660  144.9300 C   0  0  0  0  0  1  0  0  0  0  0  0
  193.1830  175.8920  144.1670 C   0  0  1  0  0  0  0  0  0  0  0  0
  193.9500  173.5670  143.8050 C   0  0  1  0  0  3  0  0  0  0  0  0
  191.7970  175.3550  144.6270 C   0  0  2  0  0  3  0  0  0  0  0  0
  186.3370  176.0140  142.7230 F   0  0  0  0  0  0  0  0  0  0  0  0
  190.3700  175.3210  142.6880 C   0  0  1  0  0  3  0  0  0  0  0  0
  192.6760  173.0250  144.4280 C   0  0  0  0  0  2  0  0  0  0  0  0
  194.2820  174.8880  144.4670 C   0  0  0  0  0  2  0  0  0  0  0  0
  187.1050  176.7590  141.8470 C   0  0  2  0  0  3  0  0  0  0  0  0
  189.4690  176.3020  144.8990 C   0  0  0  0  0  0  0  0  0  0  0  0
  188.5950  173.8080  142.5760 C   0  0  0  0  0  0  0  0  0  0  0  0
  194.9910  172.6650  144.0190 O   0  0  0  0  0  1  0  0  0  0  0  0
  188.3070  175.9620  141.3280 C   0  0  0  0  0  2  0  0  0  0  0  0
  189.3140  175.5170  146.0550 C   0  0  0  0  0  3  0  0  0  0  0  0
  187.3340  177.3640  145.3770 C   0  0  0  0  0  3  0  0  0  0  0  0
  187.2000  176.5910  146.5320 C   0  0  0  0  0  3  0  0  0  0  0  0
  187.5010  178.1020  142.4670 C   0  0  0  0  0  2  0  0  0  0  0  0
  190.9520  173.9120  142.9590 C   0  0  1  0  0  3  0  0  0  0  0  0
  188.9410  175.1680  142.3780 N   0  0  0  0  0  0  0  0  0  0  0  0
  191.5350  173.9420  144.2970 N   0  0  2  0  0  0  0  0  0  0  0  0
  189.7480  171.7980  143.1760 O   0  0  0  0  0  0  0  0  0  0  0  0
  190.6580  176.1300  143.9700 C   0  0  1  0  0  3  0  0  0  0  0  0
  1 16  2  0  0  0  0
  1 21  1  0  0  0  0
  2  8  1  0  0  0  0
  3 17  2  0  0  0  0
  5 24  1  0  0  0  0
  5 27  2  0  0  0  0
  6  1  1  0  0  0  0
  8 14  1  0  0  0  0
  8 10  1  0  0  0  0
  8  7  1  1  0  0  0
  9 18  1  1  0  0  0
  9 13  1  0  0  0  0
  9 14  1  0  0  0  0
 12 24  1  0  0  0  0
 12 28  1  0  0  0  0
 15 23  1  0  0  0  0
 15 11  1  0  0  0  0
 16 20  1  0  0  0  0
 17  5  1  0  0  0  0
 19 15  1  0  0  0  0
 19 25  1  0  0  0  0
 20  4  2  0  0  0  0
 21 22  2  0  0  0  0
 22  4  1  0  0  0  0
 23  6  1  0  0  0  0
 24 26  1  0  0  0  0
 25 17  1  0  0  0  0
 25 12  1  0  0  0  0
 26 13  1  0  0  0  0
 26 10  1  0  0  0  0
 28 10  1  0  0  0  0
 28 16  1  0  0  0  0
M  END
>  <MODEL>
3

>  <REMARK>
 VINA RESULT:      -7.7      2.460      6.073
  Name = 
  0 active torsions:
  status: ('A' for Active; 'I' for Inactive)
                            x       y       z     vdW  Elec       q    Type
                         _______ _______ _______ _____ _____    ______ ____

>  <TORSDO>
F 0

$$$$
=
 OpenBabel11112417393D

 28 32  0  0  1  0  0  0  0  0999 V2000
  191.1450  173.9940  142.8100 C   0  0  0  0  0  0  0  0  0  0  0  0
  187.9620  177.9760  143.5640 O   0  0  0  0  0  1  0  0  0  0  0  0
  193.2340  175.7310  146.4760 O   0  0  0  0  0  0  0  0  0  0  0  0
  190.2760  172.0200  144.5950 C   0  0  0  0  0  3  0  0  0  0  0  0
  190.9690  176.4360  146.7820 C   0  0  0  0  0  0  0  0  0  0  0  0
  191.6090  175.0000  141.9630 O   0  0  0  0  0  0  0  0  0  0  0  0
  186.6100  176.1930  142.7890 C   0  0  0  0  0  1  0  0  0  0  0  0
  187.2960  176.8200  143.9860 C   0  0  1  0  0  0  0  0  0  0  0  0
  186.8840  177.7440  146.2460 C   0  0  1  0  0  3  0  0  0  0  0  0
  188.2820  175.7840  144.5990 C   0  0  2  0  0  3  0  0  0  0  0  0
  193.9410  174.6290  143.8750 F   0  0  0  0  0  0  0  0  0  0  0  0
  190.4870  176.7430  144.4690 C   0  0  1  0  0  3  0  0  0  0  0  0
  187.6920  176.6230  146.8760 C   0  0  0  0  0  2  0  0  0  0  0  0
  186.2260  177.2100  144.9910 C   0  0  0  0  0  2  0  0  0  0  0  0
  193.6890  175.6930  143.0280 C   0  0  2  0  0  3  0  0  0  0  0  0
  190.1330  174.2940  143.7350 C   0  0  0  0  0  0  0  0  0  0  0  0
  192.1270  176.1000  146.0030 C   0  0  0  0  0  0  0  0  0  0  0  0
  185.9030  178.1680  147.1410 O   0  0  0  0  0  1  0  0  0  0  0  0
  192.9330  176.8190  143.7410 C   0  0  0  0  0  2  0  0  0  0  0  0
  189.7140  173.2980  144.6360 C   0  0  0  0  0  3  0  0  0  0  0  0
  191.7100  172.7110  142.7750 C   0  0  0  0  0  3  0  0  0  0  0  0
  191.2730  171.7260  143.6630 C   0  0  0  0  0  3  0  0  0  0  0  0
  192.9960  175.2260  141.7460 C   0  0  0  0  0  2  0  0  0  0  0  0
  189.8920  176.9380  145.8850 C   0  0  1  0  0  3  0  0  0  0  0  0
  191.8840  176.3110  144.6230 N   0  0  0  0  0  0  0  0  0  0  0  0
  188.7170  176.0760  145.9760 N   0  0  2  0  0  0  0  0  0  0  0  0
  190.8900  176.3570  148.0370 O   0  0  0  0  0  0  0  0  0  0  0  0
  189.5730  175.7050  143.7870 C   0  0  1  0  0  3  0  0  0  0  0  0
  1 16  1  0  0  0  0
  2  8  1  0  0  0  0
  4 20  1  0  0  0  0
  5 27  2  0  0  0  0
  6  1  1  0  0  0  0
  8  7  1  6  0  0  0
  8 10  1  0  0  0  0
  8 14  1  0  0  0  0
  9 13  1  0  0  0  0
  9 18  1  1  0  0  0
 10 26  1  0  0  0  0
 12 25  1  0  0  0  0
 12 24  1  0  0  0  0
 14  9  1  0  0  0  0
 15 19  1  0  0  0  0
 15 11  1  0  0  0  0
 16 28  1  0  0  0  0
 16 20  2  0  0  0  0
 17  3  2  0  0  0  0
 17  5  1  0  0  0  0
 19 25  1  0  0  0  0
 21  1  2  0  0  0  0
 21 22  1  0  0  0  0
 22  4  2  0  0  0  0
 23  6  1  0  0  0  0
 23 15  1  0  0  0  0
 24 26  1  0  0  0  0
 24  5  1  0  0  0  0
 25 17  1  0  0  0  0
 26 13  1  0  0  0  0
 28 12  1  0  0  0  0
 28 10  1  0  0  0  0
M  END
>  <MODEL>
4

>  <REMARK>
 VINA RESULT:      -7.7      2.428      4.652
  Name = 
  0 active torsions:
  status: ('A' for Active; 'I' for Inactive)
                            x       y       z     vdW  Elec       q    Type
                         _______ _______ _______ _____ _____    ______ ____

>  <TORSDO>
F 0

$$$$
=
 OpenBabel11112417393D

 28 32  0  0  1  0  0  0  0  0999 V2000
  191.4830  174.3980  143.1680 C   0  0  0  0  0  0  0  0  0  0  0  0
  188.1700  178.0050  141.5690 O   0  0  0  0  0  1  0  0  0  0  0  0
  191.1760  176.6970  147.0970 O   0  0  0  0  0  0  0  0  0  0  0  0
  189.9090  172.4970  144.4880 C   0  0  0  0  0  3  0  0  0  0  0  0
  189.0630  177.1400  146.0660 C   0  0  0  0  0  0  0  0  0  0  0  0
  192.2710  175.3750  142.5600 O   0  0  0  0  0  0  0  0  0  0  0  0
  187.5490  176.0060  140.4610 C   0  0  0  0  0  1  0  0  0  0  0  0
  187.4480  176.8170  141.7370 C   0  0  1  0  0  0  0  0  0  0  0  0
  185.8360  177.8780  143.2870 C   0  0  1  0  0  3  0  0  0  0  0  0
  188.0110  175.9700  142.9150 C   0  0  2  0  0  3  0  0  0  0  0  0
  193.2300  175.4660  145.4400 F   0  0  0  0  0  0  0  0  0  0  0  0
  189.8810  177.1800  143.8290 C   0  0  1  0  0  3  0  0  0  0  0  0
  186.2430  176.9270  144.3980 C   0  0  0  0  0  2  0  0  0  0  0  0
  185.9860  177.1590  141.9630 C   0  0  0  0  0  2  0  0  0  0  0  0
  193.4110  176.4120  144.4480 C   0  0  2  0  0  3  0  0  0  0  0  0
  190.1180  174.6500  143.3710 C   0  0  0  0  0  0  0  0  0  0  0  0
  190.4760  176.8830  146.0670 C   0  0  0  0  0  0  0  0  0  0  0  0
  184.5060  178.2550  143.4640 O   0  0  0  0  0  1  0  0  0  0  0  0
  192.3270  177.4940  144.4910 C   0  0  0  0  0  2  0  0  0  0  0  0
  189.3390  173.6930  144.0470 C   0  0  0  0  0  3  0  0  0  0  0  0
  192.0520  173.1970  143.6170 C   0  0  0  0  0  3  0  0  0  0  0  0
  191.2650  172.2470  144.2710 C   0  0  0  0  0  3  0  0  0  0  0  0
  193.5420  175.7510  143.0730 C   0  0  0  0  0  2  0  0  0  0  0  0
  188.6090  177.4240  144.6770 C   0  0  1  0  0  3  0  0  0  0  0  0
  191.0000  176.9390  144.7520 N   0  0  0  0  0  0  0  0  0  0  0  0
  187.6210  176.4330  144.2580 N   0  0  2  0  0  0  0  0  0  0  0  0
  188.3290  177.1630  147.0890 O   0  0  0  0  0  0  0  0  0  0  0  0
  189.5370  175.9800  142.9220 C   0  0  1  0  0  3  0  0  0  0  0  0
  1 16  2  0  0  0  0
  1 21  1  0  0  0  0
  2  8  1  0  0  0  0
  5 17  1  0  0  0  0
  5 27  2  0  0  0  0
  6 23  1  0  0  0  0
  6  1  1  0  0  0  0
  8  7  1  6  0  0  0
  8 14  1  0  0  0  0
  8 10  1  0  0  0  0
  9 18  1  1  0  0  0
  9 13  1  0  0  0  0
 10 28  1  0  0  0  0
 10 26  1  0  0  0  0
 12 24  1  0  0  0  0
 12 25  1  0  0  0  0
 14  9  1  0  0  0  0
 15 19  1  0  0  0  0
 15 11  1  0  0  0  0
 16 20  1  0  0  0  0
 17  3  2  0  0  0  0
 19 25  1  0  0  0  0
 20  4  2  0  0  0  0
 21 22  2  0  0  0  0
 22  4  1  0  0  0  0
 23 15  1  0  0  0  0
 24  5  1  0  0  0  0
 25 17  1  0  0  0  0
 26 13  1  0  0  0  0
 26 24  1  0  0  0  0
 28 16  1  0  0  0  0
 28 12  1  0  0  0  0
M  END
>  <MODEL>
5

>  <REMARK>
 VINA RESULT:      -7.6      2.156      4.432
  Name = 
  0 active torsions:
  status: ('A' for Active; 'I' for Inactive)
                            x       y       z     vdW  Elec       q    Type
                         _______ _______ _______ _____ _____    ______ ____

>  <TORSDO>
F 0

$$$$
=
 OpenBabel11112417393D

 28 32  0  0  1  0  0  0  0  0999 V2000
  191.0870  173.6630  141.8620 C   0  0  0  0  0  0  0  0  0  0  0  0
  188.8320  178.2910  142.0650 O   0  0  0  0  0  1  0  0  0  0  0  0
  192.3910  174.7680  146.0930 O   0  0  0  0  0  0  0  0  0  0  0  0
  189.3170  171.9320  143.1670 C   0  0  0  0  0  3  0  0  0  0  0  0
  190.3590  176.0020  145.8330 C   0  0  0  0  0  0  0  0  0  0  0  0
  191.9930  174.5390  141.2630 O   0  0  0  0  0  0  0  0  0  0  0  0
  187.3810  176.9090  140.8020 C   0  0  0  0  0  1  0  0  0  0  0  0
  187.8240  177.3270  142.1900 C   0  0  1  0  0  0  0  0  0  0  0  0
  187.0120  178.2830  144.3240 C   0  0  1  0  0  3  0  0  0  0  0  0
  188.3290  176.0700  142.9550 C   0  0  2  0  0  3  0  0  0  0  0  0
  193.5330  173.5720  143.6950 F   0  0  0  0  0  0  0  0  0  0  0  0
  190.6390  176.4590  143.5110 C   0  0  1  0  0  3  0  0  0  0  0  0
  187.3260  176.9880  145.0500 C   0  0  0  0  0  2  0  0  0  0  0  0
  186.6330  177.9510  142.8960 C   0  0  0  0  0  2  0  0  0  0  0  0
  193.7860  174.6800  142.9080 C   0  0  2  0  0  3  0  0  0  0  0  0
  189.9520  174.1860  142.5000 C   0  0  0  0  0  0  0  0  0  0  0  0
  191.5800  175.4060  145.3710 C   0  0  0  0  0  0  0  0  0  0  0  0
  185.9430  178.9190  144.9530 O   0  0  0  0  0  1  0  0  0  0  0  0
  193.1400  175.9440  143.4840 C   0  0  0  0  0  2  0  0  0  0  0  0
  189.0760  173.3080  143.1640 C   0  0  0  0  0  3  0  0  0  0  0  0
  191.3270  172.2810  141.8710 C   0  0  0  0  0  3  0  0  0  0  0  0
  190.4410  171.4180  142.5180 C   0  0  0  0  0  3  0  0  0  0  0  0
  193.3970  174.4200  141.4500 C   0  0  0  0  0  2  0  0  0  0  0  0
  189.7280  176.7690  144.7240 C   0  0  1  0  0  3  0  0  0  0  0  0
  191.7950  175.6940  144.0000 N   0  0  0  0  0  0  0  0  0  0  0  0
  188.4100  176.2210  144.4180 N   0  0  2  0  0  0  0  0  0  0  0  0
  189.9110  175.9230  147.0070 O   0  0  0  0  0  0  0  0  0  0  0  0
  189.7430  175.6900  142.5190 C   0  0  1  0  0  3  0  0  0  0  0  0
  1 21  2  0  0  0  0
  1 16  1  0  0  0  0
  2  8  1  0  0  0  0
  5 27  2  0  0  0  0
  6 23  1  0  0  0  0
  6  1  1  0  0  0  0
  8  7  1  6  0  0  0
  8 14  1  0  0  0  0
  8 10  1  0  0  0  0
  9 18  1  1  0  0  0
  9 13  1  0  0  0  0
 10 26  1  0  0  0  0
 12 25  1  0  0  0  0
 12 24  1  0  0  0  0
 14  9  1  0  0  0  0
 15 19  1  0  0  0  0
 15 11  1  0  0  0  0
 16 28  1  0  0  0  0
 16 20  2  0  0  0  0
 17  5  1  0  0  0  0
 17  3  2  0  0  0  0
 19 25  1  0  0  0  0
 20  4  1  0  0  0  0
 21 22  1  0  0  0  0
 22  4  2  0  0  0  0
 23 15  1  0  0  0  0
 24  5  1  0  0  0  0
 25 17  1  0  0  0  0
 26 24  1  0  0  0  0
 26 13  1  0  0  0  0
 28 10  1  0  0  0  0
 28 12  1  0  0  0  0
M  END
>  <MODEL>
6

>  <REMARK>
 VINA RESULT:      -7.1      2.177      4.494
  Name = 
  0 active torsions:
  status: ('A' for Active; 'I' for Inactive)
                            x       y       z     vdW  Elec       q    Type
                         _______ _______ _______ _____ _____    ______ ____

>  <TORSDO>
F 0

$$$$
=
 OpenBabel11112417393D

 28 32  0  0  1  0  0  0  0  0999 V2000
  187.1040  176.7630  143.8310 C   0  0  0  0  0  0  0  0  0  0  0  0
  189.3520  172.2530  144.9030 O   0  0  0  0  0  1  0  0  0  0  0  0
  189.7420  178.2200  147.2580 O   0  0  0  0  0  0  0  0  0  0  0  0
  188.9400  178.1270  142.2170 C   0  0  0  0  0  3  0  0  0  0  0  0
  190.9790  176.3620  146.3990 C   0  0  0  0  0  0  0  0  0  0  0  0
  186.2170  176.1040  144.6820 O   0  0  0  0  0  0  0  0  0  0  0  0
  189.0580  172.2970  142.5540 C   0  0  0  0  0  1  0  0  0  0  0  0
  189.9220  172.7350  143.7190 C   0  0  1  0  0  0  0  0  0  0  0  0
  192.2180  172.6140  144.6380 C   0  0  1  0  0  3  0  0  0  0  0  0
  190.0120  174.2880  143.7210 C   0  0  2  0  0  3  0  0  0  0  0  0
  187.0030  178.5380  146.3200 F   0  0  0  0  0  0  0  0  0  0  0  0
  189.0800  175.0500  145.8060 C   0  0  1  0  0  3  0  0  0  0  0  0
  192.3900  174.1130  144.4670 C   0  0  0  0  0  2  0  0  0  0  0  0
  191.2960  172.1110  143.5460 C   0  0  0  0  0  2  0  0  0  0  0  0
  186.4070  177.3700  146.7570 C   0  0  2  0  0  3  0  0  0  0  0  0
  188.3760  176.2120  143.6120 C   0  0  0  0  0  0  0  0  0  0  0  0
  189.7800  177.0830  146.7180 C   0  0  0  0  0  0  0  0  0  0  0  0
  193.4580  171.9900  144.5230 O   0  0  0  0  0  1  0  0  0  0  0  0
  187.4420  176.3600  147.2620 C   0  0  0  0  0  2  0  0  0  0  0  0
  189.2950  176.9120  142.8090 C   0  0  0  0  0  3  0  0  0  0  0  0
  186.7530  177.9850  143.2390 C   0  0  0  0  0  3  0  0  0  0  0  0
  187.6680  178.6620  142.4300 C   0  0  0  0  0  3  0  0  0  0  0  0
  185.4790  176.7910  145.6860 C   0  0  0  0  0  2  0  0  0  0  0  0
  190.6270  175.0100  145.8840 C   0  0  1  0  0  3  0  0  0  0  0  0
  188.6310  176.3120  146.4130 N   0  0  0  0  0  0  0  0  0  0  0  0
  191.1170  174.8480  144.5180 N   0  0  2  0  0  0  0  0  0  0  0  0
  192.1510  176.7910  146.5690 O   0  0  0  0  0  0  0  0  0  0  0  0
  188.7480  174.9140  144.3060 C   0  0  1  0  0  3  0  0  0  0  0  0
  1  6  1  0  0  0  0
  4 22  2  0  0  0  0
  4 20  1  0  0  0  0
  5 27  2  0  0  0  0
  5 17  1  0  0  0  0
  6 23  1  0  0  0  0
  8  7  1  6  0  0  0
  8 10  1  0  0  0  0
  8  2  1  0  0  0  0
  9 18  1  6  0  0  0
 10 28  1  0  0  0  0
 10 26  1  0  0  0  0
 11 15  1  0  0  0  0
 12 24  1  0  0  0  0
 12 25  1  0  0  0  0
 13 26  1  0  0  0  0
 13  9  1  0  0  0  0
 14  8  1  0  0  0  0
 14  9  1  0  0  0  0
 15 19  1  0  0  0  0
 16  1  1  0  0  0  0
 16 28  1  0  0  0  0
 17  3  2  0  0  0  0
 20 16  2  0  0  0  0
 21  1  2  0  0  0  0
 22 21  1  0  0  0  0
 23 15  1  0  0  0  0
 24  5  1  0  0  0  0
 25 17  1  0  0  0  0
 25 19  1  0  0  0  0
 26 24  1  0  0  0  0
 28 12  1  0  0  0  0
M  END
>  <MODEL>
7

>  <REMARK>
 VINA RESULT:      -7.1      2.798      6.343
  Name = 
  0 active torsions:
  status: ('A' for Active; 'I' for Inactive)
                            x       y       z     vdW  Elec       q    Type
                         _______ _______ _______ _____ _____    ______ ____

>  <TORSDO>
F 0

$$$$
=
 OpenBabel11112417393D

 28 32  0  0  1  0  0  0  0  0999 V2000
  194.1490  173.9460  144.9950 C   0  0  0  0  0  0  0  0  0  0  0  0
  189.7020  175.0510  147.3510 O   0  0  0  0  0  1  0  0  0  0  0  0
  191.3660  172.8010  141.5660 O   0  0  0  0  0  0  0  0  0  0  0  0
  194.7100  176.1860  143.4130 C   0  0  0  0  0  3  0  0  0  0  0  0
  190.0950  174.4520  142.7410 C   0  0  0  0  0  0  0  0  0  0  0  0
  193.8360  172.8090  145.7410 O   0  0  0  0  0  0  0  0  0  0  0  0
  191.2610  176.6680  148.1010 C   0  0  0  0  0  1  0  0  0  0  0  0
  190.3030  176.2650  146.9980 C   0  0  1  0  0  0  0  0  0  0  0  0
  188.3130  177.0150  145.7310 C   0  0  1  0  0  3  0  0  0  0  0  0
  191.0950  176.1420  145.6650 C   0  0  2  0  0  3  0  0  0  0  0  0
  193.7430  171.7650  142.8900 F   0  0  0  0  0  0  0  0  0  0  0  0
  190.8730  173.8650  144.9150 C   0  0  1  0  0  3  0  0  0  0  0  0
  189.1260  177.0830  144.4500 C   0  0  0  0  0  2  0  0  0  0  0  0
  189.2270  177.3330  146.8950 C   0  0  0  0  0  2  0  0  0  0  0  0
  193.2150  171.1880  144.0300 C   0  0  2  0  0  3  0  0  0  0  0  0
  193.2020  174.9780  144.8950 C   0  0  0  0  0  0  0  0  0  0  0  0
  191.0330  173.3700  142.6380 C   0  0  0  0  0  0  0  0  0  0  0  0
  187.2850  177.9540  145.6770 O   0  0  0  0  0  1  0  0  0  0  0  0
  191.7430  171.5660  144.2270 C   0  0  0  0  0  2  0  0  0  0  0  0
  193.4900  176.0920  144.0860 C   0  0  0  0  0  3  0  0  0  0  0  0
  195.3710  174.0420  144.3140 C   0  0  0  0  0  3  0  0  0  0  0  0
  195.6520  175.1620  143.5280 C   0  0  0  0  0  3  0  0  0  0  0  0
  194.0800  171.4950  145.2550 C   0  0  0  0  0  2  0  0  0  0  0  0
  189.8680  174.7820  144.1750 C   0  0  1  0  0  3  0  0  0  0  0  0
  191.4850  172.9720  143.9210 N   0  0  0  0  0  0  0  0  0  0  0  0
  190.2700  176.1600  144.4450 N   0  0  2  0  0  0  0  0  0  0  0  0
  189.5200  175.0090  141.7690 O   0  0  0  0  0  0  0  0  0  0  0  0
  191.8670  174.8260  145.6010 C   0  0  1  0  0  3  0  0  0  0  0  0
  1  6  1  0  0  0  0
  3 17  2  0  0  0  0
  4 22  2  0  0  0  0
  4 20  1  0  0  0  0
  5 24  1  0  0  0  0
  8  2  1  0  0  0  0
  8  7  1  1  0  0  0
  9 18  1  6  0  0  0
  9 14  1  0  0  0  0
 10  8  1  0  0  0  0
 11 15  1  0  0  0  0
 12 28  1  0  0  0  0
 13  9  1  0  0  0  0
 14  8  1  0  0  0  0
 15 19  1  0  0  0  0
 15 23  1  0  0  0  0
 16  1  1  0  0  0  0
 16 28  1  0  0  0  0
 17  5  1  0  0  0  0
 17 25  1  0  0  0  0
 20 16  2  0  0  0  0
 21  1  2  0  0  0  0
 22 21  1  0  0  0  0
 23  6  1  0  0  0  0
 24 26  1  0  0  0  0
 24 12  1  0  0  0  0
 25 19  1  0  0  0  0
 25 12  1  0  0  0  0
 26 13  1  0  0  0  0
 26 10  1  0  0  0  0
 27  5  2  0  0  0  0
 28 10  1  0  0  0  0
M  END
>  <MODEL>
8

>  <REMARK>
 VINA RESULT:      -7.1      2.874      4.092
  Name = 
  0 active torsions:
  status: ('A' for Active; 'I' for Inactive)
                            x       y       z     vdW  Elec       q    Type
                         _______ _______ _______ _____ _____    ______ ____

>  <TORSDO>
F 0

$$$$
=
 OpenBabel11112417393D

 28 32  0  0  1  0  0  0  0  0999 V2000
  189.8480  175.9050  142.3980 C   0  0  0  0  0  0  0  0  0  0  0  0
  186.6490  179.5130  144.2140 O   0  0  0  0  0  1  0  0  0  0  0  0
  190.5360  175.1200  146.8400 O   0  0  0  0  0  0  0  0  0  0  0  0
  188.3860  173.5200  142.4960 C   0  0  0  0  0  3  0  0  0  0  0  0
  188.3160  176.0090  146.8040 C   0  0  0  0  0  0  0  0  0  0  0  0
  190.5920  177.0860  142.4050 O   0  0  0  0  0  0  0  0  0  0  0  0
  185.6350  178.6660  142.2490 C   0  0  0  0  0  1  0  0  0  0  0  0
  185.8630  178.4590  143.7330 C   0  0  1  0  0  0  0  0  0  0  0  0
  184.6950  178.1880  145.8980 C   0  0  1  0  0  3  0  0  0  0  0  0
  186.5600  177.0850  143.9460 C   0  0  2  0  0  3  0  0  0  0  0  0
  192.0990  175.3540  144.3940 F   0  0  0  0  0  0  0  0  0  0  0  0
  188.6810  177.5210  145.0000 C   0  0  1  0  0  3  0  0  0  0  0  0
  185.2170  176.7680  146.0280 C   0  0  0  0  0  2  0  0  0  0  0  0
  184.5130  178.4970  144.4270 C   0  0  0  0  0  2  0  0  0  0  0  0
  192.1730  176.7240  144.2240 C   0  0  2  0  0  3  0  0  0  0  0  0
  188.5790  175.8950  142.9980 C   0  0  0  0  0  0  0  0  0  0  0  0
  189.6700  175.8870  146.3430 C   0  0  0  0  0  0  0  0  0  0  0  0
  183.4670  178.2910  146.5500 O   0  0  0  0  0  1  0  0  0  0  0  0
  191.2270  177.4660  145.1750 C   0  0  0  0  0  2  0  0  0  0  0  0
  187.8590  174.6880  143.0530 C   0  0  0  0  0  3  0  0  0  0  0  0
  190.3760  174.7300  141.8440 C   0  0  0  0  0  3  0  0  0  0  0  0
  189.6440  173.5420  141.8890 C   0  0  0  0  0  3  0  0  0  0  0  0
  191.9690  177.1100  142.7570 C   0  0  0  0  0  2  0  0  0  0  0  0
  187.6280  177.0940  146.0520 C   0  0  1  0  0  3  0  0  0  0  0  0
  189.9300  176.8030  145.2940 N   0  0  0  0  0  0  0  0  0  0  0  0
  186.4870  176.5540  145.3190 N   0  0  2  0  0  0  0  0  0  0  0  0
  187.8010  175.3300  147.7310 O   0  0  0  0  0  0  0  0  0  0  0  0
  188.0530  177.1690  143.6350 C   0  0  1  0  0  3  0  0  0  0  0  0
  1  6  1  0  0  0  0
  1 16  1  0  0  0  0
  4 20  1  0  0  0  0
  5 27  2  0  0  0  0
  6 23  1  0  0  0  0
  8  7  1  6  0  0  0
  8 10  1  0  0  0  0
  8  2  1  0  0  0  0
  8 14  1  0  0  0  0
  9 13  1  0  0  0  0
  9 18  1  1  0  0  0
 10 26  1  0  0  0  0
 12 25  1  0  0  0  0
 12 24  1  0  0  0  0
 14  9  1  0  0  0  0
 15 11  1  0  0  0  0
 15 19  1  0  0  0  0
 16 20  2  0  0  0  0
 16 28  1  0  0  0  0
 17  5  1  0  0  0  0
 17  3  2  0  0  0  0
 19 25  1  0  0  0  0
 21 22  1  0  0  0  0
 21  1  2  0  0  0  0
 22  4  2  0  0  0  0
 23 15  1  0  0  0  0
 24  5  1  0  0  0  0
 25 17  1  0  0  0  0
 26 13  1  0  0  0  0
 26 24  1  0  0  0  0
 28 10  1  0  0  0  0
 28 12  1  0  0  0  0
M  END
>  <MODEL>
9

>  <REMARK>
 VINA RESULT:      -6.9      2.186      4.131
  Name = 
  0 active torsions:
  status: ('A' for Active; 'I' for Inactive)
                            x       y       z     vdW  Elec       q    Type
                         _______ _______ _______ _____ _____    ______ ____

>  <TORSDO>
F 0

$$$$
