=
 OpenBabel11112417383D

 28 32  0  0  1  0  0  0  0  0999 V2000
  190.4850  175.7310  144.9690 C   0  0  0  0  0  0  0  0  0  0  0  0
  185.5250  176.2730  145.6920 F   0  0  0  0  0  0  0  0  0  0  0  0
  189.0800  174.8960  140.4680 O   0  0  0  0  0  0  0  0  0  0  0  0
  191.3560  178.0910  143.7350 C   0  0  0  0  0  3  0  0  0  0  0  0
  187.3330  176.2980  141.3110 C   0  0  0  0  0  0  0  0  0  0  0  0
  190.0440  174.4260  145.5580 C   0  0  0  0  0  2  0  0  0  0  0  0
  186.5180  177.9430  147.0290 C   0  0  0  0  0  1  0  0  0  0  0  0
  186.0370  177.5610  145.6430 C   0  0  1  0  0  0  0  0  0  0  0  0
  184.5880  178.2700  143.7730 C   0  0  1  0  0  3  0  0  0  0  0  0
  187.2200  177.6620  144.6520 C   0  0  2  0  0  3  0  0  0  0  0  0
  191.0450  174.0260  142.5490 O   0  0  0  0  0  1  0  0  0  0  0  0
  187.4230  175.4820  143.5510 C   0  0  1  0  0  3  0  0  0  0  0  0
  185.6730  178.6680  142.9700 O   0  0  0  0  0  0  0  0  0  0  0  0
  184.9180  178.5070  145.2390 C   0  0  0  0  0  2  0  0  0  0  0  0
  190.2270  173.1730  143.2940 C   0  0  2  0  0  3  0  0  0  0  0  0
  189.5370  176.6530  144.4810 C   0  0  0  0  0  0  0  0  0  0  0  0
  188.3610  175.3010  141.4190 C   0  0  0  0  0  0  0  0  0  0  0  0
  183.3630  179.0760  143.3980 C   0  0  0  0  0  1  0  0  0  0  0  0
  188.7410  173.3770  142.9880 C   0  0  0  0  0  2  0  0  0  0  0  0
  189.9900  177.8220  143.8460 C   0  0  0  0  0  3  0  0  0  0  0  0
  191.8540  176.0180  144.8710 C   0  0  0  0  0  3  0  0  0  0  0  0
  192.2870  177.1940  144.2580 C   0  0  0  0  0  3  0  0  0  0  0  0
  190.5800  173.2170  144.7860 C   0  0  0  0  0  2  0  0  0  0  0  0
  186.6190  176.4150  142.6100 C   0  0  1  0  0  3  0  0  0  0  0  0
  188.4150  174.7760  142.7340 N   0  0  0  0  0  0  0  0  0  0  0  0
  186.7770  177.8100  143.1910 C   0  0  2  0  0  3  0  0  0  0  0  0
  187.0490  176.9380  140.2640 O   0  0  0  0  0  0  0  0  0  0  0  0
  188.0500  176.3780  144.6420 C   0  0  1  0  0  3  0  0  0  0  0  0
  1  6  1  0  0  0  0
  3 17  2  0  0  0  0
  4 20  2  0  0  0  0
  4 22  1  0  0  0  0
  5 17  1  0  0  0  0
  5 24  1  0  0  0  0
  8  2  1  0  0  0  0
  8  7  1  1  0  0  0
  9 18  1  6  0  0  0
  9 14  1  0  0  0  0
 10  8  1  0  0  0  0
 11 15  1  0  0  0  0
 12 28  1  0  0  0  0
 13 26  1  0  0  0  0
 13  9  1  0  0  0  0
 14  8  1  0  0  0  0
 15 23  1  0  0  0  0
 16 28  1  0  0  0  0
 16  1  2  0  0  0  0
 17 25  1  0  0  0  0
 19 15  1  0  0  0  0
 20 16  1  0  0  0  0
 21  1  1  0  0  0  0
 22 21  2  0  0  0  0
 23  6  1  0  0  0  0
 24 26  1  0  0  0  0
 24 12  1  0  0  0  0
 25 19  1  0  0  0  0
 25 12  1  0  0  0  0
 26 10  1  0  0  0  0
 27  5  2  0  0  0  0
 28 10  1  0  0  0  0
M  END
>  <MODEL>
1

>  <REMARK>
 VINA RESULT:      -8.7      0.000      0.000
  Name = 
  0 active torsions:
  status: ('A' for Active; 'I' for Inactive)
                            x       y       z     vdW  Elec       q    Type
                         _______ _______ _______ _____ _____    ______ ____

>  <TORSDO>
F 0

$$$$
=
 OpenBabel11112417383D

 28 32  0  0  1  0  0  0  0  0999 V2000
  189.4900  176.8400  145.2090 C   0  0  0  0  0  0  0  0  0  0  0  0
  194.4310  176.2770  144.3790 F   0  0  0  0  0  0  0  0  0  0  0  0
  189.2620  172.7810  142.6790 O   0  0  0  0  0  0  0  0  0  0  0  0
  188.8290  175.0300  147.2420 C   0  0  0  0  0  3  0  0  0  0  0  0
  191.4440  172.6680  143.6570 C   0  0  0  0  0  0  0  0  0  0  0  0
  189.7900  177.7660  144.0700 C   0  0  0  0  0  2  0  0  0  0  0  0
  194.2760  177.0760  146.5930 C   0  0  0  0  0  1  0  0  0  0  0  0
  194.2230  175.8620  145.6860 C   0  0  1  0  0  0  0  0  0  0  0  0
  195.1630  173.6080  145.3220 C   0  0  1  0  0  3  0  0  0  0  0  0
  192.8500  175.1700  145.8480 C   0  0  2  0  0  3  0  0  0  0  0  0
  187.8710  175.3920  143.1220 O   0  0  0  0  0  1  0  0  0  0  0  0
  191.8540  175.0180  143.6150 C   0  0  1  0  0  3  0  0  0  0  0  0
  194.0030  172.9550  145.7770 O   0  0  0  0  0  0  0  0  0  0  0  0
  195.3480  174.9170  146.0750 C   0  0  0  0  0  2  0  0  0  0  0  0
  188.6670  176.2150  142.3200 C   0  0  2  0  0  3  0  0  0  0  0  0
  190.4260  175.8630  145.6030 C   0  0  0  0  0  0  0  0  0  0  0  0
  190.3040  173.3450  143.1060 C   0  0  0  0  0  0  0  0  0  0  0  0
  196.3650  172.7180  145.5590 C   0  0  0  0  0  1  0  0  0  0  0  0
  189.9990  175.5560  141.9530 C   0  0  0  0  0  2  0  0  0  0  0  0
  190.0710  174.9490  146.6100 C   0  0  0  0  0  3  0  0  0  0  0  0
  188.2530  176.9270  145.8620 C   0  0  0  0  0  3  0  0  0  0  0  0
  187.9240  176.0270  146.8760 C   0  0  0  0  0  3  0  0  0  0  0  0
  188.7960  177.6230  142.9130 C   0  0  0  0  0  2  0  0  0  0  0  0
  192.5230  173.6560  143.9280 C   0  0  1  0  0  3  0  0  0  0  0  0
  190.5330  174.7420  143.0400 N   0  0  0  0  0  0  0  0  0  0  0  0
  192.8560  173.6990  145.4100 C   0  0  2  0  0  3  0  0  0  0  0  0
  191.5350  171.4250  143.8340 O   0  0  0  0  0  0  0  0  0  0  0  0
  191.7950  175.8060  144.9430 C   0  0  1  0  0  3  0  0  0  0  0  0
  1 16  2  0  0  0  0
  1 21  1  0  0  0  0
  2  8  1  0  0  0  0
  3 17  2  0  0  0  0
  5 27  2  0  0  0  0
  5 24  1  0  0  0  0
  6  1  1  0  0  0  0
  8 10  1  0  0  0  0
  8 14  1  0  0  0  0
  8  7  1  1  0  0  0
  9 18  1  1  0  0  0
  9 13  1  0  0  0  0
  9 14  1  0  0  0  0
 12 24  1  0  0  0  0
 12 28  1  0  0  0  0
 15 23  1  0  0  0  0
 15 11  1  0  0  0  0
 16 20  1  0  0  0  0
 17  5  1  0  0  0  0
 19 15  1  0  0  0  0
 19 25  1  0  0  0  0
 20  4  2  0  0  0  0
 21 22  2  0  0  0  0
 22  4  1  0  0  0  0
 23  6  1  0  0  0  0
 24 26  1  0  0  0  0
 25 17  1  0  0  0  0
 25 12  1  0  0  0  0
 26 13  1  0  0  0  0
 26 10  1  0  0  0  0
 28 16  1  0  0  0  0
 28 10  1  0  0  0  0
M  END
>  <MODEL>
2

>  <REMARK>
 VINA RESULT:      -8.5      2.966      6.701
  Name = 
  0 active torsions:
  status: ('A' for Active; 'I' for Inactive)
                            x       y       z     vdW  Elec       q    Type
                         _______ _______ _______ _____ _____    ______ ____

>  <TORSDO>
F 0

$$$$
=
 OpenBabel11112417383D

 28 32  0  0  1  0  0  0  0  0999 V2000
  190.7440  174.1710  143.0390 C   0  0  0  0  0  0  0  0  0  0  0  0
  187.7680  178.1670  143.8120 F   0  0  0  0  0  0  0  0  0  0  0  0
  193.0930  176.0120  146.7840 O   0  0  0  0  0  0  0  0  0  0  0  0
  190.0660  172.3010  145.0130 C   0  0  0  0  0  3  0  0  0  0  0  0
  190.8560  176.7900  147.1340 C   0  0  0  0  0  0  0  0  0  0  0  0
  191.1850  175.1740  142.0180 C   0  0  0  0  0  2  0  0  0  0  0  0
  186.2940  176.4150  143.2460 C   0  0  0  0  0  1  0  0  0  0  0  0
  187.0870  177.0860  144.3500 C   0  0  1  0  0  0  0  0  0  0  0  0
  186.9120  178.0750  146.6060 C   0  0  1  0  0  3  0  0  0  0  0  0
  188.0590  176.0560  144.9710 C   0  0  2  0  0  3  0  0  0  0  0  0
  193.5010  174.6450  144.1550 O   0  0  0  0  0  1  0  0  0  0  0  0
  190.3100  177.0140  144.8220 C   0  0  1  0  0  3  0  0  0  0  0  0
  187.5270  176.9750  147.2320 O   0  0  0  0  0  0  0  0  0  0  0  0
  186.1160  177.6040  145.3990 C   0  0  0  0  0  2  0  0  0  0  0  0
  193.3650  175.7430  143.3020 C   0  0  2  0  0  3  0  0  0  0  0  0
  189.9100  174.5570  144.1090 C   0  0  0  0  0  0  0  0  0  0  0  0
  191.9790  176.3900  146.3340 C   0  0  0  0  0  0  0  0  0  0  0  0
  185.9810  178.7540  147.5880 C   0  0  0  0  0  1  0  0  0  0  0  0
  192.7190  176.9430  143.9980 C   0  0  0  0  0  2  0  0  0  0  0  0
  189.5970  173.6130  145.1020 C   0  0  0  0  0  3  0  0  0  0  0  0
  191.1950  172.8470  142.9480 C   0  0  0  0  0  3  0  0  0  0  0  0
  190.8560  171.9150  143.9290 C   0  0  0  0  0  3  0  0  0  0  0  0
  192.7060  175.3470  141.9750 C   0  0  0  0  0  2  0  0  0  0  0  0
  189.7710  177.2910  146.2480 C   0  0  1  0  0  3  0  0  0  0  0  0
  191.6930  176.5430  144.9540 N   0  0  0  0  0  0  0  0  0  0  0  0
  188.5240  176.4340  146.3840 C   0  0  2  0  0  3  0  0  0  0  0  0
  190.8170  176.7670  148.3920 O   0  0  0  0  0  0  0  0  0  0  0  0
  189.3650  175.9750  144.1790 C   0  0  1  0  0  3  0  0  0  0  0  0
  1 16  1  0  0  0  0
  2  8  1  0  0  0  0
  4 20  1  0  0  0  0
  5 27  2  0  0  0  0
  6  1  1  0  0  0  0
  8  7  1  6  0  0  0
  8 10  1  0  0  0  0
  8 14  1  0  0  0  0
  9 13  1  0  0  0  0
  9 18  1  1  0  0  0
 10 26  1  0  0  0  0
 12 25  1  0  0  0  0
 12 24  1  0  0  0  0
 14  9  1  0  0  0  0
 15 19  1  0  0  0  0
 15 11  1  0  0  0  0
 16 28  1  0  0  0  0
 16 20  2  0  0  0  0
 17  3  2  0  0  0  0
 17  5  1  0  0  0  0
 19 25  1  0  0  0  0
 21  1  2  0  0  0  0
 21 22  1  0  0  0  0
 22  4  2  0  0  0  0
 23  6  1  0  0  0  0
 23 15  1  0  0  0  0
 24 26  1  0  0  0  0
 24  5  1  0  0  0  0
 25 17  1  0  0  0  0
 26 13  1  0  0  0  0
 28 12  1  0  0  0  0
 28 10  1  0  0  0  0
M  END
>  <MODEL>
3

>  <REMARK>
 VINA RESULT:      -8.2      2.700      4.600
  Name = 
  0 active torsions:
  status: ('A' for Active; 'I' for Inactive)
                            x       y       z     vdW  Elec       q    Type
                         _______ _______ _______ _____ _____    ______ ____

>  <TORSDO>
F 0

$$$$
=
 OpenBabel11112417383D

 28 32  0  0  1  0  0  0  0  0999 V2000
  191.4870  173.9730  142.8800 C   0  0  0  0  0  0  0  0  0  0  0  0
  188.8230  178.1050  141.7590 F   0  0  0  0  0  0  0  0  0  0  0  0
  192.1690  176.3190  146.9980 O   0  0  0  0  0  0  0  0  0  0  0  0
  189.8750  172.4460  144.5890 C   0  0  0  0  0  3  0  0  0  0  0  0
  190.0730  177.1900  146.2390 C   0  0  0  0  0  0  0  0  0  0  0  0
  192.4050  174.7960  142.0300 C   0  0  0  0  0  2  0  0  0  0  0  0
  187.5850  176.3190  140.8430 C   0  0  0  0  0  1  0  0  0  0  0  0
  187.8870  177.1350  142.0840 C   0  0  1  0  0  0  0  0  0  0  0  0
  186.8550  178.4650  143.8920 C   0  0  1  0  0  3  0  0  0  0  0  0
  188.4100  176.1930  143.1940 C   0  0  2  0  0  3  0  0  0  0  0  0
  193.5370  174.5530  145.0080 O   0  0  0  0  0  1  0  0  0  0  0  0
  190.5840  177.0660  143.9120 C   0  0  1  0  0  3  0  0  0  0  0  0
  187.0480  177.4610  144.8590 O   0  0  0  0  0  0  0  0  0  0  0  0
  186.6110  177.8300  142.5310 C   0  0  0  0  0  2  0  0  0  0  0  0
  193.8730  175.5090  144.0460 C   0  0  2  0  0  3  0  0  0  0  0  0
  190.3140  174.5380  143.4220 C   0  0  0  0  0  0  0  0  0  0  0  0
  191.3900  176.6470  146.0640 C   0  0  0  0  0  0  0  0  0  0  0  0
  185.6570  179.3070  144.2750 C   0  0  0  0  0  1  0  0  0  0  0  0
  193.0990  176.8160  144.2310 C   0  0  0  0  0  2  0  0  0  0  0  0
  189.5280  173.7660  144.2940 C   0  0  0  0  0  3  0  0  0  0  0  0
  191.8170  172.6410  143.1660 C   0  0  0  0  0  3  0  0  0  0  0  0
  191.0140  171.8800  144.0150 C   0  0  0  0  0  3  0  0  0  0  0  0
  193.8090  174.9270  142.6290 C   0  0  0  0  0  2  0  0  0  0  0  0
  189.5160  177.5730  144.9140 C   0  0  1  0  0  3  0  0  0  0  0  0
  191.7320  176.5910  144.6900 N   0  0  0  0  0  0  0  0  0  0  0  0
  188.2600  176.7740  144.6050 C   0  0  2  0  0  3  0  0  0  0  0  0
  189.5000  177.3630  147.3470 O   0  0  0  0  0  0  0  0  0  0  0  0
  189.9160  175.9610  143.0640 C   0  0  1  0  0  3  0  0  0  0  0  0
  1 21  2  0  0  0  0
  1 16  1  0  0  0  0
  2  8  1  0  0  0  0
  5 27  2  0  0  0  0
  6 23  1  0  0  0  0
  6  1  1  0  0  0  0
  8  7  1  6  0  0  0
  8 14  1  0  0  0  0
  8 10  1  0  0  0  0
  9 18  1  1  0  0  0
  9 13  1  0  0  0  0
 10 26  1  0  0  0  0
 12 25  1  0  0  0  0
 12 24  1  0  0  0  0
 14  9  1  0  0  0  0
 15 19  1  0  0  0  0
 15 11  1  0  0  0  0
 16 20  2  0  0  0  0
 17  5  1  0  0  0  0
 17  3  2  0  0  0  0
 19 25  1  0  0  0  0
 20  4  1  0  0  0  0
 21 22  1  0  0  0  0
 22  4  2  0  0  0  0
 23 15  1  0  0  0  0
 24  5  1  0  0  0  0
 25 17  1  0  0  0  0
 26 13  1  0  0  0  0
 26 24  1  0  0  0  0
 28 10  1  0  0  0  0
 28 16  1  0  0  0  0
 28 12  1  0  0  0  0
M  END
>  <MODEL>
4

>  <REMARK>
 VINA RESULT:      -8.1      2.563      4.498
  Name = 
  0 active torsions:
  status: ('A' for Active; 'I' for Inactive)
                            x       y       z     vdW  Elec       q    Type
                         _______ _______ _______ _____ _____    ______ ____

>  <TORSDO>
F 0

$$$$
=
 OpenBabel11112417383D

 28 32  0  0  1  0  0  0  0  0999 V2000
  190.8480  174.6120  142.5420 C   0  0  0  0  0  0  0  0  0  0  0  0
  187.9910  178.7500  142.1750 F   0  0  0  0  0  0  0  0  0  0  0  0
  190.1610  175.3410  147.2240 O   0  0  0  0  0  0  0  0  0  0  0  0
  189.0950  172.5030  143.1170 C   0  0  0  0  0  3  0  0  0  0  0  0
  188.2150  176.3360  146.2480 C   0  0  0  0  0  0  0  0  0  0  0  0
  191.8230  175.7250  142.3100 C   0  0  0  0  0  2  0  0  0  0  0  0
  187.2780  177.3630  140.4050 C   0  0  0  0  0  1  0  0  0  0  0  0
  187.1490  177.6880  141.8800 C   0  0  1  0  0  0  0  0  0  0  0  0
  185.5290  178.2310  143.6640 C   0  0  1  0  0  3  0  0  0  0  0  0
  187.5090  176.4330  142.7080 C   0  0  2  0  0  3  0  0  0  0  0  0
  192.2100  174.4730  145.2250 O   0  0  0  0  0  1  0  0  0  0  0  0
  189.2950  177.0820  144.2560 C   0  0  1  0  0  3  0  0  0  0  0  0
  185.6160  176.9550  144.2510 O   0  0  0  0  0  0  0  0  0  0  0  0
  185.7170  178.1190  142.1580 C   0  0  0  0  0  2  0  0  0  0  0  0
  192.6350  175.7250  144.7740 C   0  0  2  0  0  3  0  0  0  0  0  0
  189.5110  174.8920  142.8910 C   0  0  0  0  0  0  0  0  0  0  0  0
  189.5980  175.9500  146.2770 C   0  0  0  0  0  0  0  0  0  0  0  0
  184.1680  178.8250  143.9560 C   0  0  0  0  0  1  0  0  0  0  0  0
  191.6640  176.8430  145.1610 C   0  0  0  0  0  2  0  0  0  0  0  0
  188.6500  173.8240  143.1970 C   0  0  0  0  0  3  0  0  0  0  0  0
  191.2810  173.2820  142.4450 C   0  0  0  0  0  3  0  0  0  0  0  0
  190.4080  172.2320  142.7290 C   0  0  0  0  0  3  0  0  0  0  0  0
  193.0030  175.6910  143.2850 C   0  0  0  0  0  2  0  0  0  0  0  0
  187.9540  177.1460  145.0280 C   0  0  1  0  0  3  0  0  0  0  0  0
  190.2720  176.4090  145.1180 N   0  0  0  0  0  0  0  0  0  0  0  0
  186.9370  176.4590  144.1310 C   0  0  2  0  0  3  0  0  0  0  0  0
  187.3690  176.0730  147.1430 O   0  0  0  0  0  0  0  0  0  0  0  0
  189.0180  176.3300  142.9350 C   0  0  1  0  0  3  0  0  0  0  0  0
  1 16  1  0  0  0  0
  4 20  1  0  0  0  0
  5 17  1  0  0  0  0
  5 27  2  0  0  0  0
  6  1  1  0  0  0  0
  6 23  1  0  0  0  0
  8  7  1  6  0  0  0
  8 14  1  0  0  0  0
  8  2  1  0  0  0  0
  8 10  1  0  0  0  0
  9 18  1  6  0  0  0
  9 13  1  0  0  0  0
 10 28  1  0  0  0  0
 10 26  1  0  0  0  0
 12 24  1  0  0  0  0
 12 25  1  0  0  0  0
 14  9  1  0  0  0  0
 15 19  1  0  0  0  0
 15 11  1  0  0  0  0
 16 28  1  0  0  0  0
 16 20  2  0  0  0  0
 17  3  2  0  0  0  0
 21  1  2  0  0  0  0
 21 22  1  0  0  0  0
 22  4  2  0  0  0  0
 23 15  1  0  0  0  0
 24  5  1  0  0  0  0
 25 19  1  0  0  0  0
 25 17  1  0  0  0  0
 26 13  1  0  0  0  0
 26 24  1  0  0  0  0
 28 12  1  0  0  0  0
M  END
>  <MODEL>
5

>  <REMARK>
 VINA RESULT:      -7.8      2.263      4.124
  Name = 
  0 active torsions:
  status: ('A' for Active; 'I' for Inactive)
                            x       y       z     vdW  Elec       q    Type
                         _______ _______ _______ _____ _____    ______ ____

>  <TORSDO>
F 0

$$$$
=
 OpenBabel11112417383D

 28 32  0  0  1  0  0  0  0  0999 V2000
  190.5690  175.0090  144.5310 C   0  0  0  0  0  0  0  0  0  0  0  0
  185.7460  176.3290  143.8850 F   0  0  0  0  0  0  0  0  0  0  0  0
  189.8870  172.9090  140.2820 O   0  0  0  0  0  0  0  0  0  0  0  0
  192.0700  176.7150  142.8920 C   0  0  0  0  0  3  0  0  0  0  0  0
  188.3030  174.7030  140.2400 C   0  0  0  0  0  0  0  0  0  0  0  0
  189.7950  174.0310  145.3600 C   0  0  0  0  0  2  0  0  0  0  0  0
  186.7660  178.2190  144.8600 C   0  0  0  0  0  1  0  0  0  0  0  0
  186.4860  177.4610  143.5770 C   0  0  1  0  0  0  0  0  0  0  0  0
  185.5620  177.6790  141.2970 C   0  0  1  0  0  3  0  0  0  0  0  0
  187.8290  177.0930  142.9050 C   0  0  2  0  0  3  0  0  0  0  0  0
  191.2410  172.5510  142.9250 O   0  0  0  0  0  1  0  0  0  0  0  0
  187.8270  174.6640  142.5780 C   0  0  1  0  0  3  0  0  0  0  0  0
  186.8300  177.6620  140.6880 O   0  0  0  0  0  0  0  0  0  0  0  0
  185.6540  178.3450  142.6620 C   0  0  0  0  0  2  0  0  0  0  0  0
  190.1580  172.0910  143.6770 C   0  0  2  0  0  3  0  0  0  0  0  0
  189.9120  175.8230  143.5850 C   0  0  0  0  0  0  0  0  0  0  0  0
  189.0920  173.6850  140.8750 C   0  0  0  0  0  0  0  0  0  0  0  0
  184.5960  178.4520  140.4260 C   0  0  0  0  0  1  0  0  0  0  0  0
  188.8170  172.3530  142.9870 C   0  0  0  0  0  2  0  0  0  0  0  0
  190.6820  176.6570  142.7560 C   0  0  0  0  0  3  0  0  0  0  0  0
  191.9610  175.0880  144.6740 C   0  0  0  0  0  3  0  0  0  0  0  0
  192.7090  175.9390  143.8590 C   0  0  0  0  0  3  0  0  0  0  0  0
  190.2320  172.5820  145.1280 C   0  0  0  0  0  2  0  0  0  0  0  0
  187.3950  175.3220  141.2430 C   0  0  1  0  0  3  0  0  0  0  0  0
  188.8060  173.6190  142.2610 N   0  0  0  0  0  0  0  0  0  0  0  0
  187.6980  176.8030  141.4040 C   0  0  2  0  0  3  0  0  0  0  0  0
  188.3390  174.9910  139.0140 O   0  0  0  0  0  0  0  0  0  0  0  0
  188.3970  175.7900  143.4690 C   0  0  1  0  0  3  0  0  0  0  0  0
  1 21  1  0  0  0  0
  1  6  1  0  0  0  0
  3 17  2  0  0  0  0
  4 22  1  0  0  0  0
  5 17  1  0  0  0  0
  5 24  1  0  0  0  0
  8  2  1  0  0  0  0
  8  7  1  1  0  0  0
  9 18  1  6  0  0  0
  9 14  1  0  0  0  0
 10 28  1  0  0  0  0
 10  8  1  0  0  0  0
 11 15  1  0  0  0  0
 12 28  1  0  0  0  0
 13  9  1  0  0  0  0
 13 26  1  0  0  0  0
 14  8  1  0  0  0  0
 15 23  1  0  0  0  0
 16  1  2  0  0  0  0
 17 25  1  0  0  0  0
 19 15  1  0  0  0  0
 20  4  2  0  0  0  0
 20 16  1  0  0  0  0
 22 21  2  0  0  0  0
 23  6  1  0  0  0  0
 24 26  1  0  0  0  0
 24 12  1  0  0  0  0
 25 12  1  0  0  0  0
 25 19  1  0  0  0  0
 26 10  1  0  0  0  0
 27  5  2  0  0  0  0
 28 16  1  0  0  0  0
M  END
>  <MODEL>
6

>  <REMARK>
 VINA RESULT:      -7.4      1.450      1.890
  Name = 
  0 active torsions:
  status: ('A' for Active; 'I' for Inactive)
                            x       y       z     vdW  Elec       q    Type
                         _______ _______ _______ _____ _____    ______ ____

>  <TORSDO>
F 0

$$$$
=
 OpenBabel11112417383D

 28 32  0  0  1  0  0  0  0  0999 V2000
  192.5600  174.0220  143.6960 C   0  0  0  0  0  0  0  0  0  0  0  0
  188.4860  175.1770  146.4330 F   0  0  0  0  0  0  0  0  0  0  0  0
  189.3630  174.0120  140.1320 O   0  0  0  0  0  0  0  0  0  0  0  0
  193.2990  176.3750  142.3660 C   0  0  0  0  0  3  0  0  0  0  0  0
  188.3870  175.5280  141.7070 C   0  0  0  0  0  0  0  0  0  0  0  0
  192.1510  172.7280  144.3300 C   0  0  0  0  0  2  0  0  0  0  0  0
  190.2200  176.4900  147.3450 C   0  0  0  0  0  1  0  0  0  0  0  0
  189.1690  176.3710  146.2590 C   0  0  1  0  0  0  0  0  0  0  0  0
  187.2600  177.5290  145.2020 C   0  0  1  0  0  3  0  0  0  0  0  0
  189.8600  176.4320  144.8770 C   0  0  2  0  0  3  0  0  0  0  0  0
  191.7880  172.5950  141.1580 O   0  0  0  0  0  1  0  0  0  0  0  0
  189.1990  174.4140  143.6540 C   0  0  1  0  0  3  0  0  0  0  0  0
  187.9930  177.8690  144.0500 O   0  0  0  0  0  0  0  0  0  0  0  0
  188.1800  177.5160  146.4130 C   0  0  0  0  0  2  0  0  0  0  0  0
  191.1880  171.7780  142.1180 C   0  0  2  0  0  3  0  0  0  0  0  0
  191.6870  175.1300  143.7020 C   0  0  0  0  0  0  0  0  0  0  0  0
  189.1670  174.3870  141.3180 C   0  0  0  0  0  0  0  0  0  0  0  0
  186.1610  178.5470  145.4170 C   0  0  0  0  0  1  0  0  0  0  0  0
  189.7680  172.2340  142.4650 C   0  0  0  0  0  2  0  0  0  0  0  0
  192.0630  176.2950  143.0120 C   0  0  0  0  0  3  0  0  0  0  0  0
  193.8060  174.1180  143.0610 C   0  0  0  0  0  3  0  0  0  0  0  0
  194.1750  175.2900  142.4000 C   0  0  0  0  0  3  0  0  0  0  0  0
  192.1020  171.5690  143.3310 C   0  0  0  0  0  2  0  0  0  0  0  0
  188.2790  175.5710  143.1900 C   0  0  1  0  0  3  0  0  0  0  0  0
  189.6360  173.6870  142.4570 N   0  0  0  0  0  0  0  0  0  0  0  0
  188.9120  176.8380  143.7410 C   0  0  2  0  0  3  0  0  0  0  0  0
  187.8380  176.3370  140.9130 O   0  0  0  0  0  0  0  0  0  0  0  0
  190.3620  175.0540  144.4440 C   0  0  1  0  0  3  0  0  0  0  0  0
  1 16  1  0  0  0  0
  1  6  1  0  0  0  0
  3 17  2  0  0  0  0
  4 22  2  0  0  0  0
  4 20  1  0  0  0  0
  5 24  1  0  0  0  0
  8 14  1  0  0  0  0
  8  2  1  0  0  0  0
  8  7  1  1  0  0  0
  9 18  1  1  0  0  0
  9 14  1  0  0  0  0
 10  8  1  0  0  0  0
 11 15  1  0  0  0  0
 12 28  1  0  0  0  0
 13  9  1  0  0  0  0
 15 19  1  0  0  0  0
 15 23  1  0  0  0  0
 16 28  1  0  0  0  0
 17  5  1  0  0  0  0
 17 25  1  0  0  0  0
 20 16  2  0  0  0  0
 21  1  2  0  0  0  0
 22 21  1  0  0  0  0
 23  6  1  0  0  0  0
 24 12  1  0  0  0  0
 24 26  1  0  0  0  0
 25 19  1  0  0  0  0
 25 12  1  0  0  0  0
 26 13  1  0  0  0  0
 26 10  1  0  0  0  0
 27  5  2  0  0  0  0
 28 10  1  0  0  0  0
M  END
>  <MODEL>
7

>  <REMARK>
 VINA RESULT:      -7.3      1.890      2.668
  Name = 
  0 active torsions:
  status: ('A' for Active; 'I' for Inactive)
                            x       y       z     vdW  Elec       q    Type
                         _______ _______ _______ _____ _____    ______ ____

>  <TORSDO>
F 0

$$$$
=
 OpenBabel11112417383D

 28 32  0  0  1  0  0  0  0  0999 V2000
  194.0590  173.8990  144.9100 C   0  0  0  0  0  0  0  0  0  0  0  0
  189.7560  174.9280  147.3280 F   0  0  0  0  0  0  0  0  0  0  0  0
  191.0430  172.8000  141.3580 O   0  0  0  0  0  0  0  0  0  0  0  0
  194.5210  176.0590  143.1870 C   0  0  0  0  0  3  0  0  0  0  0  0
  189.8040  174.4160  142.6160 C   0  0  0  0  0  0  0  0  0  0  0  0
  193.8070  172.6940  145.7630 C   0  0  0  0  0  2  0  0  0  0  0  0
  191.2540  176.6160  148.0130 C   0  0  0  0  0  1  0  0  0  0  0  0
  190.2740  176.1570  146.9510 C   0  0  1  0  0  0  0  0  0  0  0  0
  188.2700  176.8240  145.6710 C   0  0  1  0  0  3  0  0  0  0  0  0
  191.0070  176.0700  145.5920 C   0  0  2  0  0  3  0  0  0  0  0  0
  193.5960  171.9480  142.6630 O   0  0  0  0  0  1  0  0  0  0  0  0
  190.6810  173.7930  144.7450 C   0  0  1  0  0  3  0  0  0  0  0  0
  188.9950  177.0560  144.4880 O   0  0  0  0  0  0  0  0  0  0  0  0
  189.1320  177.1580  146.8790 C   0  0  0  0  0  2  0  0  0  0  0  0
  193.0750  171.2370  143.7460 C   0  0  2  0  0  3  0  0  0  0  0  0
  193.0430  174.8540  144.7020 C   0  0  0  0  0  0  0  0  0  0  0  0
  190.7490  173.3470  142.4530 C   0  0  0  0  0  0  0  0  0  0  0  0
  187.0330  177.6970  145.6800 C   0  0  0  0  0  1  0  0  0  0  0  0
  191.5930  171.5410  143.9810 C   0  0  0  0  0  2  0  0  0  0  0  0
  193.2830  175.9200  143.8170 C   0  0  0  0  0  3  0  0  0  0  0  0
  195.3050  174.0570  144.2880 C   0  0  0  0  0  3  0  0  0  0  0  0
  195.5360  175.1340  143.4310 C   0  0  0  0  0  3  0  0  0  0  0  0
  193.9580  171.3800  144.9910 C   0  0  0  0  0  2  0  0  0  0  0  0
  189.6300  174.7060  144.0650 C   0  0  1  0  0  3  0  0  0  0  0  0
  191.2630  172.9350  143.7080 N   0  0  0  0  0  0  0  0  0  0  0  0
  190.0600  176.1280  144.3860 C   0  0  2  0  0  3  0  0  0  0  0  0
  189.1820  174.9840  141.6800 O   0  0  0  0  0  0  0  0  0  0  0  0
  191.7110  174.7230  145.4240 C   0  0  1  0  0  3  0  0  0  0  0  0
  1  6  1  0  0  0  0
  3 17  2  0  0  0  0
  4 22  2  0  0  0  0
  4 20  1  0  0  0  0
  5 24  1  0  0  0  0
  8  2  1  0  0  0  0
  8  7  1  1  0  0  0
  9 18  1  6  0  0  0
  9 14  1  0  0  0  0
 10  8  1  0  0  0  0
 11 15  1  0  0  0  0
 12 28  1  0  0  0  0
 13  9  1  0  0  0  0
 14  8  1  0  0  0  0
 15 19  1  0  0  0  0
 15 23  1  0  0  0  0
 16  1  1  0  0  0  0
 16 28  1  0  0  0  0
 17  5  1  0  0  0  0
 17 25  1  0  0  0  0
 20 16  2  0  0  0  0
 21  1  2  0  0  0  0
 22 21  1  0  0  0  0
 23  6  1  0  0  0  0
 24 26  1  0  0  0  0
 24 12  1  0  0  0  0
 25 19  1  0  0  0  0
 25 12  1  0  0  0  0
 26 13  1  0  0  0  0
 26 10  1  0  0  0  0
 27  5  2  0  0  0  0
 28 10  1  0  0  0  0
M  END
>  <MODEL>
8

>  <REMARK>
 VINA RESULT:      -7.3      2.637      3.961
  Name = 
  0 active torsions:
  status: ('A' for Active; 'I' for Inactive)
                            x       y       z     vdW  Elec       q    Type
                         _______ _______ _______ _____ _____    ______ ____

>  <TORSDO>
F 0

$$$$
=
 OpenBabel11112417383D

 28 32  0  0  1  0  0  0  0  0999 V2000
  187.3520  176.6190  143.3990 C   0  0  0  0  0  0  0  0  0  0  0  0
  189.2990  172.0960  144.4810 F   0  0  0  0  0  0  0  0  0  0  0  0
  189.8930  177.9130  147.2460 O   0  0  0  0  0  0  0  0  0  0  0  0
  189.4030  178.0770  142.1660 C   0  0  0  0  0  3  0  0  0  0  0  0
  191.1100  176.0220  146.4250 C   0  0  0  0  0  0  0  0  0  0  0  0
  186.2550  175.8980  144.1210 C   0  0  0  0  0  2  0  0  0  0  0  0
  189.3330  172.2230  142.1270 C   0  0  0  0  0  1  0  0  0  0  0  0
  190.0450  172.5780  143.4170 C   0  0  1  0  0  0  0  0  0  0  0  0
  192.2020  172.4170  144.6090 C   0  0  1  0  0  3  0  0  0  0  0  0
  190.2160  174.1130  143.4940 C   0  0  2  0  0  3  0  0  0  0  0  0
  187.2950  178.3840  145.8400 O   0  0  0  0  0  1  0  0  0  0  0  0
  189.2050  174.8430  145.6040 C   0  0  1  0  0  3  0  0  0  0  0  0
  192.5170  173.7730  144.4030 O   0  0  0  0  0  0  0  0  0  0  0  0
  191.4000  171.8890  143.4290 C   0  0  0  0  0  2  0  0  0  0  0  0
  186.5820  177.2730  146.2960 C   0  0  2  0  0  3  0  0  0  0  0  0
  188.6690  176.1180  143.4140 C   0  0  0  0  0  0  0  0  0  0  0  0
  189.9250  176.7970  146.6620 C   0  0  0  0  0  0  0  0  0  0  0  0
  193.4820  171.6200  144.7430 C   0  0  0  0  0  1  0  0  0  0  0  0
  187.4950  176.2080  146.9090 C   0  0  0  0  0  2  0  0  0  0  0  0
  189.6900  176.8710  142.8100 C   0  0  0  0  0  3  0  0  0  0  0  0
  187.0690  177.8210  142.7350 C   0  0  0  0  0  3  0  0  0  0  0  0
  188.0900  178.5450  142.1190 C   0  0  0  0  0  3  0  0  0  0  0  0
  185.6180  176.7440  145.2270 C   0  0  0  0  0  2  0  0  0  0  0  0
  190.7320  174.7110  145.8310 C   0  0  1  0  0  3  0  0  0  0  0  0
  188.7730  176.1060  146.2120 N   0  0  0  0  0  0  0  0  0  0  0  0
  191.3360  174.5530  144.4450 C   0  0  2  0  0  3  0  0  0  0  0  0
  192.2810  176.3760  146.7230 O   0  0  0  0  0  0  0  0  0  0  0  0
  188.9710  174.7830  144.0770 C   0  0  1  0  0  3  0  0  0  0  0  0
  1 16  1  0  0  0  0
  1  6  1  0  0  0  0
  4 20  1  0  0  0  0
  5 17  1  0  0  0  0
  5 27  2  0  0  0  0
  6 23  1  0  0  0  0
  8  7  1  6  0  0  0
  8 14  1  0  0  0  0
  8 10  1  0  0  0  0
  8  2  1  0  0  0  0
  9 18  1  6  0  0  0
 10 28  1  0  0  0  0
 10 26  1  0  0  0  0
 11 15  1  0  0  0  0
 12 24  1  0  0  0  0
 12 25  1  0  0  0  0
 13 26  1  0  0  0  0
 13  9  1  0  0  0  0
 14  9  1  0  0  0  0
 15 19  1  0  0  0  0
 16 28  1  0  0  0  0
 17  3  2  0  0  0  0
 20 16  2  0  0  0  0
 21  1  2  0  0  0  0
 22  4  2  0  0  0  0
 22 21  1  0  0  0  0
 23 15  1  0  0  0  0
 24  5  1  0  0  0  0
 25 17  1  0  0  0  0
 25 19  1  0  0  0  0
 26 24  1  0  0  0  0
 28 12  1  0  0  0  0
M  END
>  <MODEL>
9

>  <REMARK>
 VINA RESULT:      -7.3      2.633      6.296
  Name = 
  0 active torsions:
  status: ('A' for Active; 'I' for Inactive)
                            x       y       z     vdW  Elec       q    Type
                         _______ _______ _______ _____ _____    ______ ____

>  <TORSDO>
F 0

$$$$
