=
 OpenBabel11112417103D

 37 44  0  0  1  0  0  0  0  0999 V2000
  190.8110  173.3870  141.4830 C   0  0  0  0  0  2  0  0  0  0  0  0
  194.9590  174.7190  143.0120 C   0  0  0  0  0  0  0  0  0  0  0  0
  191.7560  175.9890  145.3600 C   0  0  0  0  0  0  0  0  0  0  0  0
  190.0410  173.2030  140.2590 N   0  0  0  0  0  0  0  0  0  0  0  0
  188.4300  176.0490  143.3660 C   0  0  0  0  0  2  0  0  0  0  0  0
  194.1170  175.4670  145.2890 C   0  0  0  0  0  0  0  0  0  0  0  0
  190.6930  175.7960  144.5050 C   0  0  0  0  0  0  0  0  0  0  0  0
  187.8980  172.8600  141.4870 C   0  0  2  0  0  3  0  0  0  0  0  0
  192.8520  175.4600  144.7360 C   0  0  0  0  0  0  0  0  0  0  0  0
  189.2880  176.2320  144.6070 C   0  0  0  0  0  0  0  0  0  0  0  0
  194.2610  176.0190  146.5720 C   0  0  0  0  0  3  0  0  0  0  0  0
  188.9530  172.2720  140.5420 C   0  0  0  0  0  2  0  0  0  0  0  0
  192.5510  174.9460  143.5430 N   0  0  0  0  0  0  0  0  0  0  0  0
  195.9310  173.7310  142.4010 C   0  0  0  0  0  1  0  0  0  0  0  0
  190.7060  177.0380  147.3800 C   0  0  0  0  0  3  0  0  0  0  0  0
  193.1320  176.5540  147.2380 C   0  0  0  0  0  3  0  0  0  0  0  0
  193.5190  174.2510  142.6960 C   0  0  0  0  0  2  0  0  0  0  0  0
  187.8480  174.3880  141.4590 C   0  0  0  0  0  2  0  0  0  0  0  0
  188.9320  175.0420  142.3190 C   0  0  1  0  0  0  0  0  0  0  0  0
  191.8560  176.5420  146.6290 C   0  0  0  0  0  0  0  0  0  0  0  0
  191.2150  175.1190  143.4030 C   0  0  0  0  0  0  0  0  0  0  0  0
  195.2390  174.8070  144.5340 C   0  0  0  0  0  2  0  0  0  0  0  0
  188.7500  176.8400  145.6990 C   0  0  0  0  0  0  0  0  0  0  0  0
  195.1990  176.0770  142.3740 C   0  0  0  0  0  1  0  0  0  0  0  0
  189.8760  175.6780  141.4710 O   0  0  0  0  0  0  0  0  0  0  0  0
  188.0780  172.3880  142.7750 F   0  0  0  0  0  0  0  0  0  0  0  0
  190.3740  174.6360  142.2660 C   0  0  1  0  0  0  0  0  0  0  0  0
  189.4370  177.1460  146.9810 C   0  0  0  0  0  3  0  0  0  0  0  0
  186.3740  176.5280  146.4030 C   0  0  0  0  0  3  0  0  0  0  0  0
  187.3320  177.2680  145.6930 C   0  0  0  0  0  0  0  0  0  0  0  0
  186.9380  178.4380  145.0240 C   0  0  0  0  0  3  0  0  0  0  0  0
  185.2300  179.9750  144.3940 F   0  0  0  0  0  0  0  0  0  0  0  0
  184.6530  178.1000  145.7470 C   0  0  0  0  0  3  0  0  0  0  0  0
  185.6030  178.8490  145.0470 C   0  0  0  0  0  0  0  0  0  0  0  0
  185.0380  176.9400  146.4260 C   0  0  0  0  0  3  0  0  0  0  0  0
  190.5750  171.0670  139.2300 C   0  0  0  0  0  1  0  0  0  0  0  0
  190.9140  172.5440  139.3040 C   0  0  0  0  0  2  0  0  0  0  0  0
  2 22  1  0  0  0  0
  3 20  1  0  0  0  0
  4 12  1  0  0  0  0
  4  1  1  0  0  0  0
  5 10  1  0  0  0  0
  6 11  2  0  0  0  0
  7 10  1  0  0  0  0
  7  3  1  0  0  0  0
  8 26  1  1  0  0  0
  9  6  1  0  0  0  0
  9  3  2  0  0  0  0
 10 23  2  0  0  0  0
 11 16  1  0  0  0  0
 12  8  1  0  0  0  0
 13  9  1  0  0  0  0
 14  2  1  0  0  0  0
 17  2  1  0  0  0  0
 17 13  1  0  0  0  0
 18  8  1  0  0  0  0
 19 18  1  6  0  0  0
 19  5  1  0  0  0  0
 20 16  2  0  0  0  0
 20 15  1  0  0  0  0
 21 13  1  0  0  0  0
 21  7  2  0  0  0  0
 22  6  1  0  0  0  0
 23 28  1  0  0  0  0
 24  2  1  0  0  0  0
 25 27  1  0  0  0  0
 25 19  1  0  0  0  0
 27  1  1  6  0  0  0
 27 19  1  0  0  0  0
 27 21  1  0  0  0  0
 28 15  2  0  0  0  0
 29 35  1  0  0  0  0
 30 23  1  0  0  0  0
 30 29  2  0  0  0  0
 31 34  2  0  0  0  0
 31 30  1  0  0  0  0
 32 34  1  0  0  0  0
 33 35  2  0  0  0  0
 34 33  1  0  0  0  0
 36 37  1  0  0  0  0
 37  4  1  0  0  0  0
M  END
>  <MODEL>
1

>  <REMARK>
 VINA RESULT:      -9.6      0.000      0.000
  Name = 
  2 active torsions:
  status: ('A' for Active; 'I' for Inactive)
    1  A    between atoms: N_4  and  C_37
    2  A    between atoms: C_23  and  C_30
                            x       y       z     vdW  Elec       q    Type
                         _______ _______ _______ _____ _____    ______ ____

>  <TORSDO>
F 2

$$$$
=
 OpenBabel11112417103D

 37 44  0  0  1  0  0  0  0  0999 V2000
  191.1060  173.1690  141.4800 C   0  0  0  0  0  2  0  0  0  0  0  0
  195.2380  174.5040  143.0520 C   0  0  0  0  0  0  0  0  0  0  0  0
  192.0010  175.8900  145.2870 C   0  0  0  0  0  0  0  0  0  0  0  0
  190.3600  172.9530  140.2470 N   0  0  0  0  0  0  0  0  0  0  0  0
  188.7190  175.9210  143.2210 C   0  0  0  0  0  2  0  0  0  0  0  0
  194.3570  175.3390  145.2840 C   0  0  0  0  0  0  0  0  0  0  0  0
  190.9540  175.6800  144.4160 C   0  0  0  0  0  0  0  0  0  0  0  0
  188.1870  172.6760  141.4390 C   0  0  2  0  0  3  0  0  0  0  0  0
  193.1040  175.3280  144.7040 C   0  0  0  0  0  0  0  0  0  0  0  0
  189.5530  176.1360  144.4740 C   0  0  0  0  0  0  0  0  0  0  0  0
  194.4810  175.9320  146.5510 C   0  0  0  0  0  3  0  0  0  0  0  0
  189.2550  172.0440  140.5370 C   0  0  0  0  0  2  0  0  0  0  0  0
  192.8210  174.7770  143.5240 N   0  0  0  0  0  0  0  0  0  0  0  0
  196.2090  173.4860  142.4950 C   0  0  0  0  0  1  0  0  0  0  0  0
  190.9220  177.0180  147.2480 C   0  0  0  0  0  3  0  0  0  0  0  0
  193.3440  176.5020  147.1740 C   0  0  0  0  0  3  0  0  0  0  0  0
  193.7990  174.0430  142.7210 C   0  0  0  0  0  2  0  0  0  0  0  0
  188.1570  174.2030  141.3590 C   0  0  0  0  0  2  0  0  0  0  0  0
  189.2310  174.8730  142.2200 C   0  0  1  0  0  0  0  0  0  0  0  0
  192.0810  176.4840  146.5390 C   0  0  0  0  0  0  0  0  0  0  0  0
  191.4910  174.9610  143.3490 C   0  0  0  0  0  0  0  0  0  0  0  0
  195.4870  174.6410  144.5760 C   0  0  0  0  0  2  0  0  0  0  0  0
  189.0000  176.7860  145.5330 C   0  0  0  0  0  0  0  0  0  0  0  0
  195.5070  175.8370  142.3740 C   0  0  0  0  0  1  0  0  0  0  0  0
  190.2000  175.4700  141.3710 O   0  0  0  0  0  0  0  0  0  0  0  0
  188.3350  172.2460  142.7460 F   0  0  0  0  0  0  0  0  0  0  0  0
  190.6690  174.4490  142.2110 C   0  0  1  0  0  0  0  0  0  0  0  0
  189.6630  177.1270  146.8190 C   0  0  0  0  0  3  0  0  0  0  0  0
  187.2170  178.2940  144.6440 C   0  0  0  0  0  3  0  0  0  0  0  0
  187.5870  177.2300  145.4820 C   0  0  0  0  0  0  0  0  0  0  0  0
  186.6000  176.5670  146.2260 C   0  0  0  0  0  3  0  0  0  0  0  0
  184.3190  176.3340  146.8780 F   0  0  0  0  0  0  0  0  0  0  0  0
  184.9060  178.0420  145.3240 C   0  0  0  0  0  3  0  0  0  0  0  0
  185.2660  176.9750  146.1520 C   0  0  0  0  0  0  0  0  0  0  0  0
  185.8820  178.7010  144.5690 C   0  0  0  0  0  3  0  0  0  0  0  0
  191.2940  170.7800  139.6920 C   0  0  0  0  0  1  0  0  0  0  0  0
  191.2450  172.2520  139.3330 C   0  0  0  0  0  2  0  0  0  0  0  0
  2 22  1  0  0  0  0
  3 20  1  0  0  0  0
  4 12  1  0  0  0  0
  4  1  1  0  0  0  0
  5 10  1  0  0  0  0
  6 11  2  0  0  0  0
  7 10  1  0  0  0  0
  7  3  1  0  0  0  0
  8 26  1  1  0  0  0
  9  6  1  0  0  0  0
  9  3  2  0  0  0  0
 10 23  2  0  0  0  0
 11 16  1  0  0  0  0
 12  8  1  0  0  0  0
 13  9  1  0  0  0  0
 14  2  1  0  0  0  0
 17  2  1  0  0  0  0
 17 13  1  0  0  0  0
 18  8  1  0  0  0  0
 19 18  1  6  0  0  0
 19  5  1  0  0  0  0
 20 16  2  0  0  0  0
 20 15  1  0  0  0  0
 21 13  1  0  0  0  0
 21  7  2  0  0  0  0
 22  6  1  0  0  0  0
 23 28  1  0  0  0  0
 24  2  1  0  0  0  0
 25 27  1  0  0  0  0
 25 19  1  0  0  0  0
 27  1  1  6  0  0  0
 27 19  1  0  0  0  0
 27 21  1  0  0  0  0
 28 15  2  0  0  0  0
 29 30  1  0  0  0  0
 30 23  1  0  0  0  0
 30 31  2  0  0  0  0
 33 34  2  0  0  0  0
 34 31  1  0  0  0  0
 34 32  1  0  0  0  0
 35 29  2  0  0  0  0
 35 33  1  0  0  0  0
 37 36  1  0  0  0  0
 37  4  1  0  0  0  0
M  END
>  <MODEL>
2

>  <REMARK>
 VINA RESULT:      -9.0      0.828      1.147
  Name = 
  2 active torsions:
  status: ('A' for Active; 'I' for Inactive)
    1  A    between atoms: N_4  and  C_37
    2  A    between atoms: C_23  and  C_30
                            x       y       z     vdW  Elec       q    Type
                         _______ _______ _______ _____ _____    ______ ____

>  <TORSDO>
F 2

$$$$
=
 OpenBabel11112417103D

 37 44  0  0  1  0  0  0  0  0999 V2000
  193.0730  174.2320  144.4030 C   0  0  0  0  0  2  0  0  0  0  0  0
  192.1050  171.7430  140.6360 C   0  0  0  0  0  0  0  0  0  0  0  0
  189.2480  174.6270  141.5900 C   0  0  0  0  0  0  0  0  0  0  0  0
  193.6290  174.1170  145.7460 N   0  0  0  0  0  0  0  0  0  0  0  0
  189.4050  175.6420  145.3310 C   0  0  0  0  0  2  0  0  0  0  0  0
  190.2330  173.2700  139.8470 C   0  0  0  0  0  0  0  0  0  0  0  0
  189.5810  174.9260  142.8940 C   0  0  0  0  0  0  0  0  0  0  0  0
  192.9050  176.4120  146.3990 C   0  0  2  0  0  3  0  0  0  0  0  0
  190.2240  173.7890  141.1270 C   0  0  0  0  0  0  0  0  0  0  0  0
  188.8590  175.7080  143.9130 C   0  0  0  0  0  0  0  0  0  0  0  0
  189.1980  173.6590  138.9810 C   0  0  0  0  0  3  0  0  0  0  0  0
  194.0710  175.4420  146.1690 C   0  0  0  0  0  2  0  0  0  0  0  0
  191.1520  173.5390  142.0510 N   0  0  0  0  0  0  0  0  0  0  0  0
  193.4440  171.2120  140.1700 C   0  0  0  0  0  1  0  0  0  0  0  0
  187.1920  176.0000  141.1780 C   0  0  0  0  0  3  0  0  0  0  0  0
  188.1910  174.5410  139.4430 C   0  0  0  0  0  3  0  0  0  0  0  0
  192.3460  172.7340  141.7980 C   0  0  0  0  0  2  0  0  0  0  0  0
  191.5900  175.7050  146.7300 C   0  0  0  0  0  2  0  0  0  0  0  0
  190.8610  175.1780  145.4910 C   0  0  1  0  0  0  0  0  0  0  0  0
  188.2090  175.0370  140.7660 C   0  0  0  0  0  0  0  0  0  0  0  0
  190.7830  174.2600  143.1370 C   0  0  0  0  0  0  0  0  0  0  0  0
  191.3880  172.4010  139.4280 C   0  0  0  0  0  2  0  0  0  0  0  0
  187.7190  176.4110  143.6770 C   0  0  0  0  0  0  0  0  0  0  0  0
  191.2780  170.5710  141.1370 C   0  0  0  0  0  1  0  0  0  0  0  0
  190.9030  173.7590  145.4970 O   0  0  0  0  0  0  0  0  0  0  0  0
  192.7580  177.2640  145.3190 F   0  0  0  0  0  0  0  0  0  0  0  0
  191.5430  174.3840  144.4170 C   0  0  1  0  0  0  0  0  0  0  0  0
  187.0120  176.5580  142.3770 C   0  0  0  0  0  3  0  0  0  0  0  0
  186.6010  178.4580  144.5720 C   0  0  0  0  0  3  0  0  0  0  0  0
  187.0500  177.1440  144.7770 C   0  0  0  0  0  0  0  0  0  0  0  0
  186.8150  176.5230  146.0130 C   0  0  0  0  0  3  0  0  0  0  0  0
  185.9420  176.6090  148.2290 F   0  0  0  0  0  0  0  0  0  0  0  0
  185.7250  178.5240  146.8290 C   0  0  0  0  0  3  0  0  0  0  0  0
  186.1590  177.2130  147.0360 C   0  0  0  0  0  0  0  0  0  0  0  0
  185.9440  179.1470  145.5960 C   0  0  0  0  0  3  0  0  0  0  0  0
  196.0590  174.1660  145.7610 C   0  0  0  0  0  1  0  0  0  0  0  0
  194.8230  173.2960  145.6400 C   0  0  0  0  0  2  0  0  0  0  0  0
  1  4  1  0  0  0  0
  2 24  1  0  0  0  0
  2 17  1  0  0  0  0
  3  7  1  0  0  0  0
  4 12  1  0  0  0  0
  6  9  2  0  0  0  0
  7 21  2  0  0  0  0
  7 10  1  0  0  0  0
  8 26  1  6  0  0  0
  8 18  1  0  0  0  0
  9  3  1  0  0  0  0
  9 13  1  0  0  0  0
 10  5  1  0  0  0  0
 11 16  2  0  0  0  0
 11  6  1  0  0  0  0
 12  8  1  0  0  0  0
 13 21  1  0  0  0  0
 14  2  1  0  0  0  0
 15 28  2  0  0  0  0
 16 20  1  0  0  0  0
 17 13  1  0  0  0  0
 19  5  1  6  0  0  0
 19 25  1  0  0  0  0
 19 18  1  0  0  0  0
 20 15  1  0  0  0  0
 20  3  2  0  0  0  0
 21 27  1  0  0  0  0
 22  6  1  0  0  0  0
 22  2  1  0  0  0  0
 23 10  2  0  0  0  0
 23 30  1  0  0  0  0
 27  1  1  6  0  0  0
 27 19  1  0  0  0  0
 27 25  1  0  0  0  0
 28 23  1  0  0  0  0
 29 30  2  0  0  0  0
 29 35  1  0  0  0  0
 30 31  1  0  0  0  0
 31 34  2  0  0  0  0
 33 34  1  0  0  0  0
 34 32  1  0  0  0  0
 35 33  2  0  0  0  0
 37  4  1  0  0  0  0
 37 36  1  0  0  0  0
M  END
>  <MODEL>
3

>  <REMARK>
 VINA RESULT:      -8.9      2.241      5.406
  Name = 
  2 active torsions:
  status: ('A' for Active; 'I' for Inactive)
    1  A    between atoms: N_4  and  C_37
    2  A    between atoms: C_23  and  C_30
                            x       y       z     vdW  Elec       q    Type
                         _______ _______ _______ _____ _____    ______ ____

>  <TORSDO>
F 2

$$$$
=
 OpenBabel11112417103D

 37 44  0  0  1  0  0  0  0  0999 V2000
  188.2900  177.5910  144.0070 C   0  0  0  0  0  2  0  0  0  0  0  0
  191.2680  176.5640  147.3830 C   0  0  0  0  0  0  0  0  0  0  0  0
  192.1410  174.8030  143.7060 C   0  0  0  0  0  0  0  0  0  0  0  0
  186.8690  177.7910  143.7480 N   0  0  0  0  0  0  0  0  0  0  0  0
  189.0080  174.5660  141.4310 C   0  0  0  0  0  2  0  0  0  0  0  0
  193.0110  175.5610  145.8320 C   0  0  0  0  0  0  0  0  0  0  0  0
  190.9460  174.9550  143.0360 C   0  0  0  0  0  0  0  0  0  0  0  0
  187.1760  177.8230  141.2740 C   0  0  2  0  0  3  0  0  0  0  0  0
  192.0100  175.4850  144.8840 C   0  0  0  0  0  0  0  0  0  0  0  0
  190.4790  174.3740  141.7640 C   0  0  0  0  0  0  0  0  0  0  0  0
  194.2310  174.9290  145.5390 C   0  0  0  0  0  3  0  0  0  0  0  0
  186.7370  178.5850  142.5300 C   0  0  0  0  0  2  0  0  0  0  0  0
  190.8120  176.0580  145.0020 N   0  0  0  0  0  0  0  0  0  0  0  0
  191.1160  177.6880  148.3860 C   0  0  0  0  0  1  0  0  0  0  0  0
  193.5570  173.5010  142.0980 C   0  0  0  0  0  3  0  0  0  0  0  0
  194.3860  174.2340  144.3150 C   0  0  0  0  0  3  0  0  0  0  0  0
  190.4320  176.9090  146.1290 C   0  0  0  0  0  2  0  0  0  0  0  0
  187.0810  176.3040  141.4250 C   0  0  0  0  0  2  0  0  0  0  0  0
  188.2730  175.6970  142.1690 C   0  0  1  0  0  0  0  0  0  0  0  0
  193.3300  174.1660  143.3790 C   0  0  0  0  0  0  0  0  0  0  0  0
  190.1570  175.7640  143.8530 C   0  0  0  0  0  0  0  0  0  0  0  0
  192.7750  176.3860  147.0670 C   0  0  0  0  0  2  0  0  0  0  0  0
  191.2540  173.6330  140.9270 C   0  0  0  0  0  0  0  0  0  0  0  0
  190.7290  175.2900  148.0120 C   0  0  0  0  0  1  0  0  0  0  0  0
  187.8390  175.2250  143.4350 O   0  0  0  0  0  0  0  0  0  0  0  0
  188.4480  178.2080  140.8880 F   0  0  0  0  0  0  0  0  0  0  0  0
  188.7990  176.2480  143.4600 C   0  0  1  0  0  0  0  0  0  0  0  0
  192.6920  173.2980  141.1020 C   0  0  0  0  0  3  0  0  0  0  0  0
  190.6160  173.8540  138.5230 C   0  0  0  0  0  3  0  0  0  0  0  0
  190.6830  173.0670  139.6830 C   0  0  0  0  0  0  0  0  0  0  0  0
  190.2500  171.7330  139.6340 C   0  0  0  0  0  3  0  0  0  0  0  0
  189.3160  169.9130  138.4110 F   0  0  0  0  0  0  0  0  0  0  0  0
  189.6640  171.9920  137.3000 C   0  0  0  0  0  3  0  0  0  0  0  0
  189.7380  171.2000  138.4490 C   0  0  0  0  0  0  0  0  0  0  0  0
  190.1040  173.3190  137.3360 C   0  0  0  0  0  3  0  0  0  0  0  0
  185.5660  179.7750  144.2700 C   0  0  0  0  0  1  0  0  0  0  0  0
  186.3510  178.6060  144.8330 C   0  0  0  0  0  2  0  0  0  0  0  0
  2 24  1  0  0  0  0
  2 14  1  0  0  0  0
  3  9  1  0  0  0  0
  4  1  1  0  0  0  0
  4 37  1  0  0  0  0
  5 10  1  0  0  0  0
  5 19  1  0  0  0  0
  6 22  1  0  0  0  0
  7  3  1  0  0  0  0
  7 21  2  0  0  0  0
  8 26  1  1  0  0  0
  8 18  1  0  0  0  0
  8 12  1  0  0  0  0
  9 13  1  0  0  0  0
  9  6  2  0  0  0  0
 10  7  1  0  0  0  0
 11  6  1  0  0  0  0
 12  4  1  0  0  0  0
 13 17  1  0  0  0  0
 15 20  1  0  0  0  0
 16 11  2  0  0  0  0
 17  2  1  0  0  0  0
 19 18  1  6  0  0  0
 19 25  1  0  0  0  0
 19 27  1  0  0  0  0
 20  3  2  0  0  0  0
 20 16  1  0  0  0  0
 21 13  1  0  0  0  0
 22  2  1  0  0  0  0
 23 28  1  0  0  0  0
 23 10  2  0  0  0  0
 25 27  1  0  0  0  0
 27 21  1  0  0  0  0
 27  1  1  1  0  0  0
 28 15  2  0  0  0  0
 29 30  1  0  0  0  0
 30 23  1  0  0  0  0
 31 30  2  0  0  0  0
 32 34  1  0  0  0  0
 33 35  1  0  0  0  0
 33 34  2  0  0  0  0
 34 31  1  0  0  0  0
 35 29  2  0  0  0  0
 36 37  1  0  0  0  0
M  END
>  <MODEL>
4

>  <REMARK>
 VINA RESULT:      -8.7      2.131      6.601
  Name = 
  2 active torsions:
  status: ('A' for Active; 'I' for Inactive)
    1  A    between atoms: N_4  and  C_37
    2  A    between atoms: C_23  and  C_30
                            x       y       z     vdW  Elec       q    Type
                         _______ _______ _______ _____ _____    ______ ____

>  <TORSDO>
F 2

$$$$
=
 OpenBabel11112417103D

 37 44  0  0  1  0  0  0  0  0999 V2000
  190.9080  173.5530  142.1460 C   0  0  0  0  0  2  0  0  0  0  0  0
  194.2380  174.9850  145.0060 C   0  0  0  0  0  0  0  0  0  0  0  0
  190.4390  176.4570  145.8930 C   0  0  0  0  0  0  0  0  0  0  0  0
  190.6400  173.2740  140.7400 N   0  0  0  0  0  0  0  0  0  0  0  0
  188.0930  176.3710  142.8060 C   0  0  0  0  0  2  0  0  0  0  0  0
  192.6390  175.9200  146.7450 C   0  0  0  0  0  0  0  0  0  0  0  0
  189.7620  176.2000  144.7210 C   0  0  0  0  0  0  0  0  0  0  0  0
  188.1840  173.0420  141.1040 C   0  0  2  0  0  3  0  0  0  0  0  0
  191.6690  175.8740  145.7620 C   0  0  0  0  0  0  0  0  0  0  0  0
  188.4360  176.6500  144.2610 C   0  0  0  0  0  0  0  0  0  0  0  0
  192.3160  176.5730  147.9450 C   0  0  0  0  0  3  0  0  0  0  0  0
  189.4940  172.3740  140.6660 C   0  0  0  0  0  2  0  0  0  0  0  0
  191.8140  175.2660  144.5850 N   0  0  0  0  0  0  0  0  0  0  0  0
  195.3320  173.9460  144.8750 C   0  0  0  0  0  1  0  0  0  0  0  0
  188.7520  177.6710  147.2950 C   0  0  0  0  0  3  0  0  0  0  0  0
  191.0390  177.1660  148.1010 C   0  0  0  0  0  3  0  0  0  0  0  0
  193.0030  174.5000  144.2120 C   0  0  0  0  0  2  0  0  0  0  0  0
  188.2020  174.5630  140.9470 C   0  0  0  0  0  2  0  0  0  0  0  0
  188.9120  175.2800  142.0980 C   0  0  1  0  0  0  0  0  0  0  0  0
  190.0810  177.1110  147.0640 C   0  0  0  0  0  0  0  0  0  0  0  0
  190.6320  175.4330  143.9450 C   0  0  0  0  0  0  0  0  0  0  0  0
  193.9370  175.1960  146.5130 C   0  0  0  0  0  2  0  0  0  0  0  0
  187.5530  177.3470  145.0250 C   0  0  0  0  0  0  0  0  0  0  0  0
  194.7440  176.2850  144.4050 C   0  0  0  0  0  1  0  0  0  0  0  0
  190.1240  175.8410  141.6180 O   0  0  0  0  0  0  0  0  0  0  0  0
  187.8580  172.6760  142.3980 F   0  0  0  0  0  0  0  0  0  0  0  0
  190.2560  174.8630  142.6160 C   0  0  1  0  0  0  0  0  0  0  0  0
  187.7250  177.7520  146.4450 C   0  0  0  0  0  3  0  0  0  0  0  0
  185.2540  178.2820  145.3090 C   0  0  0  0  0  3  0  0  0  0  0  0
  186.2530  177.7800  144.4610 C   0  0  0  0  0  0  0  0  0  0  0  0
  186.0240  177.7420  143.0770 C   0  0  0  0  0  3  0  0  0  0  0  0
  184.5900  178.1320  141.2140 F   0  0  0  0  0  0  0  0  0  0  0  0
  183.8110  178.6660  143.4020 C   0  0  0  0  0  3  0  0  0  0  0  0
  184.8060  178.1780  142.5500 C   0  0  0  0  0  0  0  0  0  0  0  0
  184.0350  178.7190  144.7810 C   0  0  0  0  0  3  0  0  0  0  0  0
  191.4820  171.0490  140.2450 C   0  0  0  0  0  1  0  0  0  0  0  0
  191.7820  172.5350  140.2300 C   0  0  0  0  0  2  0  0  0  0  0  0
  2 22  1  0  0  0  0
  3 20  1  0  0  0  0
  4  1  1  0  0  0  0
  5 10  1  0  0  0  0
  6 11  2  0  0  0  0
  7  3  1  0  0  0  0
  8 26  1  1  0  0  0
  9  3  2  0  0  0  0
  9  6  1  0  0  0  0
 10  7  1  0  0  0  0
 10 23  2  0  0  0  0
 11 16  1  0  0  0  0
 12  4  1  0  0  0  0
 12  8  1  0  0  0  0
 13  9  1  0  0  0  0
 14  2  1  0  0  0  0
 17 13  1  0  0  0  0
 17  2  1  0  0  0  0
 18  8  1  0  0  0  0
 19 18  1  6  0  0  0
 19 27  1  0  0  0  0
 19  5  1  0  0  0  0
 20 15  1  0  0  0  0
 20 16  2  0  0  0  0
 21 13  1  0  0  0  0
 21  7  2  0  0  0  0
 22  6  1  0  0  0  0
 23 28  1  0  0  0  0
 24  2  1  0  0  0  0
 25 19  1  0  0  0  0
 25 27  1  0  0  0  0
 27  1  1  6  0  0  0
 27 21  1  0  0  0  0
 28 15  2  0  0  0  0
 30 23  1  0  0  0  0
 30 29  2  0  0  0  0
 31 30  1  0  0  0  0
 32 34  1  0  0  0  0
 33 35  2  0  0  0  0
 34 31  2  0  0  0  0
 34 33  1  0  0  0  0
 35 29  1  0  0  0  0
 37 36  1  0  0  0  0
 37  4  1  0  0  0  0
M  END
>  <MODEL>
5

>  <REMARK>
 VINA RESULT:      -8.3      1.264      1.785
  Name = 
  2 active torsions:
  status: ('A' for Active; 'I' for Inactive)
    1  A    between atoms: N_4  and  C_37
    2  A    between atoms: C_23  and  C_30
                            x       y       z     vdW  Elec       q    Type
                         _______ _______ _______ _____ _____    ______ ____

>  <TORSDO>
F 2

$$$$
=
 OpenBabel11112417103D

 37 44  0  0  1  0  0  0  0  0999 V2000
  186.2430  177.7970  142.7190 C   0  0  0  0  0  2  0  0  0  0  0  0
  186.8720  178.0120  147.2880 C   0  0  0  0  0  0  0  0  0  0  0  0
  190.0330  176.2910  145.1810 C   0  0  0  0  0  0  0  0  0  0  0  0
  185.2250  177.5340  141.7090 N   0  0  0  0  0  0  0  0  0  0  0  0
  188.9040  174.9240  141.7320 C   0  0  0  0  0  2  0  0  0  0  0  0
  189.3490  177.4560  147.1880 C   0  0  0  0  0  0  0  0  0  0  0  0
  189.4400  176.0170  143.9680 C   0  0  0  0  0  0  0  0  0  0  0  0
  186.8840  177.4470  139.8490 C   0  0  2  0  0  3  0  0  0  0  0  0
  189.1150  176.9990  145.9060 C   0  0  0  0  0  0  0  0  0  0  0  0
  189.9180  175.2160  142.8260 C   0  0  0  0  0  0  0  0  0  0  0  0
  190.6120  177.2000  147.7480 C   0  0  0  0  0  3  0  0  0  0  0  0
  185.6600  178.1440  140.4560 C   0  0  0  0  0  2  0  0  0  0  0  0
  187.9810  177.1900  145.2310 N   0  0  0  0  0  0  0  0  0  0  0  0
  185.9490  179.1170  147.7530 C   0  0  0  0  0  1  0  0  0  0  0  0
  192.3430  175.3480  144.9360 C   0  0  0  0  0  3  0  0  0  0  0  0
  191.5790  176.4830  147.0010 C   0  0  0  0  0  3  0  0  0  0  0  0
  186.8600  177.9790  145.7420 C   0  0  0  0  0  2  0  0  0  0  0  0
  187.0270  175.9900  140.2890 C   0  0  0  0  0  2  0  0  0  0  0  0
  187.6690  175.8380  141.6710 C   0  0  1  0  0  0  0  0  0  0  0  0
  191.2930  176.0190  145.6970 C   0  0  0  0  0  0  0  0  0  0  0  0
  188.1810  176.6150  144.0210 C   0  0  0  0  0  0  0  0  0  0  0  0
  188.2850  178.2720  147.8710 C   0  0  0  0  0  2  0  0  0  0  0  0
  191.1630  174.6760  142.7340 C   0  0  0  0  0  0  0  0  0  0  0  0
  186.3400  176.6930  147.8230 C   0  0  0  0  0  1  0  0  0  0  0  0
  186.6920  175.3660  142.5860 O   0  0  0  0  0  0  0  0  0  0  0  0
  188.0360  178.1660  140.1140 F   0  0  0  0  0  0  0  0  0  0  0  0
  187.2320  176.6300  142.8670 C   0  0  1  0  0  0  0  0  0  0  0  0
  192.2700  174.8100  143.7160 C   0  0  0  0  0  3  0  0  0  0  0  0
  192.4380  174.3730  140.6080 C   0  0  0  0  0  3  0  0  0  0  0  0
  191.5390  173.8600  141.5560 C   0  0  0  0  0  0  0  0  0  0  0  0
  191.0440  172.5570  141.3990 C   0  0  0  0  0  3  0  0  0  0  0  0
  190.9380  170.5290  140.1500 F   0  0  0  0  0  0  0  0  0  0  0  0
  192.3120  172.3050  139.3520 C   0  0  0  0  0  3  0  0  0  0  0  0
  191.4250  171.7850  140.2990 C   0  0  0  0  0  0  0  0  0  0  0  0
  192.8200  173.5990  139.5070 C   0  0  0  0  0  3  0  0  0  0  0  0
  184.1320  178.6250  143.5860 C   0  0  0  0  0  1  0  0  0  0  0  0
  184.0260  178.2440  142.1220 C   0  0  0  0  0  2  0  0  0  0  0  0
  2 14  1  0  0  0  0
  2 24  1  0  0  0  0
  2 22  1  0  0  0  0
  3 20  2  0  0  0  0
  3  9  1  0  0  0  0
  4 37  1  0  0  0  0
  4  1  1  0  0  0  0
  5 10  1  0  0  0  0
  6 11  1  0  0  0  0
  6 22  1  0  0  0  0
  7 21  2  0  0  0  0
  7  3  1  0  0  0  0
  8 26  1  1  0  0  0
  8 18  1  0  0  0  0
  8 12  1  0  0  0  0
  9  6  2  0  0  0  0
 10  7  1  0  0  0  0
 12  4  1  0  0  0  0
 13 17  1  0  0  0  0
 13  9  1  0  0  0  0
 15 20  1  0  0  0  0
 16 11  2  0  0  0  0
 17  2  1  0  0  0  0
 19 18  1  6  0  0  0
 19  5  1  0  0  0  0
 19 25  1  0  0  0  0
 19 27  1  0  0  0  0
 20 16  1  0  0  0  0
 21 13  1  0  0  0  0
 23 10  2  0  0  0  0
 23 28  1  0  0  0  0
 25 27  1  0  0  0  0
 27  1  1  6  0  0  0
 27 21  1  0  0  0  0
 28 15  2  0  0  0  0
 29 30  1  0  0  0  0
 30 23  1  0  0  0  0
 31 30  2  0  0  0  0
 32 34  1  0  0  0  0
 33 35  1  0  0  0  0
 33 34  2  0  0  0  0
 34 31  1  0  0  0  0
 35 29  2  0  0  0  0
 37 36  1  0  0  0  0
M  END
>  <MODEL>
6

>  <REMARK>
 VINA RESULT:      -8.1      2.511      6.968
  Name = 
  2 active torsions:
  status: ('A' for Active; 'I' for Inactive)
    1  A    between atoms: N_4  and  C_37
    2  A    between atoms: C_23  and  C_30
                            x       y       z     vdW  Elec       q    Type
                         _______ _______ _______ _____ _____    ______ ____

>  <TORSDO>
F 2

$$$$
=
 OpenBabel11112417103D

 37 44  0  0  1  0  0  0  0  0999 V2000
  192.6420  171.7420  140.5370 C   0  0  0  0  0  2  0  0  0  0  0  0
  196.4780  174.0410  139.3880 C   0  0  0  0  0  0  0  0  0  0  0  0
  194.6590  175.3500  142.9050 C   0  0  0  0  0  0  0  0  0  0  0  0
  191.4460  171.1390  139.9600 N   0  0  0  0  0  0  0  0  0  0  0  0
  190.9030  174.3910  143.0390 C   0  0  0  0  0  2  0  0  0  0  0  0
  196.7140  175.1990  141.6370 C   0  0  0  0  0  0  0  0  0  0  0  0
  193.4060  174.7850  142.7950 C   0  0  0  0  0  0  0  0  0  0  0  0
  190.3740  170.7880  142.1840 C   0  0  2  0  0  3  0  0  0  0  0  0
  195.3950  174.8570  141.8630 C   0  0  0  0  0  0  0  0  0  0  0  0
  192.1810  175.0110  143.5820 C   0  0  0  0  0  0  0  0  0  0  0  0
  197.3240  176.0710  142.5530 C   0  0  0  0  0  3  0  0  0  0  0  0
  190.9330  170.1520  140.9060 C   0  0  0  0  0  2  0  0  0  0  0  0
  194.6900  174.0190  141.1020 N   0  0  0  0  0  0  0  0  0  0  0  0
  197.2390  173.0940  138.4840 C   0  0  0  0  0  1  0  0  0  0  0  0
  194.5160  176.6970  145.0130 C   0  0  0  0  0  3  0  0  0  0  0  0
  196.5790  176.5750  143.6470 C   0  0  0  0  0  3  0  0  0  0  0  0
  195.2540  173.2920  139.9650 C   0  0  0  0  0  2  0  0  0  0  0  0
  189.9150  172.2330  141.9870 C   0  0  0  0  0  2  0  0  0  0  0  0
  191.0650  173.2430  142.0300 C   0  0  1  0  0  0  0  0  0  0  0  0
  195.2250  176.2130  143.8330 C   0  0  0  0  0  0  0  0  0  0  0  0
  193.4700  173.9420  141.6860 C   0  0  0  0  0  0  0  0  0  0  0  0
  197.4410  174.5520  140.4900 C   0  0  0  0  0  2  0  0  0  0  0  0
  192.1170  175.7830  144.7000 C   0  0  0  0  0  0  0  0  0  0  0  0
  195.9990  175.2150  138.5500 C   0  0  0  0  0  1  0  0  0  0  0  0
  191.2560  173.7830  140.7320 O   0  0  0  0  0  0  0  0  0  0  0  0
  191.2880  170.6900  143.2190 F   0  0  0  0  0  0  0  0  0  0  0  0
  192.3390  173.0640  141.2590 C   0  0  1  0  0  0  0  0  0  0  0  0
  193.2400  176.5040  145.3540 C   0  0  0  0  0  3  0  0  0  0  0  0
  190.0210  177.0790  145.1070 C   0  0  0  0  0  3  0  0  0  0  0  0
  190.8280  175.9710  145.4060 C   0  0  0  0  0  0  0  0  0  0  0  0
  190.3770  175.0250  146.3400 C   0  0  0  0  0  3  0  0  0  0  0  0
  188.7220  174.2830  147.8860 F   0  0  0  0  0  0  0  0  0  0  0  0
  188.3540  176.3090  146.6860 C   0  0  0  0  0  3  0  0  0  0  0  0
  189.1470  175.1970  146.9810 C   0  0  0  0  0  0  0  0  0  0  0  0
  188.7900  177.2500  145.7480 C   0  0  0  0  0  3  0  0  0  0  0  0
  190.9190  169.2490  138.5260 C   0  0  0  0  0  1  0  0  0  0  0  0
  191.8680  170.4040  138.7810 C   0  0  0  0  0  2  0  0  0  0  0  0
  2 17  1  0  0  0  0
  2 22  1  0  0  0  0
  3 20  1  0  0  0  0
  4  1  1  0  0  0  0
  4 12  1  0  0  0  0
  5 10  1  0  0  0  0
  6  9  1  0  0  0  0
  6 11  2  0  0  0  0
  7  3  1  0  0  0  0
  7 10  1  0  0  0  0
  8 26  1  1  0  0  0
  9  3  2  0  0  0  0
 10 23  2  0  0  0  0
 11 16  1  0  0  0  0
 12  8  1  0  0  0  0
 13 21  1  0  0  0  0
 13  9  1  0  0  0  0
 14  2  1  0  0  0  0
 15 28  2  0  0  0  0
 16 20  2  0  0  0  0
 17 13  1  0  0  0  0
 18  8  1  0  0  0  0
 19 18  1  1  0  0  0
 19  5  1  0  0  0  0
 20 15  1  0  0  0  0
 21  7  2  0  0  0  0
 22  6  1  0  0  0  0
 23 28  1  0  0  0  0
 23 30  1  0  0  0  0
 24  2  1  0  0  0  0
 25 27  1  0  0  0  0
 25 19  1  0  0  0  0
 27  1  1  6  0  0  0
 27 21  1  0  0  0  0
 27 19  1  0  0  0  0
 29 30  2  0  0  0  0
 29 35  1  0  0  0  0
 30 31  1  0  0  0  0
 31 34  2  0  0  0  0
 33 34  1  0  0  0  0
 34 32  1  0  0  0  0
 35 33  2  0  0  0  0
 36 37  1  0  0  0  0
 37  4  1  0  0  0  0
M  END
>  <MODEL>
7

>  <REMARK>
 VINA RESULT:      -8.0      2.404      3.906
  Name = 
  2 active torsions:
  status: ('A' for Active; 'I' for Inactive)
    1  A    between atoms: N_4  and  C_37
    2  A    between atoms: C_23  and  C_30
                            x       y       z     vdW  Elec       q    Type
                         _______ _______ _______ _____ _____    ______ ____

>  <TORSDO>
F 2

$$$$
=
 OpenBabel11112417103D

 37 44  0  0  1  0  0  0  0  0999 V2000
  190.1230  175.9110  144.0980 C   0  0  0  0  0  2  0  0  0  0  0  0
  194.5660  176.2610  145.3060 C   0  0  0  0  0  0  0  0  0  0  0  0
  193.9300  175.1700  141.3320 C   0  0  0  0  0  0  0  0  0  0  0  0
  188.8290  175.4540  144.5910 N   0  0  0  0  0  0  0  0  0  0  0  0
  190.4240  173.5970  140.8030 C   0  0  0  0  0  2  0  0  0  0  0  0
  195.4410  176.1900  142.9220 C   0  0  0  0  0  0  0  0  0  0  0  0
  192.6080  174.7810  141.3600 C   0  0  0  0  0  0  0  0  0  0  0  0
  187.7360  175.6790  142.3610 C   0  0  2  0  0  3  0  0  0  0  0  0
  194.2030  175.6920  142.5660 C   0  0  0  0  0  0  0  0  0  0  0  0
  191.7930  174.0820  140.3510 C   0  0  0  0  0  0  0  0  0  0  0  0
  196.4490  176.1830  141.9440 C   0  0  0  0  0  3  0  0  0  0  0  0
  187.7860  176.1310  143.8260 C   0  0  0  0  0  2  0  0  0  0  0  0
  193.1410  175.6590  143.3710 N   0  0  0  0  0  0  0  0  0  0  0  0
  194.5660  177.1720  146.5160 C   0  0  0  0  0  1  0  0  0  0  0  0
  194.6380  174.6850  138.9760 C   0  0  0  0  0  3  0  0  0  0  0  0
  196.1750  175.6620  140.6570 C   0  0  0  0  0  3  0  0  0  0  0  0
  193.1340  176.2200  144.7220 C   0  0  0  0  0  2  0  0  0  0  0  0
  188.3080  174.2780  142.1430 C   0  0  0  0  0  2  0  0  0  0  0  0
  189.8370  174.2570  142.0610 C   0  0  1  0  0  0  0  0  0  0  0  0
  194.8980  175.1460  140.3370 C   0  0  0  0  0  0  0  0  0  0  0  0
  192.1410  175.1280  142.6280 C   0  0  0  0  0  0  0  0  0  0  0  0
  195.6120  176.7900  144.2910 C   0  0  0  0  0  2  0  0  0  0  0  0
  192.2140  173.7910  139.0900 C   0  0  0  0  0  0  0  0  0  0  0  0
  194.9630  174.8670  145.7610 C   0  0  0  0  0  1  0  0  0  0  0  0
  190.3550  173.6110  143.2130 O   0  0  0  0  0  0  0  0  0  0  0  0
  188.3560  176.6060  141.5420 F   0  0  0  0  0  0  0  0  0  0  0  0
  190.7190  174.9560  143.0520 C   0  0  1  0  0  0  0  0  0  0  0  0
  193.5250  174.1380  138.4830 C   0  0  0  0  0  3  0  0  0  0  0  0
  190.4890  173.7670  137.2830 C   0  0  0  0  0  3  0  0  0  0  0  0
  191.3270  173.0570  138.1570 C   0  0  0  0  0  0  0  0  0  0  0  0
  191.3490  171.6550  138.0990 C   0  0  0  0  0  3  0  0  0  0  0  0
  190.5520  169.6190  137.1510 F   0  0  0  0  0  0  0  0  0  0  0  0
  189.6900  171.6860  136.3370 C   0  0  0  0  0  3  0  0  0  0  0  0
  190.5300  170.9720  137.1970 C   0  0  0  0  0  0  0  0  0  0  0  0
  189.6700  173.0830  136.3790 C   0  0  0  0  0  3  0  0  0  0  0  0
  189.2920  174.8940  146.9100 C   0  0  0  0  0  1  0  0  0  0  0  0
  188.7090  175.9230  145.9610 C   0  0  0  0  0  2  0  0  0  0  0  0
  1  4  1  0  0  0  0
  2 24  1  0  0  0  0
  2 14  1  0  0  0  0
  3  7  1  0  0  0  0
  3  9  1  0  0  0  0
  4 37  1  0  0  0  0
  6 22  1  0  0  0  0
  7 21  2  0  0  0  0
  8 26  1  6  0  0  0
  8 12  1  0  0  0  0
  9  6  2  0  0  0  0
  9 13  1  0  0  0  0
 10  5  1  0  0  0  0
 10  7  1  0  0  0  0
 11  6  1  0  0  0  0
 12  4  1  0  0  0  0
 13 17  1  0  0  0  0
 15 20  1  0  0  0  0
 16 11  2  0  0  0  0
 17  2  1  0  0  0  0
 18  8  1  0  0  0  0
 19  5  1  6  0  0  0
 19 18  1  0  0  0  0
 19 27  1  0  0  0  0
 19 25  1  0  0  0  0
 20 16  1  0  0  0  0
 20  3  2  0  0  0  0
 21 27  1  0  0  0  0
 21 13  1  0  0  0  0
 22  2  1  0  0  0  0
 23 10  2  0  0  0  0
 27 25  1  0  0  0  0
 27  1  1  1  0  0  0
 28 15  2  0  0  0  0
 28 23  1  0  0  0  0
 29 30  1  0  0  0  0
 30 23  1  0  0  0  0
 31 30  2  0  0  0  0
 32 34  1  0  0  0  0
 33 35  1  0  0  0  0
 33 34  2  0  0  0  0
 34 31  1  0  0  0  0
 35 29  2  0  0  0  0
 37 36  1  0  0  0  0
M  END
>  <MODEL>
8

>  <REMARK>
 VINA RESULT:      -7.9      2.316      6.833
  Name = 
  2 active torsions:
  status: ('A' for Active; 'I' for Inactive)
    1  A    between atoms: N_4  and  C_37
    2  A    between atoms: C_23  and  C_30
                            x       y       z     vdW  Elec       q    Type
                         _______ _______ _______ _____ _____    ______ ____

>  <TORSDO>
F 2

$$$$
=
 OpenBabel11112417103D

 37 44  0  0  1  0  0  0  0  0999 V2000
  190.1440  175.9170  144.0520 C   0  0  0  0  0  2  0  0  0  0  0  0
  194.5760  176.2550  145.3030 C   0  0  0  0  0  0  0  0  0  0  0  0
  193.9760  175.1650  141.3230 C   0  0  0  0  0  0  0  0  0  0  0  0
  188.8450  175.4640  144.5320 N   0  0  0  0  0  0  0  0  0  0  0  0
  190.4720  173.6020  140.7600 C   0  0  0  0  0  2  0  0  0  0  0  0
  195.4740  176.1820  142.9280 C   0  0  0  0  0  0  0  0  0  0  0  0
  192.6530  174.7810  141.3380 C   0  0  0  0  0  0  0  0  0  0  0  0
  187.7740  175.6910  142.2920 C   0  0  2  0  0  3  0  0  0  0  0  0
  194.2390  175.6870  142.5600 C   0  0  0  0  0  0  0  0  0  0  0  0
  191.8450  174.0840  140.3210 C   0  0  0  0  0  0  0  0  0  0  0  0
  196.4920  176.1720  141.9600 C   0  0  0  0  0  3  0  0  0  0  0  0
  187.8110  176.1430  143.7570 C   0  0  0  0  0  2  0  0  0  0  0  0
  193.1690  175.6570  143.3550 N   0  0  0  0  0  0  0  0  0  0  0  0
  194.5660  177.1660  146.5130 C   0  0  0  0  0  1  0  0  0  0  0  0
  194.7060  174.6790  138.9750 C   0  0  0  0  0  3  0  0  0  0  0  0
  196.2290  175.6510  140.6700 C   0  0  0  0  0  3  0  0  0  0  0  0
  193.1500  176.2180  144.7050 C   0  0  0  0  0  2  0  0  0  0  0  0
  188.3440  174.2890  142.0790 C   0  0  0  0  0  2  0  0  0  0  0  0
  189.8740  174.2640  142.0120 C   0  0  1  0  0  0  0  0  0  0  0  0
  194.9540  175.1390  140.3380 C   0  0  0  0  0  0  0  0  0  0  0  0
  192.1750  175.1280  142.6010 C   0  0  0  0  0  0  0  0  0  0  0  0
  195.6330  176.7810  144.2990 C   0  0  0  0  0  2  0  0  0  0  0  0
  192.2780  173.7910  139.0650 C   0  0  0  0  0  0  0  0  0  0  0  0
  194.9650  174.8600  145.7620 C   0  0  0  0  0  1  0  0  0  0  0  0
  190.3780  173.6160  143.1700 O   0  0  0  0  0  0  0  0  0  0  0  0
  188.4050  176.6170  141.4790 F   0  0  0  0  0  0  0  0  0  0  0  0
  190.7480  174.9600  143.0110 C   0  0  1  0  0  0  0  0  0  0  0  0
  193.5960  174.1340  138.4700 C   0  0  0  0  0  3  0  0  0  0  0  0
  191.3480  171.6570  138.1580 C   0  0  0  0  0  3  0  0  0  0  0  0
  191.3990  173.0590  138.1230 C   0  0  0  0  0  0  0  0  0  0  0  0
  190.5750  173.7540  137.2240 C   0  0  0  0  0  3  0  0  0  0  0  0
  188.9410  173.7350  135.4890 F   0  0  0  0  0  0  0  0  0  0  0  0
  189.6920  171.6610  136.3910 C   0  0  0  0  0  3  0  0  0  0  0  0
  189.7290  173.0570  136.3580 C   0  0  0  0  0  0  0  0  0  0  0  0
  190.5000  170.9600  137.2920 C   0  0  0  0  0  3  0  0  0  0  0  0
  189.3090  174.9160  146.8540 C   0  0  0  0  0  1  0  0  0  0  0  0
  188.7120  175.9330  145.9010 C   0  0  0  0  0  2  0  0  0  0  0  0
  1  4  1  0  0  0  0
  2 24  1  0  0  0  0
  2 14  1  0  0  0  0
  3  7  1  0  0  0  0
  3  9  1  0  0  0  0
  4 37  1  0  0  0  0
  6 22  1  0  0  0  0
  7 21  2  0  0  0  0
  8 26  1  6  0  0  0
  8 12  1  0  0  0  0
  9  6  2  0  0  0  0
  9 13  1  0  0  0  0
 10  5  1  0  0  0  0
 10  7  1  0  0  0  0
 11  6  1  0  0  0  0
 12  4  1  0  0  0  0
 13 17  1  0  0  0  0
 15 20  1  0  0  0  0
 16 11  2  0  0  0  0
 17  2  1  0  0  0  0
 18  8  1  0  0  0  0
 19  5  1  6  0  0  0
 19 18  1  0  0  0  0
 19 27  1  0  0  0  0
 19 25  1  0  0  0  0
 20 16  1  0  0  0  0
 20  3  2  0  0  0  0
 21 27  1  0  0  0  0
 21 13  1  0  0  0  0
 22  2  1  0  0  0  0
 23 10  2  0  0  0  0
 27 25  1  0  0  0  0
 27  1  1  1  0  0  0
 28 15  2  0  0  0  0
 28 23  1  0  0  0  0
 30 29  1  0  0  0  0
 30 23  1  0  0  0  0
 31 30  2  0  0  0  0
 32 34  1  0  0  0  0
 33 35  1  0  0  0  0
 34 33  2  0  0  0  0
 34 31  1  0  0  0  0
 35 29  2  0  0  0  0
 37 36  1  0  0  0  0
M  END
>  <MODEL>
9

>  <REMARK>
 VINA RESULT:      -7.8      2.333      6.688
  Name = 
  2 active torsions:
  status: ('A' for Active; 'I' for Inactive)
    1  A    between atoms: N_4  and  C_37
    2  A    between atoms: C_23  and  C_30
                            x       y       z     vdW  Elec       q    Type
                         _______ _______ _______ _____ _____    ______ ____

>  <TORSDO>
F 2

$$$$
