=
 OpenBabel11112416473D

 31 35  0  0  1  0  0  0  0  0999 V2000
  184.5140  178.4850  146.2070 C   0  0  0  0  0  0  0  0  0  0  0  0
  186.8740  176.6510  143.9140 N   0  0  0  0  0  0  0  0  0  0  0  0
  186.5130  176.9910  142.5470 C   0  0  0  0  0  0  0  0  0  0  0  0
  184.9820  177.9740  140.9240 C   0  0  0  0  0  0  0  0  0  0  0  0
  186.3430  177.3670  145.0540 C   0  0  0  0  0  0  0  0  0  0  0  0
  185.3560  178.7660  147.2840 C   0  0  0  0  0  3  0  0  0  0  0  0
  185.3110  177.6530  142.2430 C   0  0  0  0  0  3  0  0  0  0  0  0
  189.1280  176.6120  144.8720 C   0  0  2  0  0  3  0  0  0  0  0  0
  183.2220  178.8880  146.2340 F   0  0  0  0  0  0  0  0  0  0  0  0
  188.6840  175.9920  141.7690 C   0  0  0  0  0  2  0  0  0  0  0  0
  183.4780  178.7980  140.5750 Cl  0  0  0  0  0  0  0  0  0  0  0  0
  188.6030  177.1420  146.2090 C   0  0  0  0  0  2  0  0  0  0  0  0
  188.0350  175.7840  144.1890 C   0  0  2  0  0  3  0  0  0  0  0  0
  185.0050  177.7860  145.1020 C   0  0  0  0  0  3  0  0  0  0  0  0
  185.8530  177.6390  139.8860 C   0  0  0  0  0  3  0  0  0  0  0  0
  187.1870  177.6490  146.1520 C   0  0  0  0  0  0  0  0  0  0  0  0
  186.6870  178.3430  147.2590 C   0  0  0  0  0  3  0  0  0  0  0  0
  188.5270  175.0410  142.9430 C   0  0  0  0  0  2  0  0  0  0  0  0
  187.3770  176.6510  141.4870 C   0  0  0  0  0  0  0  0  0  0  0  0
  187.0520  176.9820  140.1680 C   0  0  0  0  0  3  0  0  0  0  0  0
  190.2780  175.8440  145.1210 O   0  0  0  0  0  0  0  0  0  0  0  0
  190.8810  177.9050  144.0520 C   0  0  0  0  0  1  0  0  0  0  0  0
  191.3560  176.5410  144.5520 C   0  0  1  0  0  3  0  0  0  0  0  0
  194.5450  174.4950  145.1610 C   0  0  1  0  0  3  0  0  0  0  0  0
  193.8370  176.9070  144.8870 C   0  0  0  0  0  2  0  0  0  0  0  0
  191.2300  175.0420  147.2370 O   0  0  0  0  0  0  0  0  0  0  0  0
  195.1140  173.3080  144.4140 C   0  0  0  0  0  1  0  0  0  0  0  0
  194.2580  175.6210  144.1700 C   0  0  0  0  0  2  0  0  0  0  0  0
  192.6410  175.4550  146.8420 S   0  0  2  0  0  0  0  0  0  0  0  0
  192.4800  176.7590  145.5840 C   0  0  2  0  0  3  0  0  0  0  0  0
  193.2770  174.0680  145.8880 C   0  0  0  0  0  2  0  0  0  0  0  0
  1  9  1  0  0  0  0
  1  6  1  0  0  0  0
  2 13  1  0  0  0  0
  2  5  1  0  0  0  0
  3  2  1  0  0  0  0
  4  7  2  0  0  0  0
  5 14  1  0  0  0  0
  5 16  2  0  0  0  0
  7  3  1  0  0  0  0
  8 21  1  1  0  0  0
  8 12  1  0  0  0  0
 10 18  1  0  0  0  0
 11  4  1  0  0  0  0
 13 18  1  6  0  0  0
 13  8  1  0  0  0  0
 14  1  2  0  0  0  0
 15 20  2  0  0  0  0
 15  4  1  0  0  0  0
 16 12  1  0  0  0  0
 16 17  1  0  0  0  0
 17  6  2  0  0  0  0
 19 10  1  0  0  0  0
 19  3  2  0  0  0  0
 20 19  1  0  0  0  0
 23 22  1  1  0  0  0
 23 21  1  0  0  0  0
 24 27  1  6  0  0  0
 24 31  1  0  0  0  0
 25 30  1  0  0  0  0
 28 25  1  0  0  0  0
 28 24  1  0  0  0  0
 29 26  2  6  0  0  0
 30 23  1  6  0  0  0
 30 29  1  0  0  0  0
 31 29  1  0  0  0  0
M  END
>  <MODEL>
1

>  <REMARK>
 VINA RESULT:      -8.8      0.000      0.000
  Name = 
  3 active torsions:
  status: ('A' for Active; 'I' for Inactive)
    1  A    between atoms: C_5  and  O_16
    2  A    between atoms: C_5  and  C_30
    3  A    between atoms: C_10  and  O_16
                            x       y       z     vdW  Elec       q    Type
                         _______ _______ _______ _____ _____    ______ ____

>  <TORSDO>
F 3

$$$$
=
 OpenBabel11112416473D

 31 35  0  0  1  0  0  0  0  0999 V2000
  185.7640  178.1100  140.8410 C   0  0  0  0  0  0  0  0  0  0  0  0
  187.9900  177.6220  143.8390 N   0  0  0  0  0  0  0  0  0  0  0  0
  187.1610  177.7420  145.0280 C   0  0  0  0  0  0  0  0  0  0  0  0
  185.0650  178.3440  146.1170 C   0  0  0  0  0  0  0  0  0  0  0  0
  187.4270  177.5050  142.5120 C   0  0  0  0  0  0  0  0  0  0  0  0
  186.3550  177.2370  139.9260 C   0  0  0  0  0  3  0  0  0  0  0  0
  185.8480  178.2380  144.9650 C   0  0  0  0  0  3  0  0  0  0  0  0
  189.6620  175.8910  143.3820 C   0  0  2  0  0  3  0  0  0  0  0  0
  184.6720  178.8270  140.4840 F   0  0  0  0  0  0  0  0  0  0  0  0
  189.0440  176.7820  146.3880 C   0  0  0  0  0  2  0  0  0  0  0  0
  183.4330  178.9660  146.0100 Cl  0  0  0  0  0  0  0  0  0  0  0  0
  189.2900  175.8800  141.8960 C   0  0  0  0  0  2  0  0  0  0  0  0
  189.4230  177.2920  143.9550 C   0  0  2  0  0  3  0  0  0  0  0  0
  186.3000  178.2460  142.1230 C   0  0  0  0  0  3  0  0  0  0  0  0
  185.5840  177.9500  147.3520 C   0  0  0  0  0  3  0  0  0  0  0  0
  188.0230  176.6270  141.5780 C   0  0  0  0  0  0  0  0  0  0  0  0
  187.4850  176.5030  140.2930 C   0  0  0  0  0  3  0  0  0  0  0  0
  189.9560  177.4610  145.3810 C   0  0  0  0  0  2  0  0  0  0  0  0
  187.6740  177.3580  146.2840 C   0  0  0  0  0  0  0  0  0  0  0  0
  186.8850  177.4540  147.4340 C   0  0  0  0  0  3  0  0  0  0  0  0
  191.0070  175.5060  143.5040 O   0  0  0  0  0  0  0  0  0  0  0  0
  190.0600  173.3530  143.9760 C   0  0  0  0  0  1  0  0  0  0  0  0
  191.0380  174.4410  144.4200 C   0  0  1  0  0  3  0  0  0  0  0  0
  194.3550  176.0840  145.4280 C   0  0  1  0  0  3  0  0  0  0  0  0
  193.0240  173.9920  145.9210 C   0  0  0  0  0  2  0  0  0  0  0  0
  192.9360  174.7030  142.0120 O   0  0  0  0  0  0  0  0  0  0  0  0
  194.6520  177.4790  145.9380 C   0  0  0  0  0  1  0  0  0  0  0  0
  193.2520  175.4620  146.2820 C   0  0  0  0  0  2  0  0  0  0  0  0
  193.6630  174.5020  143.3340 S   0  0  2  0  0  0  0  0  0  0  0  0
  192.4500  173.8290  144.5090 C   0  0  2  0  0  3  0  0  0  0  0  0
  193.9390  176.1640  143.9660 C   0  0  0  0  0  2  0  0  0  0  0  0
  1 14  1  0  0  0  0
  2 13  1  0  0  0  0
  2  3  1  0  0  0  0
  3 19  1  0  0  0  0
  4 15  2  0  0  0  0
  5  2  1  0  0  0  0
  6 17  1  0  0  0  0
  6  1  2  0  0  0  0
  7  3  2  0  0  0  0
  7  4  1  0  0  0  0
  8 21  1  6  0  0  0
  8 13  1  0  0  0  0
  9  1  1  0  0  0  0
 11  4  1  0  0  0  0
 12  8  1  0  0  0  0
 13 18  1  1  0  0  0
 14  5  2  0  0  0  0
 15 20  1  0  0  0  0
 16 12  1  0  0  0  0
 16  5  1  0  0  0  0
 17 16  2  0  0  0  0
 18 10  1  0  0  0  0
 19 10  1  0  0  0  0
 19 20  2  0  0  0  0
 21 23  1  0  0  0  0
 23 22  1  6  0  0  0
 24 27  1  1  0  0  0
 24 28  1  0  0  0  0
 25 28  1  0  0  0  0
 29 26  2  6  0  0  0
 29 31  1  0  0  0  0
 29 30  1  0  0  0  0
 30 23  1  1  0  0  0
 30 25  1  0  0  0  0
 31 24  1  0  0  0  0
M  END
>  <MODEL>
2

>  <REMARK>
 VINA RESULT:      -8.6      2.096      4.464
  Name = 
  3 active torsions:
  status: ('A' for Active; 'I' for Inactive)
    1  A    between atoms: C_5  and  O_16
    2  A    between atoms: C_5  and  C_30
    3  A    between atoms: C_10  and  O_16
                            x       y       z     vdW  Elec       q    Type
                         _______ _______ _______ _____ _____    ______ ____

>  <TORSDO>
F 3

$$$$
=
 OpenBabel11112416473D

 31 35  0  0  1  0  0  0  0  0999 V2000
  185.7010  177.3960  146.8520 C   0  0  0  0  0  0  0  0  0  0  0  0
  186.8750  176.4250  143.4080 N   0  0  0  0  0  0  0  0  0  0  0  0
  185.9960  177.0680  142.4450 C   0  0  0  0  0  0  0  0  0  0  0  0
  183.9590  178.2910  141.8970 C   0  0  0  0  0  0  0  0  0  0  0  0
  186.8730  176.7760  144.8110 C   0  0  0  0  0  0  0  0  0  0  0  0
  186.9150  177.4670  147.5360 C   0  0  0  0  0  3  0  0  0  0  0  0
  184.7910  177.6760  142.8360 C   0  0  0  0  0  3  0  0  0  0  0  0
  189.3220  176.3440  143.3370 C   0  0  2  0  0  3  0  0  0  0  0  0
  184.5420  177.6630  147.4990 F   0  0  0  0  0  0  0  0  0  0  0  0
  187.6360  176.4980  140.6270 C   0  0  0  0  0  2  0  0  0  0  0  0
  182.4640  179.0400  142.4120 Cl  0  0  0  0  0  0  0  0  0  0  0  0
  189.4010  176.4670  144.8620 C   0  0  0  0  0  2  0  0  0  0  0  0
  188.0260  175.6230  142.9520 C   0  0  2  0  0  3  0  0  0  0  0  0
  185.6810  177.0480  145.5000 C   0  0  0  0  0  3  0  0  0  0  0  0
  184.3230  178.3110  140.5490 C   0  0  0  0  0  3  0  0  0  0  0  0
  188.0980  176.8440  145.5130 C   0  0  0  0  0  0  0  0  0  0  0  0
  188.1090  177.1850  146.8690 C   0  0  0  0  0  3  0  0  0  0  0  0
  187.9500  175.2690  141.4630 C   0  0  0  0  0  2  0  0  0  0  0  0
  186.3440  177.0880  141.0790 C   0  0  0  0  0  0  0  0  0  0  0  0
  185.5160  177.7140  140.1420 C   0  0  0  0  0  3  0  0  0  0  0  0
  190.4550  175.6430  142.8900 O   0  0  0  0  0  0  0  0  0  0  0  0
  190.1470  173.3720  143.5960 C   0  0  0  0  0  1  0  0  0  0  0  0
  190.7850  174.7270  143.9020 C   0  0  1  0  0  3  0  0  0  0  0  0
  193.2680  176.2240  146.4140 C   0  0  1  0  0  3  0  0  0  0  0  0
  192.7020  173.9880  145.3780 C   0  0  0  0  0  2  0  0  0  0  0  0
  192.6350  176.7870  142.5570 O   0  0  0  0  0  0  0  0  0  0  0  0
  193.0370  177.0850  147.6380 C   0  0  0  0  0  1  0  0  0  0  0  0
  192.3900  174.9780  146.5040 C   0  0  0  0  0  2  0  0  0  0  0  0
  193.2980  176.0400  143.7060 S   0  0  2  0  0  0  0  0  0  0  0  0
  192.3120  174.5410  144.0030 C   0  0  2  0  0  3  0  0  0  0  0  0
  192.9470  177.0330  145.1650 C   0  0  0  0  0  2  0  0  0  0  0  0
  1  9  1  0  0  0  0
  1  6  1  0  0  0  0
  2  5  1  0  0  0  0
  3  7  1  0  0  0  0
  3  2  1  0  0  0  0
  4 11  1  0  0  0  0
  4  7  2  0  0  0  0
  5 14  1  0  0  0  0
  5 16  2  0  0  0  0
  8 21  1  1  0  0  0
  8 12  1  0  0  0  0
 10 19  1  0  0  0  0
 10 18  1  0  0  0  0
 12 16  1  0  0  0  0
 13 18  1  6  0  0  0
 13  8  1  0  0  0  0
 13  2  1  0  0  0  0
 14  1  2  0  0  0  0
 15  4  1  0  0  0  0
 16 17  1  0  0  0  0
 17  6  2  0  0  0  0
 19  3  2  0  0  0  0
 20 15  2  0  0  0  0
 20 19  1  0  0  0  0
 21 23  1  0  0  0  0
 23 22  1  6  0  0  0
 24 28  1  0  0  0  0
 24 27  1  1  0  0  0
 25 28  1  0  0  0  0
 29 26  2  6  0  0  0
 29 30  1  0  0  0  0
 29 31  1  0  0  0  0
 30 23  1  1  0  0  0
 30 25  1  0  0  0  0
 31 24  1  0  0  0  0
M  END
>  <MODEL>
3

>  <REMARK>
 VINA RESULT:      -8.1      1.683      2.450
  Name = 
  3 active torsions:
  status: ('A' for Active; 'I' for Inactive)
    1  A    between atoms: C_5  and  O_16
    2  A    between atoms: C_5  and  C_30
    3  A    between atoms: C_10  and  O_16
                            x       y       z     vdW  Elec       q    Type
                         _______ _______ _______ _____ _____    ______ ____

>  <TORSDO>
F 3

$$$$
=
 OpenBabel11112416473D

 31 35  0  0  1  0  0  0  0  0999 V2000
  186.1970  177.8670  140.9050 C   0  0  0  0  0  0  0  0  0  0  0  0
  188.0640  177.1720  144.1010 N   0  0  0  0  0  0  0  0  0  0  0  0
  187.1460  177.3970  145.2060 C   0  0  0  0  0  0  0  0  0  0  0  0
  185.0380  178.2430  146.0920 C   0  0  0  0  0  0  0  0  0  0  0  0
  187.6170  177.1010  142.7270 C   0  0  0  0  0  0  0  0  0  0  0  0
  186.7690  176.9220  140.0520 C   0  0  0  0  0  3  0  0  0  0  0  0
  185.9080  178.0360  145.0190 C   0  0  0  0  0  3  0  0  0  0  0  0
  189.5660  175.2590  143.8060 C   0  0  2  0  0  3  0  0  0  0  0  0
  185.2300  178.6970  140.4460 F   0  0  0  0  0  0  0  0  0  0  0  0
  188.7740  176.2500  146.7390 C   0  0  0  0  0  2  0  0  0  0  0  0
  183.5030  179.0420  145.8300 Cl  0  0  0  0  0  0  0  0  0  0  0  0
  189.3360  175.2720  142.2920 C   0  0  0  0  0  2  0  0  0  0  0  0
  189.4340  176.6850  144.3520 C   0  0  2  0  0  3  0  0  0  0  0  0
  186.6220  177.9580  142.2320 C   0  0  0  0  0  3  0  0  0  0  0  0
  185.3910  177.8090  147.3710 C   0  0  0  0  0  3  0  0  0  0  0  0
  188.1960  176.1510  141.8550 C   0  0  0  0  0  0  0  0  0  0  0  0
  187.7710  176.0720  140.5250 C   0  0  0  0  0  3  0  0  0  0  0  0
  189.8470  176.8110  145.8220 C   0  0  0  0  0  2  0  0  0  0  0  0
  187.4930  176.9750  146.5050 C   0  0  0  0  0  0  0  0  0  0  0  0
  186.6160  177.1720  147.5760 C   0  0  0  0  0  3  0  0  0  0  0  0
  190.8430  174.7280  144.0560 O   0  0  0  0  0  0  0  0  0  0  0  0
  192.4980  175.6230  142.5690 C   0  0  0  0  0  1  0  0  0  0  0  0
  191.4490  174.5370  142.8040 C   0  0  1  0  0  3  0  0  0  0  0  0
  190.8200  171.6150  140.3980 C   0  0  1  0  0  3  0  0  0  0  0  0
  192.7560  172.9380  141.3430 C   0  0  0  0  0  2  0  0  0  0  0  0
  190.1750  172.1420  144.2580 O   0  0  0  0  0  0  0  0  0  0  0  0
  189.9000  171.5010  139.2010 C   0  0  0  0  0  1  0  0  0  0  0  0
  191.6900  172.8600  140.2460 C   0  0  0  0  0  2  0  0  0  0  0  0
  191.0730  171.7350  143.0990 S   0  0  2  0  0  0  0  0  0  0  0  0
  192.1400  173.1610  142.7280 C   0  0  2  0  0  3  0  0  0  0  0  0
  189.9830  171.6820  141.6670 C   0  0  0  0  0  2  0  0  0  0  0  0
  1 14  1  0  0  0  0
  2 13  1  0  0  0  0
  2  3  1  0  0  0  0
  3 19  1  0  0  0  0
  4 15  2  0  0  0  0
  5  2  1  0  0  0  0
  6 17  1  0  0  0  0
  6  1  2  0  0  0  0
  7  3  2  0  0  0  0
  7  4  1  0  0  0  0
  8 21  1  6  0  0  0
  8 13  1  0  0  0  0
  9  1  1  0  0  0  0
 11  4  1  0  0  0  0
 12  8  1  0  0  0  0
 13 18  1  1  0  0  0
 14  5  2  0  0  0  0
 15 20  1  0  0  0  0
 16 12  1  0  0  0  0
 16  5  1  0  0  0  0
 17 16  2  0  0  0  0
 18 10  1  0  0  0  0
 19 10  1  0  0  0  0
 19 20  2  0  0  0  0
 23 22  1  1  0  0  0
 23 21  1  0  0  0  0
 24 27  1  6  0  0  0
 24 31  1  0  0  0  0
 25 30  1  0  0  0  0
 28 24  1  0  0  0  0
 28 25  1  0  0  0  0
 29 26  2  1  0  0  0
 30 23  1  6  0  0  0
 30 29  1  0  0  0  0
 31 29  1  0  0  0  0
M  END
>  <MODEL>
4

>  <REMARK>
 VINA RESULT:      -7.9      2.884      5.002
  Name = 
  3 active torsions:
  status: ('A' for Active; 'I' for Inactive)
    1  A    between atoms: C_5  and  O_16
    2  A    between atoms: C_5  and  C_30
    3  A    between atoms: C_10  and  O_16
                            x       y       z     vdW  Elec       q    Type
                         _______ _______ _______ _____ _____    ______ ____

>  <TORSDO>
F 3

$$$$
=
 OpenBabel11112416473D

 31 35  0  0  1  0  0  0  0  0999 V2000
  189.6200  177.5350  147.1720 C   0  0  0  0  0  0  0  0  0  0  0  0
  188.7940  175.7810  143.9430 N   0  0  0  0  0  0  0  0  0  0  0  0
  187.8770  176.6320  143.2020 C   0  0  0  0  0  0  0  0  0  0  0  0
  186.3750  178.5470  143.0700 C   0  0  0  0  0  0  0  0  0  0  0  0
  189.5130  176.2490  145.1080 C   0  0  0  0  0  0  0  0  0  0  0  0
  190.9490  177.1480  147.3520 C   0  0  0  0  0  3  0  0  0  0  0  0
  187.2520  177.7400  143.7980 C   0  0  0  0  0  3  0  0  0  0  0  0
  190.7770  174.6420  143.0650 C   0  0  2  0  0  3  0  0  0  0  0  0
  189.0230  178.3460  148.0770 F   0  0  0  0  0  0  0  0  0  0  0  0
  188.2720  175.2120  141.1650 C   0  0  0  0  0  2  0  0  0  0  0  0
  185.6100  179.9210  143.8370 Cl  0  0  0  0  0  0  0  0  0  0  0  0
  191.5340  174.8850  144.3740 C   0  0  0  0  0  2  0  0  0  0  0  0
  189.2790  174.5150  143.3610 C   0  0  2  0  0  3  0  0  0  0  0  0
  188.9070  177.0850  146.0600 C   0  0  0  0  0  3  0  0  0  0  0  0
  186.1130  178.2610  141.7280 C   0  0  0  0  0  3  0  0  0  0  0  0
  190.8570  175.8570  145.3010 C   0  0  0  0  0  0  0  0  0  0  0  0
  191.5630  176.3060  146.4220 C   0  0  0  0  0  3  0  0  0  0  0  0
  188.4580  174.0690  142.1470 C   0  0  0  0  0  2  0  0  0  0  0  0
  187.5940  176.3490  141.8500 C   0  0  0  0  0  0  0  0  0  0  0  0
  186.7250  177.1650  141.1190 C   0  0  0  0  0  3  0  0  0  0  0  0
  191.2860  173.4750  142.4690 O   0  0  0  0  0  0  0  0  0  0  0  0
  191.3260  171.6540  144.0290 C   0  0  0  0  0  1  0  0  0  0  0  0
  192.0810  172.8440  143.4380 C   0  0  1  0  0  3  0  0  0  0  0  0
  195.6930  173.3730  144.6190 C   0  0  1  0  0  3  0  0  0  0  0  0
  194.1860  171.4990  143.8420 C   0  0  0  0  0  2  0  0  0  0  0  0
  193.6360  174.6680  141.5070 O   0  0  0  0  0  0  0  0  0  0  0  0
  196.2380  174.0560  145.8560 C   0  0  0  0  0  1  0  0  0  0  0  0
  194.6520  172.3370  145.0350 C   0  0  0  0  0  2  0  0  0  0  0  0
  194.5110  173.6250  142.1880 S   0  0  2  0  0  0  0  0  0  0  0  0
  193.4000  172.3330  142.8240 C   0  0  2  0  0  3  0  0  0  0  0  0
  195.0870  174.4210  143.6960 C   0  0  0  0  0  2  0  0  0  0  0  0
  1  6  1  0  0  0  0
  1  9  1  0  0  0  0
  2  5  1  0  0  0  0
  3  7  1  0  0  0  0
  3  2  1  0  0  0  0
  4  7  2  0  0  0  0
  4 11  1  0  0  0  0
  5 16  2  0  0  0  0
  5 14  1  0  0  0  0
  8 21  1  1  0  0  0
  8 13  1  0  0  0  0
  8 12  1  0  0  0  0
 10 19  1  0  0  0  0
 10 18  1  0  0  0  0
 12 16  1  0  0  0  0
 13 18  1  6  0  0  0
 13  2  1  0  0  0  0
 14  1  2  0  0  0  0
 15  4  1  0  0  0  0
 16 17  1  0  0  0  0
 17  6  2  0  0  0  0
 19  3  2  0  0  0  0
 20 15  2  0  0  0  0
 20 19  1  0  0  0  0
 21 23  1  0  0  0  0
 23 22  1  6  0  0  0
 24 28  1  0  0  0  0
 24 27  1  1  0  0  0
 25 28  1  0  0  0  0
 29 26  2  6  0  0  0
 29 30  1  0  0  0  0
 29 31  1  0  0  0  0
 30 23  1  1  0  0  0
 30 25  1  0  0  0  0
 31 24  1  0  0  0  0
M  END
>  <MODEL>
5

>  <REMARK>
 VINA RESULT:      -7.7      2.646      3.889
  Name = 
  3 active torsions:
  status: ('A' for Active; 'I' for Inactive)
    1  A    between atoms: C_5  and  O_16
    2  A    between atoms: C_5  and  C_30
    3  A    between atoms: C_10  and  O_16
                            x       y       z     vdW  Elec       q    Type
                         _______ _______ _______ _____ _____    ______ ____

>  <TORSDO>
F 3

$$$$
=
 OpenBabel11112416473D

 31 35  0  0  1  0  0  0  0  0999 V2000
  187.4060  176.4230  140.7560 C   0  0  0  0  0  0  0  0  0  0  0  0
  188.1290  177.0960  144.3900 N   0  0  0  0  0  0  0  0  0  0  0  0
  186.9130  177.6190  144.9920 C   0  0  0  0  0  0  0  0  0  0  0  0
  184.6600  178.5310  144.8050 C   0  0  0  0  0  0  0  0  0  0  0  0
  188.1440  176.4950  143.0740 C   0  0  0  0  0  0  0  0  0  0  0  0
  188.1920  175.2900  140.5340 C   0  0  0  0  0  3  0  0  0  0  0  0
  185.8210  178.0320  144.2100 C   0  0  0  0  0  3  0  0  0  0  0  0
  189.5860  175.3510  145.3030 C   0  0  2  0  0  3  0  0  0  0  0  0
  186.6640  176.9400  139.7480 F   0  0  0  0  0  0  0  0  0  0  0  0
  187.9280  177.2530  147.2620 C   0  0  0  0  0  2  0  0  0  0  0  0
  183.3150  179.0390  143.8070 Cl  0  0  0  0  0  0  0  0  0  0  0  0
  189.8530  174.7970  143.9000 C   0  0  0  0  0  2  0  0  0  0  0  0
  189.3300  176.8590  145.2130 C   0  0  2  0  0  3  0  0  0  0  0  0
  187.3870  177.0230  142.0160 C   0  0  0  0  0  3  0  0  0  0  0  0
  184.5710  178.6210  146.1960 C   0  0  0  0  0  3  0  0  0  0  0  0
  188.9420  175.3520  142.8400 C   0  0  0  0  0  0  0  0  0  0  0  0
  188.9620  174.7610  141.5720 C   0  0  0  0  0  3  0  0  0  0  0  0
  189.2550  177.5420  146.5820 C   0  0  0  0  0  2  0  0  0  0  0  0
  186.8120  177.7260  146.3940 C   0  0  0  0  0  0  0  0  0  0  0  0
  185.6450  178.2140  146.9890 C   0  0  0  0  0  3  0  0  0  0  0  0
  190.6980  175.0630  146.1120 O   0  0  0  0  0  0  0  0  0  0  0  0
  192.4170  176.5950  145.4390 C   0  0  0  0  0  1  0  0  0  0  0  0
  191.8330  175.1900  145.2940 C   0  0  1  0  0  3  0  0  0  0  0  0
  194.7230  173.7700  143.2080 C   0  0  1  0  0  3  0  0  0  0  0  0
  194.3160  174.7560  145.5010 C   0  0  0  0  0  2  0  0  0  0  0  0
  191.3830  172.2180  144.6340 O   0  0  0  0  0  0  0  0  0  0  0  0
  195.1920  174.1090  141.8090 C   0  0  0  0  0  1  0  0  0  0  0  0
  194.6250  175.0520  144.0300 C   0  0  0  0  0  2  0  0  0  0  0  0
  192.8520  172.5870  144.7820 S   0  0  2  0  0  0  0  0  0  0  0  0
  192.9150  174.1640  145.6860 C   0  0  2  0  0  3  0  0  0  0  0  0
  193.3760  173.0660  143.1270 C   0  0  0  0  0  2  0  0  0  0  0  0
  1 14  1  0  0  0  0
  2  3  1  0  0  0  0
  2 13  1  0  0  0  0
  3 19  1  0  0  0  0
  4 15  2  0  0  0  0
  5  2  1  0  0  0  0
  6  1  2  0  0  0  0
  6 17  1  0  0  0  0
  7  4  1  0  0  0  0
  7  3  2  0  0  0  0
  8 21  1  1  0  0  0
  9  1  1  0  0  0  0
 11  4  1  0  0  0  0
 12  8  1  0  0  0  0
 13  8  1  0  0  0  0
 13 18  1  1  0  0  0
 14  5  2  0  0  0  0
 15 20  1  0  0  0  0
 16  5  1  0  0  0  0
 16 12  1  0  0  0  0
 17 16  2  0  0  0  0
 18 10  1  0  0  0  0
 19 20  2  0  0  0  0
 19 10  1  0  0  0  0
 23 22  1  1  0  0  0
 23 21  1  0  0  0  0
 24 27  1  6  0  0  0
 24 28  1  0  0  0  0
 25 30  1  0  0  0  0
 28 25  1  0  0  0  0
 29 26  2  6  0  0  0
 29 30  1  0  0  0  0
 30 23  1  6  0  0  0
 31 24  1  0  0  0  0
 31 29  1  0  0  0  0
M  END
>  <MODEL>
6

>  <REMARK>
 VINA RESULT:      -7.7      2.078      4.240
  Name = 
  3 active torsions:
  status: ('A' for Active; 'I' for Inactive)
    1  A    between atoms: C_5  and  O_16
    2  A    between atoms: C_5  and  C_30
    3  A    between atoms: C_10  and  O_16
                            x       y       z     vdW  Elec       q    Type
                         _______ _______ _______ _____ _____    ______ ____

>  <TORSDO>
F 3

$$$$
=
 OpenBabel11112416473D

 31 35  0  0  1  0  0  0  0  0999 V2000
  191.2440  171.0440  142.8760 C   0  0  0  0  0  0  0  0  0  0  0  0
  191.3510  173.8910  145.3390 N   0  0  0  0  0  0  0  0  0  0  0  0
  192.7470  174.2340  145.5560 C   0  0  0  0  0  0  0  0  0  0  0  0
  195.1250  173.7500  145.3250 C   0  0  0  0  0  0  0  0  0  0  0  0
  190.9270  173.0150  144.2690 C   0  0  0  0  0  0  0  0  0  0  0  0
  190.0760  171.3440  142.1740 C   0  0  0  0  0  3  0  0  0  0  0  0
  193.7900  173.4040  145.1090 C   0  0  0  0  0  3  0  0  0  0  0  0
  189.5050  175.4460  144.9190 C   0  0  2  0  0  3  0  0  0  0  0  0
  191.9700  169.9490  142.5470 F   0  0  0  0  0  0  0  0  0  0  0  0
  192.0090  176.3560  146.6840 C   0  0  0  0  0  2  0  0  0  0  0  0
  196.4030  172.6980  144.7570 Cl  0  0  0  0  0  0  0  0  0  0  0  0
  188.8540  174.4590  143.9450 C   0  0  0  0  0  2  0  0  0  0  0  0
  190.2790  174.6690  145.9890 C   0  0  2  0  0  3  0  0  0  0  0  0
  191.6640  171.8720  143.9190 C   0  0  0  0  0  3  0  0  0  0  0  0
  195.4410  174.9370  145.9900 C   0  0  0  0  0  3  0  0  0  0  0  0
  189.7420  173.3080  143.5570 C   0  0  0  0  0  0  0  0  0  0  0  0
  189.3240  172.4690  142.5180 C   0  0  0  0  0  3  0  0  0  0  0  0
  190.7960  175.5550  147.1260 C   0  0  0  0  0  2  0  0  0  0  0  0
  193.0810  175.4230  146.2350 C   0  0  0  0  0  0  0  0  0  0  0  0
  194.4190  175.7740  146.4410 C   0  0  0  0  0  3  0  0  0  0  0  0
  188.4940  176.2390  145.4870 O   0  0  0  0  0  0  0  0  0  0  0  0
  186.1640  176.4210  144.9460 C   0  0  0  0  0  1  0  0  0  0  0  0
  187.6030  176.5570  144.4490 C   0  0  1  0  0  3  0  0  0  0  0  0
  186.1540  178.3360  141.3740 C   0  0  1  0  0  3  0  0  0  0  0  0
  186.4830  178.7440  143.8470 C   0  0  0  0  0  2  0  0  0  0  0  0
  189.7800  177.1110  142.3450 O   0  0  0  0  0  0  0  0  0  0  0  0
  185.1440  177.8690  140.3470 C   0  0  0  0  0  1  0  0  0  0  0  0
  185.5760  178.1370  142.7730 C   0  0  0  0  0  2  0  0  0  0  0  0
  188.6770  178.1590  142.3620 S   0  0  2  0  0  0  0  0  0  0  0  0
  187.8200  178.0020  143.9580 C   0  0  2  0  0  3  0  0  0  0  0  0
  187.4460  177.5510  141.1970 C   0  0  0  0  0  2  0  0  0  0  0  0
  1 14  1  0  0  0  0
  2  3  1  0  0  0  0
  2 13  1  0  0  0  0
  3 19  1  0  0  0  0
  4 15  2  0  0  0  0
  5  2  1  0  0  0  0
  6 17  1  0  0  0  0
  6  1  2  0  0  0  0
  7  4  1  0  0  0  0
  7  3  2  0  0  0  0
  8 21  1  1  0  0  0
  8 13  1  0  0  0  0
  9  1  1  0  0  0  0
 10 18  1  0  0  0  0
 11  4  1  0  0  0  0
 12  8  1  0  0  0  0
 13 18  1  1  0  0  0
 14  5  2  0  0  0  0
 15 20  1  0  0  0  0
 16 12  1  0  0  0  0
 16  5  1  0  0  0  0
 17 16  2  0  0  0  0
 19 20  2  0  0  0  0
 19 10  1  0  0  0  0
 23 22  1  1  0  0  0
 23 21  1  0  0  0  0
 24 27  1  6  0  0  0
 24 28  1  0  0  0  0
 25 30  1  0  0  0  0
 28 25  1  0  0  0  0
 29 26  2  1  0  0  0
 29 30  1  0  0  0  0
 30 23  1  6  0  0  0
 31 24  1  0  0  0  0
 31 29  1  0  0  0  0
M  END
>  <MODEL>
7

>  <REMARK>
 VINA RESULT:      -7.6      4.360      8.243
  Name = 
  3 active torsions:
  status: ('A' for Active; 'I' for Inactive)
    1  A    between atoms: C_5  and  O_16
    2  A    between atoms: C_5  and  C_30
    3  A    between atoms: C_10  and  O_16
                            x       y       z     vdW  Elec       q    Type
                         _______ _______ _______ _____ _____    ______ ____

>  <TORSDO>
F 3

$$$$
=
 OpenBabel11112416473D

 31 35  0  0  1  0  0  0  0  0999 V2000
  189.5270  177.5380  147.2420 C   0  0  0  0  0  0  0  0  0  0  0  0
  188.7270  175.7940  144.0010 N   0  0  0  0  0  0  0  0  0  0  0  0
  187.8300  176.6550  143.2480 C   0  0  0  0  0  0  0  0  0  0  0  0
  186.3500  178.5870  143.0960 C   0  0  0  0  0  0  0  0  0  0  0  0
  189.4340  176.2550  145.1760 C   0  0  0  0  0  0  0  0  0  0  0  0
  190.8490  177.1370  147.4400 C   0  0  0  0  0  3  0  0  0  0  0  0
  187.2080  177.7700  143.8350 C   0  0  0  0  0  3  0  0  0  0  0  0
  190.7090  174.6340  143.1500 C   0  0  2  0  0  3  0  0  0  0  0  0
  188.9260  178.3560  148.1390 F   0  0  0  0  0  0  0  0  0  0  0  0
  188.2370  175.2320  141.2160 C   0  0  0  0  0  2  0  0  0  0  0  0
  185.5900  179.9690  143.8540 Cl  0  0  0  0  0  0  0  0  0  0  0  0
  191.4510  174.8680  144.4700 C   0  0  0  0  0  2  0  0  0  0  0  0
  189.2060  174.5240  143.4250 C   0  0  2  0  0  3  0  0  0  0  0  0
  188.8240  177.0960  146.1200 C   0  0  0  0  0  3  0  0  0  0  0  0
  186.1030  178.3040  141.7510 C   0  0  0  0  0  3  0  0  0  0  0  0
  190.7710  175.8470  145.3880 C   0  0  0  0  0  0  0  0  0  0  0  0
  191.4660  176.2880  146.5180 C   0  0  0  0  0  3  0  0  0  0  0  0
  188.3970  174.0870  142.2000 C   0  0  0  0  0  2  0  0  0  0  0  0
  187.5620  176.3760  141.8920 C   0  0  0  0  0  0  0  0  0  0  0  0
  186.7120  177.2020  141.1490 C   0  0  0  0  0  3  0  0  0  0  0  0
  191.2130  173.4630  142.5600 O   0  0  0  0  0  0  0  0  0  0  0  0
  192.8240  174.7570  141.3430 C   0  0  0  0  0  1  0  0  0  0  0  0
  191.6260  173.8120  141.2640 C   0  0  1  0  0  3  0  0  0  0  0  0
  190.1710  172.4270  137.9950 C   0  0  1  0  0  3  0  0  0  0  0  0
  192.4220  172.9440  139.0250 C   0  0  0  0  0  2  0  0  0  0  0  0
  190.1230  171.1680  141.7380 O   0  0  0  0  0  0  0  0  0  0  0  0
  189.1040  172.9820  137.0760 C   0  0  0  0  0  1  0  0  0  0  0  0
  191.2310  173.4990  138.2380 C   0  0  0  0  0  2  0  0  0  0  0  0
  190.7780  171.2530  140.3670 S   0  0  2  0  0  0  0  0  0  0  0  0
  192.0360  172.5630  140.4590 C   0  0  2  0  0  3  0  0  0  0  0  0
  189.5270  171.9870  139.3020 C   0  0  0  0  0  2  0  0  0  0  0  0
  1  6  1  0  0  0  0
  1  9  1  0  0  0  0
  2  5  1  0  0  0  0
  3  7  1  0  0  0  0
  3  2  1  0  0  0  0
  4  7  2  0  0  0  0
  4 11  1  0  0  0  0
  5 16  2  0  0  0  0
  5 14  1  0  0  0  0
  8 21  1  1  0  0  0
  8 13  1  0  0  0  0
  8 12  1  0  0  0  0
 10 19  1  0  0  0  0
 10 18  1  0  0  0  0
 12 16  1  0  0  0  0
 13 18  1  6  0  0  0
 13  2  1  0  0  0  0
 14  1  2  0  0  0  0
 15  4  1  0  0  0  0
 16 17  1  0  0  0  0
 17  6  2  0  0  0  0
 19  3  2  0  0  0  0
 20 15  2  0  0  0  0
 20 19  1  0  0  0  0
 23 22  1  1  0  0  0
 23 21  1  0  0  0  0
 24 27  1  6  0  0  0
 24 28  1  0  0  0  0
 24 31  1  0  0  0  0
 25 30  1  0  0  0  0
 28 25  1  0  0  0  0
 29 30  1  0  0  0  0
 29 26  2  1  0  0  0
 30 23  1  6  0  0  0
 31 29  1  0  0  0  0
M  END
>  <MODEL>
8

>  <REMARK>
 VINA RESULT:      -7.6      3.530      4.999
  Name = 
  3 active torsions:
  status: ('A' for Active; 'I' for Inactive)
    1  A    between atoms: C_5  and  O_16
    2  A    between atoms: C_5  and  C_30
    3  A    between atoms: C_10  and  O_16
                            x       y       z     vdW  Elec       q    Type
                         _______ _______ _______ _____ _____    ______ ____

>  <TORSDO>
F 3

$$$$
=
 OpenBabel11112416473D

 31 35  0  0  1  0  0  0  0  0999 V2000
  186.4370  178.2780  144.6510 C   0  0  0  0  0  0  0  0  0  0  0  0
  189.6050  176.4120  143.8360 N   0  0  0  0  0  0  0  0  0  0  0  0
  190.4090  176.3580  145.0470 C   0  0  0  0  0  0  0  0  0  0  0  0
  190.8840  177.0760  147.3280 C   0  0  0  0  0  0  0  0  0  0  0  0
  188.2210  176.8310  143.8450 C   0  0  0  0  0  0  0  0  0  0  0  0
  185.5180  177.6070  143.8430 C   0  0  0  0  0  3  0  0  0  0  0  0
  190.1010  177.1410  146.1730 C   0  0  0  0  0  3  0  0  0  0  0  0
  189.1290  174.5590  142.3060 C   0  0  2  0  0  3  0  0  0  0  0  0
  186.0270  179.3020  145.4370 F   0  0  0  0  0  0  0  0  0  0  0  0
  191.8660  174.6260  143.9540 C   0  0  0  0  0  2  0  0  0  0  0  0
  190.4780  178.0620  148.7150 Cl  0  0  0  0  0  0  0  0  0  0  0  0
  187.7090  175.0810  142.0670 C   0  0  0  0  0  2  0  0  0  0  0  0
  190.0600  175.7390  142.6050 C   0  0  2  0  0  3  0  0  0  0  0  0
  187.7790  177.8950  144.6480 C   0  0  0  0  0  3  0  0  0  0  0  0
  191.9870  176.2210  147.3770 C   0  0  0  0  0  3  0  0  0  0  0  0
  187.2850  176.1610  143.0250 C   0  0  0  0  0  0  0  0  0  0  0  0
  185.9430  176.5560  143.0270 C   0  0  0  0  0  3  0  0  0  0  0  0
  191.5390  175.3450  142.6570 C   0  0  0  0  0  2  0  0  0  0  0  0
  191.5320  175.5090  145.1070 C   0  0  0  0  0  0  0  0  0  0  0  0
  192.3080  175.4350  146.2690 C   0  0  0  0  0  3  0  0  0  0  0  0
  189.5400  173.8540  141.1620 O   0  0  0  0  0  0  0  0  0  0  0  0
  189.1310  172.0220  142.6560 C   0  0  0  0  0  1  0  0  0  0  0  0
  190.0670  172.6330  141.6130 C   0  0  1  0  0  3  0  0  0  0  0  0
  191.7040  173.1250  138.1780 C   0  0  1  0  0  3  0  0  0  0  0  0
  191.7010  171.4590  140.0800 C   0  0  0  0  0  2  0  0  0  0  0  0
  187.9690  172.6220  139.3610 O   0  0  0  0  0  0  0  0  0  0  0  0
  192.4570  174.3060  137.6030 C   0  0  0  0  0  1  0  0  0  0  0  0
  192.3130  172.7490  139.5260 C   0  0  0  0  0  2  0  0  0  0  0  0
  189.3190  172.0660  138.9300 S   0  0  2  0  0  0  0  0  0  0  0  0
  190.2240  171.6350  140.4480 C   0  0  2  0  0  3  0  0  0  0  0  0
  190.2340  173.4930  138.3230 C   0  0  0  0  0  2  0  0  0  0  0  0
  1  9  1  0  0  0  0
  2  5  1  0  0  0  0
  2  3  1  0  0  0  0
  3 19  2  0  0  0  0
  3  7  1  0  0  0  0
  4 15  1  0  0  0  0
  4 11  1  0  0  0  0
  5 14  2  0  0  0  0
  6  1  2  0  0  0  0
  7  4  2  0  0  0  0
  8 21  1  6  0  0  0
  8 13  1  0  0  0  0
 10 19  1  0  0  0  0
 12  8  1  0  0  0  0
 12 16  1  0  0  0  0
 13 18  1  1  0  0  0
 13  2  1  0  0  0  0
 14  1  1  0  0  0  0
 16 17  2  0  0  0  0
 16  5  1  0  0  0  0
 17  6  1  0  0  0  0
 18 10  1  0  0  0  0
 19 20  1  0  0  0  0
 20 15  2  0  0  0  0
 21 23  1  0  0  0  0
 23 22  1  1  0  0  0
 24 27  1  1  0  0  0
 24 31  1  0  0  0  0
 24 28  1  0  0  0  0
 25 30  1  0  0  0  0
 28 25  1  0  0  0  0
 29 26  2  1  0  0  0
 29 30  1  0  0  0  0
 30 23  1  1  0  0  0
 31 29  1  0  0  0  0
M  END
>  <MODEL>
9

>  <REMARK>
 VINA RESULT:      -7.5      4.061      6.152
  Name = 
  3 active torsions:
  status: ('A' for Active; 'I' for Inactive)
    1  A    between atoms: C_5  and  O_16
    2  A    between atoms: C_5  and  C_30
    3  A    between atoms: C_10  and  O_16
                            x       y       z     vdW  Elec       q    Type
                         _______ _______ _______ _____ _____    ______ ____

>  <TORSDO>
F 3

$$$$
