=
 OpenBabel11112416563D

 31 35  0  0  1  0  0  0  0  0999 V2000
  184.7920  178.2370  146.8080 C   0  0  0  0  0  0  0  0  0  0  0  0
  187.3660  175.8980  145.2630 C   0  0  2  0  0  3  0  0  0  0  0  0
  187.4520  176.2680  143.7870 C   0  0  0  0  0  0  0  0  0  0  0  0
  186.4190  177.2510  141.8100 C   0  0  0  0  0  0  0  0  0  0  0  0
  186.7590  176.9850  146.1220 C   0  0  0  0  0  0  0  0  0  0  0  0
  185.5840  179.0420  147.6290 C   0  0  0  0  0  3  0  0  0  0  0  0
  186.4000  176.9730  143.1780 C   0  0  0  0  0  3  0  0  0  0  0  0
  189.6300  176.6080  146.1280 C   0  0  2  0  0  3  0  0  0  0  0  0
  183.4570  178.4520  146.7340 F   0  0  0  0  0  0  0  0  0  0  0  0
  189.6780  175.0460  143.5440 C   0  0  0  0  0  2  0  0  0  0  0  0
  185.3030  178.0120  141.1920 C   0  0  0  0  0  1  0  0  0  0  0  0
  189.0100  177.5040  147.1990 C   0  0  0  0  0  2  0  0  0  0  0  0
  188.7100  175.4140  145.8390 C   0  0  2  0  0  3  0  0  0  0  0  0
  185.3770  177.2110  146.0620 C   0  0  0  0  0  3  0  0  0  0  0  0
  187.4840  176.8110  141.0240 C   0  0  0  0  0  3  0  0  0  0  0  0
  187.5570  177.7970  146.9620 C   0  0  0  0  0  0  0  0  0  0  0  0
  186.9600  178.8150  147.7120 C   0  0  0  0  0  3  0  0  0  0  0  0
  189.3490  174.4010  144.8870 C   0  0  0  0  0  2  0  0  0  0  0  0
  188.5090  175.7930  142.9730 C   0  0  0  0  0  0  0  0  0  0  0  0
  188.5250  176.0850  141.6050 C   0  0  0  0  0  3  0  0  0  0  0  0
  192.1200  177.1070  144.8170 O   0  0  0  0  0  0  0  0  0  0  0  0
  192.1460  176.4330  145.8810 C   0  0  0  0  0  0  0  0  0  0  0  0
  190.9330  176.1450  146.5820 N   0  0  0  0  0  2  0  0  0  0  0  0
  195.4790  176.4330  144.3820 C   0  0  0  0  0  0  0  0  0  0  0  0
  194.4830  177.0440  146.5750 C   0  0  0  0  0  2  0  0  0  0  0  0
  193.0900  173.6160  145.3720 C   0  0  0  0  0  1  0  0  0  0  0  0
  196.5450  176.5020  143.7950 O   0  0  0  0  0  0  0  0  0  0  0  0
  195.0150  177.5710  145.2400 C   0  0  0  0  0  2  0  0  0  0  0  0
  194.0630  174.7700  145.5470 C   0  0  2  0  0  3  0  0  0  0  0  0
  193.4630  175.9150  146.3880 C   0  0  2  0  0  3  0  0  0  0  0  0
  194.5870  175.2450  144.1930 C   0  0  0  0  0  2  0  0  0  0  0  0
  1  6  1  0  0  0  0
  2  3  1  6  0  0  0
  2 13  1  0  0  0  0
  2  5  1  0  0  0  0
  4  7  2  0  0  0  0
  5 16  2  0  0  0  0
  6 17  2  0  0  0  0
  7  3  1  0  0  0  0
  8 23  1  1  0  0  0
  8 12  1  0  0  0  0
  9  1  1  0  0  0  0
 10 18  1  0  0  0  0
 11  4  1  0  0  0  0
 13 18  1  6  0  0  0
 13  8  1  0  0  0  0
 14  5  1  0  0  0  0
 14  1  2  0  0  0  0
 15 20  2  0  0  0  0
 15  4  1  0  0  0  0
 16 12  1  0  0  0  0
 16 17  1  0  0  0  0
 19 10  1  0  0  0  0
 19  3  2  0  0  0  0
 20 19  1  0  0  0  0
 21 22  2  0  0  0  0
 22 23  1  0  0  0  0
 24 28  1  0  0  0  0
 27 24  2  0  0  0  0
 28 25  1  0  0  0  0
 29 26  1  6  0  0  0
 29 30  1  0  0  0  0
 30 22  1  6  0  0  0
 30 25  1  0  0  0  0
 31 24  1  0  0  0  0
 31 29  1  0  0  0  0
M  END
>  <MODEL>
1

>  <REMARK>
 VINA RESULT:      -9.4      0.000      0.000
  Name = 
  2 active torsions:
  status: ('A' for Active; 'I' for Inactive)
    1  A    between atoms: C_5  and  C_30
    2  A    between atoms: C_10  and  N_16
                            x       y       z     vdW  Elec       q    Type
                         _______ _______ _______ _____ _____    ______ ____

>  <TORSDO>
F 2

$$$$
=
 OpenBabel11112416563D

 31 35  0  0  1  0  0  0  0  0999 V2000
  185.0070  177.7980  146.7740 C   0  0  0  0  0  0  0  0  0  0  0  0
  187.2090  175.8900  144.3260 C   0  0  2  0  0  3  0  0  0  0  0  0
  186.9490  176.4960  142.9510 C   0  0  0  0  0  0  0  0  0  0  0  0
  185.4720  177.7190  141.4480 C   0  0  0  0  0  0  0  0  0  0  0  0
  186.7910  176.7890  145.4690 C   0  0  0  0  0  0  0  0  0  0  0  0
  185.9490  178.5070  147.5220 C   0  0  0  0  0  3  0  0  0  0  0  0
  185.7710  177.2260  142.7180 C   0  0  0  0  0  3  0  0  0  0  0  0
  189.5950  176.5840  144.7750 C   0  0  2  0  0  3  0  0  0  0  0  0
  183.6870  177.9440  147.0350 F   0  0  0  0  0  0  0  0  0  0  0  0
  189.0850  175.4590  142.0190 C   0  0  0  0  0  2  0  0  0  0  0  0
  184.2290  178.5030  141.2290 C   0  0  0  0  0  1  0  0  0  0  0  0
  189.2180  177.2600  146.0920 C   0  0  0  0  0  2  0  0  0  0  0  0
  188.6590  175.3990  144.5000 C   0  0  2  0  0  3  0  0  0  0  0  0
  185.4280  176.9410  145.7550 C   0  0  0  0  0  3  0  0  0  0  0  0
  186.3390  177.4730  140.3820 C   0  0  0  0  0  3  0  0  0  0  0  0
  187.7430  177.5010  146.2350 C   0  0  0  0  0  0  0  0  0  0  0  0
  187.3110  178.3500  147.2600 C   0  0  0  0  0  3  0  0  0  0  0  0
  189.0840  174.5900  143.2730 C   0  0  0  0  0  2  0  0  0  0  0  0
  187.8020  176.2180  141.8560 C   0  0  0  0  0  0  0  0  0  0  0  0
  187.5000  176.7260  140.5880 C   0  0  0  0  0  3  0  0  0  0  0  0
  191.8630  178.0050  143.7700 O   0  0  0  0  0  0  0  0  0  0  0  0
  192.0700  176.8930  144.3260 C   0  0  0  0  0  0  0  0  0  0  0  0
  190.9770  176.1310  144.8450 N   0  0  0  0  0  2  0  0  0  0  0  0
  193.3640  173.5770  145.1540 C   0  0  0  0  0  0  0  0  0  0  0  0
  193.7350  175.2700  143.3730 C   0  0  0  0  0  2  0  0  0  0  0  0
  193.6870  176.9800  146.8680 C   0  0  0  0  0  1  0  0  0  0  0  0
  193.6800  172.4320  145.4280 O   0  0  0  0  0  0  0  0  0  0  0  0
  193.0440  173.9530  143.7390 C   0  0  0  0  0  2  0  0  0  0  0  0
  193.8970  175.9010  145.8190 C   0  0  2  0  0  3  0  0  0  0  0  0
  193.4760  176.3680  144.4110 C   0  0  2  0  0  3  0  0  0  0  0  0
  193.2140  174.6000  146.2380 C   0  0  0  0  0  2  0  0  0  0  0  0
  1  9  1  0  0  0  0
  1  6  1  0  0  0  0
  2  3  1  6  0  0  0
  2 13  1  0  0  0  0
  2  5  1  0  0  0  0
  4  7  2  0  0  0  0
  5 14  1  0  0  0  0
  5 16  2  0  0  0  0
  7  3  1  0  0  0  0
  8 23  1  1  0  0  0
  8 12  1  0  0  0  0
 10 18  1  0  0  0  0
 11  4  1  0  0  0  0
 12 16  1  0  0  0  0
 13 18  1  6  0  0  0
 13  8  1  0  0  0  0
 14  1  2  0  0  0  0
 15 20  2  0  0  0  0
 15  4  1  0  0  0  0
 16 17  1  0  0  0  0
 17  6  2  0  0  0  0
 19 10  1  0  0  0  0
 19  3  2  0  0  0  0
 20 19  1  0  0  0  0
 21 22  2  0  0  0  0
 22 23  1  0  0  0  0
 24 27  2  0  0  0  0
 24 31  1  0  0  0  0
 25 28  1  0  0  0  0
 25 30  1  0  0  0  0
 28 24  1  0  0  0  0
 29 31  1  0  0  0  0
 29 26  1  1  0  0  0
 30 22  1  1  0  0  0
 30 29  1  0  0  0  0
M  END
>  <MODEL>
2

>  <REMARK>
 VINA RESULT:      -9.2      1.373      2.068
  Name = 
  2 active torsions:
  status: ('A' for Active; 'I' for Inactive)
    1  A    between atoms: C_5  and  C_30
    2  A    between atoms: C_10  and  N_16
                            x       y       z     vdW  Elec       q    Type
                         _______ _______ _______ _____ _____    ______ ____

>  <TORSDO>
F 2

$$$$
=
 OpenBabel11112416563D

 31 35  0  0  1  0  0  0  0  0999 V2000
  186.1790  178.1420  140.8460 C   0  0  0  0  0  0  0  0  0  0  0  0
  188.5700  177.9030  143.7970 C   0  0  2  0  0  3  0  0  0  0  0  0
  187.7090  177.6510  145.0290 C   0  0  0  0  0  0  0  0  0  0  0  0
  185.5510  177.8260  146.1470 C   0  0  0  0  0  0  0  0  0  0  0  0
  187.8710  177.5760  142.4950 C   0  0  0  0  0  0  0  0  0  0  0  0
  186.4790  176.9800  140.1320 C   0  0  0  0  0  3  0  0  0  0  0  0
  186.3410  177.9710  145.0060 C   0  0  0  0  0  3  0  0  0  0  0  0
  189.8250  175.7230  143.5620 C   0  0  2  0  0  3  0  0  0  0  0  0
  185.2120  178.9780  140.4020 F   0  0  0  0  0  0  0  0  0  0  0  0
  189.7350  176.8560  146.3610 C   0  0  0  0  0  2  0  0  0  0  0  0
  184.1030  178.1540  146.0950 C   0  0  0  0  0  1  0  0  0  0  0  0
  189.3420  175.5260  142.1270 C   0  0  0  0  0  2  0  0  0  0  0  0
  189.9490  177.2210  143.8790 C   0  0  2  0  0  3  0  0  0  0  0  0
  186.8750  178.4380  142.0200 C   0  0  0  0  0  3  0  0  0  0  0  0
  186.1220  177.3750  147.3380 C   0  0  0  0  0  3  0  0  0  0  0  0
  188.1790  176.4040  141.7650 C   0  0  0  0  0  0  0  0  0  0  0  0
  187.4820  176.1210  140.5860 C   0  0  0  0  0  3  0  0  0  0  0  0
  190.5760  177.4790  145.2500 C   0  0  0  0  0  2  0  0  0  0  0  0
  188.2870  177.2310  146.2520 C   0  0  0  0  0  0  0  0  0  0  0  0
  187.4850  177.0780  147.3880 C   0  0  0  0  0  3  0  0  0  0  0  0
  190.3120  173.4380  145.2080 O   0  0  0  0  0  0  0  0  0  0  0  0
  191.2880  173.9160  144.5700 C   0  0  0  0  0  0  0  0  0  0  0  0
  191.1100  175.0620  143.7330 N   0  0  0  0  0  2  0  0  0  0  0  0
  194.6520  175.3190  144.3030 C   0  0  0  0  0  0  0  0  0  0  0  0
  193.4170  173.8760  145.9050 C   0  0  0  0  0  2  0  0  0  0  0  0
  192.7780  172.6900  142.2550 C   0  0  0  0  0  1  0  0  0  0  0  0
  195.7220  175.8960  144.2070 O   0  0  0  0  0  0  0  0  0  0  0  0
  193.9260  175.2900  145.6140 C   0  0  0  0  0  2  0  0  0  0  0  0
  193.5020  173.3030  143.4410 C   0  0  2  0  0  3  0  0  0  0  0  0
  192.6430  173.2830  144.7210 C   0  0  2  0  0  3  0  0  0  0  0  0
  194.0150  174.7010  143.0970 C   0  0  0  0  0  2  0  0  0  0  0  0
  1 14  1  0  0  0  0
  2  5  1  6  0  0  0
  2 13  1  0  0  0  0
  2  3  1  0  0  0  0
  3 19  1  0  0  0  0
  4 15  2  0  0  0  0
  6 17  1  0  0  0  0
  6  1  2  0  0  0  0
  7  3  2  0  0  0  0
  7  4  1  0  0  0  0
  8 23  1  6  0  0  0
  8 13  1  0  0  0  0
  9  1  1  0  0  0  0
 11  4  1  0  0  0  0
 12  8  1  0  0  0  0
 13 18  1  1  0  0  0
 14  5  2  0  0  0  0
 15 20  1  0  0  0  0
 16 12  1  0  0  0  0
 16  5  1  0  0  0  0
 17 16  2  0  0  0  0
 18 10  1  0  0  0  0
 19 10  1  0  0  0  0
 19 20  2  0  0  0  0
 22 21  2  0  0  0  0
 23 22  1  0  0  0  0
 24 28  1  0  0  0  0
 27 24  2  0  0  0  0
 28 25  1  0  0  0  0
 29 26  1  6  0  0  0
 29 30  1  0  0  0  0
 30 22  1  6  0  0  0
 30 25  1  0  0  0  0
 31 29  1  0  0  0  0
 31 24  1  0  0  0  0
M  END
>  <MODEL>
3

>  <REMARK>
 VINA RESULT:      -8.9      2.003      4.288
  Name = 
  2 active torsions:
  status: ('A' for Active; 'I' for Inactive)
    1  A    between atoms: C_5  and  C_30
    2  A    between atoms: C_10  and  N_16
                            x       y       z     vdW  Elec       q    Type
                         _______ _______ _______ _____ _____    ______ ____

>  <TORSDO>
F 2

$$$$
=
 OpenBabel11112416563D

 31 35  0  0  1  0  0  0  0  0999 V2000
  194.5580  176.4080  145.1130 C   0  0  0  0  0  0  0  0  0  0  0  0
  191.1620  176.9280  143.4750 C   0  0  2  0  0  3  0  0  0  0  0  0
  190.8940  175.6840  142.6370 C   0  0  0  0  0  0  0  0  0  0  0  0
  191.7510  173.7580  141.4130 C   0  0  0  0  0  0  0  0  0  0  0  0
  192.2170  176.7220  144.5400 C   0  0  0  0  0  0  0  0  0  0  0  0
  194.2130  176.2570  146.4580 C   0  0  0  0  0  3  0  0  0  0  0  0
  191.9610  174.8570  142.2480 C   0  0  0  0  0  3  0  0  0  0  0  0
  189.4220  176.7370  145.2950 C   0  0  2  0  0  3  0  0  0  0  0  0
  195.8550  176.3250  144.7330 F   0  0  0  0  0  0  0  0  0  0  0  0
  188.4080  176.2380  142.4940 C   0  0  0  0  0  2  0  0  0  0  0  0
  192.8920  172.8880  141.0280 C   0  0  0  0  0  1  0  0  0  0  0  0
  190.4750  176.8140  146.3980 C   0  0  0  0  0  2  0  0  0  0  0  0
  189.8790  177.5390  144.0690 C   0  0  2  0  0  3  0  0  0  0  0  0
  193.5640  176.6430  144.1610 C   0  0  0  0  0  3  0  0  0  0  0  0
  190.4690  173.4800  140.9370 C   0  0  0  0  0  3  0  0  0  0  0  0
  191.8730  176.5770  145.9040 C   0  0  0  0  0  0  0  0  0  0  0  0
  192.8770  176.3510  146.8510 C   0  0  0  0  0  3  0  0  0  0  0  0
  188.7980  177.6270  142.9900 C   0  0  0  0  0  2  0  0  0  0  0  0
  189.6040  175.4150  142.1180 C   0  0  0  0  0  0  0  0  0  0  0  0
  189.4000  174.3050  141.2910 C   0  0  0  0  0  3  0  0  0  0  0  0
  187.8170  175.5270  147.3270 O   0  0  0  0  0  0  0  0  0  0  0  0
  187.4030  176.6050  146.8220 C   0  0  0  0  0  0  0  0  0  0  0  0
  188.1590  177.2570  145.7970 N   0  0  0  0  0  2  0  0  0  0  0  0
  185.0860  178.9440  145.2360 C   0  0  0  0  0  0  0  0  0  0  0  0
  184.9320  176.7500  146.3920 C   0  0  0  0  0  2  0  0  0  0  0  0
  187.2270  179.1690  148.3970 C   0  0  0  0  0  1  0  0  0  0  0  0
  184.3810  179.7150  144.6080 O   0  0  0  0  0  0  0  0  0  0  0  0
  184.9510  177.4650  145.0380 C   0  0  0  0  0  2  0  0  0  0  0  0
  186.1050  178.7100  147.4810 C   0  0  2  0  0  3  0  0  0  0  0  0
  186.0970  177.1800  147.2910 C   0  0  2  0  0  3  0  0  0  0  0  0
  186.1470  179.4690  146.1540 C   0  0  0  0  0  2  0  0  0  0  0  0
  1  6  1  0  0  0  0
  2  3  1  1  0  0  0
  2 13  1  0  0  0  0
  2  5  1  0  0  0  0
  4  7  2  0  0  0  0
  5 16  2  0  0  0  0
  6 17  2  0  0  0  0
  7  3  1  0  0  0  0
  8 23  1  1  0  0  0
  8 12  1  0  0  0  0
  9  1  1  0  0  0  0
 10 18  1  0  0  0  0
 11  4  1  0  0  0  0
 13 18  1  6  0  0  0
 13  8  1  0  0  0  0
 14  5  1  0  0  0  0
 14  1  2  0  0  0  0
 15 20  2  0  0  0  0
 15  4  1  0  0  0  0
 16 12  1  0  0  0  0
 16 17  1  0  0  0  0
 19 10  1  0  0  0  0
 19  3  2  0  0  0  0
 20 19  1  0  0  0  0
 22 21  2  0  0  0  0
 23 22  1  0  0  0  0
 24 31  1  0  0  0  0
 25 30  1  0  0  0  0
 27 24  2  0  0  0  0
 28 24  1  0  0  0  0
 28 25  1  0  0  0  0
 29 26  1  1  0  0  0
 30 22  1  6  0  0  0
 30 29  1  0  0  0  0
 31 29  1  0  0  0  0
M  END
>  <MODEL>
4

>  <REMARK>
 VINA RESULT:      -8.7      3.426      7.180
  Name = 
  2 active torsions:
  status: ('A' for Active; 'I' for Inactive)
    1  A    between atoms: C_5  and  C_30
    2  A    between atoms: C_10  and  N_16
                            x       y       z     vdW  Elec       q    Type
                         _______ _______ _______ _____ _____    ______ ____

>  <TORSDO>
F 2

$$$$
=
 OpenBabel11112416563D

 31 35  0  0  1  0  0  0  0  0999 V2000
  185.5550  178.3240  141.1230 C   0  0  0  0  0  0  0  0  0  0  0  0
  188.4160  178.1300  143.6250 C   0  0  2  0  0  3  0  0  0  0  0  0
  187.8170  177.5970  144.9220 C   0  0  0  0  0  0  0  0  0  0  0  0
  185.8740  177.2840  146.3580 C   0  0  0  0  0  0  0  0  0  0  0  0
  187.5620  177.8500  142.4080 C   0  0  0  0  0  0  0  0  0  0  0  0
  185.8930  177.3200  140.2140 C   0  0  0  0  0  3  0  0  0  0  0  0
  186.4330  177.6900  145.1460 C   0  0  0  0  0  3  0  0  0  0  0  0
  189.9100  176.2280  142.9000 C   0  0  2  0  0  3  0  0  0  0  0  0
  184.4180  179.0390  140.9500 F   0  0  0  0  0  0  0  0  0  0  0  0
  190.1290  176.9910  145.8140 C   0  0  0  0  0  2  0  0  0  0  0  0
  184.4060  177.3760  146.5670 C   0  0  0  0  0  1  0  0  0  0  0  0
  189.2260  176.1260  141.5380 C   0  0  0  0  0  2  0  0  0  0  0  0
  189.8710  177.6770  143.4050 C   0  0  2  0  0  3  0  0  0  0  0  0
  186.3880  178.5890  142.2120 C   0  0  0  0  0  3  0  0  0  0  0  0
  186.6940  176.7950  147.3750 C   0  0  0  0  0  3  0  0  0  0  0  0
  187.9060  176.8390  141.4800 C   0  0  0  0  0  0  0  0  0  0  0  0
  187.0690  176.5880  140.3880 C   0  0  0  0  0  3  0  0  0  0  0  0
  190.6750  177.8690  144.6920 C   0  0  0  0  0  2  0  0  0  0  0  0
  188.6450  177.1350  145.9740 C   0  0  0  0  0  0  0  0  0  0  0  0
  188.0740  176.7200  147.1820 C   0  0  0  0  0  3  0  0  0  0  0  0
  191.0210  173.9520  144.2250 O   0  0  0  0  0  0  0  0  0  0  0  0
  191.7810  174.6170  143.4710 C   0  0  0  0  0  0  0  0  0  0  0  0
  191.2860  175.7690  142.7840 N   0  0  0  0  0  2  0  0  0  0  0  0
  193.8150  172.2630  145.3880 C   0  0  0  0  0  0  0  0  0  0  0  0
  193.3430  172.7070  142.9890 C   0  0  0  0  0  2  0  0  0  0  0  0
  194.0390  176.0440  144.8660 C   0  0  0  0  0  1  0  0  0  0  0  0
  194.3930  171.4460  146.0850 O   0  0  0  0  0  0  0  0  0  0  0  0
  193.0300  171.8140  144.1930 C   0  0  0  0  0  2  0  0  0  0  0  0
  194.1120  174.5650  144.5270 C   0  0  2  0  0  3  0  0  0  0  0  0
  193.2170  174.1980  143.3260 C   0  0  2  0  0  3  0  0  0  0  0  0
  193.8200  173.7130  145.7620 C   0  0  0  0  0  2  0  0  0  0  0  0
  1 14  1  0  0  0  0
  2  5  1  6  0  0  0
  2  3  1  0  0  0  0
  3  7  2  0  0  0  0
  3 19  1  0  0  0  0
  4 11  1  0  0  0  0
  4 15  2  0  0  0  0
  6 17  1  0  0  0  0
  6  1  2  0  0  0  0
  7  4  1  0  0  0  0
  8 23  1  6  0  0  0
  8 13  1  0  0  0  0
  9  1  1  0  0  0  0
 10 19  1  0  0  0  0
 12  8  1  0  0  0  0
 13  2  1  0  0  0  0
 13 18  1  1  0  0  0
 14  5  2  0  0  0  0
 16 12  1  0  0  0  0
 16  5  1  0  0  0  0
 17 16  2  0  0  0  0
 18 10  1  0  0  0  0
 19 20  2  0  0  0  0
 20 15  1  0  0  0  0
 22 21  2  0  0  0  0
 23 22  1  0  0  0  0
 24 31  1  0  0  0  0
 24 27  2  0  0  0  0
 25 30  1  0  0  0  0
 25 28  1  0  0  0  0
 28 24  1  0  0  0  0
 29 26  1  1  0  0  0
 29 31  1  0  0  0  0
 30 22  1  1  0  0  0
 30 29  1  0  0  0  0
M  END
>  <MODEL>
5

>  <REMARK>
 VINA RESULT:      -8.2      2.254      4.643
  Name = 
  2 active torsions:
  status: ('A' for Active; 'I' for Inactive)
    1  A    between atoms: C_5  and  C_30
    2  A    between atoms: C_10  and  N_16
                            x       y       z     vdW  Elec       q    Type
                         _______ _______ _______ _____ _____    ______ ____

>  <TORSDO>
F 2

$$$$
=
 OpenBabel11112416563D

 31 35  0  0  1  0  0  0  0  0999 V2000
  187.0040  177.9830  147.3160 C   0  0  0  0  0  0  0  0  0  0  0  0
  188.7330  175.1110  145.5140 C   0  0  2  0  0  3  0  0  0  0  0  0
  188.5860  175.3890  144.0230 C   0  0  0  0  0  0  0  0  0  0  0  0
  187.3760  176.4650  142.2020 C   0  0  0  0  0  0  0  0  0  0  0  0
  188.5240  176.3350  146.3780 C   0  0  0  0  0  0  0  0  0  0  0  0
  188.0810  178.6510  147.9010 C   0  0  0  0  0  3  0  0  0  0  0  0
  187.5820  176.2590  143.5670 C   0  0  0  0  0  3  0  0  0  0  0  0
  191.2170  175.3970  145.8720 C   0  0  2  0  0  3  0  0  0  0  0  0
  185.7450  178.4550  147.4780 F   0  0  0  0  0  0  0  0  0  0  0  0
  190.4510  173.7390  143.4670 C   0  0  0  0  0  2  0  0  0  0  0  0
  186.3190  177.4030  141.7440 C   0  0  0  0  0  1  0  0  0  0  0  0
  191.0030  176.4460  146.9610 C   0  0  0  0  0  2  0  0  0  0  0  0
  190.0520  174.3970  145.8640 C   0  0  2  0  0  3  0  0  0  0  0  0
  187.2260  176.8290  146.5610 C   0  0  0  0  0  3  0  0  0  0  0  0
  188.1600  175.7870  141.2680 C   0  0  0  0  0  3  0  0  0  0  0  0
  189.6120  177.0100  146.9800 C   0  0  0  0  0  0  0  0  0  0  0  0
  189.3780  178.1600  147.7410 C   0  0  0  0  0  3  0  0  0  0  0  0
  190.2860  173.2350  144.8970 C   0  0  0  0  0  2  0  0  0  0  0  0
  189.3500  174.6760  143.0670 C   0  0  0  0  0  0  0  0  0  0  0  0
  189.1440  174.8970  141.7010 C   0  0  0  0  0  3  0  0  0  0  0  0
  193.4810  175.4240  144.1280 O   0  0  0  0  0  0  0  0  0  0  0  0
  193.5760  174.7630  145.1960 C   0  0  0  0  0  0  0  0  0  0  0  0
  192.4760  174.7060  146.1090 N   0  0  0  0  0  2  0  0  0  0  0  0
  196.3290  173.7520  143.0160 C   0  0  0  0  0  0  0  0  0  0  0  0
  196.0860  174.8790  145.2180 C   0  0  0  0  0  2  0  0  0  0  0  0
  193.7680  171.7590  145.0390 C   0  0  0  0  0  1  0  0  0  0  0  0
  197.1950  173.4800  142.2030 O   0  0  0  0  0  0  0  0  0  0  0  0
  196.3440  175.0740  143.7210 C   0  0  0  0  0  2  0  0  0  0  0  0
  194.9630  172.6550  144.7670 C   0  0  2  0  0  3  0  0  0  0  0  0
  194.8470  174.0150  145.4850 C   0  0  2  0  0  3  0  0  0  0  0  0
  195.1990  172.8010  143.2630 C   0  0  0  0  0  2  0  0  0  0  0  0
  1  9  1  0  0  0  0
  1  6  1  0  0  0  0
  2  3  1  6  0  0  0
  2 13  1  0  0  0  0
  2  5  1  0  0  0  0
  4  7  2  0  0  0  0
  5 14  1  0  0  0  0
  5 16  2  0  0  0  0
  7  3  1  0  0  0  0
  8 23  1  1  0  0  0
  8 12  1  0  0  0  0
 10 18  1  0  0  0  0
 11  4  1  0  0  0  0
 12 16  1  0  0  0  0
 13 18  1  6  0  0  0
 13  8  1  0  0  0  0
 14  1  2  0  0  0  0
 15 20  2  0  0  0  0
 15  4  1  0  0  0  0
 16 17  1  0  0  0  0
 17  6  2  0  0  0  0
 19 10  1  0  0  0  0
 19  3  2  0  0  0  0
 20 19  1  0  0  0  0
 21 22  2  0  0  0  0
 22 23  1  0  0  0  0
 24 31  1  0  0  0  0
 24 28  1  0  0  0  0
 25 30  1  0  0  0  0
 27 24  2  0  0  0  0
 28 25  1  0  0  0  0
 29 26  1  6  0  0  0
 29 30  1  0  0  0  0
 30 22  1  6  0  0  0
 31 29  1  0  0  0  0
M  END
>  <MODEL>
6

>  <REMARK>
 VINA RESULT:      -7.5      1.622      2.184
  Name = 
  2 active torsions:
  status: ('A' for Active; 'I' for Inactive)
    1  A    between atoms: C_5  and  C_30
    2  A    between atoms: C_10  and  N_16
                            x       y       z     vdW  Elec       q    Type
                         _______ _______ _______ _____ _____    ______ ____

>  <TORSDO>
F 2

$$$$
=
 OpenBabel11112416563D

 31 35  0  0  1  0  0  0  0  0999 V2000
  196.1740  173.8110  144.4650 C   0  0  0  0  0  0  0  0  0  0  0  0
  192.7690  174.5840  142.9520 C   0  0  2  0  0  3  0  0  0  0  0  0
  192.0180  173.2590  142.8810 C   0  0  0  0  0  0  0  0  0  0  0  0
  192.0720  170.8250  142.7750 C   0  0  0  0  0  0  0  0  0  0  0  0
  193.9300  174.5680  143.9220 C   0  0  0  0  0  0  0  0  0  0  0  0
  196.0860  174.4310  145.7130 C   0  0  0  0  0  3  0  0  0  0  0  0
  192.7290  172.0480  142.9200 C   0  0  0  0  0  3  0  0  0  0  0  0
  191.4530  175.8550  144.6930 C   0  0  2  0  0  3  0  0  0  0  0  0
  197.2970  173.1370  144.1220 F   0  0  0  0  0  0  0  0  0  0  0  0
  189.7890  174.4640  142.5910 C   0  0  0  0  0  2  0  0  0  0  0  0
  192.8420  169.5560  142.8350 C   0  0  0  0  0  1  0  0  0  0  0  0
  192.6940  176.0900  145.5510 C   0  0  0  0  0  2  0  0  0  0  0  0
  191.8400  175.7860  143.2090 C   0  0  2  0  0  3  0  0  0  0  0  0
  195.1010  173.8820  143.5740 C   0  0  0  0  0  3  0  0  0  0  0  0
  190.6930  170.7950  142.5680 C   0  0  0  0  0  3  0  0  0  0  0  0
  193.8490  175.2040  145.1830 C   0  0  0  0  0  0  0  0  0  0  0  0
  194.9320  175.1330  146.0650 C   0  0  0  0  0  3  0  0  0  0  0  0
  190.6210  175.7070  142.2890 C   0  0  0  0  0  2  0  0  0  0  0  0
  190.6250  173.2200  142.6330 C   0  0  0  0  0  0  0  0  0  0  0  0
  189.9720  171.9890  142.4990 C   0  0  0  0  0  3  0  0  0  0  0  0
  188.8030  175.5460  145.7200 O   0  0  0  0  0  0  0  0  0  0  0  0
  189.1880  176.7130  145.4400 C   0  0  0  0  0  0  0  0  0  0  0  0
  190.5010  176.9330  144.9170 N   0  0  0  0  0  2  0  0  0  0  0  0
  185.6220  176.7940  146.2340 C   0  0  0  0  0  0  0  0  0  0  0  0
  187.6850  177.9030  147.0650 C   0  0  0  0  0  2  0  0  0  0  0  0
  187.6150  177.9280  143.1740 C   0  0  0  0  0  1  0  0  0  0  0  0
  184.4390  176.7020  146.5160 O   0  0  0  0  0  0  0  0  0  0  0  0
  186.6570  176.7960  147.3170 C   0  0  0  0  0  2  0  0  0  0  0  0
  187.0970  177.9300  144.6020 C   0  0  2  0  0  3  0  0  0  0  0  0
  188.2400  177.8630  145.6360 C   0  0  2  0  0  3  0  0  0  0  0  0
  186.0570  176.8280  144.8020 C   0  0  0  0  0  2  0  0  0  0  0  0
  1  6  1  0  0  0  0
  2  3  1  1  0  0  0
  2 13  1  0  0  0  0
  2  5  1  0  0  0  0
  3  7  1  0  0  0  0
  4 11  1  0  0  0  0
  4  7  2  0  0  0  0
  5 16  2  0  0  0  0
  6 17  2  0  0  0  0
  8 23  1  6  0  0  0
  8 12  1  0  0  0  0
  9  1  1  0  0  0  0
 10 19  1  0  0  0  0
 13 18  1  6  0  0  0
 13  8  1  0  0  0  0
 14  5  1  0  0  0  0
 14  1  2  0  0  0  0
 15  4  1  0  0  0  0
 16 12  1  0  0  0  0
 16 17  1  0  0  0  0
 18 10  1  0  0  0  0
 19  3  2  0  0  0  0
 20 15  2  0  0  0  0
 20 19  1  0  0  0  0
 22 21  2  0  0  0  0
 23 22  1  0  0  0  0
 24 27  2  0  0  0  0
 24 28  1  0  0  0  0
 25 28  1  0  0  0  0
 29 26  1  6  0  0  0
 29 31  1  0  0  0  0
 29 30  1  0  0  0  0
 30 22  1  1  0  0  0
 30 25  1  0  0  0  0
 31 24  1  0  0  0  0
M  END
>  <MODEL>
7

>  <REMARK>
 VINA RESULT:      -7.4      3.771      7.854
  Name = 
  2 active torsions:
  status: ('A' for Active; 'I' for Inactive)
    1  A    between atoms: C_5  and  C_30
    2  A    between atoms: C_10  and  N_16
                            x       y       z     vdW  Elec       q    Type
                         _______ _______ _______ _____ _____    ______ ____

>  <TORSDO>
F 2

$$$$
=
 OpenBabel11112416563D

 31 35  0  0  1  0  0  0  0  0999 V2000
  185.7960  179.0200  143.0000 C   0  0  0  0  0  0  0  0  0  0  0  0
  189.0000  177.0660  143.6280 C   0  0  2  0  0  3  0  0  0  0  0  0
  188.7940  176.3100  144.9350 C   0  0  0  0  0  0  0  0  0  0  0  0
  187.6580  176.1100  147.0820 C   0  0  0  0  0  0  0  0  0  0  0  0
  187.7090  177.5220  142.9850 C   0  0  0  0  0  0  0  0  0  0  0  0
  185.2640  178.3620  141.8900 C   0  0  0  0  0  3  0  0  0  0  0  0
  187.8100  176.7350  145.8430 C   0  0  0  0  0  3  0  0  0  0  0  0
  189.0740  175.1960  141.9320 C   0  0  2  0  0  3  0  0  0  0  0  0
  185.1290  180.0610  143.5530 F   0  0  0  0  0  0  0  0  0  0  0  0
  190.7390  174.7440  144.4110 C   0  0  0  0  0  2  0  0  0  0  0  0
  186.5990  176.5660  148.0190 C   0  0  0  0  0  1  0  0  0  0  0  0
  187.9420  175.8090  141.1120 C   0  0  0  0  0  2  0  0  0  0  0  0
  189.8850  176.3000  142.6250 C   0  0  2  0  0  3  0  0  0  0  0  0
  187.0130  178.6030  143.5420 C   0  0  0  0  0  3  0  0  0  0  0  0
  188.5030  175.0600  147.4410 C   0  0  0  0  0  3  0  0  0  0  0  0
  187.1720  176.8630  141.8540 C   0  0  0  0  0  0  0  0  0  0  0  0
  185.9560  177.2940  141.3140 C   0  0  0  0  0  3  0  0  0  0  0  0
  191.1250  175.7570  143.3360 C   0  0  0  0  0  2  0  0  0  0  0  0
  189.6710  175.2690  145.3250 C   0  0  0  0  0  0  0  0  0  0  0  0
  189.5050  174.6410  146.5630 C   0  0  0  0  0  3  0  0  0  0  0  0
  189.5200  172.3790  142.1270 O   0  0  0  0  0  0  0  0  0  0  0  0
  190.1110  173.0010  141.2040 C   0  0  0  0  0  0  0  0  0  0  0  0
  189.9340  174.4120  141.0560 N   0  0  0  0  0  2  0  0  0  0  0  0
  192.3140  170.1440  141.7900 C   0  0  0  0  0  0  0  0  0  0  0  0
  190.5880  170.7830  140.1210 C   0  0  0  0  0  2  0  0  0  0  0  0
  192.9950  173.7690  140.7800 C   0  0  0  0  0  1  0  0  0  0  0  0
  193.0000  169.1840  142.0960 O   0  0  0  0  0  0  0  0  0  0  0  0
  190.8880  169.9510  141.3700 C   0  0  0  0  0  2  0  0  0  0  0  0
  192.5190  172.3320  140.6490 C   0  0  2  0  0  3  0  0  0  0  0  0
  191.0240  172.2450  140.2800 C   0  0  2  0  0  3  0  0  0  0  0  0
  192.8640  171.5330  141.9060 C   0  0  0  0  0  2  0  0  0  0  0  0
  1 14  1  0  0  0  0
  1  9  1  0  0  0  0
  2  5  1  6  0  0  0
  2  3  1  0  0  0  0
  3 19  2  0  0  0  0
  3  7  1  0  0  0  0
  4 15  1  0  0  0  0
  4 11  1  0  0  0  0
  5 14  2  0  0  0  0
  6  1  2  0  0  0  0
  7  4  2  0  0  0  0
  8 23  1  6  0  0  0
  8 13  1  0  0  0  0
 10 19  1  0  0  0  0
 12 16  1  0  0  0  0
 12  8  1  0  0  0  0
 13 18  1  1  0  0  0
 13  2  1  0  0  0  0
 16  5  1  0  0  0  0
 17 16  2  0  0  0  0
 17  6  1  0  0  0  0
 18 10  1  0  0  0  0
 19 20  1  0  0  0  0
 20 15  2  0  0  0  0
 22 21  2  0  0  0  0
 23 22  1  0  0  0  0
 24 31  1  0  0  0  0
 24 27  2  0  0  0  0
 25 30  1  0  0  0  0
 25 28  1  0  0  0  0
 28 24  1  0  0  0  0
 29 26  1  1  0  0  0
 29 31  1  0  0  0  0
 30 29  1  0  0  0  0
 30 22  1  1  0  0  0
M  END
>  <MODEL>
8

>  <REMARK>
 VINA RESULT:      -7.4      3.443      5.604
  Name = 
  2 active torsions:
  status: ('A' for Active; 'I' for Inactive)
    1  A    between atoms: C_5  and  C_30
    2  A    between atoms: C_10  and  N_16
                            x       y       z     vdW  Elec       q    Type
                         _______ _______ _______ _____ _____    ______ ____

>  <TORSDO>
F 2

$$$$
=
 OpenBabel11112416563D

 31 35  0  0  1  0  0  0  0  0999 V2000
  188.1360  176.3030  141.6370 C   0  0  0  0  0  0  0  0  0  0  0  0
  191.4540  176.5720  143.4830 C   0  0  2  0  0  3  0  0  0  0  0  0
  191.1180  176.6040  144.9690 C   0  0  0  0  0  0  0  0  0  0  0  0
  189.5170  177.0770  146.7450 C   0  0  0  0  0  0  0  0  0  0  0  0
  190.3380  176.0170  142.6240 C   0  0  0  0  0  0  0  0  0  0  0  0
  188.1990  175.0120  141.1100 C   0  0  0  0  0  3  0  0  0  0  0  0
  189.8250  176.9620  145.3890 C   0  0  0  0  0  3  0  0  0  0  0  0
  192.6210  174.3460  143.2420 C   0  0  2  0  0  3  0  0  0  0  0  0
  187.0400  177.0680  141.4230 F   0  0  0  0  0  0  0  0  0  0  0  0
  193.5220  176.0180  145.5900 C   0  0  0  0  0  2  0  0  0  0  0  0
  188.1400  177.4420  147.1650 C   0  0  0  0  0  1  0  0  0  0  0  0
  191.6520  173.8830  142.1560 C   0  0  0  0  0  2  0  0  0  0  0  0
  192.7920  175.8700  143.1850 C   0  0  2  0  0  3  0  0  0  0  0  0
  189.2030  176.8030  142.3880 C   0  0  0  0  0  3  0  0  0  0  0  0
  190.5040  176.8540  147.7050 C   0  0  0  0  0  3  0  0  0  0  0  0
  190.4020  174.7130  142.0810 C   0  0  0  0  0  0  0  0  0  0  0  0
  189.3330  174.2250  141.3240 C   0  0  0  0  0  3  0  0  0  0  0  0
  193.8680  176.3750  144.1480 C   0  0  0  0  0  2  0  0  0  0  0  0
  192.1210  176.4170  145.9500 C   0  0  0  0  0  0  0  0  0  0  0  0
  191.8010  176.5240  147.3080 C   0  0  0  0  0  3  0  0  0  0  0  0
  193.7700  172.4160  145.0100 O   0  0  0  0  0  0  0  0  0  0  0  0
  194.4230  172.7220  143.9770 C   0  0  0  0  0  0  0  0  0  0  0  0
  193.9050  173.6860  143.0550 N   0  0  0  0  0  2  0  0  0  0  0  0
  196.4030  170.4370  146.0290 C   0  0  0  0  0  0  0  0  0  0  0  0
  195.6570  170.5560  143.6620 C   0  0  0  0  0  2  0  0  0  0  0  0
  197.0120  174.0140  144.8230 C   0  0  0  0  0  1  0  0  0  0  0  0
  196.9670  169.6670  146.7880 O   0  0  0  0  0  0  0  0  0  0  0  0
  195.4090  169.9210  145.0330 C   0  0  0  0  0  2  0  0  0  0  0  0
  196.8550  172.5050  144.7460 C   0  0  2  0  0  3  0  0  0  0  0  0
  195.7630  172.0840  143.7410 C   0  0  2  0  0  3  0  0  0  0  0  0
  196.6360  171.9120  146.1380 C   0  0  0  0  0  2  0  0  0  0  0  0
  1 14  1  0  0  0  0
  2  5  1  6  0  0  0
  2  3  1  0  0  0  0
  3  7  2  0  0  0  0
  3 19  1  0  0  0  0
  4 11  1  0  0  0  0
  4 15  2  0  0  0  0
  6 17  1  0  0  0  0
  6  1  2  0  0  0  0
  7  4  1  0  0  0  0
  8 23  1  6  0  0  0
  9  1  1  0  0  0  0
 10 19  1  0  0  0  0
 12  8  1  0  0  0  0
 13  8  1  0  0  0  0
 13  2  1  0  0  0  0
 13 18  1  1  0  0  0
 14  5  2  0  0  0  0
 16 12  1  0  0  0  0
 16  5  1  0  0  0  0
 17 16  2  0  0  0  0
 18 10  1  0  0  0  0
 19 20  2  0  0  0  0
 20 15  1  0  0  0  0
 22 21  2  0  0  0  0
 23 22  1  0  0  0  0
 24 31  1  0  0  0  0
 24 27  2  0  0  0  0
 25 30  1  0  0  0  0
 25 28  1  0  0  0  0
 28 24  1  0  0  0  0
 29 26  1  1  0  0  0
 29 31  1  0  0  0  0
 30 22  1  1  0  0  0
 30 29  1  0  0  0  0
M  END
>  <MODEL>
9

>  <REMARK>
 VINA RESULT:      -7.3      3.156      5.836
  Name = 
  2 active torsions:
  status: ('A' for Active; 'I' for Inactive)
    1  A    between atoms: C_5  and  C_30
    2  A    between atoms: C_10  and  N_16
                            x       y       z     vdW  Elec       q    Type
                         _______ _______ _______ _____ _____    ______ ____

>  <TORSDO>
F 2

$$$$
