=
 OpenBabel11112417033D

 31 35  0  0  1  0  0  0  0  0999 V2000
  184.6820  178.3200  146.6870 C   0  0  0  0  0  0  0  0  0  0  0  0
  187.2620  176.1260  144.9480 C   0  0  2  0  0  3  0  0  0  0  0  0
  187.5090  176.7520  143.5500 C   0  0  2  0  0  3  0  0  0  0  0  0
  186.2520  177.4570  141.4560 C   0  0  0  0  0  0  0  0  0  0  0  0
  186.6460  177.1140  145.9170 C   0  0  0  0  0  0  0  0  0  0  0  0
  185.4610  179.0030  147.6220 C   0  0  0  0  0  3  0  0  0  0  0  0
  186.1700  177.2010  142.9370 C   0  0  0  0  0  2  0  0  0  0  0  0
  189.5030  176.6470  145.9830 C   0  0  2  0  0  3  0  0  0  0  0  0
  183.3210  178.5770  146.5970 O   0  0  0  0  0  1  0  0  0  0  0  0
  189.4390  175.3550  143.2090 C   0  0  0  0  0  2  0  0  0  0  0  0
  185.0630  178.0120  140.7510 C   0  0  0  0  0  1  0  0  0  0  0  0
  188.8700  177.4530  147.1160 C   0  0  0  0  0  2  0  0  0  0  0  0
  188.5530  175.5270  145.5310 C   0  0  2  0  0  3  0  0  0  0  0  0
  185.2720  177.3780  145.8410 C   0  0  0  0  0  3  0  0  0  0  0  0
  187.3120  177.0680  140.7390 C   0  0  0  0  0  3  0  0  0  0  0  0
  187.4310  177.8020  146.8710 C   0  0  0  0  0  0  0  0  0  0  0  0
  186.8280  178.7360  147.7200 C   0  0  0  0  0  3  0  0  0  0  0  0
  189.2060  174.6010  144.5090 C   0  0  0  0  0  2  0  0  0  0  0  0
  188.1670  175.7910  142.6400 N   0  0  2  0  0  0  0  0  0  0  0  0
  188.5280  176.5070  141.4160 C   0  0  0  0  0  2  0  0  0  0  0  0
  192.0420  177.1210  144.7770 O   0  0  0  0  0  0  0  0  0  0  0  0
  192.0090  176.3710  145.7910 C   0  0  0  0  0  0  0  0  0  0  0  0
  190.7690  176.0880  146.4390 N   0  0  0  0  0  2  0  0  0  0  0  0
  195.5710  176.1920  144.5290 C   0  0  1  0  0  3  0  0  0  0  0  0
  194.3390  176.8060  146.6310 C   0  0  0  0  0  2  0  0  0  0  0  0
  192.8100  173.5710  145.1030 C   0  0  0  0  0  1  0  0  0  0  0  0
  196.1400  176.7010  143.3630 O   0  0  0  0  0  1  0  0  0  0  0  0
  194.9850  177.3390  145.3510 C   0  0  0  0  0  2  0  0  0  0  0  0
  193.8450  174.6320  145.4390 C   0  0  2  0  0  3  0  0  0  0  0  0
  193.2700  175.7510  146.3260 C   0  0  2  0  0  3  0  0  0  0  0  0
  194.4810  175.1870  144.1670 C   0  0  0  0  0  2  0  0  0  0  0  0
  1  6  1  0  0  0  0
  2 13  1  0  0  0  0
  2  5  1  1  0  0  0
  3  7  1  6  0  0  0
  3  2  1  0  0  0  0
  4  7  1  0  0  0  0
  5 16  2  0  0  0  0
  6 17  2  0  0  0  0
  8 23  1  1  0  0  0
  8 12  1  0  0  0  0
  9  1  1  0  0  0  0
 10 18  1  0  0  0  0
 11  4  1  0  0  0  0
 13 18  1  6  0  0  0
 13  8  1  0  0  0  0
 14  5  1  0  0  0  0
 14  1  2  0  0  0  0
 15 20  1  0  0  0  0
 15  4  2  0  0  0  0
 16 12  1  0  0  0  0
 16 17  1  0  0  0  0
 19 20  1  6  0  0  0
 19 10  1  0  0  0  0
 19  3  1  0  0  0  0
 21 22  2  0  0  0  0
 22 23  1  0  0  0  0
 24 27  1  6  0  0  0
 24 28  1  0  0  0  0
 28 25  1  0  0  0  0
 29 26  1  6  0  0  0
 29 30  1  0  0  0  0
 30 22  1  6  0  0  0
 30 25  1  0  0  0  0
 31 24  1  0  0  0  0
 31 29  1  0  0  0  0
M  END
>  <MODEL>
1

>  <REMARK>
 VINA RESULT:      -8.9      0.000      0.000
  Name = 
  2 active torsions:
  status: ('A' for Active; 'I' for Inactive)
    1  A    between atoms: C_5  and  C_30
    2  A    between atoms: C_10  and  N_16
                            x       y       z     vdW  Elec       q    Type
                         _______ _______ _______ _____ _____    ______ ____

>  <TORSDO>
F 2

$$$$
=
 OpenBabel11112417033D

 31 35  0  0  1  0  0  0  0  0999 V2000
  185.0440  177.8310  146.8260 C   0  0  0  0  0  0  0  0  0  0  0  0
  187.1780  176.1460  144.1620 C   0  0  2  0  0  3  0  0  0  0  0  0
  187.0140  176.9810  142.8650 C   0  0  2  0  0  3  0  0  0  0  0  0
  185.2130  177.8580  141.2990 C   0  0  0  0  0  0  0  0  0  0  0  0
  186.7920  176.9270  145.4010 C   0  0  0  0  0  0  0  0  0  0  0  0
  186.0080  178.4430  147.6290 C   0  0  0  0  0  3  0  0  0  0  0  0
  185.5390  177.3900  142.6920 C   0  0  0  0  0  2  0  0  0  0  0  0
  189.5840  176.7150  144.6620 C   0  0  2  0  0  3  0  0  0  0  0  0
  183.6970  177.9750  147.1270 O   0  0  0  0  0  1  0  0  0  0  0  0
  188.8520  175.8260  141.8270 C   0  0  0  0  0  2  0  0  0  0  0  0
  183.8530  178.3960  141.0180 C   0  0  0  0  0  1  0  0  0  0  0  0
  189.2350  177.2940  146.0320 C   0  0  0  0  0  2  0  0  0  0  0  0
  188.6060  175.5890  144.2940 C   0  0  2  0  0  3  0  0  0  0  0  0
  185.4360  177.0740  145.7190 C   0  0  0  0  0  3  0  0  0  0  0  0
  186.0630  177.6710  140.2840 C   0  0  0  0  0  3  0  0  0  0  0  0
  187.7660  177.5430  146.2200 C   0  0  0  0  0  0  0  0  0  0  0  0
  187.3640  178.2900  147.3320 C   0  0  0  0  0  3  0  0  0  0  0  0
  189.0110  174.8790  143.0060 C   0  0  0  0  0  2  0  0  0  0  0  0
  187.4550  176.2220  141.6760 N   0  0  2  0  0  0  0  0  0  0  0  0
  187.4420  177.1320  140.5320 C   0  0  0  0  0  2  0  0  0  0  0  0
  191.8940  178.1970  143.8880 O   0  0  0  0  0  0  0  0  0  0  0  0
  192.0680  177.0130  144.2890 C   0  0  0  0  0  0  0  0  0  0  0  0
  190.9520  176.2150  144.6870 N   0  0  0  0  0  2  0  0  0  0  0  0
  193.3760  173.5010  144.8000 C   0  0  1  0  0  3  0  0  0  0  0  0
  193.6800  175.4180  143.2050 C   0  0  0  0  0  2  0  0  0  0  0  0
  193.5760  176.7480  146.8600 C   0  0  0  0  0  1  0  0  0  0  0  0
  192.6910  172.3070  145.0140 O   0  0  0  0  0  1  0  0  0  0  0  0
  192.9530  174.0960  143.4580 C   0  0  0  0  0  2  0  0  0  0  0  0
  193.8070  175.7900  145.7020 C   0  0  2  0  0  3  0  0  0  0  0  0
  193.4460  176.4170  144.3430 C   0  0  2  0  0  3  0  0  0  0  0  0
  193.0680  174.4740  145.9340 C   0  0  0  0  0  2  0  0  0  0  0  0
  1  9  1  0  0  0  0
  1  6  1  0  0  0  0
  2 13  1  0  0  0  0
  2  5  1  1  0  0  0
  3  7  1  6  0  0  0
  3  2  1  0  0  0  0
  4  7  1  0  0  0  0
  5 14  1  0  0  0  0
  5 16  2  0  0  0  0
  8 23  1  1  0  0  0
  8 12  1  0  0  0  0
 10 18  1  0  0  0  0
 11  4  1  0  0  0  0
 12 16  1  0  0  0  0
 13 18  1  6  0  0  0
 13  8  1  0  0  0  0
 14  1  2  0  0  0  0
 15 20  1  0  0  0  0
 15  4  2  0  0  0  0
 16 17  1  0  0  0  0
 17  6  2  0  0  0  0
 19 20  1  6  0  0  0
 19 10  1  0  0  0  0
 19  3  1  0  0  0  0
 21 22  2  0  0  0  0
 22 23  1  0  0  0  0
 24 27  1  1  0  0  0
 24 31  1  0  0  0  0
 25 28  1  0  0  0  0
 25 30  1  0  0  0  0
 28 24  1  0  0  0  0
 29 31  1  0  0  0  0
 29 26  1  1  0  0  0
 30 22  1  1  0  0  0
 30 29  1  0  0  0  0
M  END
>  <MODEL>
2

>  <REMARK>
 VINA RESULT:      -8.8      1.348      2.089
  Name = 
  2 active torsions:
  status: ('A' for Active; 'I' for Inactive)
    1  A    between atoms: C_5  and  C_30
    2  A    between atoms: C_10  and  N_16
                            x       y       z     vdW  Elec       q    Type
                         _______ _______ _______ _____ _____    ______ ____

>  <TORSDO>
F 2

$$$$
=
 OpenBabel11112417033D

 31 35  0  0  1  0  0  0  0  0999 V2000
  185.9490  178.1280  140.8910 C   0  0  0  0  0  0  0  0  0  0  0  0
  188.2700  177.8730  143.8970 C   0  0  2  0  0  3  0  0  0  0  0  0
  187.4260  177.2940  145.0640 C   0  0  2  0  0  3  0  0  0  0  0  0
  185.2920  177.7470  146.3680 C   0  0  0  0  0  0  0  0  0  0  0  0
  187.6470  177.5950  142.5450 C   0  0  0  0  0  0  0  0  0  0  0  0
  186.3870  177.0700  140.0920 C   0  0  0  0  0  3  0  0  0  0  0  0
  186.0320  177.9470  145.0730 C   0  0  0  0  0  2  0  0  0  0  0  0
  189.7750  175.8850  143.5120 C   0  0  2  0  0  3  0  0  0  0  0  0
  184.8880  178.9190  140.4740 O   0  0  0  0  0  1  0  0  0  0  0  0
  189.4080  176.9070  146.3740 C   0  0  0  0  0  2  0  0  0  0  0  0
  183.8850  178.2230  146.4770 C   0  0  0  0  0  1  0  0  0  0  0  0
  189.3290  175.7420  142.0580 C   0  0  0  0  0  2  0  0  0  0  0  0
  189.7190  177.3590  143.9430 C   0  0  2  0  0  3  0  0  0  0  0  0
  186.5790  178.3900  142.1100 C   0  0  0  0  0  3  0  0  0  0  0  0
  185.9090  177.2830  147.4590 C   0  0  0  0  0  3  0  0  0  0  0  0
  188.0920  176.5280  141.7310 C   0  0  0  0  0  0  0  0  0  0  0  0
  187.4620  176.2800  140.5070 C   0  0  0  0  0  3  0  0  0  0  0  0
  190.3040  177.5690  145.3370 C   0  0  0  0  0  2  0  0  0  0  0  0
  188.0830  177.5210  146.3680 N   0  0  2  0  0  0  0  0  0  0  0  0
  187.3260  176.7930  147.3850 C   0  0  0  0  0  2  0  0  0  0  0  0
  190.4780  173.4730  144.8600 O   0  0  0  0  0  0  0  0  0  0  0  0
  191.4110  174.1430  144.3380 C   0  0  0  0  0  0  0  0  0  0  0  0
  191.1280  175.3640  143.6530 N   0  0  0  0  0  2  0  0  0  0  0  0
  194.6890  175.9030  145.0200 C   0  0  1  0  0  3  0  0  0  0  0  0
  193.4110  173.9030  145.8430 C   0  0  0  0  0  2  0  0  0  0  0  0
  193.2270  174.0790  141.9610 C   0  0  0  0  0  1  0  0  0  0  0  0
  194.9560  177.2500  145.2580 O   0  0  0  0  0  1  0  0  0  0  0  0
  193.7340  175.3780  146.0890 C   0  0  0  0  0  2  0  0  0  0  0  0
  193.7690  174.2710  143.3680 C   0  0  2  0  0  3  0  0  0  0  0  0
  192.8370  173.6780  144.4400 C   0  0  2  0  0  3  0  0  0  0  0  0
  194.0740  175.7430  143.6330 C   0  0  0  0  0  2  0  0  0  0  0  0
  1 14  1  0  0  0  0
  2  5  1  6  0  0  0
  2 13  1  0  0  0  0
  2  3  1  0  0  0  0
  3  7  1  1  0  0  0
  3 19  1  0  0  0  0
  4 11  1  0  0  0  0
  4 15  2  0  0  0  0
  6 17  1  0  0  0  0
  6  1  2  0  0  0  0
  7  4  1  0  0  0  0
  8 23  1  6  0  0  0
  8 13  1  0  0  0  0
  9  1  1  0  0  0  0
 12  8  1  0  0  0  0
 13 18  1  1  0  0  0
 14  5  2  0  0  0  0
 16 12  1  0  0  0  0
 16  5  1  0  0  0  0
 17 16  2  0  0  0  0
 18 10  1  0  0  0  0
 19 10  1  6  0  0  0
 19 20  1  0  0  0  0
 20 15  1  0  0  0  0
 22 21  2  0  0  0  0
 23 22  1  0  0  0  0
 24 27  1  1  0  0  0
 24 28  1  0  0  0  0
 25 28  1  0  0  0  0
 29 26  1  6  0  0  0
 29 31  1  0  0  0  0
 29 30  1  0  0  0  0
 30 22  1  1  0  0  0
 30 25  1  0  0  0  0
 31 24  1  0  0  0  0
M  END
>  <MODEL>
3

>  <REMARK>
 VINA RESULT:      -8.6      1.968      4.286
  Name = 
  2 active torsions:
  status: ('A' for Active; 'I' for Inactive)
    1  A    between atoms: C_5  and  C_30
    2  A    between atoms: C_10  and  N_16
                            x       y       z     vdW  Elec       q    Type
                         _______ _______ _______ _____ _____    ______ ____

>  <TORSDO>
F 2

$$$$
=
 OpenBabel11112417033D

 31 35  0  0  1  0  0  0  0  0999 V2000
  194.3620  176.3930  144.8650 C   0  0  0  0  0  0  0  0  0  0  0  0
  190.8710  176.6810  143.3770 C   0  0  2  0  0  3  0  0  0  0  0  0
  190.5390  175.3020  142.7480 C   0  0  2  0  0  3  0  0  0  0  0  0
  191.4500  173.6340  141.0590 C   0  0  0  0  0  0  0  0  0  0  0  0
  191.9870  176.5930  144.3970 C   0  0  0  0  0  0  0  0  0  0  0  0
  194.0940  176.3330  146.2330 C   0  0  0  0  0  3  0  0  0  0  0  0
  191.7750  174.7550  142.0100 C   0  0  0  0  0  2  0  0  0  0  0  0
  189.2340  176.6120  145.2950 C   0  0  2  0  0  3  0  0  0  0  0  0
  195.6720  176.3200  144.4110 O   0  0  0  0  0  1  0  0  0  0  0  0
  188.2270  175.9180  142.4890 C   0  0  0  0  0  2  0  0  0  0  0  0
  192.5640  172.9300  140.3650 C   0  0  0  0  0  1  0  0  0  0  0  0
  190.3410  176.7680  146.3360 C   0  0  0  0  0  2  0  0  0  0  0  0
  189.6210  177.3320  143.9940 C   0  0  2  0  0  3  0  0  0  0  0  0
  193.3140  176.5250  143.9520 C   0  0  0  0  0  3  0  0  0  0  0  0
  190.1880  173.3530  140.7180 C   0  0  0  0  0  3  0  0  0  0  0  0
  191.7190  176.5390  145.7840 C   0  0  0  0  0  0  0  0  0  0  0  0
  192.7770  176.4160  146.6900 C   0  0  0  0  0  3  0  0  0  0  0  0
  188.4800  177.3350  142.9810 C   0  0  0  0  0  2  0  0  0  0  0  0
  189.4070  175.4000  141.8030 N   0  0  2  0  0  0  0  0  0  0  0  0
  189.0410  174.0430  141.3980 C   0  0  0  0  0  2  0  0  0  0  0  0
  187.7240  175.4810  147.4320 O   0  0  0  0  0  0  0  0  0  0  0  0
  187.2870  176.5420  146.9070 C   0  0  0  0  0  0  0  0  0  0  0  0
  187.9920  177.1570  145.8290 N   0  0  0  0  0  2  0  0  0  0  0  0
  184.8790  179.0550  145.4260 C   0  0  1  0  0  3  0  0  0  0  0  0
  184.8160  176.7910  146.5130 C   0  0  0  0  0  2  0  0  0  0  0  0
  187.2740  179.1110  148.4400 C   0  0  0  0  0  1  0  0  0  0  0  0
  184.9120  179.7210  144.2020 O   0  0  0  0  0  1  0  0  0  0  0  0
  184.8370  177.5480  145.1830 C   0  0  0  0  0  2  0  0  0  0  0  0
  186.0920  178.6950  147.5800 C   0  0  2  0  0  3  0  0  0  0  0  0
  186.0110  177.1690  147.3950 C   0  0  2  0  0  3  0  0  0  0  0  0
  186.1140  179.4280  146.2410 C   0  0  0  0  0  2  0  0  0  0  0  0
  1  6  1  0  0  0  0
  2 13  1  0  0  0  0
  2  5  1  1  0  0  0
  3  7  1  6  0  0  0
  3  2  1  0  0  0  0
  4  7  1  0  0  0  0
  5 16  2  0  0  0  0
  6 17  2  0  0  0  0
  8 23  1  1  0  0  0
  8 12  1  0  0  0  0
  9  1  1  0  0  0  0
 10 18  1  0  0  0  0
 11  4  1  0  0  0  0
 13 18  1  6  0  0  0
 13  8  1  0  0  0  0
 14  5  1  0  0  0  0
 14  1  2  0  0  0  0
 15  4  2  0  0  0  0
 15 20  1  0  0  0  0
 16 12  1  0  0  0  0
 16 17  1  0  0  0  0
 19 20  1  1  0  0  0
 19 10  1  0  0  0  0
 19  3  1  0  0  0  0
 22 21  2  0  0  0  0
 23 22  1  0  0  0  0
 24 27  1  6  0  0  0
 24 31  1  0  0  0  0
 25 30  1  0  0  0  0
 28 24  1  0  0  0  0
 28 25  1  0  0  0  0
 29 26  1  6  0  0  0
 30 22  1  6  0  0  0
 30 29  1  0  0  0  0
 31 29  1  0  0  0  0
M  END
>  <MODEL>
4

>  <REMARK>
 VINA RESULT:      -8.5      2.148      7.116
  Name = 
  2 active torsions:
  status: ('A' for Active; 'I' for Inactive)
    1  A    between atoms: C_5  and  C_30
    2  A    between atoms: C_10  and  N_16
                            x       y       z     vdW  Elec       q    Type
                         _______ _______ _______ _____ _____    ______ ____

>  <TORSDO>
F 2

$$$$
=
 OpenBabel11112417033D

 31 35  0  0  1  0  0  0  0  0999 V2000
  186.2900  177.8950  141.0250 C   0  0  0  0  0  0  0  0  0  0  0  0
  188.4670  177.7790  144.1450 C   0  0  2  0  0  3  0  0  0  0  0  0
  187.5690  177.2530  145.2950 C   0  0  2  0  0  3  0  0  0  0  0  0
  185.3760  177.7640  146.4760 C   0  0  0  0  0  0  0  0  0  0  0  0
  187.9070  177.4390  142.7790 C   0  0  0  0  0  0  0  0  0  0  0  0
  186.7630  176.8030  140.2960 C   0  0  0  0  0  3  0  0  0  0  0  0
  186.1770  177.9050  145.2100 C   0  0  0  0  0  2  0  0  0  0  0  0
  189.9860  175.7780  143.9210 C   0  0  2  0  0  3  0  0  0  0  0  0
  185.2500  178.6660  140.5230 O   0  0  0  0  0  1  0  0  0  0  0  0
  189.4860  176.9290  146.7130 C   0  0  0  0  0  2  0  0  0  0  0  0
  183.9660  178.2430  146.4980 C   0  0  0  0  0  1  0  0  0  0  0  0
  189.6080  175.5680  142.4560 C   0  0  0  0  0  2  0  0  0  0  0  0
  189.9120  177.2690  144.2820 C   0  0  2  0  0  3  0  0  0  0  0  0
  186.8620  178.2130  142.2590 C   0  0  0  0  0  3  0  0  0  0  0  0
  185.9410  177.3500  147.6150 C   0  0  0  0  0  3  0  0  0  0  0  0
  188.3890  176.3380  142.0360 C   0  0  0  0  0  0  0  0  0  0  0  0
  187.8160  176.0340  140.7970 C   0  0  0  0  0  3  0  0  0  0  0  0
  190.4310  177.5430  145.6910 C   0  0  0  0  0  2  0  0  0  0  0  0
  188.1640  177.5410  146.6170 N   0  0  2  0  0  0  0  0  0  0  0  0
  187.3590  176.8590  147.6300 C   0  0  0  0  0  2  0  0  0  0  0  0
  192.3690  176.8300  142.7630 O   0  0  0  0  0  0  0  0  0  0  0  0
  192.4850  175.8430  143.5400 C   0  0  0  0  0  0  0  0  0  0  0  0
  191.3300  175.2640  144.1500 N   0  0  0  0  0  2  0  0  0  0  0  0
  193.6690  172.3670  144.4500 C   0  0  1  0  0  3  0  0  0  0  0  0
  194.2190  174.1800  142.8000 C   0  0  0  0  0  2  0  0  0  0  0  0
  193.6070  175.7370  146.3120 C   0  0  0  0  0  1  0  0  0  0  0  0
  192.9470  171.1900  144.6380 O   0  0  0  0  0  1  0  0  0  0  0  0
  193.4490  172.8770  143.0280 C   0  0  0  0  0  2  0  0  0  0  0  0
  193.9910  174.7080  145.2610 C   0  0  2  0  0  3  0  0  0  0  0  0
  193.8360  175.2490  143.8280 C   0  0  2  0  0  3  0  0  0  0  0  0
  193.2120  173.4110  145.4660 C   0  0  0  0  0  2  0  0  0  0  0  0
  1 14  1  0  0  0  0
  2  5  1  6  0  0  0
  2 13  1  0  0  0  0
  2  3  1  0  0  0  0
  3  7  1  1  0  0  0
  3 19  1  0  0  0  0
  4 11  1  0  0  0  0
  4 15  2  0  0  0  0
  6 17  1  0  0  0  0
  6  1  2  0  0  0  0
  7  4  1  0  0  0  0
  8 23  1  6  0  0  0
  8 13  1  0  0  0  0
  9  1  1  0  0  0  0
 12  8  1  0  0  0  0
 13 18  1  1  0  0  0
 14  5  2  0  0  0  0
 15 20  1  0  0  0  0
 16 12  1  0  0  0  0
 16  5  1  0  0  0  0
 17 16  2  0  0  0  0
 18 10  1  0  0  0  0
 19 10  1  6  0  0  0
 19 20  1  0  0  0  0
 21 22  2  0  0  0  0
 22 23  1  0  0  0  0
 24 27  1  6  0  0  0
 24 31  1  0  0  0  0
 25 28  1  0  0  0  0
 25 30  1  0  0  0  0
 28 24  1  0  0  0  0
 29 31  1  0  0  0  0
 29 26  1  1  0  0  0
 30 22  1  6  0  0  0
 30 29  1  0  0  0  0
M  END
>  <MODEL>
5

>  <REMARK>
 VINA RESULT:      -7.7      2.092      4.536
  Name = 
  2 active torsions:
  status: ('A' for Active; 'I' for Inactive)
    1  A    between atoms: C_5  and  C_30
    2  A    between atoms: C_10  and  N_16
                            x       y       z     vdW  Elec       q    Type
                         _______ _______ _______ _____ _____    ______ ____

>  <TORSDO>
F 2

$$$$
=
 OpenBabel11112417033D

 31 35  0  0  1  0  0  0  0  0999 V2000
  193.1940  172.5460  140.9210 C   0  0  0  0  0  0  0  0  0  0  0  0
  191.4000  173.6300  144.0980 C   0  0  2  0  0  3  0  0  0  0  0  0
  192.2230  174.8000  144.6980 C   0  0  2  0  0  3  0  0  0  0  0  0
  194.5780  175.3590  145.4760 C   0  0  0  0  0  0  0  0  0  0  0  0
  191.6990  173.4110  142.6300 C   0  0  0  0  0  0  0  0  0  0  0  0
  192.3590  173.0550  139.9250 C   0  0  0  0  0  3  0  0  0  0  0  0
  193.7270  174.4870  144.5930 C   0  0  0  0  0  2  0  0  0  0  0  0
  189.3610  174.9380  143.3950 C   0  0  2  0  0  3  0  0  0  0  0  0
  194.3540  171.8670  140.5750 O   0  0  0  0  0  1  0  0  0  0  0  0
  190.4450  175.3340  146.2300 C   0  0  0  0  0  2  0  0  0  0  0  0
  196.0610  175.2490  145.3890 C   0  0  0  0  0  1  0  0  0  0  0  0
  189.5140  174.5240  141.9330 C   0  0  0  0  0  2  0  0  0  0  0  0
  189.8910  173.8330  144.3210 C   0  0  2  0  0  3  0  0  0  0  0  0
  192.8630  172.7210  142.2670 C   0  0  0  0  0  3  0  0  0  0  0  0
  194.0360  176.1230  146.4310 C   0  0  0  0  0  3  0  0  0  0  0  0
  190.8520  173.9190  141.6190 C   0  0  0  0  0  0  0  0  0  0  0  0
  191.1880  173.7300  140.2740 C   0  0  0  0  0  3  0  0  0  0  0  0
  189.6160  174.1370  145.7910 C   0  0  0  0  0  2  0  0  0  0  0  0
  191.8700  175.0370  146.1140 N   0  0  2  0  0  0  0  0  0  0  0  0
  192.5460  176.2590  146.5480 C   0  0  0  0  0  2  0  0  0  0  0  0
  188.2610  177.5000  143.9920 O   0  0  0  0  0  0  0  0  0  0  0  0
  187.4690  176.5180  143.9620 C   0  0  0  0  0  0  0  0  0  0  0  0
  187.9560  175.2070  143.6740 N   0  0  0  0  0  2  0  0  0  0  0  0
  185.2530  179.5610  144.3370 C   0  0  1  0  0  3  0  0  0  0  0  0
  185.2850  177.3900  143.0720 C   0  0  0  0  0  2  0  0  0  0  0  0
  186.4120  176.7910  146.7470 C   0  0  0  0  0  1  0  0  0  0  0  0
  185.5650  180.9170  144.2630 O   0  0  0  0  0  1  0  0  0  0  0  0
  185.6030  178.8850  143.0130 C   0  0  0  0  0  2  0  0  0  0  0  0
  185.7050  177.4330  145.5650 C   0  0  2  0  0  3  0  0  0  0  0  0
  186.0040  176.7060  144.2400 C   0  0  2  0  0  3  0  0  0  0  0  0
  186.0330  178.9210  145.4820 C   0  0  0  0  0  2  0  0  0  0  0  0
  1 14  1  0  0  0  0
  2  5  1  6  0  0  0
  2 13  1  0  0  0  0
  2  3  1  0  0  0  0
  3  7  1  1  0  0  0
  3 19  1  0  0  0  0
  4 15  2  0  0  0  0
  6 17  1  0  0  0  0
  6  1  2  0  0  0  0
  7  4  1  0  0  0  0
  8 23  1  1  0  0  0
  8 13  1  0  0  0  0
  9  1  1  0  0  0  0
 11  4  1  0  0  0  0
 12  8  1  0  0  0  0
 13 18  1  1  0  0  0
 14  5  2  0  0  0  0
 15 20  1  0  0  0  0
 16 12  1  0  0  0  0
 16  5  1  0  0  0  0
 17 16  2  0  0  0  0
 18 10  1  0  0  0  0
 19 10  1  6  0  0  0
 19 20  1  0  0  0  0
 22 21  2  0  0  0  0
 23 22  1  0  0  0  0
 24 27  1  6  0  0  0
 24 31  1  0  0  0  0
 25 30  1  0  0  0  0
 28 25  1  0  0  0  0
 28 24  1  0  0  0  0
 29 26  1  1  0  0  0
 30 22  1  6  0  0  0
 30 29  1  0  0  0  0
 31 29  1  0  0  0  0
M  END
>  <MODEL>
6

>  <REMARK>
 VINA RESULT:      -7.7      2.446      8.265
  Name = 
  2 active torsions:
  status: ('A' for Active; 'I' for Inactive)
    1  A    between atoms: C_5  and  C_30
    2  A    between atoms: C_10  and  N_16
                            x       y       z     vdW  Elec       q    Type
                         _______ _______ _______ _____ _____    ______ ____

>  <TORSDO>
F 2

$$$$
=
 OpenBabel11112417033D

 31 35  0  0  1  0  0  0  0  0999 V2000
  186.1770  177.2140  142.7230 C   0  0  0  0  0  0  0  0  0  0  0  0
  188.6940  174.3590  142.7340 C   0  0  2  0  0  3  0  0  0  0  0  0
  189.3500  174.3380  141.3280 C   0  0  2  0  0  3  0  0  0  0  0  0
  188.7320  174.1850  138.8660 C   0  0  0  0  0  0  0  0  0  0  0  0
  188.0420  175.6910  143.0420 C   0  0  0  0  0  0  0  0  0  0  0  0
  186.8230  178.1780  143.4990 C   0  0  0  0  0  3  0  0  0  0  0  0
  188.2760  174.5680  140.2490 C   0  0  0  0  0  2  0  0  0  0  0  0
  190.6960  175.1340  144.0590 C   0  0  2  0  0  3  0  0  0  0  0  0
  184.9320  177.4870  142.1730 O   0  0  0  0  0  1  0  0  0  0  0  0
  191.0550  172.8190  142.0890 C   0  0  0  0  0  2  0  0  0  0  0  0
  187.8400  174.4650  137.7070 C   0  0  0  0  0  1  0  0  0  0  0  0
  189.9620  176.3700  144.5770 C   0  0  0  0  0  2  0  0  0  0  0  0
  189.7050  173.9830  143.8300 C   0  0  2  0  0  3  0  0  0  0  0  0
  186.7830  175.9760  142.4990 C   0  0  0  0  0  3  0  0  0  0  0  0
  189.8500  173.4770  138.6730 C   0  0  0  0  0  3  0  0  0  0  0  0
  188.6910  176.6670  143.8340 C   0  0  0  0  0  0  0  0  0  0  0  0
  188.0710  177.9000  144.0600 C   0  0  0  0  0  3  0  0  0  0  0  0
  190.4150  172.6830  143.4630 C   0  0  0  0  0  2  0  0  0  0  0  0
  190.0340  173.0520  141.0730 N   0  0  2  0  0  0  0  0  0  0  0  0
  190.7730  173.1780  139.8170 C   0  0  0  0  0  2  0  0  0  0  0  0
  193.4860  174.9340  143.5080 O   0  0  0  0  0  0  0  0  0  0  0  0
  193.1030  174.6680  144.6810 C   0  0  0  0  0  0  0  0  0  0  0  0
  191.7180  174.7440  145.0220 N   0  0  0  0  0  2  0  0  0  0  0  0
  196.8310  174.0320  144.6570 C   0  0  1  0  0  3  0  0  0  0  0  0
  195.1450  175.3390  145.9840 C   0  0  0  0  0  2  0  0  0  0  0  0
  193.7470  171.7940  145.2030 C   0  0  0  0  0  1  0  0  0  0  0  0
  197.7510  174.1060  143.6120 O   0  0  0  0  0  1  0  0  0  0  0  0
  196.1730  175.3960  144.8510 C   0  0  0  0  0  2  0  0  0  0  0  0
  194.7610  172.8940  145.4680 C   0  0  2  0  0  3  0  0  0  0  0  0
  194.0910  174.2550  145.7350 C   0  0  2  0  0  3  0  0  0  0  0  0
  195.7790  172.9750  144.3340 C   0  0  0  0  0  2  0  0  0  0  0  0
  1  6  1  0  0  0  0
  2  5  1  1  0  0  0
  2 13  1  0  0  0  0
  3  7  1  6  0  0  0
  3  2  1  0  0  0  0
  4  7  1  0  0  0  0
  5 16  2  0  0  0  0
  6 17  2  0  0  0  0
  8 12  1  0  0  0  0
  8 23  1  1  0  0  0
  9  1  1  0  0  0  0
 10 18  1  0  0  0  0
 11  4  1  0  0  0  0
 13 18  1  6  0  0  0
 13  8  1  0  0  0  0
 14  1  2  0  0  0  0
 14  5  1  0  0  0  0
 15  4  2  0  0  0  0
 15 20  1  0  0  0  0
 16 17  1  0  0  0  0
 16 12  1  0  0  0  0
 19 20  1  6  0  0  0
 19  3  1  0  0  0  0
 19 10  1  0  0  0  0
 21 22  2  0  0  0  0
 22 23  1  0  0  0  0
 24 27  1  6  0  0  0
 24 28  1  0  0  0  0
 28 25  1  0  0  0  0
 29 26  1  6  0  0  0
 29 30  1  0  0  0  0
 30 22  1  6  0  0  0
 30 25  1  0  0  0  0
 31 24  1  0  0  0  0
 31 29  1  0  0  0  0
M  END
>  <MODEL>
7

>  <REMARK>
 VINA RESULT:      -7.6      2.492      3.451
  Name = 
  2 active torsions:
  status: ('A' for Active; 'I' for Inactive)
    1  A    between atoms: C_5  and  C_30
    2  A    between atoms: C_10  and  N_16
                            x       y       z     vdW  Elec       q    Type
                         _______ _______ _______ _____ _____    ______ ____

>  <TORSDO>
F 2

$$$$
=
 OpenBabel11112417033D

 31 35  0  0  1  0  0  0  0  0999 V2000
  191.4930  170.8780  142.9750 C   0  0  0  0  0  0  0  0  0  0  0  0
  190.8970  173.7770  145.3690 C   0  0  2  0  0  3  0  0  0  0  0  0
  192.1870  174.6390  145.3560 C   0  0  2  0  0  3  0  0  0  0  0  0
  194.6940  174.4430  145.7370 C   0  0  0  0  0  0  0  0  0  0  0  0
  190.7900  172.8860  144.1500 C   0  0  0  0  0  0  0  0  0  0  0  0
  190.7080  171.2380  141.8790 C   0  0  0  0  0  3  0  0  0  0  0  0
  193.4250  173.7240  145.3630 C   0  0  0  0  0  2  0  0  0  0  0  0
  189.3590  175.4030  144.2050 C   0  0  2  0  0  3  0  0  0  0  0  0
  192.2370  169.7070  142.9420 O   0  0  0  0  0  1  0  0  0  0  0  0
  191.0720  176.4200  146.5280 C   0  0  0  0  0  2  0  0  0  0  0  0
  195.9880  173.7090  145.6700 C   0  0  0  0  0  1  0  0  0  0  0  0
  189.0500  174.4130  143.0830 C   0  0  0  0  0  2  0  0  0  0  0  0
  189.6400  174.6510  145.5150 C   0  0  2  0  0  3  0  0  0  0  0  0
  191.5310  171.6980  144.1060 C   0  0  0  0  0  3  0  0  0  0  0  0
  194.6680  175.6740  146.2590 C   0  0  0  0  0  3  0  0  0  0  0  0
  189.9900  173.2430  143.0400 C   0  0  0  0  0  0  0  0  0  0  0  0
  189.9520  172.4110  141.9170 C   0  0  0  0  0  3  0  0  0  0  0  0
  189.8000  175.6040  146.6970 C   0  0  0  0  0  2  0  0  0  0  0  0
  192.2410  175.5460  146.5210 N   0  0  2  0  0  0  0  0  0  0  0  0
  193.3820  176.4430  146.3400 C   0  0  0  0  0  2  0  0  0  0  0  0
  189.1060  177.9560  142.9630 O   0  0  0  0  0  0  0  0  0  0  0  0
  188.1650  177.5770  143.7120 C   0  0  0  0  0  0  0  0  0  0  0  0
  188.2310  176.3110  144.3690 N   0  0  0  0  0  2  0  0  0  0  0  0
  185.0820  177.2730  145.8820 C   0  0  1  0  0  3  0  0  0  0  0  0
  186.8870  178.9480  145.3880 C   0  0  0  0  0  2  0  0  0  0  0  0
  185.6740  177.3020  142.0780 C   0  0  0  0  0  1  0  0  0  0  0  0
  184.6890  176.2580  146.7530 O   0  0  0  0  0  1  0  0  0  0  0  0
  186.4240  177.8410  146.3370 C   0  0  0  0  0  2  0  0  0  0  0  0
  185.6320  177.8170  143.5070 C   0  0  2  0  0  3  0  0  0  0  0  0
  186.9650  178.4540  143.9390 C   0  0  2  0  0  3  0  0  0  0  0  0
  185.1920  176.7140  144.4670 C   0  0  0  0  0  2  0  0  0  0  0  0
  1 14  1  0  0  0  0
  2  5  1  6  0  0  0
  2 13  1  0  0  0  0
  3  7  1  1  0  0  0
  3  2  1  0  0  0  0
  3 19  1  0  0  0  0
  4 15  2  0  0  0  0
  6 17  1  0  0  0  0
  6  1  2  0  0  0  0
  7  4  1  0  0  0  0
  8 23  1  1  0  0  0
  8 13  1  0  0  0  0
  9  1  1  0  0  0  0
 10 18  1  0  0  0  0
 11  4  1  0  0  0  0
 12  8  1  0  0  0  0
 13 18  1  1  0  0  0
 14  5  2  0  0  0  0
 15 20  1  0  0  0  0
 16 12  1  0  0  0  0
 16  5  1  0  0  0  0
 17 16  2  0  0  0  0
 19 20  1  6  0  0  0
 19 10  1  0  0  0  0
 21 22  2  0  0  0  0
 22 23  1  0  0  0  0
 24 28  1  0  0  0  0
 24 27  1  1  0  0  0
 25 28  1  0  0  0  0
 29 26  1  6  0  0  0
 29 30  1  0  0  0  0
 29 31  1  0  0  0  0
 30 22  1  1  0  0  0
 30 25  1  0  0  0  0
 31 24  1  0  0  0  0
M  END
>  <MODEL>
8

>  <REMARK>
 VINA RESULT:      -7.5      2.395      7.987
  Name = 
  2 active torsions:
  status: ('A' for Active; 'I' for Inactive)
    1  A    between atoms: C_5  and  C_30
    2  A    between atoms: C_10  and  N_16
                            x       y       z     vdW  Elec       q    Type
                         _______ _______ _______ _____ _____    ______ ____

>  <TORSDO>
F 2

$$$$
=
 OpenBabel11112417033D

 31 35  0  0  1  0  0  0  0  0999 V2000
  186.7480  177.6430  147.0740 C   0  0  0  0  0  0  0  0  0  0  0  0
  187.8870  175.5660  144.0950 C   0  0  2  0  0  3  0  0  0  0  0  0
  187.6150  176.4190  142.8270 C   0  0  2  0  0  3  0  0  0  0  0  0
  185.7270  177.6410  141.6400 C   0  0  0  0  0  0  0  0  0  0  0  0
  187.9360  176.4080  145.3520 C   0  0  0  0  0  0  0  0  0  0  0  0
  187.9630  178.0490  147.6300 C   0  0  0  0  0  3  0  0  0  0  0  0
  186.2470  177.1150  142.9510 C   0  0  0  0  0  2  0  0  0  0  0  0
  190.4080  175.6400  144.0520 C   0  0  2  0  0  3  0  0  0  0  0  0
  185.5520  178.0540  147.6460 O   0  0  0  0  0  1  0  0  0  0  0  0
  188.9230  174.9190  141.4750 C   0  0  0  0  0  2  0  0  0  0  0  0
  184.4720  178.4410  141.6290 C   0  0  0  0  0  1  0  0  0  0  0  0
  190.4810  176.2760  145.4390 C   0  0  0  0  0  2  0  0  0  0  0  0
  189.1720  174.7340  143.9470 C   0  0  2  0  0  3  0  0  0  0  0  0
  186.7360  176.8240  145.9430 C   0  0  0  0  0  3  0  0  0  0  0  0
  186.2860  177.2880  140.4780 C   0  0  0  0  0  3  0  0  0  0  0  0
  189.1650  176.8150  145.9220 C   0  0  0  0  0  0  0  0  0  0  0  0
  189.1660  177.6270  147.0600 C   0  0  0  0  0  3  0  0  0  0  0  0
  189.1430  173.9580  142.6330 C   0  0  0  0  0  2  0  0  0  0  0  0
  187.6320  175.5870  141.6050 N   0  0  2  0  0  0  0  0  0  0  0  0
  187.5520  176.4820  140.4520 C   0  0  0  0  0  2  0  0  0  0  0  0
  192.7890  176.6650  142.8660 O   0  0  0  0  0  0  0  0  0  0  0  0
  192.7860  175.4520  143.2140 C   0  0  0  0  0  0  0  0  0  0  0  0
  191.6240  174.8750  143.8090 N   0  0  0  0  0  2  0  0  0  0  0  0
  196.5040  176.1450  143.1450 C   0  0  1  0  0  3  0  0  0  0  0  0
  194.8990  174.5510  144.2360 C   0  0  0  0  0  2  0  0  0  0  0  0
  193.9500  175.0190  140.4930 C   0  0  0  0  0  1  0  0  0  0  0  0
  197.2010  177.3400  143.3140 O   0  0  0  0  0  1  0  0  0  0  0  0
  195.6870  175.8510  144.4010 C   0  0  0  0  0  2  0  0  0  0  0  0
  194.8120  174.9570  141.7430 C   0  0  2  0  0  3  0  0  0  0  0  0
  193.9980  174.5900  142.9970 C   0  0  2  0  0  3  0  0  0  0  0  0
  195.5880  176.2580  141.9300 C   0  0  0  0  0  2  0  0  0  0  0  0
  1  6  1  0  0  0  0
  1  9  1  0  0  0  0
  2  5  1  1  0  0  0
  3  7  1  1  0  0  0
  3  2  1  0  0  0  0
  4  7  1  0  0  0  0
  5 16  2  0  0  0  0
  5 14  1  0  0  0  0
  8 23  1  1  0  0  0
  8 12  1  0  0  0  0
 10 19  1  0  0  0  0
 10 18  1  0  0  0  0
 11  4  1  0  0  0  0
 12 16  1  0  0  0  0
 13 18  1  6  0  0  0
 13  8  1  0  0  0  0
 13  2  1  0  0  0  0
 14  1  2  0  0  0  0
 15  4  2  0  0  0  0
 16 17  1  0  0  0  0
 17  6  2  0  0  0  0
 19 20  1  6  0  0  0
 19  3  1  0  0  0  0
 20 15  1  0  0  0  0
 21 22  2  0  0  0  0
 22 23  1  0  0  0  0
 24 27  1  1  0  0  0
 24 28  1  0  0  0  0
 25 28  1  0  0  0  0
 29 26  1  6  0  0  0
 29 31  1  0  0  0  0
 29 30  1  0  0  0  0
 30 22  1  1  0  0  0
 30 25  1  0  0  0  0
 31 24  1  0  0  0  0
M  END
>  <MODEL>
9

>  <REMARK>
 VINA RESULT:      -7.5      1.566      2.322
  Name = 
  2 active torsions:
  status: ('A' for Active; 'I' for Inactive)
    1  A    between atoms: C_5  and  C_30
    2  A    between atoms: C_10  and  N_16
                            x       y       z     vdW  Elec       q    Type
                         _______ _______ _______ _____ _____    ______ ____

>  <TORSDO>
F 2

$$$$
