=
 OpenBabel11112416173D

 30 34  0  0  1  0  0  0  0  0999 V2000
  189.1030  177.2360  143.2530 C   0  0  1  0  0  3  0  0  0  0  0  0
  191.4650  177.5500  144.0750 C   0  0  0  0  0  0  0  0  0  0  0  0
  189.6330  173.0610  143.9260 N   0  0  0  0  0  2  0  0  0  0  0  0
  188.4910  176.2310  142.2520 C   0  0  2  0  0  3  0  0  0  0  0  0
  188.1390  177.7530  144.3370 C   0  0  0  0  0  2  0  0  0  0  0  0
  185.0150  177.2080  142.7510 O   0  0  0  0  0  0  0  0  0  0  0  0
  186.2070  177.0190  142.9420 C   0  0  0  0  0  0  0  0  0  0  0  0
  189.3530  172.6250  142.6090 C   0  0  0  0  0  0  0  0  0  0  0  0
  186.7750  177.0600  144.3390 C   0  0  2  0  0  3  0  0  0  0  0  0
  187.0990  176.6690  141.7790 C   0  0  1  0  0  3  0  0  0  0  0  0
  192.6240  177.0530  144.6770 C   0  0  0  0  0  3  0  0  0  0  0  0
  191.4130  178.8850  143.6920 O   0  0  0  0  0  1  0  0  0  0  0  0
  189.2360  174.4530  144.0620 C   0  0  2  0  0  3  0  0  0  0  0  0
  192.6910  175.7190  145.0780 C   0  0  0  0  0  3  0  0  0  0  0  0
  190.3640  176.7030  143.8640 C   0  0  0  0  0  0  0  0  0  0  0  0
  188.4480  174.7760  142.7690 C   0  0  2  0  0  3  0  0  0  0  0  0
  189.5860  171.4500  142.2250 O   0  0  0  0  0  0  0  0  0  0  0  0
  188.7700  173.6710  141.7400 C   0  0  1  0  0  3  0  0  0  0  0  0
  191.6000  174.8720  144.8710 C   0  0  0  0  0  3  0  0  0  0  0  0
  190.4370  175.3490  144.2470 C   0  0  0  0  0  0  0  0  0  0  0  0
  189.6110  173.2980  139.4670 O   0  0  0  0  0  0  0  0  0  0  0  0
  189.7880  174.0440  140.6490 C   0  0  2  0  0  3  0  0  0  0  0  0
  191.2080  173.9110  141.1320 C   0  0  0  0  0  2  0  0  0  0  0  0
  190.8950  172.9580  139.0000 C   0  0  0  0  0  2  0  0  0  0  0  0
  191.9470  173.5990  139.8760 C   0  0  0  0  0  2  0  0  0  0  0  0
  186.6300  177.3530  139.7260 C   0  0  0  0  0  1  0  0  0  0  0  0
  187.2150  177.7680  140.9230 O   0  0  0  0  0  0  0  0  0  0  0  0
  185.9120  177.7310  145.2110 O   0  0  0  0  0  0  0  0  0  0  0  0
  186.1720  177.0800  147.4820 C   0  0  0  0  0  1  0  0  0  0  0  0
  185.5310  176.7680  146.1470 C   0  0  0  0  0  2  0  0  0  0  0  0
  1 15  1  0  0  0  0
  1  5  1  1  0  0  0
  2 11  1  0  0  0  0
  3 13  1  0  0  0  0
  4 16  1  0  0  0  0
  4  1  1  0  0  0  0
  5  9  1  0  0  0  0
  6  7  2  0  0  0  0
  7  9  1  0  0  0  0
  8  3  1  0  0  0  0
  9 28  1  0  0  0  0
 10  4  1  0  0  0  0
 10  7  1  0  0  0  0
 11 14  2  0  0  0  0
 12  2  1  0  0  0  0
 13 20  1  0  0  0  0
 15  2  2  0  0  0  0
 15 20  1  0  0  0  0
 16 13  1  0  0  0  0
 17  8  2  0  0  0  0
 18  8  1  0  0  0  0
 18 16  1  0  0  0  0
 19 14  1  0  0  0  0
 20 19  2  0  0  0  0
 21 22  1  0  0  0  0
 22 23  1  0  0  0  0
 22 18  1  0  0  0  0
 24 21  1  0  0  0  0
 24 25  1  0  0  0  0
 25 23  1  0  0  0  0
 26 27  1  0  0  0  0
 27 10  1  0  0  0  0
 28 30  1  0  0  0  0
 30 29  1  0  0  0  0
M  END
>  <MODEL>
1

>  <REMARK>
 VINA RESULT:      -7.3      0.000      0.000
  Name = 
  4 active torsions:
  status: ('A' for Active; 'I' for Inactive)
    1  A    between atoms: C_9  and  C_22
    2  A    between atoms: C_11  and  O_28
    3  A    between atoms: C_12  and  O_27
    4  A    between atoms: O_28  and  C_30
                            x       y       z     vdW  Elec       q    Type
                         _______ _______ _______ _____ _____    ______ ____

>  <TORSDO>
F 4

$$$$
=
 OpenBabel11112416173D

 30 34  0  0  1  0  0  0  0  0999 V2000
  187.7630  175.6600  143.0340 C   0  0  1  0  0  3  0  0  0  0  0  0
  188.5490  173.5180  141.9640 C   0  0  0  0  0  0  0  0  0  0  0  0
  191.8380  176.9110  143.0630 N   0  0  0  0  0  2  0  0  0  0  0  0
  188.2950  176.4560  144.2470 C   0  0  2  0  0  3  0  0  0  0  0  0
  187.0370  176.4990  141.9660 C   0  0  0  0  0  2  0  0  0  0  0  0
  186.0520  179.3070  143.8940 O   0  0  0  0  0  0  0  0  0  0  0  0
  186.7350  178.3270  143.6340 C   0  0  0  0  0  0  0  0  0  0  0  0
  191.9520  177.1350  144.4550 C   0  0  0  0  0  0  0  0  0  0  0  0
  187.1050  178.0080  142.2070 C   0  0  2  0  0  3  0  0  0  0  0  0
  187.2700  177.4770  144.7570 C   0  0  1  0  0  3  0  0  0  0  0  0
  189.5480  172.7510  141.3590 C   0  0  0  0  0  3  0  0  0  0  0  0
  187.2740  172.9850  142.1090 O   0  0  0  0  0  1  0  0  0  0  0  0
  190.4340  176.7490  142.7200 C   0  0  2  0  0  3  0  0  0  0  0  0
  190.8320  173.2720  141.1940 C   0  0  0  0  0  3  0  0  0  0  0  0
  188.8380  174.8160  142.4170 C   0  0  0  0  0  0  0  0  0  0  0  0
  189.6570  177.1420  143.9990 C   0  0  2  0  0  3  0  0  0  0  0  0
  193.0610  177.3240  145.0180 O   0  0  0  0  0  0  0  0  0  0  0  0
  190.6590  177.1240  145.1750 C   0  0  1  0  0  3  0  0  0  0  0  0
  191.1250  174.5620  141.6430 C   0  0  0  0  0  3  0  0  0  0  0  0
  190.1390  175.3360  142.2740 C   0  0  0  0  0  0  0  0  0  0  0  0
  190.5860  174.6800  145.3640 O   0  0  0  0  0  0  0  0  0  0  0  0
  190.6020  175.8880  146.0890 C   0  0  2  0  0  3  0  0  0  0  0  0
  189.4270  175.9360  147.0310 C   0  0  0  0  0  2  0  0  0  0  0  0
  189.6650  173.8290  146.0040 C   0  0  0  0  0  2  0  0  0  0  0  0
  189.1360  174.4910  147.2550 C   0  0  0  0  0  2  0  0  0  0  0  0
  186.1790  177.3510  146.6790 C   0  0  0  0  0  1  0  0  0  0  0  0
  186.2170  176.8130  145.3920 O   0  0  0  0  0  0  0  0  0  0  0  0
  186.2550  178.6630  141.3100 O   0  0  0  0  0  0  0  0  0  0  0  0
  184.0330  178.2900  140.5520 C   0  0  0  0  0  1  0  0  0  0  0  0
  185.3800  177.6720  140.8600 C   0  0  0  0  0  2  0  0  0  0  0  0
  1  5  1  6  0  0  0
  1  4  1  0  0  0  0
  2 12  1  0  0  0  0
  2 15  1  0  0  0  0
  3  8  1  0  0  0  0
  4 10  1  0  0  0  0
  5  9  1  0  0  0  0
  7  6  2  0  0  0  0
  7 10  1  0  0  0  0
  8 17  2  0  0  0  0
  8 18  1  0  0  0  0
  9  7  1  0  0  0  0
 10 27  1  0  0  0  0
 11  2  2  0  0  0  0
 13  3  1  0  0  0  0
 13 16  1  0  0  0  0
 14 11  1  0  0  0  0
 14 19  2  0  0  0  0
 15  1  1  0  0  0  0
 16  4  1  0  0  0  0
 16 18  1  0  0  0  0
 18 22  1  0  0  0  0
 19 20  1  0  0  0  0
 20 15  2  0  0  0  0
 20 13  1  0  0  0  0
 21 24  1  0  0  0  0
 21 22  1  0  0  0  0
 22 23  1  0  0  0  0
 23 25  1  0  0  0  0
 24 25  1  0  0  0  0
 27 26  1  0  0  0  0
 28  9  1  0  0  0  0
 29 30  1  0  0  0  0
 30 28  1  0  0  0  0
M  END
>  <MODEL>
2

>  <REMARK>
 VINA RESULT:      -7.2      2.012      5.027
  Name = 
  4 active torsions:
  status: ('A' for Active; 'I' for Inactive)
    1  A    between atoms: C_9  and  C_22
    2  A    between atoms: C_11  and  O_28
    3  A    between atoms: C_12  and  O_27
    4  A    between atoms: O_28  and  C_30
                            x       y       z     vdW  Elec       q    Type
                         _______ _______ _______ _____ _____    ______ ____

>  <TORSDO>
F 4

$$$$
=
 OpenBabel11112416173D

 30 34  0  0  1  0  0  0  0  0999 V2000
  190.1070  174.6020  144.4100 C   0  0  1  0  0  3  0  0  0  0  0  0
  190.0630  172.6820  142.7800 C   0  0  0  0  0  0  0  0  0  0  0  0
  193.4220  176.1340  142.2130 N   0  0  0  0  0  2  0  0  0  0  0  0
  191.2710  175.2700  145.1770 C   0  0  2  0  0  3  0  0  0  0  0  0
  188.9040  175.5170  144.1170 C   0  0  0  0  0  2  0  0  0  0  0  0
  189.3120  177.9700  146.6450 O   0  0  0  0  0  0  0  0  0  0  0  0
  189.6880  177.0860  145.8900 C   0  0  0  0  0  0  0  0  0  0  0  0
  194.3460  176.1830  143.2840 C   0  0  0  0  0  0  0  0  0  0  0  0
  189.1300  176.9830  144.4920 C   0  0  2  0  0  3  0  0  0  0  0  0
  190.7700  176.1370  146.3380 C   0  0  1  0  0  3  0  0  0  0  0  0
  190.4910  172.0760  141.5960 C   0  0  0  0  0  3  0  0  0  0  0  0
  189.1130  172.0420  143.5690 O   0  0  0  0  0  1  0  0  0  0  0  0
  192.0870  175.9160  142.7460 C   0  0  2  0  0  3  0  0  0  0  0  0
  191.4350  172.7070  140.7850 C   0  0  0  0  0  3  0  0  0  0  0  0
  190.5890  173.9270  143.1610 C   0  0  0  0  0  0  0  0  0  0  0  0
  192.2310  176.0800  144.2780 C   0  0  2  0  0  3  0  0  0  0  0  0
  195.5760  176.3780  143.1020 O   0  0  0  0  0  0  0  0  0  0  0  0
  193.7350  175.9830  144.6170 C   0  0  1  0  0  3  0  0  0  0  0  0
  191.9610  173.9450  141.1590 C   0  0  0  0  0  3  0  0  0  0  0  0
  191.5580  174.5550  142.3570 C   0  0  0  0  0  0  0  0  0  0  0  0
  195.3560  174.7690  145.9990 O   0  0  0  0  0  0  0  0  0  0  0  0
  194.2090  174.6380  145.1920 C   0  0  2  0  0  3  0  0  0  0  0  0
  194.4570  173.6170  144.1110 C   0  0  0  0  0  2  0  0  0  0  0  0
  196.1980  173.6820  145.6980 C   0  0  0  0  0  2  0  0  0  0  0  0
  195.5130  172.7580  144.7170 C   0  0  0  0  0  2  0  0  0  0  0  0
  191.3070  175.3090  148.3200 C   0  0  0  0  0  1  0  0  0  0  0  0
  190.2890  175.3210  147.3650 O   0  0  0  0  0  0  0  0  0  0  0  0
  187.9260  177.6850  144.3800 O   0  0  0  0  0  0  0  0  0  0  0  0
  185.8880  177.0880  145.4470 C   0  0  0  0  0  1  0  0  0  0  0  0
  186.9350  176.7030  144.4240 C   0  0  0  0  0  2  0  0  0  0  0  0
  1  5  1  6  0  0  0
  1  4  1  0  0  0  0
  2 15  1  0  0  0  0
  2 12  1  0  0  0  0
  3 13  1  0  0  0  0
  3  8  1  0  0  0  0
  4 10  1  0  0  0  0
  5  9  1  0  0  0  0
  7 10  1  0  0  0  0
  7  6  2  0  0  0  0
  8 18  1  0  0  0  0
  9  7  1  0  0  0  0
 10 27  1  0  0  0  0
 11  2  2  0  0  0  0
 13 16  1  0  0  0  0
 14 19  2  0  0  0  0
 14 11  1  0  0  0  0
 15  1  1  0  0  0  0
 16 18  1  0  0  0  0
 16  4  1  0  0  0  0
 17  8  2  0  0  0  0
 18 22  1  0  0  0  0
 19 20  1  0  0  0  0
 20 13  1  0  0  0  0
 20 15  2  0  0  0  0
 22 21  1  0  0  0  0
 23 25  1  0  0  0  0
 23 22  1  0  0  0  0
 24 21  1  0  0  0  0
 25 24  1  0  0  0  0
 27 26  1  0  0  0  0
 28 30  1  0  0  0  0
 28  9  1  0  0  0  0
 30 29  1  0  0  0  0
M  END
>  <MODEL>
3

>  <REMARK>
 VINA RESULT:      -6.3      2.779      5.527
  Name = 
  4 active torsions:
  status: ('A' for Active; 'I' for Inactive)
    1  A    between atoms: C_9  and  C_22
    2  A    between atoms: C_11  and  O_28
    3  A    between atoms: C_12  and  O_27
    4  A    between atoms: O_28  and  C_30
                            x       y       z     vdW  Elec       q    Type
                         _______ _______ _______ _____ _____    ______ ____

>  <TORSDO>
F 4

$$$$
=
 OpenBabel11112416173D

 30 34  0  0  1  0  0  0  0  0999 V2000
  192.2210  176.0780  144.6430 C   0  0  1  0  0  3  0  0  0  0  0  0
  194.6170  175.3040  144.5620 C   0  0  0  0  0  0  0  0  0  0  0  0
  191.0930  171.9820  144.2940 N   0  0  0  0  0  2  0  0  0  0  0  0
  190.9940  175.7080  143.7790 C   0  0  2  0  0  3  0  0  0  0  0  0
  191.9000  176.5170  146.0840 C   0  0  0  0  0  2  0  0  0  0  0  0
  188.5390  177.5830  145.7130 O   0  0  0  0  0  0  0  0  0  0  0  0
  189.5410  176.9540  145.4060 C   0  0  0  0  0  0  0  0  0  0  0  0
  190.3090  172.1060  143.1230 C   0  0  0  0  0  0  0  0  0  0  0  0
  190.4280  176.3590  146.4710 C   0  0  2  0  0  3  0  0  0  0  0  0
  189.8480  176.7130  143.9510 C   0  0  1  0  0  3  0  0  0  0  0  0
  195.5720  174.2840  144.5840 C   0  0  0  0  0  3  0  0  0  0  0  0
  195.0350  176.6270  144.4770 O   0  0  0  0  0  1  0  0  0  0  0  0
  191.3760  173.3080  144.8210 C   0  0  2  0  0  3  0  0  0  0  0  0
  195.1740  172.9510  144.6810 C   0  0  0  0  0  3  0  0  0  0  0  0
  193.2500  174.9880  144.6280 C   0  0  0  0  0  0  0  0  0  0  0  0
  190.4810  174.2680  144.0000 C   0  0  2  0  0  3  0  0  0  0  0  0
  189.9090  171.1060  142.4720 O   0  0  0  0  0  0  0  0  0  0  0  0
  190.0120  173.5050  142.7420 C   0  0  1  0  0  3  0  0  0  0  0  0
  193.8160  172.6300  144.7460 C   0  0  0  0  0  3  0  0  0  0  0  0
  192.8440  173.6420  144.7020 C   0  0  0  0  0  0  0  0  0  0  0  0
  189.9560  173.6360  140.2940 O   0  0  0  0  0  0  0  0  0  0  0  0
  190.7540  173.8400  141.4370 C   0  0  2  0  0  3  0  0  0  0  0  0
  192.0430  173.0710  141.3060 C   0  0  0  0  0  2  0  0  0  0  0  0
  190.7800  173.0460  139.3170 C   0  0  0  0  0  2  0  0  0  0  0  0
  192.1990  172.9550  139.8290 C   0  0  0  0  0  2  0  0  0  0  0  0
  189.2830  178.0370  142.2680 C   0  0  0  0  0  1  0  0  0  0  0  0
  190.1810  177.9210  143.3300 O   0  0  0  0  0  0  0  0  0  0  0  0
  190.2030  176.9680  147.7090 O   0  0  0  0  0  0  0  0  0  0  0  0
  191.4410  177.9960  149.4580 C   0  0  0  0  0  1  0  0  0  0  0  0
  191.4530  176.9870  148.3300 C   0  0  0  0  0  2  0  0  0  0  0  0
  1  5  1  1  0  0  0
  2 11  2  0  0  0  0
  2 15  1  0  0  0  0
  3 13  1  0  0  0  0
  4 10  1  0  0  0  0
  4 16  1  0  0  0  0
  4  1  1  0  0  0  0
  5  9  1  0  0  0  0
  7  6  2  0  0  0  0
  7  9  1  0  0  0  0
  8  3  1  0  0  0  0
  9 28  1  0  0  0  0
 10  7  1  0  0  0  0
 11 14  1  0  0  0  0
 12  2  1  0  0  0  0
 14 19  2  0  0  0  0
 15  1  1  0  0  0  0
 15 20  2  0  0  0  0
 16 13  1  0  0  0  0
 17  8  2  0  0  0  0
 18  8  1  0  0  0  0
 18 16  1  0  0  0  0
 20 19  1  0  0  0  0
 20 13  1  0  0  0  0
 21 22  1  0  0  0  0
 22 18  1  0  0  0  0
 23 22  1  0  0  0  0
 24 25  1  0  0  0  0
 24 21  1  0  0  0  0
 25 23  1  0  0  0  0
 26 27  1  0  0  0  0
 27 10  1  0  0  0  0
 28 30  1  0  0  0  0
 30 29  1  0  0  0  0
M  END
>  <MODEL>
4

>  <REMARK>
 VINA RESULT:      -6.2      2.305      3.444
  Name = 
  4 active torsions:
  status: ('A' for Active; 'I' for Inactive)
    1  A    between atoms: C_9  and  C_22
    2  A    between atoms: C_11  and  O_28
    3  A    between atoms: C_12  and  O_27
    4  A    between atoms: O_28  and  C_30
                            x       y       z     vdW  Elec       q    Type
                         _______ _______ _______ _____ _____    ______ ____

>  <TORSDO>
F 4

$$$$
=
 OpenBabel11112416173D

 30 34  0  0  1  0  0  0  0  0999 V2000
  190.1470  174.3930  144.2440 C   0  0  1  0  0  3  0  0  0  0  0  0
  190.2840  172.3500  142.7760 C   0  0  0  0  0  0  0  0  0  0  0  0
  193.4560  175.9480  142.0550 N   0  0  0  0  0  2  0  0  0  0  0  0
  191.2360  175.1910  144.9960 C   0  0  2  0  0  3  0  0  0  0  0  0
  188.9050  175.2050  143.8320 C   0  0  0  0  0  2  0  0  0  0  0  0
  189.0600  177.8720  146.1630 O   0  0  0  0  0  0  0  0  0  0  0  0
  189.5190  176.9560  145.4980 C   0  0  0  0  0  0  0  0  0  0  0  0
  194.3290  176.1390  143.1520 C   0  0  0  0  0  0  0  0  0  0  0  0
  189.0280  176.7080  144.0940 C   0  0  2  0  0  3  0  0  0  0  0  0
  190.6350  176.1150  146.0630 C   0  0  1  0  0  3  0  0  0  0  0  0
  190.7970  171.6790  141.6630 C   0  0  0  0  0  3  0  0  0  0  0  0
  189.3420  171.7180  143.5790 O   0  0  0  0  0  1  0  0  0  0  0  0
  192.1140  175.6910  142.5530 C   0  0  2  0  0  3  0  0  0  0  0  0
  191.7360  172.3010  140.8390 C   0  0  0  0  0  3  0  0  0  0  0  0
  190.7190  173.6520  143.0740 C   0  0  0  0  0  0  0  0  0  0  0  0
  192.1830  175.9850  144.0710 C   0  0  2  0  0  3  0  0  0  0  0  0
  195.5520  176.3950  143.0010 O   0  0  0  0  0  0  0  0  0  0  0  0
  193.6750  176.0090  144.4730 C   0  0  1  0  0  3  0  0  0  0  0  0
  192.1720  173.5950  141.1300 C   0  0  0  0  0  3  0  0  0  0  0  0
  191.6840  174.2730  142.2570 C   0  0  0  0  0  0  0  0  0  0  0  0
  195.3000  175.0130  146.0150 O   0  0  0  0  0  0  0  0  0  0  0  0
  194.2030  174.7460  145.1730 C   0  0  2  0  0  3  0  0  0  0  0  0
  194.5630  173.6620  144.1900 C   0  0  0  0  0  2  0  0  0  0  0  0
  196.2200  173.9620  145.8380 C   0  0  0  0  0  2  0  0  0  0  0  0
  195.6390  172.9230  144.9070 C   0  0  0  0  0  2  0  0  0  0  0  0
  191.2120  175.3320  148.0520 C   0  0  0  0  0  1  0  0  0  0  0  0
  190.1600  175.3550  147.1350 O   0  0  0  0  0  0  0  0  0  0  0  0
  187.7910  177.3220  143.8790 O   0  0  0  0  0  0  0  0  0  0  0  0
  188.9140  178.2050  141.9800 C   0  0  0  0  0  1  0  0  0  0  0  0
  187.6980  177.4640  142.4940 C   0  0  0  0  0  2  0  0  0  0  0  0
  1  5  1  6  0  0  0
  1  4  1  0  0  0  0
  2 15  1  0  0  0  0
  2 12  1  0  0  0  0
  3 13  1  0  0  0  0
  3  8  1  0  0  0  0
  4 10  1  0  0  0  0
  5  9  1  0  0  0  0
  7 10  1  0  0  0  0
  7  6  2  0  0  0  0
  8 18  1  0  0  0  0
  9  7  1  0  0  0  0
 10 27  1  0  0  0  0
 11  2  2  0  0  0  0
 13 16  1  0  0  0  0
 14 19  2  0  0  0  0
 14 11  1  0  0  0  0
 15  1  1  0  0  0  0
 16 18  1  0  0  0  0
 16  4  1  0  0  0  0
 17  8  2  0  0  0  0
 18 22  1  0  0  0  0
 19 20  1  0  0  0  0
 20 13  1  0  0  0  0
 20 15  2  0  0  0  0
 22 21  1  0  0  0  0
 23 25  1  0  0  0  0
 23 22  1  0  0  0  0
 24 21  1  0  0  0  0
 25 24  1  0  0  0  0
 27 26  1  0  0  0  0
 28  9  1  0  0  0  0
 29 30  1  0  0  0  0
 30 28  1  0  0  0  0
M  END
>  <MODEL>
5

>  <REMARK>
 VINA RESULT:      -6.2      2.751      5.664
  Name = 
  4 active torsions:
  status: ('A' for Active; 'I' for Inactive)
    1  A    between atoms: C_9  and  C_22
    2  A    between atoms: C_11  and  O_28
    3  A    between atoms: C_12  and  O_27
    4  A    between atoms: O_28  and  C_30
                            x       y       z     vdW  Elec       q    Type
                         _______ _______ _______ _____ _____    ______ ____

>  <TORSDO>
F 4

$$$$
=
 OpenBabel11112416173D

 30 34  0  0  1  0  0  0  0  0999 V2000
  189.7040  174.0930  144.5730 C   0  0  1  0  0  3  0  0  0  0  0  0
  189.3160  175.2090  146.7990 C   0  0  0  0  0  0  0  0  0  0  0  0
  190.0990  177.9970  142.9070 N   0  0  0  0  0  2  0  0  0  0  0  0
  189.1200  174.3730  143.1700 C   0  0  2  0  0  3  0  0  0  0  0  0
  191.1070  173.4590  144.5850 C   0  0  0  0  0  2  0  0  0  0  0  0
  191.1810  171.9660  141.3700 O   0  0  0  0  0  0  0  0  0  0  0  0
  190.7920  172.7620  142.2120 C   0  0  0  0  0  0  0  0  0  0  0  0
  189.0740  177.8880  141.9390 C   0  0  0  0  0  0  0  0  0  0  0  0
  191.7580  173.3600  143.2040 C   0  0  2  0  0  3  0  0  0  0  0  0
  189.3510  173.2000  142.2090 C   0  0  1  0  0  3  0  0  0  0  0  0
  189.3090  176.3470  147.6090 C   0  0  0  0  0  3  0  0  0  0  0  0
  188.9860  173.9760  147.3510 O   0  0  0  0  0  1  0  0  0  0  0  0
  190.3890  176.6760  143.4440 C   0  0  2  0  0  3  0  0  0  0  0  0
  189.6480  177.5910  147.0750 C   0  0  0  0  0  3  0  0  0  0  0  0
  189.6570  175.3150  145.4400 C   0  0  0  0  0  0  0  0  0  0  0  0
  189.6150  175.6920  142.5350 C   0  0  2  0  0  3  0  0  0  0  0  0
  188.6400  178.8840  141.3040 O   0  0  0  0  0  0  0  0  0  0  0  0
  188.5680  176.5100  141.7480 C   0  0  1  0  0  3  0  0  0  0  0  0
  189.9880  177.7030  145.7250 C   0  0  0  0  0  3  0  0  0  0  0  0
  189.9770  176.5730  144.8940 C   0  0  0  0  0  0  0  0  0  0  0  0
  186.1850  176.9140  141.3340 O   0  0  0  0  0  0  0  0  0  0  0  0
  187.1220  176.4290  142.2670 C   0  0  2  0  0  3  0  0  0  0  0  0
  186.9520  177.1440  143.5830 C   0  0  0  0  0  2  0  0  0  0  0  0
  185.2340  177.6590  142.0560 C   0  0  0  0  0  2  0  0  0  0  0  0
  185.5250  177.5680  143.5360 C   0  0  0  0  0  2  0  0  0  0  0  0
  187.2700  172.4570  142.0550 C   0  0  0  0  0  1  0  0  0  0  0  0
  188.5280  172.1280  142.5640 O   0  0  0  0  0  0  0  0  0  0  0  0
  192.9250  172.5950  143.2910 O   0  0  0  0  0  0  0  0  0  0  0  0
  194.3860  171.9630  145.0560 C   0  0  0  0  0  1  0  0  0  0  0  0
  192.9500  172.1320  144.6080 C   0  0  0  0  0  2  0  0  0  0  0  0
  1  5  1  6  0  0  0
  1 15  1  0  0  0  0
  2 12  1  0  0  0  0
  2 11  1  0  0  0  0
  3 13  1  0  0  0  0
  4  1  1  0  0  0  0
  6  7  2  0  0  0  0
  7  9  1  0  0  0  0
  8  3  1  0  0  0  0
  9 28  1  0  0  0  0
  9  5  1  0  0  0  0
 10  7  1  0  0  0  0
 10 27  1  0  0  0  0
 10  4  1  0  0  0  0
 13 20  1  0  0  0  0
 14 11  2  0  0  0  0
 15  2  2  0  0  0  0
 16  4  1  0  0  0  0
 16 13  1  0  0  0  0
 17  8  2  0  0  0  0
 18  8  1  0  0  0  0
 18 22  1  0  0  0  0
 18 16  1  0  0  0  0
 19 14  1  0  0  0  0
 20 15  1  0  0  0  0
 20 19  2  0  0  0  0
 21 24  1  0  0  0  0
 21 22  1  0  0  0  0
 22 23  1  0  0  0  0
 24 25  1  0  0  0  0
 25 23  1  0  0  0  0
 26 27  1  0  0  0  0
 28 30  1  0  0  0  0
 30 29  1  0  0  0  0
M  END
>  <MODEL>
6

>  <REMARK>
 VINA RESULT:      -6.0      2.332      5.739
  Name = 
  4 active torsions:
  status: ('A' for Active; 'I' for Inactive)
    1  A    between atoms: C_9  and  C_22
    2  A    between atoms: C_11  and  O_28
    3  A    between atoms: C_12  and  O_27
    4  A    between atoms: O_28  and  C_30
                            x       y       z     vdW  Elec       q    Type
                         _______ _______ _______ _____ _____    ______ ____

>  <TORSDO>
F 4

$$$$
=
 OpenBabel11112416173D

 30 34  0  0  1  0  0  0  0  0999 V2000
  189.8060  175.6230  142.6540 C   0  0  1  0  0  3  0  0  0  0  0  0
  188.3220  177.6280  143.0060 C   0  0  0  0  0  0  0  0  0  0  0  0
  189.5170  174.9180  146.8480 N   0  0  0  0  0  2  0  0  0  0  0  0
  191.0530  175.1230  143.4190 C   0  0  2  0  0  3  0  0  0  0  0  0
  188.9850  174.5270  141.9510 C   0  0  0  0  0  2  0  0  0  0  0  0
  191.4400  171.9950  141.5880 O   0  0  0  0  0  0  0  0  0  0  0  0
  190.9450  172.9920  142.0910 C   0  0  0  0  0  0  0  0  0  0  0  0
  190.9020  174.9550  147.1360 C   0  0  0  0  0  0  0  0  0  0  0  0
  189.4500  173.1030  142.2610 C   0  0  2  0  0  3  0  0  0  0  0  0
  191.8420  174.0850  142.6110 C   0  0  1  0  0  3  0  0  0  0  0  0
  187.4820  178.3980  143.8150 C   0  0  0  0  0  3  0  0  0  0  0  0
  188.5410  178.0130  141.6890 O   0  0  0  0  0  1  0  0  0  0  0  0
  189.3330  174.8400  145.4070 C   0  0  2  0  0  3  0  0  0  0  0  0
  187.2410  178.0210  145.1370 C   0  0  0  0  0  3  0  0  0  0  0  0
  188.9340  176.4750  143.5260 C   0  0  0  0  0  0  0  0  0  0  0  0
  190.7460  174.5810  144.8320 C   0  0  2  0  0  3  0  0  0  0  0  0
  191.3420  175.0070  148.3140 O   0  0  0  0  0  0  0  0  0  0  0  0
  191.7680  174.9280  145.9370 C   0  0  1  0  0  3  0  0  0  0  0  0
  187.8470  176.8760  145.6590 C   0  0  0  0  0  3  0  0  0  0  0  0
  188.7110  176.1060  144.8660 C   0  0  0  0  0  0  0  0  0  0  0  0
  193.2940  176.3540  144.6520 O   0  0  0  0  0  0  0  0  0  0  0  0
  192.4760  176.2870  145.7970 C   0  0  2  0  0  3  0  0  0  0  0  0
  193.2780  176.6360  147.0230 C   0  0  0  0  0  2  0  0  0  0  0  0
  194.4740  177.0220  145.0300 C   0  0  0  0  0  2  0  0  0  0  0  0
  194.3650  177.4880  146.4640 C   0  0  0  0  0  2  0  0  0  0  0  0
  193.8530  174.5160  141.7890 C   0  0  0  0  0  1  0  0  0  0  0  0
  192.4930  174.7120  141.5440 O   0  0  0  0  0  0  0  0  0  0  0  0
  188.7830  172.2010  141.4260 O   0  0  0  0  0  0  0  0  0  0  0  0
  188.6550  172.3290  139.0570 C   0  0  0  0  0  1  0  0  0  0  0  0
  188.2970  172.9800  140.3750 C   0  0  0  0  0  2  0  0  0  0  0  0
  1  5  1  1  0  0  0
  1  4  1  0  0  0  0
  1 15  1  0  0  0  0
  2 15  2  0  0  0  0
  2 11  1  0  0  0  0
  3  8  1  0  0  0  0
  4 16  1  0  0  0  0
  5  9  1  0  0  0  0
  6  7  2  0  0  0  0
  7  9  1  0  0  0  0
  7 10  1  0  0  0  0
  8 17  2  0  0  0  0
 10  4  1  0  0  0  0
 11 14  2  0  0  0  0
 12  2  1  0  0  0  0
 13  3  1  0  0  0  0
 14 19  1  0  0  0  0
 15 20  1  0  0  0  0
 16 13  1  0  0  0  0
 16 18  1  0  0  0  0
 18  8  1  0  0  0  0
 20 13  1  0  0  0  0
 20 19  2  0  0  0  0
 21 24  1  0  0  0  0
 21 22  1  0  0  0  0
 22 18  1  0  0  0  0
 22 23  1  0  0  0  0
 24 25  1  0  0  0  0
 25 23  1  0  0  0  0
 27 26  1  0  0  0  0
 27 10  1  0  0  0  0
 28  9  1  0  0  0  0
 29 30  1  0  0  0  0
 30 28  1  0  0  0  0
M  END
>  <MODEL>
7

>  <REMARK>
 VINA RESULT:      -5.8      2.180      5.821
  Name = 
  4 active torsions:
  status: ('A' for Active; 'I' for Inactive)
    1  A    between atoms: C_9  and  C_22
    2  A    between atoms: C_11  and  O_28
    3  A    between atoms: C_12  and  O_27
    4  A    between atoms: O_28  and  C_30
                            x       y       z     vdW  Elec       q    Type
                         _______ _______ _______ _____ _____    ______ ____

>  <TORSDO>
F 4

$$$$
=
 OpenBabel11112416173D

 30 34  0  0  1  0  0  0  0  0999 V2000
  190.9280  174.5420  143.9180 C   0  0  1  0  0  3  0  0  0  0  0  0
  190.5850  172.1080  143.3640 C   0  0  0  0  0  0  0  0  0  0  0  0
  194.4940  174.3670  141.5890 N   0  0  0  0  0  2  0  0  0  0  0  0
  192.1750  175.3190  144.3960 C   0  0  2  0  0  3  0  0  0  0  0  0
  189.9040  175.3700  143.1210 C   0  0  0  0  0  2  0  0  0  0  0  0
  190.6790  178.6390  144.2530 O   0  0  0  0  0  0  0  0  0  0  0  0
  190.9120  177.4610  144.0330 C   0  0  0  0  0  0  0  0  0  0  0  0
  195.3930  174.7830  142.5990 C   0  0  0  0  0  0  0  0  0  0  0  0
  190.3690  176.7910  142.7950 C   0  0  2  0  0  3  0  0  0  0  0  0
  191.8090  176.6930  144.9700 C   0  0  1  0  0  3  0  0  0  0  0  0
  190.9250  170.9610  142.6420 C   0  0  0  0  0  3  0  0  0  0  0  0
  189.5270  172.0590  144.2650 O   0  0  0  0  0  1  0  0  0  0  0  0
  193.1320  174.6180  142.0320 C   0  0  2  0  0  3  0  0  0  0  0  0
  191.9760  170.9930  141.7250 C   0  0  0  0  0  3  0  0  0  0  0  0
  191.3090  173.2970  143.1750 C   0  0  0  0  0  0  0  0  0  0  0  0
  193.2750  175.4640  143.3210 C   0  0  2  0  0  3  0  0  0  0  0  0
  196.6420  174.6920  142.4670 O   0  0  0  0  0  0  0  0  0  0  0  0
  194.7340  175.3250  143.8080 C   0  0  1  0  0  3  0  0  0  0  0  0
  192.6990  172.1720  141.5330 C   0  0  0  0  0  3  0  0  0  0  0  0
  192.3860  173.3260  142.2680 C   0  0  0  0  0  0  0  0  0  0  0  0
  196.0840  174.7080  145.7600 O   0  0  0  0  0  0  0  0  0  0  0  0
  194.9620  174.3590  144.9820 C   0  0  2  0  0  3  0  0  0  0  0  0
  195.0820  172.9290  144.5220 C   0  0  0  0  0  2  0  0  0  0  0  0
  196.7490  173.5100  146.0830 C   0  0  0  0  0  2  0  0  0  0  0  0
  195.9610  172.3290  145.5650 C   0  0  0  0  0  2  0  0  0  0  0  0
  192.2020  176.1920  147.0910 C   0  0  0  0  0  1  0  0  0  0  0  0
  191.1780  176.5360  146.2070 O   0  0  0  0  0  0  0  0  0  0  0  0
  189.3050  177.5200  142.2560 O   0  0  0  0  0  0  0  0  0  0  0  0
  187.2160  177.9040  143.3220 C   0  0  0  0  0  1  0  0  0  0  0  0
  188.1590  176.8790  142.7290 C   0  0  0  0  0  2  0  0  0  0  0  0
  1  5  1  6  0  0  0
  1  4  1  0  0  0  0
  2 12  1  0  0  0  0
  3 13  1  0  0  0  0
  3  8  1  0  0  0  0
  4 10  1  0  0  0  0
  7  6  2  0  0  0  0
  7 10  1  0  0  0  0
  8 18  1  0  0  0  0
  9  5  1  0  0  0  0
  9  7  1  0  0  0  0
 10 27  1  0  0  0  0
 11  2  2  0  0  0  0
 13 20  1  0  0  0  0
 13 16  1  0  0  0  0
 14 11  1  0  0  0  0
 15  2  1  0  0  0  0
 15  1  1  0  0  0  0
 16 18  1  0  0  0  0
 16  4  1  0  0  0  0
 17  8  2  0  0  0  0
 18 22  1  0  0  0  0
 19 14  2  0  0  0  0
 19 20  1  0  0  0  0
 20 15  2  0  0  0  0
 21 24  1  0  0  0  0
 22 21  1  0  0  0  0
 23 22  1  0  0  0  0
 23 25  1  0  0  0  0
 25 24  1  0  0  0  0
 27 26  1  0  0  0  0
 28 30  1  0  0  0  0
 28  9  1  0  0  0  0
 30 29  1  0  0  0  0
M  END
>  <MODEL>
8

>  <REMARK>
 VINA RESULT:      -5.8      3.063      5.920
  Name = 
  4 active torsions:
  status: ('A' for Active; 'I' for Inactive)
    1  A    between atoms: C_9  and  C_22
    2  A    between atoms: C_11  and  O_28
    3  A    between atoms: C_12  and  O_27
    4  A    between atoms: O_28  and  C_30
                            x       y       z     vdW  Elec       q    Type
                         _______ _______ _______ _____ _____    ______ ____

>  <TORSDO>
F 4

$$$$
=
 OpenBabel11112416173D

 30 34  0  0  1  0  0  0  0  0999 V2000
  192.7290  173.4870  142.9550 C   0  0  1  0  0  3  0  0  0  0  0  0
  194.4240  173.5710  144.8170 C   0  0  0  0  0  0  0  0  0  0  0  0
  191.8320  177.5560  143.8540 N   0  0  0  0  0  2  0  0  0  0  0  0
  191.2610  173.9660  142.8820 C   0  0  2  0  0  3  0  0  0  0  0  0
  193.4820  173.4730  141.6120 C   0  0  0  0  0  2  0  0  0  0  0  0
  190.7690  173.2680  139.3390 O   0  0  0  0  0  0  0  0  0  0  0  0
  191.3000  173.5290  140.4080 C   0  0  0  0  0  0  0  0  0  0  0  0
  190.4500  177.3880  144.1090 C   0  0  0  0  0  0  0  0  0  0  0  0
  192.6990  174.0900  140.4510 C   0  0  2  0  0  3  0  0  0  0  0  0
  190.5190  173.3580  141.6850 C   0  0  1  0  0  3  0  0  0  0  0  0
  195.1640  174.2860  145.7630 C   0  0  0  0  0  3  0  0  0  0  0  0
  194.6140  172.1990  144.6970 O   0  0  0  0  0  1  0  0  0  0  0  0
  192.3500  176.3510  143.2260 C   0  0  2  0  0  3  0  0  0  0  0  0
  194.9950  175.6650  145.8920 C   0  0  0  0  0  3  0  0  0  0  0  0
  193.5000  174.2400  143.9980 C   0  0  0  0  0  0  0  0  0  0  0  0
  191.1010  175.5020  142.8870 C   0  0  2  0  0  3  0  0  0  0  0  0
  189.7490  178.2910  144.6350 O   0  0  0  0  0  0  0  0  0  0  0  0
  189.9190  176.0670  143.7050 C   0  0  1  0  0  3  0  0  0  0  0  0
  194.0770  176.3340  145.0800 C   0  0  0  0  0  3  0  0  0  0  0  0
  193.3100  175.6280  144.1410 C   0  0  0  0  0  0  0  0  0  0  0  0
  188.2670  175.6360  145.4650 O   0  0  0  0  0  0  0  0  0  0  0  0
  189.5330  175.2730  144.9650 C   0  0  2  0  0  3  0  0  0  0  0  0
  190.5690  175.3980  146.0510 C   0  0  0  0  0  2  0  0  0  0  0  0
  188.3770  175.6800  146.8680 C   0  0  0  0  0  2  0  0  0  0  0  0
  189.7570  175.2310  147.2900 C   0  0  0  0  0  2  0  0  0  0  0  0
  189.3140  171.9720  142.9230 C   0  0  0  0  0  1  0  0  0  0  0  0
  190.2810  172.0000  141.9170 O   0  0  0  0  0  0  0  0  0  0  0  0
  193.3740  173.8480  139.2520 O   0  0  0  0  0  0  0  0  0  0  0  0
  195.5900  174.5130  138.7080 C   0  0  0  0  0  1  0  0  0  0  0  0
  194.1910  174.9650  139.0700 C   0  0  0  0  0  2  0  0  0  0  0  0
  1  5  1  6  0  0  0
  1 15  1  0  0  0  0
  2 11  1  0  0  0  0
  3  8  1  0  0  0  0
  4 16  1  0  0  0  0
  4  1  1  0  0  0  0
  6  7  2  0  0  0  0
  7  9  1  0  0  0  0
  7 10  1  0  0  0  0
  8 17  2  0  0  0  0
  9  5  1  0  0  0  0
 10 27  1  0  0  0  0
 10  4  1  0  0  0  0
 11 14  2  0  0  0  0
 12  2  1  0  0  0  0
 13  3  1  0  0  0  0
 13 20  1  0  0  0  0
 15 20  1  0  0  0  0
 15  2  2  0  0  0  0
 16 13  1  0  0  0  0
 16 18  1  0  0  0  0
 18  8  1  0  0  0  0
 18 22  1  0  0  0  0
 19 14  1  0  0  0  0
 20 19  2  0  0  0  0
 21 24  1  0  0  0  0
 22 21  1  0  0  0  0
 22 23  1  0  0  0  0
 23 25  1  0  0  0  0
 24 25  1  0  0  0  0
 27 26  1  0  0  0  0
 28  9  1  0  0  0  0
 29 30  1  0  0  0  0
 30 28  1  0  0  0  0
M  END
>  <MODEL>
9

>  <REMARK>
 VINA RESULT:      -5.7      2.600      6.526
  Name = 
  4 active torsions:
  status: ('A' for Active; 'I' for Inactive)
    1  A    between atoms: C_9  and  C_22
    2  A    between atoms: C_11  and  O_28
    3  A    between atoms: C_12  and  O_27
    4  A    between atoms: O_28  and  C_30
                            x       y       z     vdW  Elec       q    Type
                         _______ _______ _______ _____ _____    ______ ____

>  <TORSDO>
F 4

$$$$
