=
 OpenBabel11112416343D

 32 38  0  0  1  0  0  0  0  0999 V2000
  192.2800  175.0820  144.5860 C   0  0  1  0  0  3  0  0  0  0  0  0
  187.6500  177.1380  143.7040 C   0  0  0  0  0  0  0  0  0  0  0  0
  186.0400  178.1560  148.1670 N   0  0  0  0  0  0  0  0  0  0  0  0
  184.8080  178.4610  147.6850 C   0  0  0  0  0  3  0  0  0  0  0  0
  186.0650  177.4180  141.7560 C   0  0  0  0  0  0  0  0  0  0  0  0
  184.7690  177.7410  141.3710 C   0  0  0  0  0  0  0  0  0  0  0  0
  190.1170  176.6450  143.5120 C   0  0  1  0  0  3  0  0  0  0  0  0
  189.2470  176.9690  145.6770 C   0  0  0  0  0  2  0  0  0  0  0  0
  182.6550  178.4210  141.5630 N   0  0  0  0  0  0  0  0  0  0  0  0
  191.2910  175.7760  145.5240 C   0  0  2  0  0  3  0  0  0  0  0  0
  187.0450  177.7550  147.3440 C   0  0  0  0  0  3  0  0  0  0  0  0
  187.8690  177.2280  145.1040 C   0  0  0  0  0  0  0  0  0  0  0  0
  186.8370  177.6470  145.9590 C   0  0  0  0  0  0  0  0  0  0  0  0
  185.3240  177.8740  144.0610 C   0  0  0  0  0  0  0  0  0  0  0  0
  182.8600  178.2780  140.1720 N   0  0  0  0  0  0  0  0  0  0  0  0
  191.6850  174.7930  143.3180 O   0  0  0  0  0  0  0  0  0  0  0  0
  190.0030  176.0400  144.8470 N   0  0  2  0  0  0  0  0  0  0  0  0
  184.2040  177.8360  140.0710 N   0  0  0  0  0  0  0  0  0  0  0  0
  191.1720  175.9350  142.6610 C   0  0  0  0  0  2  0  0  0  0  0  0
  192.4790  176.5570  144.9610 C   0  0  1  0  0  3  0  0  0  0  0  0
  184.5510  178.3710  146.3180 C   0  0  0  0  0  3  0  0  0  0  0  0
  185.5650  177.9620  145.4410 C   0  0  0  0  0  0  0  0  0  0  0  0
  184.0790  178.1880  143.5820 N   0  0  0  0  0  0  0  0  0  0  0  0
  188.7590  176.5880  142.8320 C   0  0  0  0  0  2  0  0  0  0  0  0
  187.0420  177.0820  140.6750 C   0  0  0  0  0  1  0  0  0  0  0  0
  181.4770  179.0400  142.1420 C   0  0  0  0  0  1  0  0  0  0  0  0
  186.3720  177.4650  143.1600 C   0  0  0  0  0  0  0  0  0  0  0  0
  183.8370  178.0980  142.2570 C   0  0  0  0  0  0  0  0  0  0  0  0
  193.5540  176.6610  146.0250 C   0  0  0  0  0  2  0  0  0  0  0  0
  194.7980  177.2230  145.4320 C   0  0  0  0  0  0  0  0  0  0  0  0
  195.4860  176.5080  144.4590 O   0  0  0  0  0  0  0  0  0  0  0  0
  195.2450  178.3280  145.8330 O   0  0  0  0  0  1  0  0  0  0  0  0
  1 16  1  6  0  0  0
  1 20  1  0  0  0  0
  1 10  1  0  0  0  0
  2 12  1  0  0  0  0
  4  3  1  0  0  0  0
  5 27  1  0  0  0  0
  6  5  2  0  0  0  0
  6 28  1  0  0  0  0
  7 19  1  6  0  0  0
  7 17  1  0  0  0  0
  9 26  1  0  0  0  0
  9 28  1  0  0  0  0
 11  3  2  0  0  0  0
 12  8  1  0  0  0  0
 12 13  2  0  0  0  0
 13 11  1  0  0  0  0
 14 22  2  0  0  0  0
 15  9  1  0  0  0  0
 17 10  1  0  0  0  0
 17  8  1  0  0  0  0
 18 15  2  0  0  0  0
 18  6  1  0  0  0  0
 19 16  1  0  0  0  0
 20 10  1  0  0  0  0
 20 29  1  0  0  0  0
 21  4  2  0  0  0  0
 22 13  1  0  0  0  0
 22 21  1  0  0  0  0
 23 14  1  0  0  0  0
 24  7  1  0  0  0  0
 24  2  1  0  0  0  0
 25  5  1  0  0  0  0
 27  2  2  0  0  0  0
 27 14  1  0  0  0  0
 28 23  2  0  0  0  0
 30 32  1  0  0  0  0
 30 29  1  0  0  0  0
 31 30  2  0  0  0  0
M  END
>  <MODEL>
1

>  <REMARK>
 VINA RESULT:      -9.4      0.000      0.000
  Name = 
  2 active torsions:
  status: ('A' for Active; 'I' for Inactive)
    1  A    between atoms: C_20  and  C_29
    2  A    between atoms: C_29  and  C_30
                            x       y       z     vdW  Elec       q    Type
                         _______ _______ _______ _____ _____    ______ ____

>  <TORSDO>
F 2

$$$$
=
 OpenBabel11112416343D

 32 38  0  0  1  0  0  0  0  0999 V2000
  185.1340  177.3700  146.5530 C   0  0  1  0  0  3  0  0  0  0  0  0
  189.8260  176.0380  144.9240 C   0  0  0  0  0  0  0  0  0  0  0  0
  188.9750  174.2330  140.5020 N   0  0  0  0  0  0  0  0  0  0  0  0
  190.2560  173.7930  140.4030 C   0  0  0  0  0  3  0  0  0  0  0  0
  192.1530  175.8270  145.8870 C   0  0  0  0  0  0  0  0  0  0  0  0
  193.4350  175.3270  145.6870 C   0  0  0  0  0  0  0  0  0  0  0  0
  187.9460  177.3750  145.9470 C   0  0  1  0  0  3  0  0  0  0  0  0
  187.5240  176.3250  143.8800 C   0  0  0  0  0  2  0  0  0  0  0  0
  195.1410  174.3480  144.6380 N   0  0  0  0  0  0  0  0  0  0  0  0
  185.6290  176.8930  145.1860 C   0  0  2  0  0  3  0  0  0  0  0  0
  188.5320  174.8830  141.6100 C   0  0  0  0  0  3  0  0  0  0  0  0
  188.9400  175.7870  143.8430 C   0  0  0  0  0  0  0  0  0  0  0  0
  189.3930  175.1220  142.6930 C   0  0  0  0  0  0  0  0  0  0  0  0
  191.6190  174.9060  143.6650 C   0  0  0  0  0  0  0  0  0  0  0  0
  195.6940  174.8360  145.8430 N   0  0  0  0  0  0  0  0  0  0  0  0
  186.1330  177.1960  147.5620 O   0  0  0  0  0  0  0  0  0  0  0  0
  187.0380  176.4530  145.2480 N   0  0  2  0  0  0  0  0  0  0  0  0
  194.5930  175.4450  146.5000 N   0  0  0  0  0  0  0  0  0  0  0  0
  187.3500  177.8550  147.2710 C   0  0  0  0  0  2  0  0  0  0  0  0
  185.4150  178.3860  145.4380 C   0  0  1  0  0  3  0  0  0  0  0  0
  191.1510  174.0080  141.4490 C   0  0  0  0  0  3  0  0  0  0  0  0
  190.7270  174.6760  142.6070 C   0  0  0  0  0  0  0  0  0  0  0  0
  192.9110  174.4630  143.5550 N   0  0  0  0  0  0  0  0  0  0  0  0
  189.2710  176.6690  146.1840 C   0  0  0  0  0  2  0  0  0  0  0  0
  191.8990  176.5870  147.1490 C   0  0  0  0  0  1  0  0  0  0  0  0
  195.9360  173.8140  143.5470 C   0  0  0  0  0  1  0  0  0  0  0  0
  191.1840  175.6040  144.8490 C   0  0  0  0  0  0  0  0  0  0  0  0
  193.7720  174.6740  144.5730 C   0  0  0  0  0  0  0  0  0  0  0  0
  184.1030  178.8150  144.8100 C   0  0  0  0  0  2  0  0  0  0  0  0
  184.2020  178.7280  143.3280 C   0  0  0  0  0  0  0  0  0  0  0  0
  185.3830  179.0860  142.6890 O   0  0  0  0  0  1  0  0  0  0  0  0
  183.2070  178.3630  142.6510 O   0  0  0  0  0  0  0  0  0  0  0  0
  1 16  1  1  0  0  0
  2 24  1  0  0  0  0
  3 11  1  0  0  0  0
  4  3  2  0  0  0  0
  4 21  1  0  0  0  0
  5 25  1  0  0  0  0
  6  5  1  0  0  0  0
  6 18  1  0  0  0  0
  7 24  1  1  0  0  0
  7 19  1  0  0  0  0
  8 17  1  0  0  0  0
  9 15  1  0  0  0  0
 10 17  1  0  0  0  0
 10 20  1  0  0  0  0
 10  1  1  0  0  0  0
 11 13  2  0  0  0  0
 12  8  1  0  0  0  0
 12  2  2  0  0  0  0
 13 12  1  0  0  0  0
 14 27  1  0  0  0  0
 15 18  2  0  0  0  0
 17  7  1  0  0  0  0
 19 16  1  0  0  0  0
 20  1  1  0  0  0  0
 21 22  2  0  0  0  0
 22 13  1  0  0  0  0
 22 14  1  0  0  0  0
 23 14  2  0  0  0  0
 23 28  1  0  0  0  0
 26  9  1  0  0  0  0
 27  2  1  0  0  0  0
 27  5  2  0  0  0  0
 28  9  1  0  0  0  0
 28  6  2  0  0  0  0
 29 20  1  0  0  0  0
 30 29  1  0  0  0  0
 31 30  1  0  0  0  0
 32 30  2  0  0  0  0
M  END
>  <MODEL>
2

>  <REMARK>
 VINA RESULT:      -8.9      3.772      8.751
  Name = 
  2 active torsions:
  status: ('A' for Active; 'I' for Inactive)
    1  A    between atoms: C_20  and  C_29
    2  A    between atoms: C_29  and  C_30
                            x       y       z     vdW  Elec       q    Type
                         _______ _______ _______ _____ _____    ______ ____

>  <TORSDO>
F 2

$$$$
=
 OpenBabel11112416343D

 32 38  0  0  1  0  0  0  0  0999 V2000
  185.3050  179.0960  143.7640 C   0  0  1  0  0  3  0  0  0  0  0  0
  189.0620  175.6740  142.9810 C   0  0  0  0  0  0  0  0  0  0  0  0
  192.0150  176.4120  146.7600 N   0  0  0  0  0  0  0  0  0  0  0  0
  192.9550  175.5920  146.2230 C   0  0  0  0  0  3  0  0  0  0  0  0
  189.8160  174.1070  141.1470 C   0  0  0  0  0  0  0  0  0  0  0  0
  190.8480  173.2990  140.6830 C   0  0  0  0  0  0  0  0  0  0  0  0
  186.7590  176.6860  143.1720 C   0  0  1  0  0  3  0  0  0  0  0  0
  188.2930  177.1630  144.8960 C   0  0  0  0  0  2  0  0  0  0  0  0
  192.8030  172.2280  140.6760 N   0  0  0  0  0  0  0  0  0  0  0  0
  186.4760  178.6660  144.6490 C   0  0  2  0  0  3  0  0  0  0  0  0
  190.8370  176.6510  146.1250 C   0  0  0  0  0  3  0  0  0  0  0  0
  189.3430  176.3000  144.2240 C   0  0  0  0  0  0  0  0  0  0  0  0
  190.5550  176.0520  144.8870 C   0  0  0  0  0  0  0  0  0  0  0  0
  191.2650  174.5720  143.0850 C   0  0  0  0  0  0  0  0  0  0  0  0
  192.1380  171.7690  139.5160 N   0  0  0  0  0  0  0  0  0  0  0  0
  185.4430  178.5950  142.4310 O   0  0  0  0  0  0  0  0  0  0  0  0
  187.4040  177.7770  143.9180 N   0  0  2  0  0  0  0  0  0  0  0  0
  190.9040  172.4680  139.5330 N   0  0  0  0  0  0  0  0  0  0  0  0
  185.5600  177.1870  142.3660 C   0  0  0  0  0  2  0  0  0  0  0  0
  185.0850  178.0780  144.8900 C   0  0  1  0  0  3  0  0  0  0  0  0
  192.7230  174.9720  144.9970 C   0  0  0  0  0  3  0  0  0  0  0  0
  191.5180  175.1960  144.3160 C   0  0  0  0  0  0  0  0  0  0  0  0
  192.2180  173.7430  142.5520 N   0  0  0  0  0  0  0  0  0  0  0  0
  187.7870  176.0470  142.2530 C   0  0  0  0  0  2  0  0  0  0  0  0
  188.5660  174.1660  140.3300 C   0  0  0  0  0  1  0  0  0  0  0  0
  194.0310  171.6430  141.1820 C   0  0  0  0  0  1  0  0  0  0  0  0
  190.0210  174.7950  142.3930 C   0  0  0  0  0  0  0  0  0  0  0  0
  191.9860  173.1460  141.3640 C   0  0  0  0  0  0  0  0  0  0  0  0
  184.4490  178.7740  146.0770 C   0  0  0  0  0  2  0  0  0  0  0  0
  185.3370  178.6570  147.2660 C   0  0  0  0  0  0  0  0  0  0  0  0
  185.9410  179.7910  147.7940 O   0  0  0  0  0  1  0  0  0  0  0  0
  185.5670  177.5280  147.7720 O   0  0  0  0  0  0  0  0  0  0  0  0
  1 16  1  6  0  0  0
  1 10  1  0  0  0  0
  1 20  1  0  0  0  0
  2 12  1  0  0  0  0
  4  3  1  0  0  0  0
  5 27  1  0  0  0  0
  6  5  2  0  0  0  0
  6 28  1  0  0  0  0
  7 24  1  6  0  0  0
  7 17  1  0  0  0  0
  9 26  1  0  0  0  0
  9 28  1  0  0  0  0
 10 20  1  0  0  0  0
 11  3  2  0  0  0  0
 12 13  2  0  0  0  0
 12  8  1  0  0  0  0
 13 11  1  0  0  0  0
 14 22  2  0  0  0  0
 15 18  2  0  0  0  0
 15  9  1  0  0  0  0
 17 10  1  0  0  0  0
 17  8  1  0  0  0  0
 18  6  1  0  0  0  0
 19 16  1  0  0  0  0
 19  7  1  0  0  0  0
 20 29  1  0  0  0  0
 21  4  2  0  0  0  0
 22 13  1  0  0  0  0
 22 21  1  0  0  0  0
 23 14  1  0  0  0  0
 24  2  1  0  0  0  0
 25  5  1  0  0  0  0
 27  2  2  0  0  0  0
 27 14  1  0  0  0  0
 28 23  2  0  0  0  0
 29 30  1  0  0  0  0
 30 32  2  0  0  0  0
 30 31  1  0  0  0  0
M  END
>  <MODEL>
3

>  <REMARK>
 VINA RESULT:      -8.3      3.748      7.592
  Name = 
  2 active torsions:
  status: ('A' for Active; 'I' for Inactive)
    1  A    between atoms: C_20  and  C_29
    2  A    between atoms: C_29  and  C_30
                            x       y       z     vdW  Elec       q    Type
                         _______ _______ _______ _____ _____    ______ ____

>  <TORSDO>
F 2

$$$$
=
 OpenBabel11112416343D

 32 38  0  0  1  0  0  0  0  0999 V2000
  194.6540  174.6920  145.7270 C   0  0  1  0  0  3  0  0  0  0  0  0
  189.8460  175.8940  144.3530 C   0  0  0  0  0  0  0  0  0  0  0  0
  189.4510  173.9300  139.9330 N   0  0  0  0  0  0  0  0  0  0  0  0
  188.2540  174.5400  139.7370 C   0  0  0  0  0  3  0  0  0  0  0  0
  187.9700  177.3630  145.1940 C   0  0  0  0  0  0  0  0  0  0  0  0
  186.7470  177.9480  144.8850 C   0  0  0  0  0  0  0  0  0  0  0  0
  191.8080  175.1090  145.7330 C   0  0  1  0  0  3  0  0  0  0  0  0
  191.6670  174.3260  143.5150 C   0  0  0  0  0  2  0  0  0  0  0  0
  184.9060  178.4190  143.7200 N   0  0  0  0  0  0  0  0  0  0  0  0
  193.8080  174.2510  144.5300 C   0  0  2  0  0  3  0  0  0  0  0  0
  190.1500  174.0950  141.0870 C   0  0  0  0  0  3  0  0  0  0  0  0
  190.3710  175.0850  143.3100 C   0  0  0  0  0  0  0  0  0  0  0  0
  189.6510  174.9060  142.1190 C   0  0  0  0  0  0  0  0  0  0  0  0
  187.8740  176.3550  142.9470 C   0  0  0  0  0  0  0  0  0  0  0  0
  184.7110  179.0510  144.9690 N   0  0  0  0  0  0  0  0  0  0  0  0
  194.0420  175.7770  146.4290 O   0  0  0  0  0  0  0  0  0  0  0  0
  192.5400  175.0080  144.4620 N   0  0  2  0  0  0  0  0  0  0  0  0
  185.8950  178.7490  145.6900 N   0  0  0  0  0  0  0  0  0  0  0  0
  192.7360  175.4890  146.8870 C   0  0  0  0  0  2  0  0  0  0  0  0
  193.9390  173.3350  145.7470 C   0  0  1  0  0  3  0  0  0  0  0  0
  187.7140  175.3540  140.7310 C   0  0  0  0  0  3  0  0  0  0  0  0
  188.4090  175.5450  141.9340 C   0  0  0  0  0  0  0  0  0  0  0  0
  186.6630  176.9640  142.7430 N   0  0  0  0  0  0  0  0  0  0  0  0
  190.7010  176.1390  145.5790 C   0  0  0  0  0  2  0  0  0  0  0  0
  188.5280  177.6100  146.5580 C   0  0  0  0  0  1  0  0  0  0  0  0
  183.8680  178.2900  142.7140 C   0  0  0  0  0  1  0  0  0  0  0  0
  188.5840  176.5400  144.1880 C   0  0  0  0  0  0  0  0  0  0  0  0
  186.1460  177.7510  143.7100 C   0  0  0  0  0  0  0  0  0  0  0  0
  194.9380  172.2380  145.4390 C   0  0  0  0  0  2  0  0  0  0  0  0
  194.2430  170.9240  145.3780 C   0  0  0  0  0  0  0  0  0  0  0  0
  193.1930  170.7350  144.4870 O   0  0  0  0  0  0  0  0  0  0  0  0
  194.5830  169.9940  146.1550 O   0  0  0  0  0  1  0  0  0  0  0  0
  1 20  1  0  0  0  0
  1 16  1  1  0  0  0
  2 24  1  0  0  0  0
  3 11  1  0  0  0  0
  4  3  2  0  0  0  0
  4 21  1  0  0  0  0
  5 25  1  0  0  0  0
  6  5  1  0  0  0  0
  6 18  1  0  0  0  0
  7 24  1  6  0  0  0
  7 19  1  0  0  0  0
  8 17  1  0  0  0  0
  9 15  1  0  0  0  0
 10  1  1  0  0  0  0
 10 20  1  0  0  0  0
 11 13  2  0  0  0  0
 12  8  1  0  0  0  0
 12  2  2  0  0  0  0
 13 12  1  0  0  0  0
 14 27  1  0  0  0  0
 15 18  2  0  0  0  0
 16 19  1  0  0  0  0
 17 10  1  0  0  0  0
 17  7  1  0  0  0  0
 21 22  2  0  0  0  0
 22 13  1  0  0  0  0
 22 14  1  0  0  0  0
 23 14  2  0  0  0  0
 23 28  1  0  0  0  0
 26  9  1  0  0  0  0
 27  2  1  0  0  0  0
 27  5  2  0  0  0  0
 28  9  1  0  0  0  0
 28  6  2  0  0  0  0
 29 20  1  0  0  0  0
 30 29  1  0  0  0  0
 30 32  1  0  0  0  0
 31 30  2  0  0  0  0
M  END
>  <MODEL>
4

>  <REMARK>
 VINA RESULT:      -8.2      2.592      5.130
  Name = 
  2 active torsions:
  status: ('A' for Active; 'I' for Inactive)
    1  A    between atoms: C_20  and  C_29
    2  A    between atoms: C_29  and  C_30
                            x       y       z     vdW  Elec       q    Type
                         _______ _______ _______ _____ _____    ______ ____

>  <TORSDO>
F 2

$$$$
=
 OpenBabel11112416343D

 32 38  0  0  1  0  0  0  0  0999 V2000
  185.7780  179.1250  142.9160 C   0  0  1  0  0  3  0  0  0  0  0  0
  189.0180  175.1340  143.0520 C   0  0  0  0  0  0  0  0  0  0  0  0
  191.6900  176.0310  147.0020 N   0  0  0  0  0  0  0  0  0  0  0  0
  192.5370  175.0150  146.6950 C   0  0  0  0  0  3  0  0  0  0  0  0
  189.6870  173.2130  141.5530 C   0  0  0  0  0  0  0  0  0  0  0  0
  190.6200  172.2070  141.3270 C   0  0  0  0  0  0  0  0  0  0  0  0
  186.8910  176.4740  142.8370 C   0  0  1  0  0  3  0  0  0  0  0  0
  188.3150  176.9940  144.6400 C   0  0  0  0  0  2  0  0  0  0  0  0
  192.3790  170.8870  141.6910 N   0  0  0  0  0  0  0  0  0  0  0  0
  186.7820  178.6780  143.9810 C   0  0  2  0  0  3  0  0  0  0  0  0
  190.6260  176.3310  146.2110 C   0  0  0  0  0  3  0  0  0  0  0  0
  189.2760  175.9000  144.2200 C   0  0  0  0  0  0  0  0  0  0  0  0
  190.3700  175.5920  145.0440 C   0  0  0  0  0  0  0  0  0  0  0  0
  191.0060  173.7660  143.5590 C   0  0  0  0  0  0  0  0  0  0  0  0
  191.7610  170.3510  140.5390 N   0  0  0  0  0  0  0  0  0  0  0  0
  185.9600  178.4090  141.6920 O   0  0  0  0  0  0  0  0  0  0  0  0
  187.6250  177.5660  143.4910 N   0  0  2  0  0  0  0  0  0  0  0  0
  190.6530  171.2090  140.3180 N   0  0  0  0  0  0  0  0  0  0  0  0
  185.8630  177.0060  141.8370 C   0  0  0  0  0  2  0  0  0  0  0  0
  185.3010  178.3330  144.1420 C   0  0  1  0  0  3  0  0  0  0  0  0
  192.3260  174.2510  145.5500 C   0  0  0  0  0  3  0  0  0  0  0  0
  191.2370  174.5330  144.7120 C   0  0  0  0  0  0  0  0  0  0  0  0
  191.8640  172.7410  143.2590 N   0  0  0  0  0  0  0  0  0  0  0  0
  187.8880  175.5630  142.1390 C   0  0  0  0  0  2  0  0  0  0  0  0
  188.5420  173.3180  140.5980 C   0  0  0  0  0  1  0  0  0  0  0  0
  193.4500  170.2230  142.4110 C   0  0  0  0  0  1  0  0  0  0  0  0
  189.8800  174.0500  142.7050 C   0  0  0  0  0  0  0  0  0  0  0  0
  191.6530  172.0050  142.1480 C   0  0  0  0  0  0  0  0  0  0  0  0
  184.6740  179.2860  145.1400 C   0  0  0  0  0  2  0  0  0  0  0  0
  184.7870  178.7250  146.5130 C   0  0  0  0  0  0  0  0  0  0  0  0
  185.6220  179.3310  147.4440 O   0  0  0  0  0  1  0  0  0  0  0  0
  184.1520  177.6840  146.8230 O   0  0  0  0  0  0  0  0  0  0  0  0
  1 16  1  6  0  0  0
  1 10  1  0  0  0  0
  1 20  1  0  0  0  0
  2 12  1  0  0  0  0
  4  3  1  0  0  0  0
  5 27  1  0  0  0  0
  6  5  2  0  0  0  0
  6 28  1  0  0  0  0
  7 19  1  6  0  0  0
  7 17  1  0  0  0  0
  9 28  1  0  0  0  0
  9 26  1  0  0  0  0
 10 20  1  0  0  0  0
 11  3  2  0  0  0  0
 12  8  1  0  0  0  0
 12 13  2  0  0  0  0
 13 11  1  0  0  0  0
 14 22  2  0  0  0  0
 15  9  1  0  0  0  0
 16 19  1  0  0  0  0
 17 10  1  0  0  0  0
 17  8  1  0  0  0  0
 18 15  2  0  0  0  0
 18  6  1  0  0  0  0
 20 29  1  0  0  0  0
 21  4  2  0  0  0  0
 22 13  1  0  0  0  0
 22 21  1  0  0  0  0
 23 14  1  0  0  0  0
 24  7  1  0  0  0  0
 24  2  1  0  0  0  0
 25  5  1  0  0  0  0
 27  2  2  0  0  0  0
 27 14  1  0  0  0  0
 28 23  2  0  0  0  0
 29 30  1  0  0  0  0
 30 32  2  0  0  0  0
 30 31  1  0  0  0  0
M  END
>  <MODEL>
5

>  <REMARK>
 VINA RESULT:      -8.1      3.944      7.770
  Name = 
  2 active torsions:
  status: ('A' for Active; 'I' for Inactive)
    1  A    between atoms: C_20  and  C_29
    2  A    between atoms: C_29  and  C_30
                            x       y       z     vdW  Elec       q    Type
                         _______ _______ _______ _____ _____    ______ ____

>  <TORSDO>
F 2

$$$$
=
 OpenBabel11112416343D

 32 38  0  0  1  0  0  0  0  0999 V2000
  186.2710  178.2500  141.3370 C   0  0  1  0  0  3  0  0  0  0  0  0
  190.1170  175.5880  143.4740 C   0  0  0  0  0  0  0  0  0  0  0  0
  190.4130  177.4850  147.9310 N   0  0  0  0  0  0  0  0  0  0  0  0
  191.5600  176.8020  148.1770 C   0  0  0  0  0  3  0  0  0  0  0  0
  191.8920  173.9460  142.7410 C   0  0  0  0  0  0  0  0  0  0  0  0
  193.0750  173.3040  143.0930 C   0  0  0  0  0  0  0  0  0  0  0  0
  188.0140  176.1250  142.1880 C   0  0  1  0  0  3  0  0  0  0  0  0
  188.2920  177.1640  144.2850 C   0  0  0  0  0  2  0  0  0  0  0  0
  194.7920  172.6670  144.3620 N   0  0  0  0  0  0  0  0  0  0  0  0
  186.7910  178.2090  142.7760 C   0  0  2  0  0  3  0  0  0  0  0  0
  189.7650  177.3790  146.7400 C   0  0  0  0  0  3  0  0  0  0  0  0
  189.6080  176.4420  144.4890 C   0  0  0  0  0  0  0  0  0  0  0  0
  190.2680  176.5510  145.7230 C   0  0  0  0  0  0  0  0  0  0  0  0
  191.9820  174.9890  144.9720 C   0  0  0  0  0  0  0  0  0  0  0  0
  194.9220  171.9090  143.1760 N   0  0  0  0  0  0  0  0  0  0  0  0
  187.1660  177.5890  140.4380 O   0  0  0  0  0  0  0  0  0  0  0  0
  188.0410  177.4260  142.8730 N   0  0  2  0  0  0  0  0  0  0  0  0
  193.8290  172.3360  142.3790 N   0  0  0  0  0  0  0  0  0  0  0  0
  187.4210  176.2420  140.7830 C   0  0  0  0  0  2  0  0  0  0  0  0
  185.5560  177.3930  142.3900 C   0  0  1  0  0  3  0  0  0  0  0  0
  192.0990  175.9660  147.2010 C   0  0  0  0  0  3  0  0  0  0  0  0
  191.4560  175.8330  145.9620 C   0  0  0  0  0  0  0  0  0  0  0  0
  193.1380  174.3000  145.2300 N   0  0  0  0  0  0  0  0  0  0  0  0
  189.4300  175.5770  142.1250 C   0  0  0  0  0  2  0  0  0  0  0  0
  191.3030  173.6220  141.4060 C   0  0  0  0  0  1  0  0  0  0  0  0
  195.5810  172.4300  145.5570 C   0  0  0  0  0  1  0  0  0  0  0  0
  191.3130  174.8440  143.7030 C   0  0  0  0  0  0  0  0  0  0  0  0
  193.6540  173.4930  144.2800 C   0  0  0  0  0  0  0  0  0  0  0  0
  184.3120  178.1180  142.8640 C   0  0  0  0  0  2  0  0  0  0  0  0
  184.4810  178.5350  144.2830 C   0  0  0  0  0  0  0  0  0  0  0  0
  184.6870  177.5770  145.2670 O   0  0  0  0  0  1  0  0  0  0  0  0
  184.4040  179.7510  144.5950 O   0  0  0  0  0  0  0  0  0  0  0  0
  1 16  1  6  0  0  0
  1 20  1  0  0  0  0
  1 10  1  0  0  0  0
  2 27  2  0  0  0  0
  2 12  1  0  0  0  0
  3  4  1  0  0  0  0
  5  6  2  0  0  0  0
  5 27  1  0  0  0  0
  6 28  1  0  0  0  0
  7 19  1  6  0  0  0
  7 17  1  0  0  0  0
  8 12  1  0  0  0  0
  9 26  1  0  0  0  0
 10 17  1  0  0  0  0
 11  3  2  0  0  0  0
 12 13  2  0  0  0  0
 13 22  1  0  0  0  0
 13 11  1  0  0  0  0
 14 23  1  0  0  0  0
 14 22  2  0  0  0  0
 15  9  1  0  0  0  0
 16 19  1  0  0  0  0
 17  8  1  0  0  0  0
 18  6  1  0  0  0  0
 18 15  2  0  0  0  0
 20 10  1  0  0  0  0
 20 29  1  0  0  0  0
 21  4  2  0  0  0  0
 22 21  1  0  0  0  0
 24  7  1  0  0  0  0
 24  2  1  0  0  0  0
 25  5  1  0  0  0  0
 27 14  1  0  0  0  0
 28  9  1  0  0  0  0
 28 23  2  0  0  0  0
 29 30  1  0  0  0  0
 30 32  2  0  0  0  0
 30 31  1  0  0  0  0
M  END
>  <MODEL>
6

>  <REMARK>
 VINA RESULT:      -8.0      3.651      8.128
  Name = 
  2 active torsions:
  status: ('A' for Active; 'I' for Inactive)
    1  A    between atoms: C_20  and  C_29
    2  A    between atoms: C_29  and  C_30
                            x       y       z     vdW  Elec       q    Type
                         _______ _______ _______ _____ _____    ______ ____

>  <TORSDO>
F 2

$$$$
=
 OpenBabel11112416343D

 32 38  0  0  1  0  0  0  0  0999 V2000
  190.2520  172.0900  139.7680 C   0  0  1  0  0  3  0  0  0  0  0  0
  188.7030  175.4480  143.3420 C   0  0  0  0  0  0  0  0  0  0  0  0
  192.1470  175.0890  146.7410 N   0  0  0  0  0  0  0  0  0  0  0  0
  191.4260  175.8600  147.5950 C   0  0  0  0  0  3  0  0  0  0  0  0
  186.6540  176.8390  143.8410 C   0  0  0  0  0  0  0  0  0  0  0  0
  185.9940  177.6070  144.7950 C   0  0  0  0  0  0  0  0  0  0  0  0
  189.2660  174.4440  141.0960 C   0  0  1  0  0  3  0  0  0  0  0  0
  190.8270  174.1420  142.8350 C   0  0  0  0  0  2  0  0  0  0  0  0
  185.6500  178.6840  146.7160 N   0  0  0  0  0  0  0  0  0  0  0  0
  190.9440  172.6100  141.0290 C   0  0  2  0  0  3  0  0  0  0  0  0
  191.6860  174.7830  145.5000 C   0  0  0  0  0  3  0  0  0  0  0  0
  189.9560  174.9440  143.7810 C   0  0  0  0  0  0  0  0  0  0  0  0
  190.4410  175.2610  145.0600 C   0  0  0  0  0  0  0  0  0  0  0  0
  188.4360  176.5690  145.5210 C   0  0  0  0  0  0  0  0  0  0  0  0
  184.5420  179.0280  145.9080 N   0  0  0  0  0  0  0  0  0  0  0  0
  188.8720  172.4640  139.7360 O   0  0  0  0  0  0  0  0  0  0  0  0
  190.0260  173.4320  141.8460 N   0  0  2  0  0  0  0  0  0  0  0  0
  184.7740  178.3250  144.6970 N   0  0  0  0  0  0  0  0  0  0  0  0
  188.6620  173.8600  139.8180 C   0  0  0  0  0  2  0  0  0  0  0  0
  191.2970  173.2100  139.6670 C   0  0  1  0  0  3  0  0  0  0  0  0
  190.1850  176.3610  147.2050 C   0  0  0  0  0  3  0  0  0  0  0  0
  189.6800  176.0650  145.9310 C   0  0  0  0  0  0  0  0  0  0  0  0
  187.7160  177.3500  146.3870 N   0  0  0  0  0  0  0  0  0  0  0  0
  188.1740  175.0000  141.9950 C   0  0  0  0  0  2  0  0  0  0  0  0
  186.0030  176.6950  142.5030 C   0  0  0  0  0  1  0  0  0  0  0  0
  185.9470  179.3220  147.9850 C   0  0  0  0  0  1  0  0  0  0  0  0
  187.9240  176.2730  144.2070 C   0  0  0  0  0  0  0  0  0  0  0  0
  186.5150  177.8310  146.0040 C   0  0  0  0  0  0  0  0  0  0  0  0
  192.6120  172.6250  139.1910 C   0  0  0  0  0  2  0  0  0  0  0  0
  193.7460  173.3340  139.8450 C   0  0  0  0  0  0  0  0  0  0  0  0
  193.9190  174.6980  139.6440 O   0  0  0  0  0  0  0  0  0  0  0  0
  194.5650  172.6940  140.5530 O   0  0  0  0  0  1  0  0  0  0  0  0
  1 16  1  1  0  0  0
  1 10  1  0  0  0  0
  2 12  2  0  0  0  0
  2 27  1  0  0  0  0
  3  4  1  0  0  0  0
  5 27  2  0  0  0  0
  5  6  1  0  0  0  0
  6 28  2  0  0  0  0
  7 19  1  6  0  0  0
  7 17  1  0  0  0  0
  7 24  1  0  0  0  0
  8 12  1  0  0  0  0
  9 26  1  0  0  0  0
 10 17  1  0  0  0  0
 11  3  2  0  0  0  0
 12 13  1  0  0  0  0
 13 11  1  0  0  0  0
 13 22  2  0  0  0  0
 14 22  1  0  0  0  0
 14 23  2  0  0  0  0
 15  9  1  0  0  0  0
 16 19  1  0  0  0  0
 17  8  1  0  0  0  0
 18  6  1  0  0  0  0
 18 15  2  0  0  0  0
 20  1  1  0  0  0  0
 20 10  1  0  0  0  0
 21  4  2  0  0  0  0
 22 21  1  0  0  0  0
 24  2  1  0  0  0  0
 25  5  1  0  0  0  0
 27 14  1  0  0  0  0
 28 23  1  0  0  0  0
 28  9  1  0  0  0  0
 29 20  1  0  0  0  0
 29 30  1  0  0  0  0
 30 32  1  0  0  0  0
 31 30  2  0  0  0  0
M  END
>  <MODEL>
7

>  <REMARK>
 VINA RESULT:      -8.0      2.896      5.183
  Name = 
  2 active torsions:
  status: ('A' for Active; 'I' for Inactive)
    1  A    between atoms: C_20  and  C_29
    2  A    between atoms: C_29  and  C_30
                            x       y       z     vdW  Elec       q    Type
                         _______ _______ _______ _____ _____    ______ ____

>  <TORSDO>
F 2

$$$$
=
 OpenBabel11112416343D

 32 38  0  0  1  0  0  0  0  0999 V2000
  185.8050  177.7090  146.2130 C   0  0  1  0  0  3  0  0  0  0  0  0
  190.0170  175.3950  144.3830 C   0  0  0  0  0  0  0  0  0  0  0  0
  188.6250  173.9200  139.9750 N   0  0  0  0  0  0  0  0  0  0  0  0
  189.7700  173.2070  139.8200 C   0  0  0  0  0  3  0  0  0  0  0  0
  192.2700  174.6480  145.2510 C   0  0  0  0  0  0  0  0  0  0  0  0
  193.3990  173.8770  144.9930 C   0  0  0  0  0  0  0  0  0  0  0  0
  188.5230  177.0960  145.4960 C   0  0  1  0  0  3  0  0  0  0  0  0
  187.8020  176.2120  143.4340 C   0  0  0  0  0  2  0  0  0  0  0  0
  194.8020  172.5630  143.8660 N   0  0  0  0  0  0  0  0  0  0  0  0
  186.1310  177.1630  144.8210 C   0  0  2  0  0  3  0  0  0  0  0  0
  188.3790  174.6290  141.1090 C   0  0  0  0  0  3  0  0  0  0  0  0
  189.0600  175.3720  143.3350 C   0  0  0  0  0  0  0  0  0  0  0  0
  189.3100  174.6460  142.1600 C   0  0  0  0  0  0  0  0  0  0  0  0
  191.4630  173.9170  143.0400 C   0  0  0  0  0  0  0  0  0  0  0  0
  195.4940  172.8900  145.0540 N   0  0  0  0  0  0  0  0  0  0  0  0
  186.7750  177.2940  147.1790 O   0  0  0  0  0  0  0  0  0  0  0  0
  187.4070  176.4160  144.8220 N   0  0  2  0  0  0  0  0  0  0  0  0
  194.5820  173.7150  145.7610 N   0  0  0  0  0  0  0  0  0  0  0  0
  188.0980  177.6700  146.8480 C   0  0  0  0  0  2  0  0  0  0  0  0
  186.2670  178.6600  145.1010 C   0  0  1  0  0  3  0  0  0  0  0  0
  190.7270  173.1930  140.8330 C   0  0  0  0  0  3  0  0  0  0  0  0
  190.5050  173.9140  142.0150 C   0  0  0  0  0  0  0  0  0  0  0  0
  192.6180  173.1980  142.8730 N   0  0  0  0  0  0  0  0  0  0  0  0
  189.6640  176.1070  145.6720 C   0  0  0  0  0  2  0  0  0  0  0  0
  192.2390  175.4180  146.5310 C   0  0  0  0  0  1  0  0  0  0  0  0
  195.4180  171.8880  142.7380 C   0  0  0  0  0  1  0  0  0  0  0  0
  191.2390  174.6690  144.2490 C   0  0  0  0  0  0  0  0  0  0  0  0
  193.5400  173.1890  143.8590 C   0  0  0  0  0  0  0  0  0  0  0  0
  185.0640  179.3840  144.5300 C   0  0  0  0  0  2  0  0  0  0  0  0
  184.8000  178.9110  143.1440 C   0  0  0  0  0  0  0  0  0  0  0  0
  183.5970  178.2850  142.8420 O   0  0  0  0  0  1  0  0  0  0  0  0
  185.6780  179.0490  142.2540 O   0  0  0  0  0  0  0  0  0  0  0  0
  1 16  1  1  0  0  0
  2 24  1  0  0  0  0
  3 11  1  0  0  0  0
  4  3  2  0  0  0  0
  4 21  1  0  0  0  0
  5 25  1  0  0  0  0
  6  5  1  0  0  0  0
  6 18  1  0  0  0  0
  7 24  1  1  0  0  0
  7 19  1  0  0  0  0
  8 17  1  0  0  0  0
  9 15  1  0  0  0  0
 10 17  1  0  0  0  0
 10 20  1  0  0  0  0
 10  1  1  0  0  0  0
 11 13  2  0  0  0  0
 12  8  1  0  0  0  0
 12  2  2  0  0  0  0
 13 12  1  0  0  0  0
 14 27  1  0  0  0  0
 15 18  2  0  0  0  0
 17  7  1  0  0  0  0
 19 16  1  0  0  0  0
 20  1  1  0  0  0  0
 21 22  2  0  0  0  0
 22 13  1  0  0  0  0
 22 14  1  0  0  0  0
 23 14  2  0  0  0  0
 23 28  1  0  0  0  0
 26  9  1  0  0  0  0
 27  2  1  0  0  0  0
 27  5  2  0  0  0  0
 28  9  1  0  0  0  0
 28  6  2  0  0  0  0
 29 20  1  0  0  0  0
 30 29  1  0  0  0  0
 31 30  1  0  0  0  0
 32 30  2  0  0  0  0
M  END
>  <MODEL>
8

>  <REMARK>
 VINA RESULT:      -7.9      3.703      8.759
  Name = 
  2 active torsions:
  status: ('A' for Active; 'I' for Inactive)
    1  A    between atoms: C_20  and  C_29
    2  A    between atoms: C_29  and  C_30
                            x       y       z     vdW  Elec       q    Type
                         _______ _______ _______ _____ _____    ______ ____

>  <TORSDO>
F 2

$$$$
=
 OpenBabel11112416343D

 32 38  0  0  1  0  0  0  0  0999 V2000
  185.5030  177.0760  144.9170 C   0  0  1  0  0  3  0  0  0  0  0  0
  190.3340  175.5770  143.9920 C   0  0  0  0  0  0  0  0  0  0  0  0
  189.9540  173.2140  139.7710 N   0  0  0  0  0  0  0  0  0  0  0  0
  191.2350  172.7740  139.8680 C   0  0  0  0  0  3  0  0  0  0  0  0
  192.5410  175.5060  145.2210 C   0  0  0  0  0  0  0  0  0  0  0  0
  193.8330  174.9930  145.2260 C   0  0  0  0  0  0  0  0  0  0  0  0
  188.3640  177.0210  144.6240 C   0  0  1  0  0  3  0  0  0  0  0  0
  188.1610  175.7120  142.6750 C   0  0  0  0  0  2  0  0  0  0  0  0
  195.6350  173.8980  144.5030 N   0  0  0  0  0  0  0  0  0  0  0  0
  186.1390  176.4310  143.6840 C   0  0  2  0  0  3  0  0  0  0  0  0
  189.3980  173.9980  140.7320 C   0  0  0  0  0  3  0  0  0  0  0  0
  189.5690  175.1840  142.8620 C   0  0  0  0  0  0  0  0  0  0  0  0
  190.1390  174.3800  141.8630 C   0  0  0  0  0  0  0  0  0  0  0  0
  192.2440  174.3050  143.0900 C   0  0  0  0  0  0  0  0  0  0  0  0
  196.0580  174.5410  145.6890 N   0  0  0  0  0  0  0  0  0  0  0  0
  186.3850  177.0390  146.0420 O   0  0  0  0  0  0  0  0  0  0  0  0
  187.5300  176.0120  143.9550 N   0  0  2  0  0  0  0  0  0  0  0  0
  194.8970  175.2210  146.1380 N   0  0  0  0  0  0  0  0  0  0  0  0
  187.6320  177.6630  145.8030 C   0  0  0  0  0  2  0  0  0  0  0  0
  185.9100  177.9430  143.7180 C   0  0  1  0  0  3  0  0  0  0  0  0
  192.0130  173.1260  140.9690 C   0  0  0  0  0  3  0  0  0  0  0  0
  191.4700  173.9340  141.9790 C   0  0  0  0  0  0  0  0  0  0  0  0
  193.5370  173.8600  143.1790 N   0  0  0  0  0  0  0  0  0  0  0  0
  189.6500  176.3610  145.0930 C   0  0  0  0  0  2  0  0  0  0  0  0
  192.1570  176.4200  146.3400 C   0  0  0  0  0  1  0  0  0  0  0  0
  196.5400  173.2340  143.5830 C   0  0  0  0  0  1  0  0  0  0  0  0
  191.6880  175.1450  144.1210 C   0  0  0  0  0  0  0  0  0  0  0  0
  194.2840  174.2050  144.2480 C   0  0  0  0  0  0  0  0  0  0  0  0
  184.6780  178.2790  142.9020 C   0  0  0  0  0  2  0  0  0  0  0  0
  185.0400  178.3850  141.4620 C   0  0  0  0  0  0  0  0  0  0  0  0
  184.0450  178.5510  140.5070 O   0  0  0  0  0  0  0  0  0  0  0  0
  186.2430  178.2910  141.1060 O   0  0  0  0  0  1  0  0  0  0  0  0
  1 16  1  1  0  0  0
  2 27  1  0  0  0  0
  2 24  1  0  0  0  0
  3  4  2  0  0  0  0
  3 11  1  0  0  0  0
  4 21  1  0  0  0  0
  5  6  1  0  0  0  0
  5 25  1  0  0  0  0
  6 18  1  0  0  0  0
  7 24  1  1  0  0  0
  7 19  1  0  0  0  0
  8 12  1  0  0  0  0
  8 17  1  0  0  0  0
  9 15  1  0  0  0  0
 10 20  1  0  0  0  0
 10 17  1  0  0  0  0
 10  1  1  0  0  0  0
 11 13  2  0  0  0  0
 12  2  2  0  0  0  0
 13 22  1  0  0  0  0
 13 12  1  0  0  0  0
 14 23  2  0  0  0  0
 14 27  1  0  0  0  0
 15 18  2  0  0  0  0
 17  7  1  0  0  0  0
 19 16  1  0  0  0  0
 20  1  1  0  0  0  0
 21 22  2  0  0  0  0
 22 14  1  0  0  0  0
 23 28  1  0  0  0  0
 26  9  1  0  0  0  0
 27  5  2  0  0  0  0
 28  9  1  0  0  0  0
 28  6  2  0  0  0  0
 29 20  1  0  0  0  0
 30 29  1  0  0  0  0
 31 30  2  0  0  0  0
 32 30  1  0  0  0  0
M  END
>  <MODEL>
9

>  <REMARK>
 VINA RESULT:      -7.9      3.653      9.037
  Name = 
  2 active torsions:
  status: ('A' for Active; 'I' for Inactive)
    1  A    between atoms: C_20  and  C_29
    2  A    between atoms: C_29  and  C_30
                            x       y       z     vdW  Elec       q    Type
                         _______ _______ _______ _____ _____    ______ ____

>  <TORSDO>
F 2

$$$$
