=
 OpenBabel11112416203D

 30 35  0  0  1  0  0  0  0  0999 V2000
  189.0680  175.2320  143.8880 C   0  0  0  0  0  0  0  0  0  0  0  0
  191.0490  174.5260  145.1540 C   0  0  0  0  0  0  0  0  0  0  0  0
  187.8330  177.6930  147.0990 N   0  0  0  0  0  0  0  0  0  0  0  0
  187.6860  175.8900  143.8050 C   0  0  0  0  0  0  0  0  0  0  0  0
  189.5020  174.4960  142.6840 C   0  0  0  0  0  3  0  0  0  0  0  0
  187.5570  176.0720  140.1540 O   0  0  0  0  0  0  0  0  0  0  0  0
  185.1460  177.2820  143.0980 C   0  0  1  0  0  3  0  0  0  0  0  0
  187.9540  175.7720  141.3130 C   0  0  0  0  0  0  0  0  0  0  0  0
  185.3340  177.8620  144.4170 N   0  0  0  0  0  0  0  0  0  0  0  0
  186.7300  178.1590  146.6000 C   0  0  2  0  0  3  0  0  0  0  0  0
  188.9710  174.7200  141.4780 C   0  0  0  0  0  0  0  0  0  0  0  0
  187.4210  176.4580  142.4630 N   0  0  0  0  0  0  0  0  0  0  0  0
  191.8050  174.5800  146.3270 C   0  0  0  0  0  3  0  0  0  0  0  0
  184.3060  178.8000  144.6770 C   0  0  0  0  0  3  0  0  0  0  0  0
  183.9360  178.0210  142.5260 C   0  0  0  0  0  2  0  0  0  0  0  0
  191.5160  173.7240  144.1630 F   0  0  0  0  0  0  0  0  0  0  0  0
  188.3570  176.8430  146.0810 C   0  0  0  0  0  0  0  0  0  0  0  0
  191.3990  175.3650  147.4010 C   0  0  0  0  0  3  0  0  0  0  0  0
  189.8370  175.2670  145.0330 C   0  0  0  0  0  0  0  0  0  0  0  0
  187.5020  176.8570  144.9330 C   0  0  0  0  0  0  0  0  0  0  0  0
  185.8460  179.0900  147.3540 C   0  0  0  0  0  1  0  0  0  0  0  0
  186.4770  177.6290  145.2490 C   0  0  0  0  0  0  0  0  0  0  0  0
  183.4930  178.9110  143.6440 C   0  0  0  0  0  3  0  0  0  0  0  0
  186.9760  178.8760  142.2490 C   0  0  0  0  0  1  0  0  0  0  0  0
  190.2320  176.1130  147.3100 C   0  0  0  0  0  3  0  0  0  0  0  0
  189.4520  176.0820  146.1480 C   0  0  0  0  0  0  0  0  0  0  0  0
  186.3860  177.4710  142.2130 C   0  0  2  0  0  3  0  0  0  0  0  0
  189.4130  173.9880  140.3240 N   0  0  0  0  0  0  0  0  0  0  0  0
  189.4740  172.1350  138.7830 C   0  0  0  0  0  1  0  0  0  0  0  0
  188.9580  172.8210  139.9970 C   0  0  0  0  0  3  0  0  0  0  0  0
  1 19  1  0  0  0  0
  2 13  1  0  0  0  0
  4  1  2  0  0  0  0
  4 20  1  0  0  0  0
  5  1  1  0  0  0  0
  6  8  2  0  0  0  0
  7 15  1  6  0  0  0
  7  9  1  0  0  0  0
  8 11  1  0  0  0  0
  8 12  1  0  0  0  0
  9 14  1  0  0  0  0
  9 22  1  0  0  0  0
 10  3  1  0  0  0  0
 10 21  1  1  0  0  0
 11  5  2  0  0  0  0
 12  4  1  0  0  0  0
 13 18  2  0  0  0  0
 15 23  1  0  0  0  0
 16  2  1  0  0  0  0
 17 26  1  0  0  0  0
 17  3  2  0  0  0  0
 19  2  2  0  0  0  0
 19 26  1  0  0  0  0
 20 22  2  0  0  0  0
 20 17  1  0  0  0  0
 22 10  1  0  0  0  0
 23 14  2  0  0  0  0
 25 18  1  0  0  0  0
 26 25  2  0  0  0  0
 27 24  1  1  0  0  0
 27 12  1  0  0  0  0
 27  7  1  0  0  0  0
 28 11  1  0  0  0  0
 29 30  1  0  0  0  0
 30 28  2  0  0  0  0
M  END
>  <MODEL>
1

>  <REMARK>
 VINA RESULT:      -8.9      0.000      0.000
  Name = 
  1 active torsions:
  status: ('A' for Active; 'I' for Inactive)
    1  A    between atoms: C_11  and  N_28
                            x       y       z     vdW  Elec       q    Type
                         _______ _______ _______ _____ _____    ______ ____

>  <TORSDO>
F 1

$$$$
=
 OpenBabel11112416203D

 30 35  0  0  1  0  0  0  0  0999 V2000
  188.5700  176.1790  143.5840 C   0  0  0  0  0  0  0  0  0  0  0  0
  186.1980  176.6870  143.9560 C   0  0  0  0  0  0  0  0  0  0  0  0
  189.4830  177.2850  147.5630 N   0  0  0  0  0  0  0  0  0  0  0  0
  190.0460  176.2570  143.9920 C   0  0  0  0  0  0  0  0  0  0  0  0
  188.3070  175.6580  142.2280 C   0  0  0  0  0  3  0  0  0  0  0  0
  191.2440  173.7400  141.6240 O   0  0  0  0  0  0  0  0  0  0  0  0
  192.9640  175.9160  144.4970 C   0  0  1  0  0  3  0  0  0  0  0  0
  190.4700  174.5500  142.2030 C   0  0  0  0  0  0  0  0  0  0  0  0
  192.5800  176.3660  145.8240 N   0  0  0  0  0  0  0  0  0  0  0  0
  190.7660  177.0950  147.5500 C   0  0  2  0  0  3  0  0  0  0  0  0
  189.1960  174.9170  141.5590 C   0  0  0  0  0  0  0  0  0  0  0  0
  190.8250  175.1050  143.4850 N   0  0  0  0  0  0  0  0  0  0  0  0
  185.1880  177.1430  144.8060 C   0  0  0  0  0  3  0  0  0  0  0  0
  193.7120  176.3600  146.6760 C   0  0  0  0  0  3  0  0  0  0  0  0
  194.4420  175.5480  144.6310 C   0  0  0  0  0  2  0  0  0  0  0  0
  185.8260  176.3380  142.6980 F   0  0  0  0  0  0  0  0  0  0  0  0
  189.0520  176.9260  146.2520 C   0  0  0  0  0  0  0  0  0  0  0  0
  185.4760  177.5340  146.1090 C   0  0  0  0  0  3  0  0  0  0  0  0
  187.5510  176.6220  144.4000 C   0  0  0  0  0  0  0  0  0  0  0  0
  190.1650  176.4830  145.4670 C   0  0  0  0  0  0  0  0  0  0  0  0
  191.6230  177.3690  148.7350 C   0  0  0  0  0  1  0  0  0  0  0  0
  191.2320  176.6180  146.2360 C   0  0  0  0  0  0  0  0  0  0  0  0
  194.7810  175.9180  146.0410 C   0  0  0  0  0  3  0  0  0  0  0  0
  191.9660  173.6240  145.0960 C   0  0  0  0  0  1  0  0  0  0  0  0
  186.7810  177.4670  146.5810 C   0  0  0  0  0  3  0  0  0  0  0  0
  187.8160  177.0140  145.7540 C   0  0  0  0  0  0  0  0  0  0  0  0
  192.1270  174.7120  144.0410 C   0  0  2  0  0  3  0  0  0  0  0  0
  188.9130  174.4240  140.2400 N   0  0  0  0  0  0  0  0  0  0  0  0
  188.1910  172.8110  138.6020 C   0  0  0  0  0  1  0  0  0  0  0  0
  188.4560  173.2360  140.0010 C   0  0  0  0  0  3  0  0  0  0  0  0
  1  4  2  0  0  0  0
  1 19  1  0  0  0  0
  2 19  2  0  0  0  0
  2 13  1  0  0  0  0
  4 20  1  0  0  0  0
  5  1  1  0  0  0  0
  6  8  2  0  0  0  0
  7 15  1  1  0  0  0
  7  9  1  0  0  0  0
  8 12  1  0  0  0  0
  9 22  1  0  0  0  0
  9 14  1  0  0  0  0
 10  3  1  0  0  0  0
 10 21  1  6  0  0  0
 11  8  1  0  0  0  0
 11  5  2  0  0  0  0
 12  4  1  0  0  0  0
 12 27  1  0  0  0  0
 13 18  2  0  0  0  0
 15 23  1  0  0  0  0
 16  2  1  0  0  0  0
 17  3  2  0  0  0  0
 18 25  1  0  0  0  0
 19 26  1  0  0  0  0
 20 22  2  0  0  0  0
 20 17  1  0  0  0  0
 22 10  1  0  0  0  0
 23 14  2  0  0  0  0
 26 17  1  0  0  0  0
 26 25  2  0  0  0  0
 27  7  1  0  0  0  0
 27 24  1  1  0  0  0
 28 11  1  0  0  0  0
 29 30  1  0  0  0  0
 30 28  2  0  0  0  0
M  END
>  <MODEL>
2

>  <REMARK>
 VINA RESULT:      -8.5      2.378      5.561
  Name = 
  1 active torsions:
  status: ('A' for Active; 'I' for Inactive)
    1  A    between atoms: C_11  and  N_28
                            x       y       z     vdW  Elec       q    Type
                         _______ _______ _______ _____ _____    ______ ____

>  <TORSDO>
F 1

$$$$
=
 OpenBabel11112416203D

 30 35  0  0  1  0  0  0  0  0999 V2000
  187.5460  177.1620  143.4890 C   0  0  0  0  0  0  0  0  0  0  0  0
  185.3340  177.9740  144.1760 C   0  0  0  0  0  0  0  0  0  0  0  0
  188.9720  177.5480  147.4520 N   0  0  0  0  0  0  0  0  0  0  0  0
  189.0430  176.9540  143.7420 C   0  0  0  0  0  0  0  0  0  0  0  0
  187.0830  176.8830  142.1150 C   0  0  0  0  0  3  0  0  0  0  0  0
  189.5930  174.6380  140.9650 O   0  0  0  0  0  0  0  0  0  0  0  0
  191.8960  176.0990  143.8820 C   0  0  1  0  0  3  0  0  0  0  0  0
  189.0180  175.4680  141.7210 C   0  0  0  0  0  0  0  0  0  0  0  0
  191.7100  176.4130  145.2880 N   0  0  0  0  0  0  0  0  0  0  0  0
  190.1990  177.1660  147.2770 C   0  0  2  0  0  3  0  0  0  0  0  0
  187.7740  176.1140  141.2690 C   0  0  0  0  0  0  0  0  0  0  0  0
  189.5720  175.7770  143.0150 N   0  0  0  0  0  0  0  0  0  0  0  0
  184.4920  178.4570  145.1800 C   0  0  0  0  0  3  0  0  0  0  0  0
  192.8930  176.1140  146.0050 C   0  0  0  0  0  3  0  0  0  0  0  0
  193.2980  175.4920  143.8090 C   0  0  0  0  0  2  0  0  0  0  0  0
  184.8010  177.8660  142.9320 F   0  0  0  0  0  0  0  0  0  0  0  0
  188.3760  177.4470  146.1610 C   0  0  0  0  0  0  0  0  0  0  0  0
  184.9530  178.6140  146.4820 C   0  0  0  0  0  3  0  0  0  0  0  0
  186.6900  177.6390  144.4590 C   0  0  0  0  0  0  0  0  0  0  0  0
  189.3270  176.9510  145.2120 C   0  0  0  0  0  0  0  0  0  0  0  0
  191.1900  177.1360  148.3870 C   0  0  0  0  0  1  0  0  0  0  0  0
  190.4640  176.8110  145.8710 C   0  0  0  0  0  0  0  0  0  0  0  0
  193.8140  175.6050  145.2090 C   0  0  0  0  0  3  0  0  0  0  0  0
  190.5840  173.9280  144.2980 C   0  0  0  0  0  1  0  0  0  0  0  0
  186.2650  178.2800  146.7980 C   0  0  0  0  0  3  0  0  0  0  0  0
  187.1340  177.7930  145.8150 C   0  0  0  0  0  0  0  0  0  0  0  0
  190.8330  175.1140  143.3740 C   0  0  2  0  0  3  0  0  0  0  0  0
  187.2980  175.8590  139.9370 N   0  0  0  0  0  0  0  0  0  0  0  0
  186.3160  176.4160  137.8080 C   0  0  0  0  0  1  0  0  0  0  0  0
  186.7830  176.7690  139.1740 C   0  0  0  0  0  3  0  0  0  0  0  0
  1  4  2  0  0  0  0
  1 19  1  0  0  0  0
  2 19  2  0  0  0  0
  2 13  1  0  0  0  0
  4 20  1  0  0  0  0
  5  1  1  0  0  0  0
  6  8  2  0  0  0  0
  7 15  1  1  0  0  0
  7  9  1  0  0  0  0
  8 12  1  0  0  0  0
  9 22  1  0  0  0  0
  9 14  1  0  0  0  0
 10  3  1  0  0  0  0
 10 21  1  6  0  0  0
 11  8  1  0  0  0  0
 11  5  2  0  0  0  0
 12 27  1  0  0  0  0
 12  4  1  0  0  0  0
 13 18  2  0  0  0  0
 15 23  1  0  0  0  0
 16  2  1  0  0  0  0
 17  3  2  0  0  0  0
 18 25  1  0  0  0  0
 19 26  1  0  0  0  0
 20 22  2  0  0  0  0
 20 17  1  0  0  0  0
 22 10  1  0  0  0  0
 23 14  2  0  0  0  0
 26 17  1  0  0  0  0
 26 25  2  0  0  0  0
 27  7  1  0  0  0  0
 27 24  1  1  0  0  0
 28 11  1  0  0  0  0
 29 30  1  0  0  0  0
 30 28  2  0  0  0  0
M  END
>  <MODEL>
3

>  <REMARK>
 VINA RESULT:      -8.4      2.446      5.478
  Name = 
  1 active torsions:
  status: ('A' for Active; 'I' for Inactive)
    1  A    between atoms: C_11  and  N_28
                            x       y       z     vdW  Elec       q    Type
                         _______ _______ _______ _____ _____    ______ ____

>  <TORSDO>
F 1

$$$$
=
 OpenBabel11112416203D

 30 35  0  0  1  0  0  0  0  0999 V2000
  188.2040  176.1930  142.2980 C   0  0  0  0  0  0  0  0  0  0  0  0
  186.2030  177.5920  142.0510 C   0  0  0  0  0  0  0  0  0  0  0  0
  188.7930  177.6410  146.2280 N   0  0  0  0  0  0  0  0  0  0  0  0
  189.4970  175.8070  143.0250 C   0  0  2  0  0  3  0  0  0  0  0  0
  187.9890  175.5510  140.9860 C   0  0  0  0  0  3  0  0  0  0  0  0
  189.9800  172.6170  141.2990 O   0  0  0  0  0  0  0  0  0  0  0  0
  191.9090  174.5300  144.2260 C   0  0  1  0  0  3  0  0  0  0  0  0
  189.5040  173.7490  141.5880 C   0  0  0  0  0  0  0  0  0  0  0  0
  191.5170  175.3380  145.3690 N   0  0  0  0  0  0  0  0  0  0  0  0
  189.8770  176.9980  146.5340 C   0  0  0  0  0  0  0  0  0  0  0  0
  188.6100  174.4220  140.6300 C   0  0  0  0  0  0  0  0  0  0  0  0
  189.8290  174.3740  142.8450 N   0  0  0  0  0  0  0  0  0  0  0  0
  185.3290  178.5400  142.5880 C   0  0  0  0  0  3  0  0  0  0  0  0
  192.3910  175.0860  146.4540 C   0  0  0  0  0  3  0  0  0  0  0  0
  193.0740  173.6830  144.7390 C   0  0  0  0  0  2  0  0  0  0  0  0
  185.9420  177.1660  140.7890 F   0  0  0  0  0  0  0  0  0  0  0  0
  188.4840  177.2160  144.9020 C   0  0  0  0  0  0  0  0  0  0  0  0
  185.5230  179.0450  143.8680 C   0  0  0  0  0  3  0  0  0  0  0  0
  187.3220  177.1260  142.8010 C   0  0  0  0  0  0  0  0  0  0  0  0
  189.4450  176.2550  144.4520 C   0  0  0  0  0  0  0  0  0  0  0  0
  190.5590  177.1660  147.8460 C   0  0  0  0  0  1  0  0  0  0  0  0
  190.3310  176.1390  145.4260 C   0  0  0  0  0  0  0  0  0  0  0  0
  193.2870  174.1710  146.1380 C   0  0  0  0  0  3  0  0  0  0  0  0
  189.9980  172.9230  144.8340 C   0  0  0  0  0  1  0  0  0  0  0  0
  186.5940  178.6000  144.6340 C   0  0  0  0  0  3  0  0  0  0  0  0
  187.4880  177.6500  144.1260 C   0  0  0  0  0  0  0  0  0  0  0  0
  190.7540  173.6500  143.7290 C   0  0  2  0  0  3  0  0  0  0  0  0
  188.3820  173.8210  139.3460 N   0  0  0  0  0  0  0  0  0  0  0  0
  188.9410  173.1500  137.0990 C   0  0  0  0  0  1  0  0  0  0  0  0
  189.2650  173.7960  138.3990 C   0  0  0  0  0  3  0  0  0  0  0  0
  1 19  2  0  0  0  0
  2 13  2  0  0  0  0
  2 19  1  0  0  0  0
  3 10  2  0  0  0  0
  4  1  1  1  0  0  0
  4 20  1  0  0  0  0
  5  1  1  0  0  0  0
  6  8  2  0  0  0  0
  7 15  1  1  0  0  0
  7  9  1  0  0  0  0
  8 12  1  0  0  0  0
  9 22  1  0  0  0  0
  9 14  1  0  0  0  0
 10 21  1  0  0  0  0
 11  5  2  0  0  0  0
 11  8  1  0  0  0  0
 12  4  1  0  0  0  0
 12 27  1  0  0  0  0
 13 18  1  0  0  0  0
 15 23  1  0  0  0  0
 16  2  1  0  0  0  0
 17  3  1  0  0  0  0
 18 25  2  0  0  0  0
 19 26  1  0  0  0  0
 20 17  1  0  0  0  0
 20 22  2  0  0  0  0
 22 10  1  0  0  0  0
 23 14  2  0  0  0  0
 26 25  1  0  0  0  0
 26 17  2  0  0  0  0
 27  7  1  0  0  0  0
 27 24  1  1  0  0  0
 28 11  1  0  0  0  0
 29 30  1  0  0  0  0
 30 28  2  0  0  0  0
M  END
>  <MODEL>
4

>  <REMARK>
 VINA RESULT:      -8.3      2.255      5.493
  Name = 
  1 active torsions:
  status: ('A' for Active; 'I' for Inactive)
    1  A    between atoms: C_11  and  N_28
                            x       y       z     vdW  Elec       q    Type
                         _______ _______ _______ _____ _____    ______ ____

>  <TORSDO>
F 1

$$$$
=
 OpenBabel11112416203D

 30 35  0  0  1  0  0  0  0  0999 V2000
  187.3830  177.8060  144.3830 C   0  0  0  0  0  0  0  0  0  0  0  0
  185.8330  178.7220  146.0500 C   0  0  0  0  0  0  0  0  0  0  0  0
  190.1940  176.9150  147.4160 N   0  0  0  0  0  0  0  0  0  0  0  0
  188.7740  177.3210  143.9600 C   0  0  0  0  0  0  0  0  0  0  0  0
  186.4030  177.9710  143.2920 C   0  0  0  0  0  3  0  0  0  0  0  0
  187.7120  175.7680  140.8230 O   0  0  0  0  0  0  0  0  0  0  0  0
  191.1910  176.0500  142.7620 C   0  0  1  0  0  3  0  0  0  0  0  0
  187.6660  176.4440  141.8870 C   0  0  0  0  0  0  0  0  0  0  0  0
  191.6070  176.0040  144.1540 N   0  0  0  0  0  0  0  0  0  0  0  0
  191.1450  176.4170  146.6880 C   0  0  2  0  0  3  0  0  0  0  0  0
  186.5350  177.3610  142.1100 C   0  0  0  0  0  0  0  0  0  0  0  0
  188.7060  176.3150  142.8760 N   0  0  0  0  0  0  0  0  0  0  0  0
  185.5530  179.0410  147.3810 C   0  0  0  0  0  3  0  0  0  0  0  0
  192.8610  175.3560  144.2570 C   0  0  0  0  0  3  0  0  0  0  0  0
  192.2830  175.2850  142.0130 C   0  0  0  0  0  2  0  0  0  0  0  0
  184.8770  179.0270  145.1350 F   0  0  0  0  0  0  0  0  0  0  0  0
  189.1650  177.2480  146.4860 C   0  0  0  0  0  0  0  0  0  0  0  0
  186.4760  178.7770  148.3860 C   0  0  0  0  0  3  0  0  0  0  0  0
  187.0770  178.1290  145.6880 C   0  0  0  0  0  0  0  0  0  0  0  0
  189.5600  176.8870  145.1580 C   0  0  0  0  0  0  0  0  0  0  0  0
  192.4320  175.9490  147.2710 C   0  0  0  0  0  1  0  0  0  0  0  0
  190.7900  176.4120  145.2580 C   0  0  0  0  0  0  0  0  0  0  0  0
  193.2810  174.9460  143.0750 C   0  0  0  0  0  3  0  0  0  0  0  0
  189.6400  174.0640  143.2670 C   0  0  0  0  0  1  0  0  0  0  0  0
  187.6920  178.1830  148.0710 C   0  0  0  0  0  3  0  0  0  0  0  0
  188.0040  177.8520  146.7470 C   0  0  0  0  0  0  0  0  0  0  0  0
  189.8140  175.4020  142.5590 C   0  0  2  0  0  3  0  0  0  0  0  0
  185.5650  177.5410  141.0670 N   0  0  0  0  0  0  0  0  0  0  0  0
  183.4060  178.0770  140.1380 C   0  0  0  0  0  1  0  0  0  0  0  0
  184.3440  177.9160  141.2800 C   0  0  0  0  0  3  0  0  0  0  0  0
  1 19  1  0  0  0  0
  2 13  1  0  0  0  0
  4  1  2  0  0  0  0
  4 20  1  0  0  0  0
  5  1  1  0  0  0  0
  6  8  2  0  0  0  0
  7 15  1  6  0  0  0
  7  9  1  0  0  0  0
  8 11  1  0  0  0  0
  8 12  1  0  0  0  0
  9 14  1  0  0  0  0
  9 22  1  0  0  0  0
 10 21  1  6  0  0  0
 10  3  1  0  0  0  0
 11  5  2  0  0  0  0
 12  4  1  0  0  0  0
 13 18  2  0  0  0  0
 15 23  1  0  0  0  0
 16  2  1  0  0  0  0
 17 26  1  0  0  0  0
 17  3  2  0  0  0  0
 19  2  2  0  0  0  0
 19 26  1  0  0  0  0
 20 22  2  0  0  0  0
 20 17  1  0  0  0  0
 22 10  1  0  0  0  0
 23 14  2  0  0  0  0
 25 18  1  0  0  0  0
 26 25  2  0  0  0  0
 27  7  1  0  0  0  0
 27 12  1  0  0  0  0
 27 24  1  1  0  0  0
 28 30  2  0  0  0  0
 28 11  1  0  0  0  0
 29 30  1  0  0  0  0
M  END
>  <MODEL>
5

>  <REMARK>
 VINA RESULT:      -8.3      2.492      5.662
  Name = 
  1 active torsions:
  status: ('A' for Active; 'I' for Inactive)
    1  A    between atoms: C_11  and  N_28
                            x       y       z     vdW  Elec       q    Type
                         _______ _______ _______ _____ _____    ______ ____

>  <TORSDO>
F 1

$$$$
=
 OpenBabel11112416203D

 30 35  0  0  1  0  0  0  0  0999 V2000
  188.6910  176.5630  145.5830 C   0  0  0  0  0  0  0  0  0  0  0  0
  186.6950  177.8870  146.1150 C   0  0  0  0  0  0  0  0  0  0  0  0
  187.2450  175.8630  141.6710 N   0  0  0  0  0  0  0  0  0  0  0  0
  189.4550  175.5730  144.6960 C   0  0  0  0  0  0  0  0  0  0  0  0
  189.3150  176.8710  146.8850 C   0  0  0  0  0  3  0  0  0  0  0  0
  192.7310  176.1190  146.2280 O   0  0  0  0  0  0  0  0  0  0  0  0
  191.4090  173.9130  143.1740 C   0  0  1  0  0  3  0  0  0  0  0  0
  191.4850  176.1770  146.0410 C   0  0  0  0  0  0  0  0  0  0  0  0
  190.4270  174.0920  142.1170 N   0  0  0  0  0  0  0  0  0  0  0  0
  188.2060  175.1200  141.2160 C   0  0  0  0  0  0  0  0  0  0  0  0
  190.6150  176.6710  147.1220 C   0  0  0  0  0  0  0  0  0  0  0  0
  190.9210  175.7680  144.7800 N   0  0  0  0  0  0  0  0  0  0  0  0
  185.4580  178.4040  145.7220 C   0  0  0  0  0  3  0  0  0  0  0  0
  190.8880  173.4750  140.9290 C   0  0  0  0  0  3  0  0  0  0  0  0
  192.5720  173.1890  142.4960 C   0  0  0  0  0  2  0  0  0  0  0  0
  187.0980  178.1650  147.3810 F   0  0  0  0  0  0  0  0  0  0  0  0
  187.6340  176.1780  143.0060 C   0  0  2  0  0  3  0  0  0  0  0  0
  184.9570  178.1620  144.4470 C   0  0  0  0  0  3  0  0  0  0  0  0
  187.4680  177.0900  145.2230 C   0  0  0  0  0  0  0  0  0  0  0  0
  188.9070  175.5930  143.3030 C   0  0  0  0  0  0  0  0  0  0  0  0
  188.1900  174.5500  139.8410 C   0  0  0  0  0  1  0  0  0  0  0  0
  189.2550  174.9060  142.2290 C   0  0  0  0  0  0  0  0  0  0  0  0
  192.0850  172.9470  141.1020 C   0  0  0  0  0  3  0  0  0  0  0  0
  192.1760  176.3260  142.7300 C   0  0  0  0  0  1  0  0  0  0  0  0
  185.6940  177.4030  143.5460 C   0  0  0  0  0  3  0  0  0  0  0  0
  186.9360  176.8700  143.9090 C   0  0  0  0  0  0  0  0  0  0  0  0
  191.8550  175.2570  143.7680 C   0  0  2  0  0  3  0  0  0  0  0  0
  191.1950  176.9790  148.4000 N   0  0  0  0  0  0  0  0  0  0  0  0
  191.5660  178.2880  150.3890 C   0  0  0  0  0  1  0  0  0  0  0  0
  190.9180  178.0500  149.0730 C   0  0  0  0  0  3  0  0  0  0  0  0
  1  5  1  0  0  0  0
  2 16  1  0  0  0  0
  4 12  1  0  0  0  0
  4  1  2  0  0  0  0
  5 11  2  0  0  0  0
  7 15  1  6  0  0  0
  7 27  1  0  0  0  0
  8  6  2  0  0  0  0
  8 11  1  0  0  0  0
  9 22  1  0  0  0  0
  9  7  1  0  0  0  0
 10  3  2  0  0  0  0
 10 22  1  0  0  0  0
 11 28  1  0  0  0  0
 12  8  1  0  0  0  0
 13  2  1  0  0  0  0
 14 23  2  0  0  0  0
 14  9  1  0  0  0  0
 17  3  1  1  0  0  0
 17 20  1  0  0  0  0
 17 26  1  0  0  0  0
 18 13  2  0  0  0  0
 19  1  1  0  0  0  0
 19  2  2  0  0  0  0
 20  4  1  0  0  0  0
 21 10  1  0  0  0  0
 22 20  2  0  0  0  0
 23 15  1  0  0  0  0
 25 26  2  0  0  0  0
 25 18  1  0  0  0  0
 26 19  1  0  0  0  0
 27 24  1  6  0  0  0
 27 12  1  0  0  0  0
 28 30  2  0  0  0  0
 30 29  1  0  0  0  0
M  END
>  <MODEL>
6

>  <REMARK>
 VINA RESULT:      -8.2      2.792      7.000
  Name = 
  1 active torsions:
  status: ('A' for Active; 'I' for Inactive)
    1  A    between atoms: C_11  and  N_28
                            x       y       z     vdW  Elec       q    Type
                         _______ _______ _______ _____ _____    ______ ____

>  <TORSDO>
F 1

$$$$
=
 OpenBabel11112416203D

 30 35  0  0  1  0  0  0  0  0999 V2000
  186.8480  177.1970  142.8010 C   0  0  0  0  0  0  0  0  0  0  0  0
  184.8640  178.3980  143.6020 C   0  0  0  0  0  0  0  0  0  0  0  0
  187.8800  176.1570  146.7690 N   0  0  0  0  0  0  0  0  0  0  0  0
  188.2010  176.5190  143.0430 C   0  0  0  0  0  0  0  0  0  0  0  0
  186.4820  177.4140  141.3880 C   0  0  0  0  0  3  0  0  0  0  0  0
  188.4290  174.9170  139.7620 O   0  0  0  0  0  0  0  0  0  0  0  0
  190.6980  174.8890  143.0480 C   0  0  1  0  0  3  0  0  0  0  0  0
  188.0120  175.6580  140.6940 C   0  0  0  0  0  0  0  0  0  0  0  0
  190.4460  174.8790  144.4790 N   0  0  0  0  0  0  0  0  0  0  0  0
  188.9760  175.5010  146.5410 C   0  0  2  0  0  3  0  0  0  0  0  0
  187.0370  176.7200  140.3890 C   0  0  0  0  0  0  0  0  0  0  0  0
  188.4810  175.4640  142.0420 N   0  0  0  0  0  0  0  0  0  0  0  0
  184.0720  178.8300  144.6690 C   0  0  0  0  0  3  0  0  0  0  0  0
  191.4240  174.0890  145.1300 C   0  0  0  0  0  3  0  0  0  0  0  0
  191.8910  173.9510  142.8630 C   0  0  0  0  0  2  0  0  0  0  0  0
  184.4610  178.7610  142.3570 F   0  0  0  0  0  0  0  0  0  0  0  0
  187.4230  176.5550  145.4780 C   0  0  0  0  0  0  0  0  0  0  0  0
  184.4110  178.5180  145.9800 C   0  0  0  0  0  3  0  0  0  0  0  0
  186.0450  177.6360  143.8330 C   0  0  0  0  0  0  0  0  0  0  0  0
  188.3100  176.0670  144.4650 C   0  0  0  0  0  0  0  0  0  0  0  0
  189.7960  174.9160  147.6370 C   0  0  0  0  0  1  0  0  0  0  0  0
  189.2910  175.4510  145.1030 C   0  0  0  0  0  0  0  0  0  0  0  0
  192.2620  173.5580  144.2590 C   0  0  0  0  0  3  0  0  0  0  0  0
  188.8260  173.1440  142.8100 C   0  0  0  0  0  1  0  0  0  0  0  0
  185.5470  177.7610  146.2410 C   0  0  0  0  0  3  0  0  0  0  0  0
  186.3620  177.3130  145.1950 C   0  0  0  0  0  0  0  0  0  0  0  0
  189.4770  174.4040  142.2530 C   0  0  2  0  0  3  0  0  0  0  0  0
  186.6610  176.9530  139.0230 N   0  0  0  0  0  0  0  0  0  0  0  0
  186.2870  176.3720  136.7140 C   0  0  0  0  0  1  0  0  0  0  0  0
  186.6940  176.0410  138.1040 C   0  0  0  0  0  3  0  0  0  0  0  0
  1  4  2  0  0  0  0
  1 19  1  0  0  0  0
  2 19  2  0  0  0  0
  2 13  1  0  0  0  0
  4 20  1  0  0  0  0
  5  1  1  0  0  0  0
  6  8  2  0  0  0  0
  7 15  1  1  0  0  0
  7  9  1  0  0  0  0
  8 12  1  0  0  0  0
  9 22  1  0  0  0  0
  9 14  1  0  0  0  0
 10  3  1  0  0  0  0
 10 21  1  1  0  0  0
 11  8  1  0  0  0  0
 11  5  2  0  0  0  0
 12 27  1  0  0  0  0
 12  4  1  0  0  0  0
 13 18  2  0  0  0  0
 15 23  1  0  0  0  0
 16  2  1  0  0  0  0
 17  3  2  0  0  0  0
 18 25  1  0  0  0  0
 19 26  1  0  0  0  0
 20 22  2  0  0  0  0
 20 17  1  0  0  0  0
 22 10  1  0  0  0  0
 23 14  2  0  0  0  0
 26 17  1  0  0  0  0
 26 25  2  0  0  0  0
 27 24  1  1  0  0  0
 27  7  1  0  0  0  0
 28 11  1  0  0  0  0
 29 30  1  0  0  0  0
 30 28  2  0  0  0  0
M  END
>  <MODEL>
7

>  <REMARK>
 VINA RESULT:      -8.1      2.450      5.471
  Name = 
  1 active torsions:
  status: ('A' for Active; 'I' for Inactive)
    1  A    between atoms: C_11  and  N_28
                            x       y       z     vdW  Elec       q    Type
                         _______ _______ _______ _____ _____    ______ ____

>  <TORSDO>
F 1

$$$$
=
 OpenBabel11112416203D

 30 35  0  0  1  0  0  0  0  0999 V2000
  187.4420  176.8590  142.8720 C   0  0  0  0  0  0  0  0  0  0  0  0
  185.2760  177.5820  141.9730 C   0  0  0  0  0  0  0  0  0  0  0  0
  186.4950  178.5380  146.6370 N   0  0  0  0  0  0  0  0  0  0  0  0
  188.5400  176.9030  143.9410 C   0  0  2  0  0  3  0  0  0  0  0  0
  187.7860  176.1420  141.6280 C   0  0  0  0  0  3  0  0  0  0  0  0
  190.3570  173.9570  142.7590 O   0  0  0  0  0  0  0  0  0  0  0  0
  190.7870  176.4510  145.8480 C   0  0  1  0  0  3  0  0  0  0  0  0
  189.5210  174.9010  142.7910 C   0  0  0  0  0  0  0  0  0  0  0  0
  189.8840  177.1380  146.7570 N   0  0  0  0  0  0  0  0  0  0  0  0
  187.5890  178.2620  147.2760 C   0  0  0  0  0  0  0  0  0  0  0  0
  188.7730  175.2430  141.5690 C   0  0  0  0  0  0  0  0  0  0  0  0
  189.2980  175.6330  144.0120 N   0  0  0  0  0  0  0  0  0  0  0  0
  184.0580  178.2380  142.1610 C   0  0  0  0  0  3  0  0  0  0  0  0
  190.4610  177.1950  148.0490 C   0  0  0  0  0  3  0  0  0  0  0  0
  191.9550  176.0110  146.7300 C   0  0  0  0  0  2  0  0  0  0  0  0
  185.5030  177.0570  140.7410 F   0  0  0  0  0  0  0  0  0  0  0  0
  186.6950  177.9990  145.3320 C   0  0  0  0  0  0  0  0  0  0  0  0
  183.7420  178.8170  143.3850 C   0  0  0  0  0  3  0  0  0  0  0  0
  186.2300  177.4980  143.0280 C   0  0  0  0  0  0  0  0  0  0  0  0
  187.9730  177.3590  145.2490 C   0  0  0  0  0  0  0  0  0  0  0  0
  187.8080  178.6680  148.6920 C   0  0  0  0  0  1  0  0  0  0  0  0
  188.5530  177.5450  146.4220 C   0  0  0  0  0  0  0  0  0  0  0  0
  191.6300  176.5830  148.0740 C   0  0  0  0  0  3  0  0  0  0  0  0
  189.3160  174.3630  146.1270 C   0  0  0  0  0  1  0  0  0  0  0  0
  184.6420  178.7400  144.4410 C   0  0  0  0  0  3  0  0  0  0  0  0
  185.8710  178.0890  144.2850 C   0  0  0  0  0  0  0  0  0  0  0  0
  190.1090  175.2490  145.1750 C   0  0  2  0  0  3  0  0  0  0  0  0
  189.0860  174.5610  140.3440 N   0  0  0  0  0  0  0  0  0  0  0  0
  188.6080  173.4750  138.2460 C   0  0  0  0  0  1  0  0  0  0  0  0
  188.1930  174.1750  139.4900 C   0  0  0  0  0  3  0  0  0  0  0  0
  1 19  2  0  0  0  0
  2 13  2  0  0  0  0
  2 19  1  0  0  0  0
  3 10  2  0  0  0  0
  4  1  1  6  0  0  0
  4 12  1  0  0  0  0
  4 20  1  0  0  0  0
  5  1  1  0  0  0  0
  6  8  2  0  0  0  0
  7 15  1  1  0  0  0
  7  9  1  0  0  0  0
  8 12  1  0  0  0  0
  9 14  1  0  0  0  0
 10 21  1  0  0  0  0
 11  5  2  0  0  0  0
 11  8  1  0  0  0  0
 12 27  1  0  0  0  0
 13 18  1  0  0  0  0
 14 23  2  0  0  0  0
 15 23  1  0  0  0  0
 16  2  1  0  0  0  0
 17  3  1  0  0  0  0
 18 25  2  0  0  0  0
 19 26  1  0  0  0  0
 20 17  1  0  0  0  0
 20 22  2  0  0  0  0
 22  9  1  0  0  0  0
 22 10  1  0  0  0  0
 26 25  1  0  0  0  0
 26 17  2  0  0  0  0
 27  7  1  0  0  0  0
 27 24  1  1  0  0  0
 28 11  1  0  0  0  0
 29 30  1  0  0  0  0
 30 28  2  0  0  0  0
M  END
>  <MODEL>
8

>  <REMARK>
 VINA RESULT:      -7.8      2.038      5.213
  Name = 
  1 active torsions:
  status: ('A' for Active; 'I' for Inactive)
    1  A    between atoms: C_11  and  N_28
                            x       y       z     vdW  Elec       q    Type
                         _______ _______ _______ _____ _____    ______ ____

>  <TORSDO>
F 1

$$$$
=
 OpenBabel11112416203D

 30 35  0  0  1  0  0  0  0  0999 V2000
  189.4490  176.4950  144.8050 C   0  0  0  0  0  0  0  0  0  0  0  0
  190.4940  176.9740  146.9730 C   0  0  0  0  0  0  0  0  0  0  0  0
  192.6030  173.8560  143.8130 N   0  0  0  0  0  0  0  0  0  0  0  0
  189.4990  175.9300  143.3810 C   0  0  0  0  0  0  0  0  0  0  0  0
  188.2570  177.3000  145.1340 C   0  0  0  0  0  3  0  0  0  0  0  0
  185.8920  176.0580  142.7820 O   0  0  0  0  0  0  0  0  0  0  0  0
  189.0280  174.7560  140.6810 C   0  0  1  0  0  3  0  0  0  0  0  0
  187.0090  176.2360  143.3410 C   0  0  0  0  0  0  0  0  0  0  0  0
  190.2650  174.0590  140.9920 N   0  0  0  0  0  0  0  0  0  0  0  0
  192.2190  173.4990  142.6260 C   0  0  0  0  0  0  0  0  0  0  0  0
  187.1170  177.2090  144.4430 C   0  0  0  0  0  0  0  0  0  0  0  0
  188.1650  175.4920  142.9100 N   0  0  0  0  0  0  0  0  0  0  0  0
  191.5510  176.7780  147.8650 C   0  0  0  0  0  3  0  0  0  0  0  0
  190.5870  173.1660  139.9420 C   0  0  0  0  0  3  0  0  0  0  0  0
  188.5660  174.1410  139.3590 C   0  0  0  0  0  2  0  0  0  0  0  0
  189.5130  177.8250  147.3670 F   0  0  0  0  0  0  0  0  0  0  0  0
  191.5910  174.7540  144.2640 C   0  0  2  0  0  3  0  0  0  0  0  0
  192.6080  175.9330  147.5430 C   0  0  0  0  0  3  0  0  0  0  0  0
  190.4780  176.3200  145.7070 C   0  0  0  0  0  0  0  0  0  0  0  0
  190.5660  174.8860  143.2720 C   0  0  0  0  0  0  0  0  0  0  0  0
  193.0110  172.5650  141.7810 C   0  0  0  0  0  1  0  0  0  0  0  0
  190.9550  174.1530  142.2430 C   0  0  0  0  0  0  0  0  0  0  0  0
  189.6640  173.1900  138.9990 C   0  0  0  0  0  3  0  0  0  0  0  0
  187.8330  173.1310  142.2730 C   0  0  0  0  0  1  0  0  0  0  0  0
  192.6150  175.2660  146.3240 C   0  0  0  0  0  3  0  0  0  0  0  0
  191.5710  175.4400  145.4090 C   0  0  0  0  0  0  0  0  0  0  0  0
  187.9770  174.5670  141.7840 C   0  0  2  0  0  3  0  0  0  0  0  0
  185.9720  178.0060  144.7860 N   0  0  0  0  0  0  0  0  0  0  0  0
  184.0660  178.6650  146.1050 C   0  0  0  0  0  1  0  0  0  0  0  0
  185.2340  177.7880  145.8270 C   0  0  0  0  0  3  0  0  0  0  0  0
  1  5  1  0  0  0  0
  1 19  1  0  0  0  0
  2 16  1  0  0  0  0
  2 13  1  0  0  0  0
  3 17  1  0  0  0  0
  4  1  2  0  0  0  0
  6  8  2  0  0  0  0
  7 15  1  6  0  0  0
  7  9  1  0  0  0  0
  7 27  1  0  0  0  0
  8 11  1  0  0  0  0
  9 22  1  0  0  0  0
 10  3  2  0  0  0  0
 11 28  1  0  0  0  0
 11  5  2  0  0  0  0
 12  8  1  0  0  0  0
 12  4  1  0  0  0  0
 14  9  1  0  0  0  0
 17 20  1  6  0  0  0
 17 26  1  0  0  0  0
 18 13  2  0  0  0  0
 19  2  2  0  0  0  0
 20  4  1  0  0  0  0
 21 10  1  0  0  0  0
 22 10  1  0  0  0  0
 22 20  2  0  0  0  0
 23 15  1  0  0  0  0
 23 14  2  0  0  0  0
 25 18  1  0  0  0  0
 26 19  1  0  0  0  0
 26 25  2  0  0  0  0
 27 24  1  1  0  0  0
 27 12  1  0  0  0  0
 28 30  2  0  0  0  0
 30 29  1  0  0  0  0
M  END
>  <MODEL>
9

>  <REMARK>
 VINA RESULT:      -7.8      2.056      5.883
  Name = 
  1 active torsions:
  status: ('A' for Active; 'I' for Inactive)
    1  A    between atoms: C_11  and  N_28
                            x       y       z     vdW  Elec       q    Type
                         _______ _______ _______ _____ _____    ______ ____

>  <TORSDO>
F 1

$$$$
