=
 OpenBabel11112417253D

 37 44  0  0  1  0  0  0  0  0999 V2000
  190.7420  173.0610  141.3880 C   0  0  0  0  0  2  0  0  0  0  0  0
  193.7220  173.2870  144.6460 C   0  0  0  0  0  0  0  0  0  0  0  0
  190.2820  175.6830  145.2250 C   0  0  0  0  0  0  0  0  0  0  0  0
  191.0400  172.7400  139.9200 C   0  0  2  0  0  3  0  0  0  0  0  0
  187.5860  175.3270  142.6990 C   0  0  0  0  0  3  0  0  0  0  0  0
  192.3260  174.7120  146.1610 C   0  0  0  0  0  0  0  0  0  0  0  0
  189.6970  175.5420  144.0240 C   0  0  0  0  0  0  0  0  0  0  0  0
  188.6290  173.3430  139.5990 C   0  0  0  0  0  0  0  0  0  0  0  0
  191.5850  175.0920  145.1410 C   0  0  0  0  0  0  0  0  0  0  0  0
  188.2510  175.8880  143.7300 C   0  0  0  0  0  0  0  0  0  0  0  0
  191.8390  174.9750  147.5620 C   0  0  0  0  0  2  0  0  0  0  0  0
  189.9830  173.2920  138.9620 C   0  0  0  0  0  2  0  0  0  0  0  0
  191.8250  174.6760  143.8060 C   0  0  0  0  0  0  0  0  0  0  0  0
  193.1150  171.8980  144.7280 C   0  0  0  0  0  1  0  0  0  0  0  0
  189.0300  177.4640  146.5570 C   0  0  0  0  0  2  0  0  0  0  0  0
  190.8220  176.1390  147.6280 C   0  0  0  0  0  2  0  0  0  0  0  0
  193.1150  174.0240  143.4240 C   0  0  0  0  0  2  0  0  0  0  0  0
  188.2050  174.5670  140.3550 C   0  0  1  0  0  3  0  0  0  0  0  0
  188.2640  174.3750  141.7940 C   0  0  1  0  0  3  0  0  0  0  0  0
  189.7020  176.0850  146.5600 C   0  0  2  0  0  3  0  0  0  0  0  0
  190.7240  174.9180  143.0990 C   0  0  0  0  0  0  0  0  0  0  0  0
  193.4940  173.9750  145.8980 O   0  0  0  0  0  0  0  0  0  0  0  0
  187.4860  176.8000  144.6770 C   0  0  1  0  0  3  0  0  0  0  0  0
  195.2130  173.1410  144.4320 C   0  0  0  0  0  1  0  0  0  0  0  0
  189.3100  175.1870  141.1360 N   0  0  1  0  0  0  0  0  0  0  0  0
  187.8740  172.3880  139.5060 O   0  0  0  0  0  0  0  0  0  0  0  0
  190.5570  174.5700  141.6320 C   0  0  2  0  0  3  0  0  0  0  0  0
  188.3850  177.8900  145.2430 C   0  0  0  0  0  2  0  0  0  0  0  0
  185.2490  177.9040  144.9240 C   0  0  0  0  0  3  0  0  0  0  0  0
  186.2540  177.4250  144.0770 C   0  0  0  0  0  0  0  0  0  0  0  0
  186.0940  177.5260  142.6850 C   0  0  0  0  0  3  0  0  0  0  0  0
  184.7400  178.2220  140.4180 Cl  0  0  0  0  0  0  0  0  0  0  0  0
  183.9360  178.5780  143.0040 C   0  0  0  0  0  3  0  0  0  0  0  0
  184.9360  178.1000  142.1520 C   0  0  0  0  0  0  0  0  0  0  0  0
  184.0930  178.4790  144.3900 C   0  0  0  0  0  3  0  0  0  0  0  0
  190.8640  170.5120  141.0290 C   0  0  0  0  0  1  0  0  0  0  0  0
  191.1640  171.2370  139.7300 C   0  0  0  0  0  2  0  0  0  0  0  0
  1 27  1  0  0  0  0
  2 14  1  0  0  0  0
  2 22  1  0  0  0  0
  3 20  1  0  0  0  0
  4 37  1  1  0  0  0
  4  1  1  0  0  0  0
  5 10  2  0  0  0  0
  6 11  1  0  0  0  0
  7  3  2  0  0  0  0
  9  3  1  0  0  0  0
  9  6  2  0  0  0  0
 10  7  1  0  0  0  0
 10 23  1  0  0  0  0
 11 16  1  0  0  0  0
 12  8  1  0  0  0  0
 12  4  1  0  0  0  0
 13  9  1  0  0  0  0
 17 13  1  0  0  0  0
 17  2  1  0  0  0  0
 18  8  1  6  0  0  0
 18 25  1  0  0  0  0
 18 19  1  0  0  0  0
 19  5  1  1  0  0  0
 20 15  1  6  0  0  0
 20 16  1  0  0  0  0
 21 13  2  0  0  0  0
 21  7  1  0  0  0  0
 22  6  1  0  0  0  0
 23 30  1  6  0  0  0
 23 28  1  0  0  0  0
 24  2  1  0  0  0  0
 25 27  1  0  0  0  0
 25 19  1  0  0  0  0
 26  8  2  0  0  0  0
 27 21  1  0  0  0  0
 28 15  1  0  0  0  0
 30 29  2  0  0  0  0
 31 30  1  0  0  0  0
 32 34  1  0  0  0  0
 33 35  2  0  0  0  0
 34 31  2  0  0  0  0
 34 33  1  0  0  0  0
 35 29  1  0  0  0  0
 37 36  1  0  0  0  0
M  END
>  <MODEL>
1

>  <REMARK>
 VINA RESULT:      -9.3      0.000      0.000
  Name = 
  2 active torsions:
  status: ('A' for Active; 'I' for Inactive)
    1  A    between atoms: C_4  and  C_37
    2  A    between atoms: C_23  and  C_30
                            x       y       z     vdW  Elec       q    Type
                         _______ _______ _______ _____ _____    ______ ____

>  <TORSDO>
F 2

$$$$
=
 OpenBabel11112417253D

 37 44  0  0  1  0  0  0  0  0999 V2000
  191.0870  173.5130  141.1330 C   0  0  0  0  0  2  0  0  0  0  0  0
  195.0700  174.1030  142.9590 C   0  0  0  0  0  0  0  0  0  0  0  0
  191.8780  175.9340  145.0480 C   0  0  0  0  0  0  0  0  0  0  0  0
  190.8080  173.2800  139.6450 C   0  0  2  0  0  3  0  0  0  0  0  0
  188.4630  175.2410  143.7680 C   0  0  0  0  0  3  0  0  0  0  0  0
  194.2320  175.2590  145.0160 C   0  0  0  0  0  0  0  0  0  0  0  0
  190.8820  175.7370  144.1670 C   0  0  0  0  0  0  0  0  0  0  0  0
  188.4160  173.5190  140.3530 C   0  0  0  0  0  0  0  0  0  0  0  0
  193.1010  175.5500  144.4080 C   0  0  0  0  0  0  0  0  0  0  0  0
  189.4090  175.8680  144.4970 C   0  0  0  0  0  0  0  0  0  0  0  0
  194.3200  175.4090  146.5130 C   0  0  0  0  0  2  0  0  0  0  0  0
  189.3930  173.6910  139.2320 C   0  0  0  0  0  2  0  0  0  0  0  0
  192.8340  175.2100  143.0560 C   0  0  0  0  0  0  0  0  0  0  0  0
  194.7310  172.6360  143.1560 C   0  0  0  0  0  1  0  0  0  0  0  0
  191.0500  177.4690  146.9110 C   0  0  0  0  0  2  0  0  0  0  0  0
  193.2750  176.4030  147.0730 C   0  0  0  0  0  2  0  0  0  0  0  0
  193.9340  174.7710  142.1420 C   0  0  0  0  0  2  0  0  0  0  0  0
  188.1790  174.6450  141.3150 C   0  0  1  0  0  3  0  0  0  0  0  0
  188.8360  174.4260  142.5930 C   0  0  1  0  0  3  0  0  0  0  0  0
  191.8370  176.2080  146.5330 C   0  0  2  0  0  3  0  0  0  0  0  0
  191.5210  175.3010  142.8640 C   0  0  0  0  0  0  0  0  0  0  0  0
  195.2790  174.7150  144.2540 O   0  0  0  0  0  0  0  0  0  0  0  0
  188.9780  176.6290  145.7430 C   0  0  1  0  0  3  0  0  0  0  0  0
  196.3550  174.1890  142.1630 C   0  0  0  0  0  1  0  0  0  0  0  0
  189.4150  175.4040  141.6470 N   0  0  1  0  0  0  0  0  0  0  0  0
  187.8170  172.4640  140.4840 O   0  0  0  0  0  0  0  0  0  0  0  0
  190.8240  174.9700  141.5570 C   0  0  2  0  0  3  0  0  0  0  0  0
  189.8820  177.8270  145.9990 C   0  0  0  0  0  2  0  0  0  0  0  0
  186.6150  176.4160  146.5470 C   0  0  0  0  0  3  0  0  0  0  0  0
  187.5410  177.0760  145.7320 C   0  0  0  0  0  0  0  0  0  0  0  0
  187.1140  178.1330  144.9120 C   0  0  0  0  0  3  0  0  0  0  0  0
  185.2440  179.8390  143.8880 Cl  0  0  0  0  0  0  0  0  0  0  0  0
  184.8510  177.8600  145.7290 C   0  0  0  0  0  3  0  0  0  0  0  0
  185.7710  178.5220  144.9120 C   0  0  0  0  0  0  0  0  0  0  0  0
  185.2720  176.8070  146.5460 C   0  0  0  0  0  3  0  0  0  0  0  0
  191.1980  170.9900  140.5570 C   0  0  0  0  0  1  0  0  0  0  0  0
  191.0370  171.8190  139.2950 C   0  0  0  0  0  2  0  0  0  0  0  0
  1 27  1  0  0  0  0
  2 14  1  0  0  0  0
  2 22  1  0  0  0  0
  3 20  1  0  0  0  0
  4 37  1  1  0  0  0
  4  1  1  0  0  0  0
  5 10  2  0  0  0  0
  6 11  1  0  0  0  0
  7 10  1  0  0  0  0
  7  3  2  0  0  0  0
  8 26  2  0  0  0  0
  9  6  2  0  0  0  0
  9  3  1  0  0  0  0
 10 23  1  0  0  0  0
 11 16  1  0  0  0  0
 12  4  1  0  0  0  0
 12  8  1  0  0  0  0
 13  9  1  0  0  0  0
 17  2  1  0  0  0  0
 17 13  1  0  0  0  0
 18  8  1  6  0  0  0
 18 25  1  0  0  0  0
 18 19  1  0  0  0  0
 19  5  1  1  0  0  0
 20 15  1  6  0  0  0
 20 16  1  0  0  0  0
 21 13  2  0  0  0  0
 21  7  1  0  0  0  0
 22  6  1  0  0  0  0
 23 30  1  6  0  0  0
 23 28  1  0  0  0  0
 24  2  1  0  0  0  0
 25 19  1  0  0  0  0
 27 25  1  0  0  0  0
 27 21  1  0  0  0  0
 28 15  1  0  0  0  0
 30 29  2  0  0  0  0
 31 30  1  0  0  0  0
 32 34  1  0  0  0  0
 33 35  2  0  0  0  0
 34 31  2  0  0  0  0
 34 33  1  0  0  0  0
 35 29  1  0  0  0  0
 37 36  1  0  0  0  0
M  END
>  <MODEL>
2

>  <REMARK>
 VINA RESULT:      -9.2      1.535      1.950
  Name = 
  2 active torsions:
  status: ('A' for Active; 'I' for Inactive)
    1  A    between atoms: C_4  and  C_37
    2  A    between atoms: C_23  and  C_30
                            x       y       z     vdW  Elec       q    Type
                         _______ _______ _______ _____ _____    ______ ____

>  <TORSDO>
F 2

$$$$
=
 OpenBabel11112417253D

 37 44  0  0  1  0  0  0  0  0999 V2000
  190.0400  174.6670  143.3640 C   0  0  0  0  0  2  0  0  0  0  0  0
  191.2230  176.5420  147.1890 C   0  0  0  0  0  0  0  0  0  0  0  0
  187.5480  177.9180  145.6070 C   0  0  0  0  0  0  0  0  0  0  0  0
  190.9940  174.0890  142.3150 C   0  0  2  0  0  3  0  0  0  0  0  0
  186.3160  176.1880  142.5630 C   0  0  0  0  0  3  0  0  0  0  0  0
  189.1020  177.8380  147.4970 C   0  0  0  0  0  0  0  0  0  0  0  0
  187.5750  177.3210  144.4040 C   0  0  0  0  0  0  0  0  0  0  0  0
  188.9030  173.8780  140.9500 C   0  0  0  0  0  0  0  0  0  0  0  0
  188.8310  177.7240  146.2140 C   0  0  0  0  0  0  0  0  0  0  0  0
  186.3680  177.1540  143.5030 C   0  0  0  0  0  0  0  0  0  0  0  0
  188.0180  178.2920  148.4400 C   0  0  0  0  0  2  0  0  0  0  0  0
  190.3890  174.0590  140.9100 C   0  0  0  0  0  2  0  0  0  0  0  0
  189.6910  177.0750  145.2910 C   0  0  0  0  0  0  0  0  0  0  0  0
  190.8670  175.1030  147.5200 C   0  0  0  0  0  1  0  0  0  0  0  0
  185.5780  179.5400  145.6860 C   0  0  0  0  0  2  0  0  0  0  0  0
  186.9060  179.0940  147.7240 C   0  0  0  0  0  2  0  0  0  0  0  0
  191.1030  176.7450  145.6570 C   0  0  0  0  0  2  0  0  0  0  0  0
  188.0070  175.0770  141.0260 C   0  0  1  0  0  3  0  0  0  0  0  0
  187.4610  175.2750  142.3580 C   0  0  1  0  0  3  0  0  0  0  0  0
  186.3880  178.4570  146.4110 C   0  0  2  0  0  3  0  0  0  0  0  0
  188.9860  176.8070  144.1950 C   0  0  0  0  0  0  0  0  0  0  0  0
  190.3670  177.4250  147.9510 O   0  0  0  0  0  0  0  0  0  0  0  0
  185.1340  178.0150  143.7270 C   0  0  1  0  0  3  0  0  0  0  0  0
  192.6610  176.7800  147.5990 C   0  0  0  0  0  1  0  0  0  0  0  0
  188.5480  176.1620  141.8890 N   0  0  1  0  0  0  0  0  0  0  0  0
  188.4250  172.7550  140.9240 O   0  0  0  0  0  0  0  0  0  0  0  0
  189.5320  176.0710  142.9860 C   0  0  2  0  0  3  0  0  0  0  0  0
  185.5130  179.4220  144.1670 C   0  0  0  0  0  2  0  0  0  0  0  0
  184.7360  177.9710  141.2530 C   0  0  0  0  0  3  0  0  0  0  0  0
  184.2070  178.0910  142.5430 C   0  0  0  0  0  0  0  0  0  0  0  0
  182.8270  178.2910  142.7110 C   0  0  0  0  0  3  0  0  0  0  0  0
  180.2700  178.6190  141.8090 Cl  0  0  0  0  0  0  0  0  0  0  0  0
  182.5230  178.2470  140.3090 C   0  0  0  0  0  3  0  0  0  0  0  0
  181.9890  178.3690  141.5950 C   0  0  0  0  0  0  0  0  0  0  0  0
  183.8960  178.0480  140.1380 C   0  0  0  0  0  3  0  0  0  0  0  0
  190.5960  172.1960  143.8910 C   0  0  0  0  0  1  0  0  0  0  0  0
  191.4220  172.6870  142.7160 C   0  0  0  0  0  2  0  0  0  0  0  0
  2 14  1  0  0  0  0
  2 24  1  0  0  0  0
  2 22  1  0  0  0  0
  3  9  1  0  0  0  0
  3 20  1  0  0  0  0
  4 37  1  1  0  0  0
  4  1  1  0  0  0  0
  5 10  2  0  0  0  0
  6 22  1  0  0  0  0
  6 11  1  0  0  0  0
  7  3  2  0  0  0  0
  9  6  2  0  0  0  0
 10 23  1  0  0  0  0
 10  7  1  0  0  0  0
 12  8  1  0  0  0  0
 12  4  1  0  0  0  0
 13 17  1  0  0  0  0
 13  9  1  0  0  0  0
 16 11  1  0  0  0  0
 17  2  1  0  0  0  0
 18  8  1  1  0  0  0
 18 25  1  0  0  0  0
 18 19  1  0  0  0  0
 19  5  1  6  0  0  0
 20 15  1  6  0  0  0
 20 16  1  0  0  0  0
 21  7  1  0  0  0  0
 21 13  2  0  0  0  0
 23 30  1  6  0  0  0
 23 28  1  0  0  0  0
 25 19  1  0  0  0  0
 25 27  1  0  0  0  0
 26  8  2  0  0  0  0
 27  1  1  0  0  0  0
 27 21  1  0  0  0  0
 28 15  1  0  0  0  0
 29 30  1  0  0  0  0
 30 31  2  0  0  0  0
 33 34  2  0  0  0  0
 34 32  1  0  0  0  0
 34 31  1  0  0  0  0
 35 33  1  0  0  0  0
 35 29  2  0  0  0  0
 37 36  1  0  0  0  0
M  END
>  <MODEL>
3

>  <REMARK>
 VINA RESULT:      -9.1      2.020      3.505
  Name = 
  2 active torsions:
  status: ('A' for Active; 'I' for Inactive)
    1  A    between atoms: C_4  and  C_37
    2  A    between atoms: C_23  and  C_30
                            x       y       z     vdW  Elec       q    Type
                         _______ _______ _______ _____ _____    ______ ____

>  <TORSDO>
F 2

$$$$
=
 OpenBabel11112417253D

 37 44  0  0  1  0  0  0  0  0999 V2000
  194.3420  174.8250  143.7180 C   0  0  0  0  0  2  0  0  0  0  0  0
  193.9200  172.1050  140.2580 C   0  0  0  0  0  0  0  0  0  0  0  0
  190.3440  174.0380  141.4350 C   0  0  0  0  0  0  0  0  0  0  0  0
  195.3820  174.7010  144.8360 C   0  0  2  0  0  3  0  0  0  0  0  0
  190.6540  176.5720  144.1300 C   0  0  0  0  0  3  0  0  0  0  0  0
  191.5330  172.6870  139.7740 C   0  0  1  0  0  3  0  0  0  0  0  0
  190.7570  174.6130  142.5770 C   0  0  2  0  0  3  0  0  0  0  0  0
  194.0540  176.5510  145.8820 C   0  0  0  0  0  0  0  0  0  0  0  0
  191.3870  173.1590  140.9940 C   0  0  0  0  0  0  0  0  0  0  0  0
  190.0200  175.7290  143.2890 C   0  0  0  0  0  0  0  0  0  0  0  0
  190.4910  173.0060  138.7340 C   0  0  0  0  0  2  0  0  0  0  0  0
  194.9410  175.3720  146.1380 C   0  0  0  0  0  2  0  0  0  0  0  0
  192.4180  173.1310  141.9690 C   0  0  0  0  0  0  0  0  0  0  0  0
  194.7310  173.2900  139.7640 C   0  0  0  0  0  1  0  0  0  0  0  0
  187.8170  174.3260  141.2250 C   0  0  0  0  0  2  0  0  0  0  0  0
  189.1200  173.3640  139.3570 C   0  0  0  0  0  2  0  0  0  0  0  0
  193.6390  172.2900  141.7720 C   0  0  0  0  0  2  0  0  0  0  0  0
  192.5700  176.3620  145.7850 C   0  0  1  0  0  3  0  0  0  0  0  0
  192.0960  176.4080  144.4120 C   0  0  1  0  0  3  0  0  0  0  0  0
  189.1830  174.3730  140.5290 C   0  0  2  0  0  3  0  0  0  0  0  0
  192.0920  173.9880  142.9320 C   0  0  0  0  0  0  0  0  0  0  0  0
  192.7160  171.9960  139.4630 O   0  0  0  0  0  0  0  0  0  0  0  0
  188.5540  175.9880  142.9720 C   0  0  1  0  0  3  0  0  0  0  0  0
  194.7480  170.8520  140.0690 C   0  0  0  0  0  1  0  0  0  0  0  0
  192.1830  175.1010  145.0960 N   0  0  1  0  0  0  0  0  0  0  0  0
  194.5400  177.6630  145.7490 O   0  0  0  0  0  0  0  0  0  0  0  0
  192.9610  174.2880  144.1390 C   0  0  2  0  0  3  0  0  0  0  0  0
  187.8070  174.6890  142.7060 C   0  0  0  0  0  2  0  0  0  0  0  0
  187.8380  176.3380  145.3480 C   0  0  0  0  0  3  0  0  0  0  0  0
  187.8230  176.7830  144.0210 C   0  0  0  0  0  0  0  0  0  0  0  0
  187.1200  177.9520  143.6900 C   0  0  0  0  0  3  0  0  0  0  0  0
  185.5630  180.1220  144.2630 Cl  0  0  0  0  0  0  0  0  0  0  0  0
  186.4600  178.2180  146.0050 C   0  0  0  0  0  3  0  0  0  0  0  0
  186.4400  178.6660  144.6810 C   0  0  0  0  0  0  0  0  0  0  0  0
  187.1580  177.0540  146.3380 C   0  0  0  0  0  3  0  0  0  0  0  0
  196.5100  176.1500  143.1470 C   0  0  0  0  0  1  0  0  0  0  0  0
  196.7070  175.2900  144.3810 C   0  0  0  0  0  2  0  0  0  0  0  0
  1 27  1  0  0  0  0
  1  4  1  0  0  0  0
  2 17  1  0  0  0  0
  4 37  1  6  0  0  0
  4 12  1  0  0  0  0
  6 11  1  6  0  0  0
  6  9  1  0  0  0  0
  7  3  1  6  0  0  0
  7 21  1  0  0  0  0
  7 10  1  0  0  0  0
  8 12  1  0  0  0  0
  9  3  2  0  0  0  0
  9 13  1  0  0  0  0
 10  5  2  0  0  0  0
 11 16  1  0  0  0  0
 13 21  2  0  0  0  0
 14  2  1  0  0  0  0
 15 28  1  0  0  0  0
 17 13  1  0  0  0  0
 18  8  1  6  0  0  0
 19  5  1  1  0  0  0
 19 25  1  0  0  0  0
 19 18  1  0  0  0  0
 20 16  1  6  0  0  0
 20 15  1  0  0  0  0
 20  3  1  0  0  0  0
 21 27  1  0  0  0  0
 22  6  1  0  0  0  0
 22  2  1  0  0  0  0
 23 10  1  0  0  0  0
 23 30  1  1  0  0  0
 24  2  1  0  0  0  0
 25 18  1  0  0  0  0
 26  8  2  0  0  0  0
 27 25  1  0  0  0  0
 28 23  1  0  0  0  0
 29 35  1  0  0  0  0
 30 29  2  0  0  0  0
 31 30  1  0  0  0  0
 31 34  2  0  0  0  0
 32 34  1  0  0  0  0
 33 35  2  0  0  0  0
 34 33  1  0  0  0  0
 36 37  1  0  0  0  0
M  END
>  <MODEL>
4

>  <REMARK>
 VINA RESULT:      -8.9      2.261      5.613
  Name = 
  2 active torsions:
  status: ('A' for Active; 'I' for Inactive)
    1  A    between atoms: C_4  and  C_37
    2  A    between atoms: C_23  and  C_30
                            x       y       z     vdW  Elec       q    Type
                         _______ _______ _______ _____ _____    ______ ____

>  <TORSDO>
F 2

$$$$
=
 OpenBabel11112417253D

 37 44  0  0  1  0  0  0  0  0999 V2000
  189.7120  173.7920  140.5170 C   0  0  0  0  0  2  0  0  0  0  0  0
  187.1800  176.7570  142.6000 C   0  0  0  0  0  0  0  0  0  0  0  0
  190.6230  175.5540  144.7440 C   0  0  0  0  0  0  0  0  0  0  0  0
  189.2300  172.7690  139.4830 C   0  0  2  0  0  3  0  0  0  0  0  0
  192.9720  173.3040  142.9560 C   0  0  0  0  0  3  0  0  0  0  0  0
  188.7360  177.1000  144.5320 C   0  0  0  0  0  0  0  0  0  0  0  0
  191.0490  174.5530  143.9560 C   0  0  0  0  0  0  0  0  0  0  0  0
  191.5680  171.8900  139.6910 C   0  0  0  0  0  0  0  0  0  0  0  0
  189.3310  175.9550  144.2720 C   0  0  0  0  0  0  0  0  0  0  0  0
  192.4380  173.9500  144.0130 C   0  0  0  0  0  0  0  0  0  0  0  0
  189.3980  178.0760  145.4700 C   0  0  0  0  0  2  0  0  0  0  0  0
  190.1440  171.5450  139.3850 C   0  0  0  0  0  2  0  0  0  0  0  0
  188.9260  175.0860  143.2250 C   0  0  0  0  0  0  0  0  0  0  0  0
  187.8160  177.4940  141.4350 C   0  0  0  0  0  1  0  0  0  0  0  0
  192.0080  175.5710  146.8890 C   0  0  0  0  0  2  0  0  0  0  0  0
  190.3940  177.3890  146.4340 C   0  0  0  0  0  2  0  0  0  0  0  0
  187.6080  175.2680  142.5420 C   0  0  0  0  0  2  0  0  0  0  0  0
  192.0660  171.8200  141.1040 C   0  0  1  0  0  3  0  0  0  0  0  0
  192.1980  173.1350  141.7080 C   0  0  1  0  0  3  0  0  0  0  0  0
  191.3660  176.3890  145.7610 C   0  0  2  0  0  3  0  0  0  0  0  0
  189.9210  174.2340  142.9950 C   0  0  0  0  0  0  0  0  0  0  0  0
  187.5580  177.4130  143.8330 O   0  0  0  0  0  0  0  0  0  0  0  0
  193.3050  174.1650  145.2450 C   0  0  1  0  0  3  0  0  0  0  0  0
  185.6760  176.8340  142.4450 C   0  0  0  0  0  1  0  0  0  0  0  0
  191.0620  172.2760  142.1030 N   0  0  1  0  0  0  0  0  0  0  0  0
  192.3210  172.2300  138.7920 O   0  0  0  0  0  0  0  0  0  0  0  0
  189.9010  173.1700  141.9130 C   0  0  2  0  0  3  0  0  0  0  0  0
  192.4680  174.1660  146.5170 C   0  0  0  0  0  2  0  0  0  0  0  0
  195.7530  173.6320  145.2500 C   0  0  0  0  0  3  0  0  0  0  0  0
  194.4360  173.1820  145.3880 C   0  0  0  0  0  0  0  0  0  0  0  0
  194.1910  171.8230  145.6450 C   0  0  0  0  0  3  0  0  0  0  0  0
  194.9480  169.2360  146.0820 Cl  0  0  0  0  0  0  0  0  0  0  0  0
  196.5720  171.3840  145.6260 C   0  0  0  0  0  3  0  0  0  0  0  0
  195.2590  170.9280  145.7630 C   0  0  0  0  0  0  0  0  0  0  0  0
  196.8200  172.7360  145.3690 C   0  0  0  0  0  3  0  0  0  0  0  0
  188.0780  174.5390  138.1560 C   0  0  0  0  0  1  0  0  0  0  0  0
  189.1090  173.4260  138.1180 C   0  0  0  0  0  2  0  0  0  0  0  0
  1 27  1  0  0  0  0
  2 22  1  0  0  0  0
  3 20  1  0  0  0  0
  4 37  1  6  0  0  0
  4  1  1  0  0  0  0
  5 10  2  0  0  0  0
  6 11  1  0  0  0  0
  7 10  1  0  0  0  0
  7  3  2  0  0  0  0
  9  6  2  0  0  0  0
  9  3  1  0  0  0  0
 10 23  1  0  0  0  0
 11 16  1  0  0  0  0
 12  4  1  0  0  0  0
 12  8  1  0  0  0  0
 13  9  1  0  0  0  0
 14  2  1  0  0  0  0
 17  2  1  0  0  0  0
 17 13  1  0  0  0  0
 18  8  1  6  0  0  0
 18 19  1  0  0  0  0
 18 25  1  0  0  0  0
 19 25  1  0  0  0  0
 19  5  1  1  0  0  0
 20 16  1  1  0  0  0
 20 15  1  0  0  0  0
 21 13  2  0  0  0  0
 21  7  1  0  0  0  0
 22  6  1  0  0  0  0
 23 30  1  1  0  0  0
 23 28  1  0  0  0  0
 24  2  1  0  0  0  0
 26  8  2  0  0  0  0
 27 25  1  0  0  0  0
 27 21  1  0  0  0  0
 28 15  1  0  0  0  0
 29 35  2  0  0  0  0
 29 30  1  0  0  0  0
 30 31  2  0  0  0  0
 31 34  1  0  0  0  0
 33 34  2  0  0  0  0
 34 32  1  0  0  0  0
 35 33  1  0  0  0  0
 37 36  1  0  0  0  0
M  END
>  <MODEL>
5

>  <REMARK>
 VINA RESULT:      -8.7      3.142      6.962
  Name = 
  2 active torsions:
  status: ('A' for Active; 'I' for Inactive)
    1  A    between atoms: C_4  and  C_37
    2  A    between atoms: C_23  and  C_30
                            x       y       z     vdW  Elec       q    Type
                         _______ _______ _______ _____ _____    ______ ____

>  <TORSDO>
F 2

$$$$
=
 OpenBabel11112417253D

 37 44  0  0  1  0  0  0  0  0999 V2000
  194.1880  174.3090  144.0830 C   0  0  0  0  0  2  0  0  0  0  0  0
  194.1420  170.8390  141.3450 C   0  0  0  0  0  0  0  0  0  0  0  0
  190.5670  173.1020  141.3920 C   0  0  0  0  0  0  0  0  0  0  0  0
  195.0220  174.4330  145.3610 C   0  0  2  0  0  3  0  0  0  0  0  0
  190.6130  176.2080  143.4230 C   0  0  0  0  0  3  0  0  0  0  0  0
  191.9110  171.3520  140.3290 C   0  0  1  0  0  3  0  0  0  0  0  0
  190.8290  173.9270  142.4190 C   0  0  2  0  0  3  0  0  0  0  0  0
  193.6760  176.5200  145.6930 C   0  0  0  0  0  0  0  0  0  0  0  0
  191.6030  172.1130  141.3590 C   0  0  0  0  0  0  0  0  0  0  0  0
  190.0660  175.2040  142.7080 C   0  0  0  0  0  0  0  0  0  0  0  0
  191.0750  171.4360  139.0780 C   0  0  0  0  0  2  0  0  0  0  0  0
  194.4250  175.4150  146.3710 C   0  0  0  0  0  2  0  0  0  0  0  0
  192.4590  172.2950  142.4760 C   0  0  0  0  0  0  0  0  0  0  0  0
  195.1030  171.8430  140.7330 C   0  0  0  0  0  1  0  0  0  0  0  0
  188.1330  173.4020  140.6840 C   0  0  0  0  0  2  0  0  0  0  0  0
  189.6510  171.9750  139.3510 C   0  0  0  0  0  2  0  0  0  0  0  0
  193.6330  171.3970  142.6990 C   0  0  0  0  0  2  0  0  0  0  0  0
  192.2170  176.3550  145.3880 C   0  0  1  0  0  3  0  0  0  0  0  0
  191.9750  176.0780  143.9820 C   0  0  1  0  0  3  0  0  0  0  0  0
  189.5940  173.2380  140.2450 C   0  0  2  0  0  3  0  0  0  0  0  0
  192.0420  173.3700  143.1390 C   0  0  0  0  0  0  0  0  0  0  0  0
  193.0770  170.5720  140.4010 O   0  0  0  0  0  0  0  0  0  0  0  0
  188.6930  175.4200  142.0890 C   0  0  1  0  0  3  0  0  0  0  0  0
  194.9000  169.5540  141.6040 C   0  0  0  0  0  1  0  0  0  0  0  0
  191.8590  174.9760  144.9600 N   0  0  1  0  0  0  0  0  0  0  0  0
  194.2530  177.5510  145.3880 O   0  0  0  0  0  0  0  0  0  0  0  0
  192.7230  173.9320  144.3720 C   0  0  2  0  0  3  0  0  0  0  0  0
  187.9100  174.1160  142.0120 C   0  0  0  0  0  2  0  0  0  0  0  0
  187.5990  177.6740  142.1190 C   0  0  0  0  0  3  0  0  0  0  0  0
  187.8590  176.4670  142.7770 C   0  0  0  0  0  0  0  0  0  0  0  0
  187.3480  176.2590  144.0690 C   0  0  0  0  0  3  0  0  0  0  0  0
  185.9540  176.9870  146.3010 Cl  0  0  0  0  0  0  0  0  0  0  0  0
  186.3280  178.4540  144.0270 C   0  0  0  0  0  3  0  0  0  0  0  0
  186.5860  177.2510  144.6910 C   0  0  0  0  0  0  0  0  0  0  0  0
  186.8350  178.6660  142.7420 C   0  0  0  0  0  3  0  0  0  0  0  0
  196.5400  175.2430  143.5540 C   0  0  0  0  0  1  0  0  0  0  0  0
  196.4420  174.8540  145.0180 C   0  0  0  0  0  2  0  0  0  0  0  0
  1 27  1  0  0  0  0
  1  4  1  0  0  0  0
  2 24  1  0  0  0  0
  2 17  1  0  0  0  0
  4 37  1  6  0  0  0
  4 12  1  0  0  0  0
  6 11  1  6  0  0  0
  6 22  1  0  0  0  0
  6  9  1  0  0  0  0
  7  3  1  6  0  0  0
  7 10  1  0  0  0  0
  7 21  1  0  0  0  0
  8 12  1  0  0  0  0
  9  3  2  0  0  0  0
  9 13  1  0  0  0  0
 10  5  2  0  0  0  0
 11 16  1  0  0  0  0
 13 17  1  0  0  0  0
 13 21  2  0  0  0  0
 14  2  1  0  0  0  0
 15 28  1  0  0  0  0
 18  8  1  6  0  0  0
 19  5  1  1  0  0  0
 19 25  1  0  0  0  0
 19 18  1  0  0  0  0
 20 16  1  6  0  0  0
 20 15  1  0  0  0  0
 20  3  1  0  0  0  0
 21 27  1  0  0  0  0
 22  2  1  0  0  0  0
 23 10  1  0  0  0  0
 23 30  1  1  0  0  0
 25 18  1  0  0  0  0
 26  8  2  0  0  0  0
 27 25  1  0  0  0  0
 28 23  1  0  0  0  0
 29 35  2  0  0  0  0
 29 30  1  0  0  0  0
 30 31  2  0  0  0  0
 31 34  1  0  0  0  0
 33 34  2  0  0  0  0
 34 32  1  0  0  0  0
 35 33  1  0  0  0  0
 36 37  1  0  0  0  0
M  END
>  <MODEL>
6

>  <REMARK>
 VINA RESULT:      -8.5      2.384      5.646
  Name = 
  2 active torsions:
  status: ('A' for Active; 'I' for Inactive)
    1  A    between atoms: C_4  and  C_37
    2  A    between atoms: C_23  and  C_30
                            x       y       z     vdW  Elec       q    Type
                         _______ _______ _______ _____ _____    ______ ____

>  <TORSDO>
F 2

$$$$
=
 OpenBabel11112417253D

 37 44  0  0  1  0  0  0  0  0999 V2000
  192.1000  172.9280  140.5640 C   0  0  0  0  0  2  0  0  0  0  0  0
  196.2800  173.2110  141.9760 C   0  0  0  0  0  0  0  0  0  0  0  0
  193.4220  174.9830  144.5440 C   0  0  0  0  0  0  0  0  0  0  0  0
  191.6510  172.8290  139.1030 C   0  0  2  0  0  3  0  0  0  0  0  0
  189.8600  174.5290  143.6030 C   0  0  0  0  0  3  0  0  0  0  0  0
  195.7240  174.2240  144.1980 C   0  0  1  0  0  3  0  0  0  0  0  0
  192.3280  174.8980  143.7680 C   0  0  2  0  0  3  0  0  0  0  0  0
  189.3640  173.1000  140.0900 C   0  0  0  0  0  0  0  0  0  0  0  0
  194.5490  174.6070  143.7430 C   0  0  0  0  0  0  0  0  0  0  0  0
  190.9080  175.0570  144.2690 C   0  0  0  0  0  0  0  0  0  0  0  0
  195.9800  174.2450  145.6820 C   0  0  0  0  0  2  0  0  0  0  0  0
  190.2210  173.3270  138.8830 C   0  0  0  0  0  2  0  0  0  0  0  0
  194.1230  174.3910  142.4070 C   0  0  0  0  0  0  0  0  0  0  0  0
  195.8960  171.7470  142.0940 C   0  0  0  0  0  1  0  0  0  0  0  0
  192.8730  176.3890  146.6020 C   0  0  0  0  0  2  0  0  0  0  0  0
  195.0500  175.2290  146.4310 C   0  0  0  0  0  2  0  0  0  0  0  0
  195.0950  173.9880  141.3460 C   0  0  0  0  0  2  0  0  0  0  0  0
  189.2850  174.1500  141.1570 C   0  0  1  0  0  3  0  0  0  0  0  0
  190.0650  173.8020  142.3330 C   0  0  1  0  0  3  0  0  0  0  0  0
  193.5550  175.1350  146.0410 C   0  0  2  0  0  3  0  0  0  0  0  0
  192.8020  174.5470  142.3700 C   0  0  0  0  0  0  0  0  0  0  0  0
  196.6560  173.7050  143.2830 O   0  0  0  0  0  0  0  0  0  0  0  0
  190.6500  175.7280  145.6100 C   0  0  1  0  0  3  0  0  0  0  0  0
  197.4740  173.3140  141.0510 C   0  0  0  0  0  1  0  0  0  0  0  0
  190.5840  174.8320  141.4080 N   0  0  1  0  0  0  0  0  0  0  0  0
  188.7330  172.0620  140.2030 O   0  0  0  0  0  0  0  0  0  0  0  0
  191.9530  174.3530  141.1280 C   0  0  2  0  0  3  0  0  0  0  0  0
  191.6320  176.8660  145.8570 C   0  0  0  0  0  2  0  0  0  0  0  0
  188.4910  175.7670  146.8800 C   0  0  0  0  0  3  0  0  0  0  0  0
  189.2430  176.2290  145.7940 C   0  0  0  0  0  0  0  0  0  0  0  0
  188.6700  177.1400  144.8920 C   0  0  0  0  0  3  0  0  0  0  0  0
  186.6480  178.7160  143.9500 Cl  0  0  0  0  0  0  0  0  0  0  0  0
  186.6120  177.1180  146.1660 C   0  0  0  0  0  3  0  0  0  0  0  0
  187.3580  177.5820  145.0790 C   0  0  0  0  0  0  0  0  0  0  0  0
  187.1780  176.2110  147.0660 C   0  0  0  0  0  3  0  0  0  0  0  0
  191.2460  171.2690  137.1980 C   0  0  0  0  0  1  0  0  0  0  0  0
  191.7720  171.3940  138.6170 C   0  0  0  0  0  2  0  0  0  0  0  0
  1 27  1  0  0  0  0
  2 14  1  0  0  0  0
  2 22  1  0  0  0  0
  3 20  1  0  0  0  0
  4 37  1  1  0  0  0
  4  1  1  0  0  0  0
  5 10  2  0  0  0  0
  6 11  1  1  0  0  0
  7 21  1  1  0  0  0
  7 10  1  0  0  0  0
  7  3  1  0  0  0  0
  8 26  2  0  0  0  0
  9  6  1  0  0  0  0
  9  3  2  0  0  0  0
 10 23  1  0  0  0  0
 11 16  1  0  0  0  0
 12  4  1  0  0  0  0
 12  8  1  0  0  0  0
 13  9  1  0  0  0  0
 17  2  1  0  0  0  0
 17 13  1  0  0  0  0
 18  8  1  6  0  0  0
 18 25  1  0  0  0  0
 18 19  1  0  0  0  0
 19  5  1  1  0  0  0
 20 16  1  6  0  0  0
 20 15  1  0  0  0  0
 21 13  2  0  0  0  0
 22  6  1  0  0  0  0
 23 30  1  6  0  0  0
 23 28  1  0  0  0  0
 24  2  1  0  0  0  0
 25 19  1  0  0  0  0
 27 25  1  0  0  0  0
 27 21  1  0  0  0  0
 28 15  1  0  0  0  0
 29 35  1  0  0  0  0
 30 29  2  0  0  0  0
 31 34  2  0  0  0  0
 31 30  1  0  0  0  0
 32 34  1  0  0  0  0
 33 35  2  0  0  0  0
 34 33  1  0  0  0  0
 36 37  1  0  0  0  0
M  END
>  <MODEL>
7

>  <REMARK>
 VINA RESULT:      -8.4      2.045      3.238
  Name = 
  2 active torsions:
  status: ('A' for Active; 'I' for Inactive)
    1  A    between atoms: C_4  and  C_37
    2  A    between atoms: C_23  and  C_30
                            x       y       z     vdW  Elec       q    Type
                         _______ _______ _______ _____ _____    ______ ____

>  <TORSDO>
F 2

$$$$
=
 OpenBabel11112417253D

 37 44  0  0  1  0  0  0  0  0999 V2000
  188.9700  174.6550  140.8360 C   0  0  0  0  0  2  0  0  0  0  0  0
  186.3680  177.1910  143.3560 C   0  0  0  0  0  0  0  0  0  0  0  0
  189.9640  175.9540  145.2100 C   0  0  0  0  0  0  0  0  0  0  0  0
  188.5020  173.7350  139.7050 C   0  0  2  0  0  3  0  0  0  0  0  0
  192.3560  174.0810  143.0770 C   0  0  0  0  0  3  0  0  0  0  0  0
  187.9860  177.3960  145.2560 C   0  0  0  0  0  0  0  0  0  0  0  0
  190.4110  175.0820  144.2910 C   0  0  0  0  0  0  0  0  0  0  0  0
  190.8920  172.9820  139.7190 C   0  0  0  0  0  0  0  0  0  0  0  0
  188.6320  176.3280  144.8380 C   0  0  0  0  0  0  0  0  0  0  0  0
  191.8330  174.5620  144.2240 C   0  0  0  0  0  0  0  0  0  0  0  0
  188.6320  178.2910  146.2820 C   0  0  0  0  0  2  0  0  0  0  0  0
  189.4780  172.5900  139.4250 C   0  0  0  0  0  2  0  0  0  0  0  0
  188.2320  175.5670  143.7090 C   0  0  0  0  0  0  0  0  0  0  0  0
  186.9100  178.0980  142.2660 C   0  0  0  0  0  1  0  0  0  0  0  0
  191.4380  175.8000  147.2890 C   0  0  0  0  0  2  0  0  0  0  0  0
  189.7070  177.5570  147.1180 C   0  0  0  0  0  2  0  0  0  0  0  0
  186.8770  175.7480  143.1020 C   0  0  0  0  0  2  0  0  0  0  0  0
  191.4540  172.7760  141.0930 C   0  0  1  0  0  3  0  0  0  0  0  0
  191.5390  174.0150  141.8470 C   0  0  1  0  0  3  0  0  0  0  0  0
  190.7030  176.7060  146.2930 C   0  0  2  0  0  3  0  0  0  0  0  0
  189.2620  174.8110  143.3400 C   0  0  0  0  0  0  0  0  0  0  0  0
  186.7620  177.7170  144.6450 O   0  0  0  0  0  0  0  0  0  0  0  0
  192.7390  174.6820  145.4400 C   0  0  1  0  0  3  0  0  0  0  0  0
  184.8570  177.1940  143.2660 C   0  0  0  0  0  1  0  0  0  0  0  0
  190.4710  173.0470  142.1770 N   0  0  1  0  0  0  0  0  0  0  0  0
  191.5840  173.4720  138.8410 O   0  0  0  0  0  0  0  0  0  0  0  0
  189.2550  173.8840  142.1390 C   0  0  2  0  0  3  0  0  0  0  0  0
  191.9600  174.4800  146.7330 C   0  0  0  0  0  2  0  0  0  0  0  0
  193.7310  172.3860  145.5980 C   0  0  0  0  0  3  0  0  0  0  0  0
  193.9290  173.7600  145.4210 C   0  0  0  0  0  0  0  0  0  0  0  0
  195.2310  174.2550  145.2400 C   0  0  0  0  0  3  0  0  0  0  0  0
  197.9410  174.0020  145.0130 Cl  0  0  0  0  0  0  0  0  0  0  0  0
  196.1160  172.0080  145.4130 C   0  0  0  0  0  3  0  0  0  0  0  0
  196.3200  173.3790  145.2370 C   0  0  0  0  0  0  0  0  0  0  0  0
  194.8220  171.5110  145.5930 C   0  0  0  0  0  3  0  0  0  0  0  0
  188.5670  173.6890  137.2110 C   0  0  0  0  0  1  0  0  0  0  0  0
  188.2840  174.5410  138.4350 C   0  0  0  0  0  2  0  0  0  0  0  0
  1 27  1  0  0  0  0
  2 22  1  0  0  0  0
  3 20  1  0  0  0  0
  4 37  1  6  0  0  0
  4  1  1  0  0  0  0
  5 10  2  0  0  0  0
  6 11  1  0  0  0  0
  7  3  2  0  0  0  0
  9  3  1  0  0  0  0
  9  6  2  0  0  0  0
 10  7  1  0  0  0  0
 10 23  1  0  0  0  0
 11 16  1  0  0  0  0
 12  4  1  0  0  0  0
 12  8  1  0  0  0  0
 13  9  1  0  0  0  0
 14  2  1  0  0  0  0
 17  2  1  0  0  0  0
 17 13  1  0  0  0  0
 18  8  1  6  0  0  0
 18 19  1  0  0  0  0
 18 25  1  0  0  0  0
 19 25  1  0  0  0  0
 19  5  1  1  0  0  0
 20 16  1  1  0  0  0
 20 15  1  0  0  0  0
 21 13  2  0  0  0  0
 21  7  1  0  0  0  0
 22  6  1  0  0  0  0
 23 30  1  6  0  0  0
 23 28  1  0  0  0  0
 24  2  1  0  0  0  0
 26  8  2  0  0  0  0
 27 25  1  0  0  0  0
 27 21  1  0  0  0  0
 28 15  1  0  0  0  0
 30 29  2  0  0  0  0
 31 30  1  0  0  0  0
 32 34  1  0  0  0  0
 33 35  2  0  0  0  0
 34 31  2  0  0  0  0
 34 33  1  0  0  0  0
 35 29  1  0  0  0  0
 36 37  1  0  0  0  0
M  END
>  <MODEL>
8

>  <REMARK>
 VINA RESULT:      -8.4      2.999      6.792
  Name = 
  2 active torsions:
  status: ('A' for Active; 'I' for Inactive)
    1  A    between atoms: C_4  and  C_37
    2  A    between atoms: C_23  and  C_30
                            x       y       z     vdW  Elec       q    Type
                         _______ _______ _______ _____ _____    ______ ____

>  <TORSDO>
F 2

$$$$
=
 OpenBabel11112417253D

 37 44  0  0  1  0  0  0  0  0999 V2000
  189.7320  176.2790  145.4660 C   0  0  0  0  0  2  0  0  0  0  0  0
  187.8110  175.9830  141.4950 C   0  0  0  0  0  0  0  0  0  0  0  0
  191.2800  173.6060  141.9630 C   0  0  0  0  0  0  0  0  0  0  0  0
  189.6730  177.4890  146.4040 C   0  0  2  0  0  3  0  0  0  0  0  0
  192.7890  173.5470  145.3540 C   0  0  0  0  0  3  0  0  0  0  0  0
  189.3020  174.1660  140.6320 C   0  0  1  0  0  3  0  0  0  0  0  0
  191.7090  174.0530  143.1550 C   0  0  2  0  0  3  0  0  0  0  0  0
  191.3520  176.1810  147.7260 C   0  0  0  0  0  0  0  0  0  0  0  0
  190.2060  174.4570  141.5440 C   0  0  0  0  0  0  0  0  0  0  0  0
  192.7260  173.3410  144.0220 C   0  0  0  0  0  0  0  0  0  0  0  0
  189.4130  172.8670  139.8760 C   0  0  0  0  0  2  0  0  0  0  0  0
  190.8530  177.5490  147.3760 C   0  0  0  0  0  2  0  0  0  0  0  0
  190.0590  175.5180  142.4750 C   0  0  0  0  0  0  0  0  0  0  0  0
  186.8680  175.3000  142.4700 C   0  0  0  0  0  1  0  0  0  0  0  0
  193.0580  172.0730  140.9620 C   0  0  0  0  0  2  0  0  0  0  0  0
  190.8560  172.3100  139.8620 C   0  0  0  0  0  2  0  0  0  0  0  0
  189.0090  176.5660  142.2880 C   0  0  0  0  0  2  0  0  0  0  0  0
  192.4160  175.5380  146.8880 C   0  0  1  0  0  3  0  0  0  0  0  0
  191.8800  174.5120  146.0090 C   0  0  1  0  0  3  0  0  0  0  0  0
  191.5680  172.3130  141.2370 C   0  0  2  0  0  3  0  0  0  0  0  0
  190.9310  175.3190  143.4610 C   0  0  0  0  0  0  0  0  0  0  0  0
  188.2060  175.0320  140.4790 O   0  0  0  0  0  0  0  0  0  0  0  0
  193.6300  172.2800  143.4100 C   0  0  1  0  0  3  0  0  0  0  0  0
  187.0650  177.1240  140.8360 C   0  0  0  0  0  1  0  0  0  0  0  0
  192.2670  175.8180  145.4340 N   0  0  1  0  0  0  0  0  0  0  0  0
  190.8920  175.5920  148.6910 O   0  0  0  0  0  0  0  0  0  0  0  0
  191.0570  176.2090  144.6830 C   0  0  2  0  0  3  0  0  0  0  0  0
  194.0290  172.6480  141.9870 C   0  0  0  0  0  2  0  0  0  0  0  0
  195.9970  172.7820  144.0600 C   0  0  0  0  0  3  0  0  0  0  0  0
  194.8640  171.9760  144.2160 C   0  0  0  0  0  0  0  0  0  0  0  0
  194.9010  170.8930  145.1090 C   0  0  0  0  0  3  0  0  0  0  0  0
  196.1040  169.2730  146.9490 Cl  0  0  0  0  0  0  0  0  0  0  0  0
  197.1910  171.4340  145.6800 C   0  0  0  0  0  3  0  0  0  0  0  0
  196.0630  170.6240  145.8380 C   0  0  0  0  0  0  0  0  0  0  0  0
  197.1580  172.5120  144.7910 C   0  0  0  0  0  3  0  0  0  0  0  0
  187.4050  176.4670  146.5930 C   0  0  0  0  0  1  0  0  0  0  0  0
  188.3690  177.4790  147.1840 C   0  0  0  0  0  2  0  0  0  0  0  0
  1  4  1  0  0  0  0
  2 17  1  0  0  0  0
  2 14  1  0  0  0  0
  4 37  1  1  0  0  0
  4 12  1  0  0  0  0
  6 11  1  1  0  0  0
  6  9  1  0  0  0  0
  7  3  1  1  0  0  0
  7 21  1  0  0  0  0
  7 10  1  0  0  0  0
  8 26  2  0  0  0  0
  9  3  2  0  0  0  0
  9 13  1  0  0  0  0
 10  5  2  0  0  0  0
 12  8  1  0  0  0  0
 13 21  2  0  0  0  0
 15 20  1  0  0  0  0
 15 28  1  0  0  0  0
 16 11  1  0  0  0  0
 17 13  1  0  0  0  0
 18  8  1  1  0  0  0
 19  5  1  6  0  0  0
 19 18  1  0  0  0  0
 20 16  1  6  0  0  0
 20  3  1  0  0  0  0
 21 27  1  0  0  0  0
 22  6  1  0  0  0  0
 22  2  1  0  0  0  0
 23 10  1  0  0  0  0
 23 30  1  1  0  0  0
 24  2  1  0  0  0  0
 25 19  1  0  0  0  0
 25 18  1  0  0  0  0
 27 25  1  0  0  0  0
 27  1  1  0  0  0  0
 28 23  1  0  0  0  0
 29 30  2  0  0  0  0
 29 35  1  0  0  0  0
 30 31  1  0  0  0  0
 31 34  2  0  0  0  0
 33 34  1  0  0  0  0
 34 32  1  0  0  0  0
 35 33  2  0  0  0  0
 36 37  1  0  0  0  0
M  END
>  <MODEL>
9

>  <REMARK>
 VINA RESULT:      -8.4      3.316      8.656
  Name = 
  2 active torsions:
  status: ('A' for Active; 'I' for Inactive)
    1  A    between atoms: C_4  and  C_37
    2  A    between atoms: C_23  and  C_30
                            x       y       z     vdW  Elec       q    Type
                         _______ _______ _______ _____ _____    ______ ____

>  <TORSDO>
F 2

$$$$
