=
 OpenBabel11112416333D

 32 39  0  0  1  0  0  0  0  0999 V2000
  192.2150  175.9600  144.0440 C   0  0  1  0  0  3  0  0  0  0  0  0
  188.1540  177.2230  144.1250 C   0  0  0  0  0  0  0  0  0  0  0  0
  185.7600  178.1670  148.2500 C   0  0  0  0  0  3  0  0  0  0  0  0
  184.5060  178.3330  147.4950 C   0  0  0  0  0  3  0  0  0  0  0  0
  186.9920  177.3150  141.9120 C   0  0  0  0  0  0  0  0  0  0  0  0
  185.7620  177.5980  141.2500 N   0  0  0  0  0  0  0  0  0  0  0  0
  190.2140  178.0900  144.2200 C   0  0  1  0  0  3  0  0  0  0  0  0
  189.3780  177.1100  146.3500 C   0  0  0  0  0  2  0  0  0  0  0  0
  183.6840  178.1910  140.9050 C   0  0  0  0  0  0  0  0  0  0  0  0
  191.5610  176.2150  145.4150 C   0  0  2  0  0  3  0  0  0  0  0  0
  186.8500  177.6520  147.6720 C   0  0  0  0  0  3  0  0  0  0  0  0
  188.1140  177.2700  145.5780 N   0  0  0  0  0  0  0  0  0  0  0  0
  186.8220  177.1210  146.2560 C   0  0  2  0  0  3  0  0  0  0  0  0
  185.7580  177.7810  144.1020 C   0  0  0  0  0  0  0  0  0  0  0  0
  184.1850  177.8660  139.6940 N   0  0  0  0  0  0  0  0  0  0  0  0
  191.9920  177.0040  142.9340 C   0  0  0  0  0  2  0  0  0  0  0  0
  190.6590  177.4590  145.5350 C   0  0  1  0  0  3  0  0  0  0  0  0
  185.4690  177.5040  139.9380 C   0  0  0  0  0  3  0  0  0  0  0  0
  190.6190  177.6820  142.8610 C   0  0  1  0  0  3  0  0  0  0  0  0
  192.9980  176.6190  145.1650 C   0  0  1  0  0  3  0  0  0  0  0  0
  184.4690  178.1360  146.1760 C   0  0  0  0  0  3  0  0  0  0  0  0
  185.6870  177.7170  145.4470 C   0  0  0  0  0  0  0  0  0  0  0  0
  184.5770  178.3320  143.3230 C   0  0  0  0  0  2  0  0  0  0  0  0
  189.4920  176.9040  143.5420 C   0  0  2  0  0  3  0  0  0  0  0  0
  187.9980  176.9620  141.2390 O   0  0  0  0  0  0  0  0  0  0  0  0
  182.2950  178.6770  141.1280 C   0  0  0  0  0  1  0  0  0  0  0  0
  187.0330  177.4240  143.3970 C   0  0  0  0  0  0  0  0  0  0  0  0
  184.6520  178.0170  141.8620 C   0  0  0  0  0  0  0  0  0  0  0  0
  193.8630  175.6630  145.7600 O   0  0  0  0  0  0  0  0  0  0  0  0
  195.1940  175.5110  145.3640 C   0  0  0  0  0  0  0  0  0  0  0  0
  196.0270  174.3710  145.8470 C   0  0  0  0  0  1  0  0  0  0  0  0
  195.7050  176.3550  144.5840 O   0  0  0  0  0  0  0  0  0  0  0  0
  1 16  1  6  0  0  0
  1 20  1  0  0  0  0
  1 10  1  0  0  0  0
  2 12  1  0  0  0  0
  4  3  1  0  0  0  0
  5 27  1  0  0  0  0
  6 28  1  0  0  0  0
  6  5  1  0  0  0  0
  7 17  1  0  0  0  0
  9 26  1  0  0  0  0
  9 28  2  0  0  0  0
 10 17  1  0  0  0  0
 11  3  2  0  0  0  0
 12 13  1  0  0  0  0
 12  8  1  0  0  0  0
 13 11  1  0  0  0  0
 14 22  2  0  0  0  0
 15 18  2  0  0  0  0
 15  9  1  0  0  0  0
 17  8  1  0  0  0  0
 18  6  1  0  0  0  0
 19 16  1  0  0  0  0
 19 24  1  0  0  0  0
 19  7  1  0  0  0  0
 20 10  1  0  0  0  0
 20 29  1  0  0  0  0
 21  4  2  0  0  0  0
 22 21  1  0  0  0  0
 22 13  1  0  0  0  0
 23 14  1  0  0  0  0
 24  2  1  0  0  0  0
 24  7  1  0  0  0  0
 25  5  2  0  0  0  0
 27 14  1  0  0  0  0
 27  2  2  0  0  0  0
 28 23  1  0  0  0  0
 30 29  1  0  0  0  0
 30 31  1  0  0  0  0
 32 30  2  0  0  0  0
M  END
>  <MODEL>
1

>  <REMARK>
 VINA RESULT:      -9.5      0.000      0.000
  Name = 
  2 active torsions:
  status: ('A' for Active; 'I' for Inactive)
    1  A    between atoms: C_20  and  O_29
    2  A    between atoms: O_29  and  C_30
                            x       y       z     vdW  Elec       q    Type
                         _______ _______ _______ _____ _____    ______ ____

>  <TORSDO>
F 2

$$$$
=
 OpenBabel11112416333D

 32 39  0  0  1  0  0  0  0  0999 V2000
  188.7580  172.6790  140.0120 C   0  0  1  0  0  3  0  0  0  0  0  0
  188.7930  175.0820  143.5220 C   0  0  0  0  0  0  0  0  0  0  0  0
  192.4280  174.9990  146.7480 C   0  0  0  0  0  3  0  0  0  0  0  0
  191.6580  175.8700  147.6520 C   0  0  0  0  0  3  0  0  0  0  0  0
  186.7430  176.4550  143.9270 C   0  0  0  0  0  0  0  0  0  0  0  0
  186.1130  177.3800  144.8100 N   0  0  0  0  0  0  0  0  0  0  0  0
  189.6150  175.0870  141.4410 C   0  0  1  0  0  3  0  0  0  0  0  0
  190.8530  173.6640  143.0660 C   0  0  0  0  0  2  0  0  0  0  0  0
  185.7700  178.7230  146.5040 C   0  0  0  0  0  0  0  0  0  0  0  0
  189.9610  172.5550  140.9660 C   0  0  2  0  0  3  0  0  0  0  0  0
  191.8550  174.4320  145.6820 C   0  0  0  0  0  3  0  0  0  0  0  0
  190.0630  174.5400  143.9760 N   0  0  0  0  0  0  0  0  0  0  0  0
  190.3740  174.5710  145.4090 C   0  0  2  0  0  3  0  0  0  0  0  0
  188.6620  176.3700  145.6140 C   0  0  0  0  0  0  0  0  0  0  0  0
  184.6480  178.7740  145.7550 N   0  0  0  0  0  0  0  0  0  0  0  0
  188.2650  174.0940  139.6560 C   0  0  0  0  0  2  0  0  0  0  0  0
  190.5180  173.8630  141.5580 C   0  0  1  0  0  3  0  0  0  0  0  0
  184.8880  177.9360  144.7170 C   0  0  0  0  0  3  0  0  0  0  0  0
  188.3090  175.1600  140.7560 C   0  0  1  0  0  3  0  0  0  0  0  0
  190.1660  172.5160  139.4670 C   0  0  1  0  0  3  0  0  0  0  0  0
  190.4190  176.2550  147.3420 C   0  0  0  0  0  3  0  0  0  0  0  0
  189.7810  175.7890  146.0900 C   0  0  0  0  0  0  0  0  0  0  0  0
  188.0670  177.5530  146.3560 C   0  0  0  0  0  2  0  0  0  0  0  0
  188.3480  174.6000  142.1790 C   0  0  2  0  0  3  0  0  0  0  0  0
  186.1510  176.0940  142.8740 O   0  0  0  0  0  0  0  0  0  0  0  0
  185.9770  179.5110  147.7490 C   0  0  0  0  0  1  0  0  0  0  0  0
  188.0830  175.9270  144.3030 C   0  0  0  0  0  0  0  0  0  0  0  0
  186.6670  177.8580  145.9260 C   0  0  0  0  0  0  0  0  0  0  0  0
  190.3580  171.1710  139.0540 O   0  0  0  0  0  0  0  0  0  0  0  0
  189.9270  170.7010  137.8110 C   0  0  0  0  0  0  0  0  0  0  0  0
  189.7610  171.6170  136.6450 C   0  0  0  0  0  1  0  0  0  0  0  0
  189.6700  169.4780  137.6700 O   0  0  0  0  0  0  0  0  0  0  0  0
  1 16  1  6  0  0  0
  1 10  1  0  0  0  0
  2 12  1  0  0  0  0
  2 27  2  0  0  0  0
  3  4  1  0  0  0  0
  5 27  1  0  0  0  0
  5  6  1  0  0  0  0
  6 28  1  0  0  0  0
  7 17  1  0  0  0  0
  7 24  1  0  0  0  0
  8 12  1  0  0  0  0
  9 26  1  0  0  0  0
 10 17  1  0  0  0  0
 11  3  2  0  0  0  0
 12 13  1  0  0  0  0
 13 11  1  0  0  0  0
 13 22  1  0  0  0  0
 14 22  2  0  0  0  0
 14 23  1  0  0  0  0
 15  9  1  0  0  0  0
 16 19  1  0  0  0  0
 17  8  1  0  0  0  0
 18  6  1  0  0  0  0
 18 15  2  0  0  0  0
 19  7  1  0  0  0  0
 19 24  1  0  0  0  0
 20  1  1  0  0  0  0
 20 10  1  0  0  0  0
 21  4  2  0  0  0  0
 22 21  1  0  0  0  0
 24  2  1  0  0  0  0
 25  5  2  0  0  0  0
 27 14  1  0  0  0  0
 28 23  1  0  0  0  0
 28  9  2  0  0  0  0
 29 20  1  0  0  0  0
 30 29  1  0  0  0  0
 31 30  1  0  0  0  0
 32 30  2  0  0  0  0
M  END
>  <MODEL>
2

>  <REMARK>
 VINA RESULT:      -8.6      3.864      6.128
  Name = 
  2 active torsions:
  status: ('A' for Active; 'I' for Inactive)
    1  A    between atoms: C_20  and  O_29
    2  A    between atoms: O_29  and  C_30
                            x       y       z     vdW  Elec       q    Type
                         _______ _______ _______ _____ _____    ______ ____

>  <TORSDO>
F 2

$$$$
=
 OpenBabel11112416333D

 32 39  0  0  1  0  0  0  0  0999 V2000
  194.6980  176.5420  145.5950 C   0  0  1  0  0  3  0  0  0  0  0  0
  190.5060  176.4380  144.8800 C   0  0  0  0  0  0  0  0  0  0  0  0
  188.5550  174.5030  140.8700 C   0  0  0  0  0  3  0  0  0  0  0  0
  187.2240  174.9920  141.2700 C   0  0  0  0  0  3  0  0  0  0  0  0
  189.0770  177.5770  146.5870 C   0  0  0  0  0  0  0  0  0  0  0  0
  187.7410  177.9190  146.9510 N   0  0  0  0  0  0  0  0  0  0  0  0
  192.1400  175.1190  145.6510 C   0  0  1  0  0  3  0  0  0  0  0  0
  192.0030  175.2970  143.1710 C   0  0  0  0  0  2  0  0  0  0  0  0
  185.5590  178.0750  146.9130 C   0  0  0  0  0  0  0  0  0  0  0  0
  194.2010  175.9130  144.2800 C   0  0  2  0  0  3  0  0  0  0  0  0
  189.6600  174.9160  141.4990 C   0  0  0  0  0  3  0  0  0  0  0  0
  190.6630  175.8010  143.5820 N   0  0  0  0  0  0  0  0  0  0  0  0
  189.6100  175.9770  142.5750 C   0  0  2  0  0  3  0  0  0  0  0  0
  188.0860  176.5710  144.4550 C   0  0  0  0  0  0  0  0  0  0  0  0
  185.9610  178.7360  148.0200 N   0  0  0  0  0  0  0  0  0  0  0  0
  193.9760  176.1500  146.8980 C   0  0  0  0  0  2  0  0  0  0  0  0
  192.9580  175.0080  144.3680 C   0  0  1  0  0  3  0  0  0  0  0  0
  187.3120  178.6230  148.0170 C   0  0  0  0  0  3  0  0  0  0  0  0
  192.4590  175.9390  146.8350 C   0  0  1  0  0  3  0  0  0  0  0  0
  195.3640  175.3000  145.0300 C   0  0  1  0  0  3  0  0  0  0  0  0
  187.0670  175.7230  142.3740 C   0  0  0  0  0  3  0  0  0  0  0  0
  188.2360  176.0830  143.2080 C   0  0  0  0  0  0  0  0  0  0  0  0
  186.6900  176.7150  145.0320 C   0  0  0  0  0  2  0  0  0  0  0  0
  191.7750  176.6200  145.6490 C   0  0  2  0  0  3  0  0  0  0  0  0
  190.0340  177.9110  147.3360 O   0  0  0  0  0  0  0  0  0  0  0  0
  184.1350  177.9100  146.5130 C   0  0  0  0  0  1  0  0  0  0  0  0
  189.2910  176.8520  145.3030 C   0  0  0  0  0  0  0  0  0  0  0  0
  186.6560  177.5800  146.2520 C   0  0  0  0  0  0  0  0  0  0  0  0
  196.5780  175.6660  144.3920 O   0  0  0  0  0  0  0  0  0  0  0  0
  196.7160  175.6860  143.0020 C   0  0  0  0  0  0  0  0  0  0  0  0
  196.7650  174.4260  142.2040 C   0  0  0  0  0  1  0  0  0  0  0  0
  196.8020  176.7910  142.4080 O   0  0  0  0  0  0  0  0  0  0  0  0
  1 16  1  1  0  0  0
  2 27  2  0  0  0  0
  2 24  1  0  0  0  0
  3  4  1  0  0  0  0
  3 11  2  0  0  0  0
  4 21  2  0  0  0  0
  5  6  1  0  0  0  0
  5 25  2  0  0  0  0
  6 18  1  0  0  0  0
  7 19  1  0  0  0  0
  8 12  1  0  0  0  0
  8 17  1  0  0  0  0
  9 15  1  0  0  0  0
 10 17  1  0  0  0  0
 10 20  1  0  0  0  0
 10  1  1  0  0  0  0
 11 13  1  0  0  0  0
 12  2  1  0  0  0  0
 13 22  1  0  0  0  0
 13 12  1  0  0  0  0
 14 23  1  0  0  0  0
 14 27  1  0  0  0  0
 17  7  1  0  0  0  0
 18 15  2  0  0  0  0
 19 16  1  0  0  0  0
 20  1  1  0  0  0  0
 21 22  1  0  0  0  0
 22 14  2  0  0  0  0
 23 28  1  0  0  0  0
 24  7  1  0  0  0  0
 24 19  1  0  0  0  0
 26  9  1  0  0  0  0
 27  5  1  0  0  0  0
 28  9  2  0  0  0  0
 28  6  1  0  0  0  0
 29 20  1  0  0  0  0
 30 29  1  0  0  0  0
 31 30  1  0  0  0  0
 32 30  2  0  0  0  0
M  END
>  <MODEL>
3

>  <REMARK>
 VINA RESULT:      -8.0      2.901      5.005
  Name = 
  2 active torsions:
  status: ('A' for Active; 'I' for Inactive)
    1  A    between atoms: C_20  and  O_29
    2  A    between atoms: O_29  and  C_30
                            x       y       z     vdW  Elec       q    Type
                         _______ _______ _______ _____ _____    ______ ____

>  <TORSDO>
F 2

$$$$
=
 OpenBabel11112416333D

 32 39  0  0  1  0  0  0  0  0999 V2000
  193.7360  176.0700  146.2410 C   0  0  1  0  0  3  0  0  0  0  0  0
  190.2250  175.9270  143.8420 C   0  0  0  0  0  0  0  0  0  0  0  0
  189.8470  173.1510  139.8700 C   0  0  0  0  0  3  0  0  0  0  0  0
  188.5440  173.7620  139.5550 C   0  0  0  0  0  3  0  0  0  0  0  0
  188.3840  177.4850  144.5050 C   0  0  0  0  0  0  0  0  0  0  0  0
  187.0730  177.9460  144.1860 N   0  0  0  0  0  0  0  0  0  0  0  0
  191.2170  174.7810  145.4870 C   0  0  1  0  0  3  0  0  0  0  0  0
  192.1270  174.3650  143.2080 C   0  0  0  0  0  2  0  0  0  0  0  0
  185.1360  178.1550  143.1900 C   0  0  0  0  0  0  0  0  0  0  0  0
  193.7410  175.1600  144.9980 C   0  0  2  0  0  3  0  0  0  0  0  0
  190.6420  173.6680  140.8120 C   0  0  0  0  0  3  0  0  0  0  0  0
  190.8140  174.9940  142.8950 N   0  0  0  0  0  0  0  0  0  0  0  0
  190.2960  174.9560  141.5240 C   0  0  2  0  0  3  0  0  0  0  0  0
  188.2280  176.0290  142.4090 C   0  0  0  0  0  0  0  0  0  0  0  0
  185.1340  179.0490  144.2020 N   0  0  0  0  0  0  0  0  0  0  0  0
  192.5010  176.0230  147.1610 C   0  0  0  0  0  2  0  0  0  0  0  0
  192.4650  174.3410  144.7290 C   0  0  1  0  0  3  0  0  0  0  0  0
  186.3410  178.8970  144.7990 C   0  0  0  0  0  3  0  0  0  0  0  0
  191.1280  175.8500  146.5000 C   0  0  1  0  0  3  0  0  0  0  0  0
  194.4070  174.7090  146.2800 C   0  0  1  0  0  3  0  0  0  0  0  0
  188.0460  174.7410  140.3120 C   0  0  0  0  0  3  0  0  0  0  0  0
  188.8100  175.2530  141.4730 C   0  0  0  0  0  0  0  0  0  0  0  0
  186.7490  176.3510  142.2920 C   0  0  0  0  0  2  0  0  0  0  0  0
  191.0810  176.2490  145.0250 C   0  0  2  0  0  3  0  0  0  0  0  0
  188.9870  177.9590  145.5050 O   0  0  0  0  0  0  0  0  0  0  0  0
  183.9910  177.9440  142.2630 C   0  0  0  0  0  1  0  0  0  0  0  0
  189.0080  176.4680  143.6130 C   0  0  0  0  0  0  0  0  0  0  0  0
  186.3330  177.4830  143.1760 C   0  0  0  0  0  0  0  0  0  0  0  0
  195.8120  174.8730  146.1610 O   0  0  0  0  0  0  0  0  0  0  0  0
  196.6470  173.8570  145.6900 C   0  0  0  0  0  0  0  0  0  0  0  0
  196.2590  172.4200  145.7870 C   0  0  0  0  0  1  0  0  0  0  0  0
  197.7530  174.1590  145.1730 O   0  0  0  0  0  0  0  0  0  0  0  0
  1 20  1  0  0  0  0
  1 16  1  1  0  0  0
  2 24  1  0  0  0  0
  3 11  2  0  0  0  0
  4  3  1  0  0  0  0
  4 21  2  0  0  0  0
  5 25  2  0  0  0  0
  6  5  1  0  0  0  0
  6 18  1  0  0  0  0
  7 19  1  0  0  0  0
  8 17  1  0  0  0  0
  9 15  1  0  0  0  0
 10  1  1  0  0  0  0
 10 20  1  0  0  0  0
 11 13  1  0  0  0  0
 12  8  1  0  0  0  0
 12  2  1  0  0  0  0
 13 12  1  0  0  0  0
 14 27  1  0  0  0  0
 15 18  2  0  0  0  0
 17 10  1  0  0  0  0
 17  7  1  0  0  0  0
 19 16  1  0  0  0  0
 21 22  1  0  0  0  0
 22 13  1  0  0  0  0
 22 14  2  0  0  0  0
 23 14  1  0  0  0  0
 23 28  1  0  0  0  0
 24  7  1  0  0  0  0
 24 19  1  0  0  0  0
 26  9  1  0  0  0  0
 27  2  2  0  0  0  0
 27  5  1  0  0  0  0
 28  9  2  0  0  0  0
 28  6  1  0  0  0  0
 29 20  1  0  0  0  0
 30 31  1  0  0  0  0
 30 29  1  0  0  0  0
 32 30  2  0  0  0  0
M  END
>  <MODEL>
4

>  <REMARK>
 VINA RESULT:      -8.0      2.477      4.719
  Name = 
  2 active torsions:
  status: ('A' for Active; 'I' for Inactive)
    1  A    between atoms: C_20  and  O_29
    2  A    between atoms: O_29  and  C_30
                            x       y       z     vdW  Elec       q    Type
                         _______ _______ _______ _____ _____    ______ ____

>  <TORSDO>
F 2

$$$$
=
 OpenBabel11112416333D

 32 39  0  0  1  0  0  0  0  0999 V2000
  190.6790  170.9030  142.0440 C   0  0  1  0  0  3  0  0  0  0  0  0
  189.5040  174.5720  143.8490 C   0  0  0  0  0  0  0  0  0  0  0  0
  191.5820  176.3200  147.8820 C   0  0  0  0  0  3  0  0  0  0  0  0
  190.5800  177.3990  147.9410 C   0  0  0  0  0  3  0  0  0  0  0  0
  187.5550  175.7320  142.7980 C   0  0  0  0  0  0  0  0  0  0  0  0
  186.6940  176.8660  142.8690 N   0  0  0  0  0  0  0  0  0  0  0  0
  191.0700  173.7740  142.4640 C   0  0  1  0  0  3  0  0  0  0  0  0
  191.4800  173.3500  144.8830 C   0  0  0  0  0  2  0  0  0  0  0  0
  185.8090  178.7580  143.5240 C   0  0  0  0  0  0  0  0  0  0  0  0
  191.4040  171.3460  143.3290 C   0  0  2  0  0  3  0  0  0  0  0  0
  191.4320  175.2850  147.0480 C   0  0  0  0  0  3  0  0  0  0  0  0
  190.4580  174.4340  144.9380 N   0  0  0  0  0  0  0  0  0  0  0  0
  190.1870  175.1160  146.2070 C   0  0  2  0  0  3  0  0  0  0  0  0
  188.6550  176.6110  144.9320 C   0  0  0  0  0  0  0  0  0  0  0  0
  185.0730  178.3480  142.4680 N   0  0  0  0  0  0  0  0  0  0  0  0
  190.4600  171.9560  140.9430 C   0  0  0  0  0  2  0  0  0  0  0  0
  191.7730  172.8370  143.4420 C   0  0  1  0  0  3  0  0  0  0  0  0
  185.6420  177.1790  142.0850 C   0  0  0  0  0  3  0  0  0  0  0  0
  190.1420  173.3900  141.3830 C   0  0  1  0  0  3  0  0  0  0  0  0
  192.1730  170.6880  142.2040 C   0  0  1  0  0  3  0  0  0  0  0  0
  189.5880  177.4620  147.0510 C   0  0  0  0  0  3  0  0  0  0  0  0
  189.4590  176.4300  145.9980 C   0  0  0  0  0  0  0  0  0  0  0  0
  187.8980  177.9190  144.7870 C   0  0  0  0  0  2  0  0  0  0  0  0
  189.5860  173.5080  142.8020 C   0  0  2  0  0  3  0  0  0  0  0  0
  187.3970  174.8840  141.8780 O   0  0  0  0  0  0  0  0  0  0  0  0
  185.5660  180.0250  144.2660 C   0  0  0  0  0  1  0  0  0  0  0  0
  188.6050  175.5800  143.8430 C   0  0  0  0  0  0  0  0  0  0  0  0
  186.8000  177.8410  143.7750 C   0  0  0  0  0  0  0  0  0  0  0  0
  192.4210  169.3300  142.5370 O   0  0  0  0  0  0  0  0  0  0  0  0
  193.2160  168.9590  143.6240 C   0  0  0  0  0  0  0  0  0  0  0  0
  194.6720  169.2830  143.6710 C   0  0  0  0  0  1  0  0  0  0  0  0
  192.6950  168.3370  144.5840 O   0  0  0  0  0  0  0  0  0  0  0  0
  1 16  1  6  0  0  0
  1 20  1  0  0  0  0
  1 10  1  0  0  0  0
  2 12  1  0  0  0  0
  3  4  1  0  0  0  0
  5  6  1  0  0  0  0
  5 27  1  0  0  0  0
  6 28  1  0  0  0  0
  7 24  1  0  0  0  0
  7 17  1  0  0  0  0
  8 12  1  0  0  0  0
  9 28  2  0  0  0  0
  9 26  1  0  0  0  0
 10 17  1  0  0  0  0
 11  3  2  0  0  0  0
 12 13  1  0  0  0  0
 13 11  1  0  0  0  0
 14 22  2  0  0  0  0
 15  9  1  0  0  0  0
 16 19  1  0  0  0  0
 17  8  1  0  0  0  0
 18 15  2  0  0  0  0
 18  6  1  0  0  0  0
 19  7  1  0  0  0  0
 19 24  1  0  0  0  0
 20 29  1  0  0  0  0
 20 10  1  0  0  0  0
 21  4  2  0  0  0  0
 22 13  1  0  0  0  0
 22 21  1  0  0  0  0
 23 14  1  0  0  0  0
 24  2  1  0  0  0  0
 25  5  2  0  0  0  0
 27  2  2  0  0  0  0
 27 14  1  0  0  0  0
 28 23  1  0  0  0  0
 29 30  1  0  0  0  0
 30 31  1  0  0  0  0
 30 32  2  0  0  0  0
M  END
>  <MODEL>
5

>  <REMARK>
 VINA RESULT:      -7.9      3.626      4.777
  Name = 
  2 active torsions:
  status: ('A' for Active; 'I' for Inactive)
    1  A    between atoms: C_20  and  O_29
    2  A    between atoms: O_29  and  C_30
                            x       y       z     vdW  Elec       q    Type
                         _______ _______ _______ _____ _____    ______ ____

>  <TORSDO>
F 2

$$$$
=
 OpenBabel11112416333D

 32 39  0  0  1  0  0  0  0  0999 V2000
  184.9700  178.1020  143.7880 C   0  0  1  0  0  3  0  0  0  0  0  0
  188.7460  176.2180  143.2470 C   0  0  0  0  0  0  0  0  0  0  0  0
  189.8320  173.5440  139.3360 C   0  0  0  0  0  3  0  0  0  0  0  0
  191.1090  173.1440  139.9520 C   0  0  0  0  0  3  0  0  0  0  0  0
  190.3580  176.4350  145.1470 C   0  0  0  0  0  0  0  0  0  0  0  0
  191.6560  176.0870  145.6230 N   0  0  0  0  0  0  0  0  0  0  0  0
  187.6590  178.0740  142.6300 C   0  0  1  0  0  3  0  0  0  0  0  0
  187.0700  176.0240  141.3460 C   0  0  0  0  0  2  0  0  0  0  0  0
  193.6760  175.2490  145.7060 C   0  0  0  0  0  0  0  0  0  0  0  0
  185.1900  177.2690  142.5110 C   0  0  2  0  0  3  0  0  0  0  0  0
  188.8880  174.1690  140.0470 C   0  0  0  0  0  3  0  0  0  0  0  0
  188.3560  175.6200  141.9810 N   0  0  0  0  0  0  0  0  0  0  0  0
  189.0380  174.4010  141.5340 C   0  0  2  0  0  3  0  0  0  0  0  0
  190.8870  175.0180  143.0870 C   0  0  0  0  0  0  0  0  0  0  0  0
  193.4810  175.8720  146.8880 N   0  0  0  0  0  0  0  0  0  0  0  0
  186.0830  179.0790  144.2100 C   0  0  0  0  0  2  0  0  0  0  0  0
  186.5530  177.4190  141.8080 C   0  0  1  0  0  3  0  0  0  0  0  0
  192.2270  176.3800  146.8080 C   0  0  0  0  0  3  0  0  0  0  0  0
  187.5350  178.6420  143.9860 C   0  0  1  0  0  3  0  0  0  0  0  0
  184.4130  178.5660  142.4540 C   0  0  1  0  0  3  0  0  0  0  0  0
  191.4280  173.5410  141.1850 C   0  0  0  0  0  3  0  0  0  0  0  0
  190.4900  174.3740  141.9710 C   0  0  0  0  0  0  0  0  0  0  0  0
  192.3380  174.9200  143.5230 C   0  0  0  0  0  2  0  0  0  0  0  0
  187.7280  177.1310  143.8520 C   0  0  2  0  0  3  0  0  0  0  0  0
  189.6010  177.1470  145.8610 O   0  0  0  0  0  0  0  0  0  0  0  0
  194.9380  174.5590  145.3260 C   0  0  0  0  0  1  0  0  0  0  0  0
  189.9330  175.9150  143.8170 C   0  0  0  0  0  0  0  0  0  0  0  0
  192.5480  175.3740  144.9320 C   0  0  0  0  0  0  0  0  0  0  0  0
  183.0240  178.2780  142.3980 O   0  0  0  0  0  0  0  0  0  0  0  0
  182.3140  178.2500  141.1940 C   0  0  0  0  0  0  0  0  0  0  0  0
  180.8670  178.6050  141.1340 C   0  0  0  0  0  1  0  0  0  0  0  0
  182.9080  177.9160  140.1370 O   0  0  0  0  0  0  0  0  0  0  0  0
  1 16  1  6  0  0  0
  2 27  2  0  0  0  0
  2 24  1  0  0  0  0
  3  4  1  0  0  0  0
  3 11  2  0  0  0  0
  4 21  2  0  0  0  0
  5  6  1  0  0  0  0
  5 25  2  0  0  0  0
  6 18  1  0  0  0  0
  7 24  1  0  0  0  0
  7 19  1  0  0  0  0
  8 17  1  0  0  0  0
  8 12  1  0  0  0  0
  9 15  1  0  0  0  0
 10  1  1  0  0  0  0
 11 13  1  0  0  0  0
 12  2  1  0  0  0  0
 13 22  1  0  0  0  0
 13 12  1  0  0  0  0
 14 23  1  0  0  0  0
 14 27  1  0  0  0  0
 17 10  1  0  0  0  0
 17  7  1  0  0  0  0
 18 15  2  0  0  0  0
 19 16  1  0  0  0  0
 20 10  1  0  0  0  0
 20  1  1  0  0  0  0
 21 22  1  0  0  0  0
 22 14  2  0  0  0  0
 23 28  1  0  0  0  0
 24 19  1  0  0  0  0
 26  9  1  0  0  0  0
 27  5  1  0  0  0  0
 28  6  1  0  0  0  0
 28  9  2  0  0  0  0
 29 20  1  0  0  0  0
 30 29  1  0  0  0  0
 31 30  1  0  0  0  0
 32 30  2  0  0  0  0
M  END
>  <MODEL>
6

>  <REMARK>
 VINA RESULT:      -7.9      2.890      8.796
  Name = 
  2 active torsions:
  status: ('A' for Active; 'I' for Inactive)
    1  A    between atoms: C_20  and  O_29
    2  A    between atoms: O_29  and  C_30
                            x       y       z     vdW  Elec       q    Type
                         _______ _______ _______ _____ _____    ______ ____

>  <TORSDO>
F 2

$$$$
=
 OpenBabel11112416333D

 32 39  0  0  1  0  0  0  0  0999 V2000
  188.6460  176.7340  145.6950 C   0  0  1  0  0  3  0  0  0  0  0  0
  191.5390  175.5990  142.7900 C   0  0  0  0  0  0  0  0  0  0  0  0
  190.4100  173.1320  138.7570 C   0  0  0  0  0  3  0  0  0  0  0  0
  191.8410  172.9910  138.4310 C   0  0  0  0  0  3  0  0  0  0  0  0
  193.9160  176.1450  143.3430 C   0  0  0  0  0  0  0  0  0  0  0  0
  195.2680  176.0560  142.9000 N   0  0  0  0  0  0  0  0  0  0  0  0
  190.0250  177.2050  143.1550 C   0  0  1  0  0  3  0  0  0  0  0  0
  189.1080  175.0640  142.2760 C   0  0  0  0  0  2  0  0  0  0  0  0
  197.0170  175.6210  141.6580 C   0  0  0  0  0  0  0  0  0  0  0  0
  188.1680  175.9420  144.4640 C   0  0  2  0  0  3  0  0  0  0  0  0
  190.0160  173.5740  139.9550 C   0  0  0  0  0  3  0  0  0  0  0  0
  190.5570  174.9210  141.9600 N   0  0  0  0  0  0  0  0  0  0  0  0
  191.0050  173.8490  141.0650 C   0  0  2  0  0  3  0  0  0  0  0  0
  193.2900  174.8280  141.2440 C   0  0  0  0  0  0  0  0  0  0  0  0
  197.4910  176.2110  142.7770 N   0  0  0  0  0  0  0  0  0  0  0  0
  189.6120  177.9100  145.4630 C   0  0  0  0  0  2  0  0  0  0  0  0
  188.7690  176.3400  143.1030 C   0  0  1  0  0  3  0  0  0  0  0  0
  196.3900  176.4680  143.5240 C   0  0  0  0  0  3  0  0  0  0  0  0
  190.6690  177.7570  144.3630 C   0  0  1  0  0  3  0  0  0  0  0  0
  187.3240  177.0660  145.0260 C   0  0  1  0  0  3  0  0  0  0  0  0
  192.7800  173.4580  139.2560 C   0  0  0  0  0  3  0  0  0  0  0  0
  192.4020  174.1060  140.5320 C   0  0  0  0  0  0  0  0  0  0  0  0
  194.6960  175.0140  140.7030 C   0  0  0  0  0  2  0  0  0  0  0  0
  190.9760  176.3090  143.9790 C   0  0  2  0  0  3  0  0  0  0  0  0
  193.6540  176.7080  144.4400 O   0  0  0  0  0  0  0  0  0  0  0  0
  197.8720  175.1800  140.5230 C   0  0  0  0  0  1  0  0  0  0  0  0
  192.8560  175.5360  142.4920 C   0  0  0  0  0  0  0  0  0  0  0  0
  195.6500  175.5190  141.7390 C   0  0  0  0  0  0  0  0  0  0  0  0
  186.2600  176.5170  145.7880 O   0  0  0  0  0  0  0  0  0  0  0  0
  185.5580  177.2640  146.7380 C   0  0  0  0  0  0  0  0  0  0  0  0
  184.3590  178.0700  146.3660 C   0  0  0  0  0  1  0  0  0  0  0  0
  185.9450  177.2590  147.9340 O   0  0  0  0  0  0  0  0  0  0  0  0
  1 16  1  6  0  0  0
  2 24  1  0  0  0  0
  3 11  2  0  0  0  0
  4  3  1  0  0  0  0
  4 21  2  0  0  0  0
  5 25  2  0  0  0  0
  6  5  1  0  0  0  0
  6 18  1  0  0  0  0
  7 24  1  0  0  0  0
  7 19  1  0  0  0  0
  8 17  1  0  0  0  0
  9 28  2  0  0  0  0
  9 15  1  0  0  0  0
 10 20  1  0  0  0  0
 10  1  1  0  0  0  0
 11 13  1  0  0  0  0
 12  8  1  0  0  0  0
 12  2  1  0  0  0  0
 13 12  1  0  0  0  0
 14 27  1  0  0  0  0
 15 18  2  0  0  0  0
 17  7  1  0  0  0  0
 17 10  1  0  0  0  0
 19 16  1  0  0  0  0
 20  1  1  0  0  0  0
 20 29  1  0  0  0  0
 21 22  1  0  0  0  0
 22 13  1  0  0  0  0
 22 14  2  0  0  0  0
 23 14  1  0  0  0  0
 23 28  1  0  0  0  0
 24 19  1  0  0  0  0
 26  9  1  0  0  0  0
 27  2  2  0  0  0  0
 27  5  1  0  0  0  0
 28  6  1  0  0  0  0
 29 30  1  0  0  0  0
 30 32  2  0  0  0  0
 31 30  1  0  0  0  0
M  END
>  <MODEL>
7

>  <REMARK>
 VINA RESULT:      -7.9      4.053      8.913
  Name = 
  2 active torsions:
  status: ('A' for Active; 'I' for Inactive)
    1  A    between atoms: C_20  and  O_29
    2  A    between atoms: O_29  and  C_30
                            x       y       z     vdW  Elec       q    Type
                         _______ _______ _______ _____ _____    ______ ____

>  <TORSDO>
F 2

$$$$
=
 OpenBabel11112416333D

 32 39  0  0  1  0  0  0  0  0999 V2000
  188.1250  176.6820  146.6680 C   0  0  1  0  0  3  0  0  0  0  0  0
  191.1740  175.1090  144.1530 C   0  0  0  0  0  0  0  0  0  0  0  0
  190.3170  173.5060  139.6440 C   0  0  0  0  0  3  0  0  0  0  0  0
  191.7010  173.0080  139.5480 C   0  0  0  0  0  3  0  0  0  0  0  0
  193.4440  174.9070  145.1820 C   0  0  0  0  0  0  0  0  0  0  0  0
  194.7920  174.4940  144.9660 N   0  0  0  0  0  0  0  0  0  0  0  0
  190.0720  177.0230  144.5080 C   0  0  1  0  0  3  0  0  0  0  0  0
  188.8460  175.3300  143.1550 C   0  0  0  0  0  2  0  0  0  0  0  0
  196.5910  173.7260  143.9860 C   0  0  0  0  0  0  0  0  0  0  0  0
  187.7270  176.1930  145.2630 C   0  0  2  0  0  3  0  0  0  0  0  0
  189.8080  173.9080  140.8130 C   0  0  0  0  0  3  0  0  0  0  0  0
  190.2460  174.8250  143.0700 N   0  0  0  0  0  0  0  0  0  0  0  0
  190.5840  173.7750  142.1040 C   0  0  2  0  0  3  0  0  0  0  0  0
  192.9540  174.0520  142.8230 C   0  0  0  0  0  0  0  0  0  0  0  0
  196.9570  174.0350  145.2480 N   0  0  0  0  0  0  0  0  0  0  0  0
  189.3830  177.5610  146.7950 C   0  0  0  0  0  2  0  0  0  0  0  0
  188.6780  176.5530  144.1050 C   0  0  1  0  0  3  0  0  0  0  0  0
  195.8270  174.5070  145.8290 C   0  0  0  0  0  3  0  0  0  0  0  0
  190.5710  177.2390  145.8800 C   0  0  1  0  0  3  0  0  0  0  0  0
  187.0980  177.4400  145.8460 C   0  0  1  0  0  3  0  0  0  0  0  0
  192.5360  173.1030  140.5840 C   0  0  0  0  0  3  0  0  0  0  0  0
  192.0780  173.6880  141.8650 C   0  0  0  0  0  0  0  0  0  0  0  0
  194.4420  173.8970  142.5660 C   0  0  0  0  0  2  0  0  0  0  0  0
  190.5750  175.8130  145.3270 C   0  0  2  0  0  3  0  0  0  0  0  0
  193.1120  175.3980  146.2940 O   0  0  0  0  0  0  0  0  0  0  0  0
  197.5230  173.1900  142.9560 C   0  0  0  0  0  1  0  0  0  0  0  0
  192.4640  174.7130  144.0770 C   0  0  0  0  0  0  0  0  0  0  0  0
  195.2560  174.0000  143.8160 C   0  0  0  0  0  0  0  0  0  0  0  0
  185.7950  177.1300  146.3190 O   0  0  0  0  0  0  0  0  0  0  0  0
  184.8130  178.1070  146.4970 C   0  0  0  0  0  0  0  0  0  0  0  0
  184.1290  178.7480  145.3360 C   0  0  0  0  0  1  0  0  0  0  0  0
  184.4970  178.4570  147.6630 O   0  0  0  0  0  0  0  0  0  0  0  0
  1 16  1  6  0  0  0
  2 24  1  0  0  0  0
  3 11  2  0  0  0  0
  4  3  1  0  0  0  0
  4 21  2  0  0  0  0
  5 25  2  0  0  0  0
  6  5  1  0  0  0  0
  6 18  1  0  0  0  0
  7 24  1  0  0  0  0
  7 19  1  0  0  0  0
  8 17  1  0  0  0  0
  9 15  1  0  0  0  0
 10 20  1  0  0  0  0
 10  1  1  0  0  0  0
 11 13  1  0  0  0  0
 12  8  1  0  0  0  0
 12  2  1  0  0  0  0
 13 12  1  0  0  0  0
 14 27  1  0  0  0  0
 15 18  2  0  0  0  0
 17  7  1  0  0  0  0
 17 10  1  0  0  0  0
 19 16  1  0  0  0  0
 20 29  1  0  0  0  0
 20  1  1  0  0  0  0
 21 22  1  0  0  0  0
 22 13  1  0  0  0  0
 22 14  2  0  0  0  0
 23 14  1  0  0  0  0
 23 28  1  0  0  0  0
 24 19  1  0  0  0  0
 26  9  1  0  0  0  0
 27  2  2  0  0  0  0
 27  5  1  0  0  0  0
 28  9  2  0  0  0  0
 28  6  1  0  0  0  0
 29 30  1  0  0  0  0
 30 32  2  0  0  0  0
 31 30  1  0  0  0  0
M  END
>  <MODEL>
8

>  <REMARK>
 VINA RESULT:      -7.7      3.597      9.021
  Name = 
  2 active torsions:
  status: ('A' for Active; 'I' for Inactive)
    1  A    between atoms: C_20  and  O_29
    2  A    between atoms: O_29  and  C_30
                            x       y       z     vdW  Elec       q    Type
                         _______ _______ _______ _____ _____    ______ ____

>  <TORSDO>
F 2

$$$$
=
 OpenBabel11112416333D

 32 39  0  0  1  0  0  0  0  0999 V2000
  190.7540  172.2110  139.8420 C   0  0  1  0  0  3  0  0  0  0  0  0
  189.3680  175.1740  142.5630 C   0  0  0  0  0  0  0  0  0  0  0  0
  185.7210  178.2170  141.5260 C   0  0  0  0  0  3  0  0  0  0  0  0
  185.9740  178.9590  142.7730 C   0  0  0  0  0  3  0  0  0  0  0  0
  190.6440  175.3750  144.7040 C   0  0  0  0  0  0  0  0  0  0  0  0
  190.7500  176.0810  145.9380 N   0  0  0  0  0  0  0  0  0  0  0  0
  188.8550  173.1050  141.8850 C   0  0  1  0  0  3  0  0  0  0  0  0
  188.1060  174.9320  140.3690 C   0  0  0  0  0  2  0  0  0  0  0  0
  190.3360  177.4880  147.5620 C   0  0  0  0  0  0  0  0  0  0  0  0
  189.5990  173.1260  139.3940 C   0  0  2  0  0  3  0  0  0  0  0  0
  186.5900  177.3050  141.0780 C   0  0  0  0  0  3  0  0  0  0  0  0
  188.3740  175.6800  141.6300 N   0  0  0  0  0  0  0  0  0  0  0  0
  187.9150  177.0660  141.7660 C   0  0  2  0  0  3  0  0  0  0  0  0
  188.7370  176.9740  144.1170 C   0  0  0  0  0  0  0  0  0  0  0  0
  191.4230  176.7850  147.9460 N   0  0  0  0  0  0  0  0  0  0  0  0
  190.6820  171.6010  141.2550 C   0  0  0  0  0  2  0  0  0  0  0  0
  188.5050  173.4270  140.4360 C   0  0  1  0  0  3  0  0  0  0  0  0
  191.6550  175.9250  146.9250 C   0  0  0  0  0  3  0  0  0  0  0  0
  190.0930  172.4680  142.3740 C   0  0  1  0  0  3  0  0  0  0  0  0
  189.5990  171.6580  139.0270 C   0  0  1  0  0  3  0  0  0  0  0  0
  186.9850  178.6250  143.5770 C   0  0  0  0  0  3  0  0  0  0  0  0
  187.8940  177.5140  143.2140 C   0  0  0  0  0  0  0  0  0  0  0  0
  188.7250  177.4890  145.5440 C   0  0  0  0  0  2  0  0  0  0  0  0
  190.1180  173.9700  142.0920 C   0  0  2  0  0  3  0  0  0  0  0  0
  191.4470  174.4370  144.4490 O   0  0  0  0  0  0  0  0  0  0  0  0
  189.6930  178.5450  148.3890 C   0  0  0  0  0  1  0  0  0  0  0  0
  189.5900  175.7990  143.7400 C   0  0  0  0  0  0  0  0  0  0  0  0
  189.9280  177.0600  146.3230 C   0  0  0  0  0  0  0  0  0  0  0  0
  190.0050  171.5130  137.6750 O   0  0  0  0  0  0  0  0  0  0  0  0
  190.2530  170.2640  137.0980 C   0  0  0  0  0  0  0  0  0  0  0  0
  190.1500  169.0040  137.8910 C   0  0  0  0  0  1  0  0  0  0  0  0
  190.5710  170.1990  135.8840 O   0  0  0  0  0  0  0  0  0  0  0  0
  1 16  1  1  0  0  0
  2 27  2  0  0  0  0
  3  4  1  0  0  0  0
  4 21  2  0  0  0  0
  5  6  1  0  0  0  0
  6 28  1  0  0  0  0
  6 18  1  0  0  0  0
  7 24  1  0  0  0  0
  7 19  1  0  0  0  0
  8 17  1  0  0  0  0
  8 12  1  0  0  0  0
  9 15  1  0  0  0  0
  9 26  1  0  0  0  0
 10  1  1  0  0  0  0
 10 17  1  0  0  0  0
 11  3  2  0  0  0  0
 11 13  1  0  0  0  0
 12 13  1  0  0  0  0
 12  2  1  0  0  0  0
 13 22  1  0  0  0  0
 14 23  1  0  0  0  0
 16 19  1  0  0  0  0
 17  7  1  0  0  0  0
 18 15  2  0  0  0  0
 20 10  1  0  0  0  0
 20  1  1  0  0  0  0
 22 21  1  0  0  0  0
 22 14  2  0  0  0  0
 23 28  1  0  0  0  0
 24 19  1  0  0  0  0
 24  2  1  0  0  0  0
 25  5  2  0  0  0  0
 27 14  1  0  0  0  0
 27  5  1  0  0  0  0
 28  9  2  0  0  0  0
 29 20  1  0  0  0  0
 30 29  1  0  0  0  0
 30 31  1  0  0  0  0
 32 30  2  0  0  0  0
M  END
>  <MODEL>
9

>  <REMARK>
 VINA RESULT:      -7.7      4.300      7.117
  Name = 
  2 active torsions:
  status: ('A' for Active; 'I' for Inactive)
    1  A    between atoms: C_20  and  O_29
    2  A    between atoms: O_29  and  C_30
                            x       y       z     vdW  Elec       q    Type
                         _______ _______ _______ _____ _____    ______ ____

>  <TORSDO>
F 2

$$$$
