=
 OpenBabel11112417323D

 37 44  0  0  1  0  0  0  0  0999 V2000
  193.1610  172.2760  143.5450 C   0  0  1  0  0  0  0  0  0  0  0  0
  190.6570  174.2680  141.5870 C   0  0  1  0  0  3  0  0  0  0  0  0
  190.0630  177.3900  142.4740 O   0  0  0  0  0  0  0  0  0  0  0  0
  192.4940  172.4380  141.3420 C   0  0  2  0  0  3  0  0  0  0  0  0
  190.5350  175.0830  142.8740 C   0  0  2  0  0  3  0  0  0  0  0  0
  192.1490  173.9160  141.5540 C   0  0  2  0  0  3  0  0  0  0  0  0
  189.4670  176.1770  142.8490 C   0  0  2  0  0  3  0  0  0  0  0  0
  191.5860  171.8640  140.2670 C   0  0  0  0  0  2  0  0  0  0  0  0
  192.7240  174.4650  142.8570 C   0  0  2  0  0  3  0  0  0  0  0  0
  194.5050  172.4120  143.1640 O   0  0  0  0  0  1  0  0  0  0  0  0
  188.2760  173.4510  141.3170 C   0  0  0  0  0  2  0  0  0  0  0  0
  190.1020  171.9340  140.6460 C   0  0  0  0  0  2  0  0  0  0  0  0
  192.6000  173.5200  143.9100 O   0  0  0  0  0  0  0  0  0  0  0  0
  190.0670  177.6940  145.0110 C   0  0  0  0  0  2  0  0  0  0  0  0
  190.3340  178.2180  143.6010 C   0  0  1  0  0  3  0  0  0  0  0  0
  189.7160  173.0500  141.6320 C   0  0  1  0  0  3  0  0  0  0  0  0
  191.8710  175.6290  143.1270 N   0  0  2  0  0  0  0  0  0  0  0  0
  192.3910  171.6760  142.5240 O   0  0  0  0  0  0  0  0  0  0  0  0
  188.2200  175.8570  142.0020 C   0  0  1  0  0  3  0  0  0  0  0  0
  193.1160  171.4500  144.6510 F   0  0  0  0  0  0  0  0  0  0  0  0
  191.4920  177.6960  144.4830 C   0  0  2  0  0  3  0  0  0  0  0  0
  191.9650  176.2180  144.4800 C   0  0  2  0  0  3  0  0  0  0  0  0
  187.6950  174.4560  142.3030 C   0  0  0  0  0  2  0  0  0  0  0  0
  186.0910  176.4150  143.2440 C   0  0  0  0  0  2  0  0  0  0  0  0
  187.0900  176.8760  142.1870 C   0  0  2  0  0  3  0  0  0  0  0  0
  186.3900  177.2310  140.8680 C   0  0  0  0  0  2  0  0  0  0  0  0
  184.6530  178.6860  140.1250 O   0  0  0  0  0  0  0  0  0  0  0  0
  184.4960  178.0540  142.3590 N   0  0  0  0  0  2  0  0  0  0  0  0
  185.1580  178.0560  141.0900 C   0  0  0  0  0  0  0  0  0  0  0  0
  185.1490  177.5660  143.5700 C   0  0  0  0  0  2  0  0  0  0  0  0
  193.4230  176.2490  145.0010 C   0  0  1  0  0  3  0  0  0  0  0  0
  193.5750  176.3880  146.4810 N   0  0  0  0  0  0  0  0  0  0  0  0
  193.7530  175.0870  145.8230 C   0  0  2  0  0  3  0  0  0  0  0  0
  195.2320  174.7870  145.7010 C   0  0  0  0  0  2  0  0  0  0  0  0
  195.4470  173.4390  145.9150 F   0  0  0  0  0  0  0  0  0  0  0  0
  192.1510  174.9460  147.6090 F   0  0  0  0  0  0  0  0  0  0  0  0
  192.3320  176.2640  147.2350 C   0  0  0  0  0  2  0  0  0  0  0  0
  1 10  1  6  0  0  0
  1 13  1  0  0  0  0
  1 20  1  0  0  0  0
  2 16  1  0  0  0  0
  2  5  1  0  0  0  0
  3  7  1  0  0  0  0
  3 15  1  0  0  0  0
  4  6  1  0  0  0  0
  4 18  1  0  0  0  0
  5 17  1  0  0  0  0
  6  2  1  0  0  0  0
  6  9  1  0  0  0  0
  7  5  1  0  0  0  0
  8 12  1  0  0  0  0
  8  4  1  0  0  0  0
  9 17  1  0  0  0  0
  9 13  1  0  0  0  0
 11 16  1  0  0  0  0
 11 23  1  0  0  0  0
 12 16  1  0  0  0  0
 15 21  1  0  0  0  0
 15 14  1  0  0  0  0
 17 22  1  0  0  0  0
 18  1  1  0  0  0  0
 19 25  1  0  0  0  0
 19 23  1  0  0  0  0
 19  7  1  0  0  0  0
 21 14  1  0  0  0  0
 22 21  1  0  0  0  0
 22 31  1  0  0  0  0
 24 30  1  0  0  0  0
 25 24  1  0  0  0  0
 26 29  1  0  0  0  0
 26 25  1  0  0  0  0
 27 29  2  0  0  0  0
 28 30  1  0  0  0  0
 29 28  1  0  0  0  0
 31 33  1  0  0  0  0
 31 32  1  0  0  0  0
 32 37  1  0  0  0  0
 33 32  1  0  0  0  0
 34 33  1  0  0  0  0
 34 35  1  0  0  0  0
 37 36  1  0  0  0  0
M  END
>  <MODEL>
1

>  <REMARK>
 VINA RESULT:      -8.1      0.000      0.000
  Name = 
  4 active torsions:
  status: ('A' for Active; 'I' for Inactive)
    1  A    between atoms: C_1  and  C_27
    2  A    between atoms: N_4  and  C_37
    3  A    between atoms: C_8  and  C_12
    4  A    between atoms: C_23  and  C_30
                            x       y       z     vdW  Elec       q    Type
                         _______ _______ _______ _____ _____    ______ ____

>  <TORSDO>
F 4

$$$$
=
 OpenBabel11112417323D

 37 44  0  0  1  0  0  0  0  0999 V2000
  193.3100  174.9280  145.1750 C   0  0  1  0  0  0  0  0  0  0  0  0
  189.5980  175.4530  145.0650 C   0  0  1  0  0  3  0  0  0  0  0  0
  187.8830  174.1720  142.5540 O   0  0  0  0  0  0  0  0  0  0  0  0
  191.5860  175.0640  146.7020 C   0  0  2  0  0  3  0  0  0  0  0  0
  189.7700  175.2330  143.5620 C   0  0  2  0  0  3  0  0  0  0  0  0
  190.6200  174.4800  145.6650 C   0  0  2  0  0  3  0  0  0  0  0  0
  188.5010  175.4190  142.7310 C   0  0  2  0  0  3  0  0  0  0  0  0
  190.8170  175.9820  147.6380 C   0  0  0  0  0  2  0  0  0  0  0  0
  191.3500  173.8710  144.4710 C   0  0  2  0  0  3  0  0  0  0  0  0
  193.7560  173.7330  145.7630 O   0  0  0  0  0  1  0  0  0  0  0  0
  188.6170  177.7870  145.0920 C   0  0  0  0  0  2  0  0  0  0  0  0
  190.1670  177.1630  146.9070 C   0  0  0  0  0  2  0  0  0  0  0  0
  192.4540  174.6750  144.0810 O   0  0  0  0  0  0  0  0  0  0  0  0
  189.1490  174.3250  140.3380 C   0  0  0  0  0  2  0  0  0  0  0  0
  188.1750  173.6130  141.2760 C   0  0  1  0  0  3  0  0  0  0  0  0
  189.8390  176.9310  145.4220 C   0  0  1  0  0  3  0  0  0  0  0  0
  190.3260  173.8840  143.4200 N   0  0  2  0  0  0  0  0  0  0  0  0
  192.6640  175.7590  146.1160 O   0  0  0  0  0  0  0  0  0  0  0  0
  187.5200  176.4830  143.2600 C   0  0  1  0  0  3  0  0  0  0  0  0
  194.4160  175.6050  144.7000 F   0  0  0  0  0  0  0  0  0  0  0  0
  189.6370  173.1280  141.1370 C   0  0  2  0  0  3  0  0  0  0  0  0
  190.7930  173.6380  142.0380 C   0  0  2  0  0  3  0  0  0  0  0  0
  188.2480  177.7760  143.6140 C   0  0  0  0  0  2  0  0  0  0  0  0
  186.8890  177.5410  141.0530 C   0  0  0  0  0  2  0  0  0  0  0  0
  186.3810  176.7910  142.2810 C   0  0  2  0  0  3  0  0  0  0  0  0
  185.2100  177.5260  142.9470 C   0  0  0  0  0  2  0  0  0  0  0  0
  183.0570  178.3440  142.3280 O   0  0  0  0  0  0  0  0  0  0  0  0
  184.5730  178.1870  140.5700 N   0  0  0  0  0  2  0  0  0  0  0  0
  184.2060  178.0090  141.9430 C   0  0  0  0  0  0  0  0  0  0  0  0
  185.7810  177.5900  140.0100 C   0  0  0  0  0  2  0  0  0  0  0  0
  191.8800  172.5370  141.9790 C   0  0  1  0  0  3  0  0  0  0  0  0
  192.7000  172.5080  140.7310 N   0  0  0  0  0  0  0  0  0  0  0  0
  193.2350  173.0830  141.9720 C   0  0  2  0  0  3  0  0  0  0  0  0
  194.1820  172.0910  142.6140 C   0  0  0  0  0  2  0  0  0  0  0  0
  195.2460  172.7680  143.1780 F   0  0  0  0  0  0  0  0  0  0  0  0
  191.9250  173.2140  138.6620 F   0  0  0  0  0  0  0  0  0  0  0  0
  192.4980  173.6470  139.8420 C   0  0  0  0  0  2  0  0  0  0  0  0
  1 20  1  6  0  0  0
  1 10  1  0  0  0  0
  1 18  1  0  0  0  0
  2 16  1  0  0  0  0
  2  6  1  0  0  0  0
  3  7  1  0  0  0  0
  4  8  1  0  0  0  0
  5  2  1  0  0  0  0
  6  4  1  0  0  0  0
  7 19  1  0  0  0  0
  7  5  1  0  0  0  0
  9  6  1  0  0  0  0
 11 16  1  0  0  0  0
 12  8  1  0  0  0  0
 13  9  1  0  0  0  0
 13  1  1  0  0  0  0
 14 21  1  0  0  0  0
 14 15  1  0  0  0  0
 15  3  1  0  0  0  0
 16 12  1  0  0  0  0
 17  5  1  0  0  0  0
 17  9  1  0  0  0  0
 18  4  1  0  0  0  0
 19 23  1  0  0  0  0
 21 15  1  0  0  0  0
 21 22  1  0  0  0  0
 22 17  1  0  0  0  0
 23 11  1  0  0  0  0
 24 25  1  0  0  0  0
 25 26  1  0  0  0  0
 25 19  1  0  0  0  0
 28 29  1  0  0  0  0
 29 27  2  0  0  0  0
 29 26  1  0  0  0  0
 30 28  1  0  0  0  0
 30 24  1  0  0  0  0
 31 22  1  0  0  0  0
 32 33  1  0  0  0  0
 32 31  1  0  0  0  0
 33 31  1  0  0  0  0
 33 34  1  0  0  0  0
 34 35  1  0  0  0  0
 36 37  1  0  0  0  0
 37 32  1  0  0  0  0
M  END
>  <MODEL>
2

>  <REMARK>
 VINA RESULT:      -8.1      2.144      4.653
  Name = 
  4 active torsions:
  status: ('A' for Active; 'I' for Inactive)
    1  A    between atoms: C_1  and  C_27
    2  A    between atoms: N_4  and  C_37
    3  A    between atoms: C_8  and  C_12
    4  A    between atoms: C_23  and  C_30
                            x       y       z     vdW  Elec       q    Type
                         _______ _______ _______ _____ _____    ______ ____

>  <TORSDO>
F 4

$$$$
=
 OpenBabel11112417323D

 37 44  0  0  1  0  0  0  0  0999 V2000
  186.8090  176.6870  147.0970 C   0  0  1  0  0  0  0  0  0  0  0  0
  189.3520  175.9440  144.4410 C   0  0  1  0  0  3  0  0  0  0  0  0
  188.8210  177.0460  141.3770 O   0  0  0  0  0  0  0  0  0  0  0  0
  189.1050  176.4970  146.9750 C   0  0  2  0  0  3  0  0  0  0  0  0
  188.1750  176.1280  143.4850 C   0  0  2  0  0  3  0  0  0  0  0  0
  189.0700  176.9920  145.5240 C   0  0  2  0  0  3  0  0  0  0  0  0
  188.4840  175.8430  142.0140 C   0  0  2  0  0  3  0  0  0  0  0  0
  190.2920  175.5650  147.1540 C   0  0  0  0  0  2  0  0  0  0  0  0
  187.7220  177.6060  145.1540 C   0  0  2  0  0  3  0  0  0  0  0  0
  186.9310  177.9220  147.7520 O   0  0  0  0  0  1  0  0  0  0  0  0
  190.0200  173.5580  143.9170 C   0  0  0  0  0  2  0  0  0  0  0  0
  190.2140  174.3260  146.2530 C   0  0  0  0  0  2  0  0  0  0  0  0
  186.6490  176.8570  145.7040 O   0  0  0  0  0  0  0  0  0  0  0  0
  186.3590  176.9000  140.7070 C   0  0  0  0  0  2  0  0  0  0  0  0
  187.7240  177.5820  140.6430 C   0  0  1  0  0  3  0  0  0  0  0  0
  189.4030  174.4940  144.9560 C   0  0  1  0  0  3  0  0  0  0  0  0
  187.7070  177.5020  143.6900 N   0  0  2  0  0  0  0  0  0  0  0  0
  187.9140  175.8480  147.3610 O   0  0  0  0  0  0  0  0  0  0  0  0
  189.5310  174.7410  141.7660 C   0  0  1  0  0  3  0  0  0  0  0  0
  185.6770  176.0610  147.5800 F   0  0  0  0  0  0  0  0  0  0  0  0
  186.6000  178.1470  141.5420 C   0  0  2  0  0  3  0  0  0  0  0  0
  186.4060  177.7330  143.0240 C   0  0  2  0  0  3  0  0  0  0  0  0
  189.2390  173.5030  142.6100 C   0  0  0  0  0  2  0  0  0  0  0  0
  188.2970  173.8740  139.7380 C   0  0  0  0  0  2  0  0  0  0  0  0
  189.6410  174.3380  140.2910 C   0  0  2  0  0  3  0  0  0  0  0  0
  190.7420  173.2970  140.0420 C   0  0  0  0  0  2  0  0  0  0  0  0
  191.6960  172.1440  138.1850 O   0  0  0  0  0  0  0  0  0  0  0  0
  189.4980  172.8380  137.8670 N   0  0  0  0  0  2  0  0  0  0  0  0
  190.6970  172.7550  138.6450 C   0  0  0  0  0  0  0  0  0  0  0  0
  188.4060  173.7380  138.2250 C   0  0  0  0  0  2  0  0  0  0  0  0
  185.6160  178.8930  143.6780 C   0  0  1  0  0  3  0  0  0  0  0  0
  184.2150  179.0710  143.1930 N   0  0  0  0  0  0  0  0  0  0  0  0
  184.4900  178.4240  144.4820 C   0  0  2  0  0  3  0  0  0  0  0  0
  184.2250  179.4090  145.6020 C   0  0  0  0  0  2  0  0  0  0  0  0
  183.9540  178.7190  146.7680 F   0  0  0  0  0  0  0  0  0  0  0  0
  183.3550  178.5290  141.1070 F   0  0  0  0  0  0  0  0  0  0  0  0
  183.7280  178.0010  142.3290 C   0  0  0  0  0  2  0  0  0  0  0  0
  1 18  1  0  0  0  0
  1 20  1  1  0  0  0
  1 10  1  0  0  0  0
  2 16  1  0  0  0  0
  2  6  1  0  0  0  0
  3  7  1  0  0  0  0
  4  8  1  0  0  0  0
  4 18  1  0  0  0  0
  5 17  1  0  0  0  0
  5  2  1  0  0  0  0
  6  4  1  0  0  0  0
  7  5  1  0  0  0  0
  9  6  1  0  0  0  0
  9 13  1  0  0  0  0
 11 16  1  0  0  0  0
 12  8  1  0  0  0  0
 13  1  1  0  0  0  0
 14 21  1  0  0  0  0
 15 14  1  0  0  0  0
 15  3  1  0  0  0  0
 15 21  1  0  0  0  0
 16 12  1  0  0  0  0
 17  9  1  0  0  0  0
 19  7  1  0  0  0  0
 19 23  1  0  0  0  0
 21 22  1  0  0  0  0
 22 31  1  0  0  0  0
 22 17  1  0  0  0  0
 23 11  1  0  0  0  0
 24 25  1  0  0  0  0
 25 19  1  0  0  0  0
 26 25  1  0  0  0  0
 27 29  2  0  0  0  0
 28 30  1  0  0  0  0
 28 29  1  0  0  0  0
 29 26  1  0  0  0  0
 30 24  1  0  0  0  0
 31 33  1  0  0  0  0
 32 31  1  0  0  0  0
 32 33  1  0  0  0  0
 33 34  1  0  0  0  0
 34 35  1  0  0  0  0
 36 37  1  0  0  0  0
 37 32  1  0  0  0  0
M  END
>  <MODEL>
3

>  <REMARK>
 VINA RESULT:      -8.0      3.849      7.309
  Name = 
  4 active torsions:
  status: ('A' for Active; 'I' for Inactive)
    1  A    between atoms: C_1  and  C_27
    2  A    between atoms: N_4  and  C_37
    3  A    between atoms: C_8  and  C_12
    4  A    between atoms: C_23  and  C_30
                            x       y       z     vdW  Elec       q    Type
                         _______ _______ _______ _____ _____    ______ ____

>  <TORSDO>
F 4

$$$$
=
 OpenBabel11112417323D

 37 44  0  0  1  0  0  0  0  0999 V2000
  191.1530  175.8030  147.6640 C   0  0  1  0  0  0  0  0  0  0  0  0
  191.9230  175.3320  144.0230 C   0  0  1  0  0  3  0  0  0  0  0  0
  189.7060  176.3170  141.7870 O   0  0  0  0  0  0  0  0  0  0  0  0
  193.0240  175.8900  146.3170 C   0  0  2  0  0  3  0  0  0  0  0  0
  190.4040  175.3590  143.8600 C   0  0  2  0  0  3  0  0  0  0  0  0
  192.1570  176.3550  145.1420 C   0  0  2  0  0  3  0  0  0  0  0  0
  189.9000  175.0920  142.4410 C   0  0  2  0  0  3  0  0  0  0  0  0
  194.2130  175.1090  145.7810 C   0  0  0  0  0  2  0  0  0  0  0  0
  190.7660  176.7970  145.5860 C   0  0  2  0  0  3  0  0  0  0  0  0
  191.4730  177.0540  148.2150 O   0  0  0  0  0  1  0  0  0  0  0  0
  192.4580  173.0370  143.0970 C   0  0  0  0  0  2  0  0  0  0  0  0
  193.7970  173.8570  145.0000 C   0  0  0  0  0  2  0  0  0  0  0  0
  190.2490  175.9320  146.5860 O   0  0  0  0  0  0  0  0  0  0  0  0
  187.3050  175.8660  142.5380 C   0  0  0  0  0  2  0  0  0  0  0  0
  188.3360  176.7060  141.7860 C   0  0  1  0  0  3  0  0  0  0  0  0
  192.4020  173.9070  144.3520 C   0  0  1  0  0  3  0  0  0  0  0  0
  189.9740  176.6690  144.3560 N   0  0  2  0  0  0  0  0  0  0  0  0
  192.3090  175.1080  147.2480 O   0  0  0  0  0  0  0  0  0  0  0  0
  190.7610  174.1200  141.6120 C   0  0  1  0  0  3  0  0  0  0  0  0
  190.5360  175.0530  148.6460 F   0  0  0  0  0  0  0  0  0  0  0  0
  187.8210  177.1450  143.1770 C   0  0  2  0  0  3  0  0  0  0  0  0
  188.5040  176.7320  144.5070 C   0  0  2  0  0  3  0  0  0  0  0  0
  191.1070  172.8690  142.4140 C   0  0  0  0  0  2  0  0  0  0  0  0
  188.8960  172.8060  140.5250 C   0  0  0  0  0  2  0  0  0  0  0  0
  190.1010  173.7110  140.2900 C   0  0  2  0  0  3  0  0  0  0  0  0
  191.0930  173.0830  139.3010 C   0  0  0  0  0  2  0  0  0  0  0  0
  191.0690  172.2300  137.0750 O   0  0  0  0  0  0  0  0  0  0  0  0
  189.0160  172.1430  138.1660 N   0  0  0  0  0  2  0  0  0  0  0  0
  190.4020  172.4960  138.1080 C   0  0  0  0  0  0  0  0  0  0  0  0
  188.1340  172.6460  139.2150 C   0  0  0  0  0  2  0  0  0  0  0  0
  188.0710  177.7980  145.5430 C   0  0  1  0  0  3  0  0  0  0  0  0
  186.6280  177.7700  145.9310 N   0  0  0  0  0  0  0  0  0  0  0  0
  187.6580  177.2120  146.8160 C   0  0  2  0  0  3  0  0  0  0  0  0
  187.9380  178.1910  147.9360 C   0  0  0  0  0  2  0  0  0  0  0  0
  186.7830  178.8850  148.2410 F   0  0  0  0  0  0  0  0  0  0  0  0
  184.8720  176.3060  146.3230 F   0  0  0  0  0  0  0  0  0  0  0  0
  185.8870  176.6150  145.4370 C   0  0  0  0  0  2  0  0  0  0  0  0
  1 10  1  1  0  0  0
  1 20  1  0  0  0  0
  2 16  1  0  0  0  0
  2  6  1  0  0  0  0
  3  7  1  0  0  0  0
  4 18  1  0  0  0  0
  5  2  1  0  0  0  0
  5 17  1  0  0  0  0
  6  9  1  0  0  0  0
  6  4  1  0  0  0  0
  7  5  1  0  0  0  0
  8  4  1  0  0  0  0
  9 13  1  0  0  0  0
 11 16  1  0  0  0  0
 12  8  1  0  0  0  0
 13  1  1  0  0  0  0
 14 21  1  0  0  0  0
 15  3  1  0  0  0  0
 15 14  1  0  0  0  0
 15 21  1  0  0  0  0
 16 12  1  0  0  0  0
 17 22  1  0  0  0  0
 17  9  1  0  0  0  0
 18  1  1  0  0  0  0
 19 23  1  0  0  0  0
 19  7  1  0  0  0  0
 21 22  1  0  0  0  0
 22 31  1  0  0  0  0
 23 11  1  0  0  0  0
 25 24  1  0  0  0  0
 25 19  1  0  0  0  0
 26 25  1  0  0  0  0
 27 29  2  0  0  0  0
 28 30  1  0  0  0  0
 29 28  1  0  0  0  0
 29 26  1  0  0  0  0
 30 24  1  0  0  0  0
 31 32  1  0  0  0  0
 31 33  1  0  0  0  0
 32 33  1  0  0  0  0
 33 34  1  0  0  0  0
 34 35  1  0  0  0  0
 37 32  1  0  0  0  0
 37 36  1  0  0  0  0
M  END
>  <MODEL>
4

>  <REMARK>
 VINA RESULT:      -7.6      3.055      5.815
  Name = 
  4 active torsions:
  status: ('A' for Active; 'I' for Inactive)
    1  A    between atoms: C_1  and  C_27
    2  A    between atoms: N_4  and  C_37
    3  A    between atoms: C_8  and  C_12
    4  A    between atoms: C_23  and  C_30
                            x       y       z     vdW  Elec       q    Type
                         _______ _______ _______ _____ _____    ______ ____

>  <TORSDO>
F 4

$$$$
=
 OpenBabel11112417323D

 37 44  0  0  1  0  0  0  0  0999 V2000
  185.5100  179.1500  143.7020 C   0  0  1  0  0  0  0  0  0  0  0  0
  188.3220  176.7620  143.0230 C   0  0  1  0  0  3  0  0  0  0  0  0
  189.5330  174.9780  145.5200 O   0  0  0  0  0  0  0  0  0  0  0  0
  186.1570  177.7630  141.9760 C   0  0  2  0  0  3  0  0  0  0  0  0
  188.6240  176.9420  144.5100 C   0  0  2  0  0  3  0  0  0  0  0  0
  186.7890  176.7990  142.9860 C   0  0  2  0  0  3  0  0  0  0  0  0
  189.8860  176.2340  145.0040 C   0  0  2  0  0  3  0  0  0  0  0  0
  186.9160  177.6760  140.6610 C   0  0  0  0  0  2  0  0  0  0  0  0
  186.3560  177.0940  144.4190 C   0  0  2  0  0  3  0  0  0  0  0  0
  184.2120  178.6150  143.6650 O   0  0  0  0  0  1  0  0  0  0  0  0
  190.4910  177.5720  141.9980 C   0  0  0  0  0  2  0  0  0  0  0  0
  188.3910  178.0700  140.8030 C   0  0  0  0  0  2  0  0  0  0  0  0
  186.3100  178.4920  144.6620 O   0  0  0  0  0  0  0  0  0  0  0  0
  189.6320  176.3060  147.7010 C   0  0  0  0  0  2  0  0  0  0  0  0
  189.4500  174.9930  146.9420 C   0  0  1  0  0  3  0  0  0  0  0  0
  189.0060  177.8690  142.1990 C   0  0  1  0  0  3  0  0  0  0  0  0
  187.4250  176.4820  145.2170 N   0  0  2  0  0  0  0  0  0  0  0  0
  186.1290  179.0960  142.4340 O   0  0  0  0  0  0  0  0  0  0  0  0
  191.0300  176.1400  143.9770 C   0  0  1  0  0  3  0  0  0  0  0  0
  185.4110  180.4770  144.0700 F   0  0  0  0  0  0  0  0  0  0  0  0
  188.2270  175.7730  147.4770 C   0  0  2  0  0  3  0  0  0  0  0  0
  187.4720  176.8470  146.6490 C   0  0  2  0  0  3  0  0  0  0  0  0
  191.2760  177.4850  143.3010 C   0  0  0  0  0  2  0  0  0  0  0  0
  192.8020  176.5090  145.7420 C   0  0  0  0  0  2  0  0  0  0  0  0
  192.3420  175.6280  144.5850 C   0  0  2  0  0  3  0  0  0  0  0  0
  193.4500  175.4500  143.5370 C   0  0  0  0  0  2  0  0  0  0  0  0
  195.7070  174.6850  143.4660 O   0  0  0  0  0  0  0  0  0  0  0  0
  195.0310  175.5080  145.5340 N   0  0  0  0  0  2  0  0  0  0  0  0
  194.7780  175.1600  144.1690 C   0  0  0  0  0  0  0  0  0  0  0  0
  193.9500  175.8170  146.4650 C   0  0  0  0  0  2  0  0  0  0  0  0
  186.0580  176.9340  147.2740 C   0  0  1  0  0  3  0  0  0  0  0  0
  185.8980  177.9410  148.3660 N   0  0  0  0  0  0  0  0  0  0  0  0
  185.4030  178.2120  147.0110 C   0  0  2  0  0  3  0  0  0  0  0  0
  183.9020  178.0120  146.9770 C   0  0  0  0  0  2  0  0  0  0  0  0
  183.3150  179.0490  146.2780 F   0  0  0  0  0  0  0  0  0  0  0  0
  186.6200  180.1450  148.3790 F   0  0  0  0  0  0  0  0  0  0  0  0
  187.0350  178.8370  148.5410 C   0  0  0  0  0  2  0  0  0  0  0  0
  1 10  1  6  0  0  0
  1 20  1  0  0  0  0
  1 13  1  0  0  0  0
  2  5  1  0  0  0  0
  3 15  1  0  0  0  0
  4 18  1  0  0  0  0
  4  6  1  0  0  0  0
  5  7  1  0  0  0  0
  5 17  1  0  0  0  0
  6  2  1  0  0  0  0
  6  9  1  0  0  0  0
  7  3  1  0  0  0  0
  8 12  1  0  0  0  0
  8  4  1  0  0  0  0
  9 13  1  0  0  0  0
  9 17  1  0  0  0  0
 11 16  1  0  0  0  0
 11 23  1  0  0  0  0
 12 16  1  0  0  0  0
 15 21  1  0  0  0  0
 15 14  1  0  0  0  0
 16  2  1  0  0  0  0
 17 22  1  0  0  0  0
 18  1  1  0  0  0  0
 19 25  1  0  0  0  0
 19  7  1  0  0  0  0
 21 14  1  0  0  0  0
 22 31  1  0  0  0  0
 22 21  1  0  0  0  0
 23 19  1  0  0  0  0
 24 30  1  0  0  0  0
 25 24  1  0  0  0  0
 26 29  1  0  0  0  0
 26 25  1  0  0  0  0
 27 29  2  0  0  0  0
 28 30  1  0  0  0  0
 29 28  1  0  0  0  0
 31 32  1  0  0  0  0
 32 37  1  0  0  0  0
 33 31  1  0  0  0  0
 33 32  1  0  0  0  0
 34 33  1  0  0  0  0
 35 34  1  0  0  0  0
 36 37  1  0  0  0  0
M  END
>  <MODEL>
5

>  <REMARK>
 VINA RESULT:      -7.5      3.968      7.845
  Name = 
  4 active torsions:
  status: ('A' for Active; 'I' for Inactive)
    1  A    between atoms: C_1  and  C_27
    2  A    between atoms: N_4  and  C_37
    3  A    between atoms: C_8  and  C_12
    4  A    between atoms: C_23  and  C_30
                            x       y       z     vdW  Elec       q    Type
                         _______ _______ _______ _____ _____    ______ ____

>  <TORSDO>
F 4

$$$$
=
 OpenBabel11112417323D

 37 44  0  0  1  0  0  0  0  0999 V2000
  194.2890  174.1010  143.2240 C   0  0  1  0  0  0  0  0  0  0  0  0
  190.9220  175.0290  144.5910 C   0  0  1  0  0  3  0  0  0  0  0  0
  188.2260  174.2010  142.8790 O   0  0  0  0  0  0  0  0  0  0  0  0
  193.3080  174.2650  145.3050 C   0  0  2  0  0  3  0  0  0  0  0  0
  190.4810  174.9460  143.1300 C   0  0  2  0  0  3  0  0  0  0  0  0
  191.9510  173.8970  144.6950 C   0  0  2  0  0  3  0  0  0  0  0  0
  189.0300  175.3500  142.8680 C   0  0  2  0  0  3  0  0  0  0  0  0
  193.0840  175.1610  146.5130 C   0  0  0  0  0  2  0  0  0  0  0  0
  192.0830  173.3370  143.2810 C   0  0  2  0  0  3  0  0  0  0  0  0
  194.7550  172.8120  143.5280 O   0  0  0  0  0  1  0  0  0  0  0  0
  190.3570  177.4400  145.1190 C   0  0  0  0  0  2  0  0  0  0  0  0
  192.3760  176.4730  146.1540 C   0  0  0  0  0  2  0  0  0  0  0  0
  193.0560  174.0530  142.5360 O   0  0  0  0  0  0  0  0  0  0  0  0
  188.5660  174.4410  140.3580 C   0  0  0  0  0  2  0  0  0  0  0  0
  187.9320  173.7470  141.5620 C   0  0  1  0  0  3  0  0  0  0  0  0
  191.4820  176.4290  144.9030 C   0  0  1  0  0  3  0  0  0  0  0  0
  190.7490  173.5670  142.7130 N   0  0  2  0  0  0  0  0  0  0  0  0
  194.1690  174.8970  144.3840 O   0  0  0  0  0  0  0  0  0  0  0  0
  188.4790  176.4540  143.7920 C   0  0  1  0  0  3  0  0  0  0  0  0
  195.2150  174.7000  142.3920 F   0  0  0  0  0  0  0  0  0  0  0  0
  189.1510  173.1240  140.8400 C   0  0  2  0  0  3  0  0  0  0  0  0
  190.6200  173.4130  141.2470 C   0  0  2  0  0  3  0  0  0  0  0  0
  189.4580  177.6190  143.9020 C   0  0  0  0  0  2  0  0  0  0  0  0
  187.1300  177.4350  141.8930 C   0  0  0  0  0  2  0  0  0  0  0  0
  187.1090  176.9800  143.3490 C   0  0  2  0  0  3  0  0  0  0  0  0
  186.5690  178.0780  144.2750 C   0  0  0  0  0  2  0  0  0  0  0  0
  184.6030  179.4140  144.4720 O   0  0  0  0  0  0  0  0  0  0  0  0
  185.0510  178.6660  142.3150 N   0  0  0  0  0  2  0  0  0  0  0  0
  185.3400  178.7300  143.7160 C   0  0  0  0  0  0  0  0  0  0  0  0
  185.7020  177.6980  141.4360 C   0  0  0  0  0  2  0  0  0  0  0  0
  191.4410  172.2140  140.7130 C   0  0  1  0  0  3  0  0  0  0  0  0
  191.6690  172.1960  139.2370 N   0  0  0  0  0  0  0  0  0  0  0  0
  192.7310  172.6160  140.1590 C   0  0  2  0  0  3  0  0  0  0  0  0
  193.7250  171.4860  140.3240 C   0  0  0  0  0  2  0  0  0  0  0  0
  194.9910  172.0090  140.5060 F   0  0  0  0  0  0  0  0  0  0  0  0
  190.2490  173.1230  137.6530 F   0  0  0  0  0  0  0  0  0  0  0  0
  191.2660  173.4150  138.5430 C   0  0  0  0  0  2  0  0  0  0  0  0
  1 20  1  6  0  0  0
  1 10  1  0  0  0  0
  1 18  1  0  0  0  0
  2  6  1  0  0  0  0
  2 16  1  0  0  0  0
  4  8  1  0  0  0  0
  5  2  1  0  0  0  0
  6  4  1  0  0  0  0
  7  3  1  0  0  0  0
  7  5  1  0  0  0  0
  7 19  1  0  0  0  0
  9  6  1  0  0  0  0
 12  8  1  0  0  0  0
 13  1  1  0  0  0  0
 13  9  1  0  0  0  0
 14 21  1  0  0  0  0
 14 15  1  0  0  0  0
 15  3  1  0  0  0  0
 16 11  1  0  0  0  0
 16 12  1  0  0  0  0
 17  5  1  0  0  0  0
 17  9  1  0  0  0  0
 18  4  1  0  0  0  0
 19 23  1  0  0  0  0
 21 22  1  0  0  0  0
 21 15  1  0  0  0  0
 22 17  1  0  0  0  0
 23 11  1  0  0  0  0
 24 25  1  0  0  0  0
 25 19  1  0  0  0  0
 25 26  1  0  0  0  0
 28 29  1  0  0  0  0
 29 26  1  0  0  0  0
 29 27  2  0  0  0  0
 30 24  1  0  0  0  0
 30 28  1  0  0  0  0
 31 22  1  0  0  0  0
 32 33  1  0  0  0  0
 32 31  1  0  0  0  0
 33 34  1  0  0  0  0
 33 31  1  0  0  0  0
 34 35  1  0  0  0  0
 36 37  1  0  0  0  0
 37 32  1  0  0  0  0
M  END
>  <MODEL>
6

>  <REMARK>
 VINA RESULT:      -7.4      2.380      4.887
  Name = 
  4 active torsions:
  status: ('A' for Active; 'I' for Inactive)
    1  A    between atoms: C_1  and  C_27
    2  A    between atoms: N_4  and  C_37
    3  A    between atoms: C_8  and  C_12
    4  A    between atoms: C_23  and  C_30
                            x       y       z     vdW  Elec       q    Type
                         _______ _______ _______ _____ _____    ______ ____

>  <TORSDO>
F 4

$$$$
=
 OpenBabel11112417323D

 37 44  0  0  1  0  0  0  0  0999 V2000
  193.0290  172.1290  142.3710 C   0  0  1  0  0  0  0  0  0  0  0  0
  190.2740  174.4340  141.2920 C   0  0  1  0  0  3  0  0  0  0  0  0
  190.1550  177.4770  142.5620 O   0  0  0  0  0  0  0  0  0  0  0  0
  191.8490  172.5460  140.4330 C   0  0  2  0  0  3  0  0  0  0  0  0
  190.5370  175.1200  142.6310 C   0  0  2  0  0  3  0  0  0  0  0  0
  191.6800  174.0110  140.8500 C   0  0  2  0  0  3  0  0  0  0  0  0
  189.5810  176.2640  142.9720 C   0  0  2  0  0  3  0  0  0  0  0  0
  190.6610  172.1310  139.5800 C   0  0  0  0  0  2  0  0  0  0  0  0
  192.6000  174.3960  142.0050 C   0  0  2  0  0  3  0  0  0  0  0  0
  194.2420  172.2340  141.6730 O   0  0  0  0  0  1  0  0  0  0  0  0
  187.8450  173.7710  141.5700 C   0  0  0  0  0  2  0  0  0  0  0  0
  189.3280  172.2380  140.3300 C   0  0  0  0  0  2  0  0  0  0  0  0
  192.6720  173.3570  142.9710 O   0  0  0  0  0  0  0  0  0  0  0  0
  190.8130  177.5230  145.0310 C   0  0  0  0  0  2  0  0  0  0  0  0
  190.7590  178.1720  143.6490 C   0  0  1  0  0  3  0  0  0  0  0  0
  189.2850  173.2670  141.4720 C   0  0  1  0  0  3  0  0  0  0  0  0
  191.9310  175.5680  142.5810 N   0  0  2  0  0  0  0  0  0  0  0  0
  191.9860  171.6750  141.5340 O   0  0  0  0  0  0  0  0  0  0  0  0
  188.1420  176.0950  142.4470 C   0  0  1  0  0  3  0  0  0  0  0  0
  193.1990  171.1990  143.3790 F   0  0  0  0  0  0  0  0  0  0  0  0
  192.0580  177.5050  144.1590 C   0  0  2  0  0  3  0  0  0  0  0  0
  192.4030  176.0130  143.9100 C   0  0  2  0  0  3  0  0  0  0  0  0
  187.6050  174.7000  142.7520 C   0  0  0  0  0  2  0  0  0  0  0  0
  187.1060  177.0960  144.5230 C   0  0  0  0  0  2  0  0  0  0  0  0
  187.1740  177.1470  143.0000 C   0  0  2  0  0  3  0  0  0  0  0  0
  185.7770  177.0540  142.3700 C   0  0  0  0  0  2  0  0  0  0  0  0
  183.7000  178.2190  142.5000 O   0  0  0  0  0  0  0  0  0  0  0  0
  185.0200  178.3830  144.4080 N   0  0  0  0  0  2  0  0  0  0  0  0
  184.7870  177.9380  143.0680 C   0  0  0  0  0  0  0  0  0  0  0  0
  186.3420  178.3150  145.0250 C   0  0  0  0  0  2  0  0  0  0  0  0
  193.9430  175.9160  144.0430 C   0  0  1  0  0  3  0  0  0  0  0  0
  194.4780  176.0360  145.4330 N   0  0  0  0  0  0  0  0  0  0  0  0
  194.3720  174.7280  144.7760 C   0  0  2  0  0  3  0  0  0  0  0  0
  195.7410  174.3020  144.2880 C   0  0  0  0  0  2  0  0  0  0  0  0
  196.6110  174.2350  145.3590 F   0  0  0  0  0  0  0  0  0  0  0  0
  193.5260  177.1920  147.2060 F   0  0  0  0  0  0  0  0  0  0  0  0
  193.4620  176.0170  146.4810 C   0  0  0  0  0  2  0  0  0  0  0  0
  1 10  1  6  0  0  0
  1 13  1  0  0  0  0
  1 20  1  0  0  0  0
  2 16  1  0  0  0  0
  2  5  1  0  0  0  0
  3  7  1  0  0  0  0
  3 15  1  0  0  0  0
  4  6  1  0  0  0  0
  4 18  1  0  0  0  0
  5  7  1  0  0  0  0
  6  2  1  0  0  0  0
  6  9  1  0  0  0  0
  8 12  1  0  0  0  0
  8  4  1  0  0  0  0
  9 17  1  0  0  0  0
  9 13  1  0  0  0  0
 11 23  1  0  0  0  0
 12 16  1  0  0  0  0
 15 21  1  0  0  0  0
 15 14  1  0  0  0  0
 16 11  1  0  0  0  0
 17  5  1  0  0  0  0
 17 22  1  0  0  0  0
 18  1  1  0  0  0  0
 19 23  1  0  0  0  0
 19  7  1  0  0  0  0
 19 25  1  0  0  0  0
 21 14  1  0  0  0  0
 22 31  1  0  0  0  0
 22 21  1  0  0  0  0
 24 30  1  0  0  0  0
 25 24  1  0  0  0  0
 26 25  1  0  0  0  0
 26 29  1  0  0  0  0
 27 29  2  0  0  0  0
 28 30  1  0  0  0  0
 29 28  1  0  0  0  0
 31 33  1  0  0  0  0
 31 32  1  0  0  0  0
 32 37  1  0  0  0  0
 33 32  1  0  0  0  0
 34 33  1  0  0  0  0
 34 35  1  0  0  0  0
 37 36  1  0  0  0  0
M  END
>  <MODEL>
7

>  <REMARK>
 VINA RESULT:      -7.4      1.214      1.282
  Name = 
  4 active torsions:
  status: ('A' for Active; 'I' for Inactive)
    1  A    between atoms: C_1  and  C_27
    2  A    between atoms: N_4  and  C_37
    3  A    between atoms: C_8  and  C_12
    4  A    between atoms: C_23  and  C_30
                            x       y       z     vdW  Elec       q    Type
                         _______ _______ _______ _____ _____    ______ ____

>  <TORSDO>
F 4

$$$$
=
 OpenBabel11112417323D

 37 44  0  0  1  0  0  0  0  0999 V2000
  190.1580  177.5650  144.6330 C   0  0  1  0  0  0  0  0  0  0  0  0
  189.2450  174.3160  142.9940 C   0  0  1  0  0  3  0  0  0  0  0  0
  191.2790  171.7400  143.3240 O   0  0  0  0  0  0  0  0  0  0  0  0
  188.2220  176.3880  144.1970 C   0  0  2  0  0  3  0  0  0  0  0  0
  190.7490  174.0510  143.0410 C   0  0  2  0  0  3  0  0  0  0  0  0
  188.9970  175.0700  144.3060 C   0  0  2  0  0  3  0  0  0  0  0  0
  191.2000  172.7580  142.3620 C   0  0  2  0  0  3  0  0  0  0  0  0
  187.0630  176.2050  143.2310 C   0  0  0  0  0  2  0  0  0  0  0  0
  190.3760  175.2580  144.9330 C   0  0  2  0  0  3  0  0  0  0  0  0
  189.7820  177.7150  145.9770 O   0  0  0  0  0  1  0  0  0  0  0  0
  188.8210  174.1960  140.5010 C   0  0  0  0  0  2  0  0  0  0  0  0
  187.5240  175.8310  141.8170 C   0  0  0  0  0  2  0  0  0  0  0  0
  190.9980  176.4430  144.4560 O   0  0  0  0  0  0  0  0  0  0  0  0
  193.7390  172.4320  143.2510 C   0  0  0  0  0  2  0  0  0  0  0  0
  192.6190  171.5250  143.7580 C   0  0  1  0  0  3  0  0  0  0  0  0
  188.8790  175.1080  141.7250 C   0  0  1  0  0  3  0  0  0  0  0  0
  191.1140  174.0810  144.4600 N   0  0  2  0  0  0  0  0  0  0  0  0
  189.0320  177.4670  143.7870 O   0  0  0  0  0  0  0  0  0  0  0  0
  190.3670  172.3350  141.1370 C   0  0  1  0  0  3  0  0  0  0  0  0
  190.8700  178.6890  144.2640 F   0  0  0  0  0  0  0  0  0  0  0  0
  193.1710  172.6690  144.6400 C   0  0  2  0  0  3  0  0  0  0  0  0
  192.5820  174.1050  144.6390 C   0  0  2  0  0  3  0  0  0  0  0  0
  190.1450  173.5110  140.1900 C   0  0  0  0  0  2  0  0  0  0  0  0
  192.4180  171.4800  139.9320 C   0  0  0  0  0  2  0  0  0  0  0  0
  190.9880  171.1670  140.3620 C   0  0  2  0  0  3  0  0  0  0  0  0
  190.1270  170.7210  139.1720 C   0  0  0  0  0  2  0  0  0  0  0  0
  190.1830  169.0390  137.4820 O   0  0  0  0  0  0  0  0  0  0  0  0
  192.2690  169.6360  138.3220 N   0  0  0  0  0  2  0  0  0  0  0  0
  190.8410  169.7310  138.3010 C   0  0  0  0  0  0  0  0  0  0  0  0
  193.0660  170.2080  139.4030 C   0  0  0  0  0  2  0  0  0  0  0  0
  192.9920  174.7220  145.9980 C   0  0  1  0  0  3  0  0  0  0  0  0
  194.4190  175.1510  146.1050 N   0  0  0  0  0  0  0  0  0  0  0  0
  193.3500  176.1340  145.8900 C   0  0  2  0  0  3  0  0  0  0  0  0
  193.0440  176.8330  147.1980 C   0  0  0  0  0  2  0  0  0  0  0  0
  191.9160  176.2730  147.7670 F   0  0  0  0  0  0  0  0  0  0  0  0
  195.3910  176.4110  144.4170 F   0  0  0  0  0  0  0  0  0  0  0  0
  195.1620  175.1180  144.8500 C   0  0  0  0  0  2  0  0  0  0  0  0
  1 20  1  6  0  0  0
  1 10  1  0  0  0  0
  2  5  1  0  0  0  0
  2  6  1  0  0  0  0
  3 15  1  0  0  0  0
  4  6  1  0  0  0  0
  5 17  1  0  0  0  0
  6  9  1  0  0  0  0
  7  5  1  0  0  0  0
  7  3  1  0  0  0  0
  8  4  1  0  0  0  0
 11 16  1  0  0  0  0
 12  8  1  0  0  0  0
 13  1  1  0  0  0  0
 13  9  1  0  0  0  0
 14 15  1  0  0  0  0
 14 21  1  0  0  0  0
 15 21  1  0  0  0  0
 16 12  1  0  0  0  0
 16  2  1  0  0  0  0
 17 22  1  0  0  0  0
 17  9  1  0  0  0  0
 18  4  1  0  0  0  0
 18  1  1  0  0  0  0
 19  7  1  0  0  0  0
 22 21  1  0  0  0  0
 22 31  1  0  0  0  0
 23 11  1  0  0  0  0
 23 19  1  0  0  0  0
 24 25  1  0  0  0  0
 25 19  1  0  0  0  0
 26 25  1  0  0  0  0
 27 29  2  0  0  0  0
 28 30  1  0  0  0  0
 29 28  1  0  0  0  0
 29 26  1  0  0  0  0
 30 24  1  0  0  0  0
 31 32  1  0  0  0  0
 33 31  1  0  0  0  0
 33 32  1  0  0  0  0
 33 34  1  0  0  0  0
 34 35  1  0  0  0  0
 36 37  1  0  0  0  0
 37 32  1  0  0  0  0
M  END
>  <MODEL>
8

>  <REMARK>
 VINA RESULT:      -7.1      2.464      6.071
  Name = 
  4 active torsions:
  status: ('A' for Active; 'I' for Inactive)
    1  A    between atoms: C_1  and  C_27
    2  A    between atoms: N_4  and  C_37
    3  A    between atoms: C_8  and  C_12
    4  A    between atoms: C_23  and  C_30
                            x       y       z     vdW  Elec       q    Type
                         _______ _______ _______ _____ _____    ______ ____

>  <TORSDO>
F 4

$$$$
=
 OpenBabel11112417323D

 37 44  0  0  1  0  0  0  0  0999 V2000
  187.8680  175.8990  142.1140 C   0  0  1  0  0  0  0  0  0  0  0  0
  190.9330  173.7810  142.5510 C   0  0  1  0  0  3  0  0  0  0  0  0
  192.4010  173.6960  145.5040 O   0  0  0  0  0  0  0  0  0  0  0  0
  188.6420  173.8780  141.3150 C   0  0  2  0  0  3  0  0  0  0  0  0
  191.2420  174.7420  143.6980 C   0  0  2  0  0  3  0  0  0  0  0  0
  189.4070  173.6520  142.6240 C   0  0  2  0  0  3  0  0  0  0  0  0
  192.5890  174.5200  144.3850 C   0  0  2  0  0  3  0  0  0  0  0  0
  189.3790  173.1830  140.1810 C   0  0  0  0  0  2  0  0  0  0  0  0
  188.9700  174.6160  143.7240 C   0  0  2  0  0  3  0  0  0  0  0  0
  186.6440  175.3090  142.4650 O   0  0  0  0  0  1  0  0  0  0  0  0
  192.9680  174.1260  141.0840 C   0  0  0  0  0  2  0  0  0  0  0  0
  190.7990  173.7260  139.9770 C   0  0  0  0  0  2  0  0  0  0  0  0
  188.7610  175.9220  143.2080 O   0  0  0  0  0  0  0  0  0  0  0  0
  192.3840  175.9750  146.6610 C   0  0  0  0  0  2  0  0  0  0  0  0
  192.3450  174.4490  146.7130 C   0  0  1  0  0  3  0  0  0  0  0  0
  191.4620  174.3460  141.2200 C   0  0  1  0  0  3  0  0  0  0  0  0
  190.1210  174.6160  144.6340 N   0  0  2  0  0  0  0  0  0  0  0  0
  188.4640  175.2440  141.0130 O   0  0  0  0  0  0  0  0  0  0  0  0
  193.7160  174.0050  143.4680 C   0  0  1  0  0  3  0  0  0  0  0  0
  187.6180  177.2070  141.7440 F   0  0  0  0  0  0  0  0  0  0  0  0
  191.0480  175.2780  146.8610 C   0  0  2  0  0  3  0  0  0  0  0  0
  190.1540  175.6820  145.6590 C   0  0  2  0  0  3  0  0  0  0  0  0
  193.7830  174.8100  142.1740 C   0  0  0  0  0  2  0  0  0  0  0  0
  196.1740  174.5300  143.2030 C   0  0  0  0  0  2  0  0  0  0  0  0
  195.0910  174.0120  144.1450 C   0  0  2  0  0  3  0  0  0  0  0  0
  195.4660  172.6470  144.7380 C   0  0  0  0  0  2  0  0  0  0  0  0
  197.2640  171.6950  145.9830 O   0  0  0  0  0  0  0  0  0  0  0  0
  197.8520  173.5380  144.6910 N   0  0  0  0  0  2  0  0  0  0  0  0
  196.8920  172.6090  145.2020 C   0  0  0  0  0  0  0  0  0  0  0  0
  197.4520  174.7590  143.9970 C   0  0  0  0  0  2  0  0  0  0  0  0
  188.7530  175.9540  146.2600 C   0  0  1  0  0  3  0  0  0  0  0  0
  188.6630  177.1280  147.1800 N   0  0  0  0  0  0  0  0  0  0  0  0
  188.1760  177.2140  145.7970 C   0  0  2  0  0  3  0  0  0  0  0  0
  186.6660  177.1060  145.7920 C   0  0  0  0  0  2  0  0  0  0  0  0
  186.1760  177.5630  144.5830 F   0  0  0  0  0  0  0  0  0  0  0  0
  189.8350  178.7500  148.3530 F   0  0  0  0  0  0  0  0  0  0  0  0
  189.8560  177.9670  147.2140 C   0  0  0  0  0  2  0  0  0  0  0  0
  1 20  1  6  0  0  0
  1 10  1  0  0  0  0
  1 13  1  0  0  0  0
  2  6  1  0  0  0  0
  2  5  1  0  0  0  0
  3 15  1  0  0  0  0
  4  6  1  0  0  0  0
  5  7  1  0  0  0  0
  5 17  1  0  0  0  0
  6  9  1  0  0  0  0
  7  3  1  0  0  0  0
  8  4  1  0  0  0  0
  9 17  1  0  0  0  0
 11 16  1  0  0  0  0
 11 23  1  0  0  0  0
 12  8  1  0  0  0  0
 12 16  1  0  0  0  0
 13  9  1  0  0  0  0
 14 15  1  0  0  0  0
 14 21  1  0  0  0  0
 15 21  1  0  0  0  0
 16  2  1  0  0  0  0
 17 22  1  0  0  0  0
 18  4  1  0  0  0  0
 18  1  1  0  0  0  0
 19 25  1  0  0  0  0
 19  7  1  0  0  0  0
 22 31  1  0  0  0  0
 22 21  1  0  0  0  0
 23 19  1  0  0  0  0
 24 30  1  0  0  0  0
 24 25  1  0  0  0  0
 25 26  1  0  0  0  0
 26 29  1  0  0  0  0
 28 29  1  0  0  0  0
 29 27  2  0  0  0  0
 30 28  1  0  0  0  0
 31 32  1  0  0  0  0
 32 37  1  0  0  0  0
 33 31  1  0  0  0  0
 33 32  1  0  0  0  0
 34 33  1  0  0  0  0
 35 34  1  0  0  0  0
 37 36  1  0  0  0  0
M  END
>  <MODEL>
9

>  <REMARK>
 VINA RESULT:      -6.9      3.159      7.135
  Name = 
  4 active torsions:
  status: ('A' for Active; 'I' for Inactive)
    1  A    between atoms: C_1  and  C_27
    2  A    between atoms: N_4  and  C_37
    3  A    between atoms: C_8  and  C_12
    4  A    between atoms: C_23  and  C_30
                            x       y       z     vdW  Elec       q    Type
                         _______ _______ _______ _____ _____    ______ ____

>  <TORSDO>
F 4

$$$$
