=
 OpenBabel11112417063D

 31 35  0  0  1  0  0  0  0  0999 V2000
  184.8300  178.1360  146.8880 C   0  0  0  0  0  0  0  0  0  0  0  0
  187.4660  175.8200  145.4210 C   0  0  2  0  0  3  0  0  0  0  0  0
  187.5790  176.1690  143.9440 C   0  0  0  0  0  0  0  0  0  0  0  0
  186.6830  177.2050  141.9320 C   0  0  0  0  0  0  0  0  0  0  0  0
  186.8300  176.9200  146.2400 C   0  0  0  0  0  0  0  0  0  0  0  0
  185.6040  179.0090  147.6550 C   0  0  0  0  0  3  0  0  0  0  0  0
  186.5830  176.9190  143.2960 C   0  0  0  0  0  3  0  0  0  0  0  0
  189.7130  176.6340  146.2200 C   0  0  2  0  0  3  0  0  0  0  0  0
  183.4880  178.3000  146.8220 F   0  0  0  0  0  0  0  0  0  0  0  0
  189.6440  174.8830  143.7880 O   0  0  0  0  0  0  0  0  0  0  0  0
  185.6290  178.0120  141.2650 C   0  0  0  0  0  1  0  0  0  0  0  0
  189.0800  177.5800  147.2400 C   0  0  0  0  0  2  0  0  0  0  0  0
  188.8250  175.4000  146.0200 C   0  0  2  0  0  3  0  0  0  0  0  0
  185.4420  177.0950  146.1860 C   0  0  0  0  0  3  0  0  0  0  0  0
  187.7710  176.7320  141.1970 C   0  0  0  0  0  3  0  0  0  0  0  0
  187.6110  177.8030  147.0210 C   0  0  0  0  0  0  0  0  0  0  0  0
  186.9880  178.8370  147.7280 C   0  0  0  0  0  3  0  0  0  0  0  0
  189.4860  174.3650  145.1080 C   0  0  0  0  0  2  0  0  0  0  0  0
  188.6570  175.6660  143.1840 C   0  0  0  0  0  0  0  0  0  0  0  0
  188.7560  175.9630  141.8220 C   0  0  0  0  0  3  0  0  0  0  0  0
  192.1260  176.8800  144.7210 O   0  0  0  0  0  0  0  0  0  0  0  0
  192.2090  176.3950  145.8830 C   0  0  0  0  0  0  0  0  0  0  0  0
  191.0370  176.2390  146.6840 N   0  0  0  0  0  2  0  0  0  0  0  0
  195.7220  176.3040  144.4850 C   0  0  1  0  0  3  0  0  0  0  0  0
  194.5230  177.1290  146.5320 C   0  0  0  0  0  2  0  0  0  0  0  0
  193.2130  173.5940  145.5730 C   0  0  0  0  0  1  0  0  0  0  0  0
  196.2020  176.6730  143.2300 O   0  0  0  0  0  1  0  0  0  0  0  0
  195.0740  177.5120  145.1570 C   0  0  0  0  0  2  0  0  0  0  0  0
  194.1680  174.7690  145.6970 C   0  0  2  0  0  3  0  0  0  0  0  0
  193.5360  175.9610  146.4400 C   0  0  2  0  0  3  0  0  0  0  0  0
  194.7080  175.1750  144.3280 C   0  0  0  0  0  2  0  0  0  0  0  0
  1  6  1  0  0  0  0
  2  3  1  6  0  0  0
  2 13  1  0  0  0  0
  2  5  1  0  0  0  0
  4  7  2  0  0  0  0
  5 16  2  0  0  0  0
  6 17  2  0  0  0  0
  7  3  1  0  0  0  0
  8 23  1  1  0  0  0
  8 12  1  0  0  0  0
  9  1  1  0  0  0  0
 10 18  1  0  0  0  0
 11  4  1  0  0  0  0
 13 18  1  6  0  0  0
 13  8  1  0  0  0  0
 14  5  1  0  0  0  0
 14  1  2  0  0  0  0
 15 20  2  0  0  0  0
 15  4  1  0  0  0  0
 16 12  1  0  0  0  0
 16 17  1  0  0  0  0
 19 10  1  0  0  0  0
 19  3  2  0  0  0  0
 20 19  1  0  0  0  0
 21 22  2  0  0  0  0
 22 23  1  0  0  0  0
 24 27  1  6  0  0  0
 24 28  1  0  0  0  0
 28 25  1  0  0  0  0
 29 26  1  6  0  0  0
 29 30  1  0  0  0  0
 30 22  1  6  0  0  0
 30 25  1  0  0  0  0
 31 24  1  0  0  0  0
 31 29  1  0  0  0  0
M  END
>  <MODEL>
1

>  <REMARK>
 VINA RESULT:      -9.2      0.000      0.000
  Name = 
  2 active torsions:
  status: ('A' for Active; 'I' for Inactive)
    1  A    between atoms: C_5  and  C_30
    2  A    between atoms: C_10  and  N_16
                            x       y       z     vdW  Elec       q    Type
                         _______ _______ _______ _____ _____    ______ ____

>  <TORSDO>
F 2

$$$$
=
 OpenBabel11112417063D

 31 35  0  0  1  0  0  0  0  0999 V2000
  194.4310  176.5250  145.1420 C   0  0  0  0  0  0  0  0  0  0  0  0
  191.0370  177.0530  143.5100 C   0  0  2  0  0  3  0  0  0  0  0  0
  190.7440  175.7990  142.6990 C   0  0  0  0  0  0  0  0  0  0  0  0
  191.4870  173.7570  141.6020 C   0  0  0  0  0  0  0  0  0  0  0  0
  192.0910  176.8360  144.5720 C   0  0  0  0  0  0  0  0  0  0  0  0
  194.0840  176.3310  146.4810 C   0  0  0  0  0  3  0  0  0  0  0  0
  191.7630  174.8880  142.3740 C   0  0  0  0  0  3  0  0  0  0  0  0
  189.2900  176.8100  145.3090 C   0  0  2  0  0  3  0  0  0  0  0  0
  195.7300  176.4640  144.7630 F   0  0  0  0  0  0  0  0  0  0  0  0
  188.4180  176.4860  142.4600 O   0  0  0  0  0  0  0  0  0  0  0  0
  192.5730  172.7960  141.2800 C   0  0  0  0  0  1  0  0  0  0  0  0
  190.3380  176.8420  146.4220 C   0  0  0  0  0  2  0  0  0  0  0  0
  189.7560  177.6580  144.1190 C   0  0  2  0  0  3  0  0  0  0  0  0
  193.4380  176.7780  144.1930 C   0  0  0  0  0  3  0  0  0  0  0  0
  190.1920  173.5310  141.1330 C   0  0  0  0  0  3  0  0  0  0  0  0
  191.7420  176.6440  145.9290 C   0  0  0  0  0  0  0  0  0  0  0  0
  192.7460  176.4010  146.8720 C   0  0  0  0  0  3  0  0  0  0  0  0
  188.6770  177.7640  143.0390 C   0  0  0  0  0  2  0  0  0  0  0  0
  189.4460  175.5800  142.1900 C   0  0  0  0  0  0  0  0  0  0  0  0
  189.1730  174.4420  141.4260 C   0  0  0  0  0  3  0  0  0  0  0  0
  187.7340  175.5610  147.3450 O   0  0  0  0  0  0  0  0  0  0  0  0
  187.2950  176.6370  146.8540 C   0  0  0  0  0  0  0  0  0  0  0  0
  188.0220  177.3110  145.8260 N   0  0  0  0  0  2  0  0  0  0  0  0
  184.8700  179.1430  145.3890 C   0  0  1  0  0  3  0  0  0  0  0  0
  184.8310  176.8470  146.4070 C   0  0  0  0  0  2  0  0  0  0  0  0
  187.1900  179.1580  148.4620 C   0  0  0  0  0  1  0  0  0  0  0  0
  184.9180  179.8460  144.1870 O   0  0  0  0  0  1  0  0  0  0  0  0
  184.8660  177.6440  145.1020 C   0  0  0  0  0  2  0  0  0  0  0  0
  186.0390  178.7440  147.5610 C   0  0  2  0  0  3  0  0  0  0  0  0
  185.9940  177.2220  147.3300 C   0  0  2  0  0  3  0  0  0  0  0  0
  186.0760  179.5170  146.2450 C   0  0  0  0  0  2  0  0  0  0  0  0
  1  6  1  0  0  0  0
  2  3  1  1  0  0  0
  2 13  1  0  0  0  0
  2  5  1  0  0  0  0
  4  7  2  0  0  0  0
  5 16  2  0  0  0  0
  6 17  2  0  0  0  0
  7  3  1  0  0  0  0
  8 23  1  1  0  0  0
  8 12  1  0  0  0  0
  9  1  1  0  0  0  0
 10 18  1  0  0  0  0
 11  4  1  0  0  0  0
 13 18  1  6  0  0  0
 13  8  1  0  0  0  0
 14  5  1  0  0  0  0
 14  1  2  0  0  0  0
 15 20  2  0  0  0  0
 15  4  1  0  0  0  0
 16 12  1  0  0  0  0
 16 17  1  0  0  0  0
 19 10  1  0  0  0  0
 19  3  2  0  0  0  0
 20 19  1  0  0  0  0
 22 21  2  0  0  0  0
 23 22  1  0  0  0  0
 24 27  1  6  0  0  0
 24 31  1  0  0  0  0
 25 30  1  0  0  0  0
 28 24  1  0  0  0  0
 28 25  1  0  0  0  0
 29 26  1  1  0  0  0
 30 22  1  6  0  0  0
 30 29  1  0  0  0  0
 31 29  1  0  0  0  0
M  END
>  <MODEL>
2

>  <REMARK>
 VINA RESULT:      -8.7      3.294      7.108
  Name = 
  2 active torsions:
  status: ('A' for Active; 'I' for Inactive)
    1  A    between atoms: C_5  and  C_30
    2  A    between atoms: C_10  and  N_16
                            x       y       z     vdW  Elec       q    Type
                         _______ _______ _______ _____ _____    ______ ____

>  <TORSDO>
F 2

$$$$
=
 OpenBabel11112417063D

 31 35  0  0  1  0  0  0  0  0999 V2000
  185.0200  177.7930  146.8500 C   0  0  0  0  0  0  0  0  0  0  0  0
  187.3210  175.8240  144.5490 C   0  0  2  0  0  3  0  0  0  0  0  0
  187.0930  176.3600  143.1420 C   0  0  0  0  0  0  0  0  0  0  0  0
  185.7450  177.5890  141.5300 C   0  0  0  0  0  0  0  0  0  0  0  0
  186.8560  176.7770  145.6260 C   0  0  0  0  0  0  0  0  0  0  0  0
  185.9230  178.6050  147.5400 C   0  0  0  0  0  3  0  0  0  0  0  0
  185.9590  177.1300  142.8330 C   0  0  0  0  0  3  0  0  0  0  0  0
  189.6680  176.6530  144.9410 C   0  0  2  0  0  3  0  0  0  0  0  0
  183.6930  177.8910  147.1000 F   0  0  0  0  0  0  0  0  0  0  0  0
  189.1030  175.2170  142.3710 O   0  0  0  0  0  0  0  0  0  0  0  0
  184.5490  178.4150  141.2230 C   0  0  0  0  0  1  0  0  0  0  0  0
  189.2550  177.4290  146.1920 C   0  0  0  0  0  2  0  0  0  0  0  0
  188.7880  175.4070  144.7760 C   0  0  2  0  0  3  0  0  0  0  0  0
  185.4860  176.8830  145.8990 C   0  0  0  0  0  3  0  0  0  0  0  0
  186.6540  177.2710  140.5200 C   0  0  0  0  0  3  0  0  0  0  0  0
  187.7680  177.5970  146.3290 C   0  0  0  0  0  0  0  0  0  0  0  0
  187.2920  178.4990  147.2860 C   0  0  0  0  0  3  0  0  0  0  0  0
  189.2570  174.5310  143.6120 C   0  0  0  0  0  2  0  0  0  0  0  0
  187.9870  176.0150  142.1070 C   0  0  0  0  0  0  0  0  0  0  0  0
  187.7730  176.4840  140.8080 C   0  0  0  0  0  3  0  0  0  0  0  0
  191.8150  177.8650  143.5090 O   0  0  0  0  0  0  0  0  0  0  0  0
  192.1010  176.9290  144.3060 C   0  0  0  0  0  0  0  0  0  0  0  0
  191.0710  176.2750  145.0500 N   0  0  0  0  0  2  0  0  0  0  0  0
  193.7170  173.5540  144.8530 C   0  0  1  0  0  3  0  0  0  0  0  0
  193.9660  175.5460  143.3440 C   0  0  0  0  0  2  0  0  0  0  0  0
  193.3810  176.7300  147.0030 C   0  0  0  0  0  1  0  0  0  0  0  0
  193.1440  172.2890  144.9700 O   0  0  0  0  0  1  0  0  0  0  0  0
  193.3610  174.1490  143.4930 C   0  0  0  0  0  2  0  0  0  0  0  0
  193.8180  175.8420  145.8500 C   0  0  2  0  0  3  0  0  0  0  0  0
  193.5240  176.4760  144.4780 C   0  0  2  0  0  3  0  0  0  0  0  0
  193.2040  174.4500  145.9760 C   0  0  0  0  0  2  0  0  0  0  0  0
  1  9  1  0  0  0  0
  1  6  1  0  0  0  0
  2  3  1  6  0  0  0
  2 13  1  0  0  0  0
  2  5  1  0  0  0  0
  4  7  2  0  0  0  0
  5 14  1  0  0  0  0
  5 16  2  0  0  0  0
  7  3  1  0  0  0  0
  8 23  1  1  0  0  0
  8 12  1  0  0  0  0
 10 18  1  0  0  0  0
 11  4  1  0  0  0  0
 12 16  1  0  0  0  0
 13 18  1  6  0  0  0
 13  8  1  0  0  0  0
 14  1  2  0  0  0  0
 15 20  2  0  0  0  0
 15  4  1  0  0  0  0
 16 17  1  0  0  0  0
 17  6  2  0  0  0  0
 19 10  1  0  0  0  0
 19  3  2  0  0  0  0
 20 19  1  0  0  0  0
 21 22  2  0  0  0  0
 22 23  1  0  0  0  0
 24 27  1  1  0  0  0
 24 31  1  0  0  0  0
 25 28  1  0  0  0  0
 25 30  1  0  0  0  0
 28 24  1  0  0  0  0
 29 31  1  0  0  0  0
 29 26  1  1  0  0  0
 30 22  1  6  0  0  0
 30 29  1  0  0  0  0
M  END
>  <MODEL>
3

>  <REMARK>
 VINA RESULT:      -8.6      1.379      2.018
  Name = 
  2 active torsions:
  status: ('A' for Active; 'I' for Inactive)
    1  A    between atoms: C_5  and  C_30
    2  A    between atoms: C_10  and  N_16
                            x       y       z     vdW  Elec       q    Type
                         _______ _______ _______ _____ _____    ______ ____

>  <TORSDO>
F 2

$$$$
=
 OpenBabel11112417063D

 31 35  0  0  1  0  0  0  0  0999 V2000
  186.9690  177.5130  140.8910 C   0  0  0  0  0  0  0  0  0  0  0  0
  188.5560  177.8400  144.3310 C   0  0  2  0  0  3  0  0  0  0  0  0
  187.4130  177.9370  145.3310 C   0  0  0  0  0  0  0  0  0  0  0  0
  185.0710  178.3590  145.8450 C   0  0  0  0  0  0  0  0  0  0  0  0
  188.1320  177.2480  143.0060 C   0  0  0  0  0  0  0  0  0  0  0  0
  187.2280  176.1770  140.5760 C   0  0  0  0  0  3  0  0  0  0  0  0
  186.1060  178.2410  144.9140 C   0  0  0  0  0  3  0  0  0  0  0  0
  189.4720  175.5770  144.9560 C   0  0  2  0  0  3  0  0  0  0  0  0
  186.2760  178.2910  140.0260 F   0  0  0  0  0  0  0  0  0  0  0  0
  188.9690  177.5410  147.1640 O   0  0  0  0  0  0  0  0  0  0  0  0
  183.6920  178.6660  145.3860 C   0  0  0  0  0  1  0  0  0  0  0  0
  189.2790  175.0350  143.5400 C   0  0  0  0  0  2  0  0  0  0  0  0
  189.7670  177.0810  144.9120 C   0  0  2  0  0  3  0  0  0  0  0  0
  187.4220  178.0450  142.1000 C   0  0  0  0  0  3  0  0  0  0  0  0
  185.3340  178.1890  147.2060 C   0  0  0  0  0  3  0  0  0  0  0  0
  188.3970  175.8970  142.6830 C   0  0  0  0  0  0  0  0  0  0  0  0
  187.9470  175.3770  141.4650 C   0  0  0  0  0  3  0  0  0  0  0  0
  190.1000  177.6360  146.2990 C   0  0  0  0  0  2  0  0  0  0  0  0
  187.6740  177.8030  146.7110 C   0  0  0  0  0  0  0  0  0  0  0  0
  186.6340  177.9130  147.6380 C   0  0  0  0  0  3  0  0  0  0  0  0
  192.1860  175.5820  144.0830 O   0  0  0  0  0  0  0  0  0  0  0  0
  191.9070  174.9110  145.1140 C   0  0  0  0  0  0  0  0  0  0  0  0
  190.5650  174.8610  145.6010 N   0  0  0  0  0  2  0  0  0  0  0  0
  195.6530  174.6120  144.6890 C   0  0  1  0  0  3  0  0  0  0  0  0
  193.9890  175.0730  146.5130 C   0  0  0  0  0  2  0  0  0  0  0  0
  192.7170  172.1560  144.2750 C   0  0  0  0  0  1  0  0  0  0  0  0
  196.5050  175.2050  143.7590 O   0  0  0  0  0  1  0  0  0  0  0  0
  194.9430  175.6970  145.4940 C   0  0  0  0  0  2  0  0  0  0  0  0
  193.6910  173.0910  144.9710 C   0  0  2  0  0  3  0  0  0  0  0  0
  192.9750  174.1420  145.8400 C   0  0  2  0  0  3  0  0  0  0  0  0
  194.6360  173.7380  143.9610 C   0  0  0  0  0  2  0  0  0  0  0  0
  1 14  1  0  0  0  0
  2  5  1  6  0  0  0
  2 13  1  0  0  0  0
  2  3  1  0  0  0  0
  3 19  1  0  0  0  0
  4 15  2  0  0  0  0
  6  1  2  0  0  0  0
  6 17  1  0  0  0  0
  7  3  2  0  0  0  0
  7  4  1  0  0  0  0
  8 23  1  6  0  0  0
  9  1  1  0  0  0  0
 11  4  1  0  0  0  0
 12  8  1  0  0  0  0
 13  8  1  0  0  0  0
 13 18  1  1  0  0  0
 14  5  2  0  0  0  0
 15 20  1  0  0  0  0
 16  5  1  0  0  0  0
 16 12  1  0  0  0  0
 17 16  2  0  0  0  0
 18 10  1  0  0  0  0
 19 10  1  0  0  0  0
 19 20  2  0  0  0  0
 21 22  2  0  0  0  0
 22 23  1  0  0  0  0
 24 27  1  6  0  0  0
 24 28  1  0  0  0  0
 28 25  1  0  0  0  0
 29 26  1  6  0  0  0
 29 30  1  0  0  0  0
 30 22  1  6  0  0  0
 30 25  1  0  0  0  0
 31 24  1  0  0  0  0
 31 29  1  0  0  0  0
M  END
>  <MODEL>
4

>  <REMARK>
 VINA RESULT:      -8.2      1.976      4.096
  Name = 
  2 active torsions:
  status: ('A' for Active; 'I' for Inactive)
    1  A    between atoms: C_5  and  C_30
    2  A    between atoms: C_10  and  N_16
                            x       y       z     vdW  Elec       q    Type
                         _______ _______ _______ _____ _____    ______ ____

>  <TORSDO>
F 2

$$$$
=
 OpenBabel11112417063D

 31 35  0  0  1  0  0  0  0  0999 V2000
  186.4200  177.9160  140.7560 C   0  0  0  0  0  0  0  0  0  0  0  0
  188.8700  177.7920  143.6620 C   0  0  2  0  0  3  0  0  0  0  0  0
  188.0470  177.5330  144.9160 C   0  0  0  0  0  0  0  0  0  0  0  0
  185.9150  177.5120  146.0900 C   0  0  0  0  0  0  0  0  0  0  0  0
  188.1450  177.4140  142.3910 C   0  0  0  0  0  0  0  0  0  0  0  0
  186.6910  176.7160  140.0950 C   0  0  0  0  0  3  0  0  0  0  0  0
  186.6550  177.7230  144.9240 C   0  0  0  0  0  3  0  0  0  0  0  0
  190.1100  175.6040  143.5100 C   0  0  2  0  0  3  0  0  0  0  0  0
  185.4510  178.7410  140.2930 F   0  0  0  0  0  0  0  0  0  0  0  0
  190.0800  177.0130  146.1550 O   0  0  0  0  0  0  0  0  0  0  0  0
  184.4410  177.7040  146.0770 C   0  0  0  0  0  1  0  0  0  0  0  0
  189.5760  175.3240  142.1050 C   0  0  0  0  0  2  0  0  0  0  0  0
  190.2540  177.1140  143.7310 C   0  0  2  0  0  3  0  0  0  0  0  0
  187.1450  178.2630  141.8980 C   0  0  0  0  0  3  0  0  0  0  0  0
  186.5590  177.1220  147.2650 C   0  0  0  0  0  3  0  0  0  0  0  0
  188.4210  176.2020  141.7160 C   0  0  0  0  0  0  0  0  0  0  0  0
  187.6950  175.8690  140.5680 C   0  0  0  0  0  3  0  0  0  0  0  0
  190.9130  177.4320  145.0750 C   0  0  0  0  0  2  0  0  0  0  0  0
  188.6930  177.1730  146.1170 C   0  0  0  0  0  0  0  0  0  0  0  0
  187.9460  176.9530  147.2780 C   0  0  0  0  0  3  0  0  0  0  0  0
  190.5460  173.2180  145.0090 O   0  0  0  0  0  0  0  0  0  0  0  0
  191.5440  173.7390  144.4400 C   0  0  0  0  0  0  0  0  0  0  0  0
  191.3950  174.9390  143.6780 N   0  0  0  0  0  2  0  0  0  0  0  0
  195.0630  175.1090  144.2340 C   0  0  1  0  0  3  0  0  0  0  0  0
  193.6800  173.6750  145.7630 C   0  0  0  0  0  2  0  0  0  0  0  0
  193.0170  172.6770  142.0620 C   0  0  0  0  0  1  0  0  0  0  0  0
  195.5120  176.4080  144.0010 O   0  0  0  0  0  1  0  0  0  0  0  0
  194.2000  175.0880  145.4930 C   0  0  0  0  0  2  0  0  0  0  0  0
  193.7550  173.2070  143.2790 C   0  0  2  0  0  3  0  0  0  0  0  0
  192.9070  173.1180  144.5620 C   0  0  2  0  0  3  0  0  0  0  0  0
  194.2610  174.6260  143.0300 C   0  0  0  0  0  2  0  0  0  0  0  0
  1 14  1  0  0  0  0
  2  5  1  6  0  0  0
  2 13  1  0  0  0  0
  2  3  1  0  0  0  0
  3  7  2  0  0  0  0
  3 19  1  0  0  0  0
  4 15  2  0  0  0  0
  6 17  1  0  0  0  0
  6  1  2  0  0  0  0
  7  4  1  0  0  0  0
  8 23  1  6  0  0  0
  8 13  1  0  0  0  0
  9  1  1  0  0  0  0
 11  4  1  0  0  0  0
 12  8  1  0  0  0  0
 13 18  1  1  0  0  0
 14  5  2  0  0  0  0
 15 20  1  0  0  0  0
 16 12  1  0  0  0  0
 16  5  1  0  0  0  0
 17 16  2  0  0  0  0
 18 10  1  0  0  0  0
 19 10  1  0  0  0  0
 19 20  2  0  0  0  0
 22 21  2  0  0  0  0
 23 22  1  0  0  0  0
 24 27  1  6  0  0  0
 24 28  1  0  0  0  0
 28 25  1  0  0  0  0
 29 26  1  6  0  0  0
 29 30  1  0  0  0  0
 30 22  1  6  0  0  0
 30 25  1  0  0  0  0
 31 29  1  0  0  0  0
 31 24  1  0  0  0  0
M  END
>  <MODEL>
5

>  <REMARK>
 VINA RESULT:      -8.1      2.059      4.355
  Name = 
  2 active torsions:
  status: ('A' for Active; 'I' for Inactive)
    1  A    between atoms: C_5  and  C_30
    2  A    between atoms: C_10  and  N_16
                            x       y       z     vdW  Elec       q    Type
                         _______ _______ _______ _____ _____    ______ ____

>  <TORSDO>
F 2

$$$$
=
 OpenBabel11112417063D

 31 35  0  0  1  0  0  0  0  0999 V2000
  191.8860  173.1430  141.5710 C   0  0  0  0  0  0  0  0  0  0  0  0
  191.0140  174.0040  145.1710 C   0  0  2  0  0  3  0  0  0  0  0  0
  192.0640  174.9990  145.6480 C   0  0  0  0  0  0  0  0  0  0  0  0
  194.2410  176.0610  145.4180 C   0  0  0  0  0  0  0  0  0  0  0  0
  190.9270  173.9150  143.6640 C   0  0  0  0  0  0  0  0  0  0  0  0
  190.8790  173.8010  140.8610 C   0  0  0  0  0  3  0  0  0  0  0  0
  193.2720  175.1690  144.9520 C   0  0  0  0  0  3  0  0  0  0  0  0
  188.9970  175.5140  145.1170 C   0  0  2  0  0  3  0  0  0  0  0  0
  192.8440  172.4540  140.9060 F   0  0  0  0  0  0  0  0  0  0  0  0
  190.6910  175.5310  147.5900 O   0  0  0  0  0  0  0  0  0  0  0  0
  195.5080  176.2410  144.6630 C   0  0  0  0  0  1  0  0  0  0  0  0
  188.7450  175.2330  143.6360 C   0  0  0  0  0  2  0  0  0  0  0  0
  189.6290  174.2880  145.7880 C   0  0  2  0  0  3  0  0  0  0  0  0
  191.9080  173.1990  142.9660 C   0  0  0  0  0  3  0  0  0  0  0  0
  194.0190  176.7830  146.5920 C   0  0  0  0  0  3  0  0  0  0  0  0
  189.9060  174.5770  142.9440 C   0  0  0  0  0  0  0  0  0  0  0  0
  189.8880  174.5060  141.5470 C   0  0  0  0  0  3  0  0  0  0  0  0
  189.7720  174.4780  147.3000 C   0  0  0  0  0  2  0  0  0  0  0  0
  191.8640  175.7060  146.8520 C   0  0  0  0  0  0  0  0  0  0  0  0
  192.8320  176.6050  147.3080 C   0  0  0  0  0  3  0  0  0  0  0  0
  188.5780  177.7540  146.8300 O   0  0  0  0  0  0  0  0  0  0  0  0
  187.5930  176.9990  146.6080 C   0  0  0  0  0  0  0  0  0  0  0  0
  187.7360  175.8560  145.7640 N   0  0  0  0  0  2  0  0  0  0  0  0
  184.5810  179.0230  145.5420 C   0  0  1  0  0  3  0  0  0  0  0  0
  185.1040  176.7190  146.3940 C   0  0  0  0  0  2  0  0  0  0  0  0
  187.1470  179.3590  148.3920 C   0  0  0  0  0  1  0  0  0  0  0  0
  184.3660  179.7810  144.3930 O   0  0  0  0  0  1  0  0  0  0  0  0
  184.8490  177.5720  145.1500 C   0  0  0  0  0  2  0  0  0  0  0  0
  186.0180  178.7630  147.5690 C   0  0  2  0  0  3  0  0  0  0  0  0
  186.2560  177.2780  147.2360 C   0  0  2  0  0  3  0  0  0  0  0  0
  185.7670  179.5930  146.3120 C   0  0  0  0  0  2  0  0  0  0  0  0
  1 14  1  0  0  0  0
  2  5  1  6  0  0  0
  2  3  1  0  0  0  0
  2 13  1  0  0  0  0
  3 19  1  0  0  0  0
  4 15  2  0  0  0  0
  6 17  1  0  0  0  0
  6  1  2  0  0  0  0
  7  4  1  0  0  0  0
  7  3  2  0  0  0  0
  8 23  1  1  0  0  0
  8 13  1  0  0  0  0
  9  1  1  0  0  0  0
 11  4  1  0  0  0  0
 12  8  1  0  0  0  0
 13 18  1  1  0  0  0
 14  5  2  0  0  0  0
 15 20  1  0  0  0  0
 16 12  1  0  0  0  0
 16  5  1  0  0  0  0
 17 16  2  0  0  0  0
 18 10  1  0  0  0  0
 19 20  2  0  0  0  0
 19 10  1  0  0  0  0
 22 21  2  0  0  0  0
 23 22  1  0  0  0  0
 24 27  1  6  0  0  0
 24 31  1  0  0  0  0
 25 30  1  0  0  0  0
 28 24  1  0  0  0  0
 28 25  1  0  0  0  0
 29 26  1  6  0  0  0
 30 22  1  6  0  0  0
 30 29  1  0  0  0  0
 31 29  1  0  0  0  0
M  END
>  <MODEL>
6

>  <REMARK>
 VINA RESULT:      -8.0      3.234      7.761
  Name = 
  2 active torsions:
  status: ('A' for Active; 'I' for Inactive)
    1  A    between atoms: C_5  and  C_30
    2  A    between atoms: C_10  and  N_16
                            x       y       z     vdW  Elec       q    Type
                         _______ _______ _______ _____ _____    ______ ____

>  <TORSDO>
F 2

$$$$
=
 OpenBabel11112417063D

 31 35  0  0  1  0  0  0  0  0999 V2000
  185.6530  177.4980  142.4670 C   0  0  0  0  0  0  0  0  0  0  0  0
  188.3350  174.8850  143.1320 C   0  0  2  0  0  3  0  0  0  0  0  0
  188.8470  174.4300  141.7730 C   0  0  0  0  0  0  0  0  0  0  0  0
  188.5870  174.2420  139.3600 C   0  0  0  0  0  0  0  0  0  0  0  0
  187.6240  176.2180  143.0790 C   0  0  0  0  0  0  0  0  0  0  0  0
  186.2910  178.6770  142.8580 C   0  0  0  0  0  3  0  0  0  0  0  0
  188.1220  174.6930  140.5980 C   0  0  0  0  0  3  0  0  0  0  0  0
  190.3790  176.0990  143.9680 C   0  0  2  0  0  3  0  0  0  0  0  0
  184.3920  177.5410  141.9760 F   0  0  0  0  0  0  0  0  0  0  0  0
  190.7500  173.3460  142.8420 O   0  0  0  0  0  0  0  0  0  0  0  0
  187.8160  174.5410  138.1250 C   0  0  0  0  0  1  0  0  0  0  0  0
  189.6050  177.4040  144.1590 C   0  0  0  0  0  2  0  0  0  0  0  0
  189.4530  174.8970  144.1940 C   0  0  2  0  0  3  0  0  0  0  0  0
  186.3170  176.2740  142.5790 C   0  0  0  0  0  3  0  0  0  0  0  0
  189.7740  173.5110  139.2840 C   0  0  0  0  0  3  0  0  0  0  0  0
  188.2660  177.4130  143.4790 C   0  0  0  0  0  0  0  0  0  0  0  0
  187.5890  178.6320  143.3710 C   0  0  0  0  0  3  0  0  0  0  0  0
  190.2190  173.5730  144.1460 C   0  0  0  0  0  2  0  0  0  0  0  0
  190.0260  173.6600  141.6890 C   0  0  0  0  0  0  0  0  0  0  0  0
  190.4910  173.2200  140.4470 C   0  0  0  0  0  3  0  0  0  0  0  0
  193.1190  175.8080  143.2360 O   0  0  0  0  0  0  0  0  0  0  0  0
  192.8530  175.9200  144.4640 C   0  0  0  0  0  0  0  0  0  0  0  0
  191.4990  176.0620  144.8990 N   0  0  0  0  0  2  0  0  0  0  0  0
  196.6020  175.4630  144.2680 C   0  0  1  0  0  3  0  0  0  0  0  0
  194.9410  177.0410  145.2980 C   0  0  0  0  0  2  0  0  0  0  0  0
  193.7350  173.3730  145.7630 C   0  0  0  0  0  1  0  0  0  0  0  0
  197.4270  175.2510  143.1660 O   0  0  0  0  0  1  0  0  0  0  0  0
  195.8680  176.7920  144.1060 C   0  0  0  0  0  2  0  0  0  0  0  0
  194.6880  174.5420  145.5830 C   0  0  2  0  0  3  0  0  0  0  0  0
  193.9490  175.8910  145.4920 C   0  0  2  0  0  3  0  0  0  0  0  0
  195.6040  174.3150  144.3830 C   0  0  0  0  0  2  0  0  0  0  0  0
  1 14  2  0  0  0  0
  1  6  1  0  0  0  0
  2  3  1  6  0  0  0
  2 13  1  0  0  0  0
  4  7  1  0  0  0  0
  5  2  1  0  0  0  0
  5 16  2  0  0  0  0
  6 17  2  0  0  0  0
  7  3  2  0  0  0  0
  8 12  1  0  0  0  0
  8 13  1  0  0  0  0
  8 23  1  1  0  0  0
  9  1  1  0  0  0  0
 10 18  1  0  0  0  0
 11  4  1  0  0  0  0
 13 18  1  6  0  0  0
 14  5  1  0  0  0  0
 15  4  2  0  0  0  0
 15 20  1  0  0  0  0
 16 12  1  0  0  0  0
 17 16  1  0  0  0  0
 19  3  1  0  0  0  0
 19 10  1  0  0  0  0
 20 19  2  0  0  0  0
 21 22  2  0  0  0  0
 22 23  1  0  0  0  0
 24 27  1  6  0  0  0
 24 31  1  0  0  0  0
 25 30  1  0  0  0  0
 28 24  1  0  0  0  0
 28 25  1  0  0  0  0
 29 26  1  6  0  0  0
 30 22  1  6  0  0  0
 30 29  1  0  0  0  0
 31 29  1  0  0  0  0
M  END
>  <MODEL>
7

>  <REMARK>
 VINA RESULT:      -7.7      2.430      3.065
  Name = 
  2 active torsions:
  status: ('A' for Active; 'I' for Inactive)
    1  A    between atoms: C_5  and  C_30
    2  A    between atoms: C_10  and  N_16
                            x       y       z     vdW  Elec       q    Type
                         _______ _______ _______ _____ _____    ______ ____

>  <TORSDO>
F 2

$$$$
=
 OpenBabel11112417063D

 31 35  0  0  1  0  0  0  0  0999 V2000
  193.5800  172.6480  140.9530 C   0  0  0  0  0  0  0  0  0  0  0  0
  191.5890  173.5540  144.0630 C   0  0  2  0  0  3  0  0  0  0  0  0
  192.3550  174.6680  144.7620 C   0  0  0  0  0  0  0  0  0  0  0  0
  194.4010  175.9380  145.1200 C   0  0  0  0  0  0  0  0  0  0  0  0
  191.9700  173.3980  142.6090 C   0  0  0  0  0  0  0  0  0  0  0  0
  192.7820  173.1720  139.9330 C   0  0  0  0  0  3  0  0  0  0  0  0
  193.6980  174.9340  144.4480 C   0  0  0  0  0  3  0  0  0  0  0  0
  189.5600  174.8460  143.3100 C   0  0  2  0  0  3  0  0  0  0  0  0
  194.7490  172.0350  140.6510 F   0  0  0  0  0  0  0  0  0  0  0  0
  190.4190  175.1320  146.1680 O   0  0  0  0  0  0  0  0  0  0  0  0
  195.8160  176.2170  144.7650 C   0  0  0  0  0  1  0  0  0  0  0  0
  189.7940  174.4840  141.8430 C   0  0  0  0  0  2  0  0  0  0  0  0
  190.0630  173.7190  144.2200 C   0  0  2  0  0  3  0  0  0  0  0  0
  193.1730  172.7600  142.2840 C   0  0  0  0  0  3  0  0  0  0  0  0
  193.7720  176.6780  146.1230 C   0  0  0  0  0  3  0  0  0  0  0  0
  191.1610  173.9240  141.5740 C   0  0  0  0  0  0  0  0  0  0  0  0
  191.5730  173.7980  140.2430 C   0  0  0  0  0  3  0  0  0  0  0  0
  189.7250  173.9810  145.6890 C   0  0  0  0  0  2  0  0  0  0  0  0
  191.7400  175.3970  145.8020 C   0  0  0  0  0  0  0  0  0  0  0  0
  192.4450  176.4070  146.4640 C   0  0  0  0  0  3  0  0  0  0  0  0
  188.3850  177.3690  143.9300 O   0  0  0  0  0  0  0  0  0  0  0  0
  187.6140  176.3760  143.8300 C   0  0  0  0  0  0  0  0  0  0  0  0
  188.1390  175.0820  143.5280 N   0  0  0  0  0  2  0  0  0  0  0  0
  185.3180  179.3670  144.1140 C   0  0  1  0  0  3  0  0  0  0  0  0
  185.4570  177.2050  142.8430 C   0  0  0  0  0  2  0  0  0  0  0  0
  186.4220  176.6100  146.5640 C   0  0  0  0  0  1  0  0  0  0  0  0
  185.6030  180.7300  144.0610 O   0  0  0  0  0  1  0  0  0  0  0  0
  185.7440  178.7080  142.8050 C   0  0  0  0  0  2  0  0  0  0  0  0
  185.7580  177.2430  145.3530 C   0  0  2  0  0  3  0  0  0  0  0  0
  186.1340  176.5310  144.0400 C   0  0  2  0  0  3  0  0  0  0  0  0
  186.0560  178.7390  145.2920 C   0  0  0  0  0  2  0  0  0  0  0  0
  1 14  1  0  0  0  0
  2  5  1  6  0  0  0
  2 13  1  0  0  0  0
  2  3  1  0  0  0  0
  3 19  1  0  0  0  0
  4 15  2  0  0  0  0
  6 17  1  0  0  0  0
  6  1  2  0  0  0  0
  7  3  2  0  0  0  0
  7  4  1  0  0  0  0
  8 23  1  6  0  0  0
  8 13  1  0  0  0  0
  9  1  1  0  0  0  0
 11  4  1  0  0  0  0
 12  8  1  0  0  0  0
 13 18  1  1  0  0  0
 14  5  2  0  0  0  0
 15 20  1  0  0  0  0
 16 12  1  0  0  0  0
 16  5  1  0  0  0  0
 17 16  2  0  0  0  0
 18 10  1  0  0  0  0
 19 10  1  0  0  0  0
 19 20  2  0  0  0  0
 22 21  2  0  0  0  0
 23 22  1  0  0  0  0
 24 27  1  6  0  0  0
 24 31  1  0  0  0  0
 25 30  1  0  0  0  0
 28 25  1  0  0  0  0
 28 24  1  0  0  0  0
 29 26  1  1  0  0  0
 30 22  1  6  0  0  0
 30 29  1  0  0  0  0
 31 29  1  0  0  0  0
M  END
>  <MODEL>
8

>  <REMARK>
 VINA RESULT:      -7.5      3.678      8.132
  Name = 
  2 active torsions:
  status: ('A' for Active; 'I' for Inactive)
    1  A    between atoms: C_5  and  C_30
    2  A    between atoms: C_10  and  N_16
                            x       y       z     vdW  Elec       q    Type
                         _______ _______ _______ _____ _____    ______ ____

>  <TORSDO>
F 2

$$$$
=
 OpenBabel11112417063D

 31 35  0  0  1  0  0  0  0  0999 V2000
  185.7490  178.2830  141.0470 C   0  0  0  0  0  0  0  0  0  0  0  0
  188.6320  178.0830  143.5190 C   0  0  2  0  0  3  0  0  0  0  0  0
  188.0490  177.5710  144.8290 C   0  0  0  0  0  0  0  0  0  0  0  0
  186.1440  177.1500  146.2840 C   0  0  0  0  0  0  0  0  0  0  0  0
  187.7530  177.7860  142.3260 C   0  0  0  0  0  0  0  0  0  0  0  0
  186.0270  177.2170  140.1880 C   0  0  0  0  0  3  0  0  0  0  0  0
  186.6640  177.5930  145.0660 C   0  0  0  0  0  3  0  0  0  0  0  0
  190.0390  176.0940  142.8770 C   0  0  2  0  0  3  0  0  0  0  0  0
  184.6430  179.0390  140.8520 F   0  0  0  0  0  0  0  0  0  0  0  0
  190.2950  177.1440  145.6730 O   0  0  0  0  0  0  0  0  0  0  0  0
  184.6760  177.1660  146.5130 C   0  0  0  0  0  1  0  0  0  0  0  0
  189.3170  175.9330  141.5390 C   0  0  0  0  0  2  0  0  0  0  0  0
  190.0690  177.5700  143.2890 C   0  0  2  0  0  3  0  0  0  0  0  0
  186.6100  178.5660  142.1090 C   0  0  0  0  0  3  0  0  0  0  0  0
  187.0030  176.6930  147.2850 C   0  0  0  0  0  3  0  0  0  0  0  0
  188.0350  176.7110  141.4520 C   0  0  0  0  0  0  0  0  0  0  0  0
  187.1710  176.4410  140.3850 C   0  0  0  0  0  3  0  0  0  0  0  0
  190.8990  177.7910  144.5550 C   0  0  0  0  0  2  0  0  0  0  0  0
  188.9100  177.1410  145.8600 C   0  0  0  0  0  0  0  0  0  0  0  0
  188.3840  176.6900  147.0730 C   0  0  0  0  0  3  0  0  0  0  0  0
  191.1220  173.9660  144.4360 O   0  0  0  0  0  0  0  0  0  0  0  0
  191.8720  174.4940  143.5700 C   0  0  0  0  0  0  0  0  0  0  0  0
  191.3940  175.5690  142.7600 N   0  0  0  0  0  2  0  0  0  0  0  0
  193.6010  171.1820  144.1540 C   0  0  1  0  0  3  0  0  0  0  0  0
  193.3740  172.9010  142.3370 C   0  0  0  0  0  2  0  0  0  0  0  0
  193.9010  174.6660  145.7630 C   0  0  0  0  0  1  0  0  0  0  0  0
  193.0980  169.9760  144.6380 O   0  0  0  0  0  1  0  0  0  0  0  0
  192.8520  171.5700  142.8820 C   0  0  0  0  0  2  0  0  0  0  0  0
  193.9800  173.5910  144.6920 C   0  0  2  0  0  3  0  0  0  0  0  0
  193.2850  174.0150  143.3850 C   0  0  2  0  0  3  0  0  0  0  0  0
  193.4410  172.2630  145.2170 C   0  0  0  0  0  2  0  0  0  0  0  0
  1 14  1  0  0  0  0
  2  5  1  6  0  0  0
  2  3  1  0  0  0  0
  3  7  2  0  0  0  0
  3 19  1  0  0  0  0
  4 11  1  0  0  0  0
  4 15  2  0  0  0  0
  6 17  1  0  0  0  0
  6  1  2  0  0  0  0
  7  4  1  0  0  0  0
  8 23  1  6  0  0  0
  8 13  1  0  0  0  0
  9  1  1  0  0  0  0
 10 19  1  0  0  0  0
 12  8  1  0  0  0  0
 13  2  1  0  0  0  0
 13 18  1  1  0  0  0
 14  5  2  0  0  0  0
 16 12  1  0  0  0  0
 16  5  1  0  0  0  0
 17 16  2  0  0  0  0
 18 10  1  0  0  0  0
 19 20  2  0  0  0  0
 20 15  1  0  0  0  0
 22 21  2  0  0  0  0
 23 22  1  0  0  0  0
 24 27  1  1  0  0  0
 24 31  1  0  0  0  0
 25 28  1  0  0  0  0
 25 30  1  0  0  0  0
 28 24  1  0  0  0  0
 29 31  1  0  0  0  0
 29 26  1  1  0  0  0
 30 22  1  1  0  0  0
 30 29  1  0  0  0  0
M  END
>  <MODEL>
9

>  <REMARK>
 VINA RESULT:      -7.5      2.394      4.810
  Name = 
  2 active torsions:
  status: ('A' for Active; 'I' for Inactive)
    1  A    between atoms: C_5  and  C_30
    2  A    between atoms: C_10  and  N_16
                            x       y       z     vdW  Elec       q    Type
                         _______ _______ _______ _____ _____    ______ ____

>  <TORSDO>
F 2

$$$$
