=
 OpenBabel11112416183D

 30 35  0  0  1  0  0  0  0  0999 V2000
  187.4720  176.4500  145.5870 C   0  0  0  0  0  0  0  0  0  0  0  0
  185.7780  177.6740  146.9620 C   0  0  0  0  0  0  0  0  0  0  0  0
  185.3020  177.7150  141.7340 S   0  0  0  0  0  0  0  0  0  0  0  0
  187.9470  176.0420  144.3050 C   0  0  0  0  0  0  0  0  0  0  0  0
  188.1840  176.0570  146.7250 C   0  0  0  0  0  3  0  0  0  0  0  0
  190.9900  173.9470  145.3440 C   0  0  0  0  0  1  0  0  0  0  0  0
  188.4800  173.9670  142.1510 N   0  0  1  0  0  0  0  0  0  0  0  0
  189.7780  174.8260  145.4020 C   0  0  0  0  0  0  0  0  0  0  0  0
  187.7210  174.8870  141.2860 C   0  0  2  0  0  3  0  0  0  0  0  0
  186.8080  177.1960  140.9350 C   0  0  0  0  0  0  0  0  0  0  0  0
  189.3280  175.2650  146.6500 C   0  0  0  0  0  0  0  0  0  0  0  0
  189.0900  175.1900  144.2240 C   0  0  0  0  0  0  0  0  0  0  0  0
  184.6170  178.4480  147.0220 C   0  0  0  0  0  3  0  0  0  0  0  0
  188.2450  174.7190  139.8780 C   0  0  0  0  0  2  0  0  0  0  0  0
  189.0690  172.9560  141.2740 C   0  0  0  0  0  2  0  0  0  0  0  0
  186.3720  177.3550  148.1390 F   0  0  0  0  0  0  0  0  0  0  0  0
  186.0850  177.2470  143.2780 C   0  0  0  0  0  0  0  0  0  0  0  0
  183.9490  178.8150  145.8590 C   0  0  0  0  0  3  0  0  0  0  0  0
  186.2970  177.2480  145.7080 C   0  0  0  0  0  0  0  0  0  0  0  0
  187.2490  176.4920  143.1580 C   0  0  0  0  0  0  0  0  0  0  0  0
  187.1070  177.5910  139.8190 O   0  0  0  0  0  0  0  0  0  0  0  0
  187.7320  176.3500  141.7480 C   0  0  1  0  0  3  0  0  0  0  0  0
  188.7040  173.2880  139.8400 C   0  0  0  0  0  2  0  0  0  0  0  0
  190.5220  175.4900  142.1400 C   0  0  0  0  0  1  0  0  0  0  0  0
  184.4400  178.4110  144.6210 C   0  0  0  0  0  3  0  0  0  0  0  0
  185.6030  177.6340  144.5310 C   0  0  0  0  0  0  0  0  0  0  0  0
  189.5710  174.5840  142.9270 C   0  0  2  0  0  3  0  0  0  0  0  0
  190.0240  174.8980  147.8080 O   0  0  0  0  0  0  0  0  0  0  0  0
  191.2650  176.9280  148.1070 C   0  0  0  0  0  1  0  0  0  0  0  0
  191.3080  175.4140  148.1330 C   0  0  0  0  0  2  0  0  0  0  0  0
  1 19  1  0  0  0  0
  1  5  1  0  0  0  0
  2 13  1  0  0  0  0
  2 16  1  0  0  0  0
  3 17  1  0  0  0  0
  4  1  2  0  0  0  0
  6  8  1  0  0  0  0
  7 15  1  6  0  0  0
  7 27  1  0  0  0  0
  8 11  1  0  0  0  0
  9 14  1  6  0  0  0
  9 22  1  0  0  0  0
  9  7  1  0  0  0  0
 10  3  1  0  0  0  0
 11  5  2  0  0  0  0
 11 28  1  0  0  0  0
 12  4  1  0  0  0  0
 12  8  2  0  0  0  0
 17 26  1  0  0  0  0
 18 13  2  0  0  0  0
 19  2  2  0  0  0  0
 20 17  2  0  0  0  0
 20  4  1  0  0  0  0
 21 10  2  0  0  0  0
 22 10  1  6  0  0  0
 22 20  1  0  0  0  0
 23 14  1  0  0  0  0
 23 15  1  0  0  0  0
 25 18  1  0  0  0  0
 26 25  2  0  0  0  0
 26 19  1  0  0  0  0
 27 24  1  6  0  0  0
 27 12  1  0  0  0  0
 28 30  1  0  0  0  0
 29 30  1  0  0  0  0
M  END
>  <MODEL>
1

>  <REMARK>
 VINA RESULT:      -9.4      0.000      0.000
  Name = 
  2 active torsions:
  status: ('A' for Active; 'I' for Inactive)
    1  A    between atoms: C_11  and  O_28
    2  A    between atoms: O_28  and  C_30
                            x       y       z     vdW  Elec       q    Type
                         _______ _______ _______ _____ _____    ______ ____

>  <TORSDO>
F 2

$$$$
=
 OpenBabel11112416183D

 30 35  0  0  1  0  0  0  0  0999 V2000
  188.2010  175.9310  143.3320 C   0  0  0  0  0  0  0  0  0  0  0  0
  185.9790  177.0800  143.3900 C   0  0  0  0  0  0  0  0  0  0  0  0
  189.3430  177.8730  147.3420 S   0  0  0  0  0  0  0  0  0  0  0  0
  189.4730  175.6890  143.9340 C   0  0  0  0  0  0  0  0  0  0  0  0
  187.8970  175.2960  142.1230 C   0  0  0  0  0  3  0  0  0  0  0  0
  191.0300  173.3580  141.3130 C   0  0  0  0  0  1  0  0  0  0  0  0
  192.4960  175.9550  144.0710 N   0  0  1  0  0  0  0  0  0  0  0  0
  190.0610  174.2410  142.0390 C   0  0  0  0  0  0  0  0  0  0  0  0
  192.2410  176.4580  145.4320 C   0  0  2  0  0  3  0  0  0  0  0  0
  190.6410  176.6520  147.3530 C   0  0  0  0  0  0  0  0  0  0  0  0
  188.7990  174.4520  141.4790 C   0  0  0  0  0  0  0  0  0  0  0  0
  190.4200  174.8650  143.2530 C   0  0  0  0  0  0  0  0  0  0  0  0
  185.0950  177.9460  144.0360 C   0  0  0  0  0  3  0  0  0  0  0  0
  193.4450  176.1050  146.2770 C   0  0  0  0  0  2  0  0  0  0  0  0
  193.9400  175.7600  143.9600 C   0  0  0  0  0  2  0  0  0  0  0  0
  185.5660  176.5320  142.2200 F   0  0  0  0  0  0  0  0  0  0  0  0
  188.8350  177.1660  145.7740 C   0  0  0  0  0  0  0  0  0  0  0  0
  185.4470  178.5490  145.2400 C   0  0  0  0  0  3  0  0  0  0  0  0
  187.2560  176.7990  143.9520 C   0  0  0  0  0  0  0  0  0  0  0  0
  189.7480  176.2950  145.1830 C   0  0  0  0  0  0  0  0  0  0  0  0
  191.1990  176.3240  148.3880 O   0  0  0  0  0  0  0  0  0  0  0  0
  190.9240  175.9740  146.0520 C   0  0  1  0  0  3  0  0  0  0  0  0
  194.5790  176.1030  145.2910 C   0  0  0  0  0  2  0  0  0  0  0  0
  191.9980  173.5530  144.7620 C   0  0  0  0  0  1  0  0  0  0  0  0
  186.6900  178.2870  145.8090 C   0  0  0  0  0  3  0  0  0  0  0  0
  187.5960  177.4230  145.1810 C   0  0  0  0  0  0  0  0  0  0  0  0
  191.8390  174.6780  143.7350 C   0  0  2  0  0  3  0  0  0  0  0  0
  188.4590  173.8220  140.2750 O   0  0  0  0  0  0  0  0  0  0  0  0
  188.5990  173.7030  137.8850 C   0  0  0  0  0  1  0  0  0  0  0  0
  188.1910  174.5410  139.0780 C   0  0  0  0  0  2  0  0  0  0  0  0
  1  4  1  0  0  0  0
  1 19  1  0  0  0  0
  2 19  2  0  0  0  0
  2 13  1  0  0  0  0
  3 10  1  0  0  0  0
  4 20  1  0  0  0  0
  5  1  2  0  0  0  0
  6  8  1  0  0  0  0
  7 15  1  1  0  0  0
  7  9  1  0  0  0  0
  8 12  1  0  0  0  0
  9 22  1  0  0  0  0
  9 14  1  1  0  0  0
 10 21  2  0  0  0  0
 11  8  2  0  0  0  0
 11  5  1  0  0  0  0
 12 27  1  0  0  0  0
 12  4  2  0  0  0  0
 13 18  2  0  0  0  0
 15 23  1  0  0  0  0
 16  2  1  0  0  0  0
 17  3  1  0  0  0  0
 18 25  1  0  0  0  0
 19 26  1  0  0  0  0
 20 17  2  0  0  0  0
 22 20  1  6  0  0  0
 22 10  1  0  0  0  0
 23 14  1  0  0  0  0
 26 17  1  0  0  0  0
 26 25  2  0  0  0  0
 27  7  1  0  0  0  0
 27 24  1  1  0  0  0
 28 11  1  0  0  0  0
 29 30  1  0  0  0  0
 30 28  1  0  0  0  0
M  END
>  <MODEL>
2

>  <REMARK>
 VINA RESULT:      -8.3      2.642      5.636
  Name = 
  2 active torsions:
  status: ('A' for Active; 'I' for Inactive)
    1  A    between atoms: C_11  and  O_28
    2  A    between atoms: O_28  and  C_30
                            x       y       z     vdW  Elec       q    Type
                         _______ _______ _______ _____ _____    ______ ____

>  <TORSDO>
F 2

$$$$
=
 OpenBabel11112416183D

 30 35  0  0  1  0  0  0  0  0999 V2000
  188.0860  175.7650  141.8450 C   0  0  0  0  0  0  0  0  0  0  0  0
  189.6800  173.9130  141.3080 C   0  0  0  0  0  0  0  0  0  0  0  0
  189.3130  175.5760  146.2740 S   0  0  0  0  0  0  0  0  0  0  0  0
  187.4920  176.6300  142.8130 C   0  0  0  0  0  0  0  0  0  0  0  0
  187.6930  175.8800  140.5080 C   0  0  0  0  0  3  0  0  0  0  0  0
  185.0540  178.5760  140.5780 C   0  0  0  0  0  1  0  0  0  0  0  0
  185.1700  177.5940  144.5180 N   0  0  1  0  0  0  0  0  0  0  0  0
  186.1130  177.6210  141.0380 C   0  0  0  0  0  0  0  0  0  0  0  0
  186.1130  177.4210  145.6370 C   0  0  2  0  0  3  0  0  0  0  0  0
  188.4940  177.1550  146.3770 C   0  0  0  0  0  0  0  0  0  0  0  0
  186.7290  176.7980  140.0930 C   0  0  0  0  0  0  0  0  0  0  0  0
  186.4690  177.5370  142.4020 C   0  0  0  0  0  0  0  0  0  0  0  0
  190.6270  172.9840  141.7430 C   0  0  0  0  0  3  0  0  0  0  0  0
  185.7370  178.4240  146.7040 C   0  0  0  0  0  2  0  0  0  0  0  0
  184.0040  178.2920  145.0570 C   0  0  0  0  0  2  0  0  0  0  0  0
  189.3810  173.9210  139.9850 F   0  0  0  0  0  0  0  0  0  0  0  0
  188.8730  175.5800  144.5350 C   0  0  0  0  0  0  0  0  0  0  0  0
  190.9850  172.9120  143.0850 C   0  0  0  0  0  3  0  0  0  0  0  0
  189.0650  174.8030  142.2310 C   0  0  0  0  0  0  0  0  0  0  0  0
  187.9380  176.5390  144.1540 C   0  0  0  0  0  0  0  0  0  0  0  0
  188.7340  177.9390  147.2810 O   0  0  0  0  0  0  0  0  0  0  0  0
  187.5930  177.5100  145.2400 C   0  0  1  0  0  3  0  0  0  0  0  0
  184.2550  178.5950  146.5210 C   0  0  0  0  0  2  0  0  0  0  0  0
  186.3500  179.7090  143.7250 C   0  0  0  0  0  1  0  0  0  0  0  0
  190.3970  173.7750  144.0060 C   0  0  0  0  0  3  0  0  0  0  0  0
  189.4440  174.7170  143.5970 C   0  0  0  0  0  0  0  0  0  0  0  0
  185.6790  178.3780  143.3770 C   0  0  2  0  0  3  0  0  0  0  0  0
  186.3660  176.8960  138.7440 O   0  0  0  0  0  0  0  0  0  0  0  0
  185.9560  176.0420  136.5420 C   0  0  0  0  0  1  0  0  0  0  0  0
  186.8790  176.0290  137.7420 C   0  0  0  0  0  2  0  0  0  0  0  0
  1 19  2  0  0  0  0
  1  4  1  0  0  0  0
  2 13  2  0  0  0  0
  2 19  1  0  0  0  0
  3 10  1  0  0  0  0
  4 20  2  0  0  0  0
  5  1  1  0  0  0  0
  6  8  1  0  0  0  0
  7 15  1  1  0  0  0
  7  9  1  0  0  0  0
  8 12  2  0  0  0  0
  9 14  1  1  0  0  0
 10 21  2  0  0  0  0
 11  5  2  0  0  0  0
 11  8  1  0  0  0  0
 12  4  1  0  0  0  0
 12 27  1  0  0  0  0
 13 18  1  0  0  0  0
 15 23  1  0  0  0  0
 16  2  1  0  0  0  0
 17  3  1  0  0  0  0
 18 25  2  0  0  0  0
 19 26  1  0  0  0  0
 20 17  1  0  0  0  0
 22 20  1  6  0  0  0
 22  9  1  0  0  0  0
 22 10  1  0  0  0  0
 23 14  1  0  0  0  0
 26 25  1  0  0  0  0
 26 17  2  0  0  0  0
 27 24  1  1  0  0  0
 27  7  1  0  0  0  0
 28 11  1  0  0  0  0
 29 30  1  0  0  0  0
 30 28  1  0  0  0  0
M  END
>  <MODEL>
3

>  <REMARK>
 VINA RESULT:      -8.3      2.780      7.276
  Name = 
  2 active torsions:
  status: ('A' for Active; 'I' for Inactive)
    1  A    between atoms: C_11  and  O_28
    2  A    between atoms: O_28  and  C_30
                            x       y       z     vdW  Elec       q    Type
                         _______ _______ _______ _____ _____    ______ ____

>  <TORSDO>
F 2

$$$$
=
 OpenBabel11112416183D

 30 35  0  0  1  0  0  0  0  0999 V2000
  188.2110  175.6070  142.7510 C   0  0  0  0  0  0  0  0  0  0  0  0
  186.3500  177.2760  142.6490 C   0  0  0  0  0  0  0  0  0  0  0  0
  189.4390  177.1860  146.8930 S   0  0  0  0  0  0  0  0  0  0  0  0
  189.3230  175.0520  143.4520 C   0  0  0  0  0  0  0  0  0  0  0  0
  187.8660  175.0740  141.5050 C   0  0  0  0  0  3  0  0  0  0  0  0
  190.4770  172.4150  140.9150 C   0  0  0  0  0  1  0  0  0  0  0  0
  192.2920  174.5510  143.8540 N   0  0  1  0  0  0  0  0  0  0  0  0
  189.6980  173.5100  141.5770 C   0  0  0  0  0  0  0  0  0  0  0  0
  192.0510  175.0960  145.2010 C   0  0  2  0  0  3  0  0  0  0  0  0
  190.3860  175.6780  146.9830 C   0  0  0  0  0  0  0  0  0  0  0  0
  188.5830  174.0330  140.9180 C   0  0  0  0  0  0  0  0  0  0  0  0
  190.0910  174.0190  142.8340 C   0  0  0  0  0  0  0  0  0  0  0  0
  185.6560  178.3340  143.2400 C   0  0  0  0  0  3  0  0  0  0  0  0
  193.0480  174.4500  146.1360 C   0  0  0  0  0  2  0  0  0  0  0  0
  193.6470  174.0000  143.8610 C   0  0  0  0  0  2  0  0  0  0  0  0
  185.9190  176.8540  141.4350 F   0  0  0  0  0  0  0  0  0  0  0  0
  188.9130  176.6340  145.2700 C   0  0  0  0  0  0  0  0  0  0  0  0
  186.0380  178.8250  144.4850 C   0  0  0  0  0  3  0  0  0  0  0  0
  187.4610  176.6830  143.3110 C   0  0  0  0  0  0  0  0  0  0  0  0
  189.6280  175.5650  144.7360 C   0  0  0  0  0  0  0  0  0  0  0  0
  190.7500  175.2170  148.0520 O   0  0  0  0  0  0  0  0  0  0  0  0
  190.6050  174.9550  145.6940 C   0  0  1  0  0  3  0  0  0  0  0  0
  194.2300  174.1670  145.2500 C   0  0  0  0  0  2  0  0  0  0  0  0
  191.1520  172.3480  144.4370 C   0  0  0  0  0  1  0  0  0  0  0  0
  187.1210  178.2580  145.1500 C   0  0  0  0  0  3  0  0  0  0  0  0
  187.8350  177.1960  144.5800 C   0  0  0  0  0  0  0  0  0  0  0  0
  191.3710  173.4810  143.4300 C   0  0  2  0  0  3  0  0  0  0  0  0
  188.2050  173.5130  139.6730 O   0  0  0  0  0  0  0  0  0  0  0  0
  189.3690  173.8320  137.6020 C   0  0  0  0  0  1  0  0  0  0  0  0
  188.2210  174.2840  138.4790 C   0  0  0  0  0  2  0  0  0  0  0  0
  1 19  2  0  0  0  0
  1  4  1  0  0  0  0
  2 13  2  0  0  0  0
  2 19  1  0  0  0  0
  3 10  1  0  0  0  0
  4 20  2  0  0  0  0
  5  1  1  0  0  0  0
  6  8  1  0  0  0  0
  7 15  1  1  0  0  0
  7  9  1  0  0  0  0
  8 12  2  0  0  0  0
  9 22  1  0  0  0  0
  9 14  1  1  0  0  0
 10 21  2  0  0  0  0
 11  5  2  0  0  0  0
 11  8  1  0  0  0  0
 12 27  1  0  0  0  0
 12  4  1  0  0  0  0
 13 18  1  0  0  0  0
 15 23  1  0  0  0  0
 16  2  1  0  0  0  0
 17  3  1  0  0  0  0
 18 25  2  0  0  0  0
 19 26  1  0  0  0  0
 20 17  1  0  0  0  0
 22 20  1  6  0  0  0
 22 10  1  0  0  0  0
 23 14  1  0  0  0  0
 26 25  1  0  0  0  0
 26 17  2  0  0  0  0
 27  7  1  0  0  0  0
 27 24  1  1  0  0  0
 28 11  1  0  0  0  0
 29 30  1  0  0  0  0
 30 28  1  0  0  0  0
M  END
>  <MODEL>
4

>  <REMARK>
 VINA RESULT:      -8.2      2.505      5.708
  Name = 
  2 active torsions:
  status: ('A' for Active; 'I' for Inactive)
    1  A    between atoms: C_11  and  O_28
    2  A    between atoms: O_28  and  C_30
                            x       y       z     vdW  Elec       q    Type
                         _______ _______ _______ _____ _____    ______ ____

>  <TORSDO>
F 2

$$$$
=
 OpenBabel11112416183D

 30 35  0  0  1  0  0  0  0  0999 V2000
  188.1420  175.6610  141.0130 C   0  0  0  0  0  0  0  0  0  0  0  0
  188.0370  174.5290  138.7840 C   0  0  0  0  0  0  0  0  0  0  0  0
  191.4200  172.7370  142.3760 S   0  0  0  0  0  0  0  0  0  0  0  0
  188.7040  175.7410  142.3230 C   0  0  0  0  0  0  0  0  0  0  0  0
  187.1650  176.5910  140.6430 C   0  0  0  0  0  3  0  0  0  0  0  0
  186.6960  178.6850  143.7450 C   0  0  0  0  0  1  0  0  0  0  0  0
  188.5750  175.4590  145.3450 N   0  0  1  0  0  0  0  0  0  0  0  0
  187.2230  177.6390  142.8110 C   0  0  0  0  0  0  0  0  0  0  0  0
  189.7700  174.6150  145.1690 C   0  0  2  0  0  3  0  0  0  0  0  0
  191.6690  173.9160  143.6880 C   0  0  0  0  0  0  0  0  0  0  0  0
  186.7090  177.5780  141.5140 C   0  0  0  0  0  0  0  0  0  0  0  0
  188.2060  176.7190  143.2360 C   0  0  0  0  0  0  0  0  0  0  0  0
  188.4870  173.5210  137.9310 C   0  0  0  0  0  3  0  0  0  0  0  0
  190.5990  174.7380  146.4270 C   0  0  0  0  0  2  0  0  0  0  0  0
  188.4280  175.6830  146.7820 C   0  0  0  0  0  2  0  0  0  0  0  0
  187.0810  175.3640  138.3070 F   0  0  0  0  0  0  0  0  0  0  0  0
  190.1280  173.8300  141.7820 C   0  0  0  0  0  0  0  0  0  0  0  0
  189.4650  172.6230  138.3480 C   0  0  0  0  0  3  0  0  0  0  0  0
  188.5710  174.6570  140.0970 C   0  0  0  0  0  0  0  0  0  0  0  0
  189.7310  174.8280  142.6670 C   0  0  0  0  0  0  0  0  0  0  0  0
  192.7160  173.9630  144.3140 O   0  0  0  0  0  0  0  0  0  0  0  0
  190.5770  174.9140  143.8990 C   0  0  1  0  0  3  0  0  0  0  0  0
  189.5790  175.0030  147.4980 C   0  0  0  0  0  2  0  0  0  0  0  0
  189.9030  177.5920  144.9220 C   0  0  0  0  0  1  0  0  0  0  0  0
  190.0030  172.7300  139.6280 C   0  0  0  0  0  3  0  0  0  0  0  0
  189.5690  173.7330  140.5050 C   0  0  0  0  0  0  0  0  0  0  0  0
  188.6290  176.7770  144.6850 C   0  0  2  0  0  3  0  0  0  0  0  0
  185.7370  178.5010  141.1080 O   0  0  0  0  0  0  0  0  0  0  0  0
  183.3850  178.2030  141.4610 C   0  0  0  0  0  1  0  0  0  0  0  0
  184.5270  178.1150  140.4700 C   0  0  0  0  0  2  0  0  0  0  0  0
  1  4  1  0  0  0  0
  2 19  1  0  0  0  0
  3 10  1  0  0  0  0
  4 20  1  0  0  0  0
  4 12  2  0  0  0  0
  5  1  2  0  0  0  0
  5 11  1  0  0  0  0
  7 15  1  1  0  0  0
  8 12  1  0  0  0  0
  8  6  1  0  0  0  0
  9  7  1  0  0  0  0
  9 14  1  1  0  0  0
 10 22  1  0  0  0  0
 10 21  2  0  0  0  0
 11  8  2  0  0  0  0
 12 27  1  0  0  0  0
 13 18  1  0  0  0  0
 13  2  2  0  0  0  0
 14 23  1  0  0  0  0
 15 23  1  0  0  0  0
 16  2  1  0  0  0  0
 17  3  1  0  0  0  0
 17 20  2  0  0  0  0
 18 25  2  0  0  0  0
 19 26  2  0  0  0  0
 19  1  1  0  0  0  0
 22 20  1  6  0  0  0
 22  9  1  0  0  0  0
 25 26  1  0  0  0  0
 26 17  1  0  0  0  0
 27 24  1  6  0  0  0
 27  7  1  0  0  0  0
 28 11  1  0  0  0  0
 30 28  1  0  0  0  0
 30 29  1  0  0  0  0
M  END
>  <MODEL>
5

>  <REMARK>
 VINA RESULT:      -8.1      3.068      7.078
  Name = 
  2 active torsions:
  status: ('A' for Active; 'I' for Inactive)
    1  A    between atoms: C_11  and  O_28
    2  A    between atoms: O_28  and  C_30
                            x       y       z     vdW  Elec       q    Type
                         _______ _______ _______ _____ _____    ______ ____

>  <TORSDO>
F 2

$$$$
=
 OpenBabel11112416183D

 30 35  0  0  1  0  0  0  0  0999 V2000
  188.1360  175.6290  141.7080 C   0  0  0  0  0  0  0  0  0  0  0  0
  186.5350  176.9840  140.3450 C   0  0  0  0  0  0  0  0  0  0  0  0
  186.7910  177.8220  145.5210 S   0  0  0  0  0  0  0  0  0  0  0  0
  188.7150  175.3250  142.9770 C   0  0  0  0  0  0  0  0  0  0  0  0
  188.5660  174.9160  140.5840 C   0  0  0  0  0  3  0  0  0  0  0  0
  191.2330  172.6210  141.9430 C   0  0  0  0  0  1  0  0  0  0  0  0
  191.0030  175.3140  144.9750 N   0  0  1  0  0  0  0  0  0  0  0  0
  190.1520  173.6560  141.8890 C   0  0  0  0  0  0  0  0  0  0  0  0
  190.0290  175.9640  145.8690 C   0  0  2  0  0  3  0  0  0  0  0  0
  187.6260  176.4900  146.3600 C   0  0  0  0  0  0  0  0  0  0  0  0
  189.5510  173.9330  140.6590 C   0  0  0  0  0  0  0  0  0  0  0  0
  189.7590  174.3540  143.0510 C   0  0  0  0  0  0  0  0  0  0  0  0
  185.5660  177.9870  140.2820 C   0  0  0  0  0  3  0  0  0  0  0  0
  190.3890  175.5800  147.2860 C   0  0  0  0  0  2  0  0  0  0  0  0
  192.1630  174.9730  145.7970 C   0  0  0  0  0  2  0  0  0  0  0  0
  186.8680  176.3710  139.1820 F   0  0  0  0  0  0  0  0  0  0  0  0
  187.2770  177.0220  143.9910 C   0  0  0  0  0  0  0  0  0  0  0  0
  185.1710  178.6650  141.4320 C   0  0  0  0  0  3  0  0  0  0  0  0
  187.1360  176.6380  141.5860 C   0  0  0  0  0  0  0  0  0  0  0  0
  188.2330  176.0170  144.1140 C   0  0  0  0  0  0  0  0  0  0  0  0
  187.3730  176.2080  147.5200 O   0  0  0  0  0  0  0  0  0  0  0  0
  188.5610  175.6680  145.5330 C   0  0  1  0  0  3  0  0  0  0  0  0
  191.8770  175.3770  147.2300 C   0  0  0  0  0  2  0  0  0  0  0  0
  189.8700  173.0460  145.2340 C   0  0  0  0  0  1  0  0  0  0  0  0
  185.7460  178.3410  142.6580 C   0  0  0  0  0  3  0  0  0  0  0  0
  186.7210  177.3390  142.7490 C   0  0  0  0  0  0  0  0  0  0  0  0
  190.5330  174.0790  144.3190 C   0  0  2  0  0  3  0  0  0  0  0  0
  189.9500  173.2280  139.5160 O   0  0  0  0  0  0  0  0  0  0  0  0
  189.7210  171.0080  138.6420 C   0  0  0  0  0  1  0  0  0  0  0  0
  189.0770  172.3700  138.7950 C   0  0  0  0  0  2  0  0  0  0  0  0
  1  4  1  0  0  0  0
  2 19  1  0  0  0  0
  3 10  1  0  0  0  0
  4 12  1  0  0  0  0
  4 20  2  0  0  0  0
  5 11  2  0  0  0  0
  5  1  1  0  0  0  0
  7 15  1  1  0  0  0
  7  9  1  0  0  0  0
  8  6  1  0  0  0  0
  8 12  2  0  0  0  0
  9 14  1  1  0  0  0
 10 21  2  0  0  0  0
 11  8  1  0  0  0  0
 12 27  1  0  0  0  0
 13  2  2  0  0  0  0
 13 18  1  0  0  0  0
 15 23  1  0  0  0  0
 16  2  1  0  0  0  0
 17 20  1  0  0  0  0
 17  3  1  0  0  0  0
 18 25  2  0  0  0  0
 19  1  2  0  0  0  0
 19 26  1  0  0  0  0
 22 20  1  6  0  0  0
 22  9  1  0  0  0  0
 22 10  1  0  0  0  0
 23 14  1  0  0  0  0
 25 26  1  0  0  0  0
 26 17  2  0  0  0  0
 27  7  1  0  0  0  0
 27 24  1  1  0  0  0
 28 11  1  0  0  0  0
 29 30  1  0  0  0  0
 30 28  1  0  0  0  0
M  END
>  <MODEL>
6

>  <REMARK>
 VINA RESULT:      -8.1      2.684      5.779
  Name = 
  2 active torsions:
  status: ('A' for Active; 'I' for Inactive)
    1  A    between atoms: C_11  and  O_28
    2  A    between atoms: O_28  and  C_30
                            x       y       z     vdW  Elec       q    Type
                         _______ _______ _______ _____ _____    ______ ____

>  <TORSDO>
F 2

$$$$
=
 OpenBabel11112416183D

 30 35  0  0  1  0  0  0  0  0999 V2000
  186.7300  177.5010  143.7210 C   0  0  0  0  0  0  0  0  0  0  0  0
  185.6850  179.0080  145.4230 C   0  0  0  0  0  0  0  0  0  0  0  0
  189.1590  175.4110  147.0200 S   0  0  0  0  0  0  0  0  0  0  0  0
  187.6360  176.4430  143.4120 C   0  0  0  0  0  0  0  0  0  0  0  0
  185.9990  178.0860  142.6820 C   0  0  0  0  0  3  0  0  0  0  0  0
  187.2160  176.2810  139.6010 C   0  0  0  0  0  1  0  0  0  0  0  0
  190.1920  175.3360  142.1990 N   0  0  1  0  0  0  0  0  0  0  0  0
  187.0540  176.6760  141.0370 C   0  0  0  0  0  0  0  0  0  0  0  0
  190.4150  174.7810  143.5450 C   0  0  2  0  0  3  0  0  0  0  0  0
  189.4390  174.1700  145.7720 C   0  0  0  0  0  0  0  0  0  0  0  0
  186.1390  177.6830  141.3550 C   0  0  0  0  0  0  0  0  0  0  0  0
  187.8210  176.0600  142.0480 C   0  0  0  0  0  0  0  0  0  0  0  0
  185.5720  179.4160  146.7530 C   0  0  0  0  0  3  0  0  0  0  0  0
  191.2210  173.5120  143.3830 C   0  0  0  0  0  2  0  0  0  0  0  0
  191.2010  174.7380  141.3260 C   0  0  0  0  0  2  0  0  0  0  0  0
  184.9250  179.6600  144.5080 F   0  0  0  0  0  0  0  0  0  0  0  0
  188.1930  176.2830  145.7860 C   0  0  0  0  0  0  0  0  0  0  0  0
  186.3200  178.7970  147.7500 C   0  0  0  0  0  3  0  0  0  0  0  0
  186.5680  177.9520  145.0630 C   0  0  0  0  0  0  0  0  0  0  0  0
  188.3300  175.8230  144.4790 C   0  0  0  0  0  0  0  0  0  0  0  0
  189.7670  173.0320  146.0670 O   0  0  0  0  0  0  0  0  0  0  0  0
  189.1350  174.5660  144.3640 C   0  0  1  0  0  3  0  0  0  0  0  0
  192.0290  173.7630  142.1410 C   0  0  0  0  0  2  0  0  0  0  0  0
  188.3950  173.6060  141.6800 C   0  0  0  0  0  1  0  0  0  0  0  0
  187.1900  177.7610  147.4210 C   0  0  0  0  0  3  0  0  0  0  0  0
  187.3220  177.3320  146.0940 C   0  0  0  0  0  0  0  0  0  0  0  0
  188.8670  175.0610  141.6130 C   0  0  2  0  0  3  0  0  0  0  0  0
  185.3840  178.2820  140.3390 O   0  0  0  0  0  0  0  0  0  0  0  0
  183.1130  177.5410  140.1380 C   0  0  0  0  0  1  0  0  0  0  0  0
  184.0320  178.6830  140.5180 C   0  0  0  0  0  2  0  0  0  0  0  0
  1 19  1  0  0  0  0
  2 13  1  0  0  0  0
  4  1  1  0  0  0  0
  4 20  1  0  0  0  0
  5  1  2  0  0  0  0
  6  8  1  0  0  0  0
  7 15  1  6  0  0  0
  7  9  1  0  0  0  0
  8 11  2  0  0  0  0
  8 12  1  0  0  0  0
  9 14  1  6  0  0  0
  9 22  1  0  0  0  0
 10 21  2  0  0  0  0
 10  3  1  0  0  0  0
 11  5  1  0  0  0  0
 12  4  2  0  0  0  0
 13 18  2  0  0  0  0
 15 23  1  0  0  0  0
 16  2  1  0  0  0  0
 17 26  1  0  0  0  0
 17  3  1  0  0  0  0
 19  2  2  0  0  0  0
 19 26  1  0  0  0  0
 20 17  2  0  0  0  0
 22 20  1  1  0  0  0
 22 10  1  0  0  0  0
 23 14  1  0  0  0  0
 25 18  1  0  0  0  0
 26 25  2  0  0  0  0
 27 24  1  1  0  0  0
 27 12  1  0  0  0  0
 27  7  1  0  0  0  0
 28 30  1  0  0  0  0
 28 11  1  0  0  0  0
 29 30  1  0  0  0  0
M  END
>  <MODEL>
7

>  <REMARK>
 VINA RESULT:      -8.0      2.184      5.229
  Name = 
  2 active torsions:
  status: ('A' for Active; 'I' for Inactive)
    1  A    between atoms: C_11  and  O_28
    2  A    between atoms: O_28  and  C_30
                            x       y       z     vdW  Elec       q    Type
                         _______ _______ _______ _____ _____    ______ ____

>  <TORSDO>
F 2

$$$$
=
 OpenBabel11112416183D

 30 35  0  0  1  0  0  0  0  0999 V2000
  190.3150  175.1460  143.5690 C   0  0  0  0  0  0  0  0  0  0  0  0
  192.4660  173.8700  143.4940 C   0  0  0  0  0  0  0  0  0  0  0  0
  191.1910  176.4260  147.8990 S   0  0  0  0  0  0  0  0  0  0  0  0
  189.3970  175.9600  144.2980 C   0  0  0  0  0  0  0  0  0  0  0  0
  190.0100  174.8050  142.2470 C   0  0  0  0  0  3  0  0  0  0  0  0
  186.6350  176.3880  141.6690 C   0  0  0  0  0  1  0  0  0  0  0  0
  186.7630  176.4550  145.7280 N   0  0  1  0  0  0  0  0  0  0  0  0
  187.9100  175.9820  142.3430 C   0  0  0  0  0  0  0  0  0  0  0  0
  187.6210  176.8780  146.8480 C   0  0  2  0  0  3  0  0  0  0  0  0
  189.8930  177.6130  147.6160 C   0  0  0  0  0  0  0  0  0  0  0  0
  188.8330  175.2190  141.6250 C   0  0  0  0  0  0  0  0  0  0  0  0
  188.1670  176.3450  143.6820 C   0  0  0  0  0  0  0  0  0  0  0  0
  193.6290  173.4440  144.1390 C   0  0  0  0  0  3  0  0  0  0  0  0
  186.8550  177.9150  147.6380 C   0  0  0  0  0  2  0  0  0  0  0  0
  185.3940  176.8240  146.0860 C   0  0  0  0  0  2  0  0  0  0  0  0
  192.2840  173.4660  142.2120 F   0  0  0  0  0  0  0  0  0  0  0  0
  190.9090  175.8730  146.2160 C   0  0  0  0  0  0  0  0  0  0  0  0
  193.8860  173.8150  145.4550 C   0  0  0  0  0  3  0  0  0  0  0  0
  191.5230  174.6900  144.1740 C   0  0  0  0  0  0  0  0  0  0  0  0
  189.7430  176.3430  145.6170 C   0  0  0  0  0  0  0  0  0  0  0  0
  189.7900  178.6210  148.2970 O   0  0  0  0  0  0  0  0  0  0  0  0
  189.0160  177.3660  146.4320 C   0  0  1  0  0  3  0  0  0  0  0  0
  185.4180  177.5280  147.4290 C   0  0  0  0  0  2  0  0  0  0  0  0
  187.2390  178.5960  144.4300 C   0  0  0  0  0  1  0  0  0  0  0  0
  192.9780  174.6190  146.1380 C   0  0  0  0  0  3  0  0  0  0  0  0
  191.8030  175.0590  145.5160 C   0  0  0  0  0  0  0  0  0  0  0  0
  187.0720  177.0740  144.4260 C   0  0  2  0  0  3  0  0  0  0  0  0
  188.5630  174.8700  140.2960 O   0  0  0  0  0  0  0  0  0  0  0  0
  188.1920  172.6660  139.4290 C   0  0  0  0  0  1  0  0  0  0  0  0
  189.1960  173.7790  139.6420 C   0  0  0  0  0  2  0  0  0  0  0  0
  1 19  2  0  0  0  0
  1  4  1  0  0  0  0
  2 13  2  0  0  0  0
  2 19  1  0  0  0  0
  4 20  2  0  0  0  0
  5  1  1  0  0  0  0
  6  8  1  0  0  0  0
  7 15  1  1  0  0  0
  7  9  1  0  0  0  0
  8 12  2  0  0  0  0
  9 14  1  6  0  0  0
 10  3  1  0  0  0  0
 10 21  2  0  0  0  0
 11  5  2  0  0  0  0
 11  8  1  0  0  0  0
 12  4  1  0  0  0  0
 12 27  1  0  0  0  0
 13 18  1  0  0  0  0
 15 23  1  0  0  0  0
 16  2  1  0  0  0  0
 17  3  1  0  0  0  0
 18 25  2  0  0  0  0
 19 26  1  0  0  0  0
 20 17  1  0  0  0  0
 22 20  1  6  0  0  0
 22  9  1  0  0  0  0
 22 10  1  0  0  0  0
 23 14  1  0  0  0  0
 26 25  1  0  0  0  0
 26 17  2  0  0  0  0
 27 24  1  1  0  0  0
 27  7  1  0  0  0  0
 28 11  1  0  0  0  0
 29 30  1  0  0  0  0
 30 28  1  0  0  0  0
M  END
>  <MODEL>
8

>  <REMARK>
 VINA RESULT:      -7.8      2.973      7.109
  Name = 
  2 active torsions:
  status: ('A' for Active; 'I' for Inactive)
    1  A    between atoms: C_11  and  O_28
    2  A    between atoms: O_28  and  C_30
                            x       y       z     vdW  Elec       q    Type
                         _______ _______ _______ _____ _____    ______ ____

>  <TORSDO>
F 2

$$$$
=
 OpenBabel11112416183D

 30 35  0  0  1  0  0  0  0  0999 V2000
  190.2050  175.7500  144.6540 C   0  0  0  0  0  0  0  0  0  0  0  0
  191.9090  176.4700  146.3380 C   0  0  0  0  0  0  0  0  0  0  0  0
  193.0970  172.5560  143.0480 S   0  0  0  0  0  0  0  0  0  0  0  0
  189.8370  174.9020  143.5670 C   0  0  0  0  0  0  0  0  0  0  0  0
  189.2780  176.6900  145.1180 C   0  0  0  0  0  3  0  0  0  0  0  0
  186.3150  176.2340  142.8280 C   0  0  0  0  0  1  0  0  0  0  0  0
  189.1900  174.3700  140.6470 N   0  0  1  0  0  0  0  0  0  0  0  0
  187.6620  176.0380  143.4540 C   0  0  0  0  0  0  0  0  0  0  0  0
  190.2340  173.3360  140.7580 C   0  0  2  0  0  3  0  0  0  0  0  0
  191.6420  171.9000  142.2560 C   0  0  0  0  0  0  0  0  0  0  0  0
  188.0170  176.8360  144.5440 C   0  0  0  0  0  0  0  0  0  0  0  0
  188.5650  175.0810  142.9430 C   0  0  0  0  0  0  0  0  0  0  0  0
  193.1850  176.3260  146.8880 C   0  0  0  0  0  3  0  0  0  0  0  0
  189.8850  172.2350  139.7820 C   0  0  0  0  0  2  0  0  0  0  0  0
  188.5330  174.1650  139.3570 C   0  0  0  0  0  2  0  0  0  0  0  0
  191.1060  177.4220  146.8750 F   0  0  0  0  0  0  0  0  0  0  0  0
  192.0300  173.8340  143.7150 C   0  0  0  0  0  0  0  0  0  0  0  0
  194.0680  175.3730  146.3910 C   0  0  0  0  0  3  0  0  0  0  0  0
  191.4910  175.6430  145.2590 C   0  0  0  0  0  0  0  0  0  0  0  0
  190.7640  173.9190  143.1420 C   0  0  0  0  0  0  0  0  0  0  0  0
  191.5860  170.7390  141.8830 O   0  0  0  0  0  0  0  0  0  0  0  0
  190.4600  172.8110  142.1820 C   0  0  1  0  0  3  0  0  0  0  0  0
  189.1510  172.9550  138.6860 C   0  0  0  0  0  2  0  0  0  0  0  0
  187.5260  172.9680  141.9720 C   0  0  0  0  0  1  0  0  0  0  0  0
  193.6790  174.5520  145.3360 C   0  0  0  0  0  3  0  0  0  0  0  0
  192.4050  174.6750  144.7660 C   0  0  0  0  0  0  0  0  0  0  0  0
  188.1530  174.3370  141.6940 C   0  0  2  0  0  3  0  0  0  0  0  0
  187.1070  177.7790  145.0400 O   0  0  0  0  0  0  0  0  0  0  0  0
  185.4470  176.7910  146.4600 C   0  0  0  0  0  1  0  0  0  0  0  0
  186.6160  177.7490  146.3730 C   0  0  0  0  0  2  0  0  0  0  0  0
  1  5  1  0  0  0  0
  1 19  1  0  0  0  0
  2 16  1  0  0  0  0
  2 13  1  0  0  0  0
  3 17  1  0  0  0  0
  4  1  2  0  0  0  0
  6  8  1  0  0  0  0
  7 15  1  6  0  0  0
  7  9  1  0  0  0  0
  7 27  1  0  0  0  0
  8 11  1  0  0  0  0
  9 14  1  6  0  0  0
  9 22  1  0  0  0  0
 10  3  1  0  0  0  0
 11 28  1  0  0  0  0
 11  5  2  0  0  0  0
 12  8  2  0  0  0  0
 12  4  1  0  0  0  0
 17 26  1  0  0  0  0
 18 13  2  0  0  0  0
 19  2  2  0  0  0  0
 20  4  1  0  0  0  0
 20 17  2  0  0  0  0
 21 10  2  0  0  0  0
 22 10  1  6  0  0  0
 22 20  1  0  0  0  0
 23 15  1  0  0  0  0
 23 14  1  0  0  0  0
 25 18  1  0  0  0  0
 26 19  1  0  0  0  0
 26 25  2  0  0  0  0
 27 24  1  1  0  0  0
 27 12  1  0  0  0  0
 28 30  1  0  0  0  0
 30 29  1  0  0  0  0
M  END
>  <MODEL>
9

>  <REMARK>
 VINA RESULT:      -7.8      2.981      5.633
  Name = 
  2 active torsions:
  status: ('A' for Active; 'I' for Inactive)
    1  A    between atoms: C_11  and  O_28
    2  A    between atoms: O_28  and  C_30
                            x       y       z     vdW  Elec       q    Type
                         _______ _______ _______ _____ _____    ______ ____

>  <TORSDO>
F 2

$$$$
