=
 OpenBabel11112418013D

 34 42  0  0  1  0  0  0  0  0999 V2000
  188.5870  176.7330  146.4710 C   0  0  1  0  0  3  0  0  0  0  0  0
  190.6060  175.9880  147.5900 C   0  0  0  0  0  2  0  0  0  0  0  0
  184.8810  177.8820  140.9170 C   0  0  2  0  0  0  0  0  0  0  0  0
  186.5440  177.4450  145.1640 C   0  0  2  0  0  3  0  0  0  0  0  0
  186.7860  177.6560  142.6190 C   0  0  2  0  0  3  0  0  0  0  0  0
  186.5970  177.5690  140.0310 C   0  0  2  0  0  3  0  0  0  0  0  0
  185.2790  177.5910  139.5760 O   0  0  0  0  0  0  0  0  0  0  0  0
  183.7180  178.6180  142.8850 C   0  0  0  0  0  3  0  0  0  0  0  0
  190.7140  176.8390  145.4970 C   0  0  2  0  0  3  0  0  0  0  0  0
  192.9870  175.8590  143.4390 C   0  0  0  0  0  3  0  0  0  0  0  0
  188.1930  177.4430  142.7630 N   0  0  0  0  0  2  0  0  0  0  0  0
  184.6220  178.3480  143.8470 C   0  0  0  0  0  3  0  0  0  0  0  0
  190.2060  176.8280  144.0520 C   0  0  1  0  0  3  0  0  0  0  0  0
  192.0790  175.9200  147.2010 C   0  0  0  0  0  2  0  0  0  0  0  0
  185.8430  177.4520  143.7930 C   0  0  2  0  0  3  0  0  0  0  0  0
  183.7830  178.2280  141.5010 N   0  0  0  0  0  2  0  0  0  0  0  0
  192.5870  175.3160  144.7910 C   0  0  2  0  0  3  0  0  0  0  0  0
  187.9140  176.7600  145.0870 C   0  0  1  0  0  3  0  0  0  0  0  0
  186.2590  177.6980  141.4100 C   0  0  1  0  0  3  0  0  0  0  0  0
  188.8160  177.4760  144.0760 C   0  0  2  0  0  3  0  0  0  0  0  0
  186.3140  176.7990  147.4600 C   0  0  0  0  0  2  0  0  0  0  0  0
  192.3530  176.8160  142.7350 C   0  0  0  0  0  3  0  0  0  0  0  0
  185.6990  176.7380  146.1330 N   0  0  0  0  0  2  0  0  0  0  0  0
  191.1650  177.6260  143.1820 C   0  0  0  0  0  2  0  0  0  0  0  0
  192.1510  176.4230  145.7620 C   0  0  1  0  0  3  0  0  0  0  0  0
  187.6460  176.0510  147.4610 C   0  0  0  0  0  2  0  0  0  0  0  0
  189.8610  176.0190  146.3420 N   0  0  2  0  0  0  0  0  0  0  0  0
  193.6570  174.5850  145.3160 O   0  0  0  0  0  0  0  0  0  0  0  0
  194.7830  175.0630  144.6400 C   0  0  0  0  0  2  0  0  0  0  0  0
  197.5480  173.9140  145.8930 O   0  0  0  0  0  0  0  0  0  0  0  0
  195.5270  172.8190  145.3570 C   0  0  0  0  0  2  0  0  0  0  0  0
  195.7430  173.9200  144.3600 C   0  0  2  0  0  3  0  0  0  0  0  0
  196.8510  172.7130  146.0760 C   0  0  0  0  0  2  0  0  0  0  0  0
  197.1580  174.3770  144.6270 C   0  0  0  0  0  2  0  0  0  0  0  0
  1 26  1  1  0  0  0
  3  7  1  1  0  0  0
  3 19  1  0  0  0  0
  3 16  1  0  0  0  0
  4 23  1  1  0  0  0
  5 11  1  6  0  0  0
  5 15  1  0  0  0  0
  6  7  1  1  0  0  0
  6  3  1  0  0  0  0
  6 19  1  0  0  0  0
  8 12  2  0  0  0  0
  9 25  1  0  0  0  0
  9 27  1  0  0  0  0
 10 17  1  0  0  0  0
 11 20  1  0  0  0  0
 13 20  1  0  0  0  0
 13  9  1  0  0  0  0
 14  2  1  0  0  0  0
 15 12  1  0  0  0  0
 15  4  1  0  0  0  0
 16  8  1  0  0  0  0
 17 28  1  0  0  0  0
 17 25  1  0  0  0  0
 18  4  1  0  0  0  0
 18  1  1  0  0  0  0
 19  5  1  0  0  0  0
 20 18  1  0  0  0  0
 21 26  1  0  0  0  0
 22 24  1  0  0  0  0
 22 10  2  0  0  0  0
 23 21  1  0  0  0  0
 24 13  1  0  0  0  0
 25 14  1  0  0  0  0
 27  1  1  0  0  0  0
 27  2  1  0  0  0  0
 29 28  1  0  0  0  0
 30 33  1  0  0  0  0
 31 33  1  0  0  0  0
 32 34  1  0  0  0  0
 32 29  1  0  0  0  0
 32 31  1  0  0  0  0
 34 30  1  0  0  0  0
M  END
>  <MODEL>
1

>  <REMARK>
 VINA RESULT:      -9.1      0.000      0.000
  Name = 
  3 active torsions:
  status: ('A' for Active; 'I' for Inactive)
    1  A    between atoms: C_17  and  O_28
    2  A    between atoms: O_28  and  C_29
    3  A    between atoms: C_29  and  C_32
                            x       y       z     vdW  Elec       q    Type
                         _______ _______ _______ _____ _____    ______ ____

>  <TORSDO>
F 3

$$$$
=
 OpenBabel11112418013D

 34 42  0  0  1  0  0  0  0  0999 V2000
  188.6110  176.7970  146.4160 C   0  0  1  0  0  3  0  0  0  0  0  0
  190.6340  176.0900  147.5540 C   0  0  0  0  0  2  0  0  0  0  0  0
  184.9210  177.8380  140.8310 C   0  0  2  0  0  0  0  0  0  0  0  0
  186.5660  177.4680  145.0900 C   0  0  2  0  0  3  0  0  0  0  0  0
  186.8190  177.6550  142.5450 C   0  0  2  0  0  3  0  0  0  0  0  0
  186.6460  177.5390  139.9570 C   0  0  2  0  0  3  0  0  0  0  0  0
  185.3300  177.5380  139.4950 O   0  0  0  0  0  0  0  0  0  0  0  0
  183.7380  178.5800  142.7850 C   0  0  0  0  0  3  0  0  0  0  0  0
  190.7410  176.9200  145.4520 C   0  0  2  0  0  3  0  0  0  0  0  0
  193.0380  175.9480  143.4170 C   0  0  0  0  0  3  0  0  0  0  0  0
  188.2280  177.4630  142.6980 N   0  0  0  0  0  2  0  0  0  0  0  0
  184.6390  178.3320  143.7530 C   0  0  0  0  0  3  0  0  0  0  0  0
  190.2420  176.8880  144.0050 C   0  0  1  0  0  3  0  0  0  0  0  0
  192.1090  176.0370  147.1730 C   0  0  0  0  0  2  0  0  0  0  0  0
  185.8730  177.4520  143.7160 C   0  0  2  0  0  3  0  0  0  0  0  0
  183.8150  178.1770  141.4050 N   0  0  0  0  0  2  0  0  0  0  0  0
  192.6390  175.4140  144.7730 C   0  0  2  0  0  3  0  0  0  0  0  0
  187.9450  176.8010  145.0290 C   0  0  1  0  0  3  0  0  0  0  0  0
  186.2980  177.6780  141.3330 C   0  0  1  0  0  3  0  0  0  0  0  0
  188.8430  177.5180  144.0150 C   0  0  2  0  0  3  0  0  0  0  0  0
  186.3320  176.8440  147.3920 C   0  0  0  0  0  2  0  0  0  0  0  0
  192.3960  176.8890  142.7000 C   0  0  0  0  0  3  0  0  0  0  0  0
  185.7260  176.7610  146.0630 N   0  0  0  0  0  2  0  0  0  0  0  0
  191.1950  177.6880  143.1320 C   0  0  0  0  0  2  0  0  0  0  0  0
  192.1830  176.5260  145.7300 C   0  0  1  0  0  3  0  0  0  0  0  0
  187.6730  176.1130  147.4080 C   0  0  0  0  0  2  0  0  0  0  0  0
  189.8940  176.0990  146.3020 N   0  0  2  0  0  0  0  0  0  0  0  0
  193.7140  174.7030  145.3110 O   0  0  0  0  0  0  0  0  0  0  0  0
  193.9100  173.6330  144.4340 C   0  0  0  0  0  2  0  0  0  0  0  0
  193.6500  170.5070  143.5980 O   0  0  0  0  0  0  0  0  0  0  0  0
  194.3250  171.5080  145.6260 C   0  0  0  0  0  2  0  0  0  0  0  0
  193.2720  172.3760  145.0020 C   0  0  2  0  0  3  0  0  0  0  0  0
  194.2660  170.2290  144.8260 C   0  0  0  0  0  2  0  0  0  0  0  0
  192.7330  171.5330  143.8700 C   0  0  0  0  0  2  0  0  0  0  0  0
  1 26  1  1  0  0  0
  3  7  1  1  0  0  0
  3 19  1  0  0  0  0
  3 16  1  0  0  0  0
  4 23  1  1  0  0  0
  5 11  1  6  0  0  0
  5 15  1  0  0  0  0
  6  7  1  1  0  0  0
  6  3  1  0  0  0  0
  6 19  1  0  0  0  0
  8 12  2  0  0  0  0
  9 25  1  0  0  0  0
  9 27  1  0  0  0  0
 10 17  1  0  0  0  0
 11 20  1  0  0  0  0
 13 20  1  0  0  0  0
 13  9  1  0  0  0  0
 14  2  1  0  0  0  0
 15 12  1  0  0  0  0
 15  4  1  0  0  0  0
 16  8  1  0  0  0  0
 17 28  1  0  0  0  0
 17 25  1  0  0  0  0
 18  4  1  0  0  0  0
 18  1  1  0  0  0  0
 19  5  1  0  0  0  0
 20 18  1  0  0  0  0
 21 26  1  0  0  0  0
 22 24  1  0  0  0  0
 22 10  2  0  0  0  0
 23 21  1  0  0  0  0
 24 13  1  0  0  0  0
 25 14  1  0  0  0  0
 27  1  1  0  0  0  0
 27  2  1  0  0  0  0
 29 32  1  0  0  0  0
 29 28  1  0  0  0  0
 30 34  1  0  0  0  0
 30 33  1  0  0  0  0
 32 31  1  0  0  0  0
 33 31  1  0  0  0  0
 34 32  1  0  0  0  0
M  END
>  <MODEL>
2

>  <REMARK>
 VINA RESULT:      -8.8      1.232      1.627
  Name = 
  3 active torsions:
  status: ('A' for Active; 'I' for Inactive)
    1  A    between atoms: C_17  and  O_28
    2  A    between atoms: O_28  and  C_29
    3  A    between atoms: C_29  and  C_32
                            x       y       z     vdW  Elec       q    Type
                         _______ _______ _______ _____ _____    ______ ____

>  <TORSDO>
F 3

$$$$
=
 OpenBabel11112418013D

 34 42  0  0  1  0  0  0  0  0999 V2000
  192.3920  175.8970  145.4960 C   0  0  1  0  0  3  0  0  0  0  0  0
  190.4420  176.6820  146.7050 C   0  0  0  0  0  2  0  0  0  0  0  0
  195.8400  174.7220  139.7830 C   0  0  2  0  0  0  0  0  0  0  0  0
  194.3610  175.1460  144.0990 C   0  0  2  0  0  3  0  0  0  0  0  0
  194.0120  174.9780  141.5630 C   0  0  2  0  0  3  0  0  0  0  0  0
  194.1000  175.0960  138.9710 C   0  0  2  0  0  3  0  0  0  0  0  0
  195.3980  175.0430  138.4640 O   0  0  0  0  0  0  0  0  0  0  0  0
  197.0590  173.9250  141.6940 C   0  0  0  0  0  3  0  0  0  0  0  0
  190.2270  175.8650  144.6070 C   0  0  2  0  0  3  0  0  0  0  0  0
  187.9030  176.9370  142.6550 C   0  0  0  0  0  3  0  0  0  0  0  0
  192.6180  175.2280  141.7660 N   0  0  0  0  0  2  0  0  0  0  0  0
  196.2030  174.2070  142.6940 C   0  0  0  0  0  3  0  0  0  0  0  0
  190.6770  175.8810  143.1430 C   0  0  1  0  0  3  0  0  0  0  0  0
  188.9580  176.7970  146.3760 C   0  0  0  0  0  2  0  0  0  0  0  0
  195.0060  175.1380  142.7010 C   0  0  2  0  0  3  0  0  0  0  0  0
  196.9500  174.3370  140.3180 N   0  0  0  0  0  2  0  0  0  0  0  0
  188.3710  177.4490  143.9970 C   0  0  2  0  0  3  0  0  0  0  0  0
  193.0090  175.8700  144.0860 C   0  0  1  0  0  3  0  0  0  0  0  0
  194.4890  174.9380  140.3340 C   0  0  1  0  0  3  0  0  0  0  0  0
  192.0480  175.1940  143.1030 C   0  0  2  0  0  3  0  0  0  0  0  0
  194.7000  175.7510  146.3920 C   0  0  0  0  0  2  0  0  0  0  0  0
  188.4800  175.9730  141.9140 C   0  0  0  0  0  3  0  0  0  0  0  0
  195.2630  175.8140  145.0420 N   0  0  0  0  0  2  0  0  0  0  0  0
  189.6620  175.1240  142.3020 C   0  0  0  0  0  2  0  0  0  0  0  0
  188.8130  176.3170  144.9350 C   0  0  1  0  0  3  0  0  0  0  0  0
  193.3920  176.5370  146.4560 C   0  0  0  0  0  2  0  0  0  0  0  0
  191.1360  176.6470  145.4280 N   0  0  2  0  0  0  0  0  0  0  0  0
  187.3450  178.2030  144.5740 O   0  0  0  0  0  0  0  0  0  0  0  0
  186.1770  177.4850  144.3000 C   0  0  0  0  0  2  0  0  0  0  0  0
  185.7470  177.3570  147.5160 O   0  0  0  0  0  0  0  0  0  0  0  0
  185.4630  179.1380  145.9930 C   0  0  0  0  0  2  0  0  0  0  0  0
  185.0940  177.8620  145.2960 C   0  0  2  0  0  3  0  0  0  0  0  0
  185.5630  178.7450  147.4470 C   0  0  0  0  0  2  0  0  0  0  0  0
  185.0580  176.8400  146.4080 C   0  0  0  0  0  2  0  0  0  0  0  0
  1 26  1  1  0  0  0
  3  7  1  1  0  0  0
  3 16  1  0  0  0  0
  3 19  1  0  0  0  0
  4 23  1  1  0  0  0
  5 11  1  6  0  0  0
  5 15  1  0  0  0  0
  6  7  1  1  0  0  0
  6  3  1  0  0  0  0
  6 19  1  0  0  0  0
  8 12  2  0  0  0  0
  9 25  1  0  0  0  0
  9 27  1  0  0  0  0
 10 17  1  0  0  0  0
 11 20  1  0  0  0  0
 12 15  1  0  0  0  0
 13  9  1  0  0  0  0
 14  2  1  0  0  0  0
 15  4  1  0  0  0  0
 16  8  1  0  0  0  0
 17 28  1  0  0  0  0
 17 25  1  0  0  0  0
 18  4  1  0  0  0  0
 18  1  1  0  0  0  0
 19  5  1  0  0  0  0
 20 13  1  0  0  0  0
 20 18  1  0  0  0  0
 21 26  1  0  0  0  0
 22 24  1  0  0  0  0
 22 10  2  0  0  0  0
 23 21  1  0  0  0  0
 24 13  1  0  0  0  0
 25 14  1  0  0  0  0
 27  1  1  0  0  0  0
 27  2  1  0  0  0  0
 29 28  1  0  0  0  0
 29 32  1  0  0  0  0
 31 33  1  0  0  0  0
 32 31  1  0  0  0  0
 32 34  1  0  0  0  0
 33 30  1  0  0  0  0
 34 30  1  0  0  0  0
M  END
>  <MODEL>
3

>  <REMARK>
 VINA RESULT:      -8.6      3.473      8.432
  Name = 
  3 active torsions:
  status: ('A' for Active; 'I' for Inactive)
    1  A    between atoms: C_17  and  O_28
    2  A    between atoms: O_28  and  C_29
    3  A    between atoms: C_29  and  C_32
                            x       y       z     vdW  Elec       q    Type
                         _______ _______ _______ _____ _____    ______ ____

>  <TORSDO>
F 3

$$$$
=
 OpenBabel11112418013D

 34 42  0  0  1  0  0  0  0  0999 V2000
  189.5760  175.0780  142.0560 C   0  0  1  0  0  3  0  0  0  0  0  0
  187.2570  175.6180  142.5200 C   0  0  0  0  0  2  0  0  0  0  0  0
  195.9980  174.0650  143.9610 C   0  0  2  0  0  0  0  0  0  0  0  0
  192.0170  174.5060  141.7360 C   0  0  2  0  0  3  0  0  0  0  0  0
  193.5970  174.9300  143.7110 C   0  0  2  0  0  3  0  0  0  0  0  0
  195.3500  174.8620  145.6260 C   0  0  2  0  0  3  0  0  0  0  0  0
  196.4870  174.1230  145.3010 O   0  0  0  0  0  0  0  0  0  0  0  0
  195.7780  173.8880  141.5750 C   0  0  0  0  0  3  0  0  0  0  0  0
  188.9040  176.4580  143.8230 C   0  0  2  0  0  3  0  0  0  0  0  0
  188.3740  177.0960  146.9330 C   0  0  0  0  0  3  0  0  0  0  0  0
  192.5220  175.5810  144.3960 N   0  0  0  0  0  2  0  0  0  0  0  0
  194.4710  174.1600  141.4060 C   0  0  0  0  0  3  0  0  0  0  0  0
  190.1530  176.2140  144.6740 C   0  0  1  0  0  3  0  0  0  0  0  0
  186.5470  176.4470  143.5840 C   0  0  0  0  0  2  0  0  0  0  0  0
  193.3490  174.1590  142.4260 C   0  0  2  0  0  3  0  0  0  0  0  0
  196.4650  173.6720  142.8220 N   0  0  0  0  0  2  0  0  0  0  0  0
  187.5220  176.3640  145.9230 C   0  0  2  0  0  3  0  0  0  0  0  0
  190.9070  174.7640  142.7610 C   0  0  1  0  0  3  0  0  0  0  0  0
  194.7290  174.7060  144.3510 C   0  0  1  0  0  3  0  0  0  0  0  0
  191.2950  175.9170  143.6930 C   0  0  2  0  0  3  0  0  0  0  0  0
  190.4050  173.7500  140.1320 C   0  0  0  0  0  2  0  0  0  0  0  0
  189.6380  177.5260  146.7620 C   0  0  0  0  0  3  0  0  0  0  0  0
  191.6250  173.3970  140.8600 N   0  0  0  0  0  2  0  0  0  0  0  0
  190.4480  177.4600  145.4940 C   0  0  0  0  0  2  0  0  0  0  0  0
  187.6450  176.9580  144.5130 C   0  0  1  0  0  3  0  0  0  0  0  0
  189.2420  173.9300  141.1060 C   0  0  0  0  0  2  0  0  0  0  0  0
  188.5480  175.2580  143.0840 N   0  0  2  0  0  0  0  0  0  0  0  0
  186.1950  176.3810  146.3590 O   0  0  0  0  0  0  0  0  0  0  0  0
  186.2020  177.1910  147.4970 C   0  0  0  0  0  2  0  0  0  0  0  0
  185.5570  179.6070  145.4260 O   0  0  0  0  0  0  0  0  0  0  0  0
  184.1630  177.9150  146.3030 C   0  0  0  0  0  2  0  0  0  0  0  0
  185.1640  178.2920  147.3560 C   0  0  2  0  0  3  0  0  0  0  0  0
  184.3050  178.9980  145.2610 C   0  0  0  0  0  2  0  0  0  0  0  0
  185.8220  179.5330  146.8020 C   0  0  0  0  0  2  0  0  0  0  0  0
  1 26  1  6  0  0  0
  1 18  1  0  0  0  0
  1 27  1  0  0  0  0
  2 27  1  0  0  0  0
  2 14  1  0  0  0  0
  3 16  1  6  0  0  0
  3 19  1  0  0  0  0
  3  7  1  0  0  0  0
  3  6  1  0  0  0  0
  4 23  1  6  0  0  0
  4 15  1  0  0  0  0
  4 18  1  0  0  0  0
  5 19  1  0  0  0  0
  5 11  1  1  0  0  0
  6  7  1  1  0  0  0
  8 16  1  0  0  0  0
  9 25  1  0  0  0  0
  9 13  1  0  0  0  0
 12  8  2  0  0  0  0
 12 15  1  0  0  0  0
 13 24  1  0  0  0  0
 14 25  1  0  0  0  0
 15  5  1  0  0  0  0
 17 28  1  0  0  0  0
 17 10  1  0  0  0  0
 18 20  1  0  0  0  0
 19  6  1  0  0  0  0
 20 11  1  0  0  0  0
 20 13  1  0  0  0  0
 21 23  1  0  0  0  0
 21 26  1  0  0  0  0
 22 10  2  0  0  0  0
 24 22  1  0  0  0  0
 25 17  1  0  0  0  0
 27  9  1  0  0  0  0
 28 29  1  0  0  0  0
 30 34  1  0  0  0  0
 31 32  1  0  0  0  0
 32 29  1  0  0  0  0
 33 30  1  0  0  0  0
 33 31  1  0  0  0  0
 34 32  1  0  0  0  0
M  END
>  <MODEL>
4

>  <REMARK>
 VINA RESULT:      -8.6      3.034      8.810
  Name = 
  3 active torsions:
  status: ('A' for Active; 'I' for Inactive)
    1  A    between atoms: C_17  and  O_28
    2  A    between atoms: O_28  and  C_29
    3  A    between atoms: C_29  and  C_32
                            x       y       z     vdW  Elec       q    Type
                         _______ _______ _______ _____ _____    ______ ____

>  <TORSDO>
F 3

$$$$
=
 OpenBabel11112418013D

 34 42  0  0  1  0  0  0  0  0999 V2000
  192.1850  175.8390  145.5700 C   0  0  1  0  0  3  0  0  0  0  0  0
  190.1220  176.2870  146.7640 C   0  0  0  0  0  2  0  0  0  0  0  0
  195.7730  175.0400  139.8790 C   0  0  2  0  0  0  0  0  0  0  0  0
  194.2580  175.4170  144.1870 C   0  0  2  0  0  3  0  0  0  0  0  0
  193.9390  175.0300  141.6720 C   0  0  2  0  0  3  0  0  0  0  0  0
  193.9900  175.0060  139.0760 C   0  0  2  0  0  3  0  0  0  0  0  0
  195.2690  175.1860  138.5510 O   0  0  0  0  0  0  0  0  0  0  0  0
  197.1360  174.6220  141.8120 C   0  0  0  0  0  3  0  0  0  0  0  0
  190.0670  175.3180  144.7210 C   0  0  2  0  0  3  0  0  0  0  0  0
  187.5650  175.7820  142.7490 C   0  0  0  0  0  3  0  0  0  0  0  0
  192.5240  175.0060  141.8830 N   0  0  0  0  0  2  0  0  0  0  0  0
  196.2450  174.7850  142.8080 C   0  0  0  0  0  3  0  0  0  0  0  0
  190.4970  175.3370  143.2510 C   0  0  1  0  0  3  0  0  0  0  0  0
  188.6440  176.0810  146.4540 C   0  0  0  0  0  2  0  0  0  0  0  0
  194.8860  175.4550  142.7810 C   0  0  2  0  0  3  0  0  0  0  0  0
  196.9410  174.9190  140.4170 N   0  0  0  0  0  2  0  0  0  0  0  0
  187.9270  176.4580  144.0510 C   0  0  2  0  0  3  0  0  0  0  0  0
  192.7880  175.8520  144.1550 C   0  0  1  0  0  3  0  0  0  0  0  0
  194.4090  175.0130  140.4390 C   0  0  1  0  0  3  0  0  0  0  0  0
  191.9790  174.9380  143.2290 C   0  0  2  0  0  3  0  0  0  0  0  0
  194.4790  176.2160  146.4350 C   0  0  0  0  0  2  0  0  0  0  0  0
  188.3220  174.9100  142.0550 C   0  0  0  0  0  3  0  0  0  0  0  0
  195.0110  176.3090  145.0750 N   0  0  0  0  0  2  0  0  0  0  0  0
  189.6520  174.3410  142.4730 C   0  0  0  0  0  2  0  0  0  0  0  0
  188.5930  175.4960  145.0460 C   0  0  1  0  0  3  0  0  0  0  0  0
  193.0390  176.7240  146.4750 C   0  0  0  0  0  2  0  0  0  0  0  0
  190.8030  176.3160  145.4800 N   0  0  2  0  0  0  0  0  0  0  0  0
  186.7720  177.0220  144.6000 O   0  0  0  0  0  0  0  0  0  0  0  0
  186.6120  178.2360  143.9260 C   0  0  0  0  0  2  0  0  0  0  0  0
  183.7060  178.6720  145.3060 O   0  0  0  0  0  0  0  0  0  0  0  0
  185.8750  178.7060  146.2370 C   0  0  0  0  0  2  0  0  0  0  0  0
  185.9540  179.2540  144.8420 C   0  0  2  0  0  3  0  0  0  0  0  0
  184.3940  178.6590  146.5270 C   0  0  0  0  0  2  0  0  0  0  0  0
  184.5080  179.4290  144.4400 C   0  0  0  0  0  2  0  0  0  0  0  0
  1 26  1  1  0  0  0
  3  7  1  1  0  0  0
  3 16  1  0  0  0  0
  3 19  1  0  0  0  0
  4 23  1  1  0  0  0
  5 11  1  6  0  0  0
  5 15  1  0  0  0  0
  6  7  1  1  0  0  0
  6  3  1  0  0  0  0
  6 19  1  0  0  0  0
  8 12  2  0  0  0  0
  9 25  1  0  0  0  0
  9 27  1  0  0  0  0
 10 17  1  0  0  0  0
 11 20  1  0  0  0  0
 13  9  1  0  0  0  0
 14  2  1  0  0  0  0
 15 12  1  0  0  0  0
 15  4  1  0  0  0  0
 16  8  1  0  0  0  0
 17 28  1  0  0  0  0
 17 25  1  0  0  0  0
 18  4  1  0  0  0  0
 18  1  1  0  0  0  0
 19  5  1  0  0  0  0
 20 13  1  0  0  0  0
 20 18  1  0  0  0  0
 21 26  1  0  0  0  0
 22 24  1  0  0  0  0
 22 10  2  0  0  0  0
 23 21  1  0  0  0  0
 24 13  1  0  0  0  0
 25 14  1  0  0  0  0
 27  1  1  0  0  0  0
 27  2  1  0  0  0  0
 29 28  1  0  0  0  0
 29 32  1  0  0  0  0
 30 33  1  0  0  0  0
 31 33  1  0  0  0  0
 32 31  1  0  0  0  0
 34 32  1  0  0  0  0
 34 30  1  0  0  0  0
M  END
>  <MODEL>
5

>  <REMARK>
 VINA RESULT:      -8.5      3.373      8.540
  Name = 
  3 active torsions:
  status: ('A' for Active; 'I' for Inactive)
    1  A    between atoms: C_17  and  O_28
    2  A    between atoms: O_28  and  C_29
    3  A    between atoms: C_29  and  C_32
                            x       y       z     vdW  Elec       q    Type
                         _______ _______ _______ _____ _____    ______ ____

>  <TORSDO>
F 3

$$$$
=
 OpenBabel11112418013D

 34 42  0  0  1  0  0  0  0  0999 V2000
  189.9150  176.5870  146.3620 C   0  0  1  0  0  3  0  0  0  0  0  0
  187.5640  177.1520  146.5510 C   0  0  0  0  0  2  0  0  0  0  0  0
  195.6710  175.9630  142.8440 C   0  0  2  0  0  0  0  0  0  0  0  0
  192.3640  176.0660  146.0130 C   0  0  2  0  0  3  0  0  0  0  0  0
  193.2210  175.9850  143.5960 C   0  0  2  0  0  3  0  0  0  0  0  0
  194.4620  176.2270  141.3290 C   0  0  2  0  0  3  0  0  0  0  0  0
  195.8470  176.3060  141.4680 O   0  0  0  0  0  0  0  0  0  0  0  0
  195.9610  175.1850  145.0970 C   0  0  0  0  0  3  0  0  0  0  0  0
  188.4020  176.4150  144.5830 C   0  0  2  0  0  3  0  0  0  0  0  0
  187.1250  177.3780  141.7900 C   0  0  0  0  0  3  0  0  0  0  0  0
  191.8690  176.1090  143.1420 N   0  0  0  0  0  2  0  0  0  0  0  0
  194.7220  175.3490  145.5980 C   0  0  0  0  0  3  0  0  0  0  0  0
  189.4630  176.5350  143.4850 C   0  0  1  0  0  3  0  0  0  0  0  0
  186.3870  177.1580  145.5830 C   0  0  0  0  0  2  0  0  0  0  0  0
  193.5710  176.1750  145.0620 C   0  0  2  0  0  3  0  0  0  0  0  0
  196.4500  175.6470  143.8240 N   0  0  0  0  0  2  0  0  0  0  0  0
  186.8840  177.8660  143.1990 C   0  0  2  0  0  3  0  0  0  0  0  0
  191.1040  176.6750  145.3870 C   0  0  1  0  0  3  0  0  0  0  0  0
  194.2040  176.0400  142.7190 C   0  0  1  0  0  3  0  0  0  0  0  0
  190.7610  175.9670  144.0730 C   0  0  2  0  0  3  0  0  0  0  0  0
  191.5690  176.5940  148.2110 C   0  0  0  0  0  2  0  0  0  0  0  0
  188.0640  176.5000  141.3910 C   0  0  0  0  0  3  0  0  0  0  0  0
  192.6730  176.7640  147.2650 N   0  0  0  0  0  2  0  0  0  0  0  0
  189.0160  175.7350  142.2730 C   0  0  0  0  0  2  0  0  0  0  0  0
  186.9580  176.7330  144.2330 C   0  0  1  0  0  3  0  0  0  0  0  0
  190.3050  177.2650  147.6730 C   0  0  0  0  0  2  0  0  0  0  0  0
  188.7620  177.2330  145.7310 N   0  0  2  0  0  0  0  0  0  0  0  0
  185.6420  178.5050  143.2470 O   0  0  0  0  0  0  0  0  0  0  0  0
  184.8160  177.7430  142.4160 C   0  0  0  0  0  2  0  0  0  0  0  0
  182.9580  177.5170  139.7630 O   0  0  0  0  0  0  0  0  0  0  0  0
  182.4740  178.3540  141.9160 C   0  0  0  0  0  2  0  0  0  0  0  0
  183.9110  178.6570  141.6070 C   0  0  2  0  0  3  0  0  0  0  0  0
  181.9000  177.9160  140.5900 C   0  0  0  0  0  2  0  0  0  0  0  0
  184.0430  178.3220  140.1400 C   0  0  0  0  0  2  0  0  0  0  0  0
  1 26  1  1  0  0  0
  3  7  1  1  0  0  0
  3 16  1  0  0  0  0
  4 23  1  1  0  0  0
  5 11  1  6  0  0  0
  5 15  1  0  0  0  0
  6  7  1  1  0  0  0
  6 19  1  0  0  0  0
  6  3  1  0  0  0  0
  8 12  2  0  0  0  0
  9 27  1  0  0  0  0
 10 17  1  0  0  0  0
 11 20  1  0  0  0  0
 13 20  1  0  0  0  0
 13  9  1  0  0  0  0
 14  2  1  0  0  0  0
 15 12  1  0  0  0  0
 15  4  1  0  0  0  0
 16  8  1  0  0  0  0
 17 28  1  0  0  0  0
 17 25  1  0  0  0  0
 18  4  1  0  0  0  0
 18  1  1  0  0  0  0
 19  3  1  0  0  0  0
 19  5  1  0  0  0  0
 20 18  1  0  0  0  0
 22 10  2  0  0  0  0
 22 24  1  0  0  0  0
 23 21  1  0  0  0  0
 24 13  1  0  0  0  0
 25  9  1  0  0  0  0
 25 14  1  0  0  0  0
 26 21  1  0  0  0  0
 27  1  1  0  0  0  0
 27  2  1  0  0  0  0
 29 28  1  0  0  0  0
 30 34  1  0  0  0  0
 30 33  1  0  0  0  0
 32 31  1  0  0  0  0
 32 29  1  0  0  0  0
 33 31  1  0  0  0  0
 34 32  1  0  0  0  0
M  END
>  <MODEL>
6

>  <REMARK>
 VINA RESULT:      -8.4      2.278      8.778
  Name = 
  3 active torsions:
  status: ('A' for Active; 'I' for Inactive)
    1  A    between atoms: C_17  and  O_28
    2  A    between atoms: O_28  and  C_29
    3  A    between atoms: C_29  and  C_32
                            x       y       z     vdW  Elec       q    Type
                         _______ _______ _______ _____ _____    ______ ____

>  <TORSDO>
F 3

$$$$
=
 OpenBabel11112418013D

 34 42  0  0  1  0  0  0  0  0999 V2000
  189.6200  175.4720  143.1130 C   0  0  1  0  0  3  0  0  0  0  0  0
  191.7390  174.7950  142.1470 C   0  0  0  0  0  2  0  0  0  0  0  0
  185.9040  178.8810  147.6370 C   0  0  2  0  0  0  0  0  0  0  0  0
  187.4940  176.2880  144.2120 C   0  0  2  0  0  3  0  0  0  0  0  0
  187.7200  177.5100  146.4560 C   0  0  2  0  0  3  0  0  0  0  0  0
  187.6460  179.1120  148.4970 C   0  0  2  0  0  3  0  0  0  0  0  0
  186.4160  179.7510  148.6490 O   0  0  0  0  0  0  0  0  0  0  0  0
  184.5030  177.5410  146.2190 C   0  0  0  0  0  3  0  0  0  0  0  0
  191.6040  175.3110  144.3460 C   0  0  2  0  0  3  0  0  0  0  0  0
  194.1330  176.5550  145.9000 C   0  0  0  0  0  3  0  0  0  0  0  0
  189.1090  177.1680  146.4710 N   0  0  0  0  0  2  0  0  0  0  0  0
  185.4160  176.9280  145.4440 C   0  0  0  0  0  3  0  0  0  0  0  0
  191.1730  176.2970  145.4350 C   0  0  1  0  0  3  0  0  0  0  0  0
  193.1540  174.6290  142.6890 C   0  0  0  0  0  2  0  0  0  0  0  0
  186.8730  177.2760  145.2160 C   0  0  2  0  0  3  0  0  0  0  0  0
  184.7370  178.6120  147.1530 N   0  0  0  0  0  2  0  0  0  0  0  0
  193.9090  176.3160  144.4260 C   0  0  2  0  0  3  0  0  0  0  0  0
  189.0180  176.4440  144.1440 C   0  0  1  0  0  3  0  0  0  0  0  0
  187.2450  178.3270  147.3760 C   0  0  1  0  0  3  0  0  0  0  0  0
  189.6440  176.2050  145.5220 C   0  0  2  0  0  3  0  0  0  0  0  0
  187.4370  175.5360  141.9370 C   0  0  0  0  0  2  0  0  0  0  0  0
  193.2280  176.4160  146.8870 C   0  0  0  0  0  3  0  0  0  0  0  0
  186.9200  176.5260  142.8830 N   0  0  0  0  0  2  0  0  0  0  0  0
  191.8200  175.8980  146.7510 C   0  0  0  0  0  2  0  0  0  0  0  0
  193.0890  175.0460  144.1560 C   0  0  1  0  0  3  0  0  0  0  0  0
  188.9460  175.7080  141.7640 C   0  0  0  0  0  2  0  0  0  0  0  0
  191.0650  175.7090  143.0550 N   0  0  2  0  0  0  0  0  0  0  0  0
  195.1500  176.2530  143.7870 O   0  0  0  0  0  0  0  0  0  0  0  0
  195.9540  175.4940  144.6400 C   0  0  0  0  0  2  0  0  0  0  0  0
  196.6620  174.1570  141.7680 O   0  0  0  0  0  0  0  0  0  0  0  0
  197.5770  176.0400  142.8580 C   0  0  0  0  0  2  0  0  0  0  0  0
  197.1990  175.0300  143.9020 C   0  0  2  0  0  3  0  0  0  0  0  0
  197.4800  175.2750  141.5600 C   0  0  0  0  0  2  0  0  0  0  0  0
  196.8750  173.7890  143.1040 C   0  0  0  0  0  2  0  0  0  0  0  0
  1 26  1  6  0  0  0
  1 18  1  0  0  0  0
  2 14  1  0  0  0  0
  2 27  1  0  0  0  0
  3 16  1  1  0  0  0
  3  6  1  0  0  0  0
  3  7  1  0  0  0  0
  4 23  1  6  0  0  0
  4 15  1  0  0  0  0
  5 11  1  6  0  0  0
  5 19  1  0  0  0  0
  6  7  1  6  0  0  0
  8 16  1  0  0  0  0
  9 13  1  0  0  0  0
 10 22  2  0  0  0  0
 12  8  2  0  0  0  0
 13 20  1  0  0  0  0
 13 24  1  0  0  0  0
 14 25  1  0  0  0  0
 15 12  1  0  0  0  0
 15  5  1  0  0  0  0
 17 10  1  0  0  0  0
 18  4  1  0  0  0  0
 18 20  1  0  0  0  0
 19  3  1  0  0  0  0
 19  6  1  0  0  0  0
 20 11  1  0  0  0  0
 21 23  1  0  0  0  0
 24 22  1  0  0  0  0
 25  9  1  0  0  0  0
 25 17  1  0  0  0  0
 26 21  1  0  0  0  0
 27  1  1  0  0  0  0
 27  9  1  0  0  0  0
 28 17  1  0  0  0  0
 28 29  1  0  0  0  0
 30 34  1  0  0  0  0
 31 32  1  0  0  0  0
 32 29  1  0  0  0  0
 33 30  1  0  0  0  0
 33 31  1  0  0  0  0
 34 32  1  0  0  0  0
M  END
>  <MODEL>
7

>  <REMARK>
 VINA RESULT:      -8.3      2.665      4.347
  Name = 
  3 active torsions:
  status: ('A' for Active; 'I' for Inactive)
    1  A    between atoms: C_17  and  O_28
    2  A    between atoms: O_28  and  C_29
    3  A    between atoms: C_29  and  C_32
                            x       y       z     vdW  Elec       q    Type
                         _______ _______ _______ _____ _____    ______ ____

>  <TORSDO>
F 3

$$$$
=
 OpenBabel11112418013D

 34 42  0  0  1  0  0  0  0  0999 V2000
  193.3830  176.2230  143.4260 C   0  0  1  0  0  3  0  0  0  0  0  0
  191.5110  177.7540  143.2380 C   0  0  0  0  0  2  0  0  0  0  0  0
  196.2110  170.4310  145.5100 C   0  0  2  0  0  0  0  0  0  0  0  0
  195.2290  174.5150  143.6820 C   0  0  2  0  0  3  0  0  0  0  0  0
  194.8270  172.5800  145.3170 C   0  0  2  0  0  3  0  0  0  0  0  0
  194.5690  170.3190  146.5670 C   0  0  2  0  0  3  0  0  0  0  0  0
  195.5420  169.3840  146.2160 O   0  0  0  0  0  0  0  0  0  0  0  0
  197.8340  171.8290  144.4230 C   0  0  0  0  0  3  0  0  0  0  0  0
  191.6700  176.3640  145.0150 C   0  0  2  0  0  3  0  0  0  0  0  0
  189.0250  175.2810  146.4960 C   0  0  0  0  0  3  0  0  0  0  0  0
  193.6250  173.2280  145.7450 N   0  0  0  0  0  2  0  0  0  0  0  0
  197.0980  172.9180  144.1340 C   0  0  0  0  0  3  0  0  0  0  0  0
  191.8610  174.9430  145.5530 C   0  0  1  0  0  3  0  0  0  0  0  0
  190.2760  178.0380  144.0850 C   0  0  0  0  0  2  0  0  0  0  0  0
  195.5910  173.0790  144.1020 C   0  0  2  0  0  3  0  0  0  0  0  0
  197.3560  170.5680  144.9270 N   0  0  0  0  0  2  0  0  0  0  0  0
  189.1820  176.0400  145.1990 C   0  0  2  0  0  3  0  0  0  0  0  0
  193.7350  174.7950  143.8800 C   0  0  1  0  0  3  0  0  0  0  0  0
  195.0980  171.3660  145.7550 C   0  0  1  0  0  3  0  0  0  0  0  0
  193.3420  174.5970  145.3480 C   0  0  2  0  0  3  0  0  0  0  0  0
  195.3200  176.0940  141.8820 C   0  0  0  0  0  2  0  0  0  0  0  0
  190.0110  174.7650  147.2540 C   0  0  0  0  0  3  0  0  0  0  0  0
  195.5780  174.7070  142.2700 N   0  0  0  0  0  2  0  0  0  0  0  0
  191.4930  174.9150  147.0270 C   0  0  0  0  0  2  0  0  0  0  0  0
  190.3350  177.0530  145.2490 C   0  0  1  0  0  3  0  0  0  0  0  0
  193.8260  176.3990  141.9760 C   0  0  0  0  0  2  0  0  0  0  0  0
  191.9390  176.4090  143.5870 N   0  0  2  0  0  0  0  0  0  0  0  0
  187.9730  176.6740  144.9010 O   0  0  0  0  0  0  0  0  0  0  0  0
  187.2940  176.7440  146.1200 C   0  0  0  0  0  2  0  0  0  0  0  0
  184.9520  178.4390  144.6450 O   0  0  0  0  0  0  0  0  0  0  0  0
  185.3000  177.9570  146.9290 C   0  0  0  0  0  2  0  0  0  0  0  0
  186.6400  178.1060  146.2710 C   0  0  2  0  0  3  0  0  0  0  0  0
  184.3280  178.4790  145.8990 C   0  0  0  0  0  2  0  0  0  0  0  0
  186.3120  178.6600  144.9040 C   0  0  0  0  0  2  0  0  0  0  0  0
  1 26  1  6  0  0  0
  1 27  1  0  0  0  0
  1 18  1  0  0  0  0
  2 27  1  0  0  0  0
  2 14  1  0  0  0  0
  3 16  1  1  0  0  0
  3 19  1  0  0  0  0
  3  7  1  0  0  0  0
  3  6  1  0  0  0  0
  4 23  1  6  0  0  0
  4 18  1  0  0  0  0
  4 15  1  0  0  0  0
  5 11  1  6  0  0  0
  5 19  1  0  0  0  0
  6  7  1  6  0  0  0
  8 16  1  0  0  0  0
  9 25  1  0  0  0  0
  9 13  1  0  0  0  0
 10 22  2  0  0  0  0
 12  8  2  0  0  0  0
 13 24  1  0  0  0  0
 14 25  1  0  0  0  0
 15 12  1  0  0  0  0
 15  5  1  0  0  0  0
 17 25  1  0  0  0  0
 17 10  1  0  0  0  0
 18 20  1  0  0  0  0
 19  6  1  0  0  0  0
 20 13  1  0  0  0  0
 20 11  1  0  0  0  0
 21 26  1  0  0  0  0
 21 23  1  0  0  0  0
 24 22  1  0  0  0  0
 27  9  1  0  0  0  0
 28 17  1  0  0  0  0
 28 29  1  0  0  0  0
 29 32  1  0  0  0  0
 30 34  1  0  0  0  0
 30 33  1  0  0  0  0
 32 31  1  0  0  0  0
 33 31  1  0  0  0  0
 34 32  1  0  0  0  0
M  END
>  <MODEL>
8

>  <REMARK>
 VINA RESULT:      -8.3      3.164      9.638
  Name = 
  3 active torsions:
  status: ('A' for Active; 'I' for Inactive)
    1  A    between atoms: C_17  and  O_28
    2  A    between atoms: O_28  and  C_29
    3  A    between atoms: C_29  and  C_32
                            x       y       z     vdW  Elec       q    Type
                         _______ _______ _______ _____ _____    ______ ____

>  <TORSDO>
F 3

$$$$
=
 OpenBabel11112418013D

 34 42  0  0  1  0  0  0  0  0999 V2000
  190.1670  174.0900  141.3250 C   0  0  1  0  0  3  0  0  0  0  0  0
  187.8380  174.4960  141.8670 C   0  0  0  0  0  2  0  0  0  0  0  0
  196.7990  174.5240  142.6410 C   0  0  2  0  0  0  0  0  0  0  0  0
  192.6330  173.7170  140.9120 C   0  0  2  0  0  3  0  0  0  0  0  0
  194.2850  174.9750  142.4190 C   0  0  2  0  0  3  0  0  0  0  0  0
  196.1740  175.7740  144.0100 C   0  0  2  0  0  3  0  0  0  0  0  0
  197.3790  175.0990  143.8130 O   0  0  0  0  0  0  0  0  0  0  0  0
  196.4200  173.5040  140.4990 C   0  0  0  0  0  3  0  0  0  0  0  0
  189.4410  175.9150  142.5980 C   0  0  2  0  0  3  0  0  0  0  0  0
  189.0710  177.5340  145.3550 C   0  0  0  0  0  3  0  0  0  0  0  0
  193.1830  175.7000  142.9740 N   0  0  0  0  0  2  0  0  0  0  0  0
  195.0770  173.5530  140.4140 C   0  0  0  0  0  3  0  0  0  0  0  0
  190.7760  176.1230  143.3180 C   0  0  1  0  0  3  0  0  0  0  0  0
  187.1000  175.5590  142.6720 C   0  0  0  0  0  2  0  0  0  0  0  0
  194.0520  173.7830  141.5060 C   0  0  2  0  0  3  0  0  0  0  0  0
  197.2270  173.8140  141.6510 N   0  0  0  0  0  2  0  0  0  0  0  0
  188.2590  176.4050  144.7630 C   0  0  2  0  0  3  0  0  0  0  0  0
  191.5820  174.1910  141.9230 C   0  0  1  0  0  3  0  0  0  0  0  0
  195.4840  175.1160  142.9500 C   0  0  1  0  0  3  0  0  0  0  0  0
  191.8680  175.6320  142.3580 C   0  0  2  0  0  3  0  0  0  0  0  0
  191.0280  172.2760  139.8690 C   0  0  0  0  0  2  0  0  0  0  0  0
  190.2400  178.0140  144.8930 C   0  0  0  0  0  3  0  0  0  0  0  0
  192.3400  172.3360  140.5150 N   0  0  0  0  0  2  0  0  0  0  0  0
  190.9480  177.6010  143.6300 C   0  0  0  0  0  2  0  0  0  0  0  0
  188.1800  176.4810  143.2320 C   0  0  1  0  0  3  0  0  0  0  0  0
  189.9320  172.6530  140.8630 C   0  0  0  0  0  2  0  0  0  0  0  0
  189.2080  174.5010  142.3540 N   0  0  2  0  0  0  0  0  0  0  0  0
  186.9820  176.4250  145.3300 O   0  0  0  0  0  0  0  0  0  0  0  0
  187.2020  176.5270  146.7060 C   0  0  0  0  0  2  0  0  0  0  0  0
  185.5610  179.3270  146.6160 O   0  0  0  0  0  0  0  0  0  0  0  0
  184.8110  177.0950  146.4430 C   0  0  0  0  0  2  0  0  0  0  0  0
  185.9810  177.1260  147.3830 C   0  0  2  0  0  3  0  0  0  0  0  0
  184.4500  178.5500  146.2640 C   0  0  0  0  0  2  0  0  0  0  0  0
  186.2130  178.5990  147.6230 C   0  0  0  0  0  2  0  0  0  0  0  0
  1 26  1  1  0  0  0
  1 18  1  0  0  0  0
  1 27  1  0  0  0  0
  2 27  1  0  0  0  0
  2 14  1  0  0  0  0
  3 16  1  6  0  0  0
  3 19  1  0  0  0  0
  3  7  1  0  0  0  0
  3  6  1  0  0  0  0
  4 23  1  1  0  0  0
  4 15  1  0  0  0  0
  4 18  1  0  0  0  0
  5 19  1  0  0  0  0
  5 11  1  1  0  0  0
  6  7  1  1  0  0  0
  8 16  1  0  0  0  0
  9 25  1  0  0  0  0
  9 13  1  0  0  0  0
 12  8  2  0  0  0  0
 12 15  1  0  0  0  0
 13 24  1  0  0  0  0
 14 25  1  0  0  0  0
 15  5  1  0  0  0  0
 17 28  1  0  0  0  0
 17 10  1  0  0  0  0
 18 20  1  0  0  0  0
 19  6  1  0  0  0  0
 20 11  1  0  0  0  0
 20 13  1  0  0  0  0
 21 23  1  0  0  0  0
 21 26  1  0  0  0  0
 22 10  2  0  0  0  0
 24 22  1  0  0  0  0
 25 17  1  0  0  0  0
 27  9  1  0  0  0  0
 28 29  1  0  0  0  0
 29 32  1  0  0  0  0
 30 34  1  0  0  0  0
 31 32  1  0  0  0  0
 32 34  1  0  0  0  0
 33 31  1  0  0  0  0
 33 30  1  0  0  0  0
M  END
>  <MODEL>
9

>  <REMARK>
 VINA RESULT:      -8.2      3.611      8.937
  Name = 
  3 active torsions:
  status: ('A' for Active; 'I' for Inactive)
    1  A    between atoms: C_17  and  O_28
    2  A    between atoms: O_28  and  C_29
    3  A    between atoms: C_29  and  C_32
                            x       y       z     vdW  Elec       q    Type
                         _______ _______ _______ _____ _____    ______ ____

>  <TORSDO>
F 3

$$$$
