=
 OpenBabel11112417493D

 34 42  0  0  1  0  0  0  0  0999 V2000
  189.8740  176.8660  144.7240 C   0  0  0  0  0  0  0  0  0  0  0  0
  192.1240  176.1330  143.9040 C   0  0  0  0  0  2  0  0  0  0  0  0
  184.5840  179.1250  144.2720 C   0  0  2  0  0  0  0  0  0  0  0  0
  187.6770  176.8910  145.7090 C   0  0  0  0  0  0  0  0  0  0  0  0
  185.6150  176.7050  144.1990 C   0  0  1  0  0  3  0  0  0  0  0  0
  186.1040  179.2550  144.3280 C   0  0  2  0  0  3  0  0  0  0  0  0
  185.2330  180.4920  144.2610 C   0  0  0  0  0  2  0  0  0  0  0  0
  184.9670  178.4790  146.7730 C   0  0  0  0  0  2  0  0  0  0  0  0
  190.2430  176.0050  142.3580 N   0  0  2  0  0  0  0  0  0  0  0  0
  189.8590  172.9720  141.2440 C   0  0  0  0  0  2  0  0  0  0  0  0
  186.4920  175.8440  143.2910 C   0  0  0  0  0  2  0  0  0  0  0  0
  185.3210  177.0060  146.7880 C   0  0  0  0  0  2  0  0  0  0  0  0
  188.8810  175.4330  142.5050 C   0  0  1  0  0  3  0  0  0  0  0  0
  192.5600  175.3670  142.6870 C   0  0  0  0  0  2  0  0  0  0  0  0
  186.2070  176.5880  145.6160 C   0  0  2  0  0  3  0  0  0  0  0  0
  183.9810  178.7590  145.6430 C   0  0  0  0  0  2  0  0  0  0  0  0
  190.9000  173.5230  142.2360 C   0  0  1  0  0  3  0  0  0  0  0  0
  188.4960  176.7000  144.5810 C   0  0  0  0  0  0  0  0  0  0  0  0
  185.4700  178.1090  143.5550 C   0  0  2  0  0  3  0  0  0  0  0  0
  187.9310  176.3960  143.2190 C   0  0  2  0  0  3  0  0  0  0  0  0
  189.5810  177.3930  147.0160 C   0  0  0  0  0  3  0  0  0  0  0  0
  189.2030  174.0410  140.3630 C   0  0  0  0  0  2  0  0  0  0  0  0
  188.2410  177.2130  146.9040 N   0  0  0  0  0  0  0  0  0  0  0  0
  188.3050  175.0010  141.1460 C   0  0  0  0  0  2  0  0  0  0  0  0
  191.2730  175.0080  141.9800 C   0  0  1  0  0  3  0  0  0  0  0  0
  190.3840  177.2270  145.9330 N   0  0  0  0  0  0  0  0  0  0  0  0
  190.7860  176.7410  143.5260 C   0  0  1  0  0  3  0  0  0  0  0  0
  190.4550  173.3260  143.5490 O   0  0  0  0  0  0  0  0  0  0  0  0
  190.6340  171.9660  143.8070 C   0  0  0  0  0  2  0  0  0  0  0  0
  193.9950  172.1060  145.3230 O   0  0  0  0  0  0  0  0  0  0  0  0
  192.6860  170.6720  144.0730 N   0  0  0  0  0  0  0  0  0  0  0  0
  192.0230  171.7360  144.2910 C   0  0  0  0  0  0  0  0  0  0  0  0
  193.9100  170.8890  144.7070 N   0  0  0  0  0  2  0  0  0  0  0  0
  192.7710  172.6510  145.0630 N   0  0  0  0  0  2  0  0  0  0  0  0
  1 26  1  0  0  0  0
  3  7  1  6  0  0  0
  3  6  1  0  0  0  0
  3 16  1  0  0  0  0
  4 23  2  0  0  0  0
  5 11  1  6  0  0  0
  5 15  1  0  0  0  0
  6  7  1  6  0  0  0
  8 12  1  0  0  0  0
  9 13  1  0  0  0  0
  9 27  1  0  0  0  0
 10 17  1  0  0  0  0
 13 20  1  0  0  0  0
 14  2  1  0  0  0  0
 15  4  1  0  0  0  0
 15 12  1  0  0  0  0
 16  8  1  0  0  0  0
 17 28  1  0  0  0  0
 18  1  2  0  0  0  0
 18  4  1  0  0  0  0
 19  5  1  0  0  0  0
 19  3  1  0  0  0  0
 19  6  1  0  0  0  0
 20 11  1  0  0  0  0
 20 18  1  0  0  0  0
 22 24  1  0  0  0  0
 22 10  1  0  0  0  0
 23 21  1  0  0  0  0
 24 13  1  0  0  0  0
 25 17  1  0  0  0  0
 25  9  1  0  0  0  0
 25 14  1  0  0  0  0
 26 21  2  0  0  0  0
 27  2  1  0  0  0  0
 27  1  1  0  0  0  0
 28 29  1  0  0  0  0
 29 32  1  0  0  0  0
 31 32  2  0  0  0  0
 31 33  1  0  0  0  0
 32 34  1  0  0  0  0
 33 30  1  0  0  0  0
 34 30  1  0  0  0  0
M  END
>  <MODEL>
1

>  <REMARK>
 VINA RESULT:      -9.1      0.000      0.000
  Name = 
  3 active torsions:
  status: ('A' for Active; 'I' for Inactive)
    1  A    between atoms: C_17  and  O_28
    2  A    between atoms: O_28  and  C_29
    3  A    between atoms: C_29  and  C_32
                            x       y       z     vdW  Elec       q    Type
                         _______ _______ _______ _____ _____    ______ ____

>  <TORSDO>
F 3

$$$$
=
 OpenBabel11112417493D

 34 42  0  0  1  0  0  0  0  0999 V2000
  189.7110  173.9610  143.7900 C   0  0  0  0  0  0  0  0  0  0  0  0
  191.5380  172.2550  143.9250 C   0  0  0  0  0  2  0  0  0  0  0  0
  186.0580  177.9360  145.8270 C   0  0  2  0  0  0  0  0  0  0  0  0
  188.3980  175.8880  143.1900 C   0  0  0  0  0  0  0  0  0  0  0  0
  188.4350  177.9600  144.6980 C   0  0  1  0  0  3  0  0  0  0  0  0
  186.5140  176.4900  145.6510 C   0  0  2  0  0  3  0  0  0  0  0  0
  185.2130  176.8000  146.3620 C   0  0  0  0  0  2  0  0  0  0  0  0
  185.5950  177.6580  143.2710 C   0  0  0  0  0  2  0  0  0  0  0  0
  191.6150  174.1390  145.4690 N   0  0  2  0  0  0  0  0  0  0  0  0
  194.4090  175.7780  145.1650 C   0  0  0  0  0  2  0  0  0  0  0  0
  189.8760  177.5670  145.0190 C   0  0  0  0  0  2  0  0  0  0  0  0
  186.9100  177.9180  142.5640 C   0  0  0  0  0  2  0  0  0  0  0  0
  191.4830  175.6020  145.2490 C   0  0  1  0  0  3  0  0  0  0  0  0
  192.8730  172.2490  144.6160 C   0  0  0  0  0  2  0  0  0  0  0  0
  188.1170  177.3600  143.3160 C   0  0  2  0  0  3  0  0  0  0  0  0
  185.5000  178.5320  144.5180 C   0  0  0  0  0  2  0  0  0  0  0  0
  193.9200  174.5330  144.4020 C   0  0  1  0  0  3  0  0  0  0  0  0
  189.3780  175.2980  144.0090 C   0  0  0  0  0  0  0  0  0  0  0  0
  187.5400  177.5820  145.9090 C   0  0  2  0  0  3  0  0  0  0  0  0
  190.0190  176.0350  145.1540 C   0  0  2  0  0  3  0  0  0  0  0  0
  188.1380  173.8500  142.0210 C   0  0  0  0  0  3  0  0  0  0  0  0
  193.6960  176.0180  146.5000 C   0  0  0  0  0  2  0  0  0  0  0  0
  187.8160  175.1560  142.2020 N   0  0  0  0  0  0  0  0  0  0  0  0
  192.2230  176.4010  146.3360 C   0  0  0  0  0  2  0  0  0  0  0  0
  192.9850  173.6210  145.2410 C   0  0  1  0  0  3  0  0  0  0  0  0
  189.0700  173.2610  142.8140 N   0  0  0  0  0  0  0  0  0  0  0  0
  190.7050  173.2640  144.6900 C   0  0  1  0  0  3  0  0  0  0  0  0
  193.3130  174.9220  143.2020 O   0  0  0  0  0  0  0  0  0  0  0  0
  194.0270  176.0380  142.7630 C   0  0  0  0  0  2  0  0  0  0  0  0
  196.1950  175.6720  139.8010 O   0  0  0  0  0  0  0  0  0  0  0  0
  194.0810  175.0830  140.5190 N   0  0  0  0  0  0  0  0  0  0  0  0
  194.6550  175.7370  141.4480 C   0  0  0  0  0  0  0  0  0  0  0  0
  195.0260  175.0360  139.4930 N   0  0  0  0  0  2  0  0  0  0  0  0
  195.9600  176.1170  141.0700 N   0  0  0  0  0  2  0  0  0  0  0  0
  1 18  1  0  0  0  0
  1 27  1  0  0  0  0
  2 14  1  0  0  0  0
  2 27  1  0  0  0  0
  3 16  1  6  0  0  0
  3 19  1  0  0  0  0
  3  7  1  0  0  0  0
  4 15  1  0  0  0  0
  4 18  2  0  0  0  0
  5 11  1  1  0  0  0
  5 19  1  0  0  0  0
  6  3  1  0  0  0  0
  6 19  1  0  0  0  0
  6  7  1  1  0  0  0
  8 16  1  0  0  0  0
 10 22  1  0  0  0  0
 11 20  1  0  0  0  0
 12  8  1  0  0  0  0
 12 15  1  0  0  0  0
 13  9  1  0  0  0  0
 13 24  1  0  0  0  0
 14 25  1  0  0  0  0
 15  5  1  0  0  0  0
 17 10  1  0  0  0  0
 17 25  1  0  0  0  0
 18 20  1  0  0  0  0
 20 13  1  0  0  0  0
 21 23  2  0  0  0  0
 21 26  1  0  0  0  0
 23  4  1  0  0  0  0
 24 22  1  0  0  0  0
 25  9  1  0  0  0  0
 26  1  2  0  0  0  0
 27  9  1  0  0  0  0
 28 17  1  0  0  0  0
 29 28  1  0  0  0  0
 30 34  1  0  0  0  0
 31 32  2  0  0  0  0
 32 29  1  0  0  0  0
 33 30  1  0  0  0  0
 33 31  1  0  0  0  0
 34 32  1  0  0  0  0
M  END
>  <MODEL>
2

>  <REMARK>
 VINA RESULT:      -8.9      2.614      4.631
  Name = 
  3 active torsions:
  status: ('A' for Active; 'I' for Inactive)
    1  A    between atoms: C_17  and  O_28
    2  A    between atoms: O_28  and  C_29
    3  A    between atoms: C_29  and  C_32
                            x       y       z     vdW  Elec       q    Type
                         _______ _______ _______ _____ _____    ______ ____

>  <TORSDO>
F 3

$$$$
=
 OpenBabel11112417493D

 34 42  0  0  1  0  0  0  0  0999 V2000
  189.6950  173.9580  143.7960 C   0  0  0  0  0  0  0  0  0  0  0  0
  191.5060  172.2340  143.9310 C   0  0  0  0  0  2  0  0  0  0  0  0
  186.0850  177.9740  145.8290 C   0  0  2  0  0  0  0  0  0  0  0  0
  188.4000  175.8970  143.1930 C   0  0  0  0  0  0  0  0  0  0  0  0
  188.4600  177.9710  144.6960 C   0  0  1  0  0  3  0  0  0  0  0  0
  186.5260  176.5230  145.6560 C   0  0  2  0  0  3  0  0  0  0  0  0
  185.2300  176.8470  146.3680 C   0  0  0  0  0  2  0  0  0  0  0  0
  185.6150  177.6940  143.2740 C   0  0  0  0  0  2  0  0  0  0  0  0
  191.6040  174.1220  145.4710 N   0  0  2  0  0  0  0  0  0  0  0  0
  194.4140  175.7320  145.1580 C   0  0  0  0  0  2  0  0  0  0  0  0
  189.8980  177.5650  145.0160 C   0  0  0  0  0  2  0  0  0  0  0  0
  186.9310  177.9400  142.5650 C   0  0  0  0  0  2  0  0  0  0  0  0
  191.4860  175.5850  145.2480 C   0  0  1  0  0  3  0  0  0  0  0  0
  192.8410  172.2170  144.6200 C   0  0  0  0  0  2  0  0  0  0  0  0
  188.1340  177.3720  143.3160 C   0  0  2  0  0  3  0  0  0  0  0  0
  185.5300  178.5720  144.5200 C   0  0  0  0  0  2  0  0  0  0  0  0
  193.9100  174.4900  144.3990 C   0  0  1  0  0  3  0  0  0  0  0  0
  189.3750  175.2980  144.0120 C   0  0  0  0  0  0  0  0  0  0  0  0
  187.5640  177.6050  145.9090 C   0  0  2  0  0  3  0  0  0  0  0  0
  190.0260  176.0330  145.1540 C   0  0  2  0  0  3  0  0  0  0  0  0
  188.1180  173.8590  142.0290 C   0  0  0  0  0  3  0  0  0  0  0  0
  193.7040  175.9820  146.4940 C   0  0  0  0  0  2  0  0  0  0  0  0
  187.8100  175.1680  142.2080 N   0  0  0  0  0  0  0  0  0  0  0  0
  192.2350  176.3790  146.3310 C   0  0  0  0  0  2  0  0  0  0  0  0
  192.9680  173.5890  145.2410 C   0  0  1  0  0  3  0  0  0  0  0  0
  189.0460  173.2630  142.8220 N   0  0  0  0  0  0  0  0  0  0  0  0
  190.6830  173.2540  144.6950 C   0  0  1  0  0  3  0  0  0  0  0  0
  193.3050  174.8820  143.1980 O   0  0  0  0  0  0  0  0  0  0  0  0
  194.2430  174.6130  142.2000 C   0  0  0  0  0  2  0  0  0  0  0  0
  192.2800  172.5070  139.8930 O   0  0  0  0  0  0  0  0  0  0  0  0
  194.3330  172.5200  140.9490 N   0  0  0  0  0  0  0  0  0  0  0  0
  193.7010  173.5720  141.2830 C   0  0  0  0  0  0  0  0  0  0  0  0
  193.4620  171.8510  140.0870 N   0  0  0  0  0  2  0  0  0  0  0  0
  192.4370  173.6260  140.6580 N   0  0  0  0  0  2  0  0  0  0  0  0
  1 18  1  0  0  0  0
  1 27  1  0  0  0  0
  2 14  1  0  0  0  0
  2 27  1  0  0  0  0
  3 16  1  6  0  0  0
  3 19  1  0  0  0  0
  3  7  1  0  0  0  0
  4 15  1  0  0  0  0
  4 18  2  0  0  0  0
  5 11  1  1  0  0  0
  5 19  1  0  0  0  0
  6  3  1  0  0  0  0
  6 19  1  0  0  0  0
  6  7  1  1  0  0  0
  8 16  1  0  0  0  0
 10 22  1  0  0  0  0
 11 20  1  0  0  0  0
 12  8  1  0  0  0  0
 12 15  1  0  0  0  0
 13  9  1  0  0  0  0
 13 24  1  0  0  0  0
 14 25  1  0  0  0  0
 15  5  1  0  0  0  0
 17 10  1  0  0  0  0
 17 25  1  0  0  0  0
 18 20  1  0  0  0  0
 20 13  1  0  0  0  0
 21 23  2  0  0  0  0
 21 26  1  0  0  0  0
 23  4  1  0  0  0  0
 24 22  1  0  0  0  0
 25  9  1  0  0  0  0
 26  1  2  0  0  0  0
 27  9  1  0  0  0  0
 28 17  1  0  0  0  0
 29 28  1  0  0  0  0
 30 33  1  0  0  0  0
 30 34  1  0  0  0  0
 31 32  2  0  0  0  0
 32 29  1  0  0  0  0
 33 31  1  0  0  0  0
 34 32  1  0  0  0  0
M  END
>  <MODEL>
3

>  <REMARK>
 VINA RESULT:      -8.5      2.201      4.312
  Name = 
  3 active torsions:
  status: ('A' for Active; 'I' for Inactive)
    1  A    between atoms: C_17  and  O_28
    2  A    between atoms: O_28  and  C_29
    3  A    between atoms: C_29  and  C_32
                            x       y       z     vdW  Elec       q    Type
                         _______ _______ _______ _____ _____    ______ ____

>  <TORSDO>
F 3

$$$$
=
 OpenBabel11112417493D

 34 42  0  0  1  0  0  0  0  0999 V2000
  191.2790  173.3290  143.1160 C   0  0  0  0  0  0  0  0  0  0  0  0
  188.8940  173.0800  142.3970 C   0  0  0  0  0  2  0  0  0  0  0  0
  196.6290  175.4850  142.9580 C   0  0  2  0  0  0  0  0  0  0  0  0
  193.2620  173.7160  144.4270 C   0  0  0  0  0  0  0  0  0  0  0  0
  194.4280  175.9950  144.3080 C   0  0  1  0  0  3  0  0  0  0  0  0
  195.5150  174.6020  142.4010 C   0  0  2  0  0  3  0  0  0  0  0  0
  196.8870  174.5970  141.7590 C   0  0  0  0  0  2  0  0  0  0  0  0
  196.5510  173.6710  144.8360 C   0  0  0  0  0  2  0  0  0  0  0  0
  189.9410  175.2680  142.1540 N   0  0  2  0  0  0  0  0  0  0  0  0
  188.2650  177.5430  143.7650 C   0  0  0  0  0  2  0  0  0  0  0  0
  193.0330  176.5750  144.0760 C   0  0  0  0  0  2  0  0  0  0  0  0
  195.4420  174.0790  145.7840 C   0  0  0  0  0  2  0  0  0  0  0  0
  190.7280  176.0970  143.1010 C   0  0  1  0  0  3  0  0  0  0  0  0
  187.8280  174.0810  142.0520 C   0  0  0  0  0  2  0  0  0  0  0  0
  194.2290  174.6720  145.0690 C   0  0  2  0  0  3  0  0  0  0  0  0
  197.2220  174.9160  144.2630 C   0  0  0  0  0  2  0  0  0  0  0  0
  187.9890  176.0340  143.6390 C   0  0  1  0  0  3  0  0  0  0  0  0
  192.2390  174.2180  143.6000 C   0  0  0  0  0  0  0  0  0  0  0  0
  195.1850  175.9800  142.9530 C   0  0  2  0  0  3  0  0  0  0  0  0
  192.1920  175.6580  143.1640 C   0  0  2  0  0  3  0  0  0  0  0  0
  192.3500  171.5430  144.2470 C   0  0  0  0  0  3  0  0  0  0  0  0
  189.1780  178.1080  142.6720 C   0  0  0  0  0  2  0  0  0  0  0  0
  193.2810  172.3950  144.7470 N   0  0  0  0  0  0  0  0  0  0  0  0
  190.6170  177.5930  142.7630 C   0  0  0  0  0  2  0  0  0  0  0  0
  188.4740  175.4260  142.2960 C   0  0  1  0  0  3  0  0  0  0  0  0
  191.3660  172.0080  143.4340 N   0  0  0  0  0  0  0  0  0  0  0  0
  190.2040  173.8080  142.1680 C   0  0  1  0  0  3  0  0  0  0  0  0
  188.5390  175.3580  144.7350 O   0  0  0  0  0  0  0  0  0  0  0  0
  188.4470  176.2460  145.8090 C   0  0  0  0  0  2  0  0  0  0  0  0
  191.5820  175.3500  147.5360 O   0  0  0  0  0  0  0  0  0  0  0  0
  190.1750  177.1620  147.2680 N   0  0  0  0  0  0  0  0  0  0  0  0
  189.7010  176.1820  146.6100 C   0  0  0  0  0  0  0  0  0  0  0  0
  191.3420  176.6590  147.8470 N   0  0  0  0  0  2  0  0  0  0  0  0
  190.5260  175.0430  146.7270 N   0  0  0  0  0  2  0  0  0  0  0  0
  1 26  2  0  0  0  0
  1 18  1  0  0  0  0
  3  7  1  6  0  0  0
  3 16  1  0  0  0  0
  4 23  1  0  0  0  0
  4 15  1  0  0  0  0
  5 11  1  6  0  0  0
  5 15  1  0  0  0  0
  6  7  1  6  0  0  0
  6 19  1  0  0  0  0
  6  3  1  0  0  0  0
  8 12  1  0  0  0  0
  9 27  1  0  0  0  0
  9 25  1  0  0  0  0
  9 13  1  0  0  0  0
 13 20  1  0  0  0  0
 14 25  1  0  0  0  0
 14  2  1  0  0  0  0
 15 12  1  0  0  0  0
 16  8  1  0  0  0  0
 17 10  1  0  0  0  0
 17 28  1  0  0  0  0
 18  4  2  0  0  0  0
 19  3  1  0  0  0  0
 19  5  1  0  0  0  0
 20 18  1  0  0  0  0
 20 11  1  0  0  0  0
 21 23  2  0  0  0  0
 22 24  1  0  0  0  0
 22 10  1  0  0  0  0
 24 13  1  0  0  0  0
 25 17  1  0  0  0  0
 26 21  1  0  0  0  0
 27  2  1  0  0  0  0
 27  1  1  0  0  0  0
 28 29  1  0  0  0  0
 29 32  1  0  0  0  0
 30 33  1  0  0  0  0
 31 33  1  0  0  0  0
 32 34  1  0  0  0  0
 32 31  2  0  0  0  0
 34 30  1  0  0  0  0
M  END
>  <MODEL>
4

>  <REMARK>
 VINA RESULT:      -7.7      2.471      7.288
  Name = 
  3 active torsions:
  status: ('A' for Active; 'I' for Inactive)
    1  A    between atoms: C_17  and  O_28
    2  A    between atoms: O_28  and  C_29
    3  A    between atoms: C_29  and  C_32
                            x       y       z     vdW  Elec       q    Type
                         _______ _______ _______ _____ _____    ______ ____

>  <TORSDO>
F 3

$$$$
=
 OpenBabel11112417493D

 34 42  0  0  1  0  0  0  0  0999 V2000
  192.9660  175.7520  145.9200 C   0  0  0  0  0  0  0  0  0  0  0  0
  190.8370  175.7550  147.2380 C   0  0  0  0  0  2  0  0  0  0  0  0
  197.2080  173.4300  142.7720 C   0  0  2  0  0  0  0  0  0  0  0  0
  194.6600  176.2340  144.2780 C   0  0  0  0  0  0  0  0  0  0  0  0
  194.9450  174.6750  142.2640 C   0  0  1  0  0  3  0  0  0  0  0  0
  196.4890  173.6670  144.0970 C   0  0  2  0  0  3  0  0  0  0  0  0
  197.7850  172.8840  144.0600 C   0  0  0  0  0  2  0  0  0  0  0  0
  197.7450  175.9660  143.0930 C   0  0  0  0  0  2  0  0  0  0  0  0
  191.0450  174.1660  145.4000 N   0  0  2  0  0  0  0  0  0  0  0  0
  188.6440  174.5640  143.2420 C   0  0  0  0  0  2  0  0  0  0  0  0
  193.4400  174.4360  142.3730 C   0  0  0  0  0  2  0  0  0  0  0  0
  196.5470  176.7300  142.5680 C   0  0  0  0  0  2  0  0  0  0  0  0
  191.4710  174.3400  143.9880 C   0  0  1  0  0  3  0  0  0  0  0  0
  189.4920  175.1310  146.9930 C   0  0  0  0  0  2  0  0  0  0  0  0
  195.2150  176.0550  142.8910 C   0  0  2  0  0  3  0  0  0  0  0  0
  197.9410  174.6930  142.2750 C   0  0  0  0  0  2  0  0  0  0  0  0
  188.9230  175.3350  144.5450 C   0  0  1  0  0  3  0  0  0  0  0  0
  193.5410  175.4810  144.6780 C   0  0  0  0  0  0  0  0  0  0  0  0
  195.6820  173.4320  142.8300 C   0  0  2  0  0  3  0  0  0  0  0  0
  192.9940  174.3500  143.8480 C   0  0  2  0  0  3  0  0  0  0  0  0
  194.5810  177.4430  146.3070 C   0  0  0  0  0  3  0  0  0  0  0  0
  189.3180  173.1900  143.1680 C   0  0  0  0  0  2  0  0  0  0  0  0
  195.1410  177.2110  145.0930 N   0  0  0  0  0  0  0  0  0  0  0  0
  190.8440  173.2700  143.0780 C   0  0  0  0  0  2  0  0  0  0  0  0
  189.6150  174.4760  145.6360 C   0  0  1  0  0  3  0  0  0  0  0  0
  193.5100  176.7140  146.7150 N   0  0  0  0  0  0  0  0  0  0  0  0
  191.8090  174.9220  146.4240 C   0  0  1  0  0  3  0  0  0  0  0  0
  189.6580  176.4930  144.2630 O   0  0  0  0  0  0  0  0  0  0  0  0
  188.8440  177.5590  144.6520 C   0  0  0  0  0  2  0  0  0  0  0  0
  187.2610  178.3350  141.4120 O   0  0  0  0  0  0  0  0  0  0  0  0
  186.7370  178.2890  143.6610 N   0  0  0  0  0  0  0  0  0  0  0  0
  187.9520  177.9370  143.5220 C   0  0  0  0  0  0  0  0  0  0  0  0
  186.2970  178.5390  142.3600 N   0  0  0  0  0  2  0  0  0  0  0  0
  188.3290  177.9360  142.1610 N   0  0  0  0  0  2  0  0  0  0  0  0
  1 27  1  0  0  0  0
  1 26  1  0  0  0  0
  3 16  1  6  0  0  0
  3 19  1  0  0  0  0
  3  7  1  0  0  0  0
  3  6  1  0  0  0  0
  4 18  1  0  0  0  0
  4 23  2  0  0  0  0
  5 11  1  1  0  0  0
  5 19  1  0  0  0  0
  5 15  1  0  0  0  0
  6  7  1  1  0  0  0
  9 25  1  0  0  0  0
  9 27  1  0  0  0  0
 10 17  1  0  0  0  0
 11 20  1  0  0  0  0
 12 15  1  0  0  0  0
 12  8  1  0  0  0  0
 13  9  1  0  0  0  0
 14  2  1  0  0  0  0
 15  4  1  0  0  0  0
 16  8  1  0  0  0  0
 17 25  1  0  0  0  0
 18  1  2  0  0  0  0
 19  6  1  0  0  0  0
 20 13  1  0  0  0  0
 20 18  1  0  0  0  0
 21 26  2  0  0  0  0
 22 10  1  0  0  0  0
 23 21  1  0  0  0  0
 24 22  1  0  0  0  0
 24 13  1  0  0  0  0
 25 14  1  0  0  0  0
 27  2  1  0  0  0  0
 28 17  1  0  0  0  0
 28 29  1  0  0  0  0
 30 34  1  0  0  0  0
 30 33  1  0  0  0  0
 32 31  2  0  0  0  0
 32 29  1  0  0  0  0
 33 31  1  0  0  0  0
 34 32  1  0  0  0  0
M  END
>  <MODEL>
5

>  <REMARK>
 VINA RESULT:      -7.6      3.374      8.183
  Name = 
  3 active torsions:
  status: ('A' for Active; 'I' for Inactive)
    1  A    between atoms: C_17  and  O_28
    2  A    between atoms: O_28  and  C_29
    3  A    between atoms: C_29  and  C_32
                            x       y       z     vdW  Elec       q    Type
                         _______ _______ _______ _____ _____    ______ ____

>  <TORSDO>
F 3

$$$$
=
 OpenBabel11112417493D

 34 42  0  0  1  0  0  0  0  0999 V2000
  192.9710  173.5730  142.9920 C   0  0  0  0  0  0  0  0  0  0  0  0
  194.6200  172.0080  141.9440 C   0  0  0  0  0  2  0  0  0  0  0  0
  189.9560  175.9270  147.3120 C   0  0  2  0  0  0  0  0  0  0  0  0
  191.8080  175.5600  143.6980 C   0  0  0  0  0  0  0  0  0  0  0  0
  192.2020  176.4810  146.0570 C   0  0  1  0  0  3  0  0  0  0  0  0
  190.2440  174.7930  146.3310 C   0  0  2  0  0  3  0  0  0  0  0  0
  189.0560  174.7110  147.2680 C   0  0  0  0  0  2  0  0  0  0  0  0
  189.2210  177.0940  145.0930 C   0  0  0  0  0  2  0  0  0  0  0  0
  195.0380  172.7500  144.2280 N   0  0  2  0  0  0  0  0  0  0  0  0
  197.9410  174.1990  144.4670 C   0  0  0  0  0  2  0  0  0  0  0  0
  193.6200  175.9290  145.9190 C   0  0  0  0  0  2  0  0  0  0  0  0
  190.4800  177.6530  144.4630 C   0  0  0  0  0  2  0  0  0  0  0  0
  195.0340  174.1020  144.8430 C   0  0  1  0  0  3  0  0  0  0  0  0
  196.0080  171.5840  142.3360 C   0  0  0  0  0  2  0  0  0  0  0  0
  191.6920  176.7370  144.6270 C   0  0  2  0  0  3  0  0  0  0  0  0
  189.3360  177.1550  146.6140 C   0  0  0  0  0  2  0  0  0  0  0  0
  197.2560  173.5840  143.2330 C   0  0  1  0  0  3  0  0  0  0  0  0
  192.7980  174.5880  143.9330 C   0  0  0  0  0  0  0  0  0  0  0  0
  191.3960  175.5370  146.9890 C   0  0  2  0  0  3  0  0  0  0  0  0
  193.6200  174.5660  145.1950 C   0  0  2  0  0  3  0  0  0  0  0  0
  191.2310  174.4910  141.6710 C   0  0  0  0  0  3  0  0  0  0  0  0
  197.3880  173.7000  145.8060 C   0  0  0  0  0  2  0  0  0  0  0  0
  191.0620  175.5000  142.5630 N   0  0  0  0  0  0  0  0  0  0  0  0
  195.9530  174.1600  146.0750 C   0  0  0  0  0  2  0  0  0  0  0  0
  196.3190  172.3940  143.5740 C   0  0  1  0  0  3  0  0  0  0  0  0
  192.1710  173.5360  141.8910 N   0  0  0  0  0  0  0  0  0  0  0  0
  193.9720  172.4680  143.2350 C   0  0  1  0  0  3  0  0  0  0  0  0
  196.5780  174.5810  142.5210 O   0  0  0  0  0  0  0  0  0  0  0  0
  197.5580  175.2520  141.7880 C   0  0  0  0  0  2  0  0  0  0  0  0
  197.3700  175.5090  138.1130 O   0  0  0  0  0  0  0  0  0  0  0  0
  196.3120  174.4290  139.8580 N   0  0  0  0  0  0  0  0  0  0  0  0
  197.2410  175.1550  140.3360 C   0  0  0  0  0  0  0  0  0  0  0  0
  196.3820  174.6390  138.4800 N   0  0  0  0  0  2  0  0  0  0  0  0
  197.9330  175.8350  139.3120 N   0  0  0  0  0  2  0  0  0  0  0  0
  1 27  1  0  0  0  0
  1 18  1  0  0  0  0
  2 14  1  0  0  0  0
  2 27  1  0  0  0  0
  3 16  1  6  0  0  0
  4 18  2  0  0  0  0
  4 15  1  0  0  0  0
  5 11  1  6  0  0  0
  5 19  1  0  0  0  0
  6 19  1  0  0  0  0
  6  7  1  1  0  0  0
  6  3  1  0  0  0  0
  7  3  1  0  0  0  0
  8 16  1  0  0  0  0
  9 13  1  0  0  0  0
 10 22  1  0  0  0  0
 12 15  1  0  0  0  0
 12  8  1  0  0  0  0
 13 20  1  0  0  0  0
 13 24  1  0  0  0  0
 14 25  1  0  0  0  0
 15  5  1  0  0  0  0
 17 25  1  0  0  0  0
 17 10  1  0  0  0  0
 18 20  1  0  0  0  0
 19  3  1  0  0  0  0
 20 11  1  0  0  0  0
 21 26  1  0  0  0  0
 21 23  2  0  0  0  0
 22 24  1  0  0  0  0
 23  4  1  0  0  0  0
 25  9  1  0  0  0  0
 26  1  2  0  0  0  0
 27  9  1  0  0  0  0
 28 17  1  0  0  0  0
 29 28  1  0  0  0  0
 30 33  1  0  0  0  0
 30 34  1  0  0  0  0
 31 32  2  0  0  0  0
 32 29  1  0  0  0  0
 33 31  1  0  0  0  0
 34 32  1  0  0  0  0
M  END
>  <MODEL>
6

>  <REMARK>
 VINA RESULT:      -7.6      4.083      6.728
  Name = 
  3 active torsions:
  status: ('A' for Active; 'I' for Inactive)
    1  A    between atoms: C_17  and  O_28
    2  A    between atoms: O_28  and  C_29
    3  A    between atoms: C_29  and  C_32
                            x       y       z     vdW  Elec       q    Type
                         _______ _______ _______ _____ _____    ______ ____

>  <TORSDO>
F 3

$$$$
=
 OpenBabel11112417493D

 34 42  0  0  1  0  0  0  0  0999 V2000
  188.8960  174.0500  143.4100 C   0  0  0  0  0  0  0  0  0  0  0  0
  190.3660  172.0480  143.0890 C   0  0  0  0  0  2  0  0  0  0  0  0
  185.8520  177.9190  146.4200 C   0  0  2  0  0  0  0  0  0  0  0  0
  188.0130  176.2900  143.3700 C   0  0  0  0  0  0  0  0  0  0  0  0
  188.2870  177.7910  145.4290 C   0  0  1  0  0  3  0  0  0  0  0  0
  186.0530  176.5230  145.8350 C   0  0  2  0  0  3  0  0  0  0  0  0
  184.7710  176.8690  146.5630 C   0  0  0  0  0  2  0  0  0  0  0  0
  185.5800  178.4830  143.8840 C   0  0  0  0  0  2  0  0  0  0  0  0
  190.6410  173.3560  145.1280 N   0  0  2  0  0  0  0  0  0  0  0  0
  193.7010  174.4210  145.4210 C   0  0  0  0  0  2  0  0  0  0  0  0
  189.5980  177.0430  145.6660 C   0  0  0  0  0  2  0  0  0  0  0  0
  186.9790  178.6680  143.3320 C   0  0  0  0  0  2  0  0  0  0  0  0
  190.7960  174.8160  145.3510 C   0  0  1  0  0  3  0  0  0  0  0  0
  191.6090  171.5790  143.7910 C   0  0  0  0  0  2  0  0  0  0  0  0
  187.9920  177.6890  143.9210 C   0  0  2  0  0  3  0  0  0  0  0  0
  185.5310  178.9640  145.3310 C   0  0  0  0  0  2  0  0  0  0  0  0
  193.0660  173.5720  144.3050 C   0  0  1  0  0  3  0  0  0  0  0  0
  188.7910  175.3060  144.0080 C   0  0  0  0  0  0  0  0  0  0  0  0
  187.2330  177.2680  146.4410 C   0  0  2  0  0  3  0  0  0  0  0  0
  189.4490  175.5410  145.3420 C   0  0  2  0  0  3  0  0  0  0  0  0
  187.4970  174.7670  141.6380 C   0  0  0  0  0  3  0  0  0  0  0  0
  192.9240  174.4050  146.7420 C   0  0  0  0  0  2  0  0  0  0  0  0
  187.4010  176.0030  142.1910 N   0  0  0  0  0  0  0  0  0  0  0  0
  191.5660  175.1050  146.6510 C   0  0  0  0  0  2  0  0  0  0  0  0
  191.9100  172.6630  144.8010 C   0  0  1  0  0  3  0  0  0  0  0  0
  188.2310  173.8020  142.2490 N   0  0  0  0  0  0  0  0  0  0  0  0
  189.6620  172.9410  144.0930 C   0  0  1  0  0  3  0  0  0  0  0  0
  192.6510  174.4010  143.2560 O   0  0  0  0  0  0  0  0  0  0  0  0
  193.4460  175.5450  143.3430 C   0  0  0  0  0  2  0  0  0  0  0  0
  190.9330  178.1730  142.7200 O   0  0  0  0  0  0  0  0  0  0  0  0
  192.6970  177.7260  144.1420 N   0  0  0  0  0  0  0  0  0  0  0  0
  192.5760  176.7520  143.3310 C   0  0  0  0  0  0  0  0  0  0  0  0
  191.6840  178.6130  143.7740 N   0  0  0  0  0  2  0  0  0  0  0  0
  191.5020  176.9650  142.4400 N   0  0  0  0  0  2  0  0  0  0  0  0
  1 18  1  0  0  0  0
  1 27  1  0  0  0  0
  2 14  1  0  0  0  0
  2 27  1  0  0  0  0
  3 16  1  6  0  0  0
  3 19  1  0  0  0  0
  3  7  1  0  0  0  0
  4 15  1  0  0  0  0
  4 18  2  0  0  0  0
  5 11  1  6  0  0  0
  5 19  1  0  0  0  0
  6  3  1  0  0  0  0
  6 19  1  0  0  0  0
  6  7  1  1  0  0  0
  8 16  1  0  0  0  0
  9 13  1  0  0  0  0
 10 22  1  0  0  0  0
 12  8  1  0  0  0  0
 12 15  1  0  0  0  0
 13 24  1  0  0  0  0
 14 25  1  0  0  0  0
 15  5  1  0  0  0  0
 17 25  1  0  0  0  0
 17 10  1  0  0  0  0
 18 20  1  0  0  0  0
 20 13  1  0  0  0  0
 20 11  1  0  0  0  0
 21 23  2  0  0  0  0
 21 26  1  0  0  0  0
 23  4  1  0  0  0  0
 24 22  1  0  0  0  0
 25  9  1  0  0  0  0
 26  1  2  0  0  0  0
 27  9  1  0  0  0  0
 28 29  1  0  0  0  0
 28 17  1  0  0  0  0
 30 33  1  0  0  0  0
 32 29  1  0  0  0  0
 32 31  2  0  0  0  0
 33 31  1  0  0  0  0
 34 30  1  0  0  0  0
 34 32  1  0  0  0  0
M  END
>  <MODEL>
7

>  <REMARK>
 VINA RESULT:      -7.5      2.006      4.580
  Name = 
  3 active torsions:
  status: ('A' for Active; 'I' for Inactive)
    1  A    between atoms: C_17  and  O_28
    2  A    between atoms: O_28  and  C_29
    3  A    between atoms: C_29  and  C_32
                            x       y       z     vdW  Elec       q    Type
                         _______ _______ _______ _____ _____    ______ ____

>  <TORSDO>
F 3

$$$$
=
 OpenBabel11112417493D

 34 42  0  0  1  0  0  0  0  0999 V2000
  192.9510  174.7510  143.4240 C   0  0  0  0  0  0  0  0  0  0  0  0
  193.7230  176.1600  145.3450 C   0  0  0  0  0  2  0  0  0  0  0  0
  190.8180  170.0350  140.8750 C   0  0  2  0  0  0  0  0  0  0  0  0
  191.7780  173.9510  141.4790 C   0  0  0  0  0  0  0  0  0  0  0  0
  189.8330  172.3070  141.7660 C   0  0  1  0  0  3  0  0  0  0  0  0
  191.9420  170.7990  141.5690 C   0  0  2  0  0  3  0  0  0  0  0  0
  192.1850  169.4040  141.0310 C   0  0  0  0  0  2  0  0  0  0  0  0
  191.3520  171.7820  139.0080 C   0  0  0  0  0  2  0  0  0  0  0  0
  191.9300  174.5580  145.7470 N   0  0  2  0  0  0  0  0  0  0  0  0
  189.2780  176.0480  146.9020 C   0  0  0  0  0  2  0  0  0  0  0  0
  189.5720  173.0170  143.0940 C   0  0  0  0  0  2  0  0  0  0  0  0
  190.5870  173.0400  139.3630 C   0  0  0  0  0  2  0  0  0  0  0  0
  190.6670  174.2850  145.0140 C   0  0  1  0  0  3  0  0  0  0  0  0
  193.1420  176.4270  146.7050 C   0  0  0  0  0  2  0  0  0  0  0  0
  190.5580  173.3220  140.8640 C   0  0  2  0  0  3  0  0  0  0  0  0
  190.5580  170.5550  139.4470 C   0  0  0  0  0  2  0  0  0  0  0  0
  190.6380  176.6480  146.5010 C   0  0  1  0  0  3  0  0  0  0  0  0
  191.8730  174.0540  142.8800 C   0  0  0  0  0  0  0  0  0  0  0  0
  190.5110  170.9430  142.0640 C   0  0  2  0  0  3  0  0  0  0  0  0
  190.8940  173.3790  143.8030 C   0  0  2  0  0  3  0  0  0  0  0  0
  193.7750  175.1950  141.2470 C   0  0  0  0  0  3  0  0  0  0  0  0
  189.3160  174.5430  147.1910 C   0  0  0  0  0  2  0  0  0  0  0  0
  192.7200  174.5410  140.6960 N   0  0  0  0  0  0  0  0  0  0  0  0
  189.5940  173.6970  145.9470 C   0  0  0  0  0  2  0  0  0  0  0  0
  191.8300  175.6760  146.7140 C   0  0  1  0  0  3  0  0  0  0  0  0
  193.8880  175.2900  142.5970 N   0  0  0  0  0  0  0  0  0  0  0  0
  193.1330  174.8280  144.9220 C   0  0  1  0  0  3  0  0  0  0  0  0
  190.5830  177.1080  145.1800 O   0  0  0  0  0  0  0  0  0  0  0  0
  189.2730  177.5510  144.9910 C   0  0  0  0  0  2  0  0  0  0  0  0
  188.5750  176.1260  141.6610 O   0  0  0  0  0  0  0  0  0  0  0  0
  187.5340  176.4280  143.7000 N   0  0  0  0  0  0  0  0  0  0  0  0
  188.7080  176.9130  143.7710 C   0  0  0  0  0  0  0  0  0  0  0  0
  187.4390  175.9370  142.3960 N   0  0  0  0  0  2  0  0  0  0  0  0
  189.4000  176.7480  142.5520 N   0  0  0  0  0  2  0  0  0  0  0  0
  1 27  1  0  0  0  0
  2 14  1  0  0  0  0
  3 16  1  6  0  0  0
  3  7  1  0  0  0  0
  3  6  1  0  0  0  0
  3 19  1  0  0  0  0
  4 18  2  0  0  0  0
  5 19  1  0  0  0  0
  5 11  1  1  0  0  0
  6  7  1  1  0  0  0
  6 19  1  0  0  0  0
  8 12  1  0  0  0  0
  8 16  1  0  0  0  0
  9 25  1  0  0  0  0
 10 22  1  0  0  0  0
 11 20  1  0  0  0  0
 12 15  1  0  0  0  0
 13  9  1  0  0  0  0
 13 24  1  0  0  0  0
 14 25  1  0  0  0  0
 15  4  1  0  0  0  0
 15  5  1  0  0  0  0
 17 25  1  0  0  0  0
 17 10  1  0  0  0  0
 18  1  1  0  0  0  0
 18 20  1  0  0  0  0
 20 13  1  0  0  0  0
 21 26  1  0  0  0  0
 23 21  2  0  0  0  0
 23  4  1  0  0  0  0
 24 22  1  0  0  0  0
 26  1  2  0  0  0  0
 27  2  1  0  0  0  0
 27  9  1  0  0  0  0
 28 17  1  0  0  0  0
 29 28  1  0  0  0  0
 30 33  1  0  0  0  0
 30 34  1  0  0  0  0
 31 32  2  0  0  0  0
 32 29  1  0  0  0  0
 33 31  1  0  0  0  0
 34 32  1  0  0  0  0
M  END
>  <MODEL>
8

>  <REMARK>
 VINA RESULT:      -7.4      3.081      7.281
  Name = 
  3 active torsions:
  status: ('A' for Active; 'I' for Inactive)
    1  A    between atoms: C_17  and  O_28
    2  A    between atoms: O_28  and  C_29
    3  A    between atoms: C_29  and  C_32
                            x       y       z     vdW  Elec       q    Type
                         _______ _______ _______ _____ _____    ______ ____

>  <TORSDO>
F 3

$$$$
=
 OpenBabel11112417493D

 34 42  0  0  1  0  0  0  0  0999 V2000
  193.6430  176.0480  145.0240 C   0  0  0  0  0  0  0  0  0  0  0  0
  196.0320  175.9480  144.2830 C   0  0  0  0  0  2  0  0  0  0  0  0
  187.9270  176.4310  144.3340 C   0  0  2  0  0  0  0  0  0  0  0  0
  191.5200  175.5260  146.0350 C   0  0  0  0  0  0  0  0  0  0  0  0
  189.6680  174.4770  144.6080 C   0  0  1  0  0  3  0  0  0  0  0  0
  189.3270  177.0400  144.3420 C   0  0  2  0  0  3  0  0  0  0  0  0
  188.1130  177.9160  144.1050 C   0  0  0  0  0  2  0  0  0  0  0  0
  188.4180  176.3180  146.8970 C   0  0  0  0  0  2  0  0  0  0  0  0
  194.3350  175.0050  142.8080 N   0  0  2  0  0  0  0  0  0  0  0  0
  194.9570  171.8760  142.1720 C   0  0  0  0  0  2  0  0  0  0  0  0
  190.7980  173.8110  143.8240 C   0  0  0  0  0  2  0  0  0  0  0  0
  189.2160  175.0510  147.1270 C   0  0  0  0  0  2  0  0  0  0  0  0
  193.2180  174.0620  143.0650 C   0  0  1  0  0  3  0  0  0  0  0  0
  196.7240  175.1870  143.1870 C   0  0  0  0  0  2  0  0  0  0  0  0
  190.2230  174.7650  146.0150 C   0  0  2  0  0  3  0  0  0  0  0  0
  187.4280  176.1030  145.7560 C   0  0  0  0  0  2  0  0  0  0  0  0
  195.7420  172.8680  143.0500 C   0  0  1  0  0  3  0  0  0  0  0  0
  192.3920  175.4370  144.9330 C   0  0  0  0  0  0  0  0  0  0  0  0
  189.1080  175.6510  143.7620 C   0  0  2  0  0  3  0  0  0  0  0  0
  191.9920  174.7720  143.6430 C   0  0  2  0  0  3  0  0  0  0  0  0
  193.1300  176.7910  147.2150 C   0  0  0  0  0  3  0  0  0  0  0  0
  194.0260  172.5400  141.1510 C   0  0  0  0  0  2  0  0  0  0  0  0
  191.9180  176.1830  147.1560 N   0  0  0  0  0  0  0  0  0  0  0  0
  192.8480  173.2730  141.7980 C   0  0  0  0  0  2  0  0  0  0  0  0
  195.6370  174.3390  142.5660 C   0  0  1  0  0  3  0  0  0  0  0  0
  193.9770  176.7280  146.1550 N   0  0  0  0  0  0  0  0  0  0  0  0
  194.5840  176.0400  143.8420 C   0  0  1  0  0  3  0  0  0  0  0  0
  195.3410  172.7390  144.3850 O   0  0  0  0  0  0  0  0  0  0  0  0
  196.4210  172.1500  145.0460 C   0  0  0  0  0  2  0  0  0  0  0  0
  194.5660  169.3340  146.5420 O   0  0  0  0  0  0  0  0  0  0  0  0
  196.7250  170.1430  146.3990 N   0  0  0  0  0  0  0  0  0  0  0  0
  195.9560  170.9290  145.7590 C   0  0  0  0  0  0  0  0  0  0  0  0
  195.8750  169.1500  146.8900 N   0  0  0  0  0  2  0  0  0  0  0  0
  194.6190  170.4790  145.8020 N   0  0  0  0  0  2  0  0  0  0  0  0
  1 26  1  0  0  0  0
  3  7  1  6  0  0  0
  3  6  1  0  0  0  0
  3 16  1  0  0  0  0
  4 23  2  0  0  0  0
  5 11  1  6  0  0  0
  5 15  1  0  0  0  0
  6  7  1  6  0  0  0
  8 12  1  0  0  0  0
  9 13  1  0  0  0  0
  9 27  1  0  0  0  0
 10 17  1  0  0  0  0
 13 20  1  0  0  0  0
 14  2  1  0  0  0  0
 15  4  1  0  0  0  0
 15 12  1  0  0  0  0
 16  8  1  0  0  0  0
 17 28  1  0  0  0  0
 18  1  2  0  0  0  0
 18  4  1  0  0  0  0
 19  3  1  0  0  0  0
 19  6  1  0  0  0  0
 19  5  1  0  0  0  0
 20 11  1  0  0  0  0
 20 18  1  0  0  0  0
 22 24  1  0  0  0  0
 22 10  1  0  0  0  0
 23 21  1  0  0  0  0
 24 13  1  0  0  0  0
 25  9  1  0  0  0  0
 25 17  1  0  0  0  0
 25 14  1  0  0  0  0
 26 21  2  0  0  0  0
 27  2  1  0  0  0  0
 27  1  1  0  0  0  0
 28 29  1  0  0  0  0
 29 32  1  0  0  0  0
 30 33  1  0  0  0  0
 31 33  1  0  0  0  0
 32 34  1  0  0  0  0
 32 31  2  0  0  0  0
 34 30  1  0  0  0  0
M  END
>  <MODEL>
9

>  <REMARK>
 VINA RESULT:      -7.3      2.744      4.323
  Name = 
  3 active torsions:
  status: ('A' for Active; 'I' for Inactive)
    1  A    between atoms: C_17  and  O_28
    2  A    between atoms: O_28  and  C_29
    3  A    between atoms: C_29  and  C_32
                            x       y       z     vdW  Elec       q    Type
                         _______ _______ _______ _____ _____    ______ ____

>  <TORSDO>
F 3

$$$$
