=
 OpenBabel11112417023D

 31 35  0  0  1  0  0  0  0  0999 V2000
  195.3720  175.7610  144.7060 C   0  0  0  0  0  0  0  0  0  0  0  0
  191.9750  176.5540  143.1970 C   0  0  2  0  0  3  0  0  0  0  0  0
  191.2650  175.3500  142.6090 C   0  0  0  0  0  0  0  0  0  0  0  0
  191.2950  173.0550  141.8070 C   0  0  0  0  0  0  0  0  0  0  0  0
  193.0470  176.1930  144.1850 C   0  0  0  0  0  0  0  0  0  0  0  0
  195.0290  175.5190  146.0400 C   0  0  0  0  0  3  0  0  0  0  0  0
  191.9490  174.1430  142.3910 C   0  0  0  0  0  3  0  0  0  0  0  0
  190.4940  177.1590  145.2750 C   0  0  1  0  0  3  0  0  0  0  0  0
  196.6650  175.6690  144.3110 F   0  0  0  0  0  0  0  0  0  0  0  0
  189.2100  176.6920  142.3730 N   0  0  0  0  0  2  0  0  0  0  0  0
  191.9930  171.8330  141.6050 N   0  0  0  0  0  1  0  0  0  0  0  0
  191.2720  176.0080  145.9410 C   0  0  0  0  0  2  0  0  0  0  0  0
  190.9840  177.5440  143.8430 C   0  0  2  0  0  3  0  0  0  0  0  0
  194.3820  176.0960  143.7770 C   0  0  0  0  0  3  0  0  0  0  0  0
  189.9570  173.1670  141.4230 C   0  0  0  0  0  3  0  0  0  0  0  0
  192.7060  175.9620  145.5260 C   0  0  0  0  0  0  0  0  0  0  0  0
  193.6960  175.6140  146.4500 C   0  0  0  0  0  3  0  0  0  0  0  0
  189.8720  177.9030  142.8520 C   0  0  0  0  0  2  0  0  0  0  0  0
  189.9240  175.4660  142.1850 C   0  0  0  0  0  0  0  0  0  0  0  0
  189.2740  174.3710  141.6100 C   0  0  0  0  0  3  0  0  0  0  0  0
  188.6640  177.8270  147.3900 O   0  0  0  0  0  0  0  0  0  0  0  0
  188.2120  177.1950  146.3970 C   0  0  0  0  0  0  0  0  0  0  0  0
  189.0680  176.8560  145.3030 N   0  0  0  0  0  2  0  0  0  0  0  0
  184.8370  178.4800  144.8440 C   0  0  1  0  0  3  0  0  0  0  0  0
  186.3130  176.4860  144.9450 C   0  0  0  0  0  2  0  0  0  0  0  0
  185.9330  177.9580  148.2890 O   0  0  0  0  0  0  0  0  0  0  0  0
  184.5530  179.7870  144.1340 C   0  0  0  0  0  1  0  0  0  0  0  0
  185.9980  177.7620  144.1700 C   0  0  0  0  0  2  0  0  0  0  0  0
  185.9120  177.8340  147.0370 C   0  0  0  0  0  0  0  0  0  0  0  0
  186.7720  176.7910  146.3760 C   0  0  2  0  0  3  0  0  0  0  0  0
  185.1290  178.7370  146.2500 N   0  0  0  0  0  2  0  0  0  0  0  0
  1  6  1  0  0  0  0
  2  3  1  1  0  0  0
  2 13  1  0  0  0  0
  2  5  1  0  0  0  0
  4  7  2  0  0  0  0
  5 16  2  0  0  0  0
  6 17  2  0  0  0  0
  7  3  1  0  0  0  0
  8 23  1  6  0  0  0
  8 12  1  0  0  0  0
  9  1  1  0  0  0  0
 10 18  1  0  0  0  0
 11  4  1  0  0  0  0
 13 18  1  6  0  0  0
 13  8  1  0  0  0  0
 14  5  1  0  0  0  0
 14  1  2  0  0  0  0
 15 20  2  0  0  0  0
 15  4  1  0  0  0  0
 16 12  1  0  0  0  0
 16 17  1  0  0  0  0
 19 10  1  0  0  0  0
 19  3  2  0  0  0  0
 20 19  1  0  0  0  0
 22 21  2  0  0  0  0
 23 22  1  0  0  0  0
 24 27  1  6  0  0  0
 24 31  1  0  0  0  0
 25 30  1  0  0  0  0
 28 24  1  0  0  0  0
 28 25  1  0  0  0  0
 29 26  2  0  0  0  0
 30 22  1  6  0  0  0
 30 29  1  0  0  0  0
 31 29  1  0  0  0  0
M  END
>  <MODEL>
1

>  <REMARK>
 VINA RESULT:      -8.7      0.000      0.000
  Name = 
  2 active torsions:
  status: ('A' for Active; 'I' for Inactive)
    1  A    between atoms: C_5  and  C_30
    2  A    between atoms: C_10  and  N_16
                            x       y       z     vdW  Elec       q    Type
                         _______ _______ _______ _____ _____    ______ ____

>  <TORSDO>
F 2

$$$$
=
 OpenBabel11112417023D

 31 35  0  0  1  0  0  0  0  0999 V2000
  196.6740  170.5230  145.8850 C   0  0  0  0  0  0  0  0  0  0  0  0
  195.7970  174.2040  145.5370 C   0  0  2  0  0  3  0  0  0  0  0  0
  196.0780  174.7780  144.1610 C   0  0  0  0  0  0  0  0  0  0  0  0
  197.1450  174.6330  141.9820 C   0  0  0  0  0  0  0  0  0  0  0  0
  195.6840  172.7070  145.5500 C   0  0  0  0  0  0  0  0  0  0  0  0
  195.4530  169.9190  145.5670 C   0  0  0  0  0  3  0  0  0  0  0  0
  196.8580  174.0750  143.2310 C   0  0  0  0  0  3  0  0  0  0  0  0
  193.1790  174.2390  145.6740 C   0  0  1  0  0  3  0  0  0  0  0  0
  197.7460  169.7570  146.2020 F   0  0  0  0  0  0  0  0  0  0  0  0
  194.8510  176.8270  144.7800 N   0  0  0  0  0  2  0  0  0  0  0  0
  197.9240  173.9050  141.0420 N   0  0  0  0  0  1  0  0  0  0  0  0
  193.2960  172.9500  144.8390 C   0  0  0  0  0  2  0  0  0  0  0  0
  194.5370  174.8270  146.1720 C   0  0  2  0  0  3  0  0  0  0  0  0
  196.7920  171.9160  145.8750 C   0  0  0  0  0  3  0  0  0  0  0  0
  196.6680  175.9050  141.6590 C   0  0  0  0  0  3  0  0  0  0  0  0
  194.4570  172.1010  145.2430 C   0  0  0  0  0  0  0  0  0  0  0  0
  194.3460  170.7070  145.2410 C   0  0  0  0  0  3  0  0  0  0  0  0
  194.6310  176.3560  146.1450 C   0  0  0  0  0  2  0  0  0  0  0  0
  195.6280  176.0770  143.8400 C   0  0  0  0  0  0  0  0  0  0  0  0
  195.9120  176.6260  142.5870 C   0  0  0  0  0  3  0  0  0  0  0  0
  190.3100  174.4120  145.6100 O   0  0  0  0  0  0  0  0  0  0  0  0
  190.9650  175.2420  144.9250 C   0  0  0  0  0  0  0  0  0  0  0  0
  192.3950  175.2220  144.9340 N   0  0  0  0  0  2  0  0  0  0  0  0
  187.7110  177.4350  145.1640 C   0  0  1  0  0  3  0  0  0  0  0  0
  190.1620  177.6000  144.8020 C   0  0  0  0  0  2  0  0  0  0  0  0
  188.7700  174.8270  142.8360 O   0  0  0  0  0  0  0  0  0  0  0  0
  186.6030  177.3840  146.1940 C   0  0  0  0  0  1  0  0  0  0  0  0
  189.0550  177.6240  145.8530 C   0  0  0  0  0  2  0  0  0  0  0  0
  188.8740  175.7330  143.7030 C   0  0  0  0  0  0  0  0  0  0  0  0
  190.2350  176.2440  144.0890 C   0  0  2  0  0  3  0  0  0  0  0  0
  187.7010  176.2120  144.3690 N   0  0  0  0  0  2  0  0  0  0  0  0
  1  9  1  0  0  0  0
  2  3  1  6  0  0  0
  2  5  1  0  0  0  0
  2 13  1  0  0  0  0
  4  7  1  0  0  0  0
  5 14  2  0  0  0  0
  6  1  2  0  0  0  0
  7  3  2  0  0  0  0
  8 23  1  6  0  0  0
  8 13  1  0  0  0  0
 10 18  1  0  0  0  0
 11  4  1  0  0  0  0
 12 16  1  0  0  0  0
 12  8  1  0  0  0  0
 13 18  1  6  0  0  0
 14  1  1  0  0  0  0
 15  4  2  0  0  0  0
 15 20  1  0  0  0  0
 16  5  1  0  0  0  0
 17 16  2  0  0  0  0
 17  6  1  0  0  0  0
 19  3  1  0  0  0  0
 19 10  1  0  0  0  0
 20 19  2  0  0  0  0
 22 23  1  0  0  0  0
 22 21  2  0  0  0  0
 24 28  1  0  0  0  0
 24 27  1  1  0  0  0
 25 28  1  0  0  0  0
 26 29  2  0  0  0  0
 29 30  1  0  0  0  0
 29 31  1  0  0  0  0
 30 25  1  0  0  0  0
 30 22  1  1  0  0  0
 31 24  1  0  0  0  0
M  END
>  <MODEL>
2

>  <REMARK>
 VINA RESULT:      -8.1      3.416      5.138
  Name = 
  2 active torsions:
  status: ('A' for Active; 'I' for Inactive)
    1  A    between atoms: C_5  and  C_30
    2  A    between atoms: C_10  and  N_16
                            x       y       z     vdW  Elec       q    Type
                         _______ _______ _______ _____ _____    ______ ____

>  <TORSDO>
F 2

$$$$
=
 OpenBabel11112417023D

 31 35  0  0  1  0  0  0  0  0999 V2000
  185.0940  179.3590  143.7950 C   0  0  0  0  0  0  0  0  0  0  0  0
  188.5210  177.7190  143.8790 C   0  0  2  0  0  3  0  0  0  0  0  0
  188.7040  176.7280  145.0130 C   0  0  0  0  0  0  0  0  0  0  0  0
  187.9930  175.7840  147.1370 C   0  0  0  0  0  0  0  0  0  0  0  0
  187.0820  177.9980  143.5530 C   0  0  0  0  0  0  0  0  0  0  0  0
  184.4010  178.5010  142.9360 C   0  0  0  0  0  3  0  0  0  0  0  0
  187.7900  176.6710  146.0770 C   0  0  0  0  0  3  0  0  0  0  0  0
  188.5360  176.1910  141.7470 C   0  0  1  0  0  3  0  0  0  0  0  0
  184.4660  180.4350  144.3290 F   0  0  0  0  0  0  0  0  0  0  0  0
  190.8170  175.9680  143.9920 N   0  0  0  0  0  2  0  0  0  0  0  0
  187.0530  175.7250  148.2020 N   0  0  0  0  0  1  0  0  0  0  0  0
  187.0710  175.9290  142.1430 C   0  0  0  0  0  2  0  0  0  0  0  0
  189.2660  177.2740  142.6030 C   0  0  2  0  0  3  0  0  0  0  0  0
  186.4340  179.1070  144.1070 C   0  0  0  0  0  3  0  0  0  0  0  0
  189.1170  174.9570  147.1510 C   0  0  0  0  0  3  0  0  0  0  0  0
  186.3890  177.1450  142.6820 C   0  0  0  0  0  0  0  0  0  0  0  0
  185.0460  177.3910  142.3830 C   0  0  0  0  0  3  0  0  0  0  0  0
  190.7310  176.9640  142.9270 C   0  0  0  0  0  2  0  0  0  0  0  0
  189.8550  175.9140  145.0520 C   0  0  0  0  0  0  0  0  0  0  0  0
  190.0480  175.0230  146.1110 C   0  0  0  0  0  3  0  0  0  0  0  0
  188.5170  174.2650  139.6130 O   0  0  0  0  0  0  0  0  0  0  0  0
  189.1940  173.9980  140.6410 C   0  0  0  0  0  0  0  0  0  0  0  0
  189.2630  174.9270  141.7260 N   0  0  0  0  0  2  0  0  0  0  0  0
  191.5780  172.1340  143.1510 C   0  0  1  0  0  3  0  0  0  0  0  0
  189.4330  171.8750  141.9270 C   0  0  0  0  0  2  0  0  0  0  0  0
  192.0080  173.2540  139.7010 O   0  0  0  0  0  0  0  0  0  0  0  0
  192.2440  172.6640  144.4030 C   0  0  0  0  0  1  0  0  0  0  0  0
  190.0730  172.3500  143.2290 C   0  0  0  0  0  2  0  0  0  0  0  0
  191.4090  172.9070  140.7520 C   0  0  0  0  0  0  0  0  0  0  0  0
  189.9200  172.6930  140.7250 C   0  0  2  0  0  3  0  0  0  0  0  0
  192.1390  172.7950  141.9780 N   0  0  0  0  0  2  0  0  0  0  0  0
  1 14  1  0  0  0  0
  1  9  1  0  0  0  0
  2  5  1  6  0  0  0
  2  3  1  0  0  0  0
  3 19  2  0  0  0  0
  3  7  1  0  0  0  0
  4 15  1  0  0  0  0
  4 11  1  0  0  0  0
  5 14  2  0  0  0  0
  6  1  2  0  0  0  0
  7  4  2  0  0  0  0
  8 23  1  1  0  0  0
  8 12  1  0  0  0  0
  8 13  1  0  0  0  0
 10 19  1  0  0  0  0
 12 16  1  0  0  0  0
 13 18  1  1  0  0  0
 13  2  1  0  0  0  0
 16  5  1  0  0  0  0
 17 16  2  0  0  0  0
 17  6  1  0  0  0  0
 18 10  1  0  0  0  0
 19 20  1  0  0  0  0
 20 15  2  0  0  0  0
 21 22  2  0  0  0  0
 22 23  1  0  0  0  0
 24 28  1  0  0  0  0
 24 27  1  1  0  0  0
 25 28  1  0  0  0  0
 26 29  2  0  0  0  0
 29 31  1  0  0  0  0
 30 22  1  1  0  0  0
 30 29  1  0  0  0  0
 30 25  1  0  0  0  0
 31 24  1  0  0  0  0
M  END
>  <MODEL>
3

>  <REMARK>
 VINA RESULT:      -8.0      3.960      7.637
  Name = 
  2 active torsions:
  status: ('A' for Active; 'I' for Inactive)
    1  A    between atoms: C_5  and  C_30
    2  A    between atoms: C_10  and  N_16
                            x       y       z     vdW  Elec       q    Type
                         _______ _______ _______ _____ _____    ______ ____

>  <TORSDO>
F 2

$$$$
=
 OpenBabel11112417023D

 31 35  0  0  1  0  0  0  0  0999 V2000
  186.4540  177.8510  140.5260 C   0  0  0  0  0  0  0  0  0  0  0  0
  188.8250  177.9050  143.4960 C   0  0  2  0  0  3  0  0  0  0  0  0
  188.1930  177.4530  144.7990 C   0  0  0  0  0  0  0  0  0  0  0  0
  186.2280  176.9500  146.1380 C   0  0  0  0  0  0  0  0  0  0  0  0
  188.0770  177.4470  142.2770 C   0  0  0  0  0  0  0  0  0  0  0  0
  186.6930  176.5750  140.0080 C   0  0  0  0  0  3  0  0  0  0  0  0
  186.8010  177.3250  144.9200 C   0  0  0  0  0  3  0  0  0  0  0  0
  190.5330  175.9870  142.9680 C   0  0  1  0  0  3  0  0  0  0  0  0
  185.5510  178.6660  139.9300 F   0  0  0  0  0  0  0  0  0  0  0  0
  190.4250  177.3960  145.8470 N   0  0  0  0  0  2  0  0  0  0  0  0
  184.8170  176.8080  146.2450 N   0  0  0  0  0  1  0  0  0  0  0  0
  189.2800  175.2570  142.4460 C   0  0  0  0  0  2  0  0  0  0  0  0
  190.3020  177.4710  143.3940 C   0  0  2  0  0  3  0  0  0  0  0  0
  187.1430  178.2880  141.6620 C   0  0  0  0  0  3  0  0  0  0  0  0
  187.0400  176.7150  147.2490 C   0  0  0  0  0  3  0  0  0  0  0  0
  188.3260  176.1720  141.7490 C   0  0  0  0  0  0  0  0  0  0  0  0
  187.6250  175.7330  140.6210 C   0  0  0  0  0  3  0  0  0  0  0  0
  191.0710  177.9130  144.6430 C   0  0  0  0  0  2  0  0  0  0  0  0
  189.0040  177.2480  145.9350 C   0  0  0  0  0  0  0  0  0  0  0  0
  188.4250  176.8650  147.1490 C   0  0  0  0  0  3  0  0  0  0  0  0
  193.1770  174.8590  142.9410 O   0  0  0  0  0  0  0  0  0  0  0  0
  192.4550  174.6440  143.9510 C   0  0  0  0  0  0  0  0  0  0  0  0
  191.1400  175.1970  144.0330 N   0  0  0  0  0  2  0  0  0  0  0  0
  195.9220  173.7980  145.6010 C   0  0  1  0  0  3  0  0  0  0  0  0
  193.6530  174.6520  146.1380 C   0  0  0  0  0  2  0  0  0  0  0  0
  193.4220  171.7420  143.9100 O   0  0  0  0  0  0  0  0  0  0  0  0
  197.3140  174.1650  145.1310 C   0  0  0  0  0  1  0  0  0  0  0  0
  195.0700  175.0530  145.7340 C   0  0  0  0  0  2  0  0  0  0  0  0
  193.9000  172.7250  144.5340 C   0  0  0  0  0  0  0  0  0  0  0  0
  192.9800  173.7910  145.0620 C   0  0  2  0  0  3  0  0  0  0  0  0
  195.3190  172.8570  144.6650 N   0  0  0  0  0  2  0  0  0  0  0  0
  1 14  1  0  0  0  0
  2  5  1  6  0  0  0
  2  3  1  0  0  0  0
  3  7  2  0  0  0  0
  3 19  1  0  0  0  0
  4 11  1  0  0  0  0
  4 15  2  0  0  0  0
  6  1  2  0  0  0  0
  6 17  1  0  0  0  0
  7  4  1  0  0  0  0
  8 13  1  0  0  0  0
  8 23  1  1  0  0  0
  9  1  1  0  0  0  0
 10 19  1  0  0  0  0
 12  8  1  0  0  0  0
 13  2  1  0  0  0  0
 13 18  1  1  0  0  0
 14  5  2  0  0  0  0
 16  5  1  0  0  0  0
 16 12  1  0  0  0  0
 17 16  2  0  0  0  0
 18 10  1  0  0  0  0
 19 20  2  0  0  0  0
 20 15  1  0  0  0  0
 21 22  2  0  0  0  0
 22 23  1  0  0  0  0
 24 27  1  6  0  0  0
 24 28  1  0  0  0  0
 26 29  2  0  0  0  0
 28 25  1  0  0  0  0
 29 31  1  0  0  0  0
 29 30  1  0  0  0  0
 30 22  1  6  0  0  0
 30 25  1  0  0  0  0
 31 24  1  0  0  0  0
M  END
>  <MODEL>
4

>  <REMARK>
 VINA RESULT:      -8.0      3.582      7.871
  Name = 
  2 active torsions:
  status: ('A' for Active; 'I' for Inactive)
    1  A    between atoms: C_5  and  C_30
    2  A    between atoms: C_10  and  N_16
                            x       y       z     vdW  Elec       q    Type
                         _______ _______ _______ _____ _____    ______ ____

>  <TORSDO>
F 2

$$$$
=
 OpenBabel11112417023D

 31 35  0  0  1  0  0  0  0  0999 V2000
  192.9370  170.9100  141.7900 C   0  0  0  0  0  0  0  0  0  0  0  0
  191.4890  172.9490  144.6510 C   0  0  2  0  0  3  0  0  0  0  0  0
  192.4450  173.9810  145.2190 C   0  0  0  0  0  0  0  0  0  0  0  0
  194.6890  174.8810  145.4650 C   0  0  0  0  0  0  0  0  0  0  0  0
  191.8540  172.4930  143.2670 C   0  0  0  0  0  0  0  0  0  0  0  0
  192.5250  171.6590  140.6830 C   0  0  0  0  0  3  0  0  0  0  0  0
  193.8110  173.9520  144.9010 C   0  0  0  0  0  3  0  0  0  0  0  0
  189.6450  174.4180  143.5010 C   0  0  1  0  0  3  0  0  0  0  0  0
  193.6630  169.7790  141.6100 F   0  0  0  0  0  0  0  0  0  0  0  0
  190.5920  174.9640  146.5170 N   0  0  0  0  0  2  0  0  0  0  0  0
  196.0690  174.8520  145.1240 N   0  0  0  0  0  1  0  0  0  0  0  0
  190.6810  174.5130  142.3650 C   0  0  0  0  0  2  0  0  0  0  0  0
  190.0300  173.4510  144.6650 C   0  0  2  0  0  3  0  0  0  0  0  0
  192.6040  171.3270  143.0820 C   0  0  0  0  0  3  0  0  0  0  0  0
  194.2120  175.8370  146.3640 C   0  0  0  0  0  3  0  0  0  0  0  0
  191.4310  173.2360  142.1570 C   0  0  0  0  0  0  0  0  0  0  0  0
  191.7760  172.8250  140.8660 C   0  0  0  0  0  3  0  0  0  0  0  0
  189.6520  173.9410  146.0670 C   0  0  0  0  0  2  0  0  0  0  0  0
  191.9770  174.9270  146.1550 C   0  0  0  0  0  0  0  0  0  0  0  0
  192.8590  175.8590  146.7100 C   0  0  0  0  0  3  0  0  0  0  0  0
  187.1980  175.8570  143.0440 O   0  0  0  0  0  0  0  0  0  0  0  0
  188.1060  176.4320  143.7020 C   0  0  0  0  0  0  0  0  0  0  0  0
  189.3360  175.7600  143.9830 N   0  0  0  0  0  2  0  0  0  0  0  0
  185.5270  178.4050  145.9190 C   0  0  1  0  0  3  0  0  0  0  0  0
  187.9500  177.9020  145.7110 C   0  0  0  0  0  2  0  0  0  0  0  0
  186.5330  178.7220  142.4230 O   0  0  0  0  0  0  0  0  0  0  0  0
  184.2000  177.9380  146.4790 C   0  0  0  0  0  1  0  0  0  0  0  0
  186.6370  177.4530  146.3450 C   0  0  0  0  0  2  0  0  0  0  0  0
  186.6080  178.3960  143.6360 C   0  0  0  0  0  0  0  0  0  0  0  0
  187.8920  177.8330  144.1800 C   0  0  2  0  0  3  0  0  0  0  0  0
  185.4450  178.4920  144.4660 N   0  0  0  0  0  2  0  0  0  0  0  0
  1 14  1  0  0  0  0
  2  5  1  6  0  0  0
  2 13  1  0  0  0  0
  2  3  1  0  0  0  0
  3 19  1  0  0  0  0
  4 15  2  0  0  0  0
  6 17  1  0  0  0  0
  6  1  2  0  0  0  0
  7  3  2  0  0  0  0
  7  4  1  0  0  0  0
  8 23  1  1  0  0  0
  8 13  1  0  0  0  0
  9  1  1  0  0  0  0
 11  4  1  0  0  0  0
 12  8  1  0  0  0  0
 13 18  1  1  0  0  0
 14  5  2  0  0  0  0
 15 20  1  0  0  0  0
 16 12  1  0  0  0  0
 16  5  1  0  0  0  0
 17 16  2  0  0  0  0
 18 10  1  0  0  0  0
 19 10  1  0  0  0  0
 19 20  2  0  0  0  0
 21 22  2  0  0  0  0
 22 23  1  0  0  0  0
 24 28  1  0  0  0  0
 24 27  1  6  0  0  0
 25 28  1  0  0  0  0
 26 29  2  0  0  0  0
 29 30  1  0  0  0  0
 29 31  1  0  0  0  0
 30 22  1  1  0  0  0
 30 25  1  0  0  0  0
 31 24  1  0  0  0  0
M  END
>  <MODEL>
5

>  <REMARK>
 VINA RESULT:      -7.9      2.759      4.632
  Name = 
  2 active torsions:
  status: ('A' for Active; 'I' for Inactive)
    1  A    between atoms: C_5  and  C_30
    2  A    between atoms: C_10  and  N_16
                            x       y       z     vdW  Elec       q    Type
                         _______ _______ _______ _____ _____    ______ ____

>  <TORSDO>
F 2

$$$$
=
 OpenBabel11112417023D

 31 35  0  0  1  0  0  0  0  0999 V2000
  185.0990  178.2380  147.4970 C   0  0  0  0  0  0  0  0  0  0  0  0
  187.6270  175.9890  145.7660 C   0  0  2  0  0  3  0  0  0  0  0  0
  187.9550  176.4080  144.3460 C   0  0  0  0  0  0  0  0  0  0  0  0
  187.4520  177.6970  142.3470 C   0  0  0  0  0  0  0  0  0  0  0  0
  187.0310  177.0920  146.5940 C   0  0  0  0  0  0  0  0  0  0  0  0
  185.9400  179.1540  148.1380 C   0  0  0  0  0  3  0  0  0  0  0  0
  187.1660  177.3520  143.6710 C   0  0  0  0  0  3  0  0  0  0  0  0
  189.8630  176.4540  147.0540 C   0  0  1  0  0  3  0  0  0  0  0  0
  183.7540  178.3500  147.6240 F   0  0  0  0  0  0  0  0  0  0  0  0
  189.8170  174.7900  144.3120 N   0  0  0  0  0  2  0  0  0  0  0  0
  186.6550  178.6660  141.6780 N   0  0  0  0  0  1  0  0  0  0  0  0
  189.3530  177.9080  147.0540 C   0  0  0  0  0  2  0  0  0  0  0  0
  188.8570  175.4030  146.4900 C   0  0  2  0  0  3  0  0  0  0  0  0
  185.6430  177.2080  146.7230 C   0  0  0  0  0  3  0  0  0  0  0  0
  188.5210  177.0920  141.6830 C   0  0  0  0  0  3  0  0  0  0  0  0
  187.8740  178.0030  147.2460 C   0  0  0  0  0  0  0  0  0  0  0  0
  187.3270  179.0400  148.0080 C   0  0  0  0  0  3  0  0  0  0  0  0
  189.4870  174.2910  145.6450 C   0  0  0  0  0  2  0  0  0  0  0  0
  189.0100  175.7750  143.6560 C   0  0  0  0  0  0  0  0  0  0  0  0
  189.2970  176.1310  142.3350 C   0  0  0  0  0  3  0  0  0  0  0  0
  192.1450  174.9170  147.8890 O   0  0  0  0  0  0  0  0  0  0  0  0
  192.2600  175.6290  146.8560 C   0  0  0  0  0  0  0  0  0  0  0  0
  191.1540  176.3980  146.3770 N   0  0  0  0  0  2  0  0  0  0  0  0
  193.5660  175.5700  143.1480 C   0  0  1  0  0  3  0  0  0  0  0  0
  193.6550  176.9130  145.2350 C   0  0  0  0  0  2  0  0  0  0  0  0
  194.1070  173.3480  145.9960 O   0  0  0  0  0  0  0  0  0  0  0  0
  192.7970  175.2960  141.8730 C   0  0  0  0  0  1  0  0  0  0  0  0
  192.9060  176.7040  143.9210 C   0  0  0  0  0  2  0  0  0  0  0  0
  193.8110  174.4010  145.3740 C   0  0  0  0  0  0  0  0  0  0  0  0
  193.5710  175.6760  146.1370 C   0  0  2  0  0  3  0  0  0  0  0  0
  193.6280  174.3570  143.9550 N   0  0  0  0  0  2  0  0  0  0  0  0
  1  9  1  0  0  0  0
  1  6  1  0  0  0  0
  2  3  1  6  0  0  0
  2 13  1  0  0  0  0
  2  5  1  0  0  0  0
  4  7  2  0  0  0  0
  5 14  1  0  0  0  0
  5 16  2  0  0  0  0
  7  3  1  0  0  0  0
  8 23  1  6  0  0  0
 10 18  1  0  0  0  0
 11  4  1  0  0  0  0
 12  8  1  0  0  0  0
 12 16  1  0  0  0  0
 13 18  1  6  0  0  0
 13  8  1  0  0  0  0
 14  1  2  0  0  0  0
 15 20  2  0  0  0  0
 15  4  1  0  0  0  0
 16 17  1  0  0  0  0
 17  6  2  0  0  0  0
 19 10  1  0  0  0  0
 19  3  2  0  0  0  0
 20 19  1  0  0  0  0
 22 21  2  0  0  0  0
 23 22  1  0  0  0  0
 24 27  1  6  0  0  0
 24 28  1  0  0  0  0
 24 31  1  0  0  0  0
 25 30  1  0  0  0  0
 28 25  1  0  0  0  0
 29 26  2  0  0  0  0
 29 30  1  0  0  0  0
 30 22  1  6  0  0  0
 31 29  1  0  0  0  0
M  END
>  <MODEL>
6

>  <REMARK>
 VINA RESULT:      -7.9      3.513      7.030
  Name = 
  2 active torsions:
  status: ('A' for Active; 'I' for Inactive)
    1  A    between atoms: C_5  and  C_30
    2  A    between atoms: C_10  and  N_16
                            x       y       z     vdW  Elec       q    Type
                         _______ _______ _______ _____ _____    ______ ____

>  <TORSDO>
F 2

$$$$
=
 OpenBabel11112417023D

 31 35  0  0  1  0  0  0  0  0999 V2000
  185.6580  178.0930  147.6310 C   0  0  0  0  0  0  0  0  0  0  0  0
  187.6320  175.7760  145.3540 C   0  0  2  0  0  3  0  0  0  0  0  0
  187.6890  176.2320  143.9090 C   0  0  0  0  0  0  0  0  0  0  0  0
  186.8720  177.6270  142.0930 C   0  0  0  0  0  0  0  0  0  0  0  0
  187.2890  176.8770  146.3170 C   0  0  0  0  0  0  0  0  0  0  0  0
  186.6690  178.9330  148.1090 C   0  0  0  0  0  3  0  0  0  0  0  0
  186.8400  177.2460  143.4370 C   0  0  0  0  0  3  0  0  0  0  0  0
  190.1090  176.0620  146.1660 C   0  0  1  0  0  3  0  0  0  0  0  0
  184.3780  178.2760  148.0350 F   0  0  0  0  0  0  0  0  0  0  0  0
  189.3980  174.5150  143.4470 N   0  0  0  0  0  2  0  0  0  0  0  0
  186.0190  178.6650  141.6300 N   0  0  0  0  0  1  0  0  0  0  0  0
  189.7030  177.5410  146.3110 C   0  0  0  0  0  2  0  0  0  0  0  0
  188.9440  175.0920  145.7920 C   0  0  2  0  0  3  0  0  0  0  0  0
  185.9660  177.0660  146.7330 C   0  0  0  0  0  3  0  0  0  0  0  0
  187.7420  176.9890  141.2060 C   0  0  0  0  0  3  0  0  0  0  0  0
  188.3030  177.7120  146.8070 C   0  0  0  0  0  0  0  0  0  0  0  0
  187.9910  178.7460  147.6930 C   0  0  0  0  0  3  0  0  0  0  0  0
  189.3160  173.9820  144.8050 C   0  0  0  0  0  2  0  0  0  0  0  0
  188.5390  175.5690  142.9990 C   0  0  0  0  0  0  0  0  0  0  0  0
  188.5720  175.9610  141.6580 C   0  0  0  0  0  3  0  0  0  0  0  0
  192.7900  175.2640  146.8280 O   0  0  0  0  0  0  0  0  0  0  0  0
  192.5470  175.5770  145.6320 C   0  0  0  0  0  0  0  0  0  0  0  0
  191.2280  175.9600  145.2360 N   0  0  0  0  0  2  0  0  0  0  0  0
  196.0320  173.8200  145.1530 C   0  0  1  0  0  3  0  0  0  0  0  0
  193.8360  174.1520  144.0410 C   0  0  0  0  0  2  0  0  0  0  0  0
  195.0490  177.3260  145.4370 O   0  0  0  0  0  0  0  0  0  0  0  0
  196.8170  172.9800  146.1380 C   0  0  0  0  0  1  0  0  0  0  0  0
  194.6310  173.2490  144.9810 C   0  0  0  0  0  2  0  0  0  0  0  0
  194.9290  176.0920  145.2220 C   0  0  0  0  0  0  0  0  0  0  0  0
  193.6550  175.5580  144.6270 C   0  0  2  0  0  3  0  0  0  0  0  0
  195.9770  175.2010  145.6190 N   0  0  0  0  0  2  0  0  0  0  0  0
  1  9  1  0  0  0  0
  1  6  1  0  0  0  0
  2  3  1  6  0  0  0
  2 13  1  0  0  0  0
  2  5  1  0  0  0  0
  4  7  2  0  0  0  0
  5 14  1  0  0  0  0
  5 16  2  0  0  0  0
  7  3  1  0  0  0  0
  8 23  1  6  0  0  0
  8 12  1  0  0  0  0
 10 18  1  0  0  0  0
 11  4  1  0  0  0  0
 12 16  1  0  0  0  0
 13 18  1  6  0  0  0
 13  8  1  0  0  0  0
 14  1  2  0  0  0  0
 15 20  2  0  0  0  0
 15  4  1  0  0  0  0
 16 17  1  0  0  0  0
 17  6  2  0  0  0  0
 19 10  1  0  0  0  0
 19  3  2  0  0  0  0
 20 19  1  0  0  0  0
 22 21  2  0  0  0  0
 23 22  1  0  0  0  0
 24 31  1  0  0  0  0
 24 27  1  1  0  0  0
 25 30  1  0  0  0  0
 25 28  1  0  0  0  0
 28 24  1  0  0  0  0
 29 26  2  0  0  0  0
 29 31  1  0  0  0  0
 30 29  1  0  0  0  0
 30 22  1  1  0  0  0
M  END
>  <MODEL>
7

>  <REMARK>
 VINA RESULT:      -7.9      3.586      7.498
  Name = 
  2 active torsions:
  status: ('A' for Active; 'I' for Inactive)
    1  A    between atoms: C_5  and  C_30
    2  A    between atoms: C_10  and  N_16
                            x       y       z     vdW  Elec       q    Type
                         _______ _______ _______ _____ _____    ______ ____

>  <TORSDO>
F 2

$$$$
=
 OpenBabel11112417023D

 31 35  0  0  1  0  0  0  0  0999 V2000
  186.7150  177.1490  141.0930 C   0  0  0  0  0  0  0  0  0  0  0  0
  188.8060  174.6340  143.0300 C   0  0  2  0  0  3  0  0  0  0  0  0
  189.8230  173.8950  142.1830 C   0  0  0  0  0  0  0  0  0  0  0  0
  190.6840  173.2200  140.0120 C   0  0  0  0  0  0  0  0  0  0  0  0
  188.3310  175.9180  142.4110 C   0  0  0  0  0  0  0  0  0  0  0  0
  187.4630  178.3180  141.2660 C   0  0  0  0  0  3  0  0  0  0  0  0
  189.7670  173.9410  140.7810 C   0  0  0  0  0  3  0  0  0  0  0  0
  190.2990  176.1280  144.5850 C   0  0  1  0  0  3  0  0  0  0  0  0
  185.5700  177.1780  140.3690 F   0  0  0  0  0  0  0  0  0  0  0  0
  190.8520  172.9870  144.2330 N   0  0  0  0  0  2  0  0  0  0  0  0
  190.6260  173.2860  138.5930 N   0  0  0  0  0  1  0  0  0  0  0  0
  190.3640  177.0400  143.3450 C   0  0  0  0  0  2  0  0  0  0  0  0
  189.3340  174.9070  144.4530 C   0  0  2  0  0  3  0  0  0  0  0  0
  187.1490  175.9480  141.6630 C   0  0  0  0  0  3  0  0  0  0  0  0
  191.6560  172.4360  140.6360 C   0  0  0  0  0  3  0  0  0  0  0  0
  189.0730  177.0930  142.5950 C   0  0  0  0  0  0  0  0  0  0  0  0
  188.6450  178.2900  142.0130 C   0  0  0  0  0  3  0  0  0  0  0  0
  189.8420  173.6080  145.0870 C   0  0  0  0  0  2  0  0  0  0  0  0
  190.7860  173.0730  142.8050 C   0  0  0  0  0  0  0  0  0  0  0  0
  191.7060  172.3610  142.0300 C   0  0  0  0  0  3  0  0  0  0  0  0
  191.5470  176.5400  147.1410 O   0  0  0  0  0  0  0  0  0  0  0  0
  192.2230  175.9760  146.2400 C   0  0  0  0  0  0  0  0  0  0  0  0
  191.6500  175.7220  144.9550 N   0  0  0  0  0  2  0  0  0  0  0  0
  195.6890  176.0140  144.3840 C   0  0  1  0  0  3  0  0  0  0  0  0
  194.5660  176.8040  146.4530 C   0  0  0  0  0  2  0  0  0  0  0  0
  193.6520  173.3140  145.7630 O   0  0  0  0  0  0  0  0  0  0  0  0
  195.9870  176.3210  142.9310 C   0  0  0  0  0  1  0  0  0  0  0  0
  194.9180  177.1660  145.0120 C   0  0  0  0  0  2  0  0  0  0  0  0
  194.0850  174.4840  145.5950 C   0  0  0  0  0  0  0  0  0  0  0  0
  193.6390  175.5840  146.5190 C   0  0  2  0  0  3  0  0  0  0  0  0
  194.9340  174.7700  144.4780 N   0  0  0  0  0  2  0  0  0  0  0  0
  1  6  2  0  0  0  0
  1 14  1  0  0  0  0
  2  3  1  6  0  0  0
  2 13  1  0  0  0  0
  3 19  1  0  0  0  0
  4 15  2  0  0  0  0
  4  7  1  0  0  0  0
  5 16  1  0  0  0  0
  5  2  1  0  0  0  0
  6 17  1  0  0  0  0
  7  3  2  0  0  0  0
  8 23  1  6  0  0  0
  9  1  1  0  0  0  0
 10 18  1  0  0  0  0
 11  4  1  0  0  0  0
 12  8  1  0  0  0  0
 13  8  1  0  0  0  0
 13 18  1  6  0  0  0
 14  5  2  0  0  0  0
 15 20  1  0  0  0  0
 16 12  1  0  0  0  0
 17 16  2  0  0  0  0
 19 10  1  0  0  0  0
 20 19  2  0  0  0  0
 22 21  2  0  0  0  0
 23 22  1  0  0  0  0
 24 27  1  6  0  0  0
 24 31  1  0  0  0  0
 24 28  1  0  0  0  0
 25 30  1  0  0  0  0
 28 25  1  0  0  0  0
 29 26  2  0  0  0  0
 29 30  1  0  0  0  0
 30 22  1  6  0  0  0
 31 29  1  0  0  0  0
M  END
>  <MODEL>
8

>  <REMARK>
 VINA RESULT:      -7.7      3.631      6.695
  Name = 
  2 active torsions:
  status: ('A' for Active; 'I' for Inactive)
    1  A    between atoms: C_5  and  C_30
    2  A    between atoms: C_10  and  N_16
                            x       y       z     vdW  Elec       q    Type
                         _______ _______ _______ _____ _____    ______ ____

>  <TORSDO>
F 2

$$$$
=
 OpenBabel11112417023D

 31 35  0  0  1  0  0  0  0  0999 V2000
  187.6370  176.6960  145.9630 C   0  0  0  0  0  0  0  0  0  0  0  0
  190.9110  174.7650  145.9720 C   0  0  2  0  0  3  0  0  0  0  0  0
  191.0080  173.7090  144.8870 C   0  0  0  0  0  0  0  0  0  0  0  0
  189.9670  172.3040  143.2000 C   0  0  0  0  0  0  0  0  0  0  0  0
  189.8780  175.8190  145.6910 C   0  0  0  0  0  0  0  0  0  0  0  0
  187.9670  177.7900  145.1570 C   0  0  0  0  0  3  0  0  0  0  0  0
  189.8730  173.3080  144.1660 C   0  0  0  0  0  3  0  0  0  0  0  0
  192.6890  176.5450  145.2290 C   0  0  1  0  0  3  0  0  0  0  0  0
  186.3910  176.5900  146.4840 F   0  0  0  0  0  0  0  0  0  0  0  0
  193.4040  173.4220  145.3980 N   0  0  0  0  0  2  0  0  0  0  0  0
  188.8130  171.9160  142.4650 N   0  0  0  0  0  1  0  0  0  0  0  0
  191.5690  177.0030  144.2750 C   0  0  0  0  0  2  0  0  0  0  0  0
  192.2750  175.4340  146.2450 C   0  0  2  0  0  3  0  0  0  0  0  0
  188.5910  175.7080  146.2290 C   0  0  0  0  0  3  0  0  0  0  0  0
  191.1930  171.6800  142.9560 C   0  0  0  0  0  3  0  0  0  0  0  0
  190.2110  176.9230  144.8940 C   0  0  0  0  0  0  0  0  0  0  0  0
  189.2520  177.9020  144.6180 C   0  0  0  0  0  3  0  0  0  0  0  0
  193.3430  174.3680  146.5100 C   0  0  0  0  0  2  0  0  0  0  0  0
  192.2350  173.0510  144.6600 C   0  0  0  0  0  0  0  0  0  0  0  0
  192.3240  172.0520  143.6860 C   0  0  0  0  0  3  0  0  0  0  0  0
  195.2920  177.7550  145.3880 O   0  0  0  0  0  0  0  0  0  0  0  0
  195.1250  176.8220  144.5570 C   0  0  0  0  0  0  0  0  0  0  0  0
  193.8600  176.1650  144.4480 N   0  0  0  0  0  2  0  0  0  0  0  0
  195.7370  174.4240  141.5020 C   0  0  1  0  0  3  0  0  0  0  0  0
  195.9790  176.7910  142.2130 C   0  0  0  0  0  2  0  0  0  0  0  0
  197.1340  174.5380  144.8740 O   0  0  0  0  0  0  0  0  0  0  0  0
  194.8060  173.3910  140.9030 C   0  0  0  0  0  1  0  0  0  0  0  0
  195.0510  175.7830  141.5400 C   0  0  0  0  0  2  0  0  0  0  0  0
  196.5640  174.9480  143.8300 C   0  0  0  0  0  0  0  0  0  0  0  0
  196.2610  176.4130  143.6730 C   0  0  2  0  0  3  0  0  0  0  0  0
  196.1390  174.0060  142.8400 N   0  0  0  0  0  2  0  0  0  0  0  0
  1 14  1  0  0  0  0
  1  9  1  0  0  0  0
  2  3  1  6  0  0  0
  2 13  1  0  0  0  0
  4  7  1  0  0  0  0
  5  2  1  0  0  0  0
  5 14  2  0  0  0  0
  6  1  2  0  0  0  0
  7  3  2  0  0  0  0
  8 23  1  6  0  0  0
  8 13  1  0  0  0  0
 10 18  1  0  0  0  0
 11  4  1  0  0  0  0
 12 16  1  0  0  0  0
 12  8  1  0  0  0  0
 13 18  1  6  0  0  0
 15  4  2  0  0  0  0
 15 20  1  0  0  0  0
 16  5  1  0  0  0  0
 17 16  2  0  0  0  0
 17  6  1  0  0  0  0
 19  3  1  0  0  0  0
 19 10  1  0  0  0  0
 20 19  2  0  0  0  0
 22 21  2  0  0  0  0
 23 22  1  0  0  0  0
 24 27  1  1  0  0  0
 24 28  1  0  0  0  0
 24 31  1  0  0  0  0
 25 30  1  0  0  0  0
 28 25  1  0  0  0  0
 29 26  2  0  0  0  0
 30 29  1  0  0  0  0
 30 22  1  1  0  0  0
 31 29  1  0  0  0  0
M  END
>  <MODEL>
9

>  <REMARK>
 VINA RESULT:      -7.7      3.943      7.302
  Name = 
  2 active torsions:
  status: ('A' for Active; 'I' for Inactive)
    1  A    between atoms: C_5  and  C_30
    2  A    between atoms: C_10  and  N_16
                            x       y       z     vdW  Elec       q    Type
                         _______ _______ _______ _____ _____    ______ ____

>  <TORSDO>
F 2

$$$$
