=
 OpenBabel11112417313D

 37 42  0  0  1  0  0  0  0  0999 V2000
  187.7030  176.4600  141.3990 C   0  0  0  0  0  0  0  0  0  0  0  0
  190.2720  173.8840  142.5840 C   0  0  1  0  0  3  0  0  0  0  0  0
  191.7220  173.8750  145.3970 C   0  0  0  0  0  2  0  0  0  0  0  0
  188.0170  174.0260  141.3610 N   0  0  2  0  0  0  0  0  0  0  0  0
  190.8840  175.0050  143.4300 C   0  0  2  0  0  3  0  0  0  0  0  0
  188.7540  174.1580  142.6350 C   0  0  2  0  0  3  0  0  0  0  0  0
  192.0910  174.6220  144.1950 N   0  0  2  0  0  0  0  0  0  0  0  0
  188.5360  172.9000  140.5810 C   0  0  0  0  0  2  0  0  0  0  0  0
  188.5420  175.5090  143.3350 C   0  0  2  0  0  3  0  0  0  0  0  0
  186.4180  176.3500  141.9130 F   0  0  0  0  0  0  0  0  0  0  0  0
  192.2800  173.4750  141.0830 C   0  0  0  0  0  2  0  0  0  0  0  0
  190.0160  173.0590  140.1940 C   0  0  0  0  0  2  0  0  0  0  0  0
  188.6550  176.5920  142.4280 O   0  0  0  0  0  0  0  0  0  0  0  0
  191.9510  176.1480  146.5410 C   0  0  0  0  0  2  0  0  0  0  0  0
  192.1670  174.6360  146.6460 C   0  0  0  0  0  2  0  0  0  0  0  0
  190.8260  173.9350  141.1540 C   0  0  1  0  0  3  0  0  0  0  0  0
  189.7310  175.5370  144.2850 C   0  0  2  0  0  3  0  0  0  0  0  0
  188.0460  175.2450  140.5480 C   0  0  0  0  0  2  0  0  0  0  0  0
  193.0710  173.8330  143.4220 C   0  0  1  0  0  3  0  0  0  0  0  0
  187.7590  177.5830  140.5970 F   0  0  0  0  0  0  0  0  0  0  0  0
  190.4770  176.5150  146.4560 C   0  0  0  0  0  2  0  0  0  0  0  0
  190.0530  176.8480  145.0260 C   0  0  2  0  0  3  0  0  0  0  0  0
  193.2040  174.2980  141.9690 C   0  0  0  0  0  2  0  0  0  0  0  0
  194.9240  172.5940  144.7230 C   0  0  0  0  0  2  0  0  0  0  0  0
  194.4220  173.8660  144.0830 C   0  0  0  0  0  0  0  0  0  0  0  0
  195.0800  175.0350  144.2190 C   0  0  0  0  0  3  0  0  0  0  0  0
  197.4230  175.2090  143.9010 O   0  0  0  0  0  1  0  0  0  0  0  0
  196.7010  173.9670  145.8150 C   0  0  0  0  0  2  0  0  0  0  0  0
  196.4300  175.1440  144.8800 C   0  0  2  0  0  3  0  0  0  0  0  0
  196.4030  172.6580  145.0940 C   0  0  0  0  0  2  0  0  0  0  0  0
  188.8490  177.7910  145.1020 C   0  0  0  0  0  2  0  0  0  0  0  0
  187.7340  177.2570  146.0040 C   0  0  1  0  0  3  0  0  0  0  0  0
  186.5270  177.6950  147.7260 O   0  0  0  0  0  1  0  0  0  0  0  0
  187.7230  177.9300  147.2280 O   0  0  0  0  0  0  0  0  0  0  0  0
  186.3660  177.3620  145.3410 C   0  0  0  0  0  2  0  0  0  0  0  0
  186.3200  178.5180  144.3560 C   0  0  0  0  0  2  0  0  0  0  0  0
  185.7730  179.6450  144.9680 O   0  0  0  0  0  1  0  0  0  0  0  0
  1 10  1  0  0  0  0
  1 13  1  0  0  0  0
  2  6  1  0  0  0  0
  2  5  1  0  0  0  0
  3 15  1  0  0  0  0
  4  6  1  0  0  0  0
  5  7  1  0  0  0  0
  5 17  1  0  0  0  0
  6  9  1  0  0  0  0
  7  3  1  0  0  0  0
  8  4  1  0  0  0  0
  9 17  1  0  0  0  0
 11 16  1  0  0  0  0
 11 23  1  0  0  0  0
 12  8  1  0  0  0  0
 12 16  1  0  0  0  0
 13  9  1  0  0  0  0
 14 15  1  0  0  0  0
 16  2  1  0  0  0  0
 17 22  1  0  0  0  0
 18  4  1  0  0  0  0
 18  1  1  0  0  0  0
 19 25  1  0  0  0  0
 19  7  1  0  0  0  0
 20  1  1  0  0  0  0
 21 14  1  0  0  0  0
 22 31  1  0  0  0  0
 22 21  1  0  0  0  0
 23 19  1  0  0  0  0
 24 30  1  0  0  0  0
 25 26  2  0  0  0  0
 25 24  1  0  0  0  0
 26 29  1  0  0  0  0
 27 29  1  0  0  0  0
 29 28  1  0  0  0  0
 30 28  1  0  0  0  0
 31 32  1  0  0  0  0
 32 34  1  0  0  0  0
 34 33  1  0  0  0  0
 35 32  1  0  0  0  0
 36 37  1  0  0  0  0
 36 35  1  0  0  0  0
M  END
>  <MODEL>
1

>  <REMARK>
 VINA RESULT:      -7.6      0.000      0.000
  Name = 
  6 active torsions:
  status: ('A' for Active; 'I' for Inactive)
    1  A    between atoms: C_1  and  C_4
    2  A    between atoms: C_1  and  C_27
    3  A    between atoms: C_4  and  C_12
    4  A    between atoms: C_4  and  O_37
    5  A    between atoms: C_8  and  C_12
    6  A    between atoms: C_23  and  C_30
                            x       y       z     vdW  Elec       q    Type
                         _______ _______ _______ _____ _____    ______ ____

>  <TORSDO>
F 6

$$$$
=
 OpenBabel11112417313D

 37 42  0  0  1  0  0  0  0  0999 V2000
  191.3330  175.9770  147.7190 C   0  0  0  0  0  0  0  0  0  0  0  0
  191.8120  175.8300  143.9270 C   0  0  1  0  0  3  0  0  0  0  0  0
  189.5470  176.2530  141.7570 C   0  0  0  0  0  2  0  0  0  0  0  0
  192.9300  176.7770  146.0360 N   0  0  2  0  0  0  0  0  0  0  0  0
  190.3620  175.3430  143.8440 C   0  0  2  0  0  3  0  0  0  0  0  0
  191.8020  176.8510  145.0840 C   0  0  2  0  0  3  0  0  0  0  0  0
  189.8860  175.0270  142.4790 N   0  0  2  0  0  0  0  0  0  0  0  0
  194.1790  176.4740  145.3340 C   0  0  0  0  0  2  0  0  0  0  0  0
  190.4210  176.7910  145.7540 C   0  0  2  0  0  3  0  0  0  0  0  0
  191.2050  177.2360  148.2900 F   0  0  0  0  0  0  0  0  0  0  0  0
  192.9100  173.7460  142.9760 C   0  0  0  0  0  2  0  0  0  0  0  0
  194.1540  175.1170  144.6090 C   0  0  0  0  0  2  0  0  0  0  0  0
  190.3570  175.7630  146.7280 O   0  0  0  0  0  0  0  0  0  0  0  0
  187.1670  175.7040  142.5080 C   0  0  0  0  0  2  0  0  0  0  0  0
  188.0610  176.2550  141.3940 C   0  0  0  0  0  2  0  0  0  0  0  0
  192.7550  174.6510  144.1970 C   0  0  1  0  0  3  0  0  0  0  0  0
  189.5390  176.4080  144.5740 C   0  0  2  0  0  3  0  0  0  0  0  0
  192.7170  175.8020  147.1090 C   0  0  0  0  0  2  0  0  0  0  0  0
  190.8420  174.2430  141.6720 C   0  0  1  0  0  3  0  0  0  0  0  0
  191.1710  175.0280  148.7110 F   0  0  0  0  0  0  0  0  0  0  0  0
  187.1900  176.5810  143.7510 C   0  0  0  0  0  2  0  0  0  0  0  0
  188.0810  175.9960  144.8460 C   0  0  2  0  0  3  0  0  0  0  0  0
  191.5860  173.1800  142.4870 C   0  0  0  0  0  2  0  0  0  0  0  0
  188.8740  172.8250  140.7910 C   0  0  0  0  0  2  0  0  0  0  0  0
  190.1470  173.5870  140.5110 C   0  0  0  0  0  0  0  0  0  0  0  0
  190.7340  173.5640  139.2970 C   0  0  0  0  0  3  0  0  0  0  0  0
  189.5060  173.8940  137.2960 O   0  0  0  0  0  1  0  0  0  0  0  0
  189.0610  171.8700  138.4920 C   0  0  0  0  0  2  0  0  0  0  0  0
  190.1010  172.9150  138.0930 C   0  0  2  0  0  3  0  0  0  0  0  0
  188.1070  172.4610  139.5220 C   0  0  0  0  0  2  0  0  0  0  0  0
  187.5670  176.5100  146.1940 C   0  0  0  0  0  2  0  0  0  0  0  0
  186.1810  177.1520  146.0930 C   0  0  1  0  0  3  0  0  0  0  0  0
  185.9020  177.4460  148.2020 O   0  0  0  0  0  1  0  0  0  0  0  0
  185.3870  176.7900  147.1830 O   0  0  0  0  0  0  0  0  0  0  0  0
  186.2640  178.6710  145.9920 C   0  0  0  0  0  2  0  0  0  0  0  0
  185.0750  179.2370  145.2330 C   0  0  0  0  0  2  0  0  0  0  0  0
  185.5160  180.0720  144.2080 O   0  0  0  0  0  1  0  0  0  0  0  0
  1 10  1  0  0  0  0
  1 20  1  0  0  0  0
  2 16  1  0  0  0  0
  2  6  1  0  0  0  0
  3  7  1  0  0  0  0
  4 18  1  0  0  0  0
  5  2  1  0  0  0  0
  5 17  1  0  0  0  0
  6  9  1  0  0  0  0
  6  4  1  0  0  0  0
  7  5  1  0  0  0  0
  8  4  1  0  0  0  0
  9 13  1  0  0  0  0
 11 16  1  0  0  0  0
 12  8  1  0  0  0  0
 13  1  1  0  0  0  0
 14 21  1  0  0  0  0
 15  3  1  0  0  0  0
 15 14  1  0  0  0  0
 16 12  1  0  0  0  0
 17 22  1  0  0  0  0
 17  9  1  0  0  0  0
 18  1  1  0  0  0  0
 19  7  1  0  0  0  0
 19 23  1  0  0  0  0
 21 22  1  0  0  0  0
 22 31  1  0  0  0  0
 23 11  1  0  0  0  0
 25 24  1  0  0  0  0
 25 19  1  0  0  0  0
 26 25  2  0  0  0  0
 27 29  1  0  0  0  0
 28 30  1  0  0  0  0
 29 28  1  0  0  0  0
 29 26  1  0  0  0  0
 30 24  1  0  0  0  0
 32 31  1  0  0  0  0
 32 34  1  0  0  0  0
 34 33  1  0  0  0  0
 35 32  1  0  0  0  0
 36 35  1  0  0  0  0
 37 36  1  0  0  0  0
M  END
>  <MODEL>
2

>  <REMARK>
 VINA RESULT:      -7.5      2.858      5.762
  Name = 
  6 active torsions:
  status: ('A' for Active; 'I' for Inactive)
    1  A    between atoms: C_1  and  C_4
    2  A    between atoms: C_1  and  C_27
    3  A    between atoms: C_4  and  C_12
    4  A    between atoms: C_4  and  O_37
    5  A    between atoms: C_8  and  C_12
    6  A    between atoms: C_23  and  C_30
                            x       y       z     vdW  Elec       q    Type
                         _______ _______ _______ _____ _____    ______ ____

>  <TORSDO>
F 6

$$$$
=
 OpenBabel11112417313D

 37 42  0  0  1  0  0  0  0  0999 V2000
  192.2780  171.5070  142.4860 C   0  0  0  0  0  0  0  0  0  0  0  0
  190.0760  174.4630  141.4620 C   0  0  1  0  0  3  0  0  0  0  0  0
  190.0770  177.3260  142.8110 C   0  0  0  0  0  2  0  0  0  0  0  0
  191.5190  172.6070  140.4270 N   0  0  2  0  0  0  0  0  0  0  0  0
  190.1390  174.9120  142.9260 C   0  0  2  0  0  3  0  0  0  0  0  0
  191.4760  173.8730  141.1880 C   0  0  2  0  0  3  0  0  0  0  0  0
  189.3570  176.1270  143.2400 N   0  0  2  0  0  0  0  0  0  0  0  0
  190.5000  172.6020  139.3760 C   0  0  0  0  0  2  0  0  0  0  0  0
  192.2350  173.8200  142.5220 C   0  0  2  0  0  3  0  0  0  0  0  0
  193.6090  171.5460  142.0930 F   0  0  0  0  0  0  0  0  0  0  0  0
  187.5710  174.0600  141.3520 C   0  0  0  0  0  2  0  0  0  0  0  0
  189.0650  172.7150  139.9200 C   0  0  0  0  0  2  0  0  0  0  0  0
  191.9360  172.6400  143.2480 O   0  0  0  0  0  0  0  0  0  0  0  0
  190.8290  177.4090  145.2520 C   0  0  0  0  0  2  0  0  0  0  0  0
  190.3970  178.2070  144.0190 C   0  0  0  0  0  2  0  0  0  0  0  0
  188.9590  173.4290  141.2700 C   0  0  1  0  0  3  0  0  0  0  0  0
  191.6320  175.0130  143.2510 C   0  0  2  0  0  3  0  0  0  0  0  0
  191.3620  171.4200  141.2730 C   0  0  0  0  0  2  0  0  0  0  0  0
  188.0030  176.1440  142.6520 C   0  0  1  0  0  3  0  0  0  0  0  0
  192.0830  170.3780  143.2600 F   0  0  0  0  0  0  0  0  0  0  0  0
  192.1460  176.6800  145.0340 C   0  0  0  0  0  2  0  0  0  0  0  0
  191.9360  175.1930  144.7490 C   0  0  2  0  0  3  0  0  0  0  0  0
  187.3220  174.7720  142.6730 C   0  0  0  0  0  2  0  0  0  0  0  0
  186.6690  178.3520  142.5710 C   0  0  0  0  0  2  0  0  0  0  0  0
  187.1290  177.1460  143.3550 C   0  0  0  0  0  0  0  0  0  0  0  0
  186.8990  177.0330  144.6790 C   0  0  0  0  0  3  0  0  0  0  0  0
  184.7710  177.4640  145.6310 O   0  0  0  0  0  1  0  0  0  0  0  0
  185.9350  179.3530  144.7370 C   0  0  0  0  0  2  0  0  0  0  0  0
  186.0440  178.0060  145.4490 C   0  0  2  0  0  3  0  0  0  0  0  0
  185.5640  179.1340  143.2760 C   0  0  0  0  0  2  0  0  0  0  0  0
  193.2010  174.4490  145.1850 C   0  0  0  0  0  2  0  0  0  0  0  0
  194.4600  175.3150  145.0920 C   0  0  1  0  0  3  0  0  0  0  0  0
  196.0770  174.3330  146.1090 O   0  0  0  0  0  1  0  0  0  0  0  0
  195.1760  175.2760  146.2900 O   0  0  0  0  0  0  0  0  0  0  0  0
  195.3580  174.8920  143.9360 C   0  0  0  0  0  2  0  0  0  0  0  0
  195.6200  176.0530  142.9910 C   0  0  0  0  0  2  0  0  0  0  0  0
  196.6980  176.8090  143.4500 O   0  0  0  0  0  1  0  0  0  0  0  0
  1 13  1  0  0  0  0
  1 20  1  0  0  0  0
  2  5  1  0  0  0  0
  3  7  1  0  0  0  0
  3 15  1  0  0  0  0
  4  6  1  0  0  0  0
  4 18  1  0  0  0  0
  5  7  1  0  0  0  0
  5 17  1  0  0  0  0
  6  2  1  0  0  0  0
  6  9  1  0  0  0  0
  8 12  1  0  0  0  0
  8  4  1  0  0  0  0
  9 13  1  0  0  0  0
  9 17  1  0  0  0  0
 10  1  1  0  0  0  0
 11 23  1  0  0  0  0
 12 16  1  0  0  0  0
 15 14  1  0  0  0  0
 16 11  1  0  0  0  0
 16  2  1  0  0  0  0
 17 22  1  0  0  0  0
 18  1  1  0  0  0  0
 19 23  1  0  0  0  0
 19  7  1  0  0  0  0
 19 25  1  0  0  0  0
 21 14  1  0  0  0  0
 22 21  1  0  0  0  0
 22 31  1  0  0  0  0
 24 30  1  0  0  0  0
 24 25  1  0  0  0  0
 25 26  2  0  0  0  0
 26 29  1  0  0  0  0
 28 29  1  0  0  0  0
 29 27  1  0  0  0  0
 30 28  1  0  0  0  0
 32 31  1  0  0  0  0
 32 34  1  0  0  0  0
 33 34  1  0  0  0  0
 35 32  1  0  0  0  0
 36 37  1  0  0  0  0
 36 35  1  0  0  0  0
M  END
>  <MODEL>
3

>  <REMARK>
 VINA RESULT:      -7.3      2.743      7.106
  Name = 
  6 active torsions:
  status: ('A' for Active; 'I' for Inactive)
    1  A    between atoms: C_1  and  C_4
    2  A    between atoms: C_1  and  C_27
    3  A    between atoms: C_4  and  C_12
    4  A    between atoms: C_4  and  O_37
    5  A    between atoms: C_8  and  C_12
    6  A    between atoms: C_23  and  C_30
                            x       y       z     vdW  Elec       q    Type
                         _______ _______ _______ _____ _____    ______ ____

>  <TORSDO>
F 6

$$$$
=
 OpenBabel11112417313D

 37 42  0  0  1  0  0  0  0  0999 V2000
  188.8440  176.5530  146.3450 C   0  0  0  0  0  0  0  0  0  0  0  0
  191.5200  174.9310  144.1450 C   0  0  1  0  0  3  0  0  0  0  0  0
  191.1780  174.1290  141.1020 C   0  0  0  0  0  2  0  0  0  0  0  0
  191.2440  176.7950  145.8890 N   0  0  2  0  0  0  0  0  0  0  0  0
  190.3710  174.2680  143.3770 C   0  0  2  0  0  3  0  0  0  0  0  0
  190.9720  176.3250  144.5150 C   0  0  2  0  0  3  0  0  0  0  0  0
  190.7900  173.3620  142.2860 N   0  0  2  0  0  0  0  0  0  0  0  0
  192.5870  176.3960  146.3140 C   0  0  0  0  0  2  0  0  0  0  0  0
  189.4850  176.3650  144.1290 C   0  0  2  0  0  3  0  0  0  0  0  0
  188.6060  177.9070  146.1520 F   0  0  0  0  0  0  0  0  0  0  0  0
  192.6020  172.8030  145.0130 C   0  0  0  0  0  2  0  0  0  0  0  0
  192.7860  174.8710  146.3470 C   0  0  0  0  0  2  0  0  0  0  0  0
  188.6650  175.8270  145.1520 O   0  0  0  0  0  0  0  0  0  0  0  0
  188.7900  173.6310  140.3410 C   0  0  0  0  0  2  0  0  0  0  0  0
  190.2560  173.7880  139.9310 C   0  0  0  0  0  2  0  0  0  0  0  0
  191.8830  174.0990  145.3810 C   0  0  1  0  0  3  0  0  0  0  0  0
  189.4660  175.4210  142.9350 C   0  0  2  0  0  3  0  0  0  0  0  0
  190.2560  176.3260  146.8650 C   0  0  0  0  0  2  0  0  0  0  0  0
  191.8920  172.4480  142.6480 C   0  0  1  0  0  3  0  0  0  0  0  0
  187.9510  176.0810  147.2880 F   0  0  0  0  0  0  0  0  0  0  0  0
  188.1900  174.9340  140.8470 C   0  0  0  0  0  2  0  0  0  0  0  0
  188.1060  174.9700  142.3730 C   0  0  2  0  0  3  0  0  0  0  0  0
  191.7860  171.9190  144.0810 C   0  0  0  0  0  2  0  0  0  0  0  0
  190.7430  170.4050  141.5680 C   0  0  0  0  0  2  0  0  0  0  0  0
  191.9600  171.2900  141.6910 C   0  0  0  0  0  0  0  0  0  0  0  0
  193.1250  170.9800  141.0860 C   0  0  0  0  0  3  0  0  0  0  0  0
  193.2270  170.3050  138.8160 O   0  0  0  0  0  1  0  0  0  0  0  0
  192.1760  168.7790  140.3290 C   0  0  0  0  0  2  0  0  0  0  0  0
  193.2690  169.8270  140.1260 C   0  0  2  0  0  3  0  0  0  0  0  0
  190.8140  169.4590  140.3730 C   0  0  0  0  0  2  0  0  0  0  0  0
  186.9680  175.9200  142.7570 C   0  0  0  0  0  2  0  0  0  0  0  0
  186.8330  177.1020  141.7950 C   0  0  1  0  0  3  0  0  0  0  0  0
  185.5830  178.1580  140.4040 O   0  0  0  0  0  1  0  0  0  0  0  0
  185.5390  177.1710  141.2740 O   0  0  0  0  0  0  0  0  0  0  0  0
  187.1940  178.4240  142.4640 C   0  0  0  0  0  2  0  0  0  0  0  0
  186.4380  178.6030  143.7700 C   0  0  0  0  0  2  0  0  0  0  0  0
  185.5550  179.6770  143.6670 O   0  0  0  0  0  1  0  0  0  0  0  0
  1 18  1  0  0  0  0
  1 20  1  0  0  0  0
  2  6  1  0  0  0  0
  2 16  1  0  0  0  0
  3  7  1  0  0  0  0
  4  8  1  0  0  0  0
  4 18  1  0  0  0  0
  5  2  1  0  0  0  0
  6  4  1  0  0  0  0
  7 19  1  0  0  0  0
  7  5  1  0  0  0  0
  8 12  1  0  0  0  0
  9  6  1  0  0  0  0
  9 13  1  0  0  0  0
 10  1  1  0  0  0  0
 11 16  1  0  0  0  0
 13  1  1  0  0  0  0
 14 21  1  0  0  0  0
 15 14  1  0  0  0  0
 15  3  1  0  0  0  0
 16 12  1  0  0  0  0
 17  5  1  0  0  0  0
 17  9  1  0  0  0  0
 19 23  1  0  0  0  0
 21 22  1  0  0  0  0
 22 31  1  0  0  0  0
 22 17  1  0  0  0  0
 23 11  1  0  0  0  0
 24 25  1  0  0  0  0
 25 19  1  0  0  0  0
 26 25  2  0  0  0  0
 27 29  1  0  0  0  0
 28 30  1  0  0  0  0
 29 28  1  0  0  0  0
 29 26  1  0  0  0  0
 30 24  1  0  0  0  0
 32 35  1  0  0  0  0
 32 31  1  0  0  0  0
 33 34  1  0  0  0  0
 34 32  1  0  0  0  0
 35 36  1  0  0  0  0
 37 36  1  0  0  0  0
M  END
>  <MODEL>
4

>  <REMARK>
 VINA RESULT:      -7.2      2.753      5.321
  Name = 
  6 active torsions:
  status: ('A' for Active; 'I' for Inactive)
    1  A    between atoms: C_1  and  C_4
    2  A    between atoms: C_1  and  C_27
    3  A    between atoms: C_4  and  C_12
    4  A    between atoms: C_4  and  O_37
    5  A    between atoms: C_8  and  C_12
    6  A    between atoms: C_23  and  C_30
                            x       y       z     vdW  Elec       q    Type
                         _______ _______ _______ _____ _____    ______ ____

>  <TORSDO>
F 6

$$$$
=
 OpenBabel11112417313D

 37 42  0  0  1  0  0  0  0  0999 V2000
  194.9270  174.2370  141.6750 C   0  0  0  0  0  0  0  0  0  0  0  0
  191.9690  175.2830  143.8640 C   0  0  1  0  0  3  0  0  0  0  0  0
  188.9220  174.6490  143.2850 C   0  0  0  0  0  2  0  0  0  0  0  0
  194.3370  174.3090  144.0570 N   0  0  2  0  0  0  0  0  0  0  0  0
  191.1360  175.3190  142.5790 C   0  0  2  0  0  3  0  0  0  0  0  0
  192.9310  174.0950  143.6570 C   0  0  2  0  0  3  0  0  0  0  0  0
  189.7310  175.7480  142.7570 N   0  0  2  0  0  0  0  0  0  0  0  0
  194.4090  175.1080  145.2820 C   0  0  0  0  0  2  0  0  0  0  0  0
  192.7670  173.6010  142.2110 C   0  0  2  0  0  3  0  0  0  0  0  0
  195.3260  172.9090  141.7480 F   0  0  0  0  0  0  0  0  0  0  0  0
  191.7730  177.7470  144.4490 C   0  0  0  0  0  2  0  0  0  0  0  0
  193.7990  176.5120  145.1280 C   0  0  0  0  0  2  0  0  0  0  0  0
  193.5710  174.3440  141.3110 O   0  0  0  0  0  0  0  0  0  0  0  0
  188.3030  174.2960  140.8320 C   0  0  0  0  0  2  0  0  0  0  0  0
  187.8270  174.2760  142.2860 C   0  0  0  0  0  2  0  0  0  0  0  0
  192.7140  176.6110  144.0530 C   0  0  1  0  0  3  0  0  0  0  0  0
  191.3040  173.9330  141.9520 C   0  0  2  0  0  3  0  0  0  0  0  0
  195.1460  174.9370  143.0090 C   0  0  0  0  0  2  0  0  0  0  0  0
  189.5650  176.9280  143.6280 C   0  0  1  0  0  3  0  0  0  0  0  0
  195.6940  174.8730  140.7180 F   0  0  0  0  0  0  0  0  0  0  0  0
  189.3580  173.2340  140.5560 C   0  0  0  0  0  2  0  0  0  0  0  0
  190.7660  173.8250  140.5140 C   0  0  2  0  0  3  0  0  0  0  0  0
  190.6640  177.9770  143.4340 C   0  0  0  0  0  2  0  0  0  0  0  0
  187.8500  177.9660  142.0030 C   0  0  0  0  0  2  0  0  0  0  0  0
  188.2210  177.5660  143.4110 C   0  0  0  0  0  0  0  0  0  0  0  0
  187.4500  177.8980  144.4660 C   0  0  0  0  0  3  0  0  0  0  0  0
  185.1000  177.5850  144.4610 O   0  0  0  0  0  1  0  0  0  0  0  0
  185.9500  179.2590  142.9780 C   0  0  0  0  0  2  0  0  0  0  0  0
  186.0990  178.5490  144.3230 C   0  0  2  0  0  3  0  0  0  0  0  0
  186.3730  178.3220  141.8540 C   0  0  0  0  0  2  0  0  0  0  0  0
  191.6280  172.9190  139.6310 C   0  0  0  0  0  2  0  0  0  0  0  0
  191.0900  171.4890  139.5450 C   0  0  1  0  0  3  0  0  0  0  0  0
  189.6580  170.6150  138.2040 O   0  0  0  0  0  1  0  0  0  0  0  0
  190.8740  171.1210  138.2160 O   0  0  0  0  0  0  0  0  0  0  0  0
  192.0230  170.4880  140.2170 C   0  0  0  0  0  2  0  0  0  0  0  0
  191.2670  169.6030  141.1940 C   0  0  0  0  0  2  0  0  0  0  0  0
  190.4690  170.3840  142.0270 O   0  0  0  0  0  1  0  0  0  0  0  0
  1 10  1  0  0  0  0
  1 18  1  0  0  0  0
  2 16  1  0  0  0  0
  4  8  1  0  0  0  0
  5  7  1  0  0  0  0
  5  2  1  0  0  0  0
  6  2  1  0  0  0  0
  6  4  1  0  0  0  0
  7  3  1  0  0  0  0
  7 19  1  0  0  0  0
  9  6  1  0  0  0  0
 12  8  1  0  0  0  0
 13  1  1  0  0  0  0
 13  9  1  0  0  0  0
 14 15  1  0  0  0  0
 15  3  1  0  0  0  0
 16 11  1  0  0  0  0
 16 12  1  0  0  0  0
 17  9  1  0  0  0  0
 17  5  1  0  0  0  0
 18  4  1  0  0  0  0
 20  1  1  0  0  0  0
 21 14  1  0  0  0  0
 22 21  1  0  0  0  0
 22 17  1  0  0  0  0
 23 19  1  0  0  0  0
 23 11  1  0  0  0  0
 24 25  1  0  0  0  0
 25 19  1  0  0  0  0
 25 26  2  0  0  0  0
 28 29  1  0  0  0  0
 29 27  1  0  0  0  0
 29 26  1  0  0  0  0
 30 24  1  0  0  0  0
 30 28  1  0  0  0  0
 31 22  1  0  0  0  0
 32 31  1  0  0  0  0
 32 35  1  0  0  0  0
 33 34  1  0  0  0  0
 34 32  1  0  0  0  0
 35 36  1  0  0  0  0
 36 37  1  0  0  0  0
M  END
>  <MODEL>
5

>  <REMARK>
 VINA RESULT:      -7.1      3.379      7.972
  Name = 
  6 active torsions:
  status: ('A' for Active; 'I' for Inactive)
    1  A    between atoms: C_1  and  C_4
    2  A    between atoms: C_1  and  C_27
    3  A    between atoms: C_4  and  C_12
    4  A    between atoms: C_4  and  O_37
    5  A    between atoms: C_8  and  C_12
    6  A    between atoms: C_23  and  C_30
                            x       y       z     vdW  Elec       q    Type
                         _______ _______ _______ _____ _____    ______ ____

>  <TORSDO>
F 6

$$$$
=
 OpenBabel11112417313D

 37 42  0  0  1  0  0  0  0  0999 V2000
  195.0110  174.2150  141.7280 C   0  0  0  0  0  0  0  0  0  0  0  0
  192.0110  175.2270  143.8750 C   0  0  1  0  0  3  0  0  0  0  0  0
  188.9770  174.5940  143.2330 C   0  0  0  0  0  2  0  0  0  0  0  0
  194.3780  174.2550  144.0990 N   0  0  2  0  0  0  0  0  0  0  0  0
  191.2010  175.2780  142.5750 C   0  0  2  0  0  3  0  0  0  0  0  0
  192.9790  174.0430  143.6710 C   0  0  2  0  0  3  0  0  0  0  0  0
  189.7920  175.7020  142.7340 N   0  0  2  0  0  0  0  0  0  0  0  0
  194.4250  175.0380  145.3360 C   0  0  0  0  0  2  0  0  0  0  0  0
  192.8430  173.5690  142.2160 C   0  0  2  0  0  3  0  0  0  0  0  0
  195.4120  172.8880  141.7910 F   0  0  0  0  0  0  0  0  0  0  0  0
  191.7990  177.6830  144.4880 C   0  0  0  0  0  2  0  0  0  0  0  0
  193.8150  176.4430  145.1890 C   0  0  0  0  0  2  0  0  0  0  0  0
  193.6620  174.3240  141.3400 O   0  0  0  0  0  0  0  0  0  0  0  0
  188.4040  174.2720  140.7630 C   0  0  0  0  0  2  0  0  0  0  0  0
  187.9010  174.2320  142.2090 C   0  0  0  0  0  2  0  0  0  0  0  0
  192.7490  176.5540  144.0950 C   0  0  1  0  0  3  0  0  0  0  0  0
  191.3840  173.9000  141.9340 C   0  0  2  0  0  3  0  0  0  0  0  0
  195.2040  174.8990  143.0740 C   0  0  0  0  0  2  0  0  0  0  0  0
  189.6080  176.8700  143.6170 C   0  0  1  0  0  3  0  0  0  0  0  0
  195.7940  174.8650  140.7930 F   0  0  0  0  0  0  0  0  0  0  0  0
  189.4660  173.2160  140.4940 C   0  0  0  0  0  2  0  0  0  0  0  0
  190.8740  173.8110  140.4850 C   0  0  2  0  0  3  0  0  0  0  0  0
  190.7080  177.9240  143.4570 C   0  0  0  0  0  2  0  0  0  0  0  0
  187.9210  177.9260  141.9730 C   0  0  0  0  0  2  0  0  0  0  0  0
  188.2660  177.5080  143.3830 C   0  0  0  0  0  0  0  0  0  0  0  0
  187.4760  177.8240  144.4280 C   0  0  0  0  0  3  0  0  0  0  0  0
  185.1270  177.5060  144.3760 O   0  0  0  0  0  1  0  0  0  0  0  0
  186.0010  179.2020  142.9310 C   0  0  0  0  0  2  0  0  0  0  0  0
  186.1260  178.4750  144.2690 C   0  0  2  0  0  3  0  0  0  0  0  0
  186.4470  178.2810  141.8020 C   0  0  0  0  0  2  0  0  0  0  0  0
  191.7540  172.9180  139.6060 C   0  0  0  0  0  2  0  0  0  0  0  0
  192.0710  173.5500  138.2490 C   0  0  1  0  0  3  0  0  0  0  0  0
  193.7970  172.3620  138.7170 O   0  0  0  0  0  1  0  0  0  0  0  0
  193.3930  173.2940  137.8800 O   0  0  0  0  0  0  0  0  0  0  0  0
  191.1240  173.0620  137.1590 C   0  0  0  0  0  2  0  0  0  0  0  0
  190.3020  174.2080  136.5920 C   0  0  0  0  0  2  0  0  0  0  0  0
  189.0180  174.1900  137.1350 O   0  0  0  0  0  1  0  0  0  0  0  0
  1 10  1  0  0  0  0
  1 18  1  0  0  0  0
  2 16  1  0  0  0  0
  4  8  1  0  0  0  0
  5  7  1  0  0  0  0
  5  2  1  0  0  0  0
  6  2  1  0  0  0  0
  6  4  1  0  0  0  0
  7  3  1  0  0  0  0
  7 19  1  0  0  0  0
  9  6  1  0  0  0  0
 12  8  1  0  0  0  0
 13  1  1  0  0  0  0
 13  9  1  0  0  0  0
 14 15  1  0  0  0  0
 15  3  1  0  0  0  0
 16 11  1  0  0  0  0
 16 12  1  0  0  0  0
 17  9  1  0  0  0  0
 17  5  1  0  0  0  0
 18  4  1  0  0  0  0
 20  1  1  0  0  0  0
 21 14  1  0  0  0  0
 22 21  1  0  0  0  0
 22 17  1  0  0  0  0
 23 19  1  0  0  0  0
 23 11  1  0  0  0  0
 24 25  1  0  0  0  0
 25 19  1  0  0  0  0
 25 26  2  0  0  0  0
 28 29  1  0  0  0  0
 29 27  1  0  0  0  0
 29 26  1  0  0  0  0
 30 24  1  0  0  0  0
 30 28  1  0  0  0  0
 31 22  1  0  0  0  0
 32 31  1  0  0  0  0
 34 32  1  0  0  0  0
 34 33  1  0  0  0  0
 35 32  1  0  0  0  0
 36 37  1  0  0  0  0
 36 35  1  0  0  0  0
M  END
>  <MODEL>
6

>  <REMARK>
 VINA RESULT:      -6.9      3.355      7.959
  Name = 
  6 active torsions:
  status: ('A' for Active; 'I' for Inactive)
    1  A    between atoms: C_1  and  C_4
    2  A    between atoms: C_1  and  C_27
    3  A    between atoms: C_4  and  C_12
    4  A    between atoms: C_4  and  O_37
    5  A    between atoms: C_8  and  C_12
    6  A    between atoms: C_23  and  C_30
                            x       y       z     vdW  Elec       q    Type
                         _______ _______ _______ _____ _____    ______ ____

>  <TORSDO>
F 6

$$$$
=
 OpenBabel11112417313D

 37 42  0  0  1  0  0  0  0  0999 V2000
  190.2510  177.8260  144.5910 C   0  0  0  0  0  0  0  0  0  0  0  0
  189.3350  174.4060  143.1410 C   0  0  1  0  0  3  0  0  0  0  0  0
  191.0510  171.7610  143.4130 C   0  0  0  0  0  2  0  0  0  0  0  0
  188.2750  176.3830  144.3920 N   0  0  2  0  0  0  0  0  0  0  0  0
  190.8400  174.1390  143.0340 C   0  0  2  0  0  3  0  0  0  0  0  0
  189.1880  175.2220  144.4430 C   0  0  2  0  0  3  0  0  0  0  0  0
  191.2020  172.8370  142.4330 N   0  0  2  0  0  0  0  0  0  0  0  0
  187.0960  176.0770  143.5790 C   0  0  0  0  0  2  0  0  0  0  0  0
  190.5990  175.5650  144.9460 C   0  0  2  0  0  3  0  0  0  0  0  0
  190.0640  178.0020  145.9560 F   0  0  0  0  0  0  0  0  0  0  0  0
  188.8080  174.3030  140.6590 C   0  0  0  0  0  2  0  0  0  0  0  0
  187.4370  175.7480  142.1160 C   0  0  0  0  0  2  0  0  0  0  0  0
  191.1040  176.7370  144.3290 O   0  0  0  0  0  0  0  0  0  0  0  0
  193.5630  172.0900  143.7460 C   0  0  0  0  0  2  0  0  0  0  0  0
  192.4030  171.0940  143.6730 C   0  0  0  0  0  2  0  0  0  0  0  0
  188.8420  175.1770  141.9100 C   0  0  1  0  0  3  0  0  0  0  0  0
  191.3890  174.3650  144.4450 C   0  0  2  0  0  3  0  0  0  0  0  0
  188.9180  177.6010  143.8920 C   0  0  0  0  0  2  0  0  0  0  0  0
  190.4320  172.4950  141.2220 C   0  0  1  0  0  3  0  0  0  0  0  0
  190.8260  178.9720  144.0770 F   0  0  0  0  0  0  0  0  0  0  0  0
  193.4410  173.0320  144.9340 C   0  0  0  0  0  2  0  0  0  0  0  0
  192.9260  174.4100  144.5200 C   0  0  2  0  0  3  0  0  0  0  0  0
  190.1640  173.7030  140.3190 C   0  0  0  0  0  2  0  0  0  0  0  0
  192.5600  171.6770  140.0130 C   0  0  0  0  0  2  0  0  0  0  0  0
  191.1310  171.4250  140.4300 C   0  0  0  0  0  0  0  0  0  0  0  0
  190.4440  170.3510  139.9890 C   0  0  0  0  0  3  0  0  0  0  0  0
  191.3640  168.1660  140.0160 O   0  0  0  0  0  1  0  0  0  0  0  0
  192.3530  169.7150  138.4830 C   0  0  0  0  0  2  0  0  0  0  0  0
  191.0770  169.2470  139.1810 C   0  0  2  0  0  3  0  0  0  0  0  0
  193.2560  170.4260  139.4830 C   0  0  0  0  0  2  0  0  0  0  0  0
  193.4350  175.4270  145.5450 C   0  0  0  0  0  2  0  0  0  0  0  0
  194.4250  176.4280  144.9450 C   0  0  1  0  0  3  0  0  0  0  0  0
  194.0350  177.1610  146.9260 O   0  0  0  0  0  1  0  0  0  0  0  0
  194.5910  177.5270  145.7900 O   0  0  0  0  0  0  0  0  0  0  0  0
  195.7770  175.7870  144.6560 C   0  0  0  0  0  2  0  0  0  0  0  0
  196.4330  176.4160  143.4380 C   0  0  0  0  0  2  0  0  0  0  0  0
  195.5470  176.4110  142.3610 O   0  0  0  0  0  1  0  0  0  0  0  0
  1 10  1  0  0  0  0
  2  6  1  0  0  0  0
  3 15  1  0  0  0  0
  4  6  1  0  0  0  0
  5  2  1  0  0  0  0
  5 17  1  0  0  0  0
  6  9  1  0  0  0  0
  7  5  1  0  0  0  0
  7  3  1  0  0  0  0
  8  4  1  0  0  0  0
 11 16  1  0  0  0  0
 12  8  1  0  0  0  0
 13  1  1  0  0  0  0
 13  9  1  0  0  0  0
 14 21  1  0  0  0  0
 15 14  1  0  0  0  0
 16 12  1  0  0  0  0
 16  2  1  0  0  0  0
 17 22  1  0  0  0  0
 17  9  1  0  0  0  0
 18  4  1  0  0  0  0
 18  1  1  0  0  0  0
 19  7  1  0  0  0  0
 20  1  1  0  0  0  0
 22 21  1  0  0  0  0
 22 31  1  0  0  0  0
 23 11  1  0  0  0  0
 23 19  1  0  0  0  0
 24 25  1  0  0  0  0
 25 19  1  0  0  0  0
 26 25  2  0  0  0  0
 28 29  1  0  0  0  0
 28 30  1  0  0  0  0
 29 26  1  0  0  0  0
 29 27  1  0  0  0  0
 30 24  1  0  0  0  0
 32 31  1  0  0  0  0
 32 34  1  0  0  0  0
 34 33  1  0  0  0  0
 35 32  1  0  0  0  0
 36 35  1  0  0  0  0
 37 36  1  0  0  0  0
M  END
>  <MODEL>
7

>  <REMARK>
 VINA RESULT:      -6.9      2.997      5.850
  Name = 
  6 active torsions:
  status: ('A' for Active; 'I' for Inactive)
    1  A    between atoms: C_1  and  C_4
    2  A    between atoms: C_1  and  C_27
    3  A    between atoms: C_4  and  C_12
    4  A    between atoms: C_4  and  O_37
    5  A    between atoms: C_8  and  C_12
    6  A    between atoms: C_23  and  C_30
                            x       y       z     vdW  Elec       q    Type
                         _______ _______ _______ _____ _____    ______ ____

>  <TORSDO>
F 6

$$$$
=
 OpenBabel11112417313D

 37 42  0  0  1  0  0  0  0  0999 V2000
  187.6460  175.4520  142.5730 C   0  0  0  0  0  0  0  0  0  0  0  0
  191.0750  176.1670  144.1100 C   0  0  1  0  0  3  0  0  0  0  0  0
  193.8700  175.4170  142.8290 C   0  0  0  0  0  2  0  0  0  0  0  0
  188.7980  177.2900  143.7210 N   0  0  2  0  0  0  0  0  0  0  0  0
  191.5710  174.9120  143.3840 C   0  0  2  0  0  3  0  0  0  0  0  0
  190.0590  176.7920  143.1320 C   0  0  2  0  0  3  0  0  0  0  0  0
  192.9890  174.5680  143.6310 N   0  0  2  0  0  0  0  0  0  0  0  0
  189.0490  177.9160  145.0210 C   0  0  0  0  0  2  0  0  0  0  0  0
  189.8520  175.8060  141.9720 C   0  0  2  0  0  3  0  0  0  0  0  0
  187.2400  176.2730  141.5300 F   0  0  0  0  0  0  0  0  0  0  0  0
  191.4760  175.3500  146.4820 C   0  0  0  0  0  2  0  0  0  0  0  0
  189.6420  176.9470  146.0580 C   0  0  0  0  0  2  0  0  0  0  0  0
  188.8740  174.8290  142.2840 O   0  0  0  0  0  0  0  0  0  0  0  0
  193.8640  173.4280  141.2250 C   0  0  0  0  0  2  0  0  0  0  0  0
  194.6790  174.5610  141.8540 C   0  0  0  0  0  2  0  0  0  0  0  0
  190.4360  175.7870  145.4520 C   0  0  1  0  0  3  0  0  0  0  0  0
  191.2170  175.1350  141.9110 C   0  0  2  0  0  3  0  0  0  0  0  0
  187.7770  176.2490  143.8630 C   0  0  0  0  0  2  0  0  0  0  0  0
  193.3950  174.6560  145.0480 C   0  0  1  0  0  3  0  0  0  0  0  0
  186.6870  174.4750  142.7600 F   0  0  0  0  0  0  0  0  0  0  0  0
  192.7450  173.9490  140.3360 C   0  0  0  0  0  2  0  0  0  0  0  0
  191.3860  173.8840  141.0310 C   0  0  2  0  0  3  0  0  0  0  0  0
  192.3110  174.1690  146.0140 C   0  0  0  0  0  2  0  0  0  0  0  0
  194.6200  172.3860  145.1090 C   0  0  0  0  0  2  0  0  0  0  0  0
  194.6630  173.8850  145.2880 C   0  0  0  0  0  0  0  0  0  0  0  0
  195.7490  174.5070  145.7890 C   0  0  0  0  0  3  0  0  0  0  0  0
  197.9410  174.0350  145.0200 O   0  0  0  0  0  1  0  0  0  0  0  0
  196.8450  172.2910  146.2380 C   0  0  0  0  0  2  0  0  0  0  0  0
  197.0480  173.7950  146.0650 C   0  0  2  0  0  3  0  0  0  0  0  0
  196.0080  171.7500  145.0860 C   0  0  0  0  0  2  0  0  0  0  0  0
  190.3100  173.7800  139.9460 C   0  0  0  0  0  2  0  0  0  0  0  0
  189.6280  172.4100  139.9180 C   0  0  1  0  0  3  0  0  0  0  0  0
  188.1860  173.7900  139.1250 O   0  0  0  0  0  1  0  0  0  0  0  0
  188.3370  172.5110  139.3960 O   0  0  0  0  0  0  0  0  0  0  0  0
  190.4330  171.3900  139.1190 C   0  0  0  0  0  2  0  0  0  0  0  0
  190.7610  170.1690  139.9620 C   0  0  0  0  0  2  0  0  0  0  0  0
  190.6090  170.4680  141.3160 O   0  0  0  0  0  1  0  0  0  0  0  0
  1 20  1  0  0  0  0
  1 18  1  0  0  0  0
  2 16  1  0  0  0  0
  3  7  1  0  0  0  0
  4 18  1  0  0  0  0
  4  8  1  0  0  0  0
  5  7  1  0  0  0  0
  5  2  1  0  0  0  0
  6  4  1  0  0  0  0
  6  2  1  0  0  0  0
  7 19  1  0  0  0  0
  8 12  1  0  0  0  0
  9 13  1  0  0  0  0
  9  6  1  0  0  0  0
 10  1  1  0  0  0  0
 13  1  1  0  0  0  0
 14 15  1  0  0  0  0
 15  3  1  0  0  0  0
 16 12  1  0  0  0  0
 16 11  1  0  0  0  0
 17  9  1  0  0  0  0
 17  5  1  0  0  0  0
 19 25  1  0  0  0  0
 19 23  1  0  0  0  0
 21 22  1  0  0  0  0
 21 14  1  0  0  0  0
 22 17  1  0  0  0  0
 23 11  1  0  0  0  0
 24 25  1  0  0  0  0
 25 26  2  0  0  0  0
 26 29  1  0  0  0  0
 27 29  1  0  0  0  0
 29 28  1  0  0  0  0
 30 24  1  0  0  0  0
 30 28  1  0  0  0  0
 31 22  1  0  0  0  0
 32 31  1  0  0  0  0
 33 34  1  0  0  0  0
 34 32  1  0  0  0  0
 35 32  1  0  0  0  0
 35 36  1  0  0  0  0
 36 37  1  0  0  0  0
M  END
>  <MODEL>
8

>  <REMARK>
 VINA RESULT:      -6.8      2.324      5.296
  Name = 
  6 active torsions:
  status: ('A' for Active; 'I' for Inactive)
    1  A    between atoms: C_1  and  C_4
    2  A    between atoms: C_1  and  C_27
    3  A    between atoms: C_4  and  C_12
    4  A    between atoms: C_4  and  O_37
    5  A    between atoms: C_8  and  C_12
    6  A    between atoms: C_23  and  C_30
                            x       y       z     vdW  Elec       q    Type
                         _______ _______ _______ _____ _____    ______ ____

>  <TORSDO>
F 6

$$$$
=
 OpenBabel11112417313D

 37 42  0  0  1  0  0  0  0  0999 V2000
  188.7140  173.7600  138.3080 C   0  0  0  0  0  0  0  0  0  0  0  0
  190.9840  172.7960  141.2330 C   0  0  1  0  0  3  0  0  0  0  0  0
  190.7450  173.8800  144.1960 C   0  0  0  0  0  2  0  0  0  0  0  0
  189.7320  171.7370  139.2550 N   0  0  2  0  0  0  0  0  0  0  0  0
  190.7100  174.1930  141.7990 C   0  0  2  0  0  3  0  0  0  0  0  0
  189.6470  172.3840  140.5810 C   0  0  2  0  0  3  0  0  0  0  0  0
  191.4200  174.5060  143.0590 N   0  0  2  0  0  0  0  0  0  0  0  0
  190.8880  170.8400  139.1940 C   0  0  0  0  0  2  0  0  0  0  0  0
  188.7110  173.6020  140.6170 C   0  0  2  0  0  3  0  0  0  0  0  0
  187.4510  173.1860  138.2760 F   0  0  0  0  0  0  0  0  0  0  0  0
  193.4870  173.0650  140.8960 C   0  0  0  0  0  2  0  0  0  0  0  0
  192.2300  171.5630  139.3930 C   0  0  0  0  0  2  0  0  0  0  0  0
  188.9270  174.4610  139.5100 O   0  0  0  0  0  0  0  0  0  0  0  0
  189.6610  176.1790  144.4590 C   0  0  0  0  0  2  0  0  0  0  0  0
  190.2450  174.9530  145.1650 C   0  0  0  0  0  2  0  0  0  0  0  0
  192.1350  172.8480  140.2200 C   0  0  1  0  0  3  0  0  0  0  0  0
  189.1860  174.3010  141.8830 C   0  0  2  0  0  3  0  0  0  0  0  0
  189.7910  172.6960  138.1480 C   0  0  0  0  0  2  0  0  0  0  0  0
  192.8420  174.1090  143.0670 C   0  0  1  0  0  3  0  0  0  0  0  0
  188.8190  174.6470  137.2540 F   0  0  0  0  0  0  0  0  0  0  0  0
  188.4000  175.8470  143.6760 C   0  0  0  0  0  2  0  0  0  0  0  0
  188.6730  175.7220  142.1780 C   0  0  2  0  0  3  0  0  0  0  0  0
  193.5370  174.3410  141.7220 C   0  0  0  0  0  2  0  0  0  0  0  0
  194.1800  174.0150  145.2720 C   0  0  0  0  0  2  0  0  0  0  0  0
  193.5920  174.8360  144.1490 C   0  0  0  0  0  0  0  0  0  0  0  0
  193.6000  176.1840  144.1790 C   0  0  0  0  0  3  0  0  0  0  0  0
  195.5440  177.4220  144.7360 O   0  0  0  0  0  1  0  0  0  0  0  0
  194.5510  176.1540  146.5050 C   0  0  0  0  0  2  0  0  0  0  0  0
  194.3210  176.9770  145.2380 C   0  0  2  0  0  3  0  0  0  0  0  0
  195.1570  174.8050  146.1390 C   0  0  0  0  0  2  0  0  0  0  0  0
  187.3730  176.0430  141.4360 C   0  0  0  0  0  2  0  0  0  0  0  0
  187.1540  177.5460  141.2480 C   0  0  1  0  0  3  0  0  0  0  0  0
  186.6750  176.8070  139.2900 O   0  0  0  0  0  1  0  0  0  0  0  0
  186.3870  177.7960  140.1090 O   0  0  0  0  0  0  0  0  0  0  0  0
  186.4950  178.1820  142.4680 C   0  0  0  0  0  2  0  0  0  0  0  0
  185.0760  178.6270  142.1550 C   0  0  0  0  0  2  0  0  0  0  0  0
  184.1980  178.1370  143.1200 O   0  0  0  0  0  1  0  0  0  0  0  0
  1 13  1  0  0  0  0
  2  5  1  0  0  0  0
  3 15  1  0  0  0  0
  4  6  1  0  0  0  0
  5 17  1  0  0  0  0
  5  7  1  0  0  0  0
  6  9  1  0  0  0  0
  6  2  1  0  0  0  0
  7 19  1  0  0  0  0
  7  3  1  0  0  0  0
  8  4  1  0  0  0  0
  8 12  1  0  0  0  0
  9 17  1  0  0  0  0
 10  1  1  0  0  0  0
 11 23  1  0  0  0  0
 12 16  1  0  0  0  0
 13  9  1  0  0  0  0
 14 15  1  0  0  0  0
 16 11  1  0  0  0  0
 16  2  1  0  0  0  0
 17 22  1  0  0  0  0
 18  1  1  0  0  0  0
 18  4  1  0  0  0  0
 19 25  1  0  0  0  0
 20  1  1  0  0  0  0
 21 14  1  0  0  0  0
 22 21  1  0  0  0  0
 23 19  1  0  0  0  0
 24 30  1  0  0  0  0
 25 26  2  0  0  0  0
 25 24  1  0  0  0  0
 26 29  1  0  0  0  0
 27 29  1  0  0  0  0
 29 28  1  0  0  0  0
 30 28  1  0  0  0  0
 31 22  1  0  0  0  0
 32 31  1  0  0  0  0
 32 35  1  0  0  0  0
 33 34  1  0  0  0  0
 34 32  1  0  0  0  0
 36 35  1  0  0  0  0
 36 37  1  0  0  0  0
M  END
>  <MODEL>
9

>  <REMARK>
 VINA RESULT:      -6.7      2.427      3.443
  Name = 
  6 active torsions:
  status: ('A' for Active; 'I' for Inactive)
    1  A    between atoms: C_1  and  C_4
    2  A    between atoms: C_1  and  C_27
    3  A    between atoms: C_4  and  C_12
    4  A    between atoms: C_4  and  O_37
    5  A    between atoms: C_8  and  C_12
    6  A    between atoms: C_23  and  C_30
                            x       y       z     vdW  Elec       q    Type
                         _______ _______ _______ _____ _____    ______ ____

>  <TORSDO>
F 6

$$$$
