=
 OpenBabel11112416213D

 30 35  0  0  1  0  0  0  0  0999 V2000
  186.2680  177.3170  143.6430 C   0  0  0  0  0  0  0  0  0  0  0  0
  184.5400  178.4720  145.0780 C   0  0  0  0  0  0  0  0  0  0  0  0
  188.4300  176.1540  147.0480 N   0  0  0  0  0  2  0  0  0  0  0  0
  187.4780  176.5530  143.5480 C   0  0  0  0  0  0  0  0  0  0  0  0
  185.6130  177.6560  142.5020 N   0  0  0  0  0  0  0  0  0  0  0  0
  187.6050  176.1590  139.8440 O   0  0  0  0  0  1  0  0  0  0  0  0
  190.3670  175.8000  142.6460 C   0  0  1  0  0  3  0  0  0  0  0  0
  187.1850  176.5350  141.1180 C   0  0  0  0  0  0  0  0  0  0  0  0
  190.4440  175.3850  144.0620 C   0  0  0  0  0  0  0  0  0  0  0  0
  189.5640  175.4520  146.4500 C   0  0  1  0  0  3  0  0  0  0  0  0
  186.0310  177.3000  141.2670 C   0  0  0  0  0  0  0  0  0  0  0  0
  187.9160  176.1440  142.2520 C   0  0  0  0  0  0  0  0  0  0  0  0
  184.0890  178.8010  146.3600 C   0  0  0  0  0  3  0  0  0  0  0  0
  191.5460  174.6950  144.3110 C   0  0  0  0  0  3  0  0  0  0  0  0
  191.6110  175.1880  142.0930 C   0  0  0  0  0  3  0  0  0  0  0  0
  183.5310  179.0640  143.7610 Cl  0  0  0  0  0  0  0  0  0  0  0  0
  187.6160  176.5990  145.9720 C   0  0  0  0  0  0  0  0  0  0  0  0
  184.7890  178.4030  147.4930 C   0  0  0  0  0  3  0  0  0  0  0  0
  185.7390  177.7120  144.9150 C   0  0  0  0  0  0  0  0  0  0  0  0
  188.1440  176.2470  144.7640 C   0  0  0  0  0  0  0  0  0  0  0  0
  189.5270  173.9920  146.8640 C   0  0  0  0  0  1  0  0  0  0  0  0
  189.3810  175.5680  144.9990 N   0  0  0  0  0  0  0  0  0  0  0  0
  192.2870  174.5810  143.0610 C   0  0  0  0  0  3  0  0  0  0  0  0
  188.7900  173.7910  142.2760 C   0  0  0  0  0  1  0  0  0  0  0  0
  185.9610  177.6680  147.3600 C   0  0  0  0  0  3  0  0  0  0  0  0
  186.4380  177.3240  146.0910 C   0  0  0  0  0  0  0  0  0  0  0  0
  189.1030  175.2590  141.9940 C   0  0  2  0  0  3  0  0  0  0  0  0
  185.2490  177.7450  140.0770 C   0  0  0  0  0  2  0  0  0  0  0  0
  182.7880  177.8510  140.2930 C   0  0  0  0  0  1  0  0  0  0  0  0
  184.0800  178.6050  140.5180 C   0  0  0  0  0  2  0  0  0  0  0  0
  1 19  1  0  0  0  0
  2 13  1  0  0  0  0
  4  1  1  0  0  0  0
  4 20  1  0  0  0  0
  5  1  2  0  0  0  0
  6  8  1  0  0  0  0
  7 15  1  6  0  0  0
  7  9  1  0  0  0  0
  8 11  2  0  0  0  0
  8 12  1  0  0  0  0
  9 14  2  0  0  0  0
  9 22  1  0  0  0  0
 10 21  1  6  0  0  0
 10  3  1  0  0  0  0
 11  5  1  0  0  0  0
 12  4  2  0  0  0  0
 13 18  2  0  0  0  0
 15 23  2  0  0  0  0
 16  2  1  0  0  0  0
 17 26  1  0  0  0  0
 17  3  1  0  0  0  0
 19  2  2  0  0  0  0
 19 26  1  0  0  0  0
 20 22  1  0  0  0  0
 20 17  2  0  0  0  0
 22 10  1  0  0  0  0
 23 14  1  0  0  0  0
 25 18  1  0  0  0  0
 26 25  2  0  0  0  0
 27 12  1  0  0  0  0
 27 24  1  1  0  0  0
 27  7  1  0  0  0  0
 28 30  1  0  0  0  0
 28 11  1  0  0  0  0
 29 30  1  0  0  0  0
M  END
>  <MODEL>
1

>  <REMARK>
 VINA RESULT:      -8.7      0.000      0.000
  Name = 
  2 active torsions:
  status: ('A' for Active; 'I' for Inactive)
    1  A    between atoms: C_11  and  C_28
    2  A    between atoms: C_28  and  C_30
                            x       y       z     vdW  Elec       q    Type
                         _______ _______ _______ _____ _____    ______ ____

>  <TORSDO>
F 2

$$$$
=
 OpenBabel11112416213D

 30 35  0  0  1  0  0  0  0  0999 V2000
  188.3800  177.1630  145.9630 C   0  0  0  0  0  0  0  0  0  0  0  0
  186.5310  178.4170  147.1400 C   0  0  0  0  0  0  0  0  0  0  0  0
  186.0320  176.7960  142.5030 N   0  0  0  0  0  2  0  0  0  0  0  0
  188.8610  176.4960  144.7880 C   0  0  0  0  0  0  0  0  0  0  0  0
  189.1930  177.2510  147.0480 N   0  0  0  0  0  0  0  0  0  0  0  0
  192.2790  175.6270  145.9940 O   0  0  0  0  0  1  0  0  0  0  0  0
  190.0690  174.2140  143.0390 C   0  0  1  0  0  3  0  0  0  0  0  0
  190.9780  176.1240  145.9590 C   0  0  0  0  0  0  0  0  0  0  0  0
  189.0440  174.7150  142.1010 C   0  0  0  0  0  0  0  0  0  0  0  0
  186.9180  176.0340  141.6260 C   0  0  1  0  0  3  0  0  0  0  0  0
  190.4500  176.7560  147.0820 C   0  0  0  0  0  0  0  0  0  0  0  0
  190.1980  175.9950  144.7980 C   0  0  0  0  0  0  0  0  0  0  0  0
  185.2450  178.9650  147.0860 C   0  0  0  0  0  3  0  0  0  0  0  0
  189.1880  174.1920  140.8930 C   0  0  0  0  0  3  0  0  0  0  0  0
  190.8740  173.3280  142.1480 C   0  0  0  0  0  3  0  0  0  0  0  0
  187.3650  178.6340  148.6770 Cl  0  0  0  0  0  0  0  0  0  0  0  0
  186.7330  176.9830  143.7240 C   0  0  0  0  0  0  0  0  0  0  0  0
  184.4690  178.8640  145.9370 C   0  0  0  0  0  3  0  0  0  0  0  0
  187.0690  177.7400  146.0030 C   0  0  0  0  0  0  0  0  0  0  0  0
  187.9670  176.4020  143.6890 C   0  0  0  0  0  0  0  0  0  0  0  0
  187.2780  176.8790  140.4170 C   0  0  0  0  0  1  0  0  0  0  0  0
  188.1200  175.7570  142.4210 N   0  0  0  0  0  0  0  0  0  0  0  0
  190.3440  173.3070  140.9310 C   0  0  0  0  0  3  0  0  0  0  0  0
  191.3540  176.4100  142.6090 C   0  0  0  0  0  1  0  0  0  0  0  0
  184.9690  178.2060  144.8200 C   0  0  0  0  0  3  0  0  0  0  0  0
  186.2500  177.6480  144.8430 C   0  0  0  0  0  0  0  0  0  0  0  0
  190.8810  175.3650  143.6170 C   0  0  2  0  0  3  0  0  0  0  0  0
  191.2510  176.8880  148.3340 C   0  0  0  0  0  2  0  0  0  0  0  0
  191.5460  178.2140  150.4000 C   0  0  0  0  0  1  0  0  0  0  0  0
  190.9270  178.2010  149.0200 C   0  0  0  0  0  2  0  0  0  0  0  0
  1 19  1  0  0  0  0
  1  5  1  0  0  0  0
  2 16  1  0  0  0  0
  3 17  1  0  0  0  0
  4 12  1  0  0  0  0
  4  1  2  0  0  0  0
  5 11  2  0  0  0  0
  7 15  1  6  0  0  0
  7 27  1  0  0  0  0
  8  6  1  0  0  0  0
  8 11  1  0  0  0  0
  9 22  1  0  0  0  0
  9  7  1  0  0  0  0
 10 21  1  6  0  0  0
 10 22  1  0  0  0  0
 10  3  1  0  0  0  0
 11 28  1  0  0  0  0
 12  8  2  0  0  0  0
 13  2  1  0  0  0  0
 14 23  1  0  0  0  0
 14  9  2  0  0  0  0
 17 26  1  0  0  0  0
 18 13  2  0  0  0  0
 19  2  2  0  0  0  0
 20 17  2  0  0  0  0
 20  4  1  0  0  0  0
 22 20  1  0  0  0  0
 23 15  2  0  0  0  0
 25 26  2  0  0  0  0
 25 18  1  0  0  0  0
 26 19  1  0  0  0  0
 27 24  1  6  0  0  0
 27 12  1  0  0  0  0
 28 30  1  0  0  0  0
 30 29  1  0  0  0  0
M  END
>  <MODEL>
2

>  <REMARK>
 VINA RESULT:      -8.1      2.515      5.371
  Name = 
  2 active torsions:
  status: ('A' for Active; 'I' for Inactive)
    1  A    between atoms: C_11  and  C_28
    2  A    between atoms: C_28  and  C_30
                            x       y       z     vdW  Elec       q    Type
                         _______ _______ _______ _____ _____    ______ ____

>  <TORSDO>
F 2

$$$$
=
 OpenBabel11112416213D

 30 35  0  0  1  0  0  0  0  0999 V2000
  187.9570  175.7720  141.6220 C   0  0  0  0  0  0  0  0  0  0  0  0
  189.6470  174.0100  140.9770 C   0  0  0  0  0  0  0  0  0  0  0  0
  189.0490  175.4460  145.6630 N   0  0  0  0  0  2  0  0  0  0  0  0
  187.3350  176.5660  142.6420 C   0  0  0  0  0  0  0  0  0  0  0  0
  187.5610  175.9290  140.3330 N   0  0  0  0  0  0  0  0  0  0  0  0
  185.0320  178.5480  140.4830 O   0  0  0  0  0  1  0  0  0  0  0  0
  185.0450  177.7980  144.3630 C   0  0  1  0  0  3  0  0  0  0  0  0
  185.9970  177.6290  140.8900 C   0  0  0  0  0  0  0  0  0  0  0  0
  186.0390  177.5560  145.4290 C   0  0  0  0  0  0  0  0  0  0  0  0
  188.1380  176.4010  146.2910 C   0  0  1  0  0  3  0  0  0  0  0  0
  186.6140  176.8130  139.9450 C   0  0  0  0  0  0  0  0  0  0  0  0
  186.3550  177.5250  142.2440 C   0  0  0  0  0  0  0  0  0  0  0  0
  190.6560  173.1280  141.3770 C   0  0  0  0  0  3  0  0  0  0  0  0
  185.6840  178.1280  146.5690 C   0  0  0  0  0  3  0  0  0  0  0  0
  184.0550  178.6600  145.0750 C   0  0  0  0  0  3  0  0  0  0  0  0
  189.2930  173.9980  139.2510 Cl  0  0  0  0  0  0  0  0  0  0  0  0
  188.7660  175.4720  144.2710 C   0  0  0  0  0  0  0  0  0  0  0  0
  191.0370  173.0290  142.7110 C   0  0  0  0  0  3  0  0  0  0  0  0
  188.9890  174.8300  141.9430 C   0  0  0  0  0  0  0  0  0  0  0  0
  187.7600  176.3460  143.9790 C   0  0  0  0  0  0  0  0  0  0  0  0
  188.9420  177.5290  146.9140 C   0  0  0  0  0  1  0  0  0  0  0  0
  187.3000  176.9220  145.2050 N   0  0  0  0  0  0  0  0  0  0  0  0
  184.4220  178.8180  146.3420 C   0  0  0  0  0  3  0  0  0  0  0  0
  186.6010  179.6760  143.5160 C   0  0  0  0  0  1  0  0  0  0  0  0
  190.4070  173.8120  143.6700 C   0  0  0  0  0  3  0  0  0  0  0  0
  189.3950  174.7040  143.3010 C   0  0  0  0  0  0  0  0  0  0  0  0
  185.6890  178.4990  143.1750 C   0  0  2  0  0  3  0  0  0  0  0  0
  186.2370  176.8900  138.5030 C   0  0  0  0  0  2  0  0  0  0  0  0
  186.7460  176.0640  136.2290 C   0  0  0  0  0  1  0  0  0  0  0  0
  187.0580  175.9000  137.7000 C   0  0  0  0  0  2  0  0  0  0  0  0
  1 19  2  0  0  0  0
  1  4  1  0  0  0  0
  2 13  2  0  0  0  0
  2 19  1  0  0  0  0
  3 10  1  0  0  0  0
  4 20  2  0  0  0  0
  5  1  1  0  0  0  0
  6  8  1  0  0  0  0
  7 15  1  1  0  0  0
  7  9  1  0  0  0  0
  8 12  2  0  0  0  0
  9 14  2  0  0  0  0
 10 21  1  6  0  0  0
 11  5  2  0  0  0  0
 11  8  1  0  0  0  0
 12  4  1  0  0  0  0
 12 27  1  0  0  0  0
 13 18  1  0  0  0  0
 15 23  2  0  0  0  0
 16  2  1  0  0  0  0
 17  3  1  0  0  0  0
 18 25  2  0  0  0  0
 19 26  1  0  0  0  0
 20 17  1  0  0  0  0
 20 22  1  0  0  0  0
 22  9  1  0  0  0  0
 22 10  1  0  0  0  0
 23 14  1  0  0  0  0
 26 25  1  0  0  0  0
 26 17  2  0  0  0  0
 27 24  1  1  0  0  0
 27  7  1  0  0  0  0
 28 11  1  0  0  0  0
 29 30  1  0  0  0  0
 30 28  1  0  0  0  0
M  END
>  <MODEL>
3

>  <REMARK>
 VINA RESULT:      -7.9      2.459      5.527
  Name = 
  2 active torsions:
  status: ('A' for Active; 'I' for Inactive)
    1  A    between atoms: C_11  and  C_28
    2  A    between atoms: C_28  and  C_30
                            x       y       z     vdW  Elec       q    Type
                         _______ _______ _______ _____ _____    ______ ____

>  <TORSDO>
F 2

$$$$
=
 OpenBabel11112416213D

 30 35  0  0  1  0  0  0  0  0999 V2000
  188.2830  175.7410  141.7910 C   0  0  0  0  0  0  0  0  0  0  0  0
  186.5880  176.9380  140.3520 C   0  0  0  0  0  0  0  0  0  0  0  0
  187.0360  177.8900  145.1760 N   0  0  0  0  0  2  0  0  0  0  0  0
  188.8800  175.5390  143.0800 C   0  0  0  0  0  0  0  0  0  0  0  0
  188.7290  175.0100  140.7380 N   0  0  0  0  0  0  0  0  0  0  0  0
  191.2950  172.8520  142.1650 O   0  0  0  0  0  1  0  0  0  0  0  0
  191.1250  175.3340  145.2340 C   0  0  1  0  0  3  0  0  0  0  0  0
  190.2990  173.8220  142.0670 C   0  0  0  0  0  0  0  0  0  0  0  0
  190.0880  176.0160  146.0360 C   0  0  0  0  0  0  0  0  0  0  0  0
  187.9390  177.3720  146.2020 C   0  0  1  0  0  3  0  0  0  0  0  0
  189.7050  174.0790  140.8340 C   0  0  0  0  0  0  0  0  0  0  0  0
  189.8900  174.5380  143.2040 C   0  0  0  0  0  0  0  0  0  0  0  0
  185.5500  177.8710  140.2650 C   0  0  0  0  0  3  0  0  0  0  0  0
  190.4100  176.0580  147.3190 C   0  0  0  0  0  3  0  0  0  0  0  0
  192.1020  174.9410  146.2920 C   0  0  0  0  0  3  0  0  0  0  0  0
  187.0050  176.1500  138.8320 Cl  0  0  0  0  0  0  0  0  0  0  0  0
  187.3710  177.2230  143.9670 C   0  0  0  0  0  0  0  0  0  0  0  0
  185.1190  178.5730  141.3860 C   0  0  0  0  0  3  0  0  0  0  0  0
  187.2240  176.6890  141.6060 C   0  0  0  0  0  0  0  0  0  0  0  0
  188.4020  176.3470  144.1460 C   0  0  0  0  0  0  0  0  0  0  0  0
  187.1320  176.6430  147.2610 C   0  0  0  0  0  1  0  0  0  0  0  0
  188.8250  176.4290  145.5090 N   0  0  0  0  0  0  0  0  0  0  0  0
  191.6920  175.3830  147.4750 C   0  0  0  0  0  3  0  0  0  0  0  0
  189.6340  173.2300  145.3310 C   0  0  0  0  0  1  0  0  0  0  0  0
  185.7260  178.3520  142.6160 C   0  0  0  0  0  3  0  0  0  0  0  0
  186.7660  177.4250  142.7340 C   0  0  0  0  0  0  0  0  0  0  0  0
  190.5380  174.1370  144.4990 C   0  0  2  0  0  3  0  0  0  0  0  0
  190.1360  173.3460  139.6080 C   0  0  0  0  0  2  0  0  0  0  0  0
  188.8570  173.2590  137.4940 C   0  0  0  0  0  1  0  0  0  0  0  0
  188.9300  172.7440  138.9140 C   0  0  0  0  0  2  0  0  0  0  0  0
  1  4  1  0  0  0  0
  2 19  1  0  0  0  0
  3 10  1  0  0  0  0
  4 12  1  0  0  0  0
  4 20  2  0  0  0  0
  5 11  2  0  0  0  0
  5  1  1  0  0  0  0
  7  9  1  0  0  0  0
  7 15  1  1  0  0  0
  8  6  1  0  0  0  0
  8 12  2  0  0  0  0
  9 14  2  0  0  0  0
 10 21  1  1  0  0  0
 11  8  1  0  0  0  0
 12 27  1  0  0  0  0
 13  2  2  0  0  0  0
 13 18  1  0  0  0  0
 14 23  1  0  0  0  0
 15 23  2  0  0  0  0
 16  2  1  0  0  0  0
 17 20  1  0  0  0  0
 17  3  1  0  0  0  0
 18 25  2  0  0  0  0
 19  1  2  0  0  0  0
 19 26  1  0  0  0  0
 20 22  1  0  0  0  0
 22  9  1  0  0  0  0
 22 10  1  0  0  0  0
 25 26  1  0  0  0  0
 26 17  2  0  0  0  0
 27  7  1  0  0  0  0
 27 24  1  1  0  0  0
 28 11  1  0  0  0  0
 29 30  1  0  0  0  0
 30 28  1  0  0  0  0
M  END
>  <MODEL>
4

>  <REMARK>
 VINA RESULT:      -7.8      2.489      4.466
  Name = 
  2 active torsions:
  status: ('A' for Active; 'I' for Inactive)
    1  A    between atoms: C_11  and  C_28
    2  A    between atoms: C_28  and  C_30
                            x       y       z     vdW  Elec       q    Type
                         _______ _______ _______ _____ _____    ______ ____

>  <TORSDO>
F 2

$$$$
=
 OpenBabel11112416213D

 30 35  0  0  1  0  0  0  0  0999 V2000
  188.6280  176.1170  143.8570 C   0  0  0  0  0  0  0  0  0  0  0  0
  186.3260  177.0440  144.3220 C   0  0  0  0  0  0  0  0  0  0  0  0
  189.9520  177.2910  147.6650 N   0  0  0  0  0  2  0  0  0  0  0  0
  189.9700  175.8730  144.3020 C   0  0  0  0  0  0  0  0  0  0  0  0
  188.2630  175.7070  142.6150 N   0  0  0  0  0  0  0  0  0  0  0  0
  191.2470  174.0950  141.2860 O   0  0  0  0  0  1  0  0  0  0  0  0
  193.0880  175.9190  144.2690 C   0  0  1  0  0  3  0  0  0  0  0  0
  190.3990  174.7730  142.1580 C   0  0  0  0  0  0  0  0  0  0  0  0
  192.8620  176.1680  145.7080 C   0  0  0  0  0  0  0  0  0  0  0  0
  191.3500  176.8690  147.6330 C   0  0  1  0  0  3  0  0  0  0  0  0
  189.0940  175.0610  141.7670 C   0  0  0  0  0  0  0  0  0  0  0  0
  190.8500  175.1650  143.4290 C   0  0  0  0  0  0  0  0  0  0  0  0
  185.4570  177.6750  145.2190 C   0  0  0  0  0  3  0  0  0  0  0  0
  193.9870  176.0850  146.4010 C   0  0  0  0  0  3  0  0  0  0  0  0
  194.5530  175.6300  144.2480 C   0  0  0  0  0  3  0  0  0  0  0  0
  185.6170  176.6480  142.7580 Cl  0  0  0  0  0  0  0  0  0  0  0  0
  189.3930  176.9380  146.4070 C   0  0  0  0  0  0  0  0  0  0  0  0
  185.8830  178.0490  146.4880 C   0  0  0  0  0  3  0  0  0  0  0  0
  187.6750  176.7720  144.7040 C   0  0  0  0  0  0  0  0  0  0  0  0
  190.3160  176.3460  145.5960 C   0  0  0  0  0  0  0  0  0  0  0  0
  191.5760  175.7940  148.6800 C   0  0  0  0  0  1  0  0  0  0  0  0
  191.5660  176.3150  146.2910 N   0  0  0  0  0  0  0  0  0  0  0  0
  195.0560  175.7530  145.4700 C   0  0  0  0  0  3  0  0  0  0  0  0
  192.2590  173.5100  144.6860 C   0  0  0  0  0  1  0  0  0  0  0  0
  187.1920  177.8000  146.8810 C   0  0  0  0  0  3  0  0  0  0  0  0
  188.0840  177.1710  146.0060 C   0  0  0  0  0  0  0  0  0  0  0  0
  192.2480  174.7440  143.7860 C   0  0  2  0  0  3  0  0  0  0  0  0
  188.5970  174.6740  140.4140 C   0  0  0  0  0  2  0  0  0  0  0  0
  188.2670  172.6930  138.9720 C   0  0  0  0  0  1  0  0  0  0  0  0
  188.2380  173.2010  140.3960 C   0  0  0  0  0  2  0  0  0  0  0  0
  1  4  1  0  0  0  0
  1 19  1  0  0  0  0
  2 19  2  0  0  0  0
  2 13  1  0  0  0  0
  4 20  1  0  0  0  0
  5  1  2  0  0  0  0
  6  8  1  0  0  0  0
  7 15  1  1  0  0  0
  7  9  1  0  0  0  0
  8 12  1  0  0  0  0
  9 22  1  0  0  0  0
  9 14  2  0  0  0  0
 10  3  1  0  0  0  0
 10 21  1  1  0  0  0
 11  8  2  0  0  0  0
 11  5  1  0  0  0  0
 12 27  1  0  0  0  0
 12  4  2  0  0  0  0
 13 18  2  0  0  0  0
 15 23  2  0  0  0  0
 16  2  1  0  0  0  0
 17  3  1  0  0  0  0
 18 25  1  0  0  0  0
 19 26  1  0  0  0  0
 20 22  1  0  0  0  0
 20 17  2  0  0  0  0
 22 10  1  0  0  0  0
 23 14  1  0  0  0  0
 26 17  1  0  0  0  0
 26 25  2  0  0  0  0
 27  7  1  0  0  0  0
 27 24  1  1  0  0  0
 28 11  1  0  0  0  0
 29 30  1  0  0  0  0
 30 28  1  0  0  0  0
M  END
>  <MODEL>
5

>  <REMARK>
 VINA RESULT:      -7.8      2.389      3.520
  Name = 
  2 active torsions:
  status: ('A' for Active; 'I' for Inactive)
    1  A    between atoms: C_11  and  C_28
    2  A    between atoms: C_28  and  C_30
                            x       y       z     vdW  Elec       q    Type
                         _______ _______ _______ _____ _____    ______ ____

>  <TORSDO>
F 2

$$$$
=
 OpenBabel11112416213D

 30 35  0  0  1  0  0  0  0  0999 V2000
  187.7480  176.3000  142.2990 C   0  0  0  0  0  0  0  0  0  0  0  0
  185.9650  178.0870  142.3810 C   0  0  0  0  0  0  0  0  0  0  0  0
  188.6610  176.9220  146.3500 N   0  0  0  0  0  2  0  0  0  0  0  0
  188.7660  175.5460  142.9710 C   0  0  0  0  0  0  0  0  0  0  0  0
  187.4980  176.0470  140.9890 N   0  0  0  0  0  0  0  0  0  0  0  0
  189.7870  173.3390  140.1460 O   0  0  0  0  0  1  0  0  0  0  0  0
  191.5840  174.3290  143.5230 C   0  0  1  0  0  3  0  0  0  0  0  0
  189.1280  174.3210  140.8830 C   0  0  0  0  0  0  0  0  0  0  0  0
  191.2010  174.6790  144.9070 C   0  0  0  0  0  0  0  0  0  0  0  0
  189.7520  175.9710  146.5540 C   0  0  1  0  0  3  0  0  0  0  0  0
  188.1490  175.1020  140.2740 C   0  0  0  0  0  0  0  0  0  0  0  0
  189.4410  174.5240  142.2370 C   0  0  0  0  0  0  0  0  0  0  0  0
  185.2640  179.0330  143.1350 C   0  0  0  0  0  3  0  0  0  0  0  0
  192.0400  174.1640  145.7920 C   0  0  0  0  0  3  0  0  0  0  0  0
  192.7840  173.4740  143.7580 C   0  0  0  0  0  3  0  0  0  0  0  0
  185.4760  177.9770  140.6910 Cl  0  0  0  0  0  0  0  0  0  0  0  0
  188.2650  176.7980  144.9910 C   0  0  0  0  0  0  0  0  0  0  0  0
  185.5480  179.2310  144.4820 C   0  0  0  0  0  3  0  0  0  0  0  0
  186.9910  177.3020  142.9900 C   0  0  0  0  0  0  0  0  0  0  0  0
  189.0130  175.8660  144.3330 C   0  0  0  0  0  0  0  0  0  0  0  0
  189.3210  174.9190  147.5600 C   0  0  0  0  0  1  0  0  0  0  0  0
  189.9850  175.3490  145.2450 N   0  0  0  0  0  0  0  0  0  0  0  0
  193.0470  173.4100  145.0580 C   0  0  0  0  0  3  0  0  0  0  0  0
  189.7980  172.4690  143.6350 C   0  0  0  0  0  1  0  0  0  0  0  0
  186.5450  178.4830  145.0960 C   0  0  0  0  0  3  0  0  0  0  0  0
  187.2630  177.5300  144.3680 C   0  0  0  0  0  0  0  0  0  0  0  0
  190.4560  173.5840  142.8230 C   0  0  2  0  0  3  0  0  0  0  0  0
  187.8130  174.9200  138.8310 C   0  0  0  0  0  2  0  0  0  0  0  0
  186.7230  175.9340  136.8570 C   0  0  0  0  0  1  0  0  0  0  0  0
  187.0660  176.1350  138.3170 C   0  0  0  0  0  2  0  0  0  0  0  0
  1  4  1  0  0  0  0
  1 19  1  0  0  0  0
  2 19  2  0  0  0  0
  2 13  1  0  0  0  0
  3 10  1  0  0  0  0
  4 20  1  0  0  0  0
  5  1  2  0  0  0  0
  6  8  1  0  0  0  0
  7 15  1  1  0  0  0
  7  9  1  0  0  0  0
  8 12  1  0  0  0  0
  9 22  1  0  0  0  0
  9 14  2  0  0  0  0
 10 21  1  1  0  0  0
 11  8  2  0  0  0  0
 11  5  1  0  0  0  0
 12 27  1  0  0  0  0
 12  4  2  0  0  0  0
 13 18  2  0  0  0  0
 15 23  2  0  0  0  0
 16  2  1  0  0  0  0
 17  3  1  0  0  0  0
 18 25  1  0  0  0  0
 19 26  1  0  0  0  0
 20 17  2  0  0  0  0
 20 22  1  0  0  0  0
 22 10  1  0  0  0  0
 23 14  1  0  0  0  0
 26 17  1  0  0  0  0
 26 25  2  0  0  0  0
 27  7  1  0  0  0  0
 27 24  1  1  0  0  0
 28 11  1  0  0  0  0
 29 30  1  0  0  0  0
 30 28  1  0  0  0  0
M  END
>  <MODEL>
6

>  <REMARK>
 VINA RESULT:      -7.7      1.921      2.703
  Name = 
  2 active torsions:
  status: ('A' for Active; 'I' for Inactive)
    1  A    between atoms: C_11  and  C_28
    2  A    between atoms: C_28  and  C_30
                            x       y       z     vdW  Elec       q    Type
                         _______ _______ _______ _____ _____    ______ ____

>  <TORSDO>
F 2

$$$$
=
 OpenBabel11112416213D

 30 35  0  0  1  0  0  0  0  0999 V2000
  188.0380  175.5690  140.8260 C   0  0  0  0  0  0  0  0  0  0  0  0
  188.1180  174.4450  138.5650 C   0  0  0  0  0  0  0  0  0  0  0  0
  190.7430  172.7690  142.3960 N   0  0  0  0  0  2  0  0  0  0  0  0
  188.4760  175.6210  142.1900 C   0  0  0  0  0  0  0  0  0  0  0  0
  187.1650  176.5080  140.3790 N   0  0  0  0  0  0  0  0  0  0  0  0
  186.6220  178.6720  143.2600 O   0  0  0  0  0  1  0  0  0  0  0  0
  188.2670  175.7150  145.3010 C   0  0  1  0  0  3  0  0  0  0  0  0
  187.1040  177.6280  142.4740 C   0  0  0  0  0  0  0  0  0  0  0  0
  189.4200  174.8000  145.1680 C   0  0  0  0  0  0  0  0  0  0  0  0
  190.8470  173.2080  143.7860 C   0  0  1  0  0  3  0  0  0  0  0  0
  186.6900  177.5130  141.1490 C   0  0  0  0  0  0  0  0  0  0  0  0
  188.0070  176.6940  143.0080 C   0  0  0  0  0  0  0  0  0  0  0  0
  188.6450  173.4300  137.7610 C   0  0  0  0  0  3  0  0  0  0  0  0
  190.0100  174.5840  146.3330 C   0  0  0  0  0  3  0  0  0  0  0  0
  188.3130  176.0350  146.7580 C   0  0  0  0  0  3  0  0  0  0  0  0
  186.9740  175.5140  137.7570 Cl  0  0  0  0  0  0  0  0  0  0  0  0
  189.8390  173.6580  141.7570 C   0  0  0  0  0  0  0  0  0  0  0  0
  189.5560  172.5110  138.2690 C   0  0  0  0  0  3  0  0  0  0  0  0
  188.5140  174.5530  139.9340 C   0  0  0  0  0  0  0  0  0  0  0  0
  189.3660  174.6010  142.6210 C   0  0  0  0  0  0  0  0  0  0  0  0
  192.2680  173.6580  144.0680 C   0  0  0  0  0  1  0  0  0  0  0  0
  189.9260  174.3430  143.9120 N   0  0  0  0  0  0  0  0  0  0  0  0
  189.2990  175.3620  147.3390 C   0  0  0  0  0  3  0  0  0  0  0  0
  189.8300  177.5980  144.4780 C   0  0  0  0  0  1  0  0  0  0  0  0
  189.9530  172.5920  139.5980 C   0  0  0  0  0  3  0  0  0  0  0  0
  189.4430  173.5960  140.4270 C   0  0  0  0  0  0  0  0  0  0  0  0
  188.4500  176.9450  144.4210 C   0  0  2  0  0  3  0  0  0  0  0  0
  185.7160  178.4800  140.5640 C   0  0  0  0  0  2  0  0  0  0  0  0
  183.5100  178.1870  141.6430 C   0  0  0  0  0  1  0  0  0  0  0  0
  184.3520  177.8290  140.4380 C   0  0  0  0  0  2  0  0  0  0  0  0
  1  4  1  0  0  0  0
  2 19  1  0  0  0  0
  3 10  1  0  0  0  0
  4 20  1  0  0  0  0
  4 12  2  0  0  0  0
  5  1  2  0  0  0  0
  5 11  1  0  0  0  0
  7 15  1  1  0  0  0
  8 12  1  0  0  0  0
  8  6  1  0  0  0  0
  9  7  1  0  0  0  0
  9 14  2  0  0  0  0
 10 22  1  0  0  0  0
 10 21  1  6  0  0  0
 11  8  2  0  0  0  0
 12 27  1  0  0  0  0
 13 18  1  0  0  0  0
 13  2  2  0  0  0  0
 14 23  1  0  0  0  0
 15 23  2  0  0  0  0
 16  2  1  0  0  0  0
 17  3  1  0  0  0  0
 17 20  2  0  0  0  0
 18 25  2  0  0  0  0
 19 26  2  0  0  0  0
 19  1  1  0  0  0  0
 20 22  1  0  0  0  0
 22  9  1  0  0  0  0
 25 26  1  0  0  0  0
 26 17  1  0  0  0  0
 27 24  1  6  0  0  0
 27  7  1  0  0  0  0
 28 11  1  0  0  0  0
 30 28  1  0  0  0  0
 30 29  1  0  0  0  0
M  END
>  <MODEL>
7

>  <REMARK>
 VINA RESULT:      -7.7      2.653      5.395
  Name = 
  2 active torsions:
  status: ('A' for Active; 'I' for Inactive)
    1  A    between atoms: C_11  and  C_28
    2  A    between atoms: C_28  and  C_30
                            x       y       z     vdW  Elec       q    Type
                         _______ _______ _______ _____ _____    ______ ____

>  <TORSDO>
F 2

$$$$
=
 OpenBabel11112416213D

 30 35  0  0  1  0  0  0  0  0999 V2000
  187.7450  176.6370  143.6550 C   0  0  0  0  0  0  0  0  0  0  0  0
  186.0870  178.1580  142.5070 C   0  0  0  0  0  0  0  0  0  0  0  0
  188.5600  174.6710  140.0360 N   0  0  0  0  0  2  0  0  0  0  0  0
  188.6890  175.5610  143.5730 C   0  0  0  0  0  0  0  0  0  0  0  0
  187.5310  177.2350  144.8560 N   0  0  0  0  0  0  0  0  0  0  0  0
  189.7940  175.5110  147.1330 O   0  0  0  0  0  1  0  0  0  0  0  0
  190.0350  172.8280  144.2410 C   0  0  1  0  0  3  0  0  0  0  0  0
  189.1230  175.8620  145.9630 C   0  0  0  0  0  0  0  0  0  0  0  0
  190.1810  172.8110  142.7710 C   0  0  0  0  0  0  0  0  0  0  0  0
  189.5280  173.6620  140.4620 C   0  0  1  0  0  3  0  0  0  0  0  0
  188.1750  176.8820  145.9910 C   0  0  0  0  0  0  0  0  0  0  0  0
  189.3990  175.1970  144.7570 C   0  0  0  0  0  0  0  0  0  0  0  0
  185.4550  178.5480  141.3220 C   0  0  0  0  0  3  0  0  0  0  0  0
  190.9720  171.8300  142.3690 C   0  0  0  0  0  3  0  0  0  0  0  0
  190.9240  171.6960  144.6370 C   0  0  0  0  0  3  0  0  0  0  0  0
  185.6070  179.0680  143.9380 Cl  0  0  0  0  0  0  0  0  0  0  0  0
  188.2070  175.4090  141.1980 C   0  0  0  0  0  0  0  0  0  0  0  0
  185.7340  177.9150  140.1160 C   0  0  0  0  0  3  0  0  0  0  0  0
  187.0390  177.0930  142.4940 C   0  0  0  0  0  0  0  0  0  0  0  0
  188.8590  174.9470  142.3040 C   0  0  0  0  0  0  0  0  0  0  0  0
  190.8600  173.9240  139.7830 C   0  0  0  0  0  1  0  0  0  0  0  0
  189.6630  173.8300  141.9130 N   0  0  0  0  0  0  0  0  0  0  0  0
  191.4330  171.1200  143.5550 C   0  0  0  0  0  3  0  0  0  0  0  0
  191.8110  174.7000  144.2690 C   0  0  0  0  0  1  0  0  0  0  0  0
  186.6520  176.8720  140.0790 C   0  0  0  0  0  3  0  0  0  0  0  0
  187.3010  176.4590  141.2470 C   0  0  0  0  0  0  0  0  0  0  0  0
  190.4890  174.1640  144.8140 C   0  0  2  0  0  3  0  0  0  0  0  0
  187.8480  177.5890  147.2630 C   0  0  0  0  0  2  0  0  0  0  0  0
  185.9410  179.1190  147.6370 C   0  0  0  0  0  1  0  0  0  0  0  0
  186.3440  177.6740  147.4370 C   0  0  0  0  0  2  0  0  0  0  0  0
  1  5  2  0  0  0  0
  2 16  1  0  0  0  0
  3 10  1  0  0  0  0
  3 17  1  0  0  0  0
  4  1  1  0  0  0  0
  4 12  2  0  0  0  0
  5 11  1  0  0  0  0
  7 15  1  1  0  0  0
  7 27  1  0  0  0  0
  8 11  2  0  0  0  0
  8  6  1  0  0  0  0
  9  7  1  0  0  0  0
 10 21  1  6  0  0  0
 10 22  1  0  0  0  0
 11 28  1  0  0  0  0
 12 27  1  0  0  0  0
 12  8  1  0  0  0  0
 13  2  2  0  0  0  0
 14  9  2  0  0  0  0
 14 23  1  0  0  0  0
 17 26  1  0  0  0  0
 17 20  2  0  0  0  0
 18 13  1  0  0  0  0
 19  2  1  0  0  0  0
 19  1  1  0  0  0  0
 20  4  1  0  0  0  0
 22 20  1  0  0  0  0
 22  9  1  0  0  0  0
 23 15  2  0  0  0  0
 25 18  2  0  0  0  0
 25 26  1  0  0  0  0
 26 19  2  0  0  0  0
 27 24  1  6  0  0  0
 28 30  1  0  0  0  0
 30 29  1  0  0  0  0
M  END
>  <MODEL>
8

>  <REMARK>
 VINA RESULT:      -7.5      2.428      5.083
  Name = 
  2 active torsions:
  status: ('A' for Active; 'I' for Inactive)
    1  A    between atoms: C_11  and  C_28
    2  A    between atoms: C_28  and  C_30
                            x       y       z     vdW  Elec       q    Type
                         _______ _______ _______ _____ _____    ______ ____

>  <TORSDO>
F 2

$$$$
=
 OpenBabel11112416213D

 30 35  0  0  1  0  0  0  0  0999 V2000
  189.7830  175.8610  144.5730 C   0  0  0  0  0  0  0  0  0  0  0  0
  191.3290  176.5330  146.4530 C   0  0  0  0  0  0  0  0  0  0  0  0
  192.7690  173.4420  142.8820 N   0  0  0  0  0  2  0  0  0  0  0  0
  189.5600  175.1100  143.3710 C   0  0  0  0  0  0  0  0  0  0  0  0
  188.7730  176.6210  145.0710 N   0  0  0  0  0  0  0  0  0  0  0  0
  186.0010  176.0460  142.7770 O   0  0  0  0  0  1  0  0  0  0  0  0
  188.7860  174.5550  140.4020 C   0  0  1  0  0  3  0  0  0  0  0  0
  187.2690  175.9710  143.3510 C   0  0  0  0  0  0  0  0  0  0  0  0
  189.9580  173.6620  140.5130 C   0  0  0  0  0  0  0  0  0  0  0  0
  192.0930  172.9310  141.6910 C   0  0  1  0  0  3  0  0  0  0  0  0
  187.5490  176.7010  144.5030 C   0  0  0  0  0  0  0  0  0  0  0  0
  188.2630  175.1610  142.7770 C   0  0  0  0  0  0  0  0  0  0  0  0
  192.5840  176.4140  147.0600 C   0  0  0  0  0  3  0  0  0  0  0  0
  190.0660  172.8650  139.4620 C   0  0  0  0  0  3  0  0  0  0  0  0
  188.1960  174.1060  139.1060 C   0  0  0  0  0  3  0  0  0  0  0  0
  190.2060  177.6130  147.2760 Cl  0  0  0  0  0  0  0  0  0  0  0  0
  191.8380  174.2870  143.5440 C   0  0  0  0  0  0  0  0  0  0  0  0
  193.5710  175.6000  146.5170 C   0  0  0  0  0  3  0  0  0  0  0  0
  191.0430  175.8110  145.2540 C   0  0  0  0  0  0  0  0  0  0  0  0
  190.6530  174.3540  142.8710 C   0  0  0  0  0  0  0  0  0  0  0  0
  191.9480  171.4240  141.8010 C   0  0  0  0  0  1  0  0  0  0  0  0
  190.7690  173.5640  141.6850 N   0  0  0  0  0  0  0  0  0  0  0  0
  188.9530  173.1570  138.5690 C   0  0  0  0  0  3  0  0  0  0  0  0
  187.5410  172.9040  141.9470 C   0  0  0  0  0  1  0  0  0  0  0  0
  193.3180  174.8910  145.3480 C   0  0  0  0  0  3  0  0  0  0  0  0
  192.0740  174.9900  144.7180 C   0  0  0  0  0  0  0  0  0  0  0  0
  187.8420  174.3560  141.5800 C   0  0  2  0  0  3  0  0  0  0  0  0
  186.5170  177.5840  145.1200 C   0  0  0  0  0  2  0  0  0  0  0  0
  186.2180  177.1640  147.5380 C   0  0  0  0  0  1  0  0  0  0  0  0
  185.7230  176.8090  146.1530 C   0  0  0  0  0  2  0  0  0  0  0  0
  1  5  1  0  0  0  0
  1 19  1  0  0  0  0
  2 13  1  0  0  0  0
  2 16  1  0  0  0  0
  3 17  1  0  0  0  0
  4  1  2  0  0  0  0
  6  8  1  0  0  0  0
  7 15  1  6  0  0  0
  7  9  1  0  0  0  0
  7 27  1  0  0  0  0
  8 11  1  0  0  0  0
  9 22  1  0  0  0  0
 10 21  1  1  0  0  0
 10  3  1  0  0  0  0
 11  5  2  0  0  0  0
 11 28  1  0  0  0  0
 12  8  2  0  0  0  0
 12  4  1  0  0  0  0
 14  9  2  0  0  0  0
 17 26  1  0  0  0  0
 18 13  2  0  0  0  0
 19  2  2  0  0  0  0
 20  4  1  0  0  0  0
 20 17  2  0  0  0  0
 22 10  1  0  0  0  0
 22 20  1  0  0  0  0
 23 15  2  0  0  0  0
 23 14  1  0  0  0  0
 25 18  1  0  0  0  0
 26 19  1  0  0  0  0
 26 25  2  0  0  0  0
 27 24  1  1  0  0  0
 27 12  1  0  0  0  0
 28 30  1  0  0  0  0
 30 29  1  0  0  0  0
M  END
>  <MODEL>
9

>  <REMARK>
 VINA RESULT:      -7.5      2.751      5.484
  Name = 
  2 active torsions:
  status: ('A' for Active; 'I' for Inactive)
    1  A    between atoms: C_11  and  C_28
    2  A    between atoms: C_28  and  C_30
                            x       y       z     vdW  Elec       q    Type
                         _______ _______ _______ _____ _____    ______ ____

>  <TORSDO>
F 2

$$$$
