=
 OpenBabel11112416423D

 32 37  0  0  1  0  0  0  0  0999 V2000
  191.1840  171.2100  140.4880 C   0  0  0  0  0  2  0  0  0  0  0  0
  188.1020  175.5250  142.1540 C   0  0  2  0  0  3  0  0  0  0  0  0
  189.4520  175.9100  146.8880 C   0  0  0  0  0  2  0  0  0  0  0  0
  188.9630  177.3530  146.9240 C   0  0  0  0  0  2  0  0  0  0  0  0
  186.4220  177.1790  141.1480 C   0  0  1  0  0  3  0  0  0  0  0  0
  185.6520  178.4890  141.3770 C   0  0  1  0  0  3  0  0  0  0  0  0
  188.8350  173.5080  140.8020 C   0  0  2  0  0  3  0  0  0  0  0  0
  189.7220  173.9580  143.1510 C   0  0  0  0  0  2  0  0  0  0  0  0
  184.4410  178.2310  143.5200 C   0  0  2  0  0  3  0  0  0  0  0  0
  189.4890  171.5410  142.3680 C   0  0  0  0  0  2  0  0  0  0  0  0
  189.9310  175.5600  145.4820 C   0  0  0  0  0  2  0  0  0  0  0  0
  189.2220  175.3540  143.1110 N   0  0  2  0  0  0  0  0  0  0  0  0
  188.7870  175.7270  144.4680 C   0  0  2  0  0  3  0  0  0  0  0  0
  187.2090  177.4240  143.5000 C   0  0  1  0  0  3  0  0  0  0  0  0
  183.2820  178.2910  142.5500 C   0  0  0  0  0  2  0  0  0  0  0  0
  190.1540  171.8210  139.6470 N   0  0  0  0  0  2  0  0  0  0  0  0
  188.9680  172.9770  142.2440 C   0  0  2  0  0  3  0  0  0  0  0  0
  183.9250  178.2610  140.8420 S   0  0  0  0  0  0  0  0  0  0  0  0
  190.0650  173.2450  139.9400 C   0  0  0  0  0  2  0  0  0  0  0  0
  190.9670  171.4410  141.9900 C   0  0  1  0  0  3  0  0  0  0  0  0
  187.8410  177.5500  145.9110 C   0  0  0  0  0  2  0  0  0  0  0  0
  188.3280  177.1940  144.5050 C   0  0  1  0  0  3  0  0  0  0  0  0
  186.8430  178.7820  143.5020 O   0  0  0  0  0  0  0  0  0  0  0  0
  188.5320  175.0060  140.7780 C   0  0  0  0  0  2  0  0  0  0  0  0
  186.8630  177.1640  139.6930 C   0  0  0  0  0  1  0  0  0  0  0  0
  184.0750  178.9480  144.8040 C   0  0  0  0  0  1  0  0  0  0  0  0
  187.6320  176.9960  142.0920 C   0  0  1  0  0  3  0  0  0  0  0  0
  185.6060  178.9240  142.8370 C   0  0  1  0  0  3  0  0  0  0  0  0
  191.6050  170.3670  142.7370 N   0  0  0  0  0  2  0  0  0  0  0  0
  192.4300  170.6080  143.8790 C   0  0  0  0  0  0  0  0  0  0  0  0
  193.0030  169.5090  144.5770 N   0  0  0  0  0  1  0  0  0  0  0  0
  192.6600  171.7840  144.2680 O   0  0  0  0  0  0  0  0  0  0  0  0
  1 20  1  0  0  0  0
  2 24  1  6  0  0  0
  2 12  1  0  0  0  0
  3  4  1  0  0  0  0
  5 25  1  6  0  0  0
  5  6  1  0  0  0  0
  5 27  1  0  0  0  0
  6 18  1  1  0  0  0
  6 28  1  0  0  0  0
  7 19  1  6  0  0  0
  7 17  1  0  0  0  0
  9 26  1  1  0  0  0
 11  3  1  0  0  0  0
 12  8  1  1  0  0  0
 12 13  1  0  0  0  0
 13 22  1  0  0  0  0
 13 11  1  1  0  0  0
 14 23  1  6  0  0  0
 14 22  1  0  0  0  0
 15  9  1  0  0  0  0
 16 19  1  0  0  0  0
 16  1  1  0  0  0  0
 17 10  1  6  0  0  0
 17  8  1  0  0  0  0
 18 15  1  0  0  0  0
 20 10  1  0  0  0  0
 20 29  1  1  0  0  0
 21  4  1  0  0  0  0
 22 21  1  1  0  0  0
 24  7  1  0  0  0  0
 27  2  1  0  0  0  0
 27 14  1  0  0  0  0
 28 23  1  0  0  0  0
 28  9  1  0  0  0  0
 29 30  1  0  0  0  0
 30 32  2  0  0  0  0
 30 31  1  0  0  0  0
M  END
>  <MODEL>
1

>  <REMARK>
 VINA RESULT:      -8.8      0.000      0.000
  Name = 
  1 active torsions:
  status: ('A' for Active; 'I' for Inactive)
    1  A    between atoms: C_20  and  N_29
                            x       y       z     vdW  Elec       q    Type
                         _______ _______ _______ _____ _____    ______ ____

>  <TORSDO>
F 1

$$$$
=
 OpenBabel11112416423D

 32 37  0  0  1  0  0  0  0  0999 V2000
  195.1730  175.2860  146.1330 C   0  0  0  0  0  2  0  0  0  0  0  0
  190.0250  176.0470  144.1800 C   0  0  2  0  0  3  0  0  0  0  0  0
  190.2880  173.7350  139.8260 C   0  0  0  0  0  2  0  0  0  0  0  0
  188.7700  173.6070  139.7860 C   0  0  0  0  0  2  0  0  0  0  0  0
  187.8250  177.1160  144.9480 C   0  0  1  0  0  3  0  0  0  0  0  0
  186.3220  177.2540  144.6580 C   0  0  1  0  0  3  0  0  0  0  0  0
  192.1420  176.4420  145.5200 C   0  0  2  0  0  3  0  0  0  0  0  0
  192.1200  174.9990  143.4170 C   0  0  0  0  0  2  0  0  0  0  0  0
  186.1230  178.0130  142.3110 C   0  0  2  0  0  3  0  0  0  0  0  0
  194.2370  176.3050  143.9880 C   0  0  0  0  0  2  0  0  0  0  0  0
  190.7730  173.7220  141.2720 C   0  0  0  0  0  2  0  0  0  0  0  0
  190.6390  174.9150  143.4460 N   0  0  2  0  0  0  0  0  0  0  0  0
  190.1510  174.8890  142.0570 C   0  0  2  0  0  3  0  0  0  0  0  0
  187.9530  175.8420  142.8100 C   0  0  1  0  0  3  0  0  0  0  0  0
  185.5940  179.2270  143.0430 C   0  0  0  0  0  2  0  0  0  0  0  0
  194.1900  176.1430  146.7990 N   0  0  0  0  0  2  0  0  0  0  0  0
  192.7090  176.2410  144.1000 C   0  0  2  0  0  3  0  0  0  0  0  0
  185.8430  179.0030  144.8380 S   0  0  0  0  0  0  0  0  0  0  0  0
  192.8520  175.6110  146.5830 C   0  0  0  0  0  2  0  0  0  0  0  0
  194.9030  175.0900  144.6350 C   0  0  1  0  0  3  0  0  0  0  0  0
  188.1290  174.7420  140.5760 C   0  0  0  0  0  2  0  0  0  0  0  0
  188.6230  174.7240  142.0250 C   0  0  1  0  0  3  0  0  0  0  0  0
  186.5610  175.6430  142.8220 O   0  0  0  0  0  0  0  0  0  0  0  0
  190.6450  176.1370  145.5780 C   0  0  0  0  0  2  0  0  0  0  0  0
  187.9850  177.0160  146.4570 C   0  0  0  0  0  1  0  0  0  0  0  0
  185.3430  177.8070  141.0280 C   0  0  0  0  0  1  0  0  0  0  0  0
  188.4860  175.9100  144.2430 C   0  0  1  0  0  3  0  0  0  0  0  0
  185.9310  176.8330  143.2460 C   0  0  1  0  0  3  0  0  0  0  0  0
  196.1540  174.7850  143.9590 N   0  0  0  0  0  2  0  0  0  0  0  0
  196.2400  173.8440  142.8870 C   0  0  0  0  0  0  0  0  0  0  0  0
  197.4920  173.6110  142.2530 N   0  0  0  0  0  1  0  0  0  0  0  0
  195.2190  173.2140  142.5010 O   0  0  0  0  0  0  0  0  0  0  0  0
  1 16  1  0  0  0  0
  2 27  1  0  0  0  0
  2 24  1  1  0  0  0
  3 11  1  0  0  0  0
  4  3  1  0  0  0  0
  4 21  1  0  0  0  0
  5 25  1  1  0  0  0
  6 18  1  6  0  0  0
  6  5  1  0  0  0  0
  7 24  1  6  0  0  0
  7 19  1  0  0  0  0
  9 26  1  6  0  0  0
  9 15  1  0  0  0  0
  9 28  1  0  0  0  0
 10 17  1  0  0  0  0
 10 20  1  0  0  0  0
 12  8  1  6  0  0  0
 12  2  1  0  0  0  0
 13 11  1  6  0  0  0
 13 12  1  0  0  0  0
 14 23  1  1  0  0  0
 14 27  1  0  0  0  0
 15 18  1  0  0  0  0
 17  8  1  1  0  0  0
 17  7  1  0  0  0  0
 19 16  1  0  0  0  0
 20 29  1  6  0  0  0
 20  1  1  0  0  0  0
 22 21  1  6  0  0  0
 22 13  1  0  0  0  0
 22 14  1  0  0  0  0
 23 28  1  0  0  0  0
 27  5  1  0  0  0  0
 28  6  1  0  0  0  0
 30 29  1  0  0  0  0
 31 30  1  0  0  0  0
 32 30  2  0  0  0  0
M  END
>  <MODEL>
2

>  <REMARK>
 VINA RESULT:      -8.7      3.139      5.239
  Name = 
  1 active torsions:
  status: ('A' for Active; 'I' for Inactive)
    1  A    between atoms: C_20  and  N_29
                            x       y       z     vdW  Elec       q    Type
                         _______ _______ _______ _____ _____    ______ ____

>  <TORSDO>
F 1

$$$$
=
 OpenBabel11112416423D

 32 37  0  0  1  0  0  0  0  0999 V2000
  190.3790  171.4770  140.0260 C   0  0  0  0  0  2  0  0  0  0  0  0
  188.2500  175.5990  143.0880 C   0  0  2  0  0  3  0  0  0  0  0  0
  191.0000  175.2910  147.1760 C   0  0  0  0  0  2  0  0  0  0  0  0
  190.6440  176.7270  147.5410 C   0  0  0  0  0  2  0  0  0  0  0  0
  186.4590  177.4200  142.8660 C   0  0  1  0  0  3  0  0  0  0  0  0
  185.8850  178.7050  143.4830 C   0  0  1  0  0  3  0  0  0  0  0  0
  188.3980  173.7700  141.3360 C   0  0  2  0  0  3  0  0  0  0  0  0
  189.9870  173.8680  143.3290 C   0  0  0  0  0  2  0  0  0  0  0  0
  185.3710  178.1850  145.8470 C   0  0  2  0  0  3  0  0  0  0  0  0
  189.3630  171.5890  142.3660 C   0  0  0  0  0  2  0  0  0  0  0  0
  191.0040  175.1260  145.6590 C   0  0  0  0  0  2  0  0  0  0  0  0
  189.5930  175.2690  143.6200 N   0  0  2  0  0  0  0  0  0  0  0  0
  189.6190  175.4610  145.0800 C   0  0  2  0  0  3  0  0  0  0  0  0
  187.9400  177.3160  144.8680 C   0  0  1  0  0  3  0  0  0  0  0  0
  183.9780  178.4090  145.3010 C   0  0  0  0  0  2  0  0  0  0  0  0
  189.1850  172.2260  139.6290 N   0  0  0  0  0  2  0  0  0  0  0  0
  188.9270  173.0420  142.5880 C   0  0  2  0  0  3  0  0  0  0  0  0
  184.0660  178.5980  143.4880 S   0  0  0  0  0  0  0  0  0  0  0  0
  189.2860  173.5970  140.1090 C   0  0  0  0  0  2  0  0  0  0  0  0
  190.6460  171.5040  141.5370 C   0  0  1  0  0  3  0  0  0  0  0  0
  189.2830  177.0910  146.9590 C   0  0  0  0  0  2  0  0  0  0  0  0
  189.2930  176.9200  145.4380 C   0  0  1  0  0  3  0  0  0  0  0  0
  187.6840  178.6700  145.1520 O   0  0  0  0  0  0  0  0  0  0  0  0
  188.2040  175.2650  141.5930 C   0  0  0  0  0  2  0  0  0  0  0  0
  186.4330  177.5950  141.3560 C   0  0  0  0  0  1  0  0  0  0  0  0
  185.4630  178.7270  147.2590 C   0  0  0  0  0  1  0  0  0  0  0  0
  187.8830  177.0770  143.3560 C   0  0  1  0  0  3  0  0  0  0  0  0
  186.3170  178.9350  144.9270 C   0  0  1  0  0  3  0  0  0  0  0  0
  191.4060  170.3210  141.9100 N   0  0  0  0  0  2  0  0  0  0  0  0
  192.2930  170.2970  143.0310 C   0  0  0  0  0  0  0  0  0  0  0  0
  192.9880  169.0990  143.3530 N   0  0  0  0  0  1  0  0  0  0  0  0
  192.4700  171.3290  143.7310 O   0  0  0  0  0  0  0  0  0  0  0  0
  1 20  1  0  0  0  0
  2 24  1  6  0  0  0
  2 27  1  0  0  0  0
  2 12  1  0  0  0  0
  3  4  1  0  0  0  0
  5 25  1  6  0  0  0
  5 27  1  0  0  0  0
  5  6  1  0  0  0  0
  6 18  1  1  0  0  0
  6 28  1  0  0  0  0
  7 19  1  6  0  0  0
  7 24  1  0  0  0  0
  7 17  1  0  0  0  0
  9 26  1  1  0  0  0
 11  3  1  0  0  0  0
 12  8  1  1  0  0  0
 12 13  1  0  0  0  0
 13 22  1  0  0  0  0
 13 11  1  6  0  0  0
 14 23  1  6  0  0  0
 14 22  1  0  0  0  0
 15  9  1  0  0  0  0
 16  1  1  0  0  0  0
 16 19  1  0  0  0  0
 17 10  1  6  0  0  0
 17  8  1  0  0  0  0
 18 15  1  0  0  0  0
 20 29  1  1  0  0  0
 20 10  1  0  0  0  0
 21  4  1  0  0  0  0
 22 21  1  1  0  0  0
 27 14  1  0  0  0  0
 28 23  1  0  0  0  0
 28  9  1  0  0  0  0
 29 30  1  0  0  0  0
 30 31  1  0  0  0  0
 30 32  2  0  0  0  0
M  END
>  <MODEL>
3

>  <REMARK>
 VINA RESULT:      -8.4      1.229      1.547
  Name = 
  1 active torsions:
  status: ('A' for Active; 'I' for Inactive)
    1  A    between atoms: C_20  and  N_29
                            x       y       z     vdW  Elec       q    Type
                         _______ _______ _______ _____ _____    ______ ____

>  <TORSDO>
F 1

$$$$
=
 OpenBabel11112416423D

 32 37  0  0  1  0  0  0  0  0999 V2000
  185.9040  176.7240  143.6280 C   0  0  0  0  0  2  0  0  0  0  0  0
  191.1950  175.3580  142.6130 C   0  0  2  0  0  3  0  0  0  0  0  0
  193.3860  176.7910  146.7990 C   0  0  0  0  0  2  0  0  0  0  0  0
  194.5670  175.8710  146.5130 C   0  0  0  0  0  2  0  0  0  0  0  0
  192.5610  174.2430  140.7520 C   0  0  1  0  0  3  0  0  0  0  0  0
  193.9210  173.6310  140.3820 C   0  0  1  0  0  3  0  0  0  0  0  0
  188.7800  176.0010  142.1780 C   0  0  2  0  0  3  0  0  0  0  0  0
  189.9100  176.4230  144.4260 C   0  0  0  0  0  2  0  0  0  0  0  0
  195.6320  175.3380  140.9110 C   0  0  2  0  0  3  0  0  0  0  0  0
  188.0940  178.0350  143.6420 C   0  0  0  0  0  2  0  0  0  0  0  0
  192.1120  176.2030  146.2000 C   0  0  0  0  0  2  0  0  0  0  0  0
  191.0250  175.5080  144.0780 N   0  0  2  0  0  0  0  0  0  0  0  0
  192.2610  176.0380  144.6790 C   0  0  2  0  0  3  0  0  0  0  0  0
  193.6190  174.8670  142.9210 C   0  0  1  0  0  3  0  0  0  0  0  0
  195.7480  175.2850  139.4030 C   0  0  0  0  0  2  0  0  0  0  0  0
  186.3640  176.2490  142.3220 N   0  0  0  0  0  2  0  0  0  0  0  0
  189.1960  177.0560  143.2240 C   0  0  2  0  0  3  0  0  0  0  0  0
  194.4120  174.2350  138.7340 S   0  0  0  0  0  0  0  0  0  0  0  0
  187.4610  175.3090  142.5030 C   0  0  0  0  0  2  0  0  0  0  0  0
  187.0160  177.3480  144.4820 C   0  0  1  0  0  3  0  0  0  0  0  0
  194.7230  175.6740  145.0090 C   0  0  0  0  0  2  0  0  0  0  0  0
  193.4400  175.0870  144.4150 C   0  0  1  0  0  3  0  0  0  0  0  0
  194.6610  173.9490  142.6990 O   0  0  0  0  0  0  0  0  0  0  0  0
  189.8600  174.9350  141.9910 C   0  0  0  0  0  2  0  0  0  0  0  0
  191.4880  173.3830  140.1040 C   0  0  0  0  0  1  0  0  0  0  0  0
  197.0040  175.5360  141.5250 C   0  0  0  0  0  1  0  0  0  0  0  0
  192.3270  174.3610  142.2750 C   0  0  1  0  0  3  0  0  0  0  0  0
  195.0430  174.0070  141.3420 C   0  0  1  0  0  3  0  0  0  0  0  0
  186.4280  178.2960  145.4160 N   0  0  0  0  0  2  0  0  0  0  0  0
  186.1270  177.9550  146.7710 C   0  0  0  0  0  0  0  0  0  0  0  0
  185.5750  178.9380  147.6380 N   0  0  0  0  0  1  0  0  0  0  0  0
  186.3390  176.7910  147.2030 O   0  0  0  0  0  0  0  0  0  0  0  0
  1 20  1  0  0  0  0
  2 24  1  1  0  0  0
  2 12  1  0  0  0  0
  4  3  1  0  0  0  0
  5 25  1  1  0  0  0
  5 27  1  0  0  0  0
  6 18  1  6  0  0  0
  6  5  1  0  0  0  0
  6 28  1  0  0  0  0
  7 24  1  1  0  0  0
  7 19  1  0  0  0  0
  7 17  1  0  0  0  0
  9 28  1  0  0  0  0
  9 26  1  1  0  0  0
 10 20  1  0  0  0  0
 11  3  1  0  0  0  0
 12  8  1  6  0  0  0
 12 13  1  0  0  0  0
 13 11  1  1  0  0  0
 14 23  1  1  0  0  0
 14 22  1  0  0  0  0
 15  9  1  0  0  0  0
 16 19  1  0  0  0  0
 16  1  1  0  0  0  0
 17 10  1  1  0  0  0
 17  8  1  0  0  0  0
 18 15  1  0  0  0  0
 20 29  1  1  0  0  0
 21  4  1  0  0  0  0
 22 13  1  0  0  0  0
 22 21  1  6  0  0  0
 27  2  1  0  0  0  0
 27 14  1  0  0  0  0
 28 23  1  0  0  0  0
 29 30  1  0  0  0  0
 30 32  2  0  0  0  0
 30 31  1  0  0  0  0
M  END
>  <MODEL>
4

>  <REMARK>
 VINA RESULT:      -7.8      4.121      7.795
  Name = 
  1 active torsions:
  status: ('A' for Active; 'I' for Inactive)
    1  A    between atoms: C_20  and  N_29
                            x       y       z     vdW  Elec       q    Type
                         _______ _______ _______ _____ _____    ______ ____

>  <TORSDO>
F 1

$$$$
=
 OpenBabel11112416423D

 32 37  0  0  1  0  0  0  0  0999 V2000
  190.7080  171.3560  138.7740 C   0  0  0  0  0  2  0  0  0  0  0  0
  188.9610  175.1080  142.4840 C   0  0  2  0  0  3  0  0  0  0  0  0
  192.3020  174.5480  146.0760 C   0  0  0  0  0  2  0  0  0  0  0  0
  191.9690  175.9320  146.6210 C   0  0  0  0  0  2  0  0  0  0  0  0
  187.1120  176.8710  142.6990 C   0  0  1  0  0  3  0  0  0  0  0  0
  186.6060  178.0730  143.5100 C   0  0  1  0  0  3  0  0  0  0  0  0
  188.8900  173.4470  140.5680 C   0  0  2  0  0  3  0  0  0  0  0  0
  190.7580  173.4300  142.3060 C   0  0  0  0  0  2  0  0  0  0  0  0
  186.4660  177.3280  145.8650 C   0  0  2  0  0  3  0  0  0  0  0  0
  190.0540  171.2230  141.2370 C   0  0  0  0  0  2  0  0  0  0  0  0
  192.0820  174.5170  144.5670 C   0  0  0  0  0  2  0  0  0  0  0  0
  190.3780  174.7840  142.7800 N   0  0  2  0  0  0  0  0  0  0  0  0
  190.6180  174.8480  144.2320 C   0  0  2  0  0  3  0  0  0  0  0  0
  188.8800  176.6490  144.4420 C   0  0  1  0  0  3  0  0  0  0  0  0
  185.0020  177.5450  145.5540 C   0  0  0  0  0  2  0  0  0  0  0  0
  189.4500  172.0900  138.6280 N   0  0  0  0  0  2  0  0  0  0  0  0
  189.6200  172.6320  141.6550 C   0  0  2  0  0  3  0  0  0  0  0  0
  184.8120  177.8970  143.7730 S   0  0  0  0  0  0  0  0  0  0  0  0
  189.5870  173.4170  139.2120 C   0  0  0  0  0  2  0  0  0  0  0  0
  191.1990  171.2600  140.2250 C   0  0  1  0  0  3  0  0  0  0  0  0
  190.5270  176.2930  146.2830 C   0  0  0  0  0  2  0  0  0  0  0  0
  190.3130  176.2570  144.7670 C   0  0  1  0  0  3  0  0  0  0  0  0
  188.6360  177.9610  144.8840 O   0  0  0  0  0  0  0  0  0  0  0  0
  188.7000  174.9050  140.9880 C   0  0  0  0  0  2  0  0  0  0  0  0
  186.8560  177.1770  141.2320 C   0  0  0  0  0  1  0  0  0  0  0  0
  186.7560  177.7470  147.2930 C   0  0  0  0  0  1  0  0  0  0  0  0
  188.6030  176.5410  142.9400 C   0  0  1  0  0  3  0  0  0  0  0  0
  187.2440  178.1920  144.8900 C   0  0  1  0  0  3  0  0  0  0  0  0
  192.0360  170.0790  140.3700 N   0  0  0  0  0  2  0  0  0  0  0  0
  193.2770  170.0970  141.0800 C   0  0  0  0  0  0  0  0  0  0  0  0
  194.0340  168.9000  141.2050 N   0  0  0  0  0  1  0  0  0  0  0  0
  193.7080  171.1650  141.5910 O   0  0  0  0  0  0  0  0  0  0  0  0
  1 20  1  0  0  0  0
  2 24  1  6  0  0  0
  2 12  1  0  0  0  0
  2 27  1  0  0  0  0
  3  4  1  0  0  0  0
  5 25  1  6  0  0  0
  5 27  1  0  0  0  0
  5  6  1  0  0  0  0
  6 18  1  1  0  0  0
  6 28  1  0  0  0  0
  7 19  1  6  0  0  0
  7 24  1  0  0  0  0
  7 17  1  0  0  0  0
  9 26  1  1  0  0  0
 11  3  1  0  0  0  0
 12  8  1  1  0  0  0
 12 13  1  0  0  0  0
 13 11  1  6  0  0  0
 13 22  1  0  0  0  0
 14 22  1  0  0  0  0
 14 23  1  6  0  0  0
 15  9  1  0  0  0  0
 16  1  1  0  0  0  0
 16 19  1  0  0  0  0
 17 10  1  6  0  0  0
 17  8  1  0  0  0  0
 18 15  1  0  0  0  0
 20 29  1  6  0  0  0
 20 10  1  0  0  0  0
 21  4  1  0  0  0  0
 22 21  1  1  0  0  0
 23 28  1  0  0  0  0
 27 14  1  0  0  0  0
 28  9  1  0  0  0  0
 29 30  1  0  0  0  0
 30 31  1  0  0  0  0
 30 32  2  0  0  0  0
M  END
>  <MODEL>
5

>  <REMARK>
 VINA RESULT:      -7.6      1.790      2.349
  Name = 
  1 active torsions:
  status: ('A' for Active; 'I' for Inactive)
    1  A    between atoms: C_20  and  N_29
                            x       y       z     vdW  Elec       q    Type
                         _______ _______ _______ _____ _____    ______ ____

>  <TORSDO>
F 1

$$$$
=
 OpenBabel11112416423D

 32 37  0  0  1  0  0  0  0  0999 V2000
  186.1000  178.7340  144.0780 C   0  0  0  0  0  2  0  0  0  0  0  0
  189.8580  174.8450  142.7930 C   0  0  2  0  0  3  0  0  0  0  0  0
  188.1920  173.2970  138.4110 C   0  0  0  0  0  2  0  0  0  0  0  0
  189.5670  172.7330  138.0720 C   0  0  0  0  0  2  0  0  0  0  0  0
  192.0050  173.8550  143.7860 C   0  0  1  0  0  3  0  0  0  0  0  0
  193.2260  172.9650  143.5100 C   0  0  1  0  0  3  0  0  0  0  0  0
  188.4280  176.3970  144.2020 C   0  0  2  0  0  3  0  0  0  0  0  0
  187.8050  175.7830  141.8050 C   0  0  0  0  0  2  0  0  0  0  0  0
  192.3530  170.8010  142.6880 C   0  0  2  0  0  3  0  0  0  0  0  0
  185.9370  176.2580  143.4770 C   0  0  0  0  0  2  0  0  0  0  0  0
  188.3390  174.5070  139.3290 C   0  0  0  0  0  2  0  0  0  0  0  0
  189.1680  175.2560  141.5470 N   0  0  2  0  0  0  0  0  0  0  0  0
  189.0530  174.1080  140.6320 C   0  0  2  0  0  3  0  0  0  0  0  0
  191.2080  173.1770  141.5240 C   0  0  1  0  0  3  0  0  0  0  0  0
  192.9530  170.3750  144.0100 C   0  0  0  0  0  2  0  0  0  0  0  0
  187.1350  178.2910  145.0140 N   0  0  0  0  0  2  0  0  0  0  0  0
  187.3720  175.7580  143.2770 C   0  0  2  0  0  3  0  0  0  0  0  0
  193.4840  171.8570  144.9340 S   0  0  0  0  0  0  0  0  0  0  0  0
  188.3330  177.9170  144.2760 C   0  0  0  0  0  2  0  0  0  0  0  0
  185.7680  177.6990  142.9940 C   0  0  1  0  0  3  0  0  0  0  0  0
  190.3040  172.3490  139.3500 C   0  0  0  0  0  2  0  0  0  0  0  0
  190.4440  173.5670  140.2670 C   0  0  1  0  0  3  0  0  0  0  0  0
  192.4990  172.7420  141.1770 O   0  0  0  0  0  0  0  0  0  0  0  0
  189.8480  176.0140  143.7840 C   0  0  0  0  0  2  0  0  0  0  0  0
  192.4820  175.0290  144.6270 C   0  0  0  0  0  1  0  0  0  0  0  0
  192.5690  169.7170  141.6520 C   0  0  0  0  0  1  0  0  0  0  0  0
  191.2940  174.3490  142.5060 C   0  0  1  0  0  3  0  0  0  0  0  0
  193.0700  172.0750  142.2830 C   0  0  1  0  0  3  0  0  0  0  0  0
  184.4070  177.9150  142.5260 N   0  0  0  0  0  2  0  0  0  0  0  0
  184.0970  178.1840  141.1570 C   0  0  0  0  0  0  0  0  0  0  0  0
  182.7420  178.3610  140.7650 N   0  0  0  0  0  1  0  0  0  0  0  0
  185.0130  178.2710  140.2970 O   0  0  0  0  0  0  0  0  0  0  0  0
  1 16  1  0  0  0  0
  2 24  1  1  0  0  0
  3 11  1  0  0  0  0
  4  3  1  0  0  0  0
  4 21  1  0  0  0  0
  5 25  1  6  0  0  0
  6  5  1  0  0  0  0
  6 18  1  1  0  0  0
  7 24  1  6  0  0  0
  7 19  1  0  0  0  0
  9 26  1  6  0  0  0
  9 15  1  0  0  0  0
 12  8  1  1  0  0  0
 12  2  1  0  0  0  0
 13 11  1  6  0  0  0
 13 12  1  0  0  0  0
 14 23  1  6  0  0  0
 14 27  1  0  0  0  0
 15 18  1  0  0  0  0
 17  8  1  6  0  0  0
 17 10  1  0  0  0  0
 17  7  1  0  0  0  0
 19 16  1  0  0  0  0
 20 29  1  1  0  0  0
 20 10  1  0  0  0  0
 20  1  1  0  0  0  0
 22 21  1  6  0  0  0
 22 13  1  0  0  0  0
 22 14  1  0  0  0  0
 23 28  1  0  0  0  0
 27  2  1  0  0  0  0
 27  5  1  0  0  0  0
 28  9  1  0  0  0  0
 28  6  1  0  0  0  0
 30 29  1  0  0  0  0
 31 30  1  0  0  0  0
 32 30  2  0  0  0  0
M  END
>  <MODEL>
6

>  <REMARK>
 VINA RESULT:      -7.5      3.320      8.514
  Name = 
  1 active torsions:
  status: ('A' for Active; 'I' for Inactive)
    1  A    between atoms: C_20  and  N_29
                            x       y       z     vdW  Elec       q    Type
                         _______ _______ _______ _____ _____    ______ ____

>  <TORSDO>
F 1

$$$$
=
 OpenBabel11112416423D

 32 37  0  0  1  0  0  0  0  0999 V2000
  186.2900  177.1800  141.0170 C   0  0  0  0  0  2  0  0  0  0  0  0
  190.8430  174.9770  143.3230 C   0  0  2  0  0  3  0  0  0  0  0  0
  190.6500  176.8920  147.8700 C   0  0  0  0  0  2  0  0  0  0  0  0
  191.5660  175.7900  148.3880 C   0  0  0  0  0  2  0  0  0  0  0  0
  192.7240  173.3590  142.6780 C   0  0  1  0  0  3  0  0  0  0  0  0
  193.8970  172.5180  143.2030 C   0  0  1  0  0  3  0  0  0  0  0  0
  189.2580  175.8290  141.5350 C   0  0  2  0  0  3  0  0  0  0  0  0
  189.0420  176.5260  143.9800 C   0  0  0  0  0  2  0  0  0  0  0  0
  195.3640  174.0600  144.4650 C   0  0  2  0  0  3  0  0  0  0  0  0
  188.3410  178.1770  142.1660 C   0  0  0  0  0  2  0  0  0  0  0  0
  189.8160  176.3690  146.7040 C   0  0  0  0  0  2  0  0  0  0  0  0
  189.9390  175.4250  144.4100 N   0  0  2  0  0  0  0  0  0  0  0  0
  190.7290  175.8970  145.5600 C   0  0  2  0  0  3  0  0  0  0  0  0
  192.5370  174.2470  144.9990 C   0  0  1  0  0  3  0  0  0  0  0  0
  196.2670  173.7040  143.3040 C   0  0  0  0  0  2  0  0  0  0  0  0
  187.2720  176.4080  140.2540 N   0  0  0  0  0  2  0  0  0  0  0  0
  189.2530  177.0020  142.5370 C   0  0  2  0  0  3  0  0  0  0  0  0
  195.3220  172.7270  142.0860 S   0  0  0  0  0  0  0  0  0  0  0  0
  187.8620  175.3870  141.1080 C   0  0  0  0  0  2  0  0  0  0  0  0
  186.8620  177.8080  142.2950 C   0  0  1  0  0  3  0  0  0  0  0  0
  192.4690  175.2910  147.2650 C   0  0  0  0  0  2  0  0  0  0  0  0
  191.6250  174.7700  146.0990 C   0  0  1  0  0  3  0  0  0  0  0  0
  193.3060  173.1770  145.4920 O   0  0  0  0  0  0  0  0  0  0  0  0
  190.0070  174.6180  142.0900 C   0  0  0  0  0  2  0  0  0  0  0  0
  192.0220  172.5360  141.6100 C   0  0  0  0  0  1  0  0  0  0  0  0
  196.1850  174.1950  145.7320 C   0  0  0  0  0  1  0  0  0  0  0  0
  191.7310  173.7960  143.7780 C   0  0  1  0  0  3  0  0  0  0  0  0
  194.3660  172.9240  144.5960 C   0  0  1  0  0  3  0  0  0  0  0  0
  186.0800  178.9850  142.6420 N   0  0  0  0  0  2  0  0  0  0  0  0
  185.8190  179.3650  143.9950 C   0  0  0  0  0  0  0  0  0  0  0  0
  185.0660  180.5410  144.2630 N   0  0  0  0  0  1  0  0  0  0  0  0
  186.2430  178.6640  144.9520 O   0  0  0  0  0  0  0  0  0  0  0  0
  1 20  1  0  0  0  0
  2 24  1  6  0  0  0
  2 27  1  0  0  0  0
  2 12  1  0  0  0  0
  3  4  1  0  0  0  0
  5 25  1  6  0  0  0
  5  6  1  0  0  0  0
  5 27  1  0  0  0  0
  6 18  1  6  0  0  0
  6 28  1  0  0  0  0
  7 19  1  1  0  0  0
  7 24  1  0  0  0  0
  7 17  1  0  0  0  0
  9 28  1  0  0  0  0
  9 26  1  1  0  0  0
 10 20  1  0  0  0  0
 11  3  1  0  0  0  0
 12  8  1  6  0  0  0
 12 13  1  0  0  0  0
 13 22  1  0  0  0  0
 13 11  1  1  0  0  0
 14 23  1  1  0  0  0
 14 22  1  0  0  0  0
 15  9  1  0  0  0  0
 16  1  1  0  0  0  0
 16 19  1  0  0  0  0
 17 10  1  6  0  0  0
 17  8  1  0  0  0  0
 18 15  1  0  0  0  0
 20 29  1  6  0  0  0
 21  4  1  0  0  0  0
 22 21  1  1  0  0  0
 27 14  1  0  0  0  0
 28 23  1  0  0  0  0
 29 30  1  0  0  0  0
 30 31  1  0  0  0  0
 30 32  2  0  0  0  0
M  END
>  <MODEL>
7

>  <REMARK>
 VINA RESULT:      -7.4      3.566      7.819
  Name = 
  1 active torsions:
  status: ('A' for Active; 'I' for Inactive)
    1  A    between atoms: C_20  and  N_29
                            x       y       z     vdW  Elec       q    Type
                         _______ _______ _______ _____ _____    ______ ____

>  <TORSDO>
F 1

$$$$
=
 OpenBabel11112416423D

 32 37  0  0  1  0  0  0  0  0999 V2000
  189.5380  177.9170  147.5320 C   0  0  0  0  0  2  0  0  0  0  0  0
  191.5310  173.5330  144.7560 C   0  0  2  0  0  3  0  0  0  0  0  0
  188.2000  173.0790  141.1410 C   0  0  0  0  0  2  0  0  0  0  0  0
  189.1950  172.2820  140.3050 C   0  0  0  0  0  2  0  0  0  0  0  0
  193.5470  171.9530  144.8670 C   0  0  1  0  0  3  0  0  0  0  0  0
  194.3380  170.8660  144.1220 C   0  0  1  0  0  3  0  0  0  0  0  0
  191.0870  175.1310  146.6770 C   0  0  2  0  0  3  0  0  0  0  0  0
  189.5880  175.0420  144.6140 C   0  0  0  0  0  2  0  0  0  0  0  0
  192.7140  169.1010  143.5140 C   0  0  2  0  0  3  0  0  0  0  0  0
  188.5500  175.6600  146.8620 C   0  0  0  0  0  2  0  0  0  0  0  0
  188.9440  174.0710  142.0280 C   0  0  0  0  0  2  0  0  0  0  0  0
  190.6080  174.2720  143.8610 N   0  0  2  0  0  0  0  0  0  0  0  0
  189.9090  173.3310  142.9690 C   0  0  2  0  0  3  0  0  0  0  0  0
  191.9160  171.8210  142.9870 C   0  0  1  0  0  3  0  0  0  0  0  0
  193.5760  168.3560  144.5100 C   0  0  0  0  0  2  0  0  0  0  0  0
  190.6650  177.1180  148.0150 N   0  0  0  0  0  2  0  0  0  0  0  0
  189.6620  174.8900  146.1400 C   0  0  2  0  0  3  0  0  0  0  0  0
  194.7420  169.5260  145.2880 S   0  0  0  0  0  0  0  0  0  0  0  0
  191.4210  176.6040  146.8810 C   0  0  0  0  0  2  0  0  0  0  0  0
  188.6160  177.1590  146.5670 C   0  0  1  0  0  3  0  0  0  0  0  0
  190.1770  171.5540  141.2160 C   0  0  0  0  0  2  0  0  0  0  0  0
  190.9180  172.5560  142.1050 C   0  0  1  0  0  3  0  0  0  0  0  0
  192.8670  171.1680  142.1820 O   0  0  0  0  0  0  0  0  0  0  0  0
  192.1460  174.5110  145.7640 C   0  0  0  0  0  2  0  0  0  0  0  0
  194.5580  172.8490  145.5640 C   0  0  0  0  0  1  0  0  0  0  0  0
  192.2950  168.1660  142.3970 C   0  0  0  0  0  1  0  0  0  0  0  0
  192.6160  172.7810  143.9520 C   0  0  1  0  0  3  0  0  0  0  0  0
  193.5680  170.2310  142.9700 C   0  0  1  0  0  3  0  0  0  0  0  0
  187.2840  177.7400  146.6200 N   0  0  0  0  0  2  0  0  0  0  0  0
  186.6120  178.2360  145.4600 C   0  0  0  0  0  0  0  0  0  0  0  0
  185.3000  178.7700  145.5810 N   0  0  0  0  0  1  0  0  0  0  0  0
  187.1750  178.2110  144.3330 O   0  0  0  0  0  0  0  0  0  0  0  0
  1 16  1  0  0  0  0
  2 24  1  1  0  0  0
  3 11  1  0  0  0  0
  4  3  1  0  0  0  0
  4 21  1  0  0  0  0
  5 25  1  6  0  0  0
  6  5  1  0  0  0  0
  6 18  1  1  0  0  0
  7 24  1  6  0  0  0
  7 19  1  0  0  0  0
  9 26  1  6  0  0  0
  9 15  1  0  0  0  0
 12  8  1  1  0  0  0
 12  2  1  0  0  0  0
 13 11  1  6  0  0  0
 13 12  1  0  0  0  0
 14 23  1  6  0  0  0
 14 27  1  0  0  0  0
 15 18  1  0  0  0  0
 17  8  1  6  0  0  0
 17  7  1  0  0  0  0
 17 10  1  0  0  0  0
 19 16  1  0  0  0  0
 20 29  1  1  0  0  0
 20 10  1  0  0  0  0
 20  1  1  0  0  0  0
 22 21  1  1  0  0  0
 22 13  1  0  0  0  0
 22 14  1  0  0  0  0
 23 28  1  0  0  0  0
 27  2  1  0  0  0  0
 27  5  1  0  0  0  0
 28  9  1  0  0  0  0
 28  6  1  0  0  0  0
 30 31  1  0  0  0  0
 30 29  1  0  0  0  0
 32 30  2  0  0  0  0
M  END
>  <MODEL>
8

>  <REMARK>
 VINA RESULT:      -7.3      3.671      8.945
  Name = 
  1 active torsions:
  status: ('A' for Active; 'I' for Inactive)
    1  A    between atoms: C_20  and  N_29
                            x       y       z     vdW  Elec       q    Type
                         _______ _______ _______ _____ _____    ______ ____

>  <TORSDO>
F 1

$$$$
=
 OpenBabel11112416423D

 32 37  0  0  1  0  0  0  0  0999 V2000
  185.3300  177.3910  143.9670 C   0  0  0  0  0  2  0  0  0  0  0  0
  190.2560  175.2480  142.5410 C   0  0  2  0  0  3  0  0  0  0  0  0
  192.9990  176.4230  146.4740 C   0  0  0  0  0  2  0  0  0  0  0  0
  194.0050  175.3350  146.1150 C   0  0  0  0  0  2  0  0  0  0  0  0
  191.2740  173.9110  140.6050 C   0  0  1  0  0  3  0  0  0  0  0  0
  192.4920  173.1000  140.1370 C   0  0  1  0  0  3  0  0  0  0  0  0
  187.9290  176.2290  142.2970 C   0  0  2  0  0  3  0  0  0  0  0  0
  189.3070  176.5230  144.4240 C   0  0  0  0  0  2  0  0  0  0  0  0
  194.4720  174.5480  140.4620 C   0  0  2  0  0  3  0  0  0  0  0  0
  187.6780  178.3680  143.7500 C   0  0  0  0  0  2  0  0  0  0  0  0
  191.6050  176.0170  146.0070 C   0  0  0  0  0  2  0  0  0  0  0  0
  190.2420  175.4490  144.0100 N   0  0  2  0  0  0  0  0  0  0  0  0
  191.5910  175.8030  144.4840 C   0  0  2  0  0  3  0  0  0  0  0  0
  192.6020  174.4150  142.6520 C   0  0  1  0  0  3  0  0  0  0  0  0
  194.4420  174.4510  138.9520 C   0  0  0  0  0  2  0  0  0  0  0  0
  185.5970  176.8290  142.6420 N   0  0  0  0  0  2  0  0  0  0  0  0
  188.5860  177.2310  143.2690 C   0  0  2  0  0  3  0  0  0  0  0  0
  192.9140  173.5960  138.4350 S   0  0  0  0  0  0  0  0  0  0  0  0
  186.5590  175.7430  142.7570 C   0  0  0  0  0  2  0  0  0  0  0  0
  186.5920  177.8620  144.7010 C   0  0  1  0  0  3  0  0  0  0  0  0
  193.9940  175.0900  144.6110 C   0  0  0  0  0  2  0  0  0  0  0  0
  192.5920  174.6860  144.1490 C   0  0  1  0  0  3  0  0  0  0  0  0
  193.4770  173.3500  142.3710 O   0  0  0  0  0  0  0  0  0  0  0  0
  188.8230  175.0140  142.0510 C   0  0  0  0  0  2  0  0  0  0  0  0
  190.0330  173.2060  140.0790 C   0  0  0  0  0  1  0  0  0  0  0  0
  195.9070  174.5550  140.9480 C   0  0  0  0  0  1  0  0  0  0  0  0
  191.1970  174.0900  142.1380 C   0  0  1  0  0  3  0  0  0  0  0  0
  193.7390  173.3270  140.9840 C   0  0  1  0  0  3  0  0  0  0  0  0
  186.2340  178.9020  145.6530 N   0  0  0  0  0  2  0  0  0  0  0  0
  186.2710  178.6980  147.0670 C   0  0  0  0  0  0  0  0  0  0  0  0
  185.9300  179.7670  147.9410 N   0  0  0  0  0  1  0  0  0  0  0  0
  186.5950  177.5790  147.5460 O   0  0  0  0  0  0  0  0  0  0  0  0
  1 20  1  0  0  0  0
  2 24  1  1  0  0  0
  2 12  1  0  0  0  0
  4  3  1  0  0  0  0
  5 25  1  1  0  0  0
  5 27  1  0  0  0  0
  6 18  1  6  0  0  0
  6  5  1  0  0  0  0
  6 28  1  0  0  0  0
  7 24  1  1  0  0  0
  7 19  1  0  0  0  0
  7 17  1  0  0  0  0
  9 26  1  1  0  0  0
  9 28  1  0  0  0  0
 10 20  1  0  0  0  0
 11  3  1  0  0  0  0
 12  8  1  6  0  0  0
 12 13  1  0  0  0  0
 13 11  1  1  0  0  0
 14 23  1  1  0  0  0
 14 22  1  0  0  0  0
 15  9  1  0  0  0  0
 16 19  1  0  0  0  0
 16  1  1  0  0  0  0
 17 10  1  1  0  0  0
 17  8  1  0  0  0  0
 18 15  1  0  0  0  0
 20 29  1  1  0  0  0
 21  4  1  0  0  0  0
 22 13  1  0  0  0  0
 22 21  1  6  0  0  0
 27  2  1  0  0  0  0
 27 14  1  0  0  0  0
 28 23  1  0  0  0  0
 29 30  1  0  0  0  0
 30 32  2  0  0  0  0
 30 31  1  0  0  0  0
M  END
>  <MODEL>
9

>  <REMARK>
 VINA RESULT:      -7.1      3.627      7.623
  Name = 
  1 active torsions:
  status: ('A' for Active; 'I' for Inactive)
    1  A    between atoms: C_20  and  N_29
                            x       y       z     vdW  Elec       q    Type
                         _______ _______ _______ _____ _____    ______ ____

>  <TORSDO>
F 1

$$$$
