=
 OpenBabel11112417203D

 37 43  0  0  1  0  0  0  0  0999 V2000
  194.3700  175.9650  144.5860 C   0  0  1  0  0  0  0  0  0  0  0  0
  190.3220  174.9020  145.5720 C   0  0  1  0  0  3  0  0  0  0  0  0
  187.6020  174.7860  142.7750 C   0  0  0  0  0  2  0  0  0  0  0  0
  192.7980  175.0260  146.3870 C   0  0  2  0  0  3  0  0  0  0  0  0
  189.7800  175.0180  144.1560 C   0  0  1  0  0  3  0  0  0  0  0  0
  191.7900  174.5870  145.3000 C   0  0  2  0  0  3  0  0  0  0  0  0
  188.3900  175.5780  143.8230 C   0  0  0  0  0  0  0  0  0  0  0  0
  192.4830  176.3460  146.9300 N   0  0  0  0  0  2  0  0  0  0  0  0
  192.1020  175.0670  143.8750 C   0  0  2  0  0  3  0  0  0  0  0  0
  195.3170  175.3090  143.6020 C   0  0  0  0  0  1  0  0  0  0  0  0
  190.0300  177.4280  145.5990 C   0  0  0  0  0  2  0  0  0  0  0  0
  191.1560  176.2890  147.5240 C   0  0  0  0  0  2  0  0  0  0  0  0
  193.0420  176.2700  143.8740 C   0  0  0  0  0  2  0  0  0  0  0  0
  188.6150  173.8760  140.4840 C   0  0  1  0  0  3  0  0  0  0  0  0
  188.5380  173.8730  141.9960 C   0  0  1  0  0  3  0  0  0  0  0  0
  190.1060  176.1620  146.4270 C   0  0  2  0  0  3  0  0  0  0  0  0
  190.8450  175.4080  143.2130 N   0  0  1  0  0  0  0  0  0  0  0  0
  194.2130  175.0340  145.8050 C   0  0  0  0  0  2  0  0  0  0  0  0
  187.9190  176.7890  144.2420 C   0  0  0  0  0  0  0  0  0  0  0  0
  194.9320  177.1690  145.0090 O   0  0  0  0  0  1  0  0  0  0  0  0
  189.4520  174.8660  141.2880 C   0  0  1  0  0  3  0  0  0  0  0  0
  190.7690  174.5800  141.9960 C   0  0  0  0  0  2  0  0  0  0  0  0
  188.5730  177.6800  145.2760 C   0  0  0  0  0  2  0  0  0  0  0  0
  185.6130  177.6860  144.6200 C   0  0  0  0  0  3  0  0  0  0  0  0
  186.6300  177.3190  143.7280 C   0  0  0  0  0  0  0  0  0  0  0  0
  186.4410  177.5030  142.3890 N   0  0  0  0  0  0  0  0  0  0  0  0
  185.1260  178.1840  140.4200 C   0  0  0  0  0  1  0  0  0  0  0  0
  184.2490  178.3750  142.7510 C   0  0  0  0  0  3  0  0  0  0  0  0
  185.2850  178.0120  141.8890 C   0  0  0  0  0  0  0  0  0  0  0  0
  184.4190  178.2110  144.1250 C   0  0  0  0  0  3  0  0  0  0  0  0
  188.5890  174.4040  137.7000 O   0  0  0  0  0  0  0  0  0  0  0  0
  189.5150  173.5640  137.5460 C   0  0  0  0  0  0  0  0  0  0  0  0
  189.4570  172.7430  139.9710 C   0  0  0  0  0  0  0  0  0  0  0  0
  189.9110  172.6900  138.6110 N   0  0  0  0  0  2  0  0  0  0  0  0
  189.7640  171.8000  140.7480 O   0  0  0  0  0  0  0  0  0  0  0  0
  189.3940  174.0740  135.2500 O   0  0  0  0  0  1  0  0  0  0  0  0
  190.1680  173.4330  136.2170 C   0  0  0  0  0  2  0  0  0  0  0  0
  1 10  1  6  0  0  0
  1 20  1  0  0  0  0
  1 18  1  0  0  0  0
  2 16  1  0  0  0  0
  3  7  1  0  0  0  0
  4  8  1  0  0  0  0
  5  2  1  0  0  0  0
  6  2  1  0  0  0  0
  6  4  1  0  0  0  0
  7  5  1  0  0  0  0
  7 19  2  0  0  0  0
  8 12  1  0  0  0  0
  9  6  1  0  0  0  0
 11 16  1  0  0  0  0
 13  9  1  0  0  0  0
 13  1  1  0  0  0  0
 14 21  1  0  0  0  0
 14 15  1  0  0  0  0
 15  3  1  0  0  0  0
 16 12  1  0  0  0  0
 17  9  1  0  0  0  0
 17  5  1  0  0  0  0
 18  4  1  0  0  0  0
 19 23  1  0  0  0  0
 21 22  1  0  0  0  0
 21 15  1  0  0  0  0
 22 17  1  0  0  0  0
 23 11  1  0  0  0  0
 25 19  1  0  0  0  0
 25 24  2  0  0  0  0
 26 25  1  0  0  0  0
 27 29  1  0  0  0  0
 28 30  2  0  0  0  0
 29 26  2  0  0  0  0
 29 28  1  0  0  0  0
 30 24  1  0  0  0  0
 32 31  2  0  0  0  0
 32 34  1  0  0  0  0
 33 14  1  0  0  0  0
 33 35  2  0  0  0  0
 34 33  1  0  0  0  0
 36 37  1  0  0  0  0
 37 32  1  0  0  0  0
M  END
>  <MODEL>
1

>  <REMARK>
 VINA RESULT:      -9.0      0.000      0.000
  Name = 
  3 active torsions:
  status: ('A' for Active; 'I' for Inactive)
    1  A    between atoms: C_4  and  C_37
    2  A    between atoms: C_8  and  C_18
    3  A    between atoms: C_23  and  C_30
                            x       y       z     vdW  Elec       q    Type
                         _______ _______ _______ _____ _____    ______ ____

>  <TORSDO>
F 3

$$$$
=
 OpenBabel11112417203D

 37 43  0  0  1  0  0  0  0  0999 V2000
  196.0070  175.6870  142.3570 C   0  0  1  0  0  0  0  0  0  0  0  0
  192.9470  174.2100  144.9930 C   0  0  1  0  0  3  0  0  0  0  0  0
  189.2290  174.1270  143.8080 C   0  0  0  0  0  2  0  0  0  0  0  0
  195.5080  174.4620  144.5580 C   0  0  2  0  0  3  0  0  0  0  0  0
  191.7940  174.4100  144.0220 C   0  0  1  0  0  3  0  0  0  0  0  0
  194.1170  174.0420  144.0280 C   0  0  2  0  0  3  0  0  0  0  0  0
  190.3970  174.8820  144.4490 C   0  0  0  0  0  0  0  0  0  0  0  0
  195.4500  175.6970  145.3390 N   0  0  0  0  0  2  0  0  0  0  0  0
  193.7000  174.6740  142.6920 C   0  0  2  0  0  3  0  0  0  0  0  0
  196.3910  175.2030  140.9730 C   0  0  0  0  0  1  0  0  0  0  0  0
  192.6300  176.6910  145.4540 C   0  0  0  0  0  2  0  0  0  0  0  0
  194.5680  175.4780  146.4750 C   0  0  0  0  0  2  0  0  0  0  0  0
  194.4920  175.9460  142.3940 C   0  0  0  0  0  2  0  0  0  0  0  0
  189.0560  173.5150  141.2200 C   0  0  1  0  0  3  0  0  0  0  0  0
  189.7080  173.3690  142.5780 C   0  0  1  0  0  3  0  0  0  0  0  0
  193.1270  175.3650  145.9930 C   0  0  2  0  0  3  0  0  0  0  0  0
  192.2710  174.9700  142.7430 N   0  0  1  0  0  0  0  0  0  0  0  0
  196.4750  174.6390  143.3870 C   0  0  0  0  0  2  0  0  0  0  0  0
  190.1470  176.0070  145.1810 C   0  0  0  0  0  0  0  0  0  0  0  0
  196.6670  176.8890  142.6070 O   0  0  0  0  0  1  0  0  0  0  0  0
  190.1460  174.4930  141.6480 C   0  0  1  0  0  3  0  0  0  0  0  0
  191.6490  174.2530  141.6160 C   0  0  0  0  0  2  0  0  0  0  0  0
  191.1880  176.8510  145.8860 C   0  0  0  0  0  2  0  0  0  0  0  0
  188.0590  176.1030  146.5600 C   0  0  0  0  0  3  0  0  0  0  0  0
  188.7540  176.4740  145.4000 C   0  0  0  0  0  0  0  0  0  0  0  0
  188.1550  177.3090  144.5020 N   0  0  0  0  0  0  0  0  0  0  0  0
  186.2820  178.6780  143.6720 C   0  0  0  0  0  1  0  0  0  0  0  0
  186.1710  177.4160  145.8240 C   0  0  0  0  0  3  0  0  0  0  0  0
  186.8920  177.7770  144.6850 C   0  0  0  0  0  0  0  0  0  0  0  0
  186.7620  176.5740  146.7660 C   0  0  0  0  0  3  0  0  0  0  0  0
  188.1290  174.6030  138.7730 O   0  0  0  0  0  0  0  0  0  0  0  0
  188.8810  173.8070  138.1500 C   0  0  0  0  0  0  0  0  0  0  0  0
  189.5860  172.5070  140.2400 C   0  0  0  0  0  0  0  0  0  0  0  0
  189.5460  172.7310  138.8240 N   0  0  0  0  0  2  0  0  0  0  0  0
  190.0650  171.4230  140.6680 O   0  0  0  0  0  0  0  0  0  0  0  0
  188.3790  175.1020  136.2480 O   0  0  0  0  0  1  0  0  0  0  0  0
  189.0330  173.9470  136.6780 C   0  0  0  0  0  2  0  0  0  0  0  0
  1 10  1  6  0  0  0
  1 13  1  0  0  0  0
  1 20  1  0  0  0  0
  1 18  1  0  0  0  0
  2 16  1  0  0  0  0
  3  7  1  0  0  0  0
  4  8  1  0  0  0  0
  5  7  1  0  0  0  0
  5  2  1  0  0  0  0
  6  4  1  0  0  0  0
  6  2  1  0  0  0  0
  7 19  2  0  0  0  0
  8 12  1  0  0  0  0
  9 17  1  0  0  0  0
  9  6  1  0  0  0  0
 11 23  1  0  0  0  0
 11 16  1  0  0  0  0
 13  9  1  0  0  0  0
 14 21  1  0  0  0  0
 14 15  1  0  0  0  0
 15  3  1  0  0  0  0
 16 12  1  0  0  0  0
 17  5  1  0  0  0  0
 18  4  1  0  0  0  0
 19 25  1  0  0  0  0
 19 23  1  0  0  0  0
 21 15  1  0  0  0  0
 22 21  1  0  0  0  0
 22 17  1  0  0  0  0
 24 30  1  0  0  0  0
 25 24  2  0  0  0  0
 26 29  2  0  0  0  0
 26 25  1  0  0  0  0
 27 29  1  0  0  0  0
 28 30  2  0  0  0  0
 29 28  1  0  0  0  0
 32 31  2  0  0  0  0
 32 34  1  0  0  0  0
 33 35  2  0  0  0  0
 33 14  1  0  0  0  0
 34 33  1  0  0  0  0
 36 37  1  0  0  0  0
 37 32  1  0  0  0  0
M  END
>  <MODEL>
2

>  <REMARK>
 VINA RESULT:      -8.9      1.643      2.519
  Name = 
  3 active torsions:
  status: ('A' for Active; 'I' for Inactive)
    1  A    between atoms: C_4  and  C_37
    2  A    between atoms: C_8  and  C_18
    3  A    between atoms: C_23  and  C_30
                            x       y       z     vdW  Elec       q    Type
                         _______ _______ _______ _____ _____    ______ ____

>  <TORSDO>
F 3

$$$$
=
 OpenBabel11112417203D

 37 43  0  0  1  0  0  0  0  0999 V2000
  194.3690  175.8450  145.1220 C   0  0  1  0  0  0  0  0  0  0  0  0
  190.1500  175.0620  145.4150 C   0  0  1  0  0  3  0  0  0  0  0  0
  188.0280  174.5910  142.1730 C   0  0  0  0  0  2  0  0  0  0  0  0
  192.4230  175.2410  146.6860 C   0  0  2  0  0  3  0  0  0  0  0  0
  189.9040  174.9730  143.9160 C   0  0  1  0  0  3  0  0  0  0  0  0
  191.6220  174.6670  145.4930 C   0  0  2  0  0  3  0  0  0  0  0  0
  188.6400  175.5130  143.2310 C   0  0  0  0  0  0  0  0  0  0  0  0
  192.0850  176.6370  146.9550 N   0  0  0  0  0  2  0  0  0  0  0  0
  192.2340  174.9120  144.1060 C   0  0  2  0  0  3  0  0  0  0  0  0
  195.4500  175.0180  144.4570 C   0  0  0  0  0  1  0  0  0  0  0  0
  190.0070  177.5690  145.0130 C   0  0  0  0  0  2  0  0  0  0  0  0
  190.6670  176.7110  147.2710 C   0  0  0  0  0  2  0  0  0  0  0  0
  193.2260  176.0740  144.1200 C   0  0  0  0  0  2  0  0  0  0  0  0
  189.4130  173.3100  140.2920 C   0  0  1  0  0  3  0  0  0  0  0  0
  189.0430  173.5430  141.7410 C   0  0  1  0  0  3  0  0  0  0  0  0
  189.8460  176.4440  146.0150 C   0  0  2  0  0  3  0  0  0  0  0  0
  191.1540  175.1820  143.1620 N   0  0  1  0  0  0  0  0  0  0  0  0
  193.9220  175.1190  146.4070 C   0  0  0  0  0  2  0  0  0  0  0  0
  188.1680  176.7870  143.3650 C   0  0  0  0  0  0  0  0  0  0  0  0
  194.9070  177.0830  145.4700 O   0  0  0  0  0  1  0  0  0  0  0  0
  190.1340  174.3880  141.0950 C   0  0  1  0  0  3  0  0  0  0  0  0
  191.2680  174.1780  142.0890 C   0  0  0  0  0  2  0  0  0  0  0  0
  188.6590  177.8090  144.3690 C   0  0  0  0  0  2  0  0  0  0  0  0
  187.1560  177.2940  141.1330 C   0  0  0  0  0  3  0  0  0  0  0  0
  187.0380  177.2680  142.5300 C   0  0  0  0  0  0  0  0  0  0  0  0
  185.8600  177.6400  143.1070 N   0  0  0  0  0  0  0  0  0  0  0  0
  183.5370  178.4610  143.0490 C   0  0  0  0  0  1  0  0  0  0  0  0
  184.8870  178.1070  140.9780 C   0  0  0  0  0  3  0  0  0  0  0  0
  184.7970  178.0580  142.3700 C   0  0  0  0  0  0  0  0  0  0  0  0
  186.0760  177.7200  140.3590 C   0  0  0  0  0  3  0  0  0  0  0  0
  190.3630  173.6650  137.6460 O   0  0  0  0  0  0  0  0  0  0  0  0
  191.2070  172.7500  137.8410 C   0  0  0  0  0  0  0  0  0  0  0  0
  190.2720  172.0880  140.1300 C   0  0  0  0  0  0  0  0  0  0  0  0
  191.1450  171.9170  139.0050 N   0  0  0  0  0  2  0  0  0  0  0  0
  190.2160  171.1740  140.9960 O   0  0  0  0  0  0  0  0  0  0  0  0
  193.2840  171.7410  137.3770 O   0  0  0  0  0  1  0  0  0  0  0  0
  192.2510  172.4890  136.8140 C   0  0  0  0  0  2  0  0  0  0  0  0
  1 10  1  6  0  0  0
  1 20  1  0  0  0  0
  1 18  1  0  0  0  0
  2  6  1  0  0  0  0
  2 16  1  0  0  0  0
  3  7  1  0  0  0  0
  4  8  1  0  0  0  0
  5  2  1  0  0  0  0
  6  4  1  0  0  0  0
  7 19  2  0  0  0  0
  7  5  1  0  0  0  0
  8 12  1  0  0  0  0
  9 13  1  0  0  0  0
  9  6  1  0  0  0  0
 11 16  1  0  0  0  0
 13  1  1  0  0  0  0
 14 21  1  0  0  0  0
 14 15  1  0  0  0  0
 15  3  1  0  0  0  0
 16 12  1  0  0  0  0
 17  5  1  0  0  0  0
 17  9  1  0  0  0  0
 18  4  1  0  0  0  0
 19 23  1  0  0  0  0
 21 15  1  0  0  0  0
 21 22  1  0  0  0  0
 22 17  1  0  0  0  0
 23 11  1  0  0  0  0
 24 25  1  0  0  0  0
 25 26  2  0  0  0  0
 25 19  1  0  0  0  0
 28 29  2  0  0  0  0
 29 27  1  0  0  0  0
 29 26  1  0  0  0  0
 30 28  1  0  0  0  0
 30 24  2  0  0  0  0
 31 32  2  0  0  0  0
 32 34  1  0  0  0  0
 33 14  1  0  0  0  0
 33 35  2  0  0  0  0
 34 33  1  0  0  0  0
 37 36  1  0  0  0  0
 37 32  1  0  0  0  0
M  END
>  <MODEL>
3

>  <REMARK>
 VINA RESULT:      -8.8      1.264      1.639
  Name = 
  3 active torsions:
  status: ('A' for Active; 'I' for Inactive)
    1  A    between atoms: C_4  and  C_37
    2  A    between atoms: C_8  and  C_18
    3  A    between atoms: C_23  and  C_30
                            x       y       z     vdW  Elec       q    Type
                         _______ _______ _______ _____ _____    ______ ____

>  <TORSDO>
F 3

$$$$
=
 OpenBabel11112417203D

 37 43  0  0  1  0  0  0  0  0999 V2000
  195.6170  174.3350  143.5300 C   0  0  1  0  0  0  0  0  0  0  0  0
  191.5820  173.6360  144.8420 C   0  0  1  0  0  3  0  0  0  0  0  0
  188.6650  173.6250  142.2480 C   0  0  0  0  0  2  0  0  0  0  0  0
  194.1130  173.5970  145.4760 C   0  0  2  0  0  3  0  0  0  0  0  0
  190.9490  173.7390  143.4630 C   0  0  1  0  0  3  0  0  0  0  0  0
  192.9970  173.1950  144.4830 C   0  0  2  0  0  3  0  0  0  0  0  0
  189.5850  174.3930  143.2020 C   0  0  0  0  0  0  0  0  0  0  0  0
  193.9390  174.9580  145.9800 N   0  0  0  0  0  2  0  0  0  0  0  0
  193.2410  173.5920  143.0200 C   0  0  2  0  0  3  0  0  0  0  0  0
  196.4370  173.5680  142.5140 C   0  0  0  0  0  1  0  0  0  0  0  0
  191.4860  176.1770  144.7750 C   0  0  0  0  0  2  0  0  0  0  0  0
  192.6590  175.0300  146.6670 C   0  0  0  0  0  2  0  0  0  0  0  0
  194.2680  174.7170  142.8990 C   0  0  0  0  0  2  0  0  0  0  0  0
  189.4360  172.5480  139.9370 C   0  0  1  0  0  3  0  0  0  0  0  0
  189.4690  172.6110  141.4480 C   0  0  1  0  0  3  0  0  0  0  0  0
  191.5250  174.9420  145.6520 C   0  0  2  0  0  3  0  0  0  0  0  0
  191.9690  174.0050  142.4310 N   0  0  1  0  0  0  0  0  0  0  0  0
  195.4780  173.4690  144.7980 C   0  0  0  0  0  2  0  0  0  0  0  0
  189.2390  175.6530  143.5970 C   0  0  0  0  0  0  0  0  0  0  0  0
  196.2980  175.5070  143.8580 O   0  0  0  0  0  1  0  0  0  0  0  0
  190.4030  173.4990  140.6340 C   0  0  1  0  0  3  0  0  0  0  0  0
  191.7420  173.1380  141.2620 C   0  0  0  0  0  2  0  0  0  0  0  0
  190.0330  176.5310  144.5430 C   0  0  0  0  0  2  0  0  0  0  0  0
  186.9580  176.5630  144.0840 C   0  0  0  0  0  3  0  0  0  0  0  0
  187.9610  176.2640  143.1510 C   0  0  0  0  0  0  0  0  0  0  0  0
  187.7680  176.5850  141.8390 N   0  0  0  0  0  0  0  0  0  0  0  0
  186.4580  177.4930  139.9600 C   0  0  0  0  0  1  0  0  0  0  0  0
  185.6000  177.4690  142.3050 C   0  0  0  0  0  3  0  0  0  0  0  0
  186.6210  177.1700  141.4020 C   0  0  0  0  0  0  0  0  0  0  0  0
  185.7740  177.1640  143.6550 C   0  0  0  0  0  3  0  0  0  0  0  0
  189.3380  173.0160  137.1430 O   0  0  0  0  0  0  0  0  0  0  0  0
  190.1770  172.0920  136.9730 C   0  0  0  0  0  0  0  0  0  0  0  0
  190.1500  171.3320  139.4180 C   0  0  0  0  0  0  0  0  0  0  0  0
  190.5380  171.2090  138.0420 N   0  0  0  0  0  2  0  0  0  0  0  0
  190.4040  170.3810  140.2050 O   0  0  0  0  0  0  0  0  0  0  0  0
  190.3470  172.8950  134.7650 O   0  0  0  0  0  1  0  0  0  0  0  0
  190.7580  171.8740  135.6220 C   0  0  0  0  0  2  0  0  0  0  0  0
  1 10  1  6  0  0  0
  1 20  1  0  0  0  0
  1 18  1  0  0  0  0
  2 16  1  0  0  0  0
  3  7  1  0  0  0  0
  4  8  1  0  0  0  0
  5  2  1  0  0  0  0
  6  2  1  0  0  0  0
  6  4  1  0  0  0  0
  7  5  1  0  0  0  0
  7 19  2  0  0  0  0
  8 12  1  0  0  0  0
  9  6  1  0  0  0  0
 11 16  1  0  0  0  0
 13  9  1  0  0  0  0
 13  1  1  0  0  0  0
 14 21  1  0  0  0  0
 14 15  1  0  0  0  0
 15  3  1  0  0  0  0
 16 12  1  0  0  0  0
 17  9  1  0  0  0  0
 17  5  1  0  0  0  0
 18  4  1  0  0  0  0
 19 23  1  0  0  0  0
 21 22  1  0  0  0  0
 21 15  1  0  0  0  0
 22 17  1  0  0  0  0
 23 11  1  0  0  0  0
 25 19  1  0  0  0  0
 25 24  2  0  0  0  0
 26 25  1  0  0  0  0
 27 29  1  0  0  0  0
 28 30  2  0  0  0  0
 29 26  2  0  0  0  0
 29 28  1  0  0  0  0
 30 24  1  0  0  0  0
 32 31  2  0  0  0  0
 32 34  1  0  0  0  0
 33 14  1  0  0  0  0
 33 35  2  0  0  0  0
 34 33  1  0  0  0  0
 36 37  1  0  0  0  0
 37 32  1  0  0  0  0
M  END
>  <MODEL>
4

>  <REMARK>
 VINA RESULT:      -7.7      1.546      1.908
  Name = 
  3 active torsions:
  status: ('A' for Active; 'I' for Inactive)
    1  A    between atoms: C_4  and  C_37
    2  A    between atoms: C_8  and  C_18
    3  A    between atoms: C_23  and  C_30
                            x       y       z     vdW  Elec       q    Type
                         _______ _______ _______ _____ _____    ______ ____

>  <TORSDO>
F 3

$$$$
=
 OpenBabel11112417203D

 37 43  0  0  1  0  0  0  0  0999 V2000
  196.5870  175.2290  140.3340 C   0  0  1  0  0  0  0  0  0  0  0  0
  194.4030  173.4100  143.5610 C   0  0  1  0  0  3  0  0  0  0  0  0
  190.5030  173.3020  143.4560 C   0  0  0  0  0  2  0  0  0  0  0  0
  196.7370  173.7920  142.4570 C   0  0  2  0  0  3  0  0  0  0  0  0
  193.0220  173.6560  142.9740 C   0  0  1  0  0  3  0  0  0  0  0  0
  195.2560  173.3730  142.2970 C   0  0  2  0  0  3  0  0  0  0  0  0
  191.7970  174.0360  143.8180 C   0  0  0  0  0  0  0  0  0  0  0  0
  196.8900  174.9470  143.3390 N   0  0  0  0  0  2  0  0  0  0  0  0
  194.4760  174.1080  141.1980 C   0  0  2  0  0  3  0  0  0  0  0  0
  196.5710  174.8880  138.8580 C   0  0  0  0  0  1  0  0  0  0  0  0
  194.2060  175.8250  144.3320 C   0  0  0  0  0  2  0  0  0  0  0  0
  196.3640  174.5940  144.6490 C   0  0  0  0  0  2  0  0  0  0  0  0
  195.1410  175.4300  140.8170 C   0  0  0  0  0  2  0  0  0  0  0  0
  189.6160  172.9240  140.9720 C   0  0  1  0  0  3  0  0  0  0  0  0
  190.6230  172.6770  142.0740 C   0  0  1  0  0  3  0  0  0  0  0  0
  194.8460  174.4740  144.5790 C   0  0  2  0  0  3  0  0  0  0  0  0
  193.1160  174.3470  141.6740 N   0  0  1  0  0  0  0  0  0  0  0  0
  197.3350  174.1100  141.0850 C   0  0  0  0  0  2  0  0  0  0  0  0
  191.7530  175.0800  144.6960 C   0  0  0  0  0  0  0  0  0  0  0  0
  197.2800  176.4270  140.5060 O   0  0  0  0  0  1  0  0  0  0  0  0
  190.7730  173.8970  141.1730 C   0  0  1  0  0  3  0  0  0  0  0  0
  192.2090  173.7140  140.7000 C   0  0  0  0  0  2  0  0  0  0  0  0
  192.9430  175.8940  145.1610 C   0  0  0  0  0  2  0  0  0  0  0  0
  190.0980  174.9160  146.5680 C   0  0  0  0  0  3  0  0  0  0  0  0
  190.4730  175.4760  145.3390 C   0  0  0  0  0  0  0  0  0  0  0  0
  189.6760  176.4240  144.7670 N   0  0  0  0  0  0  0  0  0  0  0  0
  187.6750  177.8590  144.6740 C   0  0  0  0  0  1  0  0  0  0  0  0
  188.1060  176.2810  146.5600 C   0  0  0  0  0  3  0  0  0  0  0  0
  188.5130  176.8290  145.3420 C   0  0  0  0  0  0  0  0  0  0  0  0
  188.9080  175.3190  147.1750 C   0  0  0  0  0  3  0  0  0  0  0  0
  188.4620  174.4590  138.8880 O   0  0  0  0  0  0  0  0  0  0  0  0
  189.0040  173.6960  138.0450 C   0  0  0  0  0  0  0  0  0  0  0  0
  189.8580  172.0290  139.7900 C   0  0  0  0  0  0  0  0  0  0  0  0
  189.6270  172.4680  138.4450 N   0  0  0  0  0  2  0  0  0  0  0  0
  190.2590  170.8490  139.9800 O   0  0  0  0  0  0  0  0  0  0  0  0
  190.2220  173.9870  136.0500 O   0  0  0  0  0  1  0  0  0  0  0  0
  188.9420  174.0430  136.6000 C   0  0  0  0  0  2  0  0  0  0  0  0
  1 10  1  6  0  0  0
  1 20  1  0  0  0  0
  1 13  1  0  0  0  0
  1 18  1  0  0  0  0
  2 16  1  0  0  0  0
  3  7  1  0  0  0  0
  4  8  1  0  0  0  0
  5  2  1  0  0  0  0
  5  7  1  0  0  0  0
  6  4  1  0  0  0  0
  6  2  1  0  0  0  0
  7 19  2  0  0  0  0
  8 12  1  0  0  0  0
  9 17  1  0  0  0  0
  9  6  1  0  0  0  0
 11 16  1  0  0  0  0
 11 23  1  0  0  0  0
 13  9  1  0  0  0  0
 14 21  1  0  0  0  0
 14 15  1  0  0  0  0
 15  3  1  0  0  0  0
 16 12  1  0  0  0  0
 17  5  1  0  0  0  0
 18  4  1  0  0  0  0
 19 23  1  0  0  0  0
 19 25  1  0  0  0  0
 21 15  1  0  0  0  0
 22 21  1  0  0  0  0
 22 17  1  0  0  0  0
 24 30  1  0  0  0  0
 25 24  2  0  0  0  0
 26 25  1  0  0  0  0
 26 29  2  0  0  0  0
 27 29  1  0  0  0  0
 28 30  2  0  0  0  0
 29 28  1  0  0  0  0
 32 34  1  0  0  0  0
 32 31  2  0  0  0  0
 33 35  2  0  0  0  0
 33 14  1  0  0  0  0
 34 33  1  0  0  0  0
 36 37  1  0  0  0  0
 37 32  1  0  0  0  0
M  END
>  <MODEL>
5

>  <REMARK>
 VINA RESULT:      -7.4      2.308      4.147
  Name = 
  3 active torsions:
  status: ('A' for Active; 'I' for Inactive)
    1  A    between atoms: C_4  and  C_37
    2  A    between atoms: C_8  and  C_18
    3  A    between atoms: C_23  and  C_30
                            x       y       z     vdW  Elec       q    Type
                         _______ _______ _______ _____ _____    ______ ____

>  <TORSDO>
F 3

$$$$
=
 OpenBabel11112417203D

 37 43  0  0  1  0  0  0  0  0999 V2000
  187.5610  176.3940  143.9640 C   0  0  1  0  0  0  0  0  0  0  0  0
  191.8530  176.6330  144.0750 C   0  0  1  0  0  3  0  0  0  0  0  0
  194.0040  173.7100  142.6370 C   0  0  0  0  0  2  0  0  0  0  0  0
  189.5950  177.9000  144.3990 C   0  0  2  0  0  3  0  0  0  0  0  0
  192.1010  175.2900  143.4060 C   0  0  1  0  0  3  0  0  0  0  0  0
  190.4790  176.9890  143.5160 C   0  0  2  0  0  3  0  0  0  0  0  0
  193.2410  174.3410  143.8050 C   0  0  0  0  0  0  0  0  0  0  0  0
  189.6740  177.5410  145.8140 N   0  0  0  0  0  2  0  0  0  0  0  0
  189.8230  175.6810  143.0510 C   0  0  2  0  0  3  0  0  0  0  0  0
  186.6450  176.2210  142.7700 C   0  0  0  0  0  1  0  0  0  0  0  0
  191.5330  175.2220  146.1670 C   0  0  0  0  0  2  0  0  0  0  0  0
  191.0570  177.6800  146.2430 C   0  0  0  0  0  2  0  0  0  0  0  0
  188.6360  175.2960  143.9330 C   0  0  0  0  0  2  0  0  0  0  0  0
  192.8630  172.6480  140.4760 C   0  0  1  0  0  3  0  0  0  0  0  0
  193.1950  173.8350  141.3540 C   0  0  1  0  0  3  0  0  0  0  0  0
  191.9040  176.5820  145.6110 C   0  0  2  0  0  3  0  0  0  0  0  0
  190.8300  174.6230  143.0710 N   0  0  1  0  0  0  0  0  0  0  0  0
  188.1410  177.8220  143.9290 C   0  0  0  0  0  2  0  0  0  0  0  0
  193.4730  173.8980  145.0750 C   0  0  0  0  0  0  0  0  0  0  0  0
  186.8080  176.2430  145.1280 O   0  0  0  0  0  1  0  0  0  0  0  0
  191.9630  172.9910  141.6590 C   0  0  1  0  0  3  0  0  0  0  0  0
  190.8930  174.0730  141.7050 C   0  0  0  0  0  2  0  0  0  0  0  0
  192.8100  174.4280  146.3300 C   0  0  0  0  0  2  0  0  0  0  0  0
  195.8390  173.1970  145.4970 C   0  0  0  0  0  3  0  0  0  0  0  0
  194.4900  172.8480  145.3370 C   0  0  0  0  0  0  0  0  0  0  0  0
  194.1190  171.5430  145.4750 N   0  0  0  0  0  0  0  0  0  0  0  0
  194.5660  169.1530  145.8740 C   0  0  0  0  0  1  0  0  0  0  0  0
  196.3720  170.8760  145.8950 C   0  0  0  0  0  3  0  0  0  0  0  0
  195.0210  170.5620  145.7420 C   0  0  0  0  0  0  0  0  0  0  0  0
  196.7800  172.2050  145.7730 C   0  0  0  0  0  3  0  0  0  0  0  0
  191.4920  170.2830  139.7290 O   0  0  0  0  0  0  0  0  0  0  0  0
  190.8760  170.9360  138.8450 C   0  0  0  0  0  0  0  0  0  0  0  0
  192.2410  173.0760  139.1780 C   0  0  0  0  0  0  0  0  0  0  0  0
  191.2640  172.2730  138.5020 N   0  0  0  0  0  2  0  0  0  0  0  0
  192.5960  174.1650  138.6520 O   0  0  0  0  0  0  0  0  0  0  0  0
  190.0670  168.9420  137.8880 O   0  0  0  0  0  1  0  0  0  0  0  0
  189.7650  170.2870  138.1000 C   0  0  0  0  0  2  0  0  0  0  0  0
  1 10  1  6  0  0  0
  1 20  1  0  0  0  0
  2 16  1  0  0  0  0
  3  7  1  0  0  0  0
  4  8  1  0  0  0  0
  5  7  1  0  0  0  0
  5  2  1  0  0  0  0
  6  2  1  0  0  0  0
  6  4  1  0  0  0  0
  7 19  2  0  0  0  0
  8 12  1  0  0  0  0
  9 17  1  0  0  0  0
  9  6  1  0  0  0  0
  9 13  1  0  0  0  0
 11 23  1  0  0  0  0
 13  1  1  0  0  0  0
 14 15  1  0  0  0  0
 14 21  1  0  0  0  0
 15 21  1  0  0  0  0
 15  3  1  0  0  0  0
 16 11  1  0  0  0  0
 16 12  1  0  0  0  0
 17  5  1  0  0  0  0
 18  1  1  0  0  0  0
 18  4  1  0  0  0  0
 19 25  1  0  0  0  0
 19 23  1  0  0  0  0
 21 22  1  0  0  0  0
 22 17  1  0  0  0  0
 24 30  1  0  0  0  0
 25 26  1  0  0  0  0
 25 24  2  0  0  0  0
 26 29  2  0  0  0  0
 29 27  1  0  0  0  0
 29 28  1  0  0  0  0
 30 28  2  0  0  0  0
 32 31  2  0  0  0  0
 33 14  1  0  0  0  0
 34 32  1  0  0  0  0
 34 33  1  0  0  0  0
 35 33  2  0  0  0  0
 36 37  1  0  0  0  0
 37 32  1  0  0  0  0
M  END
>  <MODEL>
6

>  <REMARK>
 VINA RESULT:      -7.3      2.887      6.832
  Name = 
  3 active torsions:
  status: ('A' for Active; 'I' for Inactive)
    1  A    between atoms: C_4  and  C_37
    2  A    between atoms: C_8  and  C_18
    3  A    between atoms: C_23  and  C_30
                            x       y       z     vdW  Elec       q    Type
                         _______ _______ _______ _____ _____    ______ ____

>  <TORSDO>
F 3

$$$$
=
 OpenBabel11112417203D

 37 43  0  0  1  0  0  0  0  0999 V2000
  191.7030  175.7250  145.3560 C   0  0  1  0  0  0  0  0  0  0  0  0
  189.3630  172.7680  143.2880 C   0  0  1  0  0  3  0  0  0  0  0  0
  191.1300  169.7490  141.5580 C   0  0  0  0  0  2  0  0  0  0  0  0
  189.3420  174.8240  144.8950 C   0  0  2  0  0  3  0  0  0  0  0  0
  190.5420  171.9050  142.8650 C   0  0  1  0  0  3  0  0  0  0  0  0
  189.9240  173.4360  144.5400 C   0  0  2  0  0  3  0  0  0  0  0  0
  190.6280  171.1940  141.5070 C   0  0  0  0  0  0  0  0  0  0  0  0
  189.1540  175.6620  143.7130 N   0  0  0  0  0  2  0  0  0  0  0  0
  191.4550  173.3650  144.4480 C   0  0  2  0  0  3  0  0  0  0  0  0
  192.6670  175.5440  146.5100 C   0  0  0  0  0  1  0  0  0  0  0  0
  190.0130  174.1670  141.2660 C   0  0  0  0  0  2  0  0  0  0  0  0
  188.2270  174.9860  142.8180 C   0  0  0  0  0  2  0  0  0  0  0  0
  192.0760  174.7440  144.2330 C   0  0  0  0  0  2  0  0  0  0  0  0
  193.2290  168.9200  142.9730 C   0  0  1  0  0  3  0  0  0  0  0  0
  191.8280  169.4820  142.8840 C   0  0  1  0  0  3  0  0  0  0  0  0
  188.8990  173.7610  142.2100 C   0  0  2  0  0  3  0  0  0  0  0  0
  191.8140  172.4730  143.3480 N   0  0  1  0  0  0  0  0  0  0  0  0
  190.2680  175.5340  145.8860 C   0  0  0  0  0  2  0  0  0  0  0  0
  190.4770  171.8100  140.2980 C   0  0  0  0  0  0  0  0  0  0  0  0
  191.8320  177.0250  144.8680 O   0  0  0  0  0  1  0  0  0  0  0  0
  193.0240  170.4240  142.8210 C   0  0  1  0  0  3  0  0  0  0  0  0
  192.6560  171.4090  143.9220 C   0  0  0  0  0  2  0  0  0  0  0  0
  189.9800  173.2240  140.0830 C   0  0  0  0  0  2  0  0  0  0  0  0
  189.7060  170.4220  138.3620 C   0  0  0  0  0  3  0  0  0  0  0  0
  190.7480  171.0760  139.0350 C   0  0  0  0  0  0  0  0  0  0  0  0
  191.9990  171.0730  138.4910 N   0  0  0  0  0  0  0  0  0  0  0  0
  193.6570  170.4530  136.7770 C   0  0  0  0  0  1  0  0  0  0  0  0
  191.2610  169.7640  136.6360 C   0  0  0  0  0  3  0  0  0  0  0  0
  192.2750  170.4340  137.3230 C   0  0  0  0  0  0  0  0  0  0  0  0
  189.9690  169.7620  137.1610 C   0  0  0  0  0  3  0  0  0  0  0  0
  196.0590  168.9090  142.8160 O   0  0  0  0  0  0  0  0  0  0  0  0
  196.1150  168.8730  144.0740 C   0  0  0  0  0  0  0  0  0  0  0  0
  193.5930  168.5630  144.3860 C   0  0  0  0  0  0  0  0  0  0  0  0
  194.9430  168.6320  144.8640 N   0  0  0  0  0  2  0  0  0  0  0  0
  192.6920  168.1720  145.1770 O   0  0  0  0  0  0  0  0  0  0  0  0
  197.3410  169.9970  145.7410 O   0  0  0  0  0  1  0  0  0  0  0  0
  197.4310  169.0200  144.7500 C   0  0  0  0  0  2  0  0  0  0  0  0
  1 18  1  0  0  0  0
  1 10  1  1  0  0  0
  2  6  1  0  0  0  0
  3 15  1  0  0  0  0
  4 18  1  0  0  0  0
  5  2  1  0  0  0  0
  5 17  1  0  0  0  0
  6  4  1  0  0  0  0
  7  3  1  0  0  0  0
  7  5  1  0  0  0  0
  8  4  1  0  0  0  0
  9  6  1  0  0  0  0
 11 16  1  0  0  0  0
 12  8  1  0  0  0  0
 13  9  1  0  0  0  0
 13  1  1  0  0  0  0
 14 33  1  0  0  0  0
 15 14  1  0  0  0  0
 16 12  1  0  0  0  0
 16  2  1  0  0  0  0
 17 22  1  0  0  0  0
 17  9  1  0  0  0  0
 19  7  2  0  0  0  0
 20  1  1  0  0  0  0
 21 15  1  0  0  0  0
 21 14  1  0  0  0  0
 21 22  1  0  0  0  0
 23 19  1  0  0  0  0
 23 11  1  0  0  0  0
 24 25  1  0  0  0  0
 25 19  1  0  0  0  0
 26 25  2  0  0  0  0
 27 29  1  0  0  0  0
 28 30  1  0  0  0  0
 28 29  2  0  0  0  0
 29 26  1  0  0  0  0
 30 24  2  0  0  0  0
 31 32  2  0  0  0  0
 32 37  1  0  0  0  0
 32 34  1  0  0  0  0
 33 34  1  0  0  0  0
 33 35  2  0  0  0  0
 37 36  1  0  0  0  0
M  END
>  <MODEL>
7

>  <REMARK>
 VINA RESULT:      -6.7      4.011      7.545
  Name = 
  3 active torsions:
  status: ('A' for Active; 'I' for Inactive)
    1  A    between atoms: C_4  and  C_37
    2  A    between atoms: C_8  and  C_18
    3  A    between atoms: C_23  and  C_30
                            x       y       z     vdW  Elec       q    Type
                         _______ _______ _______ _____ _____    ______ ____

>  <TORSDO>
F 3

$$$$
=
 OpenBabel11112417203D

 37 43  0  0  1  0  0  0  0  0999 V2000
  196.3840  174.2000  138.9130 C   0  0  1  0  0  0  0  0  0  0  0  0
  196.2510  174.1940  143.2110 C   0  0  1  0  0  3  0  0  0  0  0  0
  193.2650  172.4960  145.0650 C   0  0  0  0  0  2  0  0  0  0  0  0
  197.6780  174.6740  141.0800 C   0  0  2  0  0  3  0  0  0  0  0  0
  194.9420  173.4280  143.3260 C   0  0  1  0  0  3  0  0  0  0  0  0
  196.7600  173.7030  141.8590 C   0  0  2  0  0  3  0  0  0  0  0  0
  193.8750  173.7270  144.3880 C   0  0  0  0  0  0  0  0  0  0  0  0
  197.2150  176.0570  141.1630 N   0  0  0  0  0  2  0  0  0  0  0  0
  195.5470  173.1720  141.0810 C   0  0  2  0  0  3  0  0  0  0  0  0
  196.3720  173.0260  137.9550 C   0  0  0  0  0  1  0  0  0  0  0  0
  194.7290  176.1950  142.8230 C   0  0  0  0  0  2  0  0  0  0  0  0
  197.2060  176.4520  142.5630 C   0  0  0  0  0  2  0  0  0  0  0  0
  195.2030  174.0620  139.8880 C   0  0  0  0  0  2  0  0  0  0  0  0
  192.4570  170.3050  143.7830 C   0  0  1  0  0  3  0  0  0  0  0  0
  193.5470  171.2500  144.2370 C   0  0  1  0  0  3  0  0  0  0  0  0
  196.0880  175.7210  143.2960 C   0  0  2  0  0  3  0  0  0  0  0  0
  194.4090  173.0880  141.9930 N   0  0  1  0  0  0  0  0  0  0  0  0
  197.7560  174.2450  139.6130 C   0  0  0  0  0  2  0  0  0  0  0  0
  193.3250  174.9560  144.6130 C   0  0  0  0  0  0  0  0  0  0  0  0
  196.2150  175.3740  138.1790 O   0  0  0  0  0  1  0  0  0  0  0  0
  192.7910  171.5350  142.9450 C   0  0  1  0  0  3  0  0  0  0  0  0
  193.9540  171.6870  141.9750 C   0  0  0  0  0  2  0  0  0  0  0  0
  193.8200  176.2640  144.0310 C   0  0  0  0  0  2  0  0  0  0  0  0
  192.3920  175.1560  146.9280 C   0  0  0  0  0  3  0  0  0  0  0  0
  192.1780  175.1150  145.5430 C   0  0  0  0  0  0  0  0  0  0  0  0
  190.9120  175.2730  145.0590 N   0  0  0  0  0  0  0  0  0  0  0  0
  188.4830  175.6070  145.3040 C   0  0  0  0  0  1  0  0  0  0  0  0
  190.0240  175.4810  147.2650 C   0  0  0  0  0  3  0  0  0  0  0  0
  189.8440  175.4480  145.8810 C   0  0  0  0  0  0  0  0  0  0  0  0
  191.3080  175.3350  147.7880 C   0  0  0  0  0  3  0  0  0  0  0  0
  190.4370  169.6610  141.9010 O   0  0  0  0  0  0  0  0  0  0  0  0
  191.2170  168.8270  141.3690 C   0  0  0  0  0  0  0  0  0  0  0  0
  193.0260  169.0580  143.1670 C   0  0  0  0  0  0  0  0  0  0  0  0
  192.4510  168.4580  141.9980 N   0  0  0  0  0  2  0  0  0  0  0  0
  194.0280  168.5080  143.6990 O   0  0  0  0  0  0  0  0  0  0  0  0
  190.1660  169.0850  139.2780 O   0  0  0  0  0  1  0  0  0  0  0  0
  190.8230  168.1680  140.0970 C   0  0  0  0  0  2  0  0  0  0  0  0
  1 10  1  6  0  0  0
  1 18  1  0  0  0  0
  1 13  1  0  0  0  0
  2 16  1  0  0  0  0
  2  5  1  0  0  0  0
  4  8  1  0  0  0  0
  4  6  1  0  0  0  0
  5  7  1  0  0  0  0
  6  2  1  0  0  0  0
  7 19  2  0  0  0  0
  7  3  1  0  0  0  0
  8 12  1  0  0  0  0
  9  6  1  0  0  0  0
  9 17  1  0  0  0  0
 11 16  1  0  0  0  0
 11 23  1  0  0  0  0
 12 16  1  0  0  0  0
 13  9  1  0  0  0  0
 14 15  1  0  0  0  0
 15  3  1  0  0  0  0
 17  5  1  0  0  0  0
 18  4  1  0  0  0  0
 19 25  1  0  0  0  0
 20  1  1  0  0  0  0
 21 14  1  0  0  0  0
 21 15  1  0  0  0  0
 22 17  1  0  0  0  0
 22 21  1  0  0  0  0
 23 19  1  0  0  0  0
 24 30  1  0  0  0  0
 25 24  2  0  0  0  0
 26 25  1  0  0  0  0
 26 29  2  0  0  0  0
 27 29  1  0  0  0  0
 28 30  2  0  0  0  0
 29 28  1  0  0  0  0
 32 31  2  0  0  0  0
 32 34  1  0  0  0  0
 33 35  2  0  0  0  0
 33 14  1  0  0  0  0
 34 33  1  0  0  0  0
 36 37  1  0  0  0  0
 37 32  1  0  0  0  0
M  END
>  <MODEL>
8

>  <REMARK>
 VINA RESULT:      -6.6      3.884      6.338
  Name = 
  3 active torsions:
  status: ('A' for Active; 'I' for Inactive)
    1  A    between atoms: C_4  and  C_37
    2  A    between atoms: C_8  and  C_18
    3  A    between atoms: C_23  and  C_30
                            x       y       z     vdW  Elec       q    Type
                         _______ _______ _______ _____ _____    ______ ____

>  <TORSDO>
F 3

$$$$
=
 OpenBabel11112417203D

 37 43  0  0  1  0  0  0  0  0999 V2000
  188.4420  176.4770  143.7580 C   0  0  1  0  0  0  0  0  0  0  0  0
  192.7030  176.3900  144.3370 C   0  0  1  0  0  3  0  0  0  0  0  0
  194.8710  173.7520  142.4470 C   0  0  0  0  0  2  0  0  0  0  0  0
  190.4790  177.6950  144.7410 C   0  0  2  0  0  3  0  0  0  0  0  0
  192.9650  175.2300  143.3890 C   0  0  1  0  0  3  0  0  0  0  0  0
  191.4150  176.9610  143.7520 C   0  0  2  0  0  3  0  0  0  0  0  0
  194.0120  174.1380  143.6540 C   0  0  0  0  0  0  0  0  0  0  0  0
  190.3860  177.0060  146.0260 N   0  0  0  0  0  2  0  0  0  0  0  0
  190.7580  175.8480  142.9220 C   0  0  2  0  0  3  0  0  0  0  0  0
  187.6560  176.6550  142.4750 C   0  0  0  0  0  1  0  0  0  0  0  0
  192.0940  174.5490  145.9830 C   0  0  0  0  0  2  0  0  0  0  0  0
  191.7180  176.9440  146.6080 C   0  0  0  0  0  2  0  0  0  0  0  0
  189.4660  175.3470  143.5650 C   0  0  0  0  0  2  0  0  0  0  0  0
  193.9310  173.3120  139.9930 C   0  0  1  0  0  3  0  0  0  0  0  0
  194.2140  174.2320  141.1610 C   0  0  1  0  0  3  0  0  0  0  0  0
  192.5820  175.9730  145.8130 C   0  0  2  0  0  3  0  0  0  0  0  0
  191.7100  174.7490  142.7810 N   0  0  1  0  0  0  0  0  0  0  0  0
  189.0830  177.8300  144.1280 C   0  0  0  0  0  2  0  0  0  0  0  0
  194.0840  173.3920  144.7950 C   0  0  0  0  0  0  0  0  0  0  0  0
  187.5600  176.1060  144.7720 O   0  0  0  0  0  1  0  0  0  0  0  0
  192.9210  173.4250  141.1310 C   0  0  1  0  0  3  0  0  0  0  0  0
  191.9000  174.5360  141.3360 C   0  0  0  0  0  2  0  0  0  0  0  0
  193.3100  173.6530  146.0710 C   0  0  0  0  0  2  0  0  0  0  0  0
  196.3040  172.4230  145.4250 C   0  0  0  0  0  3  0  0  0  0  0  0
  195.0200  172.2430  144.8910 C   0  0  0  0  0  0  0  0  0  0  0  0
  194.6260  170.9940  144.5080 N   0  0  0  0  0  0  0  0  0  0  0  0
  194.9740  168.5790  144.1700 C   0  0  0  0  0  1  0  0  0  0  0  0
  196.7360  170.0660  145.1260 C   0  0  0  0  0  3  0  0  0  0  0  0
  195.4490  169.9170  144.6090 C   0  0  0  0  0  0  0  0  0  0  0  0
  197.1630  171.3290  145.5370 C   0  0  0  0  0  3  0  0  0  0  0  0
  192.5600  171.2880  138.5590 O   0  0  0  0  0  0  0  0  0  0  0  0
  192.0720  172.1710  137.8050 C   0  0  0  0  0  0  0  0  0  0  0  0
  193.4740  174.0770  138.7840 C   0  0  0  0  0  0  0  0  0  0  0  0
  192.5480  173.5230  137.8400 N   0  0  0  0  0  2  0  0  0  0  0  0
  193.9270  175.2350  138.5780 O   0  0  0  0  0  0  0  0  0  0  0  0
  190.8870  170.4050  136.7950 O   0  0  0  0  0  1  0  0  0  0  0  0
  191.0280  171.7920  136.8180 C   0  0  0  0  0  2  0  0  0  0  0  0
  1 10  1  6  0  0  0
  1 18  1  0  0  0  0
  1 20  1  0  0  0  0
  2 16  1  0  0  0  0
  3  7  1  0  0  0  0
  4  8  1  0  0  0  0
  5  7  1  0  0  0  0
  5  2  1  0  0  0  0
  6  2  1  0  0  0  0
  6  4  1  0  0  0  0
  7 19  2  0  0  0  0
  8 12  1  0  0  0  0
  9 13  1  0  0  0  0
  9  6  1  0  0  0  0
 11 23  1  0  0  0  0
 13  1  1  0  0  0  0
 14 21  1  0  0  0  0
 14 15  1  0  0  0  0
 15  3  1  0  0  0  0
 16 11  1  0  0  0  0
 16 12  1  0  0  0  0
 17  9  1  0  0  0  0
 17  5  1  0  0  0  0
 18  4  1  0  0  0  0
 19 25  1  0  0  0  0
 19 23  1  0  0  0  0
 21 15  1  0  0  0  0
 21 22  1  0  0  0  0
 22 17  1  0  0  0  0
 24 30  1  0  0  0  0
 25 24  2  0  0  0  0
 26 29  2  0  0  0  0
 26 25  1  0  0  0  0
 27 29  1  0  0  0  0
 28 30  2  0  0  0  0
 29 28  1  0  0  0  0
 32 34  1  0  0  0  0
 32 31  2  0  0  0  0
 33 14  1  0  0  0  0
 34 33  1  0  0  0  0
 35 33  2  0  0  0  0
 36 37  1  0  0  0  0
 37 32  1  0  0  0  0
M  END
>  <MODEL>
9

>  <REMARK>
 VINA RESULT:      -6.6      3.253      7.028
  Name = 
  3 active torsions:
  status: ('A' for Active; 'I' for Inactive)
    1  A    between atoms: C_4  and  C_37
    2  A    between atoms: C_8  and  C_18
    3  A    between atoms: C_23  and  C_30
                            x       y       z     vdW  Elec       q    Type
                         _______ _______ _______ _____ _____    ______ ____

>  <TORSDO>
F 3

$$$$
