=
 OpenBabel11112416543D

 31 35  0  0  1  0  0  0  0  0999 V2000
  190.0410  173.3640  141.7420 C   0  0  0  0  0  0  0  0  0  0  0  0
  190.7590  174.2020  145.3830 C   0  0  2  0  0  3  0  0  0  0  0  0
  191.9640  175.1170  145.5270 C   0  0  0  0  0  0  0  0  0  0  0  0
  194.0950  176.0700  144.6480 C   0  0  2  0  0  3  0  0  0  0  0  0
  190.1850  174.2490  143.9910 C   0  0  0  0  0  0  0  0  0  0  0  0
  189.1620  174.3940  141.3910 C   0  0  0  0  0  3  0  0  0  0  0  0
  192.9050  175.1530  144.5720 C   0  0  0  0  0  3  0  0  0  0  0  0
  188.7550  175.6830  146.0190 C   0  0  0  0  0  0  0  0  0  0  0  0
  190.4060  172.4140  140.7990 O   0  0  0  0  0  1  0  0  0  0  0  0
  191.3500  175.7430  147.8210 C   0  0  0  0  0  3  0  0  0  0  0  0
  195.1550  175.5200  143.9530 F   0  0  0  0  0  0  0  0  0  0  0  0
  188.9110  176.3110  144.6540 C   0  0  0  0  0  2  0  0  0  0  0  0
  189.6550  174.5300  146.4220 C   0  0  2  0  0  3  0  0  0  0  0  0
  187.8560  176.0930  146.8660 N   0  0  0  0  0  0  0  0  0  0  0  0
  190.5550  173.2940  143.0400 C   0  0  0  0  0  3  0  0  0  0  0  0
  194.5030  176.3410  146.0950 C   0  0  0  0  0  2  0  0  0  0  0  0
  189.2950  175.2800  143.6400 C   0  0  0  0  0  0  0  0  0  0  0  0
  188.7920  175.3530  142.3380 C   0  0  0  0  0  3  0  0  0  0  0  0
  190.2530  174.7200  147.8190 C   0  0  0  0  0  2  0  0  0  0  0  0
  192.1740  175.8860  146.7830 C   0  0  0  0  0  0  0  0  0  0  0  0
  193.3040  176.8640  146.8810 C   0  0  0  0  0  2  0  0  0  0  0  0
  187.2070  178.3570  146.9000 O   0  0  0  0  0  0  0  0  0  0  0  0
  186.8970  177.1520  146.6980 C   0  0  0  0  0  0  0  0  0  0  0  0
  184.6180  178.3950  143.9390 C   0  0  1  0  0  3  0  0  0  0  0  0
  185.4350  176.2180  144.8820 C   0  0  0  0  0  2  0  0  0  0  0  0
  184.6200  178.6140  147.6680 O   0  0  0  0  0  1  0  0  0  0  0  0
  184.8350  179.3510  142.9490 O   0  0  0  0  0  1  0  0  0  0  0  0
  185.6450  177.2770  143.7990 C   0  0  0  0  0  2  0  0  0  0  0  0
  184.5160  178.0130  146.4120 C   0  0  2  0  0  3  0  0  0  0  0  0
  185.4890  176.8290  146.2860 C   0  0  2  0  0  3  0  0  0  0  0  0
  184.7340  179.0510  145.3120 C   0  0  0  0  0  2  0  0  0  0  0  0
  1 15  1  0  0  0  0
  2  5  1  6  0  0  0
  2  3  1  0  0  0  0
  2 13  1  0  0  0  0
  3 20  1  0  0  0  0
  4 11  1  6  0  0  0
  4 16  1  0  0  0  0
  6  1  2  0  0  0  0
  6 18  1  0  0  0  0
  7  4  1  0  0  0  0
  7  3  2  0  0  0  0
  8 13  1  0  0  0  0
  8 14  2  0  0  0  0
  9  1  1  0  0  0  0
 12  8  1  0  0  0  0
 13 19  1  1  0  0  0
 15  5  2  0  0  0  0
 16 21  1  0  0  0  0
 17  5  1  0  0  0  0
 17 12  1  0  0  0  0
 18 17  2  0  0  0  0
 19 10  1  0  0  0  0
 20 21  1  0  0  0  0
 20 10  2  0  0  0  0
 23 14  1  0  0  0  0
 23 22  2  0  0  0  0
 24 27  1  6  0  0  0
 24 31  1  0  0  0  0
 25 30  1  0  0  0  0
 28 24  1  0  0  0  0
 28 25  1  0  0  0  0
 29 26  1  1  0  0  0
 30 29  1  0  0  0  0
 30 23  1  6  0  0  0
 31 29  1  0  0  0  0
M  END
>  <MODEL>
1

>  <REMARK>
 VINA RESULT:      -8.9      0.000      0.000
  Name = 
  2 active torsions:
  status: ('A' for Active; 'I' for Inactive)
    1  A    between atoms: C_5  and  N_16
    2  A    between atoms: C_5  and  C_30
                            x       y       z     vdW  Elec       q    Type
                         _______ _______ _______ _____ _____    ______ ____

>  <TORSDO>
F 2

$$$$
=
 OpenBabel11112416543D

 31 35  0  0  1  0  0  0  0  0999 V2000
  190.4030  171.5330  142.6130 C   0  0  0  0  0  0  0  0  0  0  0  0
  190.8020  173.6930  145.7200 C   0  0  2  0  0  3  0  0  0  0  0  0
  192.1050  174.4740  145.7040 C   0  0  0  0  0  0  0  0  0  0  0  0
  194.4440  174.7950  144.8990 C   0  0  2  0  0  3  0  0  0  0  0  0
  190.4100  173.2290  144.3400 C   0  0  0  0  0  0  0  0  0  0  0  0
  189.7370  172.4100  141.7520 C   0  0  0  0  0  3  0  0  0  0  0  0
  193.1470  174.0380  144.9810 C   0  0  0  0  0  3  0  0  0  0  0  0
  188.9820  175.4810  145.3910 C   0  0  0  0  0  0  0  0  0  0  0  0
  190.7300  170.2540  142.1830 O   0  0  0  0  0  1  0  0  0  0  0  0
  191.3230  176.0220  147.4430 C   0  0  0  0  0  3  0  0  0  0  0  0
  195.4840  173.9190  144.6570 F   0  0  0  0  0  0  0  0  0  0  0  0
  189.3920  175.4900  143.9380 C   0  0  0  0  0  2  0  0  0  0  0  0
  189.6440  174.5090  146.3510 C   0  0  2  0  0  3  0  0  0  0  0  0
  188.0610  176.2770  145.8520 N   0  0  0  0  0  0  0  0  0  0  0  0
  190.7430  171.9420  143.9060 C   0  0  0  0  0  3  0  0  0  0  0  0
  194.7140  175.5860  146.1780 C   0  0  0  0  0  2  0  0  0  0  0  0
  189.7340  174.1080  143.4770 C   0  0  0  0  0  0  0  0  0  0  0  0
  189.4060  173.6990  142.1810 C   0  0  0  0  0  3  0  0  0  0  0  0
  190.0930  175.1890  147.6480 C   0  0  0  0  0  2  0  0  0  0  0  0
  192.2770  175.6610  146.5850 C   0  0  0  0  0  0  0  0  0  0  0  0
  193.5220  176.4880  146.4890 C   0  0  0  0  0  2  0  0  0  0  0  0
  187.7710  178.4030  144.8820 O   0  0  0  0  0  0  0  0  0  0  0  0
  187.2990  177.2610  145.1320 C   0  0  0  0  0  0  0  0  0  0  0  0
  185.3590  177.9520  141.9520 C   0  0  1  0  0  3  0  0  0  0  0  0
  185.9090  176.0160  143.4510 C   0  0  0  0  0  2  0  0  0  0  0  0
  185.0870  179.0580  145.5090 O   0  0  0  0  0  1  0  0  0  0  0  0
  185.7350  178.6270  140.7920 O   0  0  0  0  0  1  0  0  0  0  0  0
  186.2950  176.7680  142.1760 C   0  0  0  0  0  2  0  0  0  0  0  0
  185.0310  178.1820  144.4230 C   0  0  2  0  0  3  0  0  0  0  0  0
  185.9050  176.9410  144.6720 C   0  0  2  0  0  3  0  0  0  0  0  0
  185.4230  178.9090  143.1390 C   0  0  0  0  0  2  0  0  0  0  0  0
  1 15  1  0  0  0  0
  2  5  1  6  0  0  0
  2 13  1  0  0  0  0
  3  2  1  0  0  0  0
  3 20  1  0  0  0  0
  4 11  1  1  0  0  0
  4  7  1  0  0  0  0
  4 16  1  0  0  0  0
  6 18  1  0  0  0  0
  6  1  2  0  0  0  0
  7  3  2  0  0  0  0
  8 14  2  0  0  0  0
  8 13  1  0  0  0  0
  9  1  1  0  0  0  0
 10 19  1  0  0  0  0
 12  8  1  0  0  0  0
 13 19  1  1  0  0  0
 15  5  2  0  0  0  0
 16 21  1  0  0  0  0
 17 12  1  0  0  0  0
 17  5  1  0  0  0  0
 18 17  2  0  0  0  0
 20 10  2  0  0  0  0
 21 20  1  0  0  0  0
 22 23  2  0  0  0  0
 23 14  1  0  0  0  0
 24 27  1  6  0  0  0
 24 28  1  0  0  0  0
 24 31  1  0  0  0  0
 25 30  1  0  0  0  0
 28 25  1  0  0  0  0
 29 30  1  0  0  0  0
 29 26  1  1  0  0  0
 30 23  1  6  0  0  0
 31 29  1  0  0  0  0
M  END
>  <MODEL>
2

>  <REMARK>
 VINA RESULT:      -8.8      1.350      1.570
  Name = 
  2 active torsions:
  status: ('A' for Active; 'I' for Inactive)
    1  A    between atoms: C_5  and  N_16
    2  A    between atoms: C_5  and  C_30
                            x       y       z     vdW  Elec       q    Type
                         _______ _______ _______ _____ _____    ______ ____

>  <TORSDO>
F 2

$$$$
=
 OpenBabel11112416543D

 31 35  0  0  1  0  0  0  0  0999 V2000
  194.3090  176.3520  144.8100 C   0  0  0  0  0  0  0  0  0  0  0  0
  190.9750  176.3450  142.9770 C   0  0  2  0  0  3  0  0  0  0  0  0
  190.5380  174.9380  142.6010 C   0  0  0  0  0  0  0  0  0  0  0  0
  191.0610  172.5450  142.1350 C   0  0  2  0  0  3  0  0  0  0  0  0
  192.0000  176.3350  144.0810 C   0  0  0  0  0  0  0  0  0  0  0  0
  193.8920  176.2450  146.1400 C   0  0  0  0  0  3  0  0  0  0  0  0
  191.4460  173.9610  142.4660 C   0  0  0  0  0  3  0  0  0  0  0  0
  189.3260  177.0530  144.8190 C   0  0  0  0  0  0  0  0  0  0  0  0
  195.6630  176.4130  144.5120 O   0  0  0  0  0  1  0  0  0  0  0  0
  188.2180  175.6470  142.2150 C   0  0  0  0  0  3  0  0  0  0  0  0
  192.0980  171.9210  141.4680 F   0  0  0  0  0  0  0  0  0  0  0  0
  190.1210  176.1580  145.7390 C   0  0  0  0  0  2  0  0  0  0  0  0
  189.7720  177.2370  143.3800 C   0  0  2  0  0  3  0  0  0  0  0  0
  188.2660  177.6910  145.2250 N   0  0  0  0  0  0  0  0  0  0  0  0
  193.3640  176.3930  143.7800 C   0  0  0  0  0  3  0  0  0  0  0  0
  189.7900  172.4910  141.2900 C   0  0  0  0  0  2  0  0  0  0  0  0
  191.5810  176.2360  145.4190 C   0  0  0  0  0  0  0  0  0  0  0  0
  192.5280  176.1840  146.4450 C   0  0  0  0  0  3  0  0  0  0  0  0
  188.6150  177.0820  142.3890 C   0  0  0  0  0  2  0  0  0  0  0  0
  189.1160  174.6630  142.2580 C   0  0  0  0  0  0  0  0  0  0  0  0
  188.6710  173.2580  141.9910 C   0  0  0  0  0  2  0  0  0  0  0  0
  188.3660  177.8380  147.5730 O   0  0  0  0  0  0  0  0  0  0  0  0
  187.6710  177.6770  146.5350 C   0  0  0  0  0  0  0  0  0  0  0  0
  184.6740  178.3690  144.3220 C   0  0  1  0  0  3  0  0  0  0  0  0
  185.6590  176.4710  145.6370 C   0  0  0  0  0  2  0  0  0  0  0  0
  185.8990  179.6730  147.6010 O   0  0  0  0  0  1  0  0  0  0  0  0
  184.5990  178.9490  143.0580 O   0  0  0  0  0  1  0  0  0  0  0  0
  185.5520  177.1220  144.2570 C   0  0  0  0  0  2  0  0  0  0  0  0
  185.3660  178.7500  146.6980 C   0  0  2  0  0  3  0  0  0  0  0  0
  186.1930  177.4540  146.6840 C   0  0  2  0  0  3  0  0  0  0  0  0
  185.2590  179.3750  145.3090 C   0  0  0  0  0  2  0  0  0  0  0  0
  1  6  1  0  0  0  0
  2  3  1  1  0  0  0
  2 13  1  0  0  0  0
  2  5  1  0  0  0  0
  4 11  1  6  0  0  0
  4  7  1  0  0  0  0
  5 17  2  0  0  0  0
  6 18  2  0  0  0  0
  7  3  2  0  0  0  0
  8 14  2  0  0  0  0
  8 12  1  0  0  0  0
  9  1  1  0  0  0  0
 10 20  2  0  0  0  0
 10 19  1  0  0  0  0
 13 19  1  6  0  0  0
 13  8  1  0  0  0  0
 14 23  1  0  0  0  0
 15  5  1  0  0  0  0
 15  1  2  0  0  0  0
 16 21  1  0  0  0  0
 16  4  1  0  0  0  0
 17 12  1  0  0  0  0
 17 18  1  0  0  0  0
 20  3  1  0  0  0  0
 21 20  1  0  0  0  0
 23 22  2  0  0  0  0
 24 27  1  6  0  0  0
 24 31  1  0  0  0  0
 25 30  1  0  0  0  0
 28 24  1  0  0  0  0
 28 25  1  0  0  0  0
 29 26  1  1  0  0  0
 30 23  1  6  0  0  0
 30 29  1  0  0  0  0
 31 29  1  0  0  0  0
M  END
>  <MODEL>
3

>  <REMARK>
 VINA RESULT:      -8.8      2.090      4.255
  Name = 
  2 active torsions:
  status: ('A' for Active; 'I' for Inactive)
    1  A    between atoms: C_5  and  N_16
    2  A    between atoms: C_5  and  C_30
                            x       y       z     vdW  Elec       q    Type
                         _______ _______ _______ _____ _____    ______ ____

>  <TORSDO>
F 2

$$$$
=
 OpenBabel11112416543D

 31 35  0  0  1  0  0  0  0  0999 V2000
  186.6620  177.5030  140.5740 C   0  0  0  0  0  0  0  0  0  0  0  0
  188.5560  177.8700  143.8530 C   0  0  2  0  0  3  0  0  0  0  0  0
  187.7640  177.3250  145.0300 C   0  0  0  0  0  0  0  0  0  0  0  0
  185.6000  176.6740  146.0860 C   0  0  2  0  0  3  0  0  0  0  0  0
  188.0610  177.3180  142.5410 C   0  0  0  0  0  0  0  0  0  0  0  0
  187.0980  176.2460  140.1430 C   0  0  0  0  0  3  0  0  0  0  0  0
  186.4260  177.2430  144.9660 C   0  0  0  0  0  3  0  0  0  0  0  0
  190.4950  176.2050  143.5640 C   0  0  0  0  0  0  0  0  0  0  0  0
  185.7500  178.2190  139.8110 O   0  0  0  0  0  1  0  0  0  0  0  0
  189.7560  177.2230  146.4630 C   0  0  0  0  0  3  0  0  0  0  0  0
  184.3390  177.2380  146.0710 F   0  0  0  0  0  0  0  0  0  0  0  0
  189.4790  175.2820  142.9330 C   0  0  0  0  0  2  0  0  0  0  0  0
  190.0760  177.5960  144.0010 C   0  0  2  0  0  3  0  0  0  0  0  0
  191.7350  175.8490  143.7360 N   0  0  0  0  0  0  0  0  0  0  0  0
  187.1390  178.0370  141.7740 C   0  0  0  0  0  3  0  0  0  0  0  0
  186.2600  176.9050  147.4440 C   0  0  0  0  0  2  0  0  0  0  0  0
  188.5060  176.0580  142.1040 C   0  0  0  0  0  0  0  0  0  0  0  0
  188.0170  175.5220  140.9090 C   0  0  0  0  0  3  0  0  0  0  0  0
  190.5600  177.9320  145.4140 C   0  0  0  0  0  2  0  0  0  0  0  0
  188.4520  176.9930  146.3060 C   0  0  0  0  0  0  0  0  0  0  0  0
  187.6850  176.3590  147.4260 C   0  0  0  0  0  2  0  0  0  0  0  0
  191.9960  173.9460  142.3740 O   0  0  0  0  0  0  0  0  0  0  0  0
  192.3540  174.5970  143.3920 C   0  0  0  0  0  0  0  0  0  0  0  0
  194.3250  175.9430  146.3340 C   0  0  1  0  0  3  0  0  0  0  0  0
  192.9920  173.9070  145.7210 C   0  0  0  0  0  2  0  0  0  0  0  0
  195.1470  174.9680  142.8230 O   0  0  0  0  0  1  0  0  0  0  0  0
  194.2700  177.1830  146.9680 O   0  0  0  0  0  1  0  0  0  0  0  0
  192.9600  175.2670  146.4200 C   0  0  0  0  0  2  0  0  0  0  0  0
  194.7760  174.7900  144.1580 C   0  0  2  0  0  3  0  0  0  0  0  0
  193.4410  174.0340  144.2620 C   0  0  2  0  0  3  0  0  0  0  0  0
  194.7270  176.1370  144.8750 C   0  0  0  0  0  2  0  0  0  0  0  0
  1 15  1  0  0  0  0
  2  5  1  6  0  0  0
  2 13  1  0  0  0  0
  2  3  1  0  0  0  0
  3 20  1  0  0  0  0
  4 11  1  1  0  0  0
  4 16  1  0  0  0  0
  6  1  2  0  0  0  0
  6 18  1  0  0  0  0
  7  3  2  0  0  0  0
  7  4  1  0  0  0  0
  8 14  2  0  0  0  0
  8 13  1  0  0  0  0
  9  1  1  0  0  0  0
 12  8  1  0  0  0  0
 13 19  1  1  0  0  0
 15  5  2  0  0  0  0
 17  5  1  0  0  0  0
 17 12  1  0  0  0  0
 18 17  2  0  0  0  0
 19 10  1  0  0  0  0
 20 10  2  0  0  0  0
 20 21  1  0  0  0  0
 21 16  1  0  0  0  0
 22 23  2  0  0  0  0
 23 14  1  0  0  0  0
 24 28  1  0  0  0  0
 24 27  1  6  0  0  0
 25 28  1  0  0  0  0
 29 26  1  6  0  0  0
 29 30  1  0  0  0  0
 29 31  1  0  0  0  0
 30 23  1  6  0  0  0
 30 25  1  0  0  0  0
 31 24  1  0  0  0  0
M  END
>  <MODEL>
4

>  <REMARK>
 VINA RESULT:      -8.7      3.395      7.054
  Name = 
  2 active torsions:
  status: ('A' for Active; 'I' for Inactive)
    1  A    between atoms: C_5  and  N_16
    2  A    between atoms: C_5  and  C_30
                            x       y       z     vdW  Elec       q    Type
                         _______ _______ _______ _____ _____    ______ ____

>  <TORSDO>
F 2

$$$$
=
 OpenBabel11112416543D

 31 35  0  0  1  0  0  0  0  0999 V2000
  187.2710  177.1540  140.5140 C   0  0  0  0  0  0  0  0  0  0  0  0
  188.5710  177.6620  144.0540 C   0  0  2  0  0  3  0  0  0  0  0  0
  187.4870  177.4320  145.0940 C   0  0  0  0  0  0  0  0  0  0  0  0
  185.0820  177.3140  145.7470 C   0  0  2  0  0  3  0  0  0  0  0  0
  188.2250  177.0190  142.7350 C   0  0  0  0  0  0  0  0  0  0  0  0
  187.5270  175.7930  140.3190 C   0  0  0  0  0  3  0  0  0  0  0  0
  186.1940  177.5690  144.7660 C   0  0  0  0  0  3  0  0  0  0  0  0
  190.1700  175.6690  144.3500 C   0  0  0  0  0  0  0  0  0  0  0  0
  186.6690  177.8960  139.5080 O   0  0  0  0  0  1  0  0  0  0  0  0
  189.1270  177.2020  146.9080 C   0  0  0  0  0  3  0  0  0  0  0  0
  183.9790  178.0740  145.4130 F   0  0  0  0  0  0  0  0  0  0  0  0
  189.1280  174.8510  143.6270 C   0  0  0  0  0  2  0  0  0  0  0  0
  189.9560  177.1600  144.5390 C   0  0  2  0  0  3  0  0  0  0  0  0
  191.2660  175.1380  144.8100 N   0  0  0  0  0  0  0  0  0  0  0  0
  187.6160  177.7660  141.7220 C   0  0  0  0  0  3  0  0  0  0  0  0
  185.5160  177.6220  147.1790 C   0  0  0  0  0  2  0  0  0  0  0  0
  188.4900  175.6530  142.5360 C   0  0  0  0  0  0  0  0  0  0  0  0
  188.1330  175.0410  141.3310 C   0  0  0  0  0  3  0  0  0  0  0  0
  190.2300  177.6080  145.9770 C   0  0  0  0  0  2  0  0  0  0  0  0
  187.8540  177.1750  146.5130 C   0  0  0  0  0  0  0  0  0  0  0  0
  186.7870  176.8470  147.5120 C   0  0  0  0  0  2  0  0  0  0  0  0
  190.8900  172.8220  145.0110 O   0  0  0  0  0  0  0  0  0  0  0  0
  191.6830  173.7630  144.7370 C   0  0  0  0  0  0  0  0  0  0  0  0
  194.9200  175.7280  144.6280 C   0  0  1  0  0  3  0  0  0  0  0  0
  194.0580  173.5470  145.5220 C   0  0  0  0  0  2  0  0  0  0  0  0
  192.6840  174.1690  142.0730 O   0  0  0  0  0  1  0  0  0  0  0  0
  195.1810  177.0580  144.9500 O   0  0  0  0  0  1  0  0  0  0  0  0
  194.3640  175.0090  145.8530 C   0  0  0  0  0  2  0  0  0  0  0  0
  193.6020  174.2200  143.1250 C   0  0  2  0  0  3  0  0  0  0  0  0
  193.0910  173.4270  144.3400 C   0  0  2  0  0  3  0  0  0  0  0  0
  193.9150  175.6720  143.4810 C   0  0  0  0  0  2  0  0  0  0  0  0
  1 15  1  0  0  0  0
  2  5  1  6  0  0  0
  2 13  1  0  0  0  0
  2  3  1  0  0  0  0
  3 20  1  0  0  0  0
  4 11  1  6  0  0  0
  4 16  1  0  0  0  0
  6  1  2  0  0  0  0
  6 18  1  0  0  0  0
  7  3  2  0  0  0  0
  7  4  1  0  0  0  0
  8 13  1  0  0  0  0
  8 14  2  0  0  0  0
  9  1  1  0  0  0  0
 12  8  1  0  0  0  0
 13 19  1  1  0  0  0
 15  5  2  0  0  0  0
 16 21  1  0  0  0  0
 17  5  1  0  0  0  0
 17 12  1  0  0  0  0
 18 17  2  0  0  0  0
 19 10  1  0  0  0  0
 20 10  2  0  0  0  0
 20 21  1  0  0  0  0
 23 14  1  0  0  0  0
 23 22  2  0  0  0  0
 24 27  1  1  0  0  0
 24 28  1  0  0  0  0
 25 28  1  0  0  0  0
 29 26  1  6  0  0  0
 29 31  1  0  0  0  0
 29 30  1  0  0  0  0
 30 23  1  1  0  0  0
 30 25  1  0  0  0  0
 31 24  1  0  0  0  0
M  END
>  <MODEL>
5

>  <REMARK>
 VINA RESULT:      -8.6      3.467      6.993
  Name = 
  2 active torsions:
  status: ('A' for Active; 'I' for Inactive)
    1  A    between atoms: C_5  and  N_16
    2  A    between atoms: C_5  and  C_30
                            x       y       z     vdW  Elec       q    Type
                         _______ _______ _______ _____ _____    ______ ____

>  <TORSDO>
F 2

$$$$
=
 OpenBabel11112416543D

 31 35  0  0  1  0  0  0  0  0999 V2000
  187.0530  177.2030  147.0380 C   0  0  0  0  0  0  0  0  0  0  0  0
  187.5030  175.5810  143.6260 C   0  0  2  0  0  3  0  0  0  0  0  0
  187.0650  176.5020  142.4990 C   0  0  0  0  0  0  0  0  0  0  0  0
  185.7420  178.4420  141.6580 C   0  0  2  0  0  3  0  0  0  0  0  0
  187.7820  176.3440  144.8950 C   0  0  0  0  0  0  0  0  0  0  0  0
  188.2940  177.8240  147.2130 C   0  0  0  0  0  3  0  0  0  0  0  0
  186.1770  177.4800  142.7300 C   0  0  0  0  0  3  0  0  0  0  0  0
  190.0620  175.4650  143.3980 C   0  0  0  0  0  0  0  0  0  0  0  0
  186.0750  177.3210  148.0160 O   0  0  0  0  0  1  0  0  0  0  0  0
  188.2690  175.1840  140.8110 C   0  0  0  0  0  3  0  0  0  0  0  0
  184.4660  178.8980  141.9270 F   0  0  0  0  0  0  0  0  0  0  0  0
  190.0810  176.8440  144.0140 C   0  0  0  0  0  2  0  0  0  0  0  0
  188.7420  174.7340  143.2350 C   0  0  2  0  0  3  0  0  0  0  0  0
  191.1520  174.8700  143.0080 N   0  0  0  0  0  0  0  0  0  0  0  0
  186.7960  176.4660  145.8780 C   0  0  0  0  0  3  0  0  0  0  0  0
  185.7870  177.7980  140.2730 C   0  0  0  0  0  2  0  0  0  0  0  0
  189.0320  176.9620  145.0740 C   0  0  0  0  0  0  0  0  0  0  0  0
  189.2820  177.7070  146.2300 C   0  0  0  0  0  3  0  0  0  0  0  0
  188.5790  174.1340  141.8350 C   0  0  0  0  0  2  0  0  0  0  0  0
  187.5230  176.2490  141.1060 C   0  0  0  0  0  0  0  0  0  0  0  0
  187.1750  177.2180  140.0180 C   0  0  0  0  0  2  0  0  0  0  0  0
  192.8670  176.3700  142.4110 O   0  0  0  0  0  0  0  0  0  0  0  0
  192.5020  175.3610  143.0740 C   0  0  0  0  0  0  0  0  0  0  0  0
  194.2780  176.2650  146.2960 C   0  0  1  0  0  3  0  0  0  0  0  0
  192.9570  174.3610  145.3320 C   0  0  0  0  0  2  0  0  0  0  0  0
  195.3350  175.7270  142.7540 O   0  0  0  0  0  1  0  0  0  0  0  0
  194.1980  177.4140  147.0810 O   0  0  0  0  0  1  0  0  0  0  0  0
  192.8990  175.6210  146.1980 C   0  0  0  0  0  2  0  0  0  0  0  0
  194.8660  175.3890  144.0250 C   0  0  2  0  0  3  0  0  0  0  0  0
  193.5130  174.6620  143.9370 C   0  0  2  0  0  3  0  0  0  0  0  0
  194.7880  176.6340  144.9070 C   0  0  0  0  0  2  0  0  0  0  0  0
  1  6  1  0  0  0  0
  1  9  1  0  0  0  0
  2  3  1  6  0  0  0
  2  5  1  0  0  0  0
  3  7  2  0  0  0  0
  4 11  1  1  0  0  0
  4  7  1  0  0  0  0
  5 17  2  0  0  0  0
  5 15  1  0  0  0  0
  8 12  1  0  0  0  0
 10 20  2  0  0  0  0
 10 19  1  0  0  0  0
 12 17  1  0  0  0  0
 13 19  1  6  0  0  0
 13  8  1  0  0  0  0
 13  2  1  0  0  0  0
 14 23  1  0  0  0  0
 14  8  2  0  0  0  0
 15  1  2  0  0  0  0
 16  4  1  0  0  0  0
 17 18  1  0  0  0  0
 18  6  2  0  0  0  0
 20  3  1  0  0  0  0
 21 16  1  0  0  0  0
 21 20  1  0  0  0  0
 22 23  2  0  0  0  0
 24 27  1  1  0  0  0
 25 28  1  0  0  0  0
 28 24  1  0  0  0  0
 29 26  1  6  0  0  0
 29 31  1  0  0  0  0
 30 23  1  1  0  0  0
 30 29  1  0  0  0  0
 30 25  1  0  0  0  0
 31 24  1  0  0  0  0
M  END
>  <MODEL>
6

>  <REMARK>
 VINA RESULT:      -8.4      3.318      7.755
  Name = 
  2 active torsions:
  status: ('A' for Active; 'I' for Inactive)
    1  A    between atoms: C_5  and  N_16
    2  A    between atoms: C_5  and  C_30
                            x       y       z     vdW  Elec       q    Type
                         _______ _______ _______ _____ _____    ______ ____

>  <TORSDO>
F 2

$$$$
=
 OpenBabel11112416543D

 31 35  0  0  1  0  0  0  0  0999 V2000
  187.0300  177.5890  141.1220 C   0  0  0  0  0  0  0  0  0  0  0  0
  188.1870  173.9980  141.6150 C   0  0  2  0  0  3  0  0  0  0  0  0
  189.0810  173.5300  140.4790 C   0  0  0  0  0  0  0  0  0  0  0  0
  189.8950  173.7120  138.1280 C   0  0  2  0  0  3  0  0  0  0  0  0
  188.1180  175.5020  141.6890 C   0  0  0  0  0  0  0  0  0  0  0  0
  188.0430  178.2970  141.7760 C   0  0  0  0  0  3  0  0  0  0  0  0
  189.0040  174.1120  139.2730 C   0  0  0  0  0  3  0  0  0  0  0  0
  189.7700  174.1960  143.6320 C   0  0  0  0  0  0  0  0  0  0  0  0
  185.9860  178.2740  140.5160 O   0  0  0  0  0  1  0  0  0  0  0  0
  189.9350  171.6350  141.7880 C   0  0  0  0  0  3  0  0  0  0  0  0
  189.2570  173.9640  136.9290 F   0  0  0  0  0  0  0  0  0  0  0  0
  190.2630  175.4740  142.9950 C   0  0  0  0  0  2  0  0  0  0  0  0
  188.6380  173.4220  142.9830 C   0  0  2  0  0  3  0  0  0  0  0  0
  190.2800  173.7370  144.7380 N   0  0  0  0  0  0  0  0  0  0  0  0
  187.0680  176.1920  141.0750 C   0  0  0  0  0  3  0  0  0  0  0  0
  190.2900  172.2390  138.2110 C   0  0  0  0  0  2  0  0  0  0  0  0
  189.1320  176.2130  142.3530 C   0  0  0  0  0  0  0  0  0  0  0  0
  189.0960  177.6100  142.3880 C   0  0  0  0  0  3  0  0  0  0  0  0
  188.9440  171.9250  142.8760 C   0  0  0  0  0  2  0  0  0  0  0  0
  189.9590  172.3420  140.6590 C   0  0  0  0  0  0  0  0  0  0  0  0
  190.9140  171.9480  139.5730 C   0  0  0  0  0  2  0  0  0  0  0  0
  192.5480  174.1930  145.1790 O   0  0  0  0  0  0  0  0  0  0  0  0
  191.3410  174.3030  145.5270 C   0  0  0  0  0  0  0  0  0  0  0  0
  188.8640  177.0170  146.4500 C   0  0  1  0  0  3  0  0  0  0  0  0
  189.5890  174.7570  147.2670 C   0  0  0  0  0  2  0  0  0  0  0  0
  192.5870  176.7910  146.2480 O   0  0  0  0  0  1  0  0  0  0  0  0
  187.9280  177.6900  145.6680 O   0  0  0  0  0  1  0  0  0  0  0  0
  188.5670  175.5210  146.4230 C   0  0  0  0  0  2  0  0  0  0  0  0
  191.3050  176.5420  146.7430 C   0  0  2  0  0  3  0  0  0  0  0  0
  191.0220  175.0310  146.8010 C   0  0  2  0  0  3  0  0  0  0  0  0
  190.2650  177.2860  145.9080 C   0  0  0  0  0  2  0  0  0  0  0  0
  1  6  1  0  0  0  0
  2  3  1  6  0  0  0
  2  5  1  0  0  0  0
  2 13  1  0  0  0  0
  3 20  1  0  0  0  0
  4 11  1  6  0  0  0
  4 16  1  0  0  0  0
  4  7  1  0  0  0  0
  5 17  2  0  0  0  0
  6 18  2  0  0  0  0
  7  3  2  0  0  0  0
  8 14  2  0  0  0  0
  9  1  1  0  0  0  0
 10 19  1  0  0  0  0
 12  8  1  0  0  0  0
 13 19  1  6  0  0  0
 13  8  1  0  0  0  0
 14 23  1  0  0  0  0
 15  1  2  0  0  0  0
 15  5  1  0  0  0  0
 16 21  1  0  0  0  0
 17 18  1  0  0  0  0
 17 12  1  0  0  0  0
 20 10  2  0  0  0  0
 21 20  1  0  0  0  0
 22 23  2  0  0  0  0
 24 27  1  6  0  0  0
 28 24  1  0  0  0  0
 28 25  1  0  0  0  0
 29 26  1  6  0  0  0
 29 30  1  0  0  0  0
 30 23  1  6  0  0  0
 30 25  1  0  0  0  0
 31 24  1  0  0  0  0
 31 29  1  0  0  0  0
M  END
>  <MODEL>
7

>  <REMARK>
 VINA RESULT:      -8.0      3.099      6.001
  Name = 
  2 active torsions:
  status: ('A' for Active; 'I' for Inactive)
    1  A    between atoms: C_5  and  N_16
    2  A    between atoms: C_5  and  C_30
                            x       y       z     vdW  Elec       q    Type
                         _______ _______ _______ _____ _____    ______ ____

>  <TORSDO>
F 2

$$$$
=
 OpenBabel11112416543D

 31 35  0  0  1  0  0  0  0  0999 V2000
  186.9210  177.2340  140.4020 C   0  0  0  0  0  0  0  0  0  0  0  0
  188.6510  177.7930  143.7450 C   0  0  2  0  0  3  0  0  0  0  0  0
  187.7810  177.3600  144.9130 C   0  0  0  0  0  0  0  0  0  0  0  0
  185.5440  176.8520  145.8940 C   0  0  2  0  0  3  0  0  0  0  0  0
  188.2080  177.1580  142.4510 C   0  0  0  0  0  0  0  0  0  0  0  0
  187.3390  175.9370  140.0890 C   0  0  0  0  0  3  0  0  0  0  0  0
  186.4470  177.3120  144.7810 C   0  0  0  0  0  3  0  0  0  0  0  0
  190.5480  176.0570  143.6850 C   0  0  0  0  0  0  0  0  0  0  0  0
  186.0740  177.9160  139.5400 O   0  0  0  0  0  1  0  0  0  0  0  0
  189.6900  177.3100  146.4560 C   0  0  0  0  0  3  0  0  0  0  0  0
  184.3050  177.4480  145.7690 F   0  0  0  0  0  0  0  0  0  0  0  0
  189.5380  175.1180  143.0690 C   0  0  0  0  0  2  0  0  0  0  0  0
  190.1510  177.4880  143.9950 C   0  0  2  0  0  3  0  0  0  0  0  0
  191.7650  175.6800  143.9510 N   0  0  0  0  0  0  0  0  0  0  0  0
  187.3520  177.8440  141.5840 C   0  0  0  0  0  3  0  0  0  0  0  0
  186.1390  177.1650  147.2660 C   0  0  0  0  0  2  0  0  0  0  0  0
  188.6340  175.8570  142.1330 C   0  0  0  0  0  0  0  0  0  0  0  0
  188.1920  175.2470  140.9560 C   0  0  0  0  0  3  0  0  0  0  0  0
  190.5710  177.9160  145.4050 C   0  0  0  0  0  2  0  0  0  0  0  0
  188.3900  177.1060  146.2460 C   0  0  0  0  0  0  0  0  0  0  0  0
  187.5450  176.5790  147.3650 C   0  0  0  0  0  2  0  0  0  0  0  0
  192.9450  174.1090  142.6530 O   0  0  0  0  0  0  0  0  0  0  0  0
  192.3610  174.3880  143.7340 C   0  0  0  0  0  0  0  0  0  0  0  0
  194.5170  171.4130  144.6560 C   0  0  1  0  0  3  0  0  0  0  0  0
  193.4760  173.4120  145.7610 C   0  0  0  0  0  2  0  0  0  0  0  0
  191.0520  171.8610  143.3360 O   0  0  0  0  0  1  0  0  0  0  0  0
  195.6830  170.9250  144.0690 O   0  0  0  0  0  1  0  0  0  0  0  0
  194.7460  172.8480  145.1210 C   0  0  0  0  0  2  0  0  0  0  0  0
  192.0950  171.9100  144.2630 C   0  0  2  0  0  3  0  0  0  0  0  0
  192.2820  173.3380  144.8040 C   0  0  2  0  0  3  0  0  0  0  0  0
  193.3780  171.3620  143.6420 C   0  0  0  0  0  2  0  0  0  0  0  0
  1 15  1  0  0  0  0
  2  5  1  6  0  0  0
  2 13  1  0  0  0  0
  2  3  1  0  0  0  0
  3 20  1  0  0  0  0
  4 11  1  6  0  0  0
  4 16  1  0  0  0  0
  6  1  2  0  0  0  0
  6 18  1  0  0  0  0
  7  3  2  0  0  0  0
  7  4  1  0  0  0  0
  8 14  2  0  0  0  0
  8 13  1  0  0  0  0
  9  1  1  0  0  0  0
 12  8  1  0  0  0  0
 13 19  1  1  0  0  0
 15  5  2  0  0  0  0
 16 21  1  0  0  0  0
 17  5  1  0  0  0  0
 17 12  1  0  0  0  0
 18 17  2  0  0  0  0
 19 10  1  0  0  0  0
 20 10  2  0  0  0  0
 20 21  1  0  0  0  0
 22 23  2  0  0  0  0
 23 14  1  0  0  0  0
 24 27  1  6  0  0  0
 24 28  1  0  0  0  0
 28 25  1  0  0  0  0
 29 26  1  6  0  0  0
 29 30  1  0  0  0  0
 30 23  1  6  0  0  0
 30 25  1  0  0  0  0
 31 29  1  0  0  0  0
 31 24  1  0  0  0  0
M  END
>  <MODEL>
8

>  <REMARK>
 VINA RESULT:      -7.9      3.592      7.309
  Name = 
  2 active torsions:
  status: ('A' for Active; 'I' for Inactive)
    1  A    between atoms: C_5  and  N_16
    2  A    between atoms: C_5  and  C_30
                            x       y       z     vdW  Elec       q    Type
                         _______ _______ _______ _____ _____    ______ ____

>  <TORSDO>
F 2

$$$$
=
 OpenBabel11112416543D

 31 35  0  0  1  0  0  0  0  0999 V2000
  192.0010  171.3220  141.3520 C   0  0  0  0  0  0  0  0  0  0  0  0
  191.1630  173.1190  144.5990 C   0  0  2  0  0  3  0  0  0  0  0  0
  192.2800  174.0530  145.0350 C   0  0  0  0  0  0  0  0  0  0  0  0
  194.6720  174.7590  144.9920 C   0  0  2  0  0  3  0  0  0  0  0  0
  191.2550  172.7820  143.1330 C   0  0  0  0  0  0  0  0  0  0  0  0
  191.4790  172.2080  140.4040 C   0  0  0  0  0  3  0  0  0  0  0  0
  193.5380  173.8420  144.6230 C   0  0  0  0  0  3  0  0  0  0  0  0
  189.2570  174.6930  143.8880 C   0  0  0  0  0  0  0  0  0  0  0  0
  192.6310  170.1570  140.9370 O   0  0  0  0  0  1  0  0  0  0  0  0
  190.8070  175.2670  146.5810 C   0  0  0  0  0  3  0  0  0  0  0  0
  195.8600  174.0560  145.0020 F   0  0  0  0  0  0  0  0  0  0  0  0
  190.0550  174.9310  142.6280 C   0  0  0  0  0  2  0  0  0  0  0  0
  189.7620  173.7010  144.9200 C   0  0  2  0  0  3  0  0  0  0  0  0
  188.1310  175.3050  144.1160 N   0  0  0  0  0  0  0  0  0  0  0  0
  191.8930  171.6100  142.7150 C   0  0  0  0  0  3  0  0  0  0  0  0
  194.4420  175.4160  146.3520 C   0  0  0  0  0  2  0  0  0  0  0  0
  190.7230  173.6690  142.1810 C   0  0  0  0  0  0  0  0  0  0  0  0
  190.8440  173.3830  140.8180 C   0  0  0  0  0  3  0  0  0  0  0  0
  189.7140  174.2680  146.3420 C   0  0  0  0  0  2  0  0  0  0  0  0
  192.0090  175.1350  146.0190 C   0  0  0  0  0  0  0  0  0  0  0  0
  193.0860  176.1170  146.3660 C   0  0  0  0  0  2  0  0  0  0  0  0
  187.0350  175.9590  142.1370 O   0  0  0  0  0  0  0  0  0  0  0  0
  187.4610  176.2670  143.2820 C   0  0  0  0  0  0  0  0  0  0  0  0
  186.3460  177.7790  146.5720 C   0  0  1  0  0  3  0  0  0  0  0  0
  188.2210  178.0120  144.9200 C   0  0  0  0  0  2  0  0  0  0  0  0
  184.9400  177.6380  143.1140 O   0  0  0  0  0  1  0  0  0  0  0  0
  185.9560  177.1690  147.7620 O   0  0  0  0  0  1  0  0  0  0  0  0
  187.7720  177.3620  146.2300 C   0  0  0  0  0  2  0  0  0  0  0  0
  185.8140  178.0140  144.1360 C   0  0  2  0  0  3  0  0  0  0  0  0
  187.2690  177.6750  143.7680 C   0  0  2  0  0  3  0  0  0  0  0  0
  185.3920  177.3670  145.4540 C   0  0  0  0  0  2  0  0  0  0  0  0
  1 15  1  0  0  0  0
  2  5  1  6  0  0  0
  2 13  1  0  0  0  0
  2  3  1  0  0  0  0
  3 20  1  0  0  0  0
  4 11  1  1  0  0  0
  4 16  1  0  0  0  0
  6 18  1  0  0  0  0
  6  1  2  0  0  0  0
  7  4  1  0  0  0  0
  7  3  2  0  0  0  0
  8 14  2  0  0  0  0
  8 13  1  0  0  0  0
  9  1  1  0  0  0  0
 12  8  1  0  0  0  0
 13 19  1  1  0  0  0
 15  5  2  0  0  0  0
 16 21  1  0  0  0  0
 17 12  1  0  0  0  0
 17  5  1  0  0  0  0
 18 17  2  0  0  0  0
 19 10  1  0  0  0  0
 20 21  1  0  0  0  0
 20 10  2  0  0  0  0
 22 23  2  0  0  0  0
 23 14  1  0  0  0  0
 24 27  1  1  0  0  0
 25 28  1  0  0  0  0
 28 24  1  0  0  0  0
 29 26  1  6  0  0  0
 29 31  1  0  0  0  0
 30 23  1  1  0  0  0
 30 29  1  0  0  0  0
 30 25  1  0  0  0  0
 31 24  1  0  0  0  0
M  END
>  <MODEL>
9

>  <REMARK>
 VINA RESULT:      -7.9      1.753      2.800
  Name = 
  2 active torsions:
  status: ('A' for Active; 'I' for Inactive)
    1  A    between atoms: C_5  and  N_16
    2  A    between atoms: C_5  and  C_30
                            x       y       z     vdW  Elec       q    Type
                         _______ _______ _______ _____ _____    ______ ____

>  <TORSDO>
F 2

$$$$
