=
 OpenBabel11112417513D

 34 42  0  0  1  0  0  0  0  0999 V2000
  189.6890  173.8400  143.7590 C   0  0  0  0  0  0  0  0  0  0  0  0
  191.6880  172.3140  143.8810 C   0  0  0  0  0  2  0  0  0  0  0  0
  185.9450  178.1890  145.7500 C   0  0  2  0  0  0  0  0  0  0  0  0
  188.2080  175.6970  143.2060 C   0  0  0  0  0  0  0  0  0  0  0  0
  188.2290  177.8000  144.6070 C   0  0  1  0  0  3  0  0  0  0  0  0
  186.1640  176.6820  145.6920 C   0  0  2  0  0  3  0  0  0  0  0  0
  184.9320  177.2500  146.3680 C   0  0  0  0  0  2  0  0  0  0  0  0
  185.4410  177.8100  143.1900 C   0  0  0  0  0  2  0  0  0  0  0  0
  191.5140  174.1080  145.5200 N   0  0  2  0  0  0  0  0  0  0  0  0
  194.2300  175.9110  145.4830 C   0  0  0  0  0  2  0  0  0  0  0  0
  189.6810  177.4400  144.9040 C   0  0  0  0  0  2  0  0  0  0  0  0
  186.8130  177.6980  142.5420 C   0  0  0  0  0  2  0  0  0  0  0  0
  191.3130  175.5640  145.3080 C   0  0  1  0  0  3  0  0  0  0  0  0
  192.9490  172.3330  144.6920 C   0  0  0  0  0  2  0  0  0  0  0  0
  187.7540  177.0440  143.4440 N   0  0  0  0  0  0  0  0  0  0  0  0
  185.4800  178.7660  144.3880 C   0  0  0  0  0  2  0  0  0  0  0  0
  193.8700  174.6690  144.6490 C   0  0  1  0  0  3  0  0  0  0  0  0
  189.2480  175.1500  143.9920 C   0  0  0  0  0  0  0  0  0  0  0  0
  187.3570  177.6140  145.8670 C   0  0  2  0  0  3  0  0  0  0  0  0
  189.8360  175.9300  145.1350 C   0  0  2  0  0  3  0  0  0  0  0  0
  188.0690  173.6190  141.9600 C   0  0  0  0  0  3  0  0  0  0  0  0
  193.3910  176.0730  146.7520 C   0  0  0  0  0  2  0  0  0  0  0  0
  187.6360  174.9250  142.1840 C   0  0  0  0  0  3  0  0  0  0  0  0
  191.9210  176.3830  146.4620 C   0  0  0  0  0  2  0  0  0  0  0  0
  192.9290  173.6770  145.3820 C   0  0  1  0  0  3  0  0  0  0  0  0
  189.0800  173.0770  142.7510 C   0  0  0  0  0  3  0  0  0  0  0  0
  190.7270  173.2000  144.6520 C   0  0  1  0  0  3  0  0  0  0  0  0
  193.3330  175.0590  143.4170 O   0  0  0  0  0  0  0  0  0  0  0  0
  194.1180  176.1330  142.9880 C   0  0  0  0  0  2  0  0  0  0  0  0
  196.1700  174.4260  140.8640 C   0  0  0  0  0  2  0  0  0  0  0  0
  195.6690  176.7420  141.1940 N   0  0  0  0  0  2  0  0  0  0  0  0
  194.4630  175.9810  141.5120 C   0  0  1  0  0  3  0  0  0  0  0  0
  196.5600  175.8320  140.4850 C   0  0  0  0  0  2  0  0  0  0  0  0
  194.6980  174.5240  141.1570 C   0  0  0  0  0  2  0  0  0  0  0  0
  1 18  1  0  0  0  0
  1 27  1  0  0  0  0
  2 27  1  0  0  0  0
  2 14  1  0  0  0  0
  3 16  1  6  0  0  0
  3 19  1  0  0  0  0
  3  7  1  0  0  0  0
  4 15  1  0  0  0  0
  4 18  2  0  0  0  0
  5 11  1  1  0  0  0
  5 19  1  0  0  0  0
  6  3  1  0  0  0  0
  6 19  1  0  0  0  0
  6  7  1  1  0  0  0
  8 16  1  0  0  0  0
 10 22  1  0  0  0  0
 11 20  1  0  0  0  0
 12  8  1  0  0  0  0
 12 15  1  0  0  0  0
 13  9  1  0  0  0  0
 13 24  1  0  0  0  0
 14 25  1  0  0  0  0
 15  5  1  0  0  0  0
 17 25  1  0  0  0  0
 17 10  1  0  0  0  0
 18 20  1  0  0  0  0
 20 13  1  0  0  0  0
 21 23  2  0  0  0  0
 21 26  1  0  0  0  0
 23  4  1  0  0  0  0
 24 22  1  0  0  0  0
 25  9  1  0  0  0  0
 26  1  2  0  0  0  0
 27  9  1  0  0  0  0
 28 17  1  0  0  0  0
 29 28  1  0  0  0  0
 30 34  1  0  0  0  0
 31 32  1  0  0  0  0
 32 29  1  0  0  0  0
 33 30  1  0  0  0  0
 33 31  1  0  0  0  0
 34 32  1  0  0  0  0
M  END
>  <MODEL>
1

>  <REMARK>
 VINA RESULT:      -9.2      0.000      0.000
  Name = 
  3 active torsions:
  status: ('A' for Active; 'I' for Inactive)
    1  A    between atoms: C_17  and  O_28
    2  A    between atoms: O_28  and  C_29
    3  A    between atoms: C_29  and  C_32
                            x       y       z     vdW  Elec       q    Type
                         _______ _______ _______ _____ _____    ______ ____

>  <TORSDO>
F 3

$$$$
=
 OpenBabel11112417513D

 34 42  0  0  1  0  0  0  0  0999 V2000
  189.8970  173.7350  143.8280 C   0  0  0  0  0  0  0  0  0  0  0  0
  191.9140  172.2420  144.0240 C   0  0  0  0  0  2  0  0  0  0  0  0
  186.1260  178.1650  145.5780 C   0  0  2  0  0  0  0  0  0  0  0  0
  188.3880  175.5370  143.1730 C   0  0  0  0  0  0  0  0  0  0  0  0
  188.4020  177.7270  144.4350 C   0  0  1  0  0  3  0  0  0  0  0  0
  186.3610  176.6590  145.6140 C   0  0  2  0  0  3  0  0  0  0  0  0
  185.1310  177.2560  146.2670 C   0  0  0  0  0  2  0  0  0  0  0  0
  185.5980  177.6150  143.0540 C   0  0  0  0  0  2  0  0  0  0  0  0
  191.7380  174.1370  145.5450 N   0  0  2  0  0  0  0  0  0  0  0  0
  194.4330  175.9630  145.3600 C   0  0  0  0  0  2  0  0  0  0  0  0
  189.8610  177.4020  144.7370 C   0  0  0  0  0  2  0  0  0  0  0  0
  186.9630  177.4760  142.3980 C   0  0  0  0  0  2  0  0  0  0  0  0
  191.5180  175.5730  145.2430 C   0  0  1  0  0  3  0  0  0  0  0  0
  193.1840  172.3270  144.8170 C   0  0  0  0  0  2  0  0  0  0  0  0
  187.9220  176.8920  143.3290 N   0  0  0  0  0  0  0  0  0  0  0  0
  185.6390  178.6470  144.1870 C   0  0  0  0  0  2  0  0  0  0  0  0
  194.0770  174.6650  144.6120 C   0  0  1  0  0  3  0  0  0  0  0  0
  189.4430  175.0540  143.9810 C   0  0  0  0  0  0  0  0  0  0  0  0
  187.5450  177.6130  145.7150 C   0  0  2  0  0  3  0  0  0  0  0  0
  190.0360  175.9120  145.0630 C   0  0  2  0  0  3  0  0  0  0  0  0
  188.2600  173.3810  142.0660 C   0  0  0  0  0  3  0  0  0  0  0  0
  193.6060  176.1970  146.6260 C   0  0  0  0  0  2  0  0  0  0  0  0
  187.8140  174.6940  142.2100 C   0  0  0  0  0  3  0  0  0  0  0  0
  192.1300  176.4720  146.3330 C   0  0  0  0  0  2  0  0  0  0  0  0
  193.1570  173.7130  145.4190 C   0  0  1  0  0  3  0  0  0  0  0  0
  189.2860  172.9020  142.8780 C   0  0  0  0  0  3  0  0  0  0  0  0
  190.9520  173.1660  144.7480 C   0  0  1  0  0  3  0  0  0  0  0  0
  193.5230  174.9690  143.3640 O   0  0  0  0  0  0  0  0  0  0  0  0
  194.5340  174.7190  142.4320 C   0  0  0  0  0  2  0  0  0  0  0  0
  192.2220  173.0870  140.5280 C   0  0  0  0  0  2  0  0  0  0  0  0
  194.5510  173.5670  140.2710 N   0  0  0  0  0  2  0  0  0  0  0  0
  193.9540  174.6690  141.0230 C   0  0  1  0  0  3  0  0  0  0  0  0
  193.4470  172.8130  139.6930 C   0  0  0  0  0  2  0  0  0  0  0  0
  192.4490  174.4730  141.0620 C   0  0  0  0  0  2  0  0  0  0  0  0
  1 18  1  0  0  0  0
  1 27  1  0  0  0  0
  2 27  1  0  0  0  0
  2 14  1  0  0  0  0
  3 16  1  6  0  0  0
  3  6  1  0  0  0  0
  3 19  1  0  0  0  0
  3  7  1  0  0  0  0
  4 15  1  0  0  0  0
  4 18  2  0  0  0  0
  5 11  1  1  0  0  0
  5 19  1  0  0  0  0
  6 19  1  0  0  0  0
  6  7  1  1  0  0  0
  8 16  1  0  0  0  0
 10 22  1  0  0  0  0
 11 20  1  0  0  0  0
 12  8  1  0  0  0  0
 12 15  1  0  0  0  0
 13  9  1  0  0  0  0
 13 24  1  0  0  0  0
 14 25  1  0  0  0  0
 15  5  1  0  0  0  0
 17 10  1  0  0  0  0
 17 25  1  0  0  0  0
 18 20  1  0  0  0  0
 20 13  1  0  0  0  0
 21 23  2  0  0  0  0
 21 26  1  0  0  0  0
 23  4  1  0  0  0  0
 24 22  1  0  0  0  0
 25  9  1  0  0  0  0
 26  1  2  0  0  0  0
 27  9  1  0  0  0  0
 28 17  1  0  0  0  0
 29 28  1  0  0  0  0
 30 34  1  0  0  0  0
 31 32  1  0  0  0  0
 32 34  1  0  0  0  0
 32 29  1  0  0  0  0
 33 31  1  0  0  0  0
 33 30  1  0  0  0  0
M  END
>  <MODEL>
2

>  <REMARK>
 VINA RESULT:      -9.0      1.037      1.336
  Name = 
  3 active torsions:
  status: ('A' for Active; 'I' for Inactive)
    1  A    between atoms: C_17  and  O_28
    2  A    between atoms: O_28  and  C_29
    3  A    between atoms: C_29  and  C_32
                            x       y       z     vdW  Elec       q    Type
                         _______ _______ _______ _____ _____    ______ ____

>  <TORSDO>
F 3

$$$$
=
 OpenBabel11112417513D

 34 42  0  0  1  0  0  0  0  0999 V2000
  190.1230  176.4000  144.6190 C   0  0  0  0  0  0  0  0  0  0  0  0
  192.2030  175.3200  143.7010 C   0  0  0  0  0  2  0  0  0  0  0  0
  184.6460  179.0050  144.2610 C   0  0  2  0  0  0  0  0  0  0  0  0
  187.9330  176.7440  145.6380 C   0  0  0  0  0  0  0  0  0  0  0  0
  185.8490  176.7180  144.2080 C   0  0  1  0  0  3  0  0  0  0  0  0
  186.1420  179.2850  144.3460 C   0  0  2  0  0  3  0  0  0  0  0  0
  185.1520  180.4310  144.2890 C   0  0  0  0  0  2  0  0  0  0  0  0
  185.0410  178.3130  146.7740 C   0  0  0  0  0  2  0  0  0  0  0  0
  190.3270  175.6660  142.1860 N   0  0  2  0  0  0  0  0  0  0  0  0
  189.5180  172.8480  140.7590 C   0  0  0  0  0  2  0  0  0  0  0  0
  186.6390  175.7910  143.2910 C   0  0  0  0  0  2  0  0  0  0  0  0
  185.6450  176.9190  146.6990 C   0  0  0  0  0  2  0  0  0  0  0  0
  188.9070  175.2590  142.3330 C   0  0  1  0  0  3  0  0  0  0  0  0
  192.5330  174.6710  142.3890 C   0  0  0  0  0  2  0  0  0  0  0  0
  186.4980  176.7940  145.5210 N   0  0  0  0  0  0  0  0  0  0  0  0
  184.0590  178.5460  145.6200 C   0  0  0  0  0  2  0  0  0  0  0  0
  190.6370  173.1450  141.7740 C   0  0  1  0  0  3  0  0  0  0  0  0
  188.7260  176.4480  144.5050 C   0  0  0  0  0  0  0  0  0  0  0  0
  185.6400  178.0940  143.5390 C   0  0  2  0  0  3  0  0  0  0  0  0
  188.0940  176.2630  143.1540 C   0  0  2  0  0  3  0  0  0  0  0  0
  189.9440  176.9330  146.9840 C   0  0  0  0  0  3  0  0  0  0  0  0
  188.9920  174.0890  140.0340 C   0  0  0  0  0  2  0  0  0  0  0  0
  188.5550  176.9720  146.8740 C   0  0  0  0  0  3  0  0  0  0  0  0
  188.2430  175.0490  140.9590 C   0  0  0  0  0  2  0  0  0  0  0  0
  191.2060  174.5840  141.6720 C   0  0  1  0  0  3  0  0  0  0  0  0
  190.7220  176.6610  145.8610 C   0  0  0  0  0  3  0  0  0  0  0  0
  190.9940  176.1860  143.4020 C   0  0  1  0  0  3  0  0  0  0  0  0
  190.1910  172.8670  143.0710 O   0  0  0  0  0  0  0  0  0  0  0  0
  190.4510  171.5090  143.2760 C   0  0  0  0  0  2  0  0  0  0  0  0
  192.8060  169.0820  143.7250 C   0  0  0  0  0  2  0  0  0  0  0  0
  192.6610  171.3930  144.3230 N   0  0  0  0  0  2  0  0  0  0  0  0
  191.9330  171.2170  143.0690 C   0  0  1  0  0  3  0  0  0  0  0  0
  193.4580  170.1890  144.5140 C   0  0  0  0  0  2  0  0  0  0  0  0
  192.1430  169.7950  142.5790 C   0  0  0  0  0  2  0  0  0  0  0  0
  1 26  1  0  0  0  0
  3  7  1  6  0  0  0
  3  6  1  0  0  0  0
  3 16  1  0  0  0  0
  4 23  2  0  0  0  0
  5 11  1  6  0  0  0
  5 15  1  0  0  0  0
  6  7  1  6  0  0  0
  9 13  1  0  0  0  0
  9 27  1  0  0  0  0
 10 17  1  0  0  0  0
 12  8  1  0  0  0  0
 13 20  1  0  0  0  0
 14  2  1  0  0  0  0
 15  4  1  0  0  0  0
 15 12  1  0  0  0  0
 16  8  1  0  0  0  0
 17 28  1  0  0  0  0
 18  1  2  0  0  0  0
 18  4  1  0  0  0  0
 19  5  1  0  0  0  0
 19  3  1  0  0  0  0
 19  6  1  0  0  0  0
 20 11  1  0  0  0  0
 20 18  1  0  0  0  0
 22 10  1  0  0  0  0
 22 24  1  0  0  0  0
 23 21  1  0  0  0  0
 24 13  1  0  0  0  0
 25 17  1  0  0  0  0
 25  9  1  0  0  0  0
 25 14  1  0  0  0  0
 26 21  2  0  0  0  0
 27  2  1  0  0  0  0
 27  1  1  0  0  0  0
 28 29  1  0  0  0  0
 30 33  1  0  0  0  0
 31 33  1  0  0  0  0
 32 29  1  0  0  0  0
 32 31  1  0  0  0  0
 34 32  1  0  0  0  0
 34 30  1  0  0  0  0
M  END
>  <MODEL>
3

>  <REMARK>
 VINA RESULT:      -8.5      2.333      4.691
  Name = 
  3 active torsions:
  status: ('A' for Active; 'I' for Inactive)
    1  A    between atoms: C_17  and  O_28
    2  A    between atoms: O_28  and  C_29
    3  A    between atoms: C_29  and  C_32
                            x       y       z     vdW  Elec       q    Type
                         _______ _______ _______ _____ _____    ______ ____

>  <TORSDO>
F 3

$$$$
=
 OpenBabel11112417513D

 34 42  0  0  1  0  0  0  0  0999 V2000
  192.5950  175.6640  145.8430 C   0  0  0  0  0  0  0  0  0  0  0  0
  190.2840  175.7460  146.8390 C   0  0  0  0  0  2  0  0  0  0  0  0
  196.9930  173.4340  142.2960 C   0  0  2  0  0  0  0  0  0  0  0  0
  194.5490  176.1130  144.4540 C   0  0  0  0  0  0  0  0  0  0  0  0
  194.8580  174.8900  142.2640 C   0  0  1  0  0  3  0  0  0  0  0  0
  196.4190  173.4150  143.7080 C   0  0  2  0  0  3  0  0  0  0  0  0
  197.6500  172.5980  143.3730 C   0  0  0  0  0  2  0  0  0  0  0  0
  197.7270  175.8480  143.0590 C   0  0  0  0  0  2  0  0  0  0  0  0
  190.6720  174.2360  144.9660 N   0  0  2  0  0  0  0  0  0  0  0  0
  188.5160  174.8300  142.5950 C   0  0  0  0  0  2  0  0  0  0  0  0
  193.3360  174.7990  142.2410 C   0  0  0  0  0  2  0  0  0  0  0  0
  196.4710  176.6940  142.9190 C   0  0  0  0  0  2  0  0  0  0  0  0
  191.2530  174.5190  143.6300 C   0  0  1  0  0  3  0  0  0  0  0  0
  188.9680  175.1470  146.4380 C   0  0  0  0  0  2  0  0  0  0  0  0
  195.2840  175.9050  143.2330 N   0  0  0  0  0  0  0  0  0  0  0  0
  197.7650  174.7450  141.9960 C   0  0  0  0  0  2  0  0  0  0  0  0
  188.6670  175.5040  143.9710 C   0  0  1  0  0  3  0  0  0  0  0  0
  193.3100  175.4610  144.6540 C   0  0  0  0  0  0  0  0  0  0  0  0
  195.4810  173.4980  142.5100 C   0  0  2  0  0  3  0  0  0  0  0  0
  192.7840  174.4850  143.6390 C   0  0  2  0  0  3  0  0  0  0  0  0
  194.3360  177.1650  146.6310 C   0  0  0  0  0  3  0  0  0  0  0  0
  189.1910  173.4600  142.4960 C   0  0  0  0  0  2  0  0  0  0  0  0
  195.0440  176.9730  145.4450 C   0  0  0  0  0  3  0  0  0  0  0  0
  190.7160  173.5390  142.5710 C   0  0  0  0  0  2  0  0  0  0  0  0
  189.2260  174.5620  145.0680 C   0  0  1  0  0  3  0  0  0  0  0  0
  193.1260  176.5060  146.8330 C   0  0  0  0  0  3  0  0  0  0  0  0
  191.3200  174.9010  146.1220 C   0  0  1  0  0  3  0  0  0  0  0  0
  189.4440  176.6620  143.8530 O   0  0  0  0  0  0  0  0  0  0  0  0
  188.5700  177.6580  143.4070 C   0  0  0  0  0  2  0  0  0  0  0  0
  185.5840  179.2470  143.8450 C   0  0  0  0  0  2  0  0  0  0  0  0
  187.1520  178.2110  145.3240 N   0  0  0  0  0  2  0  0  0  0  0  0
  187.2010  177.4890  144.0550 C   0  0  1  0  0  3  0  0  0  0  0  0
  185.9460  179.0270  145.2920 C   0  0  0  0  0  2  0  0  0  0  0  0
  186.1030  178.0200  143.1500 C   0  0  0  0  0  2  0  0  0  0  0  0
  1 27  1  0  0  0  0
  1 26  1  0  0  0  0
  3 16  1  6  0  0  0
  3 19  1  0  0  0  0
  3  7  1  0  0  0  0
  3  6  1  0  0  0  0
  4 18  1  0  0  0  0
  4 23  2  0  0  0  0
  5 11  1  1  0  0  0
  5 19  1  0  0  0  0
  5 15  1  0  0  0  0
  6  7  1  6  0  0  0
  9 25  1  0  0  0  0
  9 27  1  0  0  0  0
 10 17  1  0  0  0  0
 11 20  1  0  0  0  0
 12  8  1  0  0  0  0
 12 15  1  0  0  0  0
 13 20  1  0  0  0  0
 13  9  1  0  0  0  0
 14  2  1  0  0  0  0
 15  4  1  0  0  0  0
 16  8  1  0  0  0  0
 17 25  1  0  0  0  0
 18  1  2  0  0  0  0
 19  6  1  0  0  0  0
 20 18  1  0  0  0  0
 21 26  2  0  0  0  0
 22 24  1  0  0  0  0
 22 10  1  0  0  0  0
 23 21  1  0  0  0  0
 24 13  1  0  0  0  0
 25 14  1  0  0  0  0
 27  2  1  0  0  0  0
 28 17  1  0  0  0  0
 29 28  1  0  0  0  0
 29 32  1  0  0  0  0
 30 33  1  0  0  0  0
 32 31  1  0  0  0  0
 33 31  1  0  0  0  0
 34 30  1  0  0  0  0
 34 32  1  0  0  0  0
M  END
>  <MODEL>
4

>  <REMARK>
 VINA RESULT:      -7.9      1.799      8.046
  Name = 
  3 active torsions:
  status: ('A' for Active; 'I' for Inactive)
    1  A    between atoms: C_17  and  O_28
    2  A    between atoms: O_28  and  C_29
    3  A    between atoms: C_29  and  C_32
                            x       y       z     vdW  Elec       q    Type
                         _______ _______ _______ _____ _____    ______ ____

>  <TORSDO>
F 3

$$$$
=
 OpenBabel11112417513D

 34 42  0  0  1  0  0  0  0  0999 V2000
  193.1020  173.3390  142.7950 C   0  0  0  0  0  0  0  0  0  0  0  0
  194.9750  171.9760  141.8090 C   0  0  0  0  0  2  0  0  0  0  0  0
  189.9310  175.9100  147.2940 C   0  0  2  0  0  0  0  0  0  0  0  0
  191.7260  175.2110  143.5390 C   0  0  0  0  0  0  0  0  0  0  0  0
  192.0530  176.1890  145.8470 C   0  0  1  0  0  3  0  0  0  0  0  0
  190.0220  174.6830  146.3930 C   0  0  2  0  0  3  0  0  0  0  0  0
  188.9120  174.7970  147.4190 C   0  0  0  0  0  2  0  0  0  0  0  0
  189.1490  177.0140  145.0310 C   0  0  0  0  0  2  0  0  0  0  0  0
  195.1070  172.5680  144.1690 N   0  0  2  0  0  0  0  0  0  0  0  0
  197.9410  174.0580  144.7820 C   0  0  0  0  0  2  0  0  0  0  0  0
  193.4940  175.7070  145.7130 C   0  0  0  0  0  2  0  0  0  0  0  0
  190.4370  177.2620  144.2600 C   0  0  0  0  0  2  0  0  0  0  0  0
  195.0020  173.9000  144.8160 C   0  0  1  0  0  3  0  0  0  0  0  0
  196.3080  171.5290  142.3320 C   0  0  0  0  0  2  0  0  0  0  0  0
  191.4070  176.2070  144.5310 N   0  0  0  0  0  0  0  0  0  0  0  0
  189.3820  177.1480  146.5400 C   0  0  0  0  0  2  0  0  0  0  0  0
  197.4030  173.4880  143.4580 C   0  0  1  0  0  3  0  0  0  0  0  0
  192.7920  174.3080  143.7600 C   0  0  0  0  0  0  0  0  0  0  0  0
  191.2970  175.3480  146.8980 C   0  0  2  0  0  3  0  0  0  0  0  0
  193.5500  174.3200  145.0580 C   0  0  2  0  0  3  0  0  0  0  0  0
  191.3010  174.1690  141.3890 C   0  0  0  0  0  3  0  0  0  0  0  0
  197.2460  173.5020  146.0270 C   0  0  0  0  0  2  0  0  0  0  0  0
  190.9970  175.1390  142.3430 C   0  0  0  0  0  3  0  0  0  0  0  0
  195.7850  173.9380  146.1410 C   0  0  0  0  0  2  0  0  0  0  0  0
  196.4630  172.2680  143.6410 C   0  0  1  0  0  3  0  0  0  0  0  0
  192.3390  173.2680  141.6200 C   0  0  0  0  0  3  0  0  0  0  0  0
  194.1690  172.3000  143.0530 C   0  0  1  0  0  3  0  0  0  0  0  0
  196.7810  174.5000  142.7190 O   0  0  0  0  0  0  0  0  0  0  0  0
  197.7390  174.9390  141.8010 C   0  0  0  0  0  2  0  0  0  0  0  0
  194.6910  175.9940  140.6900 C   0  0  0  0  0  2  0  0  0  0  0  0
  196.4790  174.7430  139.7110 N   0  0  0  0  0  2  0  0  0  0  0  0
  197.0690  175.6890  140.6560 C   0  0  1  0  0  3  0  0  0  0  0  0
  195.1040  175.1750  139.4940 C   0  0  0  0  0  2  0  0  0  0  0  0
  195.9760  176.6070  141.1730 C   0  0  0  0  0  2  0  0  0  0  0  0
  1 27  1  0  0  0  0
  1 18  1  0  0  0  0
  2 14  1  0  0  0  0
  2 27  1  0  0  0  0
  3 16  1  6  0  0  0
  3  7  1  0  0  0  0
  4 18  2  0  0  0  0
  4 15  1  0  0  0  0
  5 11  1  6  0  0  0
  5 19  1  0  0  0  0
  6 19  1  0  0  0  0
  6  3  1  0  0  0  0
  6  7  1  1  0  0  0
  8 16  1  0  0  0  0
  9 13  1  0  0  0  0
 10 22  1  0  0  0  0
 12 15  1  0  0  0  0
 12  8  1  0  0  0  0
 13 20  1  0  0  0  0
 13 24  1  0  0  0  0
 14 25  1  0  0  0  0
 15  5  1  0  0  0  0
 17 25  1  0  0  0  0
 17 10  1  0  0  0  0
 18 20  1  0  0  0  0
 19  3  1  0  0  0  0
 20 11  1  0  0  0  0
 21 26  1  0  0  0  0
 21 23  2  0  0  0  0
 22 24  1  0  0  0  0
 23  4  1  0  0  0  0
 25  9  1  0  0  0  0
 26  1  2  0  0  0  0
 27  9  1  0  0  0  0
 28 17  1  0  0  0  0
 29 28  1  0  0  0  0
 30 34  1  0  0  0  0
 31 32  1  0  0  0  0
 32 34  1  0  0  0  0
 32 29  1  0  0  0  0
 33 31  1  0  0  0  0
 33 30  1  0  0  0  0
M  END
>  <MODEL>
5

>  <REMARK>
 VINA RESULT:      -7.8      2.503      3.904
  Name = 
  3 active torsions:
  status: ('A' for Active; 'I' for Inactive)
    1  A    between atoms: C_17  and  O_28
    2  A    between atoms: O_28  and  C_29
    3  A    between atoms: C_29  and  C_32
                            x       y       z     vdW  Elec       q    Type
                         _______ _______ _______ _____ _____    ______ ____

>  <TORSDO>
F 3

$$$$
=
 OpenBabel11112417513D

 34 42  0  0  1  0  0  0  0  0999 V2000
  193.1180  176.0820  145.2830 C   0  0  0  0  0  0  0  0  0  0  0  0
  195.5000  175.5990  144.6260 C   0  0  0  0  0  2  0  0  0  0  0  0
  187.1840  176.9110  144.2840 C   0  0  2  0  0  0  0  0  0  0  0  0
  190.8350  175.8380  146.1070 C   0  0  0  0  0  0  0  0  0  0  0  0
  188.9950  175.0870  144.5460 C   0  0  1  0  0  3  0  0  0  0  0  0
  188.5200  177.6280  144.4440 C   0  0  2  0  0  3  0  0  0  0  0  0
  187.2510  178.4210  144.2030 C   0  0  0  0  0  2  0  0  0  0  0  0
  187.5180  176.5610  146.8750 C   0  0  0  0  0  2  0  0  0  0  0  0
  193.7590  175.2580  142.9560 N   0  0  2  0  0  0  0  0  0  0  0  0
  193.9390  172.2270  141.7690 C   0  0  0  0  0  2  0  0  0  0  0  0
  190.1030  174.3680  143.7840 C   0  0  0  0  0  2  0  0  0  0  0  0
  188.5030  175.4080  146.9830 C   0  0  0  0  0  2  0  0  0  0  0  0
  192.5090  174.4610  143.0440 C   0  0  1  0  0  3  0  0  0  0  0  0
  196.1280  174.9800  143.4130 C   0  0  0  0  0  2  0  0  0  0  0  0
  189.4650  175.4510  145.8870 N   0  0  0  0  0  0  0  0  0  0  0  0
  186.6260  176.4040  145.6380 C   0  0  0  0  0  2  0  0  0  0  0  0
  194.8220  172.9180  142.8240 C   0  0  1  0  0  3  0  0  0  0  0  0
  191.7850  175.7050  145.0680 C   0  0  0  0  0  0  0  0  0  0  0  0
  188.4630  176.2840  143.7280 C   0  0  2  0  0  3  0  0  0  0  0  0
  191.3660  175.2380  143.7020 C   0  0  2  0  0  3  0  0  0  0  0  0
  192.5660  176.7160  147.5640 C   0  0  0  0  0  3  0  0  0  0  0  0
  193.1490  173.1970  140.8870 C   0  0  0  0  0  2  0  0  0  0  0  0
  191.2430  176.3330  147.3540 C   0  0  0  0  0  3  0  0  0  0  0  0
  192.0700  173.9600  141.6560 C   0  0  0  0  0  2  0  0  0  0  0  0
  194.9580  174.4490  142.6170 C   0  0  1  0  0  3  0  0  0  0  0  0
  193.4950  176.6020  146.5310 C   0  0  0  0  0  3  0  0  0  0  0  0
  194.1270  176.0440  144.1580 C   0  0  1  0  0  3  0  0  0  0  0  0
  194.3520  172.6200  144.1080 O   0  0  0  0  0  0  0  0  0  0  0  0
  194.6830  171.2800  144.3280 C   0  0  0  0  0  2  0  0  0  0  0  0
  197.0990  169.8100  146.2360 C   0  0  0  0  0  2  0  0  0  0  0  0
  194.7080  169.7460  146.2360 N   0  0  0  0  0  2  0  0  0  0  0  0
  195.1130  171.0720  145.7760 C   0  0  1  0  0  3  0  0  0  0  0  0
  195.8900  169.1330  146.8290 C   0  0  0  0  0  2  0  0  0  0  0  0
  196.6190  171.1990  145.9190 C   0  0  0  0  0  2  0  0  0  0  0  0
  1 26  1  0  0  0  0
  3  7  1  6  0  0  0
  3  6  1  0  0  0  0
  3 16  1  0  0  0  0
  4 23  2  0  0  0  0
  5 11  1  6  0  0  0
  5 15  1  0  0  0  0
  6  7  1  6  0  0  0
  8 12  1  0  0  0  0
  9 13  1  0  0  0  0
  9 27  1  0  0  0  0
 10 17  1  0  0  0  0
 13 20  1  0  0  0  0
 14  2  1  0  0  0  0
 15  4  1  0  0  0  0
 15 12  1  0  0  0  0
 16  8  1  0  0  0  0
 17 28  1  0  0  0  0
 18  1  2  0  0  0  0
 18  4  1  0  0  0  0
 19  3  1  0  0  0  0
 19  6  1  0  0  0  0
 19  5  1  0  0  0  0
 20 11  1  0  0  0  0
 20 18  1  0  0  0  0
 22 24  1  0  0  0  0
 22 10  1  0  0  0  0
 23 21  1  0  0  0  0
 24 13  1  0  0  0  0
 25 17  1  0  0  0  0
 25  9  1  0  0  0  0
 25 14  1  0  0  0  0
 26 21  2  0  0  0  0
 27  2  1  0  0  0  0
 27  1  1  0  0  0  0
 28 29  1  0  0  0  0
 29 32  1  0  0  0  0
 30 33  1  0  0  0  0
 31 33  1  0  0  0  0
 32 34  1  0  0  0  0
 32 31  1  0  0  0  0
 34 30  1  0  0  0  0
M  END
>  <MODEL>
6

>  <REMARK>
 VINA RESULT:      -7.7      2.368      4.982
  Name = 
  3 active torsions:
  status: ('A' for Active; 'I' for Inactive)
    1  A    between atoms: C_17  and  O_28
    2  A    between atoms: O_28  and  C_29
    3  A    between atoms: C_29  and  C_32
                            x       y       z     vdW  Elec       q    Type
                         _______ _______ _______ _____ _____    ______ ____

>  <TORSDO>
F 3

$$$$
=
 OpenBabel11112417513D

 34 42  0  0  1  0  0  0  0  0999 V2000
  193.1660  175.0130  143.5680 C   0  0  0  0  0  0  0  0  0  0  0  0
  193.6780  176.4570  145.5650 C   0  0  0  0  0  2  0  0  0  0  0  0
  190.6680  170.2930  140.6730 C   0  0  2  0  0  0  0  0  0  0  0  0
  192.1750  174.1430  141.5150 C   0  0  0  0  0  0  0  0  0  0  0  0
  190.1470  172.6390  141.6230 C   0  0  1  0  0  3  0  0  0  0  0  0
  191.9370  170.7890  141.3560 C   0  0  2  0  0  3  0  0  0  0  0  0
  191.8900  169.4030  140.7450 C   0  0  0  0  0  2  0  0  0  0  0  0
  191.4530  172.0260  138.8480 C   0  0  0  0  0  2  0  0  0  0  0  0
  191.9890  174.7180  145.8100 N   0  0  2  0  0  0  0  0  0  0  0  0
  189.2120  176.0150  146.9210 C   0  0  0  0  0  2  0  0  0  0  0  0
  189.8260  173.3700  142.9220 C   0  0  0  0  0  2  0  0  0  0  0  0
  191.0280  173.3800  139.3960 C   0  0  0  0  0  2  0  0  0  0  0  0
  190.7840  174.4490  144.9870 C   0  0  1  0  0  3  0  0  0  0  0  0
  193.0500  176.5990  146.9200 C   0  0  0  0  0  2  0  0  0  0  0  0
  191.1340  173.4000  140.8510 N   0  0  0  0  0  0  0  0  0  0  0  0
  190.4690  170.9310  139.2740 C   0  0  0  0  0  2  0  0  0  0  0  0
  190.5590  176.6970  146.6210 C   0  0  1  0  0  3  0  0  0  0  0  0
  192.1540  174.2890  142.9220 C   0  0  0  0  0  0  0  0  0  0  0  0
  190.5740  171.1830  141.9120 C   0  0  2  0  0  3  0  0  0  0  0  0
  191.0990  173.6070  143.7480 C   0  0  2  0  0  3  0  0  0  0  0  0
  194.2170  175.4520  141.4200 C   0  0  0  0  0  3  0  0  0  0  0  0
  189.3110  174.4990  147.1060 C   0  0  0  0  0  2  0  0  0  0  0  0
  193.2050  174.7410  140.7750 C   0  0  0  0  0  3  0  0  0  0  0  0
  189.6840  173.7630  145.8180 C   0  0  0  0  0  2  0  0  0  0  0  0
  191.7870  175.7740  146.8350 C   0  0  1  0  0  3  0  0  0  0  0  0
  194.2030  175.5760  142.8080 C   0  0  0  0  0  3  0  0  0  0  0  0
  193.2200  175.0960  145.0760 C   0  0  1  0  0  3  0  0  0  0  0  0
  190.5460  177.2320  145.3280 O   0  0  0  0  0  0  0  0  0  0  0  0
  189.2670  177.7660  145.1540 C   0  0  0  0  0  2  0  0  0  0  0  0
  188.8400  178.2120  141.7990 C   0  0  0  0  0  2  0  0  0  0  0  0
  187.3490  177.8480  143.6330 N   0  0  0  0  0  2  0  0  0  0  0  0
  188.5960  177.1470  143.9330 C   0  0  1  0  0  3  0  0  0  0  0  0
  187.3920  178.1830  142.2160 C   0  0  0  0  0  2  0  0  0  0  0  0
  189.5030  177.2240  142.7180 C   0  0  0  0  0  2  0  0  0  0  0  0
  1 27  1  0  0  0  0
  2 14  1  0  0  0  0
  3 16  1  6  0  0  0
  3  7  1  0  0  0  0
  3  6  1  0  0  0  0
  3 19  1  0  0  0  0
  4 18  2  0  0  0  0
  5 19  1  0  0  0  0
  5 11  1  1  0  0  0
  6  7  1  1  0  0  0
  6 19  1  0  0  0  0
  8 16  1  0  0  0  0
  8 12  1  0  0  0  0
  9 25  1  0  0  0  0
 10 22  1  0  0  0  0
 11 20  1  0  0  0  0
 12 15  1  0  0  0  0
 13  9  1  0  0  0  0
 13 24  1  0  0  0  0
 15  4  1  0  0  0  0
 15  5  1  0  0  0  0
 17 25  1  0  0  0  0
 17 10  1  0  0  0  0
 18  1  1  0  0  0  0
 18 20  1  0  0  0  0
 20 13  1  0  0  0  0
 21 26  1  0  0  0  0
 23 21  2  0  0  0  0
 23  4  1  0  0  0  0
 24 22  1  0  0  0  0
 25 14  1  0  0  0  0
 26  1  2  0  0  0  0
 27  2  1  0  0  0  0
 27  9  1  0  0  0  0
 28 17  1  0  0  0  0
 29 28  1  0  0  0  0
 30 33  1  0  0  0  0
 30 34  1  0  0  0  0
 31 32  1  0  0  0  0
 32 29  1  0  0  0  0
 33 31  1  0  0  0  0
 34 32  1  0  0  0  0
M  END
>  <MODEL>
7

>  <REMARK>
 VINA RESULT:      -7.7      2.392      6.448
  Name = 
  3 active torsions:
  status: ('A' for Active; 'I' for Inactive)
    1  A    between atoms: C_17  and  O_28
    2  A    between atoms: O_28  and  C_29
    3  A    between atoms: C_29  and  C_32
                            x       y       z     vdW  Elec       q    Type
                         _______ _______ _______ _____ _____    ______ ____

>  <TORSDO>
F 3

$$$$
=
 OpenBabel11112417513D

 34 42  0  0  1  0  0  0  0  0999 V2000
  193.1960  176.0190  144.0810 C   0  0  0  0  0  0  0  0  0  0  0  0
  195.3600  175.5320  142.8900 C   0  0  0  0  0  2  0  0  0  0  0  0
  187.1900  176.8320  144.4880 C   0  0  2  0  0  0  0  0  0  0  0  0
  191.1700  175.7820  145.4180 C   0  0  0  0  0  0  0  0  0  0  0  0
  189.0180  175.0120  144.3380 C   0  0  1  0  0  3  0  0  0  0  0  0
  188.5240  177.5520  144.3250 C   0  0  2  0  0  3  0  0  0  0  0  0
  187.2310  178.3410  144.3790 C   0  0  0  0  0  2  0  0  0  0  0  0
  188.1210  176.5090  146.9330 C   0  0  0  0  0  2  0  0  0  0  0  0
  193.2780  175.1720  141.6770 N   0  0  2  0  0  0  0  0  0  0  0  0
  193.1860  172.1290  140.5090 C   0  0  0  0  0  2  0  0  0  0  0  0
  189.9200  174.2870  143.3440 C   0  0  0  0  0  2  0  0  0  0  0  0
  189.1090  175.3580  146.8190 C   0  0  0  0  0  2  0  0  0  0  0  0
  192.0860  174.3750  142.0620 C   0  0  1  0  0  3  0  0  0  0  0  0
  195.6890  174.9010  141.5690 C   0  0  0  0  0  2  0  0  0  0  0  0
  189.7870  175.3910  145.5280 N   0  0  0  0  0  0  0  0  0  0  0  0
  186.9660  176.3390  145.9400 C   0  0  0  0  0  2  0  0  0  0  0  0
  194.2880  172.8320  141.3220 C   0  0  1  0  0  3  0  0  0  0  0  0
  191.8500  175.6390  144.1870 C   0  0  0  0  0  0  0  0  0  0  0  0
  188.3050  176.2000  143.6550 C   0  0  2  0  0  3  0  0  0  0  0  0
  191.1260  175.1570  142.9610 C   0  0  2  0  0  3  0  0  0  0  0  0
  193.1910  176.6760  146.4210 C   0  0  0  0  0  3  0  0  0  0  0  0
  192.2090  173.0890  139.8270 C   0  0  0  0  0  2  0  0  0  0  0  0
  191.8560  176.2890  146.5310 C   0  0  0  0  0  3  0  0  0  0  0  0
  191.3370  173.8590  140.8200 C   0  0  0  0  0  2  0  0  0  0  0  0
  194.3670  174.3610  141.0740 C   0  0  1  0  0  3  0  0  0  0  0  0
  193.8520  176.5530  145.2010 C   0  0  0  0  0  3  0  0  0  0  0  0
  193.9140  175.9700  142.7510 C   0  0  1  0  0  3  0  0  0  0  0  0
  194.1330  172.5470  142.6830 O   0  0  0  0  0  0  0  0  0  0  0  0
  195.1060  171.5880  142.9810 C   0  0  0  0  0  2  0  0  0  0  0  0
  195.8690  173.4090  145.7620 C   0  0  0  0  0  2  0  0  0  0  0  0
  196.7020  171.3730  144.8250 N   0  0  0  0  0  2  0  0  0  0  0  0
  195.2830  171.4640  144.4890 C   0  0  1  0  0  3  0  0  0  0  0  0
  196.9470  172.3610  145.8670 C   0  0  0  0  0  2  0  0  0  0  0  0
  194.6880  172.6630  145.2060 C   0  0  0  0  0  2  0  0  0  0  0  0
  1 18  2  0  0  0  0
  1 26  1  0  0  0  0
  3  7  1  6  0  0  0
  3 16  1  0  0  0  0
  4 15  1  0  0  0  0
  4 23  2  0  0  0  0
  5 11  1  6  0  0  0
  5 15  1  0  0  0  0
  6  7  1  6  0  0  0
  6  3  1  0  0  0  0
  9 13  1  0  0  0  0
  9 27  1  0  0  0  0
 10 17  1  0  0  0  0
 12  8  1  0  0  0  0
 13 20  1  0  0  0  0
 14  2  1  0  0  0  0
 15 12  1  0  0  0  0
 16  8  1  0  0  0  0
 17 28  1  0  0  0  0
 18  4  1  0  0  0  0
 19  6  1  0  0  0  0
 19  5  1  0  0  0  0
 19  3  1  0  0  0  0
 20 11  1  0  0  0  0
 20 18  1  0  0  0  0
 21 23  1  0  0  0  0
 22 10  1  0  0  0  0
 22 24  1  0  0  0  0
 24 13  1  0  0  0  0
 25 17  1  0  0  0  0
 25 14  1  0  0  0  0
 25  9  1  0  0  0  0
 26 21  2  0  0  0  0
 27  2  1  0  0  0  0
 27  1  1  0  0  0  0
 28 29  1  0  0  0  0
 29 32  1  0  0  0  0
 30 33  1  0  0  0  0
 31 33  1  0  0  0  0
 32 31  1  0  0  0  0
 32 34  1  0  0  0  0
 34 30  1  0  0  0  0
M  END
>  <MODEL>
8

>  <REMARK>
 VINA RESULT:      -7.7      2.166      4.754
  Name = 
  3 active torsions:
  status: ('A' for Active; 'I' for Inactive)
    1  A    between atoms: C_17  and  O_28
    2  A    between atoms: O_28  and  C_29
    3  A    between atoms: C_29  and  C_32
                            x       y       z     vdW  Elec       q    Type
                         _______ _______ _______ _____ _____    ______ ____

>  <TORSDO>
F 3

$$$$
=
 OpenBabel11112417513D

 34 42  0  0  1  0  0  0  0  0999 V2000
  194.3260  176.2960  144.1350 C   0  0  0  0  0  0  0  0  0  0  0  0
  196.5250  176.1340  142.9190 C   0  0  0  0  0  2  0  0  0  0  0  0
  188.2680  176.4080  144.5800 C   0  0  2  0  0  0  0  0  0  0  0  0
  192.3450  175.7460  145.4470 C   0  0  0  0  0  0  0  0  0  0  0  0
  190.2870  174.8160  144.3120 C   0  0  1  0  0  3  0  0  0  0  0  0
  189.5130  177.2800  144.4690 C   0  0  2  0  0  3  0  0  0  0  0  0
  188.1410  177.9160  144.5720 C   0  0  0  0  0  2  0  0  0  0  0  0
  189.2420  176.0270  147.0000 C   0  0  0  0  0  2  0  0  0  0  0  0
  194.4890  175.6260  141.6790 N   0  0  2  0  0  0  0  0  0  0  0  0
  194.7300  172.6780  140.3100 C   0  0  0  0  0  2  0  0  0  0  0  0
  191.2590  174.2640  143.2750 C   0  0  0  0  0  2  0  0  0  0  0  0
  190.3500  175.0020  146.8110 C   0  0  0  0  0  2  0  0  0  0  0  0
  193.3960  174.6780  142.0070 C   0  0  1  0  0  3  0  0  0  0  0  0
  196.9150  175.6330  141.5600 C   0  0  0  0  0  2  0  0  0  0  0  0
  191.0150  175.1970  145.5270 N   0  0  0  0  0  0  0  0  0  0  0  0
  188.1080  175.7960  145.9950 C   0  0  0  0  0  2  0  0  0  0  0  0
  195.7520  173.4420  141.1710 C   0  0  1  0  0  3  0  0  0  0  0  0
  193.0310  175.7620  144.2110 C   0  0  0  0  0  0  0  0  0  0  0  0
  189.4430  175.9610  143.7090 C   0  0  2  0  0  3  0  0  0  0  0  0
  192.3580  175.2870  142.9540 C   0  0  2  0  0  3  0  0  0  0  0  0
  194.2580  176.7900  146.5130 C   0  0  0  0  0  3  0  0  0  0  0  0
  193.6490  173.5670  139.6910 C   0  0  0  0  0  2  0  0  0  0  0  0
  192.9750  176.2510  146.5930 C   0  0  0  0  0  3  0  0  0  0  0  0
  192.7020  174.1670  140.7310 C   0  0  0  0  0  2  0  0  0  0  0  0
  195.6590  174.9840  141.0260 C   0  0  1  0  0  3  0  0  0  0  0  0
  194.9240  176.8230  145.2890 C   0  0  0  0  0  3  0  0  0  0  0  0
  195.0380  176.4170  142.8070 C   0  0  1  0  0  3  0  0  0  0  0  0
  195.6360  173.0510  142.5100 O   0  0  0  0  0  0  0  0  0  0  0  0
  196.6860  172.1560  142.7320 C   0  0  0  0  0  2  0  0  0  0  0  0
  195.7340  173.3980  145.7630 C   0  0  0  0  0  2  0  0  0  0  0  0
  197.8300  173.1990  144.6290 N   0  0  0  0  0  2  0  0  0  0  0  0
  197.0000  172.0680  144.2210 C   0  0  1  0  0  3  0  0  0  0  0  0
  197.1910  173.7830  145.8000 C   0  0  0  0  0  2  0  0  0  0  0  0
  195.7250  172.0770  145.0460 C   0  0  0  0  0  2  0  0  0  0  0  0
  1 18  2  0  0  0  0
  1 26  1  0  0  0  0
  3  7  1  6  0  0  0
  3 16  1  0  0  0  0
  4 15  1  0  0  0  0
  4 23  2  0  0  0  0
  5 11  1  6  0  0  0
  5 15  1  0  0  0  0
  6  7  1  6  0  0  0
  6  3  1  0  0  0  0
  9 13  1  0  0  0  0
  9 27  1  0  0  0  0
 10 17  1  0  0  0  0
 12  8  1  0  0  0  0
 13 20  1  0  0  0  0
 14  2  1  0  0  0  0
 15 12  1  0  0  0  0
 16  8  1  0  0  0  0
 17 28  1  0  0  0  0
 18  4  1  0  0  0  0
 19  5  1  0  0  0  0
 19  6  1  0  0  0  0
 19  3  1  0  0  0  0
 20 11  1  0  0  0  0
 20 18  1  0  0  0  0
 21 23  1  0  0  0  0
 22 10  1  0  0  0  0
 22 24  1  0  0  0  0
 24 13  1  0  0  0  0
 25 17  1  0  0  0  0
 25 14  1  0  0  0  0
 25  9  1  0  0  0  0
 26 21  2  0  0  0  0
 27  2  1  0  0  0  0
 27  1  1  0  0  0  0
 28 29  1  0  0  0  0
 29 32  1  0  0  0  0
 30 33  1  0  0  0  0
 31 33  1  0  0  0  0
 32 31  1  0  0  0  0
 32 34  1  0  0  0  0
 34 30  1  0  0  0  0
M  END
>  <MODEL>
9

>  <REMARK>
 VINA RESULT:      -7.6      2.107      5.234
  Name = 
  3 active torsions:
  status: ('A' for Active; 'I' for Inactive)
    1  A    between atoms: C_17  and  O_28
    2  A    between atoms: O_28  and  C_29
    3  A    between atoms: C_29  and  C_32
                            x       y       z     vdW  Elec       q    Type
                         _______ _______ _______ _____ _____    ______ ____

>  <TORSDO>
F 3

$$$$
