=
 OpenBabel11112416213D

 30 35  0  0  1  0  0  0  0  0999 V2000
  186.1680  177.2210  143.7120 C   0  0  0  0  0  0  0  0  0  0  0  0
  184.7500  178.3450  145.4550 C   0  0  0  0  0  0  0  0  0  0  0  0
  188.8150  175.9030  146.5810 N   0  0  0  0  0  2  0  0  0  0  0  0
  187.3100  176.4330  143.3900 C   0  0  0  0  0  0  0  0  0  0  0  0
  185.2200  177.5740  142.5970 C   0  0  0  0  0  2  0  0  0  0  0  0
  187.2320  176.5810  139.7570 O   0  0  0  0  0  0  0  0  0  0  0  0
  189.7930  175.1370  141.9220 C   0  0  1  0  0  3  0  0  0  0  0  0
  186.9160  176.7990  140.9600 C   0  0  0  0  0  0  0  0  0  0  0  0
  190.2430  174.9310  143.3520 C   0  0  2  0  0  3  0  0  0  0  0  0
  189.6870  175.3030  145.7420 C   0  0  0  0  0  0  0  0  0  0  0  0
  185.9580  177.9050  141.3040 C   0  0  1  0  0  3  0  0  0  0  0  0
  187.5290  176.0420  142.0180 N   0  0  0  0  0  0  0  0  0  0  0  0
  184.5230  178.6400  146.8020 C   0  0  0  0  0  3  0  0  0  0  0  0
  190.6170  173.5880  143.5030 O   0  0  0  0  0  0  0  0  0  0  0  0
  190.6160  174.1220  141.1830 C   0  0  0  0  0  2  0  0  0  0  0  0
  183.8440  178.8440  144.5260 O   0  0  0  0  0  1  0  0  0  0  0  0
  187.8720  176.3680  145.7420 C   0  0  0  0  0  0  0  0  0  0  0  0
  185.3920  178.1840  147.7900 C   0  0  0  0  0  3  0  0  0  0  0  0
  185.8780  177.5680  145.0710 C   0  0  0  0  0  0  0  0  0  0  0  0
  188.1670  176.0470  144.4420 C   0  0  0  0  0  0  0  0  0  0  0  0
  190.7490  174.7630  146.1510 O   0  0  0  0  0  0  0  0  0  0  0  0
  189.3370  175.3590  144.4310 N   0  0  0  0  0  0  0  0  0  0  0  0
  191.1990  173.2400  142.2720 C   0  0  0  0  0  2  0  0  0  0  0  0
  187.7530  173.5960  142.2870 C   0  0  0  0  0  1  0  0  0  0  0  0
  186.5060  177.4270  147.4380 C   0  0  0  0  0  3  0  0  0  0  0  0
  186.7540  177.1170  146.0970 C   0  0  0  0  0  0  0  0  0  0  0  0
  188.3160  174.8720  141.6640 C   0  0  2  0  0  3  0  0  0  0  0  0
  184.9710  178.2230  140.1770 C   0  0  0  0  0  2  0  0  0  0  0  0
  182.6950  177.6000  139.8520 O   0  0  0  0  0  1  0  0  0  0  0  0
  183.5380  178.3470  140.6730 C   0  0  0  0  0  2  0  0  0  0  0  0
  1 19  1  0  0  0  0
  2 13  1  0  0  0  0
  4  1  2  0  0  0  0
  4 20  1  0  0  0  0
  5  1  1  0  0  0  0
  6  8  2  0  0  0  0
  7 15  1  6  0  0  0
  7  9  1  0  0  0  0
  8 11  1  0  0  0  0
  8 12  1  0  0  0  0
  9 14  1  1  0  0  0
  9 22  1  0  0  0  0
 10 21  2  0  0  0  0
 10  3  1  0  0  0  0
 11 28  1  6  0  0  0
 11  5  1  0  0  0  0
 12  4  1  0  0  0  0
 13 18  2  0  0  0  0
 15 23  1  0  0  0  0
 16  2  1  0  0  0  0
 17 26  1  0  0  0  0
 17  3  1  0  0  0  0
 19  2  2  0  0  0  0
 19 26  1  0  0  0  0
 20 17  2  0  0  0  0
 22 20  1  0  0  0  0
 22 10  1  0  0  0  0
 23 14  1  0  0  0  0
 25 18  1  0  0  0  0
 26 25  2  0  0  0  0
 27  7  1  0  0  0  0
 27 12  1  0  0  0  0
 27 24  1  1  0  0  0
 28 30  1  0  0  0  0
 29 30  1  0  0  0  0
M  END
>  <MODEL>
1

>  <REMARK>
 VINA RESULT:      -8.9      0.000      0.000
  Name = 
  2 active torsions:
  status: ('A' for Active; 'I' for Inactive)
    1  A    between atoms: C_11  and  C_28
    2  A    between atoms: C_28  and  C_30
                            x       y       z     vdW  Elec       q    Type
                         _______ _______ _______ _____ _____    ______ ____

>  <TORSDO>
F 2

$$$$
=
 OpenBabel11112416213D

 30 35  0  0  1  0  0  0  0  0999 V2000
  187.4370  176.7600  144.2390 C   0  0  0  0  0  0  0  0  0  0  0  0
  185.3910  177.9710  145.0510 C   0  0  0  0  0  0  0  0  0  0  0  0
  189.3650  177.4220  147.8190 N   0  0  0  0  0  2  0  0  0  0  0  0
  188.7540  176.2820  144.4940 C   0  0  0  0  0  0  0  0  0  0  0  0
  186.7940  176.3850  142.9300 C   0  0  0  0  0  2  0  0  0  0  0  0
  189.6830  175.0640  141.1960 O   0  0  0  0  0  0  0  0  0  0  0  0
  191.7550  175.3330  144.1900 C   0  0  1  0  0  3  0  0  0  0  0  0
  189.0030  175.6030  142.1130 C   0  0  0  0  0  0  0  0  0  0  0  0
  191.8120  175.8060  145.6260 C   0  0  2  0  0  3  0  0  0  0  0  0
  190.5390  176.8430  147.4880 C   0  0  0  0  0  0  0  0  0  0  0  0
  187.7890  176.4230  141.7750 C   0  0  1  0  0  3  0  0  0  0  0  0
  189.4260  175.5010  143.4840 N   0  0  0  0  0  0  0  0  0  0  0  0
  184.7370  178.6560  146.0800 C   0  0  0  0  0  3  0  0  0  0  0  0
  192.3830  174.7850  146.4000 O   0  0  0  0  0  0  0  0  0  0  0  0
  192.9370  174.4090  144.1150 C   0  0  0  0  0  2  0  0  0  0  0  0
  184.7070  177.8060  143.8520 O   0  0  0  0  0  1  0  0  0  0  0  0
  188.6260  177.2490  146.7080 C   0  0  0  0  0  0  0  0  0  0  0  0
  185.3620  178.8700  147.3060 C   0  0  0  0  0  3  0  0  0  0  0  0
  186.7110  177.4770  145.2440 C   0  0  0  0  0  0  0  0  0  0  0  0
  189.3350  176.5780  145.7450 C   0  0  0  0  0  0  0  0  0  0  0  0
  191.5250  176.8280  148.2700 O   0  0  0  0  0  0  0  0  0  0  0  0
  190.5720  176.3100  146.2390 N   0  0  0  0  0  0  0  0  0  0  0  0
  193.3470  174.1990  145.5610 C   0  0  0  0  0  2  0  0  0  0  0  0
  190.0380  173.5040  144.8040 C   0  0  0  0  0  1  0  0  0  0  0  0
  186.6560  178.4010  147.5160 C   0  0  0  0  0  3  0  0  0  0  0  0
  187.3300  177.7110  146.5030 C   0  0  0  0  0  0  0  0  0  0  0  0
  190.4940  174.5700  143.8100 C   0  0  2  0  0  3  0  0  0  0  0  0
  187.1210  176.0020  140.4630 C   0  0  0  0  0  2  0  0  0  0  0  0
  185.4910  177.6970  140.0820 O   0  0  0  0  0  1  0  0  0  0  0  0
  186.7020  177.1920  139.6120 C   0  0  0  0  0  2  0  0  0  0  0  0
  1  4  2  0  0  0  0
  1 19  1  0  0  0  0
  2 19  2  0  0  0  0
  2 13  1  0  0  0  0
  4 20  1  0  0  0  0
  5  1  1  0  0  0  0
  6  8  2  0  0  0  0
  7 15  1  1  0  0  0
  7  9  1  0  0  0  0
  8 12  1  0  0  0  0
  9 22  1  0  0  0  0
  9 14  1  1  0  0  0
 10  3  1  0  0  0  0
 10 21  2  0  0  0  0
 11 28  1  6  0  0  0
 11  8  1  0  0  0  0
 11  5  1  0  0  0  0
 12 27  1  0  0  0  0
 12  4  1  0  0  0  0
 13 18  2  0  0  0  0
 15 23  1  0  0  0  0
 16  2  1  0  0  0  0
 17  3  1  0  0  0  0
 18 25  1  0  0  0  0
 19 26  1  0  0  0  0
 20 22  1  0  0  0  0
 20 17  2  0  0  0  0
 22 10  1  0  0  0  0
 23 14  1  0  0  0  0
 26 17  1  0  0  0  0
 26 25  2  0  0  0  0
 27  7  1  0  0  0  0
 27 24  1  1  0  0  0
 30 29  1  0  0  0  0
 30 28  1  0  0  0  0
M  END
>  <MODEL>
2

>  <REMARK>
 VINA RESULT:      -8.1      1.751      2.505
  Name = 
  2 active torsions:
  status: ('A' for Active; 'I' for Inactive)
    1  A    between atoms: C_11  and  C_28
    2  A    between atoms: C_28  and  C_30
                            x       y       z     vdW  Elec       q    Type
                         _______ _______ _______ _____ _____    ______ ____

>  <TORSDO>
F 2

$$$$
=
 OpenBabel11112416213D

 30 35  0  0  1  0  0  0  0  0999 V2000
  189.3520  175.1980  144.0020 C   0  0  0  0  0  0  0  0  0  0  0  0
  190.6840  173.4270  142.8180 C   0  0  0  0  0  0  0  0  0  0  0  0
  187.3790  176.1760  140.5210 N   0  0  0  0  0  2  0  0  0  0  0  0
  188.3500  176.2100  143.9530 C   0  0  0  0  0  0  0  0  0  0  0  0
  189.9470  174.8620  145.3440 C   0  0  0  0  0  2  0  0  0  0  0  0
  188.6600  177.6320  147.2860 O   0  0  0  0  0  0  0  0  0  0  0  0
  186.6100  178.7940  144.4960 C   0  0  1  0  0  3  0  0  0  0  0  0
  188.8910  176.9030  146.2810 C   0  0  0  0  0  0  0  0  0  0  0  0
  186.2550  178.5840  143.0400 C   0  0  2  0  0  3  0  0  0  0  0  0
  186.6400  177.1880  141.0240 C   0  0  0  0  0  0  0  0  0  0  0  0
  190.1630  176.1060  146.2000 C   0  0  1  0  0  3  0  0  0  0  0  0
  187.9780  176.8890  145.1710 N   0  0  0  0  0  0  0  0  0  0  0  0
  190.9650  172.7330  141.6380 C   0  0  0  0  0  3  0  0  0  0  0  0
  184.8570  178.6150  142.9240 O   0  0  0  0  0  0  0  0  0  0  0  0
  185.4730  179.6470  144.9790 C   0  0  0  0  0  2  0  0  0  0  0  0
  191.4030  173.0800  143.9550 O   0  0  0  0  0  1  0  0  0  0  0  0
  188.0700  175.7530  141.5940 C   0  0  0  0  0  0  0  0  0  0  0  0
  190.2920  173.0320  140.4550 C   0  0  0  0  0  3  0  0  0  0  0  0
  189.6980  174.4530  142.8300 C   0  0  0  0  0  0  0  0  0  0  0  0
  187.7460  176.4840  142.7080 C   0  0  0  0  0  0  0  0  0  0  0  0
  185.8680  177.8780  140.3070 O   0  0  0  0  0  0  0  0  0  0  0  0
  186.8230  177.4130  142.3510 N   0  0  0  0  0  0  0  0  0  0  0  0
  184.4430  179.5700  143.8680 C   0  0  0  0  0  2  0  0  0  0  0  0
  185.5320  176.5380  145.1410 C   0  0  0  0  0  1  0  0  0  0  0  0
  189.3280  174.0360  140.4400 C   0  0  0  0  0  3  0  0  0  0  0  0
  189.0270  174.7430  141.6090 C   0  0  0  0  0  0  0  0  0  0  0  0
  186.6810  177.5250  145.3350 C   0  0  2  0  0  3  0  0  0  0  0  0
  190.7320  175.7330  147.5720 C   0  0  0  0  0  2  0  0  0  0  0  0
  191.5310  177.4990  148.9560 O   0  0  0  0  0  1  0  0  0  0  0  0
  191.9200  176.5980  147.9670 C   0  0  0  0  0  2  0  0  0  0  0  0
  1  5  1  0  0  0  0
  2 19  1  0  0  0  0
  2 16  1  0  0  0  0
  3 10  1  0  0  0  0
  3 17  1  0  0  0  0
  4  1  1  0  0  0  0
  4 12  1  0  0  0  0
  5 11  1  0  0  0  0
  7 15  1  1  0  0  0
  7 27  1  0  0  0  0
  8  6  2  0  0  0  0
  9 14  1  1  0  0  0
  9  7  1  0  0  0  0
 10 22  1  0  0  0  0
 11  8  1  0  0  0  0
 11 28  1  1  0  0  0
 12 27  1  0  0  0  0
 12  8  1  0  0  0  0
 13  2  2  0  0  0  0
 14 23  1  0  0  0  0
 17 26  2  0  0  0  0
 17 20  1  0  0  0  0
 18 13  1  0  0  0  0
 19  1  2  0  0  0  0
 20  4  2  0  0  0  0
 21 10  2  0  0  0  0
 22 20  1  0  0  0  0
 22  9  1  0  0  0  0
 23 15  1  0  0  0  0
 25 18  2  0  0  0  0
 25 26  1  0  0  0  0
 26 19  1  0  0  0  0
 27 24  1  6  0  0  0
 28 30  1  0  0  0  0
 30 29  1  0  0  0  0
M  END
>  <MODEL>
3

>  <REMARK>
 VINA RESULT:      -8.0      1.751      7.248
  Name = 
  2 active torsions:
  status: ('A' for Active; 'I' for Inactive)
    1  A    between atoms: C_11  and  C_28
    2  A    between atoms: C_28  and  C_30
                            x       y       z     vdW  Elec       q    Type
                         _______ _______ _______ _____ _____    ______ ____

>  <TORSDO>
F 2

$$$$
=
 OpenBabel11112416213D

 30 35  0  0  1  0  0  0  0  0999 V2000
  186.4430  177.2560  144.1040 C   0  0  0  0  0  0  0  0  0  0  0  0
  184.5790  178.4620  142.9270 C   0  0  0  0  0  0  0  0  0  0  0  0
  187.8160  175.7060  140.5420 N   0  0  0  0  0  2  0  0  0  0  0  0
  187.5920  176.4160  144.0310 C   0  0  0  0  0  0  0  0  0  0  0  0
  186.0810  177.8380  145.4440 C   0  0  0  0  0  2  0  0  0  0  0  0
  188.2510  175.8630  147.5640 O   0  0  0  0  0  0  0  0  0  0  0  0
  189.8740  174.3250  144.6770 C   0  0  1  0  0  3  0  0  0  0  0  0
  187.6830  176.2710  146.5140 C   0  0  0  0  0  0  0  0  0  0  0  0
  189.8780  174.2040  143.1690 C   0  0  2  0  0  3  0  0  0  0  0  0
  188.8250  174.9710  141.0560 C   0  0  0  0  0  0  0  0  0  0  0  0
  186.2910  176.8360  146.5760 C   0  0  1  0  0  3  0  0  0  0  0  0
  188.3290  176.1290  145.2370 N   0  0  0  0  0  0  0  0  0  0  0  0
  183.9330  178.7850  141.7300 C   0  0  0  0  0  3  0  0  0  0  0  0
  191.2010  174.3400  142.7230 O   0  0  0  0  0  0  0  0  0  0  0  0
  191.2300  173.7910  145.0400 C   0  0  0  0  0  2  0  0  0  0  0  0
  184.0540  178.9840  144.1030 O   0  0  0  0  0  1  0  0  0  0  0  0
  187.2890  176.2890  141.6330 C   0  0  0  0  0  0  0  0  0  0  0  0
  184.3960  178.2910  140.5130 C   0  0  0  0  0  3  0  0  0  0  0  0
  185.7270  177.6210  142.9190 C   0  0  0  0  0  0  0  0  0  0  0  0
  187.9700  175.9200  142.7650 C   0  0  0  0  0  0  0  0  0  0  0  0
  189.5540  174.2350  140.3380 O   0  0  0  0  0  0  0  0  0  0  0  0
  188.9640  175.0690  142.4030 N   0  0  0  0  0  0  0  0  0  0  0  0
  191.9770  173.7250  143.7200 C   0  0  0  0  0  2  0  0  0  0  0  0
  190.6020  176.7990  144.5340 C   0  0  0  0  0  1  0  0  0  0  0  0
  185.5130  177.4610  140.4800 C   0  0  0  0  0  3  0  0  0  0  0  0
  186.1780  177.1250  141.6630 C   0  0  0  0  0  0  0  0  0  0  0  0
  189.7310  175.7430  145.2120 C   0  0  2  0  0  3  0  0  0  0  0  0
  185.9530  177.4640  147.9310 C   0  0  0  0  0  2  0  0  0  0  0  0
  187.0660  179.4140  148.7260 O   0  0  0  0  0  1  0  0  0  0  0  0
  186.0250  178.9840  147.9050 C   0  0  0  0  0  2  0  0  0  0  0  0
  1  5  1  0  0  0  0
  2 16  1  0  0  0  0
  3 10  1  0  0  0  0
  3 17  1  0  0  0  0
  4  1  1  0  0  0  0
  4 12  1  0  0  0  0
  5 11  1  0  0  0  0
  7 15  1  6  0  0  0
  7 27  1  0  0  0  0
  8 11  1  0  0  0  0
  8  6  2  0  0  0  0
  9 14  1  6  0  0  0
  9  7  1  0  0  0  0
 10 22  1  0  0  0  0
 11 28  1  1  0  0  0
 12  8  1  0  0  0  0
 13  2  2  0  0  0  0
 14 23  1  0  0  0  0
 17 26  2  0  0  0  0
 17 20  1  0  0  0  0
 18 13  1  0  0  0  0
 19  2  1  0  0  0  0
 19  1  2  0  0  0  0
 20  4  2  0  0  0  0
 21 10  2  0  0  0  0
 22 20  1  0  0  0  0
 22  9  1  0  0  0  0
 23 15  1  0  0  0  0
 25 18  2  0  0  0  0
 25 26  1  0  0  0  0
 26 19  1  0  0  0  0
 27 24  1  6  0  0  0
 27 12  1  0  0  0  0
 30 28  1  0  0  0  0
 30 29  1  0  0  0  0
M  END
>  <MODEL>
4

>  <REMARK>
 VINA RESULT:      -8.0      1.693      4.879
  Name = 
  2 active torsions:
  status: ('A' for Active; 'I' for Inactive)
    1  A    between atoms: C_11  and  C_28
    2  A    between atoms: C_28  and  C_30
                            x       y       z     vdW  Elec       q    Type
                         _______ _______ _______ _____ _____    ______ ____

>  <TORSDO>
F 2

$$$$
=
 OpenBabel11112416213D

 30 35  0  0  1  0  0  0  0  0999 V2000
  189.7710  175.5980  143.9500 C   0  0  0  0  0  0  0  0  0  0  0  0
  191.7800  174.9340  145.3050 C   0  0  0  0  0  0  0  0  0  0  0  0
  188.0570  177.4350  147.2150 N   0  0  0  0  0  2  0  0  0  0  0  0
  188.5110  176.2590  143.8770 C   0  0  0  0  0  0  0  0  0  0  0  0
  190.3450  175.0360  142.6760 C   0  0  0  0  0  2  0  0  0  0  0  0
  187.4400  175.3100  140.5340 O   0  0  0  0  0  0  0  0  0  0  0  0
  185.5700  177.1170  143.0960 C   0  0  1  0  0  3  0  0  0  0  0  0
  188.1440  175.3750  141.5800 C   0  0  0  0  0  0  0  0  0  0  0  0
  185.5810  177.6200  144.5240 C   0  0  2  0  0  3  0  0  0  0  0  0
  186.9060  177.8060  146.6140 C   0  0  0  0  0  0  0  0  0  0  0  0
  189.2710  174.4040  141.7970 C   0  0  1  0  0  3  0  0  0  0  0  0
  187.8260  176.3280  142.6090 N   0  0  0  0  0  0  0  0  0  0  0  0
  192.4540  174.9530  146.5290 C   0  0  0  0  0  3  0  0  0  0  0  0
  185.1380  178.9510  144.5210 O   0  0  0  0  0  0  0  0  0  0  0  0
  184.4530  177.9160  142.4890 C   0  0  0  0  0  2  0  0  0  0  0  0
  192.3880  174.2710  144.2460 O   0  0  0  0  0  1  0  0  0  0  0  0
  188.7260  176.8250  146.2200 C   0  0  0  0  0  0  0  0  0  0  0  0
  191.9030  175.5890  147.6390 C   0  0  0  0  0  3  0  0  0  0  0  0
  190.5140  175.5700  145.1740 C   0  0  0  0  0  0  0  0  0  0  0  0
  188.0000  176.8410  145.0560 C   0  0  0  0  0  0  0  0  0  0  0  0
  185.9810  178.3890  147.2380 O   0  0  0  0  0  0  0  0  0  0  0  0
  186.8230  177.4720  145.3000 N   0  0  0  0  0  0  0  0  0  0  0  0
  184.1610  178.9990  143.5110 C   0  0  0  0  0  2  0  0  0  0  0  0
  187.4490  178.7650  142.4450 C   0  0  0  0  0  1  0  0  0  0  0  0
  190.6640  176.2130  147.5360 C   0  0  0  0  0  3  0  0  0  0  0  0
  189.9690  176.2090  146.3220 C   0  0  0  0  0  0  0  0  0  0  0  0
  186.8510  177.3650  142.3130 C   0  0  2  0  0  3  0  0  0  0  0  0
  189.8740  173.8750  140.4920 C   0  0  0  0  0  2  0  0  0  0  0  0
  188.4850  172.3760  139.2680 O   0  0  0  0  0  1  0  0  0  0  0  0
  189.5000  172.4250  140.2210 C   0  0  0  0  0  2  0  0  0  0  0  0
  1 19  1  0  0  0  0
  2 13  1  0  0  0  0
  4  1  2  0  0  0  0
  4 20  1  0  0  0  0
  5  1  1  0  0  0  0
  6  8  2  0  0  0  0
  7 15  1  6  0  0  0
  7  9  1  0  0  0  0
  8 11  1  0  0  0  0
  8 12  1  0  0  0  0
  9 14  1  6  0  0  0
  9 22  1  0  0  0  0
 10  3  1  0  0  0  0
 10 21  2  0  0  0  0
 11 28  1  6  0  0  0
 11  5  1  0  0  0  0
 12  4  1  0  0  0  0
 13 18  2  0  0  0  0
 15 23  1  0  0  0  0
 16  2  1  0  0  0  0
 17 26  1  0  0  0  0
 17  3  1  0  0  0  0
 19  2  2  0  0  0  0
 19 26  1  0  0  0  0
 20 22  1  0  0  0  0
 20 17  2  0  0  0  0
 22 10  1  0  0  0  0
 23 14  1  0  0  0  0
 25 18  1  0  0  0  0
 26 25  2  0  0  0  0
 27 24  1  1  0  0  0
 27 12  1  0  0  0  0
 27  7  1  0  0  0  0
 29 30  1  0  0  0  0
 30 28  1  0  0  0  0
M  END
>  <MODEL>
5

>  <REMARK>
 VINA RESULT:      -7.9      1.867      5.621
  Name = 
  2 active torsions:
  status: ('A' for Active; 'I' for Inactive)
    1  A    between atoms: C_11  and  C_28
    2  A    between atoms: C_28  and  C_30
                            x       y       z     vdW  Elec       q    Type
                         _______ _______ _______ _____ _____    ______ ____

>  <TORSDO>
F 2

$$$$
=
 OpenBabel11112416213D

 30 35  0  0  1  0  0  0  0  0999 V2000
  191.3850  175.3530  143.3630 C   0  0  0  0  0  0  0  0  0  0  0  0
  193.6930  175.0410  144.3050 C   0  0  0  0  0  0  0  0  0  0  0  0
  190.1150  177.1830  146.8290 N   0  0  0  0  0  2  0  0  0  0  0  0
  190.0570  175.8450  143.5230 C   0  0  0  0  0  0  0  0  0  0  0  0
  191.7670  174.7820  142.0240 C   0  0  0  0  0  2  0  0  0  0  0  0
  188.4870  174.5410  140.5130 O   0  0  0  0  0  0  0  0  0  0  0  0
  186.9300  176.2730  143.3250 C   0  0  1  0  0  3  0  0  0  0  0  0
  189.3670  174.7660  141.3890 C   0  0  0  0  0  0  0  0  0  0  0  0
  187.1540  176.8710  144.6980 C   0  0  2  0  0  3  0  0  0  0  0  0
  188.8280  177.3640  146.4620 C   0  0  0  0  0  0  0  0  0  0  0  0
  190.6370  173.9600  141.4110 C   0  0  1  0  0  3  0  0  0  0  0  0
  189.1320  175.7400  142.4200 N   0  0  0  0  0  0  0  0  0  0  0  0
  194.5870  175.2290  145.3640 C   0  0  0  0  0  3  0  0  0  0  0  0
  186.5420  178.1320  144.7290 O   0  0  0  0  0  0  0  0  0  0  0  0
  185.6170  176.8810  142.9260 C   0  0  0  0  0  2  0  0  0  0  0  0
  194.1640  174.3870  143.1730 O   0  0  0  0  0  1  0  0  0  0  0  0
  190.6510  176.5950  145.7450 C   0  0  0  0  0  0  0  0  0  0  0  0
  194.1840  175.8660  146.5350 C   0  0  0  0  0  3  0  0  0  0  0  0
  192.3510  175.5030  144.4090 C   0  0  0  0  0  0  0  0  0  0  0  0
  189.7140  176.4390  144.7560 C   0  0  0  0  0  0  0  0  0  0  0  0
  187.9730  177.8690  147.2370 O   0  0  0  0  0  0  0  0  0  0  0  0
  188.5330  176.9330  145.2090 N   0  0  0  0  0  0  0  0  0  0  0  0
  185.3880  177.9870  143.9400 C   0  0  0  0  0  2  0  0  0  0  0  0
  188.4010  178.0930  142.2330 C   0  0  0  0  0  1  0  0  0  0  0  0
  192.8750  176.3220  146.6620 C   0  0  0  0  0  3  0  0  0  0  0  0
  191.9620  176.1470  145.6170 C   0  0  0  0  0  0  0  0  0  0  0  0
  187.9860  176.6240  142.2870 C   0  0  2  0  0  3  0  0  0  0  0  0
  191.0360  173.4230  140.0340 C   0  0  0  0  0  2  0  0  0  0  0  0
  190.2350  171.3700  140.9390 O   0  0  0  0  0  1  0  0  0  0  0  0
  191.1180  171.9030  140.0020 C   0  0  0  0  0  2  0  0  0  0  0  0
  1  4  2  0  0  0  0
  1 19  1  0  0  0  0
  2 19  2  0  0  0  0
  2 13  1  0  0  0  0
  4 20  1  0  0  0  0
  5  1  1  0  0  0  0
  6  8  2  0  0  0  0
  7 15  1  6  0  0  0
  7  9  1  0  0  0  0
  8 11  1  0  0  0  0
  8 12  1  0  0  0  0
  9 14  1  6  0  0  0
  9 22  1  0  0  0  0
 10  3  1  0  0  0  0
 10 21  2  0  0  0  0
 11 28  1  6  0  0  0
 11  5  1  0  0  0  0
 12  4  1  0  0  0  0
 13 18  2  0  0  0  0
 15 23  1  0  0  0  0
 16  2  1  0  0  0  0
 17  3  1  0  0  0  0
 18 25  1  0  0  0  0
 19 26  1  0  0  0  0
 20 22  1  0  0  0  0
 20 17  2  0  0  0  0
 22 10  1  0  0  0  0
 23 14  1  0  0  0  0
 26 17  1  0  0  0  0
 26 25  2  0  0  0  0
 27 24  1  1  0  0  0
 27 12  1  0  0  0  0
 27  7  1  0  0  0  0
 30 28  1  0  0  0  0
 30 29  1  0  0  0  0
M  END
>  <MODEL>
6

>  <REMARK>
 VINA RESULT:      -7.8      2.449      6.233
  Name = 
  2 active torsions:
  status: ('A' for Active; 'I' for Inactive)
    1  A    between atoms: C_11  and  C_28
    2  A    between atoms: C_28  and  C_30
                            x       y       z     vdW  Elec       q    Type
                         _______ _______ _______ _____ _____    ______ ____

>  <TORSDO>
F 2

$$$$
=
 OpenBabel11112416213D

 30 35  0  0  1  0  0  0  0  0999 V2000
  189.0080  176.4210  145.3860 C   0  0  0  0  0  0  0  0  0  0  0  0
  186.9100  177.6340  146.0470 C   0  0  0  0  0  0  0  0  0  0  0  0
  187.4340  175.5190  141.6870 N   0  0  0  0  0  2  0  0  0  0  0  0
  189.7400  175.6940  144.4040 C   0  0  0  0  0  0  0  0  0  0  0  0
  189.7110  176.7720  146.6710 C   0  0  0  0  0  2  0  0  0  0  0  0
  192.6520  174.6880  146.3360 O   0  0  0  0  0  0  0  0  0  0  0  0
  191.7280  173.7190  142.9390 C   0  0  1  0  0  3  0  0  0  0  0  0
  191.5310  175.1980  146.0590 C   0  0  0  0  0  0  0  0  0  0  0  0
  190.6730  173.8190  141.8590 C   0  0  2  0  0  3  0  0  0  0  0  0
  188.4800  174.7990  141.2300 C   0  0  0  0  0  0  0  0  0  0  0  0
  190.6050  175.6360  147.1600 C   0  0  1  0  0  3  0  0  0  0  0  0
  191.0960  175.2940  144.6920 N   0  0  0  0  0  0  0  0  0  0  0  0
  185.6280  178.0760  145.7080 C   0  0  0  0  0  3  0  0  0  0  0  0
  191.3130  174.1220  140.6490 O   0  0  0  0  0  0  0  0  0  0  0  0
  192.9260  173.2470  142.1670 C   0  0  0  0  0  2  0  0  0  0  0  0
  187.3780  177.9370  147.3200 O   0  0  0  0  0  1  0  0  0  0  0  0
  187.8460  175.8940  142.9120 C   0  0  0  0  0  0  0  0  0  0  0  0
  185.0860  177.8020  144.4540 C   0  0  0  0  0  3  0  0  0  0  0  0
  187.6860  176.8970  145.1100 C   0  0  0  0  0  0  0  0  0  0  0  0
  189.1050  175.4190  143.1740 C   0  0  0  0  0  0  0  0  0  0  0  0
  188.4670  174.2350  140.1040 O   0  0  0  0  0  0  0  0  0  0  0  0
  189.5240  174.7110  142.0940 N   0  0  0  0  0  0  0  0  0  0  0  0
  192.5360  173.4320  140.7120 C   0  0  0  0  0  2  0  0  0  0  0  0
  192.2610  176.2370  142.7260 C   0  0  0  0  0  1  0  0  0  0  0  0
  185.8240  177.0770  143.5230 C   0  0  0  0  0  3  0  0  0  0  0  0
  187.1100  176.6260  143.8380 C   0  0  0  0  0  0  0  0  0  0  0  0
  192.0630  175.0280  143.6390 C   0  0  2  0  0  3  0  0  0  0  0  0
  191.3370  176.0320  148.4450 C   0  0  0  0  0  2  0  0  0  0  0  0
  191.6010  177.9110  149.8850 O   0  0  0  0  0  1  0  0  0  0  0  0
  191.5750  177.5320  148.5440 C   0  0  0  0  0  2  0  0  0  0  0  0
  1  5  1  0  0  0  0
  2 16  1  0  0  0  0
  3 17  1  0  0  0  0
  4 12  1  0  0  0  0
  4  1  2  0  0  0  0
  5 11  1  0  0  0  0
  7 15  1  6  0  0  0
  7 27  1  0  0  0  0
  8  6  2  0  0  0  0
  8 11  1  0  0  0  0
  9 14  1  6  0  0  0
  9 22  1  0  0  0  0
  9  7  1  0  0  0  0
 10  3  1  0  0  0  0
 10 22  1  0  0  0  0
 11 28  1  1  0  0  0
 12  8  1  0  0  0  0
 13  2  1  0  0  0  0
 14 23  1  0  0  0  0
 17 20  2  0  0  0  0
 17 26  1  0  0  0  0
 18 13  2  0  0  0  0
 19  1  1  0  0  0  0
 19  2  2  0  0  0  0
 20  4  1  0  0  0  0
 21 10  2  0  0  0  0
 22 20  1  0  0  0  0
 23 15  1  0  0  0  0
 25 26  2  0  0  0  0
 25 18  1  0  0  0  0
 26 19  1  0  0  0  0
 27 24  1  6  0  0  0
 27 12  1  0  0  0  0
 28 30  1  0  0  0  0
 30 29  1  0  0  0  0
M  END
>  <MODEL>
7

>  <REMARK>
 VINA RESULT:      -7.8      2.331      5.580
  Name = 
  2 active torsions:
  status: ('A' for Active; 'I' for Inactive)
    1  A    between atoms: C_11  and  C_28
    2  A    between atoms: C_28  and  C_30
                            x       y       z     vdW  Elec       q    Type
                         _______ _______ _______ _____ _____    ______ ____

>  <TORSDO>
F 2

$$$$
=
 OpenBabel11112416213D

 30 35  0  0  1  0  0  0  0  0999 V2000
  187.8490  175.8570  141.0530 C   0  0  0  0  0  0  0  0  0  0  0  0
  187.9430  174.6420  138.8560 C   0  0  0  0  0  0  0  0  0  0  0  0
  190.3300  173.0740  142.8070 N   0  0  0  0  0  2  0  0  0  0  0  0
  188.2600  175.9540  142.4130 C   0  0  0  0  0  0  0  0  0  0  0  0
  187.0140  176.9760  140.4890 C   0  0  0  0  0  2  0  0  0  0  0  0
  186.1770  178.7070  143.5560 O   0  0  0  0  0  0  0  0  0  0  0  0
  188.3880  176.5600  145.5140 C   0  0  1  0  0  3  0  0  0  0  0  0
  186.6660  177.8260  142.7950 C   0  0  0  0  0  0  0  0  0  0  0  0
  189.3040  175.3550  145.4820 C   0  0  2  0  0  3  0  0  0  0  0  0
  190.3210  173.6010  144.0500 C   0  0  0  0  0  0  0  0  0  0  0  0
  185.9880  177.4850  141.4980 C   0  0  1  0  0  3  0  0  0  0  0  0
  187.8320  177.0860  143.1980 N   0  0  0  0  0  0  0  0  0  0  0  0
  188.4400  173.5750  138.1010 C   0  0  0  0  0  3  0  0  0  0  0  0
  190.4870  175.6870  146.1570 O   0  0  0  0  0  0  0  0  0  0  0  0
  188.7840  177.2220  146.8020 C   0  0  0  0  0  2  0  0  0  0  0  0
  187.0830  175.5320  138.2240 O   0  0  0  0  0  1  0  0  0  0  0  0
  189.5490  173.9270  142.1190 C   0  0  0  0  0  0  0  0  0  0  0  0
  189.2990  172.6370  138.6680 C   0  0  0  0  0  3  0  0  0  0  0  0
  188.3120  174.7860  140.2220 C   0  0  0  0  0  0  0  0  0  0  0  0
  189.0960  174.9390  142.9260 C   0  0  0  0  0  0  0  0  0  0  0  0
  190.9240  173.0590  145.0130 O   0  0  0  0  0  0  0  0  0  0  0  0
  189.5890  174.7380  144.1750 N   0  0  0  0  0  0  0  0  0  0  0  0
  190.0740  176.5310  147.2030 C   0  0  0  0  0  2  0  0  0  0  0  0
  190.0140  177.9030  144.0230 C   0  0  0  0  0  1  0  0  0  0  0  0
  189.6690  172.7540  140.0050 C   0  0  0  0  0  3  0  0  0  0  0  0
  189.1870  173.8130  140.7810 C   0  0  0  0  0  0  0  0  0  0  0  0
  188.5700  177.5410  144.3650 C   0  0  2  0  0  3  0  0  0  0  0  0
  185.1780  178.6460  140.9140 C   0  0  0  0  0  2  0  0  0  0  0  0
  183.0580  178.2920  141.9410 O   0  0  0  0  0  1  0  0  0  0  0  0
  183.7120  178.2910  140.7100 C   0  0  0  0  0  2  0  0  0  0  0  0
  1  4  1  0  0  0  0
  2 19  1  0  0  0  0
  3 10  1  0  0  0  0
  4 20  2  0  0  0  0
  4 12  1  0  0  0  0
  5  1  1  0  0  0  0
  5 11  1  0  0  0  0
  7 15  1  1  0  0  0
  8 12  1  0  0  0  0
  8  6  2  0  0  0  0
  9  7  1  0  0  0  0
  9 14  1  6  0  0  0
 10 22  1  0  0  0  0
 10 21  2  0  0  0  0
 11 28  1  6  0  0  0
 11  8  1  0  0  0  0
 12 27  1  0  0  0  0
 13 18  1  0  0  0  0
 13  2  2  0  0  0  0
 14 23  1  0  0  0  0
 15 23  1  0  0  0  0
 16  2  1  0  0  0  0
 17  3  1  0  0  0  0
 17 20  1  0  0  0  0
 18 25  2  0  0  0  0
 19 26  1  0  0  0  0
 19  1  2  0  0  0  0
 20 22  1  0  0  0  0
 22  9  1  0  0  0  0
 25 26  1  0  0  0  0
 26 17  2  0  0  0  0
 27 24  1  6  0  0  0
 27  7  1  0  0  0  0
 30 28  1  0  0  0  0
 30 29  1  0  0  0  0
M  END
>  <MODEL>
8

>  <REMARK>
 VINA RESULT:      -7.7      1.920      5.218
  Name = 
  2 active torsions:
  status: ('A' for Active; 'I' for Inactive)
    1  A    between atoms: C_11  and  C_28
    2  A    between atoms: C_28  and  C_30
                            x       y       z     vdW  Elec       q    Type
                         _______ _______ _______ _____ _____    ______ ____

>  <TORSDO>
F 2

$$$$
=
 OpenBabel11112416213D

 30 35  0  0  1  0  0  0  0  0999 V2000
  187.8700  176.1830  143.5970 C   0  0  0  0  0  0  0  0  0  0  0  0
  185.6730  177.3680  143.8850 C   0  0  0  0  0  0  0  0  0  0  0  0
  189.1880  177.5370  147.2580 N   0  0  0  0  0  2  0  0  0  0  0  0
  189.1510  175.8420  144.1190 C   0  0  0  0  0  0  0  0  0  0  0  0
  187.4550  175.5620  142.2900 C   0  0  0  0  0  2  0  0  0  0  0  0
  190.6320  174.1780  141.2440 O   0  0  0  0  0  0  0  0  0  0  0  0
  192.2000  175.0600  144.4220 C   0  0  1  0  0  3  0  0  0  0  0  0
  189.7950  174.8090  141.9490 C   0  0  0  0  0  0  0  0  0  0  0  0
  192.0130  175.7600  145.7510 C   0  0  2  0  0  3  0  0  0  0  0  0
  190.4230  176.9930  147.2040 C   0  0  0  0  0  0  0  0  0  0  0  0
  188.6160  175.4810  141.3030 C   0  0  1  0  0  3  0  0  0  0  0  0
  190.0040  174.9570  143.3640 N   0  0  0  0  0  0  0  0  0  0  0  0
  184.8390  178.1630  144.6770 C   0  0  0  0  0  3  0  0  0  0  0  0
  192.4990  174.9160  146.7610 O   0  0  0  0  0  0  0  0  0  0  0  0
  193.4170  174.2190  144.6770 C   0  0  0  0  0  2  0  0  0  0  0  0
  185.1920  176.9680  142.6450 O   0  0  0  0  0  1  0  0  0  0  0  0
  188.6390  177.1390  146.0960 C   0  0  0  0  0  0  0  0  0  0  0  0
  185.2570  178.6110  145.9280 C   0  0  0  0  0  3  0  0  0  0  0  0
  186.9670  177.0010  144.3500 C   0  0  0  0  0  0  0  0  0  0  0  0
  189.5170  176.3720  145.3740 C   0  0  0  0  0  0  0  0  0  0  0  0
  191.2750  177.1690  148.1140 O   0  0  0  0  0  0  0  0  0  0  0  0
  190.6720  176.2710  146.0810 N   0  0  0  0  0  0  0  0  0  0  0  0
  193.6050  174.2700  146.1820 C   0  0  0  0  0  2  0  0  0  0  0  0
  190.4870  173.2420  145.0770 C   0  0  0  0  0  1  0  0  0  0  0  0
  186.5200  178.2700  146.4010 C   0  0  0  0  0  3  0  0  0  0  0  0
  187.3730  177.4740  145.6290 C   0  0  0  0  0  0  0  0  0  0  0  0
  191.0470  174.1640  143.9950 C   0  0  2  0  0  3  0  0  0  0  0  0
  188.1770  174.8120  139.9980 C   0  0  0  0  0  2  0  0  0  0  0  0
  188.1960  172.7120  138.8720 O   0  0  0  0  0  1  0  0  0  0  0  0
  188.0550  173.3000  140.1280 C   0  0  0  0  0  2  0  0  0  0  0  0
  1  4  2  0  0  0  0
  1 19  1  0  0  0  0
  2 19  2  0  0  0  0
  2 13  1  0  0  0  0
  4 20  1  0  0  0  0
  5  1  1  0  0  0  0
  6  8  2  0  0  0  0
  7 15  1  1  0  0  0
  7  9  1  0  0  0  0
  8 12  1  0  0  0  0
  9 22  1  0  0  0  0
  9 14  1  1  0  0  0
 10  3  1  0  0  0  0
 10 21  2  0  0  0  0
 11 28  1  6  0  0  0
 11  8  1  0  0  0  0
 11  5  1  0  0  0  0
 12 27  1  0  0  0  0
 12  4  1  0  0  0  0
 13 18  2  0  0  0  0
 15 23  1  0  0  0  0
 16  2  1  0  0  0  0
 17  3  1  0  0  0  0
 18 25  1  0  0  0  0
 19 26  1  0  0  0  0
 20 22  1  0  0  0  0
 20 17  2  0  0  0  0
 22 10  1  0  0  0  0
 23 14  1  0  0  0  0
 26 17  1  0  0  0  0
 26 25  2  0  0  0  0
 27  7  1  0  0  0  0
 27 24  1  1  0  0  0
 28 30  1  0  0  0  0
 29 30  1  0  0  0  0
M  END
>  <MODEL>
9

>  <REMARK>
 VINA RESULT:      -7.6      2.061      3.456
  Name = 
  2 active torsions:
  status: ('A' for Active; 'I' for Inactive)
    1  A    between atoms: C_11  and  C_28
    2  A    between atoms: C_28  and  C_30
                            x       y       z     vdW  Elec       q    Type
                         _______ _______ _______ _____ _____    ______ ____

>  <TORSDO>
F 2

$$$$
