=
 OpenBabel11112417263D

 37 43  0  0  1  0  0  0  0  0999 V2000
  188.2740  174.2770  141.1120 O   0  0  0  0  0  0  0  0  0  0  0  0
  185.6870  177.9100  142.7900 C   0  0  0  0  0  0  0  0  0  0  0  0
  188.6990  176.1660  145.1860 N   0  0  0  0  0  0  0  0  0  0  0  0
  188.4640  172.9230  140.8010 C   0  0  2  0  0  3  0  0  0  0  0  0
  191.4080  175.4280  143.4230 O   0  0  0  0  0  0  0  0  0  0  0  0
  186.8080  177.6370  145.0000 C   0  0  0  0  0  0  0  0  0  0  0  0
  189.1680  175.0680  144.3470 C   0  0  2  0  0  3  0  0  0  0  0  0
  190.9340  173.4260  140.4860 C   0  0  0  0  0  0  0  0  0  0  0  0
  187.8200  176.9740  144.4310 C   0  0  0  0  0  0  0  0  0  0  0  0
  190.6940  174.8210  144.4690 C   0  0  2  0  0  3  0  0  0  0  0  0
  186.7610  177.7750  146.4950 C   0  0  0  0  0  2  0  0  0  0  0  0
  189.9100  172.4790  141.0500 C   0  0  0  0  0  2  0  0  0  0  0  0
  187.8780  176.6890  142.9830 C   0  0  2  0  0  3  0  0  0  0  0  0
  186.2460  179.1190  142.0610 C   0  0  0  0  0  1  0  0  0  0  0  0
  189.1310  174.8110  147.2030 C   0  0  0  0  0  2  0  0  0  0  0  0
  187.2870  176.5040  147.1730 C   0  0  0  0  0  2  0  0  0  0  0  0
  186.4660  176.6450  142.3850 C   0  0  0  0  0  2  0  0  0  0  0  0
  191.2440  174.7000  141.2070 C   0  0  1  0  0  3  0  0  0  0  0  0
  191.7190  174.3670  142.5680 C   0  0  1  0  0  3  0  0  0  0  0  0
  188.6880  176.1660  146.6570 C   0  0  2  0  0  3  0  0  0  0  0  0
  188.6900  175.3800  142.9110 C   0  0  2  0  0  3  0  0  0  0  0  0
  185.7600  178.1280  144.2070 O   0  0  0  0  0  0  0  0  0  0  0  0
  191.2930  175.2320  145.8310 C   0  0  1  0  0  3  0  0  0  0  0  0
  184.2370  177.7370  142.3920 C   0  0  0  0  0  1  0  0  0  0  0  0
  192.6060  174.7820  141.5580 O   0  0  0  0  0  0  0  0  0  0  0  0
  191.4700  173.1790  139.4180 O   0  0  0  0  0  0  0  0  0  0  0  0
  187.9520  174.3080  142.3930 O   0  0  0  0  0  0  0  0  0  0  0  0
  190.6340  174.5590  147.0460 C   0  0  0  0  0  2  0  0  0  0  0  0
  193.6230  176.1060  146.0680 C   0  0  0  0  0  3  0  0  0  0  0  0
  192.7750  175.0110  145.8720 C   0  0  0  0  0  0  0  0  0  0  0  0
  193.3220  173.7300  145.7060 C   0  0  0  0  0  3  0  0  0  0  0  0
  195.3850  171.9500  145.5250 Cl  0  0  0  0  0  0  0  0  0  0  0  0
  195.5500  174.6470  145.9330 C   0  0  0  0  0  3  0  0  0  0  0  0
  194.7070  173.5500  145.7360 C   0  0  0  0  0  0  0  0  0  0  0  0
  195.0090  175.9250  146.0990 C   0  0  0  0  0  3  0  0  0  0  0  0
  188.0560  173.8710  138.6490 O   0  0  0  0  0  1  0  0  0  0  0  0
  188.0790  172.6660  139.3530 C   0  0  0  0  0  2  0  0  0  0  0  0
  1 27  1  0  0  0  0
  2 22  1  0  0  0  0
  3 20  1  0  0  0  0
  4 37  1  6  0  0  0
  4 12  1  0  0  0  0
  4  1  1  0  0  0  0
  6 11  1  0  0  0  0
  7 10  1  0  0  0  0
  7  3  1  1  0  0  0
  8 12  1  0  0  0  0
  9  6  2  0  0  0  0
  9  3  1  0  0  0  0
 10  5  1  6  0  0  0
 10 23  1  0  0  0  0
 11 16  1  0  0  0  0
 13 17  1  1  0  0  0
 13  9  1  0  0  0  0
 14  2  1  0  0  0  0
 17  2  1  0  0  0  0
 18  8  1  6  0  0  0
 18 25  1  0  0  0  0
 18 19  1  0  0  0  0
 19 25  1  6  0  0  0
 19  5  1  0  0  0  0
 20 16  1  6  0  0  0
 20 15  1  0  0  0  0
 21 27  1  1  0  0  0
 21 13  1  0  0  0  0
 21  7  1  0  0  0  0
 22  6  1  0  0  0  0
 23 30  1  6  0  0  0
 23 28  1  0  0  0  0
 24  2  1  0  0  0  0
 26  8  2  0  0  0  0
 28 15  1  0  0  0  0
 29 35  1  0  0  0  0
 30 29  2  0  0  0  0
 31 34  2  0  0  0  0
 31 30  1  0  0  0  0
 32 34  1  0  0  0  0
 33 35  2  0  0  0  0
 34 33  1  0  0  0  0
 36 37  1  0  0  0  0
M  END
>  <MODEL>
1

>  <REMARK>
 VINA RESULT:      -9.1      0.000      0.000
  Name = 
  2 active torsions:
  status: ('A' for Active; 'I' for Inactive)
    1  A    between atoms: C_4  and  C_37
    2  A    between atoms: C_23  and  C_30
                            x       y       z     vdW  Elec       q    Type
                         _______ _______ _______ _____ _____    ______ ____

>  <TORSDO>
F 2

$$$$
=
 OpenBabel11112417263D

 37 43  0  0  1  0  0  0  0  0999 V2000
  191.4150  172.7670  140.6320 O   0  0  0  0  0  0  0  0  0  0  0  0
  194.4890  172.1000  144.2100 C   0  0  0  0  0  0  0  0  0  0  0  0
  191.9260  175.4590  144.2150 N   0  0  0  0  0  0  0  0  0  0  0  0
  191.0890  173.1710  139.3290 C   0  0  2  0  0  3  0  0  0  0  0  0
  188.8800  174.6910  143.1540 O   0  0  0  0  0  0  0  0  0  0  0  0
  193.8220  174.3120  145.1460 C   0  0  0  0  0  0  0  0  0  0  0  0
  191.2360  175.3260  142.9360 C   0  0  2  0  0  3  0  0  0  0  0  0
  188.6390  173.0300  139.9860 C   0  0  0  0  0  0  0  0  0  0  0  0
  192.6810  174.2880  144.4510 C   0  0  0  0  0  0  0  0  0  0  0  0
  189.7550  175.7790  142.9970 C   0  0  2  0  0  3  0  0  0  0  0  0
  194.1770  175.5340  145.9440 C   0  0  0  0  0  2  0  0  0  0  0  0
  189.6990  173.8160  139.2650 C   0  0  0  0  0  2  0  0  0  0  0  0
  192.3160  173.1780  143.5470 C   0  0  2  0  0  3  0  0  0  0  0  0
  193.8650  170.9760  145.0190 C   0  0  0  0  0  1  0  0  0  0  0  0
  191.8320  177.9160  144.0120 C   0  0  0  0  0  2  0  0  0  0  0  0
  193.7260  176.8070  145.2150 C   0  0  0  0  0  2  0  0  0  0  0  0
  193.5740  172.4690  143.0290 C   0  0  0  0  0  2  0  0  0  0  0  0
  188.5530  173.0940  141.4790 C   0  0  1  0  0  3  0  0  0  0  0  0
  188.3430  174.5020  141.8780 C   0  0  1  0  0  3  0  0  0  0  0  0
  192.2320  176.7310  144.8870 C   0  0  2  0  0  3  0  0  0  0  0  0
  191.4330  173.8620  142.4830 C   0  0  2  0  0  3  0  0  0  0  0  0
  194.7150  173.2340  145.0600 O   0  0  0  0  0  0  0  0  0  0  0  0
  189.4660  176.8520  144.0680 C   0  0  1  0  0  3  0  0  0  0  0  0
  195.8170  171.6200  143.6660 C   0  0  0  0  0  1  0  0  0  0  0  0
  187.2970  173.5630  141.9090 O   0  0  0  0  0  0  0  0  0  0  0  0
  187.8860  172.3030  139.3590 O   0  0  0  0  0  0  0  0  0  0  0  0
  191.9890  173.8130  141.1980 O   0  0  0  0  0  0  0  0  0  0  0  0
  190.3160  178.1260  143.9380 C   0  0  0  0  0  2  0  0  0  0  0  0
  187.4560  177.9260  143.0400 C   0  0  0  0  0  3  0  0  0  0  0  0
  188.0120  177.2160  144.1090 C   0  0  0  0  0  0  0  0  0  0  0  0
  187.2080  176.8680  145.2050 C   0  0  0  0  0  3  0  0  0  0  0  0
  184.8600  176.7940  146.5960 Cl  0  0  0  0  0  0  0  0  0  0  0  0
  185.3070  177.9370  144.1550 C   0  0  0  0  0  3  0  0  0  0  0  0
  185.8590  177.2280  145.2260 C   0  0  0  0  0  0  0  0  0  0  0  0
  186.1050  178.2860  143.0620 C   0  0  0  0  0  3  0  0  0  0  0  0
  191.2520  170.8000  139.1210 O   0  0  0  0  0  1  0  0  0  0  0  0
  191.1600  171.9820  138.3860 C   0  0  0  0  0  2  0  0  0  0  0  0
  1 27  1  0  0  0  0
  2 14  1  0  0  0  0
  2 22  1  0  0  0  0
  3  9  1  0  0  0  0
  3 20  1  0  0  0  0
  4 37  1  6  0  0  0
  4  1  1  0  0  0  0
  6 11  1  0  0  0  0
  7 10  1  0  0  0  0
  7  3  1  1  0  0  0
  9  6  2  0  0  0  0
 10  5  1  1  0  0  0
 10 23  1  0  0  0  0
 12  4  1  0  0  0  0
 12  8  1  0  0  0  0
 13 17  1  6  0  0  0
 13  9  1  0  0  0  0
 16 11  1  0  0  0  0
 17  2  1  0  0  0  0
 18  8  1  6  0  0  0
 18 19  1  0  0  0  0
 18 25  1  0  0  0  0
 19 25  1  1  0  0  0
 19  5  1  0  0  0  0
 20 15  1  6  0  0  0
 20 16  1  0  0  0  0
 21 27  1  6  0  0  0
 21  7  1  0  0  0  0
 21 13  1  0  0  0  0
 22  6  1  0  0  0  0
 23 30  1  6  0  0  0
 24  2  1  0  0  0  0
 26  8  2  0  0  0  0
 28 15  1  0  0  0  0
 28 23  1  0  0  0  0
 29 35  2  0  0  0  0
 29 30  1  0  0  0  0
 30 31  2  0  0  0  0
 31 34  1  0  0  0  0
 33 34  2  0  0  0  0
 34 32  1  0  0  0  0
 35 33  1  0  0  0  0
 37 36  1  0  0  0  0
M  END
>  <MODEL>
2

>  <REMARK>
 VINA RESULT:      -8.8      2.679      6.680
  Name = 
  2 active torsions:
  status: ('A' for Active; 'I' for Inactive)
    1  A    between atoms: C_4  and  C_37
    2  A    between atoms: C_23  and  C_30
                            x       y       z     vdW  Elec       q    Type
                         _______ _______ _______ _____ _____    ______ ____

>  <TORSDO>
F 2

$$$$
=
 OpenBabel11112417263D

 37 43  0  0  1  0  0  0  0  0999 V2000
  191.3980  172.8030  140.6790 O   0  0  0  0  0  0  0  0  0  0  0  0
  194.5750  172.0310  144.1450 C   0  0  0  0  0  0  0  0  0  0  0  0
  191.9380  175.3250  144.3800 N   0  0  0  0  0  0  0  0  0  0  0  0
  191.0310  173.2630  139.4060 C   0  0  2  0  0  3  0  0  0  0  0  0
  188.8850  174.5380  143.3540 O   0  0  0  0  0  0  0  0  0  0  0  0
  193.8820  174.1780  145.2060 C   0  0  0  0  0  0  0  0  0  0  0  0
  191.2200  175.2390  143.1120 C   0  0  2  0  0  3  0  0  0  0  0  0
  188.6020  173.0320  140.1120 C   0  0  0  0  0  0  0  0  0  0  0  0
  192.7240  174.1610  144.5380 C   0  0  0  0  0  0  0  0  0  0  0  0
  189.7300  175.6530  143.2310 C   0  0  2  0  0  3  0  0  0  0  0  0
  194.2290  175.3660  146.0560 C   0  0  0  0  0  2  0  0  0  0  0  0
  189.6260  173.8780  139.4070 C   0  0  0  0  0  2  0  0  0  0  0  0
  192.3620  173.0890  143.5880 C   0  0  2  0  0  3  0  0  0  0  0  0
  193.9970  170.8540  144.9110 C   0  0  0  0  0  1  0  0  0  0  0  0
  191.7840  177.7860  144.3030 C   0  0  0  0  0  2  0  0  0  0  0  0
  193.7320  176.6630  145.4030 C   0  0  0  0  0  2  0  0  0  0  0  0
  193.6220  172.4360  143.0050 C   0  0  0  0  0  2  0  0  0  0  0  0
  188.5520  173.0190  141.6080 C   0  0  1  0  0  3  0  0  0  0  0  0
  188.3210  174.4010  142.0830 C   0  0  1  0  0  3  0  0  0  0  0  0
  192.2320  176.5680  145.1070 C   0  0  2  0  0  3  0  0  0  0  0  0
  191.4370  173.8040  142.5820 C   0  0  2  0  0  3  0  0  0  0  0  0
  194.7970  173.1270  145.0450 O   0  0  0  0  0  0  0  0  0  0  0  0
  189.4440  176.6650  144.3620 C   0  0  1  0  0  3  0  0  0  0  0  0
  195.8990  171.6100  143.5460 C   0  0  0  0  0  1  0  0  0  0  0  0
  187.2960  173.4370  142.0910 O   0  0  0  0  0  0  0  0  0  0  0  0
  187.8500  172.3200  139.4680 O   0  0  0  0  0  0  0  0  0  0  0  0
  191.9620  173.8330  141.2830 O   0  0  0  0  0  0  0  0  0  0  0  0
  190.2630  177.9630  144.2760 C   0  0  0  0  0  2  0  0  0  0  0  0
  187.2860  176.6690  145.6230 C   0  0  0  0  0  3  0  0  0  0  0  0
  187.9850  176.9920  144.4550 C   0  0  0  0  0  0  0  0  0  0  0  0
  187.3090  177.6030  143.3880 C   0  0  0  0  0  3  0  0  0  0  0  0
  185.1050  178.6460  142.1580 Cl  0  0  0  0  0  0  0  0  0  0  0  0
  185.2510  177.5640  144.6620 C   0  0  0  0  0  3  0  0  0  0  0  0
  185.9450  177.8870  143.4930 C   0  0  0  0  0  0  0  0  0  0  0  0
  185.9210  176.9550  145.7280 C   0  0  0  0  0  3  0  0  0  0  0  0
  191.2490  170.9100  139.0750 O   0  0  0  0  0  1  0  0  0  0  0  0
  191.1050  172.1250  138.4030 C   0  0  0  0  0  2  0  0  0  0  0  0
  1 27  1  0  0  0  0
  2 14  1  0  0  0  0
  2 22  1  0  0  0  0
  3  9  1  0  0  0  0
  3 20  1  0  0  0  0
  4 37  1  6  0  0  0
  4 12  1  0  0  0  0
  4  1  1  0  0  0  0
  6 11  1  0  0  0  0
  7 10  1  0  0  0  0
  7  3  1  1  0  0  0
  9  6  2  0  0  0  0
 10  5  1  1  0  0  0
 10 23  1  0  0  0  0
 12  8  1  0  0  0  0
 13 17  1  6  0  0  0
 13  9  1  0  0  0  0
 16 11  1  0  0  0  0
 17  2  1  0  0  0  0
 18  8  1  6  0  0  0
 18 19  1  0  0  0  0
 18 25  1  0  0  0  0
 19 25  1  1  0  0  0
 19  5  1  0  0  0  0
 20 15  1  6  0  0  0
 20 16  1  0  0  0  0
 21 27  1  6  0  0  0
 21  7  1  0  0  0  0
 21 13  1  0  0  0  0
 22  6  1  0  0  0  0
 23 30  1  6  0  0  0
 24  2  1  0  0  0  0
 26  8  2  0  0  0  0
 28 15  1  0  0  0  0
 28 23  1  0  0  0  0
 29 35  1  0  0  0  0
 30 29  2  0  0  0  0
 31 34  2  0  0  0  0
 31 30  1  0  0  0  0
 32 34  1  0  0  0  0
 33 35  2  0  0  0  0
 34 33  1  0  0  0  0
 37 36  1  0  0  0  0
M  END
>  <MODEL>
3

>  <REMARK>
 VINA RESULT:      -8.7      2.809      6.728
  Name = 
  2 active torsions:
  status: ('A' for Active; 'I' for Inactive)
    1  A    between atoms: C_4  and  C_37
    2  A    between atoms: C_23  and  C_30
                            x       y       z     vdW  Elec       q    Type
                         _______ _______ _______ _____ _____    ______ ____

>  <TORSDO>
F 2

$$$$
=
 OpenBabel11112417263D

 37 43  0  0  1  0  0  0  0  0999 V2000
  189.4710  173.6590  141.0350 O   0  0  0  0  0  0  0  0  0  0  0  0
  187.0690  177.2280  143.0820 C   0  0  0  0  0  0  0  0  0  0  0  0
  190.7990  176.0070  144.6500 N   0  0  0  0  0  0  0  0  0  0  0  0
  189.7140  172.2990  140.7930 C   0  0  2  0  0  3  0  0  0  0  0  0
  192.9770  175.3050  142.2510 O   0  0  0  0  0  0  0  0  0  0  0  0
  188.7810  177.2900  144.8940 C   0  0  0  0  0  0  0  0  0  0  0  0
  191.1330  174.8660  143.8040 C   0  0  2  0  0  3  0  0  0  0  0  0
  191.9300  172.9640  139.7450 C   0  0  0  0  0  0  0  0  0  0  0  0
  189.6610  176.6540  144.1150 C   0  0  0  0  0  0  0  0  0  0  0  0
  192.6510  174.7600  143.5040 C   0  0  2  0  0  3  0  0  0  0  0  0
  189.1340  177.5850  146.3230 C   0  0  0  0  0  2  0  0  0  0  0  0
  191.2120  172.0050  140.6530 C   0  0  0  0  0  2  0  0  0  0  0  0
  189.3480  176.2190  142.7390 C   0  0  2  0  0  3  0  0  0  0  0  0
  187.2690  178.3930  142.1280 C   0  0  0  0  0  1  0  0  0  0  0  0
  191.9160  174.9190  146.5610 C   0  0  0  0  0  2  0  0  0  0  0  0
  189.9630  176.4420  146.9230 C   0  0  0  0  0  2  0  0  0  0  0  0
  187.8390  175.9950  142.5750 C   0  0  0  0  0  2  0  0  0  0  0  0
  192.2870  174.3310  140.2410 C   0  0  1  0  0  3  0  0  0  0  0  0
  193.1530  174.1870  141.4320 C   0  0  1  0  0  3  0  0  0  0  0  0
  191.1950  176.1660  146.0570 C   0  0  2  0  0  3  0  0  0  0  0  0
  190.2460  174.9810  142.5440 C   0  0  2  0  0  3  0  0  0  0  0  0
  187.5070  177.6040  144.3960 O   0  0  0  0  0  0  0  0  0  0  0  0
  193.5550  175.3640  144.5990 C   0  0  1  0  0  3  0  0  0  0  0  0
  185.5940  176.8960  143.1310 C   0  0  0  0  0  1  0  0  0  0  0  0
  193.6750  174.5610  140.1800 O   0  0  0  0  0  0  0  0  0  0  0  0
  192.1730  172.6480  138.5920 O   0  0  0  0  0  0  0  0  0  0  0  0
  189.5140  173.8020  142.3470 O   0  0  0  0  0  0  0  0  0  0  0  0
  193.3350  174.7750  146.0020 C   0  0  0  0  0  2  0  0  0  0  0  0
  195.6560  176.4010  143.7280 C   0  0  0  0  0  3  0  0  0  0  0  0
  195.0050  175.2710  144.2330 C   0  0  0  0  0  0  0  0  0  0  0  0
  195.7130  174.0680  144.3760 C   0  0  0  0  0  3  0  0  0  0  0  0
  197.9400  172.4980  144.1940 Cl  0  0  0  0  0  0  0  0  0  0  0  0
  197.7080  175.1340  143.5140 C   0  0  0  0  0  3  0  0  0  0  0  0
  197.0620  174.0010  144.0160 C   0  0  0  0  0  0  0  0  0  0  0  0
  197.0060  176.3340  143.3700 C   0  0  0  0  0  3  0  0  0  0  0  0
  188.1900  172.9050  139.0590 O   0  0  0  0  0  1  0  0  0  0  0  0
  188.9730  171.8560  139.5420 C   0  0  0  0  0  2  0  0  0  0  0  0
  1 27  1  0  0  0  0
  2 24  1  0  0  0  0
  2 22  1  0  0  0  0
  3 20  1  0  0  0  0
  4 37  1  6  0  0  0
  4  1  1  0  0  0  0
  6 11  1  0  0  0  0
  7  3  1  1  0  0  0
  8 12  1  0  0  0  0
  9  3  1  0  0  0  0
  9  6  2  0  0  0  0
 10  5  1  6  0  0  0
 10  7  1  0  0  0  0
 10 23  1  0  0  0  0
 11 16  1  0  0  0  0
 12  4  1  0  0  0  0
 13 17  1  1  0  0  0
 13  9  1  0  0  0  0
 14  2  1  0  0  0  0
 17  2  1  0  0  0  0
 18  8  1  6  0  0  0
 18 19  1  0  0  0  0
 19 25  1  6  0  0  0
 19  5  1  0  0  0  0
 20 15  1  1  0  0  0
 20 16  1  0  0  0  0
 21 27  1  1  0  0  0
 21 13  1  0  0  0  0
 21  7  1  0  0  0  0
 22  6  1  0  0  0  0
 23 30  1  6  0  0  0
 23 28  1  0  0  0  0
 25 18  1  0  0  0  0
 26  8  2  0  0  0  0
 28 15  1  0  0  0  0
 29 30  1  0  0  0  0
 30 31  2  0  0  0  0
 33 34  2  0  0  0  0
 34 32  1  0  0  0  0
 34 31  1  0  0  0  0
 35 33  1  0  0  0  0
 35 29  2  0  0  0  0
 36 37  1  0  0  0  0
M  END
>  <MODEL>
4

>  <REMARK>
 VINA RESULT:      -8.0      1.672      2.166
  Name = 
  2 active torsions:
  status: ('A' for Active; 'I' for Inactive)
    1  A    between atoms: C_4  and  C_37
    2  A    between atoms: C_23  and  C_30
                            x       y       z     vdW  Elec       q    Type
                         _______ _______ _______ _____ _____    ______ ____

>  <TORSDO>
F 2

$$$$
=
 OpenBabel11112417263D

 37 43  0  0  1  0  0  0  0  0999 V2000
  194.3340  174.3320  143.7540 O   0  0  0  0  0  0  0  0  0  0  0  0
  194.9380  173.2260  139.1600 C   0  0  0  0  0  0  0  0  0  0  0  0
  191.0480  173.7990  140.7100 N   0  0  0  0  0  0  0  0  0  0  0  0
  194.2660  174.0030  145.1160 C   0  0  2  0  0  3  0  0  0  0  0  0
  190.9270  176.3410  142.8340 O   0  0  0  0  0  0  0  0  0  0  0  0
  192.4630  173.0520  138.9150 C   0  0  0  0  0  0  0  0  0  0  0  0
  191.3090  174.0260  142.1270 C   0  0  2  0  0  3  0  0  0  0  0  0
  193.2800  176.3050  145.5400 C   0  0  0  0  0  0  0  0  0  0  0  0
  192.2790  173.7890  140.0150 C   0  0  0  0  0  0  0  0  0  0  0  0
  190.3470  175.0640  142.7600 C   0  0  2  0  0  3  0  0  0  0  0  0
  191.2750  172.4460  138.2240 C   0  0  0  0  0  2  0  0  0  0  0  0
  193.2080  174.8360  145.8500 C   0  0  0  0  0  2  0  0  0  0  0  0
  193.3980  174.3180  140.8220 C   0  0  2  0  0  3  0  0  0  0  0  0
  195.4390  174.5180  138.5380 C   0  0  0  0  0  1  0  0  0  0  0  0
  188.9260  172.6770  141.2780 C   0  0  0  0  0  2  0  0  0  0  0  0
  190.2220  172.0010  139.2460 C   0  0  0  0  0  2  0  0  0  0  0  0
  194.6450  173.4400  140.6560 C   0  0  0  0  0  2  0  0  0  0  0  0
  192.7270  176.8200  144.2470 C   0  0  1  0  0  3  0  0  0  0  0  0
  191.2920  176.4690  144.1770 C   0  0  1  0  0  3  0  0  0  0  0  0
  189.8390  173.1700  140.1590 C   0  0  2  0  0  3  0  0  0  0  0  0
  192.8040  174.3970  142.2430 C   0  0  2  0  0  3  0  0  0  0  0  0
  193.7630  172.7840  138.4630 O   0  0  0  0  0  0  0  0  0  0  0  0
  188.9660  175.1460  142.0740 C   0  0  1  0  0  3  0  0  0  0  0  0
  196.0180  172.1750  139.0200 C   0  0  0  0  0  1  0  0  0  0  0  0
  191.7180  177.7790  144.4580 O   0  0  0  0  0  0  0  0  0  0  0  0
  193.8340  177.0660  146.3160 O   0  0  0  0  0  0  0  0  0  0  0  0
  193.4530  173.5520  143.1530 O   0  0  0  0  0  0  0  0  0  0  0  0
  188.2060  173.8120  142.0130 C   0  0  0  0  0  2  0  0  0  0  0  0
  187.7930  177.3510  141.9760 C   0  0  0  0  0  3  0  0  0  0  0  0
  188.0980  176.1950  142.7020 C   0  0  0  0  0  0  0  0  0  0  0  0
  187.6010  176.0400  144.0040 C   0  0  0  0  0  3  0  0  0  0  0  0
  186.1880  176.8410  146.1990 Cl  0  0  0  0  0  0  0  0  0  0  0  0
  186.5000  178.1900  143.8440 C   0  0  0  0  0  3  0  0  0  0  0  0
  186.8040  177.0370  144.5730 C   0  0  0  0  0  0  0  0  0  0  0  0
  186.9940  178.3480  142.5460 C   0  0  0  0  0  3  0  0  0  0  0  0
  196.4610  174.9150  144.9060 O   0  0  0  0  0  1  0  0  0  0  0  0
  195.6270  174.1950  145.7630 C   0  0  0  0  0  2  0  0  0  0  0  0
  1  4  1  0  0  0  0
  2 17  1  0  0  0  0
  4 37  1  1  0  0  0
  4 12  1  0  0  0  0
  6  9  2  0  0  0  0
  7  3  1  6  0  0  0
  7 21  1  0  0  0  0
  7 10  1  0  0  0  0
  8 12  1  0  0  0  0
  8 26  2  0  0  0  0
  9  3  1  0  0  0  0
  9 13  1  0  0  0  0
 10  5  1  6  0  0  0
 11  6  1  0  0  0  0
 11 16  1  0  0  0  0
 13 17  1  1  0  0  0
 13 21  1  0  0  0  0
 14  2  1  0  0  0  0
 15 28  1  0  0  0  0
 18 25  1  1  0  0  0
 18  8  1  0  0  0  0
 19  5  1  6  0  0  0
 19 18  1  0  0  0  0
 19 25  1  0  0  0  0
 20 16  1  6  0  0  0
 20  3  1  0  0  0  0
 20 15  1  0  0  0  0
 21 27  1  1  0  0  0
 22  6  1  0  0  0  0
 22  2  1  0  0  0  0
 23 30  1  1  0  0  0
 23 10  1  0  0  0  0
 24  2  1  0  0  0  0
 27  1  1  0  0  0  0
 28 23  1  0  0  0  0
 29 35  2  0  0  0  0
 29 30  1  0  0  0  0
 30 31  2  0  0  0  0
 31 34  1  0  0  0  0
 33 34  2  0  0  0  0
 34 32  1  0  0  0  0
 35 33  1  0  0  0  0
 36 37  1  0  0  0  0
M  END
>  <MODEL>
5

>  <REMARK>
 VINA RESULT:      -7.6      3.043      7.788
  Name = 
  2 active torsions:
  status: ('A' for Active; 'I' for Inactive)
    1  A    between atoms: C_4  and  C_37
    2  A    between atoms: C_23  and  C_30
                            x       y       z     vdW  Elec       q    Type
                         _______ _______ _______ _____ _____    ______ ____

>  <TORSDO>
F 2

$$$$
=
 OpenBabel11112417263D

 37 43  0  0  1  0  0  0  0  0999 V2000
  195.4620  174.8000  142.4450 O   0  0  0  0  0  0  0  0  0  0  0  0
  193.9070  173.8410  138.0450 C   0  0  0  0  0  0  0  0  0  0  0  0
  191.3680  173.2410  141.3690 N   0  0  0  0  0  0  0  0  0  0  0  0
  196.1900  174.4920  143.6040 C   0  0  2  0  0  3  0  0  0  0  0  0
  191.6690  175.6680  143.6070 O   0  0  0  0  0  0  0  0  0  0  0  0
  191.8080  172.9230  139.0280 C   0  0  0  0  0  0  0  0  0  0  0  0
  192.2430  173.5640  142.4910 C   0  0  2  0  0  3  0  0  0  0  0  0
  194.9820  176.3960  144.7720 C   0  0  0  0  0  0  0  0  0  0  0  0
  192.0220  173.5910  140.1650 C   0  0  0  0  0  0  0  0  0  0  0  0
  191.5010  174.2740  143.6520 C   0  0  2  0  0  3  0  0  0  0  0  0
  190.6490  171.9730  138.9320 C   0  0  0  0  0  2  0  0  0  0  0  0
  195.4770  174.9800  144.8700 C   0  0  0  0  0  2  0  0  0  0  0  0
  193.2040  174.4480  140.3820 C   0  0  2  0  0  3  0  0  0  0  0  0
  193.6520  175.2120  137.4440 C   0  0  0  0  0  1  0  0  0  0  0  0
  190.2270  171.5410  142.7460 C   0  0  0  0  0  2  0  0  0  0  0  0
  190.4300  171.2500  140.2670 C   0  0  0  0  0  2  0  0  0  0  0  0
  194.3750  173.9850  139.5050 C   0  0  0  0  0  2  0  0  0  0  0  0
  193.7320  176.6950  144.0040 C   0  0  1  0  0  3  0  0  0  0  0  0
  192.6180  175.9250  144.6000 C   0  0  1  0  0  3  0  0  0  0  0  0
  190.2680  172.2650  141.4030 C   0  0  2  0  0  3  0  0  0  0  0  0
  193.4240  174.3710  141.9070 C   0  0  2  0  0  3  0  0  0  0  0  0
  192.7110  173.0510  137.9620 O   0  0  0  0  0  0  0  0  0  0  0  0
  190.0010  173.9220  143.7530 C   0  0  1  0  0  3  0  0  0  0  0  0
  195.0010  173.1630  137.2480 C   0  0  0  0  0  1  0  0  0  0  0  0
  192.7570  177.3090  144.8140 O   0  0  0  0  0  0  0  0  0  0  0  0
  195.6250  177.3030  145.2720 O   0  0  0  0  0  0  0  0  0  0  0  0
  194.6460  173.7790  142.2530 O   0  0  0  0  0  0  0  0  0  0  0  0
  189.7080  172.4190  143.8890 C   0  0  0  0  0  2  0  0  0  0  0  0
  189.5660  174.2840  146.1870 C   0  0  0  0  0  3  0  0  0  0  0  0
  189.3300  174.6710  144.8640 C   0  0  0  0  0  0  0  0  0  0  0  0
  188.4640  175.7420  144.5970 C   0  0  0  0  0  3  0  0  0  0  0  0
  186.7580  177.7510  145.3100 Cl  0  0  0  0  0  0  0  0  0  0  0  0
  188.0790  176.0290  146.9690 C   0  0  0  0  0  3  0  0  0  0  0  0
  187.8400  176.4180  145.6480 C   0  0  0  0  0  0  0  0  0  0  0  0
  188.9410  174.9620  147.2390 C   0  0  0  0  0  3  0  0  0  0  0  0
  197.6210  176.0450  142.4930 O   0  0  0  0  0  1  0  0  0  0  0  0
  197.5800  175.0980  143.5170 C   0  0  0  0  0  2  0  0  0  0  0  0
  1  4  1  0  0  0  0
  2 17  1  0  0  0  0
  3 20  1  0  0  0  0
  4 37  1  6  0  0  0
  4 12  1  0  0  0  0
  6  9  2  0  0  0  0
  7  3  1  6  0  0  0
  7 10  1  0  0  0  0
  8 12  1  0  0  0  0
  8 26  2  0  0  0  0
  9 13  1  0  0  0  0
  9  3  1  0  0  0  0
 10  5  1  6  0  0  0
 10 23  1  0  0  0  0
 11  6  1  0  0  0  0
 11 16  1  0  0  0  0
 13 17  1  6  0  0  0
 13 21  1  0  0  0  0
 14  2  1  0  0  0  0
 15 28  1  0  0  0  0
 18 19  1  0  0  0  0
 18  8  1  1  0  0  0
 18 25  1  0  0  0  0
 19  5  1  6  0  0  0
 19 25  1  0  0  0  0
 20 16  1  6  0  0  0
 20 15  1  0  0  0  0
 21 27  1  6  0  0  0
 21  7  1  0  0  0  0
 22  2  1  0  0  0  0
 22  6  1  0  0  0  0
 23 28  1  0  0  0  0
 23 30  1  1  0  0  0
 24  2  1  0  0  0  0
 27  1  1  0  0  0  0
 29 35  1  0  0  0  0
 30 29  2  0  0  0  0
 31 30  1  0  0  0  0
 31 34  2  0  0  0  0
 32 34  1  0  0  0  0
 33 35  2  0  0  0  0
 34 33  1  0  0  0  0
 36 37  1  0  0  0  0
M  END
>  <MODEL>
6

>  <REMARK>
 VINA RESULT:      -7.6      3.212      7.367
  Name = 
  2 active torsions:
  status: ('A' for Active; 'I' for Inactive)
    1  A    between atoms: C_4  and  C_37
    2  A    between atoms: C_23  and  C_30
                            x       y       z     vdW  Elec       q    Type
                         _______ _______ _______ _____ _____    ______ ____

>  <TORSDO>
F 2

$$$$
=
 OpenBabel11112417263D

 37 43  0  0  1  0  0  0  0  0999 V2000
  190.9330  176.7520  145.1410 O   0  0  0  0  0  0  0  0  0  0  0  0
  186.6640  177.7080  147.0260 C   0  0  0  0  0  0  0  0  0  0  0  0
  187.0160  176.8420  142.9050 N   0  0  0  0  0  0  0  0  0  0  0  0
  192.1860  177.1320  144.6370 C   0  0  2  0  0  3  0  0  0  0  0  0
  189.1800  174.3940  142.3380 O   0  0  0  0  0  0  0  0  0  0  0  0
  185.6790  177.6390  144.7370 C   0  0  0  0  0  0  0  0  0  0  0  0
  188.4590  176.7020  142.7390 C   0  0  2  0  0  3  0  0  0  0  0  0
  192.4550  174.7680  143.7480 C   0  0  0  0  0  0  0  0  0  0  0  0
  186.7230  176.9360  144.2850 C   0  0  0  0  0  0  0  0  0  0  0  0
  188.8470  175.6070  141.7120 C   0  0  2  0  0  3  0  0  0  0  0  0
  184.6240  178.1000  143.7730 C   0  0  0  0  0  2  0  0  0  0  0  0
  192.6270  176.2370  143.4730 C   0  0  0  0  0  2  0  0  0  0  0  0
  187.8610  176.5500  145.1420 C   0  0  2  0  0  3  0  0  0  0  0  0
  186.3120  176.4430  147.7890 C   0  0  0  0  0  1  0  0  0  0  0  0
  186.8450  177.7840  140.6310 C   0  0  0  0  0  2  0  0  0  0  0  0
  185.2510  178.4890  142.4280 C   0  0  0  0  0  2  0  0  0  0  0  0
  188.0150  177.5330  146.3100 C   0  0  0  0  0  2  0  0  0  0  0  0
  191.0960  174.1480  143.6550 C   0  0  1  0  0  3  0  0  0  0  0  0
  190.5750  174.3600  142.2860 C   0  0  1  0  0  3  0  0  0  0  0  0
  186.0860  177.3300  141.8760 C   0  0  2  0  0  3  0  0  0  0  0  0
  189.0420  176.4780  144.1530 C   0  0  2  0  0  3  0  0  0  0  0  0
  185.6180  178.0080  146.0880 O   0  0  0  0  0  0  0  0  0  0  0  0
  187.7870  175.3660  140.6160 C   0  0  1  0  0  3  0  0  0  0  0  0
  186.7800  178.8480  148.0150 C   0  0  0  0  0  1  0  0  0  0  0  0
  191.0610  173.1080  142.7060 O   0  0  0  0  0  0  0  0  0  0  0  0
  193.4120  174.0970  144.0960 O   0  0  0  0  0  0  0  0  0  0  0  0
  190.0440  177.4190  144.4280 O   0  0  0  0  0  0  0  0  0  0  0  0
  187.4080  176.6190  139.8110 C   0  0  0  0  0  2  0  0  0  0  0  0
  188.2480  172.9530  140.1530 C   0  0  0  0  0  3  0  0  0  0  0  0
  188.1970  174.2690  139.6810 C   0  0  0  0  0  0  0  0  0  0  0  0
  188.5430  174.5430  138.3490 C   0  0  0  0  0  3  0  0  0  0  0  0
  189.3670  173.8520  135.8390 Cl  0  0  0  0  0  0  0  0  0  0  0  0
  188.9820  172.1920  137.9740 C   0  0  0  0  0  3  0  0  0  0  0  0
  188.9350  173.5050  137.4990 C   0  0  0  0  0  0  0  0  0  0  0  0
  188.6390  171.9150  139.3010 C   0  0  0  0  0  3  0  0  0  0  0  0
  192.7070  176.4190  146.8540 O   0  0  0  0  0  1  0  0  0  0  0  0
  193.2220  177.0970  145.7480 C   0  0  0  0  0  2  0  0  0  0  0  0
  2 14  1  0  0  0  0
  2 24  1  0  0  0  0
  3  9  1  0  0  0  0
  4  1  1  0  0  0  0
  4 37  1  1  0  0  0
  6 22  1  0  0  0  0
  7  3  1  1  0  0  0
  7 21  1  0  0  0  0
  8 26  2  0  0  0  0
  9  6  2  0  0  0  0
  9 13  1  0  0  0  0
 10  5  1  1  0  0  0
 10  7  1  0  0  0  0
 11  6  1  0  0  0  0
 12  8  1  0  0  0  0
 12  4  1  0  0  0  0
 13 17  1  1  0  0  0
 16 11  1  0  0  0  0
 17  2  1  0  0  0  0
 18 25  1  6  0  0  0
 18  8  1  0  0  0  0
 19  5  1  1  0  0  0
 19 25  1  0  0  0  0
 19 18  1  0  0  0  0
 20 15  1  6  0  0  0
 20 16  1  0  0  0  0
 20  3  1  0  0  0  0
 21 27  1  1  0  0  0
 21 13  1  0  0  0  0
 22  2  1  0  0  0  0
 23 30  1  6  0  0  0
 23 10  1  0  0  0  0
 27  1  1  0  0  0  0
 28 23  1  0  0  0  0
 28 15  1  0  0  0  0
 30 29  1  0  0  0  0
 31 30  2  0  0  0  0
 32 34  1  0  0  0  0
 33 35  1  0  0  0  0
 34 33  2  0  0  0  0
 34 31  1  0  0  0  0
 35 29  2  0  0  0  0
 37 36  1  0  0  0  0
M  END
>  <MODEL>
7

>  <REMARK>
 VINA RESULT:      -7.6      2.750      6.199
  Name = 
  2 active torsions:
  status: ('A' for Active; 'I' for Inactive)
    1  A    between atoms: C_4  and  C_37
    2  A    between atoms: C_23  and  C_30
                            x       y       z     vdW  Elec       q    Type
                         _______ _______ _______ _____ _____    ______ ____

>  <TORSDO>
F 2

$$$$
=
 OpenBabel11112417263D

 37 43  0  0  1  0  0  0  0  0999 V2000
  191.3600  171.5390  140.3200 O   0  0  0  0  0  0  0  0  0  0  0  0
  194.0310  169.2550  143.5360 C   0  0  0  0  0  0  0  0  0  0  0  0
  192.7940  173.2330  144.2470 N   0  0  0  0  0  0  0  0  0  0  0  0
  191.1880  172.2490  139.1220 C   0  0  2  0  0  3  0  0  0  0  0  0
  189.6650  173.7440  143.2770 O   0  0  0  0  0  0  0  0  0  0  0  0
  194.1790  171.3650  144.8560 C   0  0  0  0  0  0  0  0  0  0  0  0
  192.0940  173.5660  143.0110 C   0  0  2  0  0  3  0  0  0  0  0  0
  188.8450  172.8400  139.9050 C   0  0  0  0  0  0  0  0  0  0  0  0
  193.0960  171.8520  144.2420 C   0  0  0  0  0  0  0  0  0  0  0  0
  190.8620  174.4790  143.2400 C   0  0  2  0  0  3  0  0  0  0  0  0
  194.9400  172.2350  145.8150 C   0  0  0  0  0  2  0  0  0  0  0  0
  190.1080  173.3300  139.2530 C   0  0  0  0  0  2  0  0  0  0  0  0
  192.3640  171.1070  143.1970 C   0  0  2  0  0  3  0  0  0  0  0  0
  193.0610  168.2900  144.1940 C   0  0  0  0  0  1  0  0  0  0  0  0
  193.5570  175.5700  144.4470 C   0  0  0  0  0  2  0  0  0  0  0  0
  194.9550  173.6910  145.3310 C   0  0  0  0  0  2  0  0  0  0  0  0
  193.2950  170.1120  142.4910 C   0  0  0  0  0  2  0  0  0  0  0  0
  188.7940  172.6700  141.3920 C   0  0  1  0  0  3  0  0  0  0  0  0
  189.0890  173.9740  142.0250 C   0  0  1  0  0  3  0  0  0  0  0  0
  193.5260  174.1870  145.0920 C   0  0  2  0  0  3  0  0  0  0  0  0
  191.7670  172.2240  142.3170 C   0  0  2  0  0  3  0  0  0  0  0  0
  194.6420  170.0790  144.5410 O   0  0  0  0  0  0  0  0  0  0  0  0
  190.9690  175.3840  144.4860 C   0  0  1  0  0  3  0  0  0  0  0  0
  195.1070  168.4530  142.8370 C   0  0  0  0  0  1  0  0  0  0  0  0
  187.7820  173.4580  141.9720 O   0  0  0  0  0  0  0  0  0  0  0  0
  187.8830  172.5340  139.2200 O   0  0  0  0  0  0  0  0  0  0  0  0
  192.2650  172.2120  141.0070 O   0  0  0  0  0  0  0  0  0  0  0  0
  192.2080  176.2940  144.5070 C   0  0  0  0  0  2  0  0  0  0  0  0
  189.3890  177.1610  143.7130 C   0  0  0  0  0  3  0  0  0  0  0  0
  189.7330  176.2090  144.6790 C   0  0  0  0  0  0  0  0  0  0  0  0
  188.9250  176.0490  145.8150 C   0  0  0  0  0  3  0  0  0  0  0  0
  186.7800  176.6380  147.4000 Cl  0  0  0  0  0  0  0  0  0  0  0  0
  187.4440  177.7870  145.0110 C   0  0  0  0  0  3  0  0  0  0  0  0
  187.7840  176.8380  145.9790 C   0  0  0  0  0  0  0  0  0  0  0  0
  188.2460  177.9490  143.8780 C   0  0  0  0  0  3  0  0  0  0  0  0
  191.7950  171.3740  136.9870 O   0  0  0  0  0  1  0  0  0  0  0  0
  190.8370  171.2890  137.9980 C   0  0  0  0  0  2  0  0  0  0  0  0
  1 27  1  0  0  0  0
  2 14  1  0  0  0  0
  2 22  1  0  0  0  0
  3 20  1  0  0  0  0
  4 37  1  6  0  0  0
  4 12  1  0  0  0  0
  4  1  1  0  0  0  0
  6 11  1  0  0  0  0
  7 10  1  0  0  0  0
  7  3  1  1  0  0  0
  9  3  1  0  0  0  0
  9  6  2  0  0  0  0
 10  5  1  1  0  0  0
 10 23  1  0  0  0  0
 12  8  1  0  0  0  0
 13 17  1  6  0  0  0
 13  9  1  0  0  0  0
 15 28  1  0  0  0  0
 16 11  1  0  0  0  0
 17  2  1  0  0  0  0
 18  8  1  6  0  0  0
 18 25  1  0  0  0  0
 18 19  1  0  0  0  0
 19 25  1  1  0  0  0
 19  5  1  0  0  0  0
 20 15  1  6  0  0  0
 20 16  1  0  0  0  0
 21 27  1  6  0  0  0
 21  7  1  0  0  0  0
 21 13  1  0  0  0  0
 22  6  1  0  0  0  0
 23 28  1  0  0  0  0
 23 30  1  6  0  0  0
 24  2  1  0  0  0  0
 26  8  2  0  0  0  0
 29 35  2  0  0  0  0
 29 30  1  0  0  0  0
 30 31  2  0  0  0  0
 31 34  1  0  0  0  0
 33 34  2  0  0  0  0
 34 32  1  0  0  0  0
 35 33  1  0  0  0  0
 36 37  1  0  0  0  0
M  END
>  <MODEL>
8

>  <REMARK>
 VINA RESULT:      -7.4      3.135      6.896
  Name = 
  2 active torsions:
  status: ('A' for Active; 'I' for Inactive)
    1  A    between atoms: C_4  and  C_37
    2  A    between atoms: C_23  and  C_30
                            x       y       z     vdW  Elec       q    Type
                         _______ _______ _______ _____ _____    ______ ____

>  <TORSDO>
F 2

$$$$
=
 OpenBabel11112417263D

 37 43  0  0  1  0  0  0  0  0999 V2000
  187.4930  176.8880  144.9900 O   0  0  0  0  0  0  0  0  0  0  0  0
  191.6890  175.6120  146.8500 C   0  0  0  0  0  0  0  0  0  0  0  0
  190.3450  173.8580  143.2480 N   0  0  0  0  0  0  0  0  0  0  0  0
  186.0920  176.8420  144.9270 C   0  0  2  0  0  3  0  0  0  0  0  0
  188.8860  176.0770  141.2630 O   0  0  0  0  0  0  0  0  0  0  0  0
  191.9010  173.8700  145.0800 C   0  0  0  0  0  0  0  0  0  0  0  0
  189.0200  174.4490  143.0900 C   0  0  2  0  0  3  0  0  0  0  0  0
  186.2330  178.0260  142.6850 C   0  0  0  0  0  0  0  0  0  0  0  0
  191.0090  174.5060  144.3140 C   0  0  0  0  0  0  0  0  0  0  0  0
  188.6580  174.7350  141.6090 C   0  0  2  0  0  3  0  0  0  0  0  0
  192.4370  172.5380  144.6410 C   0  0  0  0  0  2  0  0  0  0  0  0
  185.5840  176.9300  143.4840 C   0  0  0  0  0  2  0  0  0  0  0  0
  190.3440  175.7570  144.7300 C   0  0  2  0  0  3  0  0  0  0  0  0
  192.5960  176.7910  146.5410 C   0  0  0  0  0  1  0  0  0  0  0  0
  189.5400  171.7720  142.2070 C   0  0  0  0  0  2  0  0  0  0  0  0
  191.3450  171.7190  143.9400 C   0  0  0  0  0  2  0  0  0  0  0  0
  190.2880  175.8570  146.2600 C   0  0  0  0  0  2  0  0  0  0  0  0
  187.6150  177.8310  142.1420 C   0  0  1  0  0  3  0  0  0  0  0  0
  187.6090  176.6450  141.2580 C   0  0  1  0  0  3  0  0  0  0  0  0
  190.7390  172.5190  142.7840 C   0  0  2  0  0  3  0  0  0  0  0  0
  188.9860  175.6970  144.0010 C   0  0  2  0  0  3  0  0  0  0  0  0
  192.2680  174.4100  146.3210 O   0  0  0  0  0  0  0  0  0  0  0  0
  189.3530  173.7990  140.5970 C   0  0  1  0  0  3  0  0  0  0  0  0
  191.5680  175.4810  148.3530 C   0  0  0  0  0  1  0  0  0  0  0  0
  187.6450  177.9520  140.7390 O   0  0  0  0  0  0  0  0  0  0  0  0
  185.6570  179.0890  142.5250 O   0  0  0  0  0  0  0  0  0  0  0  0
  187.8970  175.6350  144.8810 O   0  0  0  0  0  0  0  0  0  0  0  0
  189.1010  172.3010  140.8380 C   0  0  0  0  0  2  0  0  0  0  0  0
  189.8710  173.7910  138.1520 C   0  0  0  0  0  3  0  0  0  0  0  0
  188.9990  174.1510  139.1850 C   0  0  0  0  0  0  0  0  0  0  0  0
  187.8160  174.8440  138.8850 C   0  0  0  0  0  3  0  0  0  0  0  0
  186.0380  176.0410  137.1930 Cl  0  0  0  0  0  0  0  0  0  0  0  0
  188.3860  174.8100  136.5330 C   0  0  0  0  0  3  0  0  0  0  0  0
  187.5130  175.1730  137.5610 C   0  0  0  0  0  0  0  0  0  0  0  0
  189.5650  174.1190  136.8270 C   0  0  0  0  0  3  0  0  0  0  0  0
  184.4290  177.4810  146.5140 O   0  0  0  0  0  1  0  0  0  0  0  0
  185.5000  177.9650  145.7620 C   0  0  0  0  0  2  0  0  0  0  0  0
  2 24  1  0  0  0  0
  3  9  1  0  0  0  0
  4  1  1  0  0  0  0
  4 37  1  1  0  0  0
  6 22  1  0  0  0  0
  7  3  1  6  0  0  0
  7 21  1  0  0  0  0
  8 12  1  0  0  0  0
  9 13  1  0  0  0  0
  9  6  2  0  0  0  0
 10  5  1  6  0  0  0
 10  7  1  0  0  0  0
 11  6  1  0  0  0  0
 12  4  1  0  0  0  0
 13 17  1  1  0  0  0
 14  2  1  0  0  0  0
 16 11  1  0  0  0  0
 17  2  1  0  0  0  0
 18 25  1  6  0  0  0
 18  8  1  0  0  0  0
 19 25  1  6  0  0  0
 19  5  1  0  0  0  0
 19 18  1  0  0  0  0
 20 15  1  1  0  0  0
 20  3  1  0  0  0  0
 20 16  1  0  0  0  0
 21 13  1  0  0  0  0
 21 27  1  1  0  0  0
 22  2  1  0  0  0  0
 23 30  1  6  0  0  0
 23 28  1  0  0  0  0
 23 10  1  0  0  0  0
 26  8  2  0  0  0  0
 27  1  1  0  0  0  0
 28 15  1  0  0  0  0
 29 30  1  0  0  0  0
 31 30  2  0  0  0  0
 32 34  1  0  0  0  0
 33 35  1  0  0  0  0
 33 34  2  0  0  0  0
 34 31  1  0  0  0  0
 35 29  2  0  0  0  0
 37 36  1  0  0  0  0
M  END
>  <MODEL>
9

>  <REMARK>
 VINA RESULT:      -7.4      3.027      7.227
  Name = 
  2 active torsions:
  status: ('A' for Active; 'I' for Inactive)
    1  A    between atoms: C_4  and  C_37
    2  A    between atoms: C_23  and  C_30
                            x       y       z     vdW  Elec       q    Type
                         _______ _______ _______ _____ _____    ______ ____

>  <TORSDO>
F 2

$$$$
