=
 OpenBabel11112416313D

 32 37  0  0  1  0  0  0  0  0999 V2000
  191.5250  173.0260  143.5070 C   0  0  0  0  0  2  0  0  0  0  0  0
  187.9950  177.2410  142.0110 C   0  0  1  0  0  3  0  0  0  0  0  0
  188.2080  177.3990  146.9120 C   0  0  0  0  0  2  0  0  0  0  0  0
  186.7960  177.9800  147.0020 C   0  0  0  0  0  2  0  0  0  0  0  0
  185.7810  177.5960  140.8390 C   0  0  0  0  0  0  0  0  0  0  0  0
  184.4310  177.9170  140.9270 C   0  0  0  0  0  0  0  0  0  0  0  0
  189.5740  175.3070  141.9220 C   0  0  1  0  0  3  0  0  0  0  0  0
  190.1510  177.4240  143.0980 C   0  0  0  0  0  2  0  0  0  0  0  0
  182.5490  178.5190  141.8730 C   0  0  0  0  0  0  0  0  0  0  0  0
  191.7690  175.5140  143.1660 C   0  0  0  0  0  2  0  0  0  0  0  0
  188.9090  177.8860  145.6450 C   0  0  0  0  0  2  0  0  0  0  0  0
  188.7370  177.8400  143.1440 N   0  0  2  0  0  0  0  0  0  0  0  0
  188.0900  177.4710  144.4170 C   0  0  2  0  0  3  0  0  0  0  0  0
  185.9020  177.9810  143.2580 C   0  0  0  0  0  0  0  0  0  0  0  0
  182.3720  178.3160  140.5060 C   0  0  0  0  0  3  0  0  0  0  0  0
  189.7100  172.9140  143.3840 S   0  0  0  0  0  0  0  0  0  0  0  0
  190.3010  175.9040  143.1280 C   0  0  2  0  0  3  0  0  0  0  0  0
  183.5320  177.9550  139.9730 O   0  0  0  0  0  0  0  0  0  0  0  0
  189.7070  173.7870  141.7840 C   0  0  0  0  0  2  0  0  0  0  0  0
  191.9660  174.3490  144.1300 C   0  0  2  0  0  3  0  0  0  0  0  0
  185.9850  177.6320  145.7540 C   0  0  0  0  0  2  0  0  0  0  0  0
  186.7160  178.1460  144.5130 C   0  0  1  0  0  3  0  0  0  0  0  0
  184.5720  178.3060  143.2720 N   0  0  0  0  0  0  0  0  0  0  0  0
  188.1100  175.7090  141.9770 C   0  0  0  0  0  2  0  0  0  0  0  0
  186.3510  177.2490  139.6200 O   0  0  0  0  0  1  0  0  0  0  0  0
  181.5130  178.9350  142.8570 C   0  0  0  0  0  1  0  0  0  0  0  0
  186.5410  177.6360  142.0290 C   0  0  0  0  0  0  0  0  0  0  0  0
  183.8690  178.2540  142.1150 C   0  0  0  0  0  0  0  0  0  0  0  0
  193.3710  174.2720  144.4960 N   0  0  0  0  0  2  0  0  0  0  0  0
  193.9180  174.9880  145.6060 C   0  0  0  0  0  0  0  0  0  0  0  0
  193.1920  175.7430  146.3050 O   0  0  0  0  0  0  0  0  0  0  0  0
  195.3590  174.8410  145.9360 C   0  0  0  0  0  1  0  0  0  0  0  0
  1 20  1  0  0  0  0
  2 24  1  1  0  0  0
  2 27  1  0  0  0  0
  2 12  1  0  0  0  0
  3  4  1  0  0  0  0
  5  6  2  0  0  0  0
  5 27  1  0  0  0  0
  6 28  1  0  0  0  0
  7 19  1  1  0  0  0
  7 24  1  0  0  0  0
  7 17  1  0  0  0  0
  9 28  1  0  0  0  0
  9 26  1  0  0  0  0
 10 20  1  0  0  0  0
 11  3  1  0  0  0  0
 12  8  1  1  0  0  0
 12 13  1  0  0  0  0
 13 22  1  0  0  0  0
 13 11  1  1  0  0  0
 14 23  1  0  0  0  0
 14 22  1  0  0  0  0
 15  9  2  0  0  0  0
 16  1  1  0  0  0  0
 17  8  1  6  0  0  0
 17 10  1  0  0  0  0
 18 15  1  0  0  0  0
 18  6  1  0  0  0  0
 19 16  1  0  0  0  0
 20 29  1  6  0  0  0
 21  4  1  0  0  0  0
 22 21  1  1  0  0  0
 25  5  1  0  0  0  0
 27 14  2  0  0  0  0
 28 23  2  0  0  0  0
 29 30  1  0  0  0  0
 30 32  1  0  0  0  0
 30 31  2  0  0  0  0
M  END
>  <MODEL>
1

>  <REMARK>
 VINA RESULT:      -9.0      0.000      0.000
  Name = 
  1 active torsions:
  status: ('A' for Active; 'I' for Inactive)
    1  A    between atoms: C_20  and  N_29
                            x       y       z     vdW  Elec       q    Type
                         _______ _______ _______ _____ _____    ______ ____

>  <TORSDO>
F 1

$$$$
=
 OpenBabel11112416313D

 32 37  0  0  1  0  0  0  0  0999 V2000
  192.8370  171.6550  142.7250 C   0  0  0  0  0  2  0  0  0  0  0  0
  189.6310  176.3590  142.4670 C   0  0  1  0  0  3  0  0  0  0  0  0
  191.5270  176.3240  146.9940 C   0  0  0  0  0  2  0  0  0  0  0  0
  190.3260  177.0870  147.5550 C   0  0  0  0  0  2  0  0  0  0  0  0
  187.2210  177.0500  142.1220 C   0  0  0  0  0  0  0  0  0  0  0  0
  186.0410  177.5480  142.6620 C   0  0  0  0  0  0  0  0  0  0  0  0
  190.7980  174.2320  141.8720 C   0  0  1  0  0  3  0  0  0  0  0  0
  192.0320  176.2110  142.7450 C   0  0  0  0  0  2  0  0  0  0  0  0
  184.7000  178.3680  144.1880 C   0  0  0  0  0  0  0  0  0  0  0  0
  193.2930  174.0970  142.2830 C   0  0  0  0  0  2  0  0  0  0  0  0
  191.8130  176.7530  145.5560 C   0  0  0  0  0  2  0  0  0  0  0  0
  190.7910  176.8130  143.2680 N   0  0  2  0  0  0  0  0  0  0  0  0
  190.5740  176.4930  144.6910 C   0  0  2  0  0  3  0  0  0  0  0  0
  188.2150  177.3340  144.3460 C   0  0  0  0  0  0  0  0  0  0  0  0
  184.0390  178.2370  142.9680 C   0  0  0  0  0  3  0  0  0  0  0  0
  191.0930  171.7950  143.2360 S   0  0  0  0  0  0  0  0  0  0  0  0
  191.9700  174.6840  142.7450 C   0  0  2  0  0  3  0  0  0  0  0  0
  184.8840  177.7390  142.0750 O   0  0  0  0  0  0  0  0  0  0  0  0
  190.6640  172.7140  141.7200 C   0  0  0  0  0  2  0  0  0  0  0  0
  193.6440  172.8850  143.1390 C   0  0  2  0  0  3  0  0  0  0  0  0
  189.0980  176.8940  146.6660 C   0  0  0  0  0  2  0  0  0  0  0  0
  189.4230  177.3450  145.2430 C   0  0  1  0  0  3  0  0  0  0  0  0
  187.0290  177.8360  144.8100 N   0  0  0  0  0  0  0  0  0  0  0  0
  189.5130  174.8270  142.4200 C   0  0  0  0  0  2  0  0  0  0  0  0
  187.2860  176.6690  140.7870 O   0  0  0  0  0  1  0  0  0  0  0  0
  184.1320  178.8880  145.4610 C   0  0  0  0  0  1  0  0  0  0  0  0
  188.3410  176.9470  142.9780 C   0  0  0  0  0  0  0  0  0  0  0  0
  185.9720  177.9190  143.9660 C   0  0  0  0  0  0  0  0  0  0  0  0
  195.0640  172.6050  143.0020 N   0  0  0  0  0  2  0  0  0  0  0  0
  196.0370  173.0880  143.9310 C   0  0  0  0  0  0  0  0  0  0  0  0
  195.6930  173.8050  144.9080 O   0  0  0  0  0  0  0  0  0  0  0  0
  197.4690  172.7410  143.7400 C   0  0  0  0  0  1  0  0  0  0  0  0
  1 20  1  0  0  0  0
  1 16  1  0  0  0  0
  2 24  1  1  0  0  0
  2 27  1  0  0  0  0
  2 12  1  0  0  0  0
  3  4  1  0  0  0  0
  5  6  2  0  0  0  0
  5 27  1  0  0  0  0
  6 28  1  0  0  0  0
  7 19  1  1  0  0  0
  7 24  1  0  0  0  0
  7 17  1  0  0  0  0
  9 26  1  0  0  0  0
 10 20  1  0  0  0  0
 11  3  1  0  0  0  0
 12  8  1  6  0  0  0
 12 13  1  0  0  0  0
 13 22  1  0  0  0  0
 13 11  1  1  0  0  0
 14 23  1  0  0  0  0
 14 22  1  0  0  0  0
 15  9  2  0  0  0  0
 17 10  1  6  0  0  0
 17  8  1  0  0  0  0
 18  6  1  0  0  0  0
 18 15  1  0  0  0  0
 19 16  1  0  0  0  0
 20 29  1  6  0  0  0
 21  4  1  0  0  0  0
 22 21  1  1  0  0  0
 25  5  1  0  0  0  0
 27 14  2  0  0  0  0
 28  9  1  0  0  0  0
 28 23  2  0  0  0  0
 29 30  1  0  0  0  0
 30 31  2  0  0  0  0
 32 30  1  0  0  0  0
M  END
>  <MODEL>
2

>  <REMARK>
 VINA RESULT:      -8.5      1.955      2.684
  Name = 
  1 active torsions:
  status: ('A' for Active; 'I' for Inactive)
    1  A    between atoms: C_20  and  N_29
                            x       y       z     vdW  Elec       q    Type
                         _______ _______ _______ _____ _____    ______ ____

>  <TORSDO>
F 1

$$$$
=
 OpenBabel11112416313D

 32 37  0  0  1  0  0  0  0  0999 V2000
  186.7550  177.4920  146.3320 C   0  0  0  0  0  2  0  0  0  0  0  0
  191.9450  176.0630  144.4630 C   0  0  1  0  0  3  0  0  0  0  0  0
  188.9410  172.5780  142.7540 C   0  0  0  0  0  2  0  0  0  0  0  0
  190.0640  171.5390  142.7620 C   0  0  0  0  0  2  0  0  0  0  0  0
  194.2240  175.4260  145.3580 C   0  0  0  0  0  0  0  0  0  0  0  0
  195.1820  174.4420  145.5690 C   0  0  0  0  0  0  0  0  0  0  0  0
  190.0550  177.2640  145.5720 C   0  0  1  0  0  3  0  0  0  0  0  0
  190.0150  176.7020  143.1460 C   0  0  0  0  0  2  0  0  0  0  0  0
  196.0990  172.4530  145.4780 C   0  0  0  0  0  0  0  0  0  0  0  0
  188.0190  177.8120  144.1720 C   0  0  0  0  0  2  0  0  0  0  0  0
  189.4960  173.9670  142.4450 C   0  0  0  0  0  2  0  0  0  0  0  0
  191.0860  175.7010  143.3120 N   0  0  2  0  0  0  0  0  0  0  0  0
  190.5500  174.3390  143.4940 C   0  0  2  0  0  3  0  0  0  0  0  0
  192.8800  173.7050  144.2410 C   0  0  0  0  0  0  0  0  0  0  0  0
  196.9340  173.3530  146.1380 C   0  0  0  0  0  3  0  0  0  0  0  0
  187.9230  176.3660  147.1620 S   0  0  0  0  0  0  0  0  0  0  0  0
  189.1620  176.8390  144.4060 C   0  0  2  0  0  3  0  0  0  0  0  0
  196.3440  174.5410  146.1710 O   0  0  0  0  0  0  0  0  0  0  0  0
  189.3130  177.5130  146.8880 C   0  0  0  0  0  2  0  0  0  0  0  0
  186.7470  177.2770  144.8190 C   0  0  2  0  0  3  0  0  0  0  0  0
  191.1580  171.9300  143.7550 C   0  0  0  0  0  2  0  0  0  0  0  0
  191.6920  173.3180  143.4040 C   0  0  1  0  0  3  0  0  0  0  0  0
  193.8730  172.7880  144.4630 N   0  0  0  0  0  0  0  0  0  0  0  0
  191.1450  176.2240  145.7650 C   0  0  0  0  0  2  0  0  0  0  0  0
  194.4260  176.7240  145.8130 O   0  0  0  0  0  1  0  0  0  0  0  0
  196.3660  171.0140  145.2130 C   0  0  0  0  0  1  0  0  0  0  0  0
  193.0470  175.0560  144.6700 C   0  0  0  0  0  0  0  0  0  0  0  0
  194.9890  173.1730  145.1290 C   0  0  0  0  0  0  0  0  0  0  0  0
  185.5990  177.9540  144.2360 N   0  0  0  0  0  2  0  0  0  0  0  0
  185.1100  177.6540  142.9270 C   0  0  0  0  0  0  0  0  0  0  0  0
  185.6830  176.7910  142.2100 O   0  0  0  0  0  0  0  0  0  0  0  0
  183.9170  178.3700  142.4070 C   0  0  0  0  0  1  0  0  0  0  0  0
  1 16  1  0  0  0  0
  2 27  1  0  0  0  0
  2 24  1  1  0  0  0
  3  4  1  0  0  0  0
  4 21  1  0  0  0  0
  5  6  1  0  0  0  0
  5 25  1  0  0  0  0
  6 18  1  0  0  0  0
  7 24  1  1  0  0  0
  7 19  1  0  0  0  0
  9 15  2  0  0  0  0
 10 17  1  0  0  0  0
 10 20  1  0  0  0  0
 11  3  1  0  0  0  0
 12  8  1  1  0  0  0
 12 13  1  0  0  0  0
 12  2  1  0  0  0  0
 13 11  1  6  0  0  0
 14 23  2  0  0  0  0
 14 27  1  0  0  0  0
 15 18  1  0  0  0  0
 17  8  1  6  0  0  0
 17  7  1  0  0  0  0
 19 16  1  0  0  0  0
 20 29  1  6  0  0  0
 20  1  1  0  0  0  0
 22 13  1  0  0  0  0
 22 21  1  1  0  0  0
 22 14  1  0  0  0  0
 23 28  1  0  0  0  0
 26  9  1  0  0  0  0
 27  5  2  0  0  0  0
 28  9  1  0  0  0  0
 28  6  2  0  0  0  0
 30 29  1  0  0  0  0
 31 30  2  0  0  0  0
 32 30  1  0  0  0  0
M  END
>  <MODEL>
3

>  <REMARK>
 VINA RESULT:      -8.4      1.996      9.140
  Name = 
  1 active torsions:
  status: ('A' for Active; 'I' for Inactive)
    1  A    between atoms: C_20  and  N_29
                            x       y       z     vdW  Elec       q    Type
                         _______ _______ _______ _____ _____    ______ ____

>  <TORSDO>
F 1

$$$$
=
 OpenBabel11112416313D

 32 37  0  0  1  0  0  0  0  0999 V2000
  195.1280  175.4410  145.0470 C   0  0  0  0  0  2  0  0  0  0  0  0
  189.4440  175.5460  145.4290 C   0  0  1  0  0  3  0  0  0  0  0  0
  190.4190  173.3820  141.1330 C   0  0  0  0  0  2  0  0  0  0  0  0
  189.1040  173.8790  140.5300 C   0  0  0  0  0  2  0  0  0  0  0  0
  187.5390  177.2030  145.5950 C   0  0  0  0  0  0  0  0  0  0  0  0
  186.4570  177.8300  144.9890 C   0  0  0  0  0  0  0  0  0  0  0  0
  191.8740  175.8280  145.9330 C   0  0  1  0  0  3  0  0  0  0  0  0
  190.8940  173.6070  145.3810 C   0  0  0  0  0  2  0  0  0  0  0  0
  184.9930  178.2800  143.4220 C   0  0  0  0  0  0  0  0  0  0  0  0
  193.3620  173.7870  145.7630 C   0  0  0  0  0  2  0  0  0  0  0  0
  190.2550  173.1070  142.6270 C   0  0  0  0  0  2  0  0  0  0  0  0
  189.6910  174.2300  144.7960 N   0  0  2  0  0  0  0  0  0  0  0  0
  189.8030  174.3900  143.3340 C   0  0  2  0  0  3  0  0  0  0  0  0
  187.8020  175.9240  143.5200 C   0  0  0  0  0  0  0  0  0  0  0  0
  184.7640  179.0630  144.5520 C   0  0  0  0  0  3  0  0  0  0  0  0
  194.0310  176.7340  144.3800 S   0  0  0  0  0  0  0  0  0  0  0  0
  192.1280  174.4940  145.2290 C   0  0  2  0  0  3  0  0  0  0  0  0
  185.6690  178.7600  145.4740 O   0  0  0  0  0  0  0  0  0  0  0  0
  193.0650  176.7910  145.9250 C   0  0  0  0  0  2  0  0  0  0  0  0
  194.5440  174.0440  144.8350 C   0  0  2  0  0  3  0  0  0  0  0  0
  188.6030  175.1200  141.2680 C   0  0  0  0  0  2  0  0  0  0  0  0
  188.4430  174.7980  142.7540 C   0  0  1  0  0  3  0  0  0  0  0  0
  186.7140  176.5640  142.9890 N   0  0  0  0  0  0  0  0  0  0  0  0
  190.6530  176.4880  145.3180 C   0  0  0  0  0  2  0  0  0  0  0  0
  187.9230  177.5400  146.8880 O   0  0  0  0  0  1  0  0  0  0  0  0
  184.2150  178.2910  142.1540 C   0  0  0  0  0  1  0  0  0  0  0  0
  188.2260  176.2190  144.8500 C   0  0  0  0  0  0  0  0  0  0  0  0
  186.0790  177.5060  143.7270 C   0  0  0  0  0  0  0  0  0  0  0  0
  195.5690  173.0440  145.0870 N   0  0  0  0  0  2  0  0  0  0  0  0
  196.4470  172.5670  144.0650 C   0  0  0  0  0  0  0  0  0  0  0  0
  196.3450  172.9880  142.8820 O   0  0  0  0  0  0  0  0  0  0  0  0
  197.4870  171.5610  144.4010 C   0  0  0  0  0  1  0  0  0  0  0  0
  2 24  1  6  0  0  0
  3 11  1  0  0  0  0
  4  3  1  0  0  0  0
  4 21  1  0  0  0  0
  5 25  1  0  0  0  0
  6 18  1  0  0  0  0
  6  5  1  0  0  0  0
  7 24  1  6  0  0  0
  9 28  1  0  0  0  0
  9 15  2  0  0  0  0
 12  8  1  1  0  0  0
 12  2  1  0  0  0  0
 13 11  1  6  0  0  0
 13 12  1  0  0  0  0
 14 27  1  0  0  0  0
 15 18  1  0  0  0  0
 16  1  1  0  0  0  0
 16 19  1  0  0  0  0
 17  8  1  1  0  0  0
 17 10  1  0  0  0  0
 17  7  1  0  0  0  0
 19  7  1  0  0  0  0
 20  1  1  0  0  0  0
 20 29  1  1  0  0  0
 20 10  1  0  0  0  0
 22 21  1  6  0  0  0
 22 13  1  0  0  0  0
 22 14  1  0  0  0  0
 23 14  2  0  0  0  0
 23 28  1  0  0  0  0
 26  9  1  0  0  0  0
 27  2  1  0  0  0  0
 27  5  2  0  0  0  0
 28  6  2  0  0  0  0
 30 32  1  0  0  0  0
 30 29  1  0  0  0  0
 31 30  2  0  0  0  0
M  END
>  <MODEL>
4

>  <REMARK>
 VINA RESULT:      -8.1      2.710      4.721
  Name = 
  1 active torsions:
  status: ('A' for Active; 'I' for Inactive)
    1  A    between atoms: C_20  and  N_29
                            x       y       z     vdW  Elec       q    Type
                         _______ _______ _______ _____ _____    ______ ____

>  <TORSDO>
F 1

$$$$
=
 OpenBabel11112416313D

 32 37  0  0  1  0  0  0  0  0999 V2000
  193.1740  172.0260  141.6900 C   0  0  0  0  0  2  0  0  0  0  0  0
  190.3890  176.8590  142.8580 C   0  0  1  0  0  3  0  0  0  0  0  0
  192.0980  175.2660  147.1740 C   0  0  0  0  0  2  0  0  0  0  0  0
  190.9450  175.9280  147.9300 C   0  0  0  0  0  2  0  0  0  0  0  0
  188.0620  177.8420  142.7160 C   0  0  0  0  0  0  0  0  0  0  0  0
  186.9080  178.2580  143.3710 C   0  0  0  0  0  0  0  0  0  0  0  0
  191.3950  174.9170  141.6500 C   0  0  1  0  0  3  0  0  0  0  0  0
  192.7560  176.4110  143.1030 C   0  0  0  0  0  2  0  0  0  0  0  0
  185.5820  178.6920  145.0600 C   0  0  0  0  0  0  0  0  0  0  0  0
  193.8510  174.4330  142.0270 C   0  0  0  0  0  2  0  0  0  0  0  0
  192.4750  176.0860  145.9420 C   0  0  0  0  0  2  0  0  0  0  0  0
  191.5510  176.9370  143.7730 N   0  0  2  0  0  0  0  0  0  0  0  0
  191.2530  176.2190  145.0260 C   0  0  2  0  0  3  0  0  0  0  0  0
  188.9890  177.3390  144.9300 C   0  0  0  0  0  0  0  0  0  0  0  0
  184.9610  179.0030  143.8520 C   0  0  0  0  0  3  0  0  0  0  0  0
  191.4290  172.1640  142.1990 S   0  0  0  0  0  0  0  0  0  0  0  0
  192.5650  174.9710  142.6320 C   0  0  2  0  0  3  0  0  0  0  0  0
  185.7950  178.7260  142.8580 O   0  0  0  0  0  0  0  0  0  0  0  0
  191.1390  173.5380  141.0360 C   0  0  0  0  0  2  0  0  0  0  0  0
  194.0650  172.9910  142.4710 C   0  0  2  0  0  3  0  0  0  0  0  0
  189.7400  176.1310  147.0120 C   0  0  0  0  0  2  0  0  0  0  0  0
  190.1580  176.9630  145.8000 C   0  0  1  0  0  3  0  0  0  0  0  0
  187.8320  177.7830  145.5140 N   0  0  0  0  0  0  0  0  0  0  0  0
  190.1440  175.4320  142.3400 C   0  0  0  0  0  2  0  0  0  0  0  0
  188.1460  177.8830  141.3290 O   0  0  0  0  0  1  0  0  0  0  0  0
  185.0110  178.8480  146.4250 C   0  0  0  0  0  1  0  0  0  0  0  0
  189.1340  177.3790  143.5110 C   0  0  0  0  0  0  0  0  0  0  0  0
  186.8200  178.2170  144.7240 C   0  0  0  0  0  0  0  0  0  0  0  0
  195.4610  172.6360  142.2700 N   0  0  0  0  0  2  0  0  0  0  0  0
  196.0860  172.6680  140.9850 C   0  0  0  0  0  0  0  0  0  0  0  0
  195.4290  172.9890  139.9590 O   0  0  0  0  0  0  0  0  0  0  0  0
  197.5230  172.3160  140.8590 C   0  0  0  0  0  1  0  0  0  0  0  0
  1 16  1  0  0  0  0
  1 20  1  0  0  0  0
  2 24  1  1  0  0  0
  2 27  1  0  0  0  0
  2 12  1  0  0  0  0
  3  4  1  0  0  0  0
  5  6  2  0  0  0  0
  5 27  1  0  0  0  0
  6 28  1  0  0  0  0
  7 19  1  1  0  0  0
  7 24  1  0  0  0  0
  7 17  1  0  0  0  0
  9 26  1  0  0  0  0
 10 20  1  0  0  0  0
 11  3  1  0  0  0  0
 12  8  1  6  0  0  0
 12 13  1  0  0  0  0
 13 22  1  0  0  0  0
 13 11  1  1  0  0  0
 14 23  1  0  0  0  0
 14 22  1  0  0  0  0
 15  9  2  0  0  0  0
 17 10  1  6  0  0  0
 17  8  1  0  0  0  0
 18  6  1  0  0  0  0
 18 15  1  0  0  0  0
 19 16  1  0  0  0  0
 20 29  1  6  0  0  0
 21  4  1  0  0  0  0
 22 21  1  1  0  0  0
 25  5  1  0  0  0  0
 27 14  2  0  0  0  0
 28  9  1  0  0  0  0
 28 23  2  0  0  0  0
 30 29  1  0  0  0  0
 31 30  2  0  0  0  0
 32 30  1  0  0  0  0
M  END
>  <MODEL>
5

>  <REMARK>
 VINA RESULT:      -7.7      2.746      3.798
  Name = 
  1 active torsions:
  status: ('A' for Active; 'I' for Inactive)
    1  A    between atoms: C_20  and  N_29
                            x       y       z     vdW  Elec       q    Type
                         _______ _______ _______ _____ _____    ______ ____

>  <TORSDO>
F 1

$$$$
=
 OpenBabel11112416313D

 32 37  0  0  1  0  0  0  0  0999 V2000
  188.0870  176.4900  146.9980 C   0  0  0  0  0  2  0  0  0  0  0  0
  193.1300  175.2500  144.6530 C   0  0  1  0  0  3  0  0  0  0  0  0
  189.7810  173.2960  141.6440 C   0  0  0  0  0  2  0  0  0  0  0  0
  190.7510  172.2010  141.1980 C   0  0  0  0  0  2  0  0  0  0  0  0
  195.2500  173.9690  145.1700 C   0  0  0  0  0  0  0  0  0  0  0  0
  196.0540  172.8600  144.9320 C   0  0  0  0  0  0  0  0  0  0  0  0
  191.3630  176.1280  146.1850 C   0  0  1  0  0  3  0  0  0  0  0  0
  191.3800  176.6600  143.7530 C   0  0  0  0  0  2  0  0  0  0  0  0
  196.6960  170.9880  143.9920 C   0  0  0  0  0  0  0  0  0  0  0  0
  189.4990  177.5080  145.1710 C   0  0  0  0  0  2  0  0  0  0  0  0
  190.5340  174.5880  141.9540 C   0  0  0  0  0  2  0  0  0  0  0  0
  192.2950  175.5390  143.4650 N   0  0  2  0  0  0  0  0  0  0  0  0
  191.5700  174.3220  143.0530 C   0  0  2  0  0  3  0  0  0  0  0  0
  193.7490  173.1000  143.4370 C   0  0  0  0  0  0  0  0  0  0  0  0
  197.6090  171.3910  144.9660 C   0  0  0  0  0  3  0  0  0  0  0  0
  189.0450  174.9610  147.2570 S   0  0  0  0  0  0  0  0  0  0  0  0
  190.4850  176.3730  144.9570 C   0  0  2  0  0  3  0  0  0  0  0  0
  197.1830  172.5240  145.5090 O   0  0  0  0  0  0  0  0  0  0  0  0
  190.5900  175.9010  147.4870 C   0  0  0  0  0  2  0  0  0  0  0  0
  188.1320  176.9400  145.5380 C   0  0  2  0  0  3  0  0  0  0  0  0
  191.8310  171.9700  142.2530 C   0  0  0  0  0  2  0  0  0  0  0  0
  192.5660  173.2820  142.5250 C   0  0  1  0  0  3  0  0  0  0  0  0
  194.5950  172.0420  143.2370 N   0  0  0  0  0  0  0  0  0  0  0  0
  192.2890  174.9570  145.9060 C   0  0  0  0  0  2  0  0  0  0  0  0
  195.6010  174.9070  146.1350 O   0  0  0  0  0  1  0  0  0  0  0  0
  196.7810  169.7750  143.1350 C   0  0  0  0  0  1  0  0  0  0  0  0
  194.0730  174.1020  144.4000 C   0  0  0  0  0  0  0  0  0  0  0  0
  195.7150  171.9400  143.9940 C   0  0  0  0  0  0  0  0  0  0  0  0
  187.1200  177.9600  145.3110 N   0  0  0  0  0  2  0  0  0  0  0  0
  186.6150  178.2670  144.0100 C   0  0  0  0  0  0  0  0  0  0  0  0
  187.0550  177.6690  142.9920 O   0  0  0  0  0  0  0  0  0  0  0  0
  185.5640  179.3050  143.8570 C   0  0  0  0  0  1  0  0  0  0  0  0
  1 16  1  0  0  0  0
  2 24  1  1  0  0  0
  3 11  1  0  0  0  0
  4  3  1  0  0  0  0
  4 21  1  0  0  0  0
  5 25  1  0  0  0  0
  6  5  1  0  0  0  0
  6 18  1  0  0  0  0
  7 24  1  6  0  0  0
  7 19  1  0  0  0  0
  9 28  1  0  0  0  0
  9 15  2  0  0  0  0
 10 20  1  0  0  0  0
 12  8  1  1  0  0  0
 12  2  1  0  0  0  0
 13 11  1  6  0  0  0
 13 12  1  0  0  0  0
 14 27  1  0  0  0  0
 15 18  1  0  0  0  0
 16 19  1  0  0  0  0
 17  8  1  6  0  0  0
 17 10  1  0  0  0  0
 17  7  1  0  0  0  0
 20 29  1  1  0  0  0
 20  1  1  0  0  0  0
 22 21  1  1  0  0  0
 22 13  1  0  0  0  0
 22 14  1  0  0  0  0
 23 14  2  0  0  0  0
 23 28  1  0  0  0  0
 26  9  1  0  0  0  0
 27  2  1  0  0  0  0
 27  5  2  0  0  0  0
 28  6  2  0  0  0  0
 30 29  1  0  0  0  0
 31 30  2  0  0  0  0
 32 30  1  0  0  0  0
M  END
>  <MODEL>
6

>  <REMARK>
 VINA RESULT:      -7.6      2.667      9.521
  Name = 
  1 active torsions:
  status: ('A' for Active; 'I' for Inactive)
    1  A    between atoms: C_20  and  N_29
                            x       y       z     vdW  Elec       q    Type
                         _______ _______ _______ _____ _____    ______ ____

>  <TORSDO>
F 1

$$$$
=
 OpenBabel11112416313D

 32 37  0  0  1  0  0  0  0  0999 V2000
  187.8020  176.3910  147.2630 C   0  0  0  0  0  2  0  0  0  0  0  0
  192.3020  176.3910  143.7670 C   0  0  1  0  0  3  0  0  0  0  0  0
  188.8090  173.8910  141.3920 C   0  0  0  0  0  2  0  0  0  0  0  0
  189.8490  173.0550  140.6440 C   0  0  0  0  0  2  0  0  0  0  0  0
  194.6980  175.5820  143.6860 C   0  0  0  0  0  0  0  0  0  0  0  0
  195.6310  174.6870  143.1750 C   0  0  0  0  0  0  0  0  0  0  0  0
  190.8010  176.7910  145.7240 C   0  0  1  0  0  3  0  0  0  0  0  0
  190.1410  177.4240  143.4080 C   0  0  0  0  0  2  0  0  0  0  0  0
  196.4020  173.0450  141.9460 C   0  0  0  0  0  0  0  0  0  0  0  0
  188.5120  177.7750  145.2760 C   0  0  0  0  0  2  0  0  0  0  0  0
  189.3370  175.3010  141.6500 C   0  0  0  0  0  2  0  0  0  0  0  0
  191.1710  176.5440  142.8230 N   0  0  2  0  0  0  0  0  0  0  0  0
  190.6320  175.2180  142.4660 C   0  0  2  0  0  3  0  0  0  0  0  0
  193.0420  174.4850  142.2480 C   0  0  0  0  0  0  0  0  0  0  0  0
  197.4150  173.5930  142.7300 C   0  0  0  0  0  3  0  0  0  0  0  0
  189.0830  175.0990  147.1620 S   0  0  0  0  0  0  0  0  0  0  0  0
  189.6300  176.8930  144.7460 C   0  0  2  0  0  3  0  0  0  0  0  0
  196.9080  174.5810  143.4570 O   0  0  0  0  0  0  0  0  0  0  0  0
  190.4160  176.3420  147.1360 C   0  0  0  0  0  2  0  0  0  0  0  0
  187.4130  176.9060  145.8780 C   0  0  2  0  0  3  0  0  0  0  0  0
  191.1700  173.0180  141.4110 C   0  0  0  0  0  2  0  0  0  0  0  0
  191.6670  174.4460  141.6380 C   0  0  1  0  0  3  0  0  0  0  0  0
  194.0140  173.6480  141.7700 N   0  0  0  0  0  0  0  0  0  0  0  0
  191.8540  175.8650  145.1400 C   0  0  0  0  0  2  0  0  0  0  0  0
  195.0670  176.5290  144.6340 O   0  0  0  0  0  1  0  0  0  0  0  0
  196.5270  171.9200  140.9800 C   0  0  0  0  0  1  0  0  0  0  0  0
  193.3720  175.4890  143.2080 C   0  0  0  0  0  0  0  0  0  0  0  0
  195.2760  173.7590  142.2510 C   0  0  0  0  0  0  0  0  0  0  0  0
  186.1910  177.6890  145.9740 N   0  0  0  0  0  2  0  0  0  0  0  0
  185.3050  177.8730  144.8670 C   0  0  0  0  0  0  0  0  0  0  0  0
  185.5690  177.3710  143.7420 O   0  0  0  0  0  0  0  0  0  0  0  0
  184.0620  178.6660  145.0470 C   0  0  0  0  0  1  0  0  0  0  0  0
  2 24  1  1  0  0  0
  3 11  1  0  0  0  0
  4  3  1  0  0  0  0
  4 21  1  0  0  0  0
  5 25  1  0  0  0  0
  6 18  1  0  0  0  0
  6  5  2  0  0  0  0
  7 24  1  6  0  0  0
  7 19  1  0  0  0  0
  9 28  1  0  0  0  0
  9 15  2  0  0  0  0
 10 20  1  0  0  0  0
 12  8  1  1  0  0  0
 12  2  1  0  0  0  0
 13 11  1  6  0  0  0
 13 12  1  0  0  0  0
 14 27  2  0  0  0  0
 15 18  1  0  0  0  0
 16  1  1  0  0  0  0
 17  8  1  6  0  0  0
 17 10  1  0  0  0  0
 17  7  1  0  0  0  0
 19 16  1  0  0  0  0
 20 29  1  1  0  0  0
 20  1  1  0  0  0  0
 22 21  1  1  0  0  0
 22 14  1  0  0  0  0
 22 13  1  0  0  0  0
 23 14  1  0  0  0  0
 23 28  2  0  0  0  0
 26  9  1  0  0  0  0
 27  5  1  0  0  0  0
 27  2  1  0  0  0  0
 28  6  1  0  0  0  0
 30 32  1  0  0  0  0
 30 29  1  0  0  0  0
 31 30  2  0  0  0  0
M  END
>  <MODEL>
7

>  <REMARK>
 VINA RESULT:      -7.5      2.704      8.873
  Name = 
  1 active torsions:
  status: ('A' for Active; 'I' for Inactive)
    1  A    between atoms: C_20  and  N_29
                            x       y       z     vdW  Elec       q    Type
                         _______ _______ _______ _____ _____    ______ ____

>  <TORSDO>
F 1

$$$$
=
 OpenBabel11112416313D

 32 37  0  0  1  0  0  0  0  0999 V2000
  195.2310  174.9200  143.2930 C   0  0  0  0  0  2  0  0  0  0  0  0
  189.8450  175.2440  145.1260 C   0  0  1  0  0  3  0  0  0  0  0  0
  189.5420  173.7930  140.4470 C   0  0  0  0  0  2  0  0  0  0  0  0
  188.1700  174.4500  140.2820 C   0  0  0  0  0  2  0  0  0  0  0  0
  188.1980  176.9430  146.0220 C   0  0  0  0  0  0  0  0  0  0  0  0
  187.0620  177.7170  145.8150 C   0  0  0  0  0  0  0  0  0  0  0  0
  192.3410  175.3150  145.0290 C   0  0  1  0  0  3  0  0  0  0  0  0
  191.0570  173.2710  144.4160 C   0  0  0  0  0  2  0  0  0  0  0  0
  185.3080  178.4990  144.7600 C   0  0  0  0  0  0  0  0  0  0  0  0
  193.5500  173.2600  144.1780 C   0  0  0  0  0  2  0  0  0  0  0  0
  189.7230  173.2780  141.8740 C   0  0  0  0  0  2  0  0  0  0  0  0
  189.8100  174.0440  144.2590 N   0  0  2  0  0  0  0  0  0  0  0  0
  189.5760  174.4430  142.8590 C   0  0  2  0  0  3  0  0  0  0  0  0
  187.8290  176.0220  143.7790 C   0  0  0  0  0  0  0  0  0  0  0  0
  185.4340  179.0900  146.0150 C   0  0  0  0  0  3  0  0  0  0  0  0
  194.1270  176.3610  143.1320 S   0  0  0  0  0  0  0  0  0  0  0  0
  192.2930  174.1090  144.0900 C   0  0  2  0  0  3  0  0  0  0  0  0
  186.5050  178.5900  146.6190 O   0  0  0  0  0  0  0  0  0  0  0  0
  193.5760  176.2050  144.8630 C   0  0  0  0  0  2  0  0  0  0  0  0
  194.4880  173.6110  143.0290 C   0  0  2  0  0  3  0  0  0  0  0  0
  187.9800  175.5720  141.3030 C   0  0  0  0  0  2  0  0  0  0  0  0
  188.1580  175.0120  142.7140 C   0  0  1  0  0  3  0  0  0  0  0  0
  186.7080  176.7970  143.6470 N   0  0  0  0  0  0  0  0  0  0  0  0
  191.0720  176.1300  144.8540 C   0  0  0  0  0  2  0  0  0  0  0  0
  188.9150  177.0370  147.2090 O   0  0  0  0  0  1  0  0  0  0  0  0
  184.2480  178.7630  143.7490 C   0  0  0  0  0  1  0  0  0  0  0  0
  188.5900  176.0660  144.9860 C   0  0  0  0  0  0  0  0  0  0  0  0
  186.3600  177.6310  144.6570 C   0  0  0  0  0  0  0  0  0  0  0  0
  195.4480  172.5320  142.8560 N   0  0  0  0  0  2  0  0  0  0  0  0
  195.5480  171.7770  141.6470 C   0  0  0  0  0  0  0  0  0  0  0  0
  194.7770  172.0100  140.6780 O   0  0  0  0  0  0  0  0  0  0  0  0
  196.5700  170.7050  141.5340 C   0  0  0  0  0  1  0  0  0  0  0  0
  2 24  1  6  0  0  0
  3 11  1  0  0  0  0
  4  3  1  0  0  0  0
  4 21  1  0  0  0  0
  5 25  1  0  0  0  0
  6  5  1  0  0  0  0
  6 18  1  0  0  0  0
  7 24  1  6  0  0  0
  9 15  2  0  0  0  0
 12  8  1  6  0  0  0
 12  2  1  0  0  0  0
 13 11  1  6  0  0  0
 13 12  1  0  0  0  0
 14 27  1  0  0  0  0
 15 18  1  0  0  0  0
 16  1  1  0  0  0  0
 16 19  1  0  0  0  0
 17 10  1  1  0  0  0
 17  8  1  0  0  0  0
 17  7  1  0  0  0  0
 19  7  1  0  0  0  0
 20 29  1  1  0  0  0
 20  1  1  0  0  0  0
 20 10  1  0  0  0  0
 22 21  1  6  0  0  0
 22 13  1  0  0  0  0
 22 14  1  0  0  0  0
 23 14  2  0  0  0  0
 23 28  1  0  0  0  0
 26  9  1  0  0  0  0
 27  2  1  0  0  0  0
 27  5  2  0  0  0  0
 28  9  1  0  0  0  0
 28  6  2  0  0  0  0
 30 29  1  0  0  0  0
 31 30  2  0  0  0  0
 32 30  1  0  0  0  0
M  END
>  <MODEL>
8

>  <REMARK>
 VINA RESULT:      -7.4      3.025      5.050
  Name = 
  1 active torsions:
  status: ('A' for Active; 'I' for Inactive)
    1  A    between atoms: C_20  and  N_29
                            x       y       z     vdW  Elec       q    Type
                         _______ _______ _______ _____ _____    ______ ____

>  <TORSDO>
F 1

$$$$
=
 OpenBabel11112416313D

 32 37  0  0  1  0  0  0  0  0999 V2000
  187.3950  177.9370  143.2660 C   0  0  0  0  0  2  0  0  0  0  0  0
  191.2200  173.7140  143.2090 C   0  0  1  0  0  3  0  0  0  0  0  0
  192.7300  176.7910  146.7220 C   0  0  0  0  0  2  0  0  0  0  0  0
  194.1910  176.3890  146.5130 C   0  0  0  0  0  2  0  0  0  0  0  0
  192.9150  172.6500  141.6610 C   0  0  0  0  0  0  0  0  0  0  0  0
  194.2470  172.4440  141.3230 C   0  0  0  0  0  0  0  0  0  0  0  0
  189.2400  175.1460  142.6910 C   0  0  1  0  0  3  0  0  0  0  0  0
  189.6970  174.3150  144.9930 C   0  0  0  0  0  2  0  0  0  0  0  0
  196.4270  172.5770  141.5030 C   0  0  0  0  0  0  0  0  0  0  0  0
  187.7410  175.8310  144.6130 C   0  0  0  0  0  2  0  0  0  0  0  0
  191.8030  175.6060  146.4550 C   0  0  0  0  0  2  0  0  0  0  0  0
  191.1000  174.0090  144.6550 N   0  0  2  0  0  0  0  0  0  0  0  0
  192.0120  175.1090  145.0200 C   0  0  2  0  0  3  0  0  0  0  0  0
  193.7290  173.9360  143.5830 C   0  0  0  0  0  0  0  0  0  0  0  0
  196.0690  171.8370  140.3780 C   0  0  0  0  0  3  0  0  0  0  0  0
  188.9570  177.9160  142.3270 S   0  0  0  0  0  0  0  0  0  0  0  0
  189.1560  175.4890  144.1790 C   0  0  2  0  0  3  0  0  0  0  0  0
  194.7450  171.7810  140.3060 O   0  0  0  0  0  0  0  0  0  0  0  0
  188.6570  176.2100  141.7560 C   0  0  0  0  0  2  0  0  0  0  0  0
  187.5710  177.3450  144.6640 C   0  0  2  0  0  3  0  0  0  0  0  0
  194.4030  175.8280  145.1070 C   0  0  0  0  0  2  0  0  0  0  0  0
  193.4670  174.6410  144.8870 C   0  0  1  0  0  3  0  0  0  0  0  0
  195.0210  173.6790  143.2070 N   0  0  0  0  0  0  0  0  0  0  0  0
  190.6860  174.8560  142.3300 C   0  0  0  0  0  2  0  0  0  0  0  0
  191.8940  172.1270  140.8760 O   0  0  0  0  0  1  0  0  0  0  0  0
  197.8070  172.8880  141.9670 C   0  0  0  0  0  1  0  0  0  0  0  0
  192.6440  173.4060  142.8230 C   0  0  0  0  0  0  0  0  0  0  0  0
  195.2480  172.9540  142.0840 C   0  0  0  0  0  0  0  0  0  0  0  0
  186.4080  177.6630  145.4780 N   0  0  0  0  0  2  0  0  0  0  0  0
  186.5020  177.9510  146.8750 C   0  0  0  0  0  0  0  0  0  0  0  0
  187.6140  177.9160  147.4650 O   0  0  0  0  0  0  0  0  0  0  0  0
  185.2740  178.2910  147.6380 C   0  0  0  0  0  1  0  0  0  0  0  0
  1 20  1  0  0  0  0
  2 24  1  6  0  0  0
  2 12  1  0  0  0  0
  4  3  1  0  0  0  0
  5 27  1  0  0  0  0
  6  5  2  0  0  0  0
  6 28  1  0  0  0  0
  7 19  1  6  0  0  0
  7 17  1  0  0  0  0
  9 26  1  0  0  0  0
  9 28  1  0  0  0  0
 10 20  1  0  0  0  0
 11  3  1  0  0  0  0
 12  8  1  6  0  0  0
 12 13  1  0  0  0  0
 13 11  1  1  0  0  0
 14 22  1  0  0  0  0
 15  9  2  0  0  0  0
 16  1  1  0  0  0  0
 17 10  1  1  0  0  0
 17  8  1  0  0  0  0
 18 15  1  0  0  0  0
 18  6  1  0  0  0  0
 19 16  1  0  0  0  0
 20 29  1  1  0  0  0
 21  4  1  0  0  0  0
 22 13  1  0  0  0  0
 22 21  1  6  0  0  0
 23 14  1  0  0  0  0
 24  7  1  0  0  0  0
 25  5  1  0  0  0  0
 27  2  1  0  0  0  0
 27 14  2  0  0  0  0
 28 23  2  0  0  0  0
 29 30  1  0  0  0  0
 30 31  2  0  0  0  0
 30 32  1  0  0  0  0
M  END
>  <MODEL>
9

>  <REMARK>
 VINA RESULT:      -7.0      3.471      8.527
  Name = 
  1 active torsions:
  status: ('A' for Active; 'I' for Inactive)
    1  A    between atoms: C_20  and  N_29
                            x       y       z     vdW  Elec       q    Type
                         _______ _______ _______ _____ _____    ______ ____

>  <TORSDO>
F 1

$$$$
