=
 OpenBabel11112417363D

 28 32  0  0  1  0  0  0  0  0999 V2000
  188.3690  175.7550  146.4420 C   0  0  0  0  0  0  0  0  0  0  0  0
  186.5730  176.4580  142.3330 O   0  0  0  0  0  0  0  0  0  0  0  0
  194.0560  176.1940  144.2030 O   0  0  0  0  0  0  0  0  0  0  0  0
  186.7790  177.9800  145.8150 C   0  0  0  0  0  3  0  0  0  0  0  0
  192.5660  174.8130  142.9100 C   0  0  1  0  0  3  0  0  0  0  0  0
  189.2730  174.6680  146.9260 C   0  0  0  0  0  2  0  0  0  0  0  0
  188.6210  177.6090  141.5660 O   0  0  0  0  0  0  0  0  0  0  0  0
  187.9790  176.2770  141.8370 S   0  0  0  0  0  0  0  0  0  0  0  0
  188.7850  174.1020  140.3370 C   0  0  0  0  0  0  0  0  0  0  0  0
  188.9310  175.3300  142.9900 C   0  0  1  0  0  3  0  0  0  0  0  0
  191.7420  177.1120  148.3920 N   0  0  0  0  0  1  0  0  0  0  0  0
  190.7160  175.0960  144.5340 C   0  0  1  0  0  3  0  0  0  0  0  0
  189.7280  173.8600  141.2060 N   0  0  0  0  0  0  0  0  0  0  0  0
  187.9850  175.2990  140.4040 N   0  0  0  0  0  2  0  0  0  0  0  0
  191.1470  176.3450  147.3140 C   0  0  1  0  0  3  0  0  0  0  0  0
  188.5840  176.4500  145.2200 C   0  0  0  0  0  0  0  0  0  0  0  0
  192.9180  175.6720  144.0570 C   0  0  0  0  0  0  0  0  0  0  0  0
  188.4980  173.0990  139.2780 C   0  0  0  0  0  1  0  0  0  0  0  0
  192.2530  175.7830  146.4360 C   0  0  0  0  0  2  0  0  0  0  0  0
  187.7830  177.5670  144.9390 C   0  0  0  0  0  3  0  0  0  0  0  0
  187.3560  176.1800  147.3130 C   0  0  0  0  0  3  0  0  0  0  0  0
  186.5600  177.2800  147.0000 C   0  0  0  0  0  3  0  0  0  0  0  0
  190.3030  175.2200  147.9110 C   0  0  0  0  0  2  0  0  0  0  0  0
  191.1230  174.3690  143.2320 C   0  0  1  0  0  3  0  0  0  0  0  0
  191.8900  175.8020  145.0220 N   0  0  0  0  0  0  0  0  0  0  0  0
  190.1120  174.8510  142.2070 C   0  0  2  0  0  3  0  0  0  0  0  0
  192.6560  175.5490  141.7230 O   0  0  0  0  0  1  0  0  0  0  0  0
  189.5840  176.0620  144.1440 C   0  0  2  0  0  3  0  0  0  0  0  0
  1  6  1  0  0  0  0
  1 21  1  0  0  0  0
  4 22  1  0  0  0  0
  5 27  1  6  0  0  0
  5 24  1  0  0  0  0
  5 17  1  0  0  0  0
  6 23  1  0  0  0  0
  7  8  2  0  0  0  0
  8  2  2  0  0  0  0
  9 14  1  0  0  0  0
  9 13  2  0  0  0  0
 10  8  1  6  0  0  0
 10 28  1  0  0  0  0
 12 25  1  6  0  0  0
 13 26  1  0  0  0  0
 14  8  1  0  0  0  0
 15 23  1  0  0  0  0
 15 11  1  1  0  0  0
 16  1  2  0  0  0  0
 17  3  2  0  0  0  0
 17 25  1  0  0  0  0
 18  9  1  0  0  0  0
 19 15  1  0  0  0  0
 20 16  1  0  0  0  0
 20  4  2  0  0  0  0
 22 21  2  0  0  0  0
 24 12  1  0  0  0  0
 25 19  1  0  0  0  0
 26 10  1  0  0  0  0
 26 24  1  0  0  0  0
 28 12  1  0  0  0  0
 28 16  1  0  0  0  0
M  END
>  <MODEL>
1

>  <REMARK>
 VINA RESULT:      -8.6      0.000      0.000
  Name = 
  0 active torsions:
  status: ('A' for Active; 'I' for Inactive)
                            x       y       z     vdW  Elec       q    Type
                         _______ _______ _______ _____ _____    ______ ____

>  <TORSDO>
F 0

$$$$
=
 OpenBabel11112417363D

 28 32  0  0  1  0  0  0  0  0999 V2000
  185.3430  177.6310  145.5170 C   0  0  0  0  0  0  0  0  0  0  0  0
  186.0290  177.3000  141.0430 O   0  0  0  0  0  0  0  0  0  0  0  0
  191.3360  177.0260  146.6390 O   0  0  0  0  0  0  0  0  0  0  0  0
  184.7780  179.7050  143.7140 C   0  0  0  0  0  3  0  0  0  0  0  0
  190.4430  175.4520  145.0490 C   0  0  1  0  0  3  0  0  0  0  0  0
  185.6370  176.6570  146.6130 C   0  0  0  0  0  2  0  0  0  0  0  0
  188.3740  178.0450  141.2840 O   0  0  0  0  0  0  0  0  0  0  0  0
  187.4220  176.8890  141.4240 S   0  0  0  0  0  0  0  0  0  0  0  0
  188.4000  174.3330  141.0500 C   0  0  0  0  0  0  0  0  0  0  0  0
  187.4520  176.2310  143.0660 C   0  0  1  0  0  3  0  0  0  0  0  0
  187.4870  179.2270  148.6590 N   0  0  0  0  0  1  0  0  0  0  0  0
  188.1340  176.3040  145.3370 C   0  0  1  0  0  3  0  0  0  0  0  0
  188.7100  174.2730  142.3170 N   0  0  0  0  0  0  0  0  0  0  0  0
  187.9410  175.5550  140.4420 N   0  0  0  0  0  2  0  0  0  0  0  0
  187.3660  178.2380  147.6050 C   0  0  1  0  0  3  0  0  0  0  0  0
  186.2780  177.9450  144.4920 C   0  0  0  0  0  0  0  0  0  0  0  0
  190.3440  176.5670  146.0120 C   0  0  0  0  0  0  0  0  0  0  0  0
  188.4800  173.1000  140.2240 C   0  0  0  0  0  1  0  0  0  0  0  0
  188.6190  177.3780  147.5870 C   0  0  0  0  0  2  0  0  0  0  0  0
  185.9750  178.9960  143.6130 C   0  0  0  0  0  3  0  0  0  0  0  0
  184.1430  178.3510  145.6070 C   0  0  0  0  0  3  0  0  0  0  0  0
  183.8570  179.3760  144.7060 C   0  0  0  0  0  3  0  0  0  0  0  0
  186.1250  177.3850  147.8650 C   0  0  0  0  0  2  0  0  0  0  0  0
  188.9770  175.2190  144.6280 C   0  0  1  0  0  3  0  0  0  0  0  0
  189.0240  177.0320  146.2280 N   0  0  0  0  0  0  0  0  0  0  0  0
  188.7370  175.4710  143.1510 C   0  0  2  0  0  3  0  0  0  0  0  0
  191.2640  175.8240  143.9790 O   0  0  0  0  0  1  0  0  0  0  0  0
  187.5760  177.2040  144.2200 C   0  0  2  0  0  3  0  0  0  0  0  0
  1 21  1  0  0  0  0
  1  6  1  0  0  0  0
  2  8  2  0  0  0  0
  4 22  1  0  0  0  0
  5 27  1  6  0  0  0
  5 17  1  0  0  0  0
  6 23  1  0  0  0  0
  7  8  2  0  0  0  0
  9 13  2  0  0  0  0
 10  8  1  6  0  0  0
 10 26  1  0  0  0  0
 10 28  1  0  0  0  0
 12 25  1  1  0  0  0
 13 26  1  0  0  0  0
 14  9  1  0  0  0  0
 14  8  1  0  0  0  0
 15 23  1  0  0  0  0
 15 11  1  1  0  0  0
 16  1  2  0  0  0  0
 17 25  1  0  0  0  0
 17  3  2  0  0  0  0
 18  9  1  0  0  0  0
 19 15  1  0  0  0  0
 20  4  2  0  0  0  0
 20 16  1  0  0  0  0
 22 21  2  0  0  0  0
 24  5  1  0  0  0  0
 24 12  1  0  0  0  0
 25 19  1  0  0  0  0
 26 24  1  0  0  0  0
 28 16  1  0  0  0  0
 28 12  1  0  0  0  0
M  END
>  <MODEL>
2

>  <REMARK>
 VINA RESULT:      -8.6      2.066      3.051
  Name = 
  0 active torsions:
  status: ('A' for Active; 'I' for Inactive)
                            x       y       z     vdW  Elec       q    Type
                         _______ _______ _______ _____ _____    ______ ____

>  <TORSDO>
F 0

$$$$
=
 OpenBabel11112417363D

 28 32  0  0  1  0  0  0  0  0999 V2000
  189.7800  173.1290  143.0240 C   0  0  0  0  0  0  0  0  0  0  0  0
  190.2350  175.9110  146.5810 O   0  0  0  0  0  0  0  0  0  0  0  0
  187.0620  177.5260  139.7340 O   0  0  0  0  0  0  0  0  0  0  0  0
  192.2670  173.9210  144.0520 C   0  0  0  0  0  3  0  0  0  0  0  0
  186.2440  177.3010  141.9880 C   0  0  1  0  0  3  0  0  0  0  0  0
  188.5490  172.6560  142.3200 C   0  0  0  0  0  2  0  0  0  0  0  0
  190.1200  177.9010  145.1180 O   0  0  0  0  0  0  0  0  0  0  0  0
  189.3280  176.8260  145.8090 S   0  0  0  0  0  0  0  0  0  0  0  0
  186.7410  177.3990  146.5890 C   0  0  0  0  0  0  0  0  0  0  0  0
  188.3520  175.9080  144.6530 C   0  0  1  0  0  3  0  0  0  0  0  0
  189.8790  173.6320  138.9300 N   0  0  0  0  0  1  0  0  0  0  0  0
  187.7050  175.3500  142.4400 C   0  0  1  0  0  3  0  0  0  0  0  0
  186.3090  177.0100  145.4190 N   0  0  0  0  0  0  0  0  0  0  0  0
  188.1470  177.5290  146.8690 N   0  0  0  0  0  2  0  0  0  0  0  0
  189.2360  173.8900  140.2040 C   0  0  1  0  0  3  0  0  0  0  0  0
  189.9950  174.4910  143.3700 C   0  0  0  0  0  0  0  0  0  0  0  0
  187.0930  176.9240  140.8400 C   0  0  0  0  0  0  0  0  0  0  0  0
  185.7590  177.6700  147.6710 C   0  0  0  0  0  1  0  0  0  0  0  0
  188.0470  174.8100  139.9820 C   0  0  0  0  0  2  0  0  0  0  0  0
  191.2530  174.8610  143.8700 C   0  0  0  0  0  3  0  0  0  0  0  0
  190.8080  172.1940  143.2120 C   0  0  0  0  0  3  0  0  0  0  0  0
  192.0410  172.5840  143.7310 C   0  0  0  0  0  3  0  0  0  0  0  0
  188.7890  172.5630  140.8140 C   0  0  0  0  0  2  0  0  0  0  0  0
  186.5900  176.2330  143.0470 C   0  0  1  0  0  3  0  0  0  0  0  0
  187.8960  175.7790  141.0630 N   0  0  0  0  0  0  0  0  0  0  0  0
  187.2220  176.8200  144.2960 C   0  0  2  0  0  3  0  0  0  0  0  0
  186.5590  178.6000  142.4020 O   0  0  0  0  0  1  0  0  0  0  0  0
  188.9570  175.5980  143.2990 C   0  0  2  0  0  3  0  0  0  0  0  0
  1 21  2  0  0  0  0
  1 16  1  0  0  0  0
  3 17  2  0  0  0  0
  5 27  1  1  0  0  0
  5 24  1  0  0  0  0
  6  1  1  0  0  0  0
  7  8  2  0  0  0  0
  8  2  2  0  0  0  0
  8 14  1  0  0  0  0
  9 14  1  0  0  0  0
  9 18  1  0  0  0  0
 10  8  1  1  0  0  0
 12 25  1  6  0  0  0
 12 24  1  0  0  0  0
 12 28  1  0  0  0  0
 13  9  2  0  0  0  0
 15 11  1  6  0  0  0
 15 23  1  0  0  0  0
 16 20  2  0  0  0  0
 17 25  1  0  0  0  0
 17  5  1  0  0  0  0
 19 15  1  0  0  0  0
 19 25  1  0  0  0  0
 20  4  1  0  0  0  0
 21 22  1  0  0  0  0
 22  4  2  0  0  0  0
 23  6  1  0  0  0  0
 24 26  1  0  0  0  0
 26 10  1  0  0  0  0
 26 13  1  0  0  0  0
 28 16  1  0  0  0  0
 28 10  1  0  0  0  0
M  END
>  <MODEL>
3

>  <REMARK>
 VINA RESULT:      -8.2      2.527      6.334
  Name = 
  0 active torsions:
  status: ('A' for Active; 'I' for Inactive)
                            x       y       z     vdW  Elec       q    Type
                         _______ _______ _______ _____ _____    ______ ____

>  <TORSDO>
F 0

$$$$
=
 OpenBabel11112417363D

 28 32  0  0  1  0  0  0  0  0999 V2000
  185.6340  177.4150  144.9270 C   0  0  0  0  0  0  0  0  0  0  0  0
  188.0770  175.9520  141.3930 O   0  0  0  0  0  0  0  0  0  0  0  0
  190.6570  177.8860  148.4050 O   0  0  0  0  0  0  0  0  0  0  0  0
  185.8470  178.8260  142.5110 C   0  0  0  0  0  3  0  0  0  0  0  0
  190.4870  175.8380  147.1490 C   0  0  1  0  0  3  0  0  0  0  0  0
  185.4590  176.8250  146.2890 C   0  0  0  0  0  2  0  0  0  0  0  0
  190.1210  177.0180  142.2850 O   0  0  0  0  0  0  0  0  0  0  0  0
  189.1960  175.8370  142.3880 S   0  0  0  0  0  0  0  0  0  0  0  0
  190.2440  173.4180  143.2110 C   0  0  0  0  0  0  0  0  0  0  0  0
  188.5570  175.6660  144.0290 C   0  0  1  0  0  3  0  0  0  0  0  0
  186.3160  180.0660  148.0130 N   0  0  0  0  0  1  0  0  0  0  0  0
  188.2590  176.4450  146.2490 C   0  0  1  0  0  3  0  0  0  0  0  0
  190.0130  173.7480  144.4530 N   0  0  0  0  0  0  0  0  0  0  0  0
  190.0700  174.3600  142.1350 N   0  0  0  0  0  2  0  0  0  0  0  0
  186.6340  178.8180  147.3460 C   0  0  1  0  0  3  0  0  0  0  0  0
  186.9030  177.5470  144.3010 C   0  0  0  0  0  0  0  0  0  0  0  0
  190.0040  177.1540  147.6130 C   0  0  0  0  0  0  0  0  0  0  0  0
  190.6540  172.0250  142.8940 C   0  0  0  0  0  1  0  0  0  0  0  0
  187.7880  178.1480  148.0750 C   0  0  0  0  0  2  0  0  0  0  0  0
  186.9820  178.2700  143.1010 C   0  0  0  0  0  3  0  0  0  0  0  0
  184.5000  177.9780  144.3240 C   0  0  0  0  0  3  0  0  0  0  0  0
  184.6030  178.6720  143.1200 C   0  0  0  0  0  3  0  0  0  0  0  0
  185.3960  177.9230  147.3500 C   0  0  0  0  0  2  0  0  0  0  0  0
  189.3180  175.3190  146.2850 C   0  0  1  0  0  3  0  0  0  0  0  0
  188.7100  177.4940  147.1510 N   0  0  0  0  0  0  0  0  0  0  0  0
  189.6990  175.1230  144.8290 C   0  0  2  0  0  3  0  0  0  0  0  0
  191.6710  175.9990  146.4210 O   0  0  0  0  0  1  0  0  0  0  0  0
  188.2010  176.9270  144.7890 C   0  0  2  0  0  3  0  0  0  0  0  0
  1  6  1  0  0  0  0
  2  8  2  0  0  0  0
  4 20  2  0  0  0  0
  4 22  1  0  0  0  0
  5 27  1  6  0  0  0
  5 17  1  0  0  0  0
  6 23  1  0  0  0  0
  7  8  2  0  0  0  0
  9 13  2  0  0  0  0
 10  8  1  6  0  0  0
 10 28  1  0  0  0  0
 10 26  1  0  0  0  0
 12 24  1  0  0  0  0
 12 25  1  1  0  0  0
 13 26  1  0  0  0  0
 14  8  1  0  0  0  0
 14  9  1  0  0  0  0
 15 23  1  0  0  0  0
 15 11  1  1  0  0  0
 15 19  1  0  0  0  0
 16 28  1  0  0  0  0
 16  1  2  0  0  0  0
 17  3  2  0  0  0  0
 18  9  1  0  0  0  0
 20 16  1  0  0  0  0
 21  1  1  0  0  0  0
 22 21  2  0  0  0  0
 24  5  1  0  0  0  0
 25 17  1  0  0  0  0
 25 19  1  0  0  0  0
 26 24  1  0  0  0  0
 28 12  1  0  0  0  0
M  END
>  <MODEL>
4

>  <REMARK>
 VINA RESULT:      -8.0      2.485      3.929
  Name = 
  0 active torsions:
  status: ('A' for Active; 'I' for Inactive)
                            x       y       z     vdW  Elec       q    Type
                         _______ _______ _______ _____ _____    ______ ____

>  <TORSDO>
F 0

$$$$
=
 OpenBabel11112417363D

 28 32  0  0  1  0  0  0  0  0999 V2000
  186.4180  178.7160  145.0120 C   0  0  0  0  0  0  0  0  0  0  0  0
  189.2470  176.5520  147.8260 O   0  0  0  0  0  0  0  0  0  0  0  0
  187.7840  174.8770  140.4350 O   0  0  0  0  0  0  0  0  0  0  0  0
  185.5660  177.3850  147.3300 C   0  0  0  0  0  3  0  0  0  0  0  0
  189.6850  175.7080  141.6570 C   0  0  1  0  0  3  0  0  0  0  0  0
  186.6910  179.4190  143.7210 C   0  0  0  0  0  2  0  0  0  0  0  0
  189.0930  174.4800  146.4870 O   0  0  0  0  0  0  0  0  0  0  0  0
  189.7180  175.8430  146.5880 S   0  0  0  0  0  0  0  0  0  0  0  0
  192.2250  176.2210  145.4920 C   0  0  0  0  0  0  0  0  0  0  0  0
  189.3790  176.8120  145.1460 C   0  0  1  0  0  3  0  0  0  0  0  0
  183.9760  177.5410  141.9020 N   0  0  0  0  0  1  0  0  0  0  0  0
  188.2740  177.1680  143.0780 C   0  0  1  0  0  3  0  0  0  0  0  0
  191.6720  176.5250  144.3490 N   0  0  0  0  0  0  0  0  0  0  0  0
  191.4490  175.7170  146.5950 N   0  0  0  0  0  2  0  0  0  0  0  0
  185.3090  177.7040  142.4490 C   0  0  1  0  0  3  0  0  0  0  0  0
  186.9420  177.4290  145.3160 C   0  0  0  0  0  0  0  0  0  0  0  0
  188.2450  175.6140  141.3470 C   0  0  0  0  0  0  0  0  0  0  0  0
  193.6830  176.4440  145.6750 C   0  0  0  0  0  1  0  0  0  0  0  0
  186.3220  177.1660  141.4520 C   0  0  0  0  0  2  0  0  0  0  0  0
  186.4880  176.7820  146.4750 C   0  0  0  0  0  3  0  0  0  0  0  0
  185.4920  179.3110  145.8800 C   0  0  0  0  0  3  0  0  0  0  0  0
  185.0750  178.6550  147.0370 C   0  0  0  0  0  3  0  0  0  0  0  0
  185.5540  179.1850  142.7270 C   0  0  0  0  0  2  0  0  0  0  0  0
  189.7380  176.7780  142.7670 C   0  0  1  0  0  3  0  0  0  0  0  0
  187.4290  176.4800  142.1140 N   0  0  0  0  0  0  0  0  0  0  0  0
  190.2650  176.2410  144.0850 C   0  0  2  0  0  3  0  0  0  0  0  0
  190.1600  174.4610  142.0810 O   0  0  0  0  0  1  0  0  0  0  0  0
  188.0060  176.6950  144.5180 C   0  0  2  0  0  3  0  0  0  0  0  0
  1 16  2  0  0  0  0
  1 21  1  0  0  0  0
  3 17  2  0  0  0  0
  5 27  1  1  0  0  0
  5 24  1  0  0  0  0
  6  1  1  0  0  0  0
  7  8  2  0  0  0  0
  8 14  1  0  0  0  0
  8  2  2  0  0  0  0
  9 18  1  0  0  0  0
  9 14  1  0  0  0  0
 10  8  1  1  0  0  0
 12 25  1  6  0  0  0
 12 28  1  0  0  0  0
 13  9  2  0  0  0  0
 15 11  1  6  0  0  0
 15 23  1  0  0  0  0
 16 20  1  0  0  0  0
 17  5  1  0  0  0  0
 17 25  1  0  0  0  0
 19 25  1  0  0  0  0
 19 15  1  0  0  0  0
 20  4  2  0  0  0  0
 21 22  2  0  0  0  0
 22  4  1  0  0  0  0
 23  6  1  0  0  0  0
 24 12  1  0  0  0  0
 24 26  1  0  0  0  0
 26 13  1  0  0  0  0
 26 10  1  0  0  0  0
 28 10  1  0  0  0  0
 28 16  1  0  0  0  0
M  END
>  <MODEL>
5

>  <REMARK>
 VINA RESULT:      -7.7      2.726      5.455
  Name = 
  0 active torsions:
  status: ('A' for Active; 'I' for Inactive)
                            x       y       z     vdW  Elec       q    Type
                         _______ _______ _______ _____ _____    ______ ____

>  <TORSDO>
F 0

$$$$
=
 OpenBabel11112417363D

 28 32  0  0  1  0  0  0  0  0999 V2000
  192.3840  175.4140  142.2680 C   0  0  0  0  0  0  0  0  0  0  0  0
  188.1860  175.4380  140.5430 O   0  0  0  0  0  0  0  0  0  0  0  0
  190.2060  174.8900  147.9720 O   0  0  0  0  0  0  0  0  0  0  0  0
  191.4140  173.4220  140.5470 C   0  0  0  0  0  3  0  0  0  0  0  0
  189.1000  176.5450  146.6170 C   0  0  1  0  0  3  0  0  0  0  0  0
  193.0370  176.3530  143.2320 C   0  0  0  0  0  2  0  0  0  0  0  0
  187.2970  174.2620  142.5280 O   0  0  0  0  0  0  0  0  0  0  0  0
  187.7460  175.5850  141.9720 S   0  0  0  0  0  0  0  0  0  0  0  0
  186.5900  177.8880  142.9670 C   0  0  0  0  0  0  0  0  0  0  0  0
  189.0400  176.2860  142.9550 C   0  0  1  0  0  3  0  0  0  0  0  0
  194.1770  173.5530  145.4840 N   0  0  0  0  0  1  0  0  0  0  0  0
  190.6340  176.1680  144.7070 C   0  0  1  0  0  3  0  0  0  0  0  0
  187.5020  177.9340  143.9010 N   0  0  0  0  0  0  0  0  0  0  0  0
  186.4700  176.7550  142.0860 N   0  0  0  0  0  2  0  0  0  0  0  0
  193.2110  174.5060  144.9730 C   0  0  1  0  0  3  0  0  0  0  0  0
  191.0790  174.8870  142.4690 C   0  0  0  0  0  0  0  0  0  0  0  0
  190.1170  175.5070  146.8770 C   0  0  0  0  0  0  0  0  0  0  0  0
  185.6830  179.0500  142.7800 C   0  0  0  0  0  1  0  0  0  0  0  0
  192.4430  175.1060  146.1400 C   0  0  0  0  0  2  0  0  0  0  0  0
  190.6250  173.8820  141.6010 C   0  0  0  0  0  3  0  0  0  0  0  0
  193.1670  174.9430  141.2050 C   0  0  0  0  0  3  0  0  0  0  0  0
  192.6840  173.9600  140.3430 C   0  0  0  0  0  3  0  0  0  0  0  0
  193.9500  175.5920  144.1930 C   0  0  0  0  0  2  0  0  0  0  0  0
  189.4570  177.0420  145.2000 C   0  0  1  0  0  3  0  0  0  0  0  0
  191.0350  175.3160  145.8160 N   0  0  0  0  0  0  0  0  0  0  0  0
  188.3560  176.7860  144.1870 C   0  0  2  0  0  3  0  0  0  0  0  0
  187.8210  175.9820  146.6900 O   0  0  0  0  0  1  0  0  0  0  0  0
  190.0880  175.3510  143.5230 C   0  0  2  0  0  3  0  0  0  0  0  0
  1 16  1  0  0  0  0
  1  6  1  0  0  0  0
  2  8  2  0  0  0  0
  4 20  1  0  0  0  0
  5 27  1  6  0  0  0
  5 17  1  0  0  0  0
  6 23  1  0  0  0  0
  8 14  1  0  0  0  0
  8  7  2  0  0  0  0
  9 13  2  0  0  0  0
 10  8  1  6  0  0  0
 10 28  1  0  0  0  0
 10 26  1  0  0  0  0
 12 24  1  0  0  0  0
 12 25  1  1  0  0  0
 13 26  1  0  0  0  0
 14  9  1  0  0  0  0
 15 11  1  1  0  0  0
 15 19  1  0  0  0  0
 16 28  1  0  0  0  0
 17  3  2  0  0  0  0
 18  9  1  0  0  0  0
 20 16  2  0  0  0  0
 21  1  2  0  0  0  0
 22  4  2  0  0  0  0
 22 21  1  0  0  0  0
 23 15  1  0  0  0  0
 24  5  1  0  0  0  0
 25 19  1  0  0  0  0
 25 17  1  0  0  0  0
 26 24  1  0  0  0  0
 28 12  1  0  0  0  0
M  END
>  <MODEL>
6

>  <REMARK>
 VINA RESULT:      -7.3      2.332      5.031
  Name = 
  0 active torsions:
  status: ('A' for Active; 'I' for Inactive)
                            x       y       z     vdW  Elec       q    Type
                         _______ _______ _______ _____ _____    ______ ____

>  <TORSDO>
F 0

$$$$
=
 OpenBabel11112417363D

 28 32  0  0  1  0  0  0  0  0999 V2000
  192.0980  175.4160  144.3070 C   0  0  0  0  0  0  0  0  0  0  0  0
  189.8170  173.9750  140.6580 O   0  0  0  0  0  0  0  0  0  0  0  0
  186.8810  176.5470  147.3150 O   0  0  0  0  0  0  0  0  0  0  0  0
  192.2460  172.7880  143.3360 C   0  0  0  0  0  3  0  0  0  0  0  0
  186.9310  177.3490  145.0450 C   0  0  1  0  0  3  0  0  0  0  0  0
  192.0920  176.7480  144.9850 C   0  0  0  0  0  2  0  0  0  0  0  0
  187.8340  173.4380  142.0320 O   0  0  0  0  0  0  0  0  0  0  0  0
  188.6120  174.5340  141.3580 S   0  0  0  0  0  0  0  0  0  0  0  0
  187.2390  176.7580  140.4640 C   0  0  0  0  0  0  0  0  0  0  0  0
  189.0870  175.7860  142.5160 C   0  0  1  0  0  3  0  0  0  0  0  0
  191.4520  175.2330  148.3770 N   0  0  0  0  0  1  0  0  0  0  0  0
  189.2810  176.6270  144.7250 C   0  0  1  0  0  3  0  0  0  0  0  0
  187.4000  177.3180  141.6330 N   0  0  0  0  0  0  0  0  0  0  0  0
  187.6060  175.3850  140.2290 N   0  0  0  0  0  2  0  0  0  0  0  0
  191.0570  175.7250  147.0720 C   0  0  1  0  0  3  0  0  0  0  0  0
  190.9080  174.7460  143.9130 C   0  0  0  0  0  0  0  0  0  0  0  0
  187.5140  176.7000  146.2360 C   0  0  0  0  0  0  0  0  0  0  0  0
  186.7080  177.5680  139.3380 C   0  0  0  0  0  1  0  0  0  0  0  0
  189.7790  176.5360  147.2140 C   0  0  0  0  0  2  0  0  0  0  0  0
  191.0110  173.4270  143.4430 C   0  0  0  0  0  3  0  0  0  0  0  0
  193.3340  174.7630  144.1940 C   0  0  0  0  0  3  0  0  0  0  0  0
  193.4100  173.4600  143.7040 C   0  0  0  0  0  3  0  0  0  0  0  0
  192.1840  176.5840  146.5020 C   0  0  0  0  0  2  0  0  0  0  0  0
  188.1050  177.3640  144.0430 C   0  0  1  0  0  3  0  0  0  0  0  0
  188.8720  176.3290  146.0890 N   0  0  0  0  0  0  0  0  0  0  0  0
  187.8300  176.5460  142.7940 C   0  0  2  0  0  3  0  0  0  0  0  0
  185.8370  176.6040  144.5890 O   0  0  0  0  0  1  0  0  0  0  0  0
  189.5130  175.3480  143.9020 C   0  0  2  0  0  3  0  0  0  0  0  0
  1  6  1  0  0  0  0
  2  8  2  0  0  0  0
  4 20  2  0  0  0  0
  4 22  1  0  0  0  0
  5 27  1  6  0  0  0
  5 17  1  0  0  0  0
  6 23  1  0  0  0  0
  8  7  2  0  0  0  0
  9 13  2  0  0  0  0
 10  8  1  6  0  0  0
 10 26  1  0  0  0  0
 10 28  1  0  0  0  0
 12 25  1  1  0  0  0
 13 26  1  0  0  0  0
 14  9  1  0  0  0  0
 14  8  1  0  0  0  0
 15 19  1  0  0  0  0
 15 11  1  1  0  0  0
 16  1  2  0  0  0  0
 17  3  2  0  0  0  0
 18  9  1  0  0  0  0
 20 16  1  0  0  0  0
 21  1  1  0  0  0  0
 22 21  2  0  0  0  0
 23 15  1  0  0  0  0
 24 12  1  0  0  0  0
 24  5  1  0  0  0  0
 25 17  1  0  0  0  0
 25 19  1  0  0  0  0
 26 24  1  0  0  0  0
 28 16  1  0  0  0  0
 28 12  1  0  0  0  0
M  END
>  <MODEL>
7

>  <REMARK>
 VINA RESULT:      -7.3      2.231      4.652
  Name = 
  0 active torsions:
  status: ('A' for Active; 'I' for Inactive)
                            x       y       z     vdW  Elec       q    Type
                         _______ _______ _______ _____ _____    ______ ____

>  <TORSDO>
F 0

$$$$
=
 OpenBabel11112417363D

 28 32  0  0  1  0  0  0  0  0999 V2000
  190.3090  177.2600  144.6090 C   0  0  0  0  0  0  0  0  0  0  0  0
  194.2090  176.0900  146.6130 O   0  0  0  0  0  0  0  0  0  0  0  0
  190.8590  172.7190  140.5320 O   0  0  0  0  0  0  0  0  0  0  0  0
  190.4700  176.3650  147.2630 C   0  0  0  0  0  3  0  0  0  0  0  0
  192.8640  174.0060  140.8860 C   0  0  1  0  0  3  0  0  0  0  0  0
  190.0390  177.6990  143.2060 C   0  0  0  0  0  2  0  0  0  0  0  0
  194.0240  173.7760  145.7630 O   0  0  0  0  0  0  0  0  0  0  0  0
  194.3940  175.1930  145.4230 S   0  0  0  0  0  0  0  0  0  0  0  0
  196.3290  175.6170  143.4970 C   0  0  0  0  0  0  0  0  0  0  0  0
  193.4580  175.7850  144.0430 C   0  0  1  0  0  3  0  0  0  0  0  0
  187.2780  175.1740  142.7440 N   0  0  0  0  0  1  0  0  0  0  0  0
  191.7220  175.5620  142.4420 C   0  0  1  0  0  3  0  0  0  0  0  0
  195.4050  175.6030  142.5750 N   0  0  0  0  0  0  0  0  0  0  0  0
  196.0360  175.2720  144.8650 N   0  0  0  0  0  2  0  0  0  0  0  0
  188.6630  175.6030  142.7740 C   0  0  1  0  0  3  0  0  0  0  0  0
  191.1240  176.1380  144.9230 C   0  0  0  0  0  0  0  0  0  0  0  0
  191.4390  173.6820  141.1010 C   0  0  0  0  0  0  0  0  0  0  0  0
  197.7070  176.0410  143.1380 C   0  0  0  0  0  1  0  0  0  0  0  0
  189.3980  174.9870  141.5950 C   0  0  0  0  0  2  0  0  0  0  0  0
  191.1740  175.7040  146.2570 C   0  0  0  0  0  3  0  0  0  0  0  0
  189.6060  177.9160  145.6300 C   0  0  0  0  0  3  0  0  0  0  0  0
  189.6910  177.4770  146.9500 C   0  0  0  0  0  3  0  0  0  0  0  0
  188.7120  177.1290  142.7070 C   0  0  0  0  0  2  0  0  0  0  0  0
  193.0630  175.2880  141.7220 C   0  0  1  0  0  3  0  0  0  0  0  0
  190.7590  174.5910  141.9460 N   0  0  0  0  0  0  0  0  0  0  0  0
  194.0600  175.1080  142.8530 C   0  0  2  0  0  3  0  0  0  0  0  0
  193.6620  172.9430  141.3220 O   0  0  0  0  0  1  0  0  0  0  0  0
  192.0020  175.3790  143.9440 C   0  0  2  0  0  3  0  0  0  0  0  0
  1 16  2  0  0  0  0
  1 21  1  0  0  0  0
  3 17  2  0  0  0  0
  5 17  1  0  0  0  0
  5 27  1  1  0  0  0
  5 24  1  0  0  0  0
  6  1  1  0  0  0  0
  8  7  2  0  0  0  0
  8  2  2  0  0  0  0
  9 14  1  0  0  0  0
 10  8  1  1  0  0  0
 12 25  1  6  0  0  0
 12 28  1  0  0  0  0
 13 26  1  0  0  0  0
 13  9  2  0  0  0  0
 14  8  1  0  0  0  0
 15 11  1  6  0  0  0
 16 20  1  0  0  0  0
 17 25  1  0  0  0  0
 18  9  1  0  0  0  0
 19 25  1  0  0  0  0
 19 15  1  0  0  0  0
 20  4  2  0  0  0  0
 21 22  2  0  0  0  0
 22  4  1  0  0  0  0
 23 15  1  0  0  0  0
 23  6  1  0  0  0  0
 24 12  1  0  0  0  0
 24 26  1  0  0  0  0
 26 10  1  0  0  0  0
 28 10  1  0  0  0  0
 28 16  1  0  0  0  0
M  END
>  <MODEL>
8

>  <REMARK>
 VINA RESULT:      -7.2      3.022      5.571
  Name = 
  0 active torsions:
  status: ('A' for Active; 'I' for Inactive)
                            x       y       z     vdW  Elec       q    Type
                         _______ _______ _______ _____ _____    ______ ____

>  <TORSDO>
F 0

$$$$
=
 OpenBabel11112417363D

 28 32  0  0  1  0  0  0  0  0999 V2000
  192.4220  174.7950  144.3580 C   0  0  0  0  0  0  0  0  0  0  0  0
  190.5710  171.9000  141.3930 O   0  0  0  0  0  0  0  0  0  0  0  0
  186.9190  177.0640  145.8150 O   0  0  0  0  0  0  0  0  0  0  0  0
  192.5570  172.0070  144.6380 C   0  0  0  0  0  3  0  0  0  0  0  0
  187.3120  176.8080  143.4530 C   0  0  1  0  0  3  0  0  0  0  0  0
  192.3960  176.2900  144.3910 C   0  0  0  0  0  2  0  0  0  0  0  0
  188.3980  171.9890  142.5680 O   0  0  0  0  0  0  0  0  0  0  0  0
  189.3150  172.6940  141.6080 S   0  0  0  0  0  0  0  0  0  0  0  0
  188.1930  174.3020  139.6620 C   0  0  0  0  0  0  0  0  0  0  0  0
  189.6980  174.3270  142.1720 C   0  0  1  0  0  3  0  0  0  0  0  0
  191.2330  176.3800  147.9760 N   0  0  0  0  0  1  0  0  0  0  0  0
  189.6410  176.0410  143.8110 C   0  0  1  0  0  3  0  0  0  0  0  0
  188.2260  175.3130  140.4880 N   0  0  0  0  0  0  0  0  0  0  0  0
  188.5140  172.9660  140.0930 N   0  0  0  0  0  2  0  0  0  0  0  0
  191.0400  176.2570  146.5440 C   0  0  1  0  0  3  0  0  0  0  0  0
  191.2600  174.0090  144.1230 C   0  0  0  0  0  0  0  0  0  0  0  0
  187.6960  176.7420  144.8770 C   0  0  0  0  0  0  0  0  0  0  0  0
  187.8590  174.5410  138.2340 C   0  0  0  0  0  1  0  0  0  0  0  0
  189.8000  177.0380  146.1420 C   0  0  0  0  0  2  0  0  0  0  0  0
  191.3540  172.6180  144.2840 C   0  0  0  0  0  3  0  0  0  0  0  0
  193.6250  174.1690  144.7130 C   0  0  0  0  0  3  0  0  0  0  0  0
  193.6960  172.7830  144.8440 C   0  0  0  0  0  3  0  0  0  0  0  0
  192.2780  176.7960  145.8290 C   0  0  0  0  0  2  0  0  0  0  0  0
  188.6070  176.4010  142.7190 C   0  0  1  0  0  3  0  0  0  0  0  0
  189.0400  176.3570  145.0980 N   0  0  0  0  0  0  0  0  0  0  0  0
  188.4570  175.1220  141.9160 C   0  0  2  0  0  3  0  0  0  0  0  0
  186.2500  175.9290  143.2090 O   0  0  0  0  0  1  0  0  0  0  0  0
  189.9130  174.5340  143.6570 C   0  0  2  0  0  3  0  0  0  0  0  0
  1  6  1  0  0  0  0
  1 21  1  0  0  0  0
  2  8  2  0  0  0  0
  4 22  1  0  0  0  0
  5 27  1  1  0  0  0
  5 17  1  0  0  0  0
  6 23  1  0  0  0  0
  8  7  2  0  0  0  0
  9 14  1  0  0  0  0
  9 13  2  0  0  0  0
 10  8  1  1  0  0  0
 10 28  1  0  0  0  0
 12 25  1  1  0  0  0
 13 26  1  0  0  0  0
 14  8  1  0  0  0  0
 15 11  1  1  0  0  0
 16 20  1  0  0  0  0
 16  1  2  0  0  0  0
 17 25  1  0  0  0  0
 17  3  2  0  0  0  0
 18  9  1  0  0  0  0
 19 15  1  0  0  0  0
 20  4  2  0  0  0  0
 21 22  2  0  0  0  0
 23 15  1  0  0  0  0
 24  5  1  0  0  0  0
 24 12  1  0  0  0  0
 25 19  1  0  0  0  0
 26 10  1  0  0  0  0
 26 24  1  0  0  0  0
 28 12  1  0  0  0  0
 28 16  1  0  0  0  0
M  END
>  <MODEL>
9

>  <REMARK>
 VINA RESULT:      -7.1      2.225      4.618
  Name = 
  0 active torsions:
  status: ('A' for Active; 'I' for Inactive)
                            x       y       z     vdW  Elec       q    Type
                         _______ _______ _______ _____ _____    ______ ____

>  <TORSDO>
F 0

$$$$
