=
 OpenBabel11112416373D

 32 37  0  0  1  0  0  0  0  0999 V2000
  186.7570  178.5640  143.2370 C   0  0  0  0  0  2  0  0  0  0  0  0
  190.4540  174.8070  143.7590 C   0  0  0  0  0  0  0  0  0  0  0  0
  190.4450  172.8280  139.3300 O   0  0  0  0  0  0  0  0  0  0  0  0
  191.5370  173.6350  138.9520 C   0  0  0  0  0  2  0  0  0  0  0  0
  192.7000  174.8820  144.9900 C   0  0  0  0  0  0  0  0  0  0  0  0
  194.0810  174.6720  144.9450 C   0  0  0  0  0  0  0  0  0  0  0  0
  188.4540  176.2260  144.2710 C   0  0  2  0  0  3  0  0  0  0  0  0
  188.1790  174.3600  142.6660 C   0  0  0  0  0  2  0  0  0  0  0  0
  196.0780  174.0190  144.0330 N   0  0  0  0  0  0  0  0  0  0  0  0
  186.4070  176.0630  142.8120 C   0  0  0  0  0  2  0  0  0  0  0  0
  189.6180  173.5940  140.1840 C   0  0  0  0  0  2  0  0  0  0  0  0
  189.6780  174.0250  142.7190 C   0  0  1  0  0  3  0  0  0  0  0  0
  190.3840  174.2070  141.3790 C   0  0  1  0  0  3  0  0  0  0  0  0
  192.5850  174.0650  142.6670 C   0  0  0  0  0  0  0  0  0  0  0  0
  196.4200  174.4450  145.3830 C   0  0  0  0  0  3  0  0  0  0  0  0
  186.9930  178.1270  144.5450 O   0  0  0  0  0  0  0  0  0  0  0  0
  187.9160  175.8440  142.8840 C   0  0  1  0  0  3  0  0  0  0  0  0
  195.0890  174.8910  146.0270 C   0  0  0  0  0  3  0  0  0  0  0  0
  188.3330  177.7250  144.5430 C   0  0  0  0  0  2  0  0  0  0  0  0
  186.0280  177.4920  142.4180 C   0  0  1  0  0  3  0  0  0  0  0  0
  192.5180  173.7940  140.1230 C   0  0  0  0  0  2  0  0  0  0  0  0
  191.7930  173.6040  141.4610 C   0  0  2  0  0  3  0  0  0  0  0  0
  193.9740  173.8440  142.6890 C   0  0  0  0  0  3  0  0  0  0  0  0
  189.8990  175.8480  144.4000 C   0  0  0  0  0  3  0  0  0  0  0  0
  192.0840  175.3510  146.2690 C   0  0  0  0  0  1  0  0  0  0  0  0
  197.0270  173.5020  143.0630 C   0  0  0  0  0  1  0  0  0  0  0  0
  191.9280  174.5830  143.8270 C   0  0  0  0  0  0  0  0  0  0  0  0
  194.6910  174.1760  143.8320 C   0  0  0  0  0  0  0  0  0  0  0  0
  184.5880  177.6560  142.5530 N   0  0  0  0  0  2  0  0  0  0  0  0
  183.7680  178.1730  141.5030 C   0  0  0  0  0  0  0  0  0  0  0  0
  184.2700  178.4890  140.3920 O   0  0  0  0  0  0  0  0  0  0  0  0
  182.3700  178.3290  141.7150 N   0  0  0  0  0  1  0  0  0  0  0  0
  1 16  1  0  0  0  0
  2 27  1  0  0  0  0
  2 24  2  0  0  0  0
  3 11  1  0  0  0  0
  4  3  1  0  0  0  0
  4 21  1  0  0  0  0
  5 25  1  0  0  0  0
  6  5  1  0  0  0  0
  6 18  1  0  0  0  0
  7 24  1  6  0  0  0
  7 19  1  0  0  0  0
  9 15  1  0  0  0  0
 10 17  1  0  0  0  0
 12  8  1  6  0  0  0
 12  2  1  0  0  0  0
 13 11  1  6  0  0  0
 13 22  1  0  0  0  0
 13 12  1  0  0  0  0
 14 23  2  0  0  0  0
 14 27  1  0  0  0  0
 15 18  2  0  0  0  0
 17  8  1  1  0  0  0
 17  7  1  0  0  0  0
 19 16  1  0  0  0  0
 20 29  1  1  0  0  0
 20 10  1  0  0  0  0
 20  1  1  0  0  0  0
 22 21  1  6  0  0  0
 22 14  1  0  0  0  0
 23 28  1  0  0  0  0
 26  9  1  0  0  0  0
 27  5  2  0  0  0  0
 28  9  1  0  0  0  0
 28  6  2  0  0  0  0
 30 32  1  0  0  0  0
 30 29  1  0  0  0  0
 31 30  2  0  0  0  0
M  END
>  <MODEL>
1

>  <REMARK>
 VINA RESULT:      -8.2      0.000      0.000
  Name = 
  1 active torsions:
  status: ('A' for Active; 'I' for Inactive)
    1  A    between atoms: C_20  and  N_29
                            x       y       z     vdW  Elec       q    Type
                         _______ _______ _______ _____ _____    ______ ____

>  <TORSDO>
F 1

$$$$
=
 OpenBabel11112416373D

 32 37  0  0  1  0  0  0  0  0999 V2000
  194.6800  174.3330  141.5020 C   0  0  0  0  0  2  0  0  0  0  0  0
  189.9360  174.9160  143.7850 C   0  0  0  0  0  0  0  0  0  0  0  0
  191.1860  175.7770  148.3930 O   0  0  0  0  0  0  0  0  0  0  0  0
  191.0820  177.1660  148.1760 C   0  0  0  0  0  2  0  0  0  0  0  0
  187.8360  176.0970  142.9150 C   0  0  0  0  0  0  0  0  0  0  0  0
  186.8240  177.0340  143.1450 C   0  0  0  0  0  0  0  0  0  0  0  0
  191.7630  173.9450  142.3730 C   0  0  2  0  0  3  0  0  0  0  0  0
  191.7860  173.4630  144.8020 C   0  0  0  0  0  2  0  0  0  0  0  0
  185.6140  178.5680  144.3400 N   0  0  0  0  0  0  0  0  0  0  0  0
  193.8010  172.9630  143.4800 C   0  0  0  0  0  2  0  0  0  0  0  0
  191.7040  175.1940  147.2130 C   0  0  0  0  0  2  0  0  0  0  0  0
  190.5780  174.3790  145.0490 C   0  0  1  0  0  3  0  0  0  0  0  0
  190.8980  175.5690  145.9480 C   0  0  1  0  0  3  0  0  0  0  0  0
  188.6820  176.5820  145.1780 C   0  0  0  0  0  0  0  0  0  0  0  0
  184.9120  178.4660  143.0670 C   0  0  0  0  0  3  0  0  0  0  0  0
  193.6100  173.7250  140.8360 O   0  0  0  0  0  0  0  0  0  0  0  0
  192.6390  173.9400  143.6350 C   0  0  1  0  0  3  0  0  0  0  0  0
  185.7050  177.4330  142.2370 C   0  0  0  0  0  3  0  0  0  0  0  0
  192.5010  174.5130  141.1620 C   0  0  0  0  0  2  0  0  0  0  0  0
  195.0210  173.5880  142.7980 C   0  0  1  0  0  3  0  0  0  0  0  0
  189.9030  177.4770  147.2430 C   0  0  0  0  0  2  0  0  0  0  0  0
  189.5930  176.2700  146.3490 C   0  0  2  0  0  3  0  0  0  0  0  0
  187.6250  177.4900  145.3670 C   0  0  0  0  0  3  0  0  0  0  0  0
  190.5290  174.7680  142.5900 C   0  0  0  0  0  3  0  0  0  0  0  0
  187.8330  175.3360  141.6270 C   0  0  0  0  0  1  0  0  0  0  0  0
  185.2070  179.4200  145.4430 C   0  0  0  0  0  1  0  0  0  0  0  0
  188.7960  175.8660  143.9450 C   0  0  0  0  0  0  0  0  0  0  0  0
  186.7300  177.7050  144.3270 C   0  0  0  0  0  0  0  0  0  0  0  0
  196.0010  172.5460  142.5300 N   0  0  0  0  0  2  0  0  0  0  0  0
  197.0000  172.1630  143.4770 C   0  0  0  0  0  0  0  0  0  0  0  0
  197.0530  172.7080  144.6110 O   0  0  0  0  0  0  0  0  0  0  0  0
  197.9410  171.1520  143.1370 N   0  0  0  0  0  1  0  0  0  0  0  0
  1 20  1  0  0  0  0
  2 27  1  0  0  0  0
  2 12  1  0  0  0  0
  4  3  1  0  0  0  0
  5  6  2  0  0  0  0
  5 27  1  0  0  0  0
  6 28  1  0  0  0  0
  7 19  1  6  0  0  0
  7 24  1  0  0  0  0
  7 17  1  0  0  0  0
  9 26  1  0  0  0  0
 11  3  1  0  0  0  0
 12  8  1  6  0  0  0
 12 13  1  0  0  0  0
 13 22  1  0  0  0  0
 13 11  1  1  0  0  0
 14 23  1  0  0  0  0
 14 22  1  0  0  0  0
 15  9  1  0  0  0  0
 16 19  1  0  0  0  0
 16  1  1  0  0  0  0
 17 10  1  6  0  0  0
 17  8  1  0  0  0  0
 18 15  2  0  0  0  0
 18  6  1  0  0  0  0
 20 29  1  6  0  0  0
 20 10  1  0  0  0  0
 21  4  1  0  0  0  0
 22 21  1  6  0  0  0
 24  2  2  0  0  0  0
 25  5  1  0  0  0  0
 27 14  2  0  0  0  0
 28  9  1  0  0  0  0
 28 23  2  0  0  0  0
 29 30  1  0  0  0  0
 30 31  2  0  0  0  0
 32 30  1  0  0  0  0
M  END
>  <MODEL>
2

>  <REMARK>
 VINA RESULT:      -7.7      2.830      8.970
  Name = 
  1 active torsions:
  status: ('A' for Active; 'I' for Inactive)
    1  A    between atoms: C_20  and  N_29
                            x       y       z     vdW  Elec       q    Type
                         _______ _______ _______ _____ _____    ______ ____

>  <TORSDO>
F 1

$$$$
=
 OpenBabel11112416373D

 32 37  0  0  1  0  0  0  0  0999 V2000
  187.9630  178.0710  142.7170 C   0  0  0  0  0  2  0  0  0  0  0  0
  191.3680  174.1790  143.8620 C   0  0  0  0  0  0  0  0  0  0  0  0
  191.0210  171.4010  139.8990 O   0  0  0  0  0  0  0  0  0  0  0  0
  192.1570  172.0250  139.3450 C   0  0  0  0  0  2  0  0  0  0  0  0
  193.6610  174.2930  144.9980 C   0  0  0  0  0  0  0  0  0  0  0  0
  195.0190  173.9610  144.9600 C   0  0  0  0  0  0  0  0  0  0  0  0
  189.5100  175.8350  144.1400 C   0  0  2  0  0  3  0  0  0  0  0  0
  189.0220  173.7290  142.9320 C   0  0  0  0  0  2  0  0  0  0  0  0
  196.9180  172.9780  144.1420 N   0  0  0  0  0  0  0  0  0  0  0  0
  187.3980  175.5740  142.7920 C   0  0  0  0  0  2  0  0  0  0  0  0
  190.2930  172.3840  140.6100 C   0  0  0  0  0  2  0  0  0  0  0  0
  190.4900  173.2820  143.0110 C   0  0  1  0  0  3  0  0  0  0  0  0
  191.1530  173.1450  141.6440 C   0  0  1  0  0  3  0  0  0  0  0  0
  193.3870  173.0630  142.8800 C   0  0  0  0  0  0  0  0  0  0  0  0
  197.3480  173.6220  145.3750 C   0  0  0  0  0  3  0  0  0  0  0  0
  188.2170  177.8710  144.0780 O   0  0  0  0  0  0  0  0  0  0  0  0
  188.8860  175.2440  142.8660 C   0  0  1  0  0  3  0  0  0  0  0  0
  196.0840  174.2940  145.9550 C   0  0  0  0  0  3  0  0  0  0  0  0
  189.5190  177.3630  144.1210 C   0  0  0  0  0  2  0  0  0  0  0  0
  187.1180  176.9290  142.1390 C   0  0  1  0  0  3  0  0  0  0  0  0
  193.1940  172.3190  140.4380 C   0  0  0  0  0  2  0  0  0  0  0  0
  192.5120  172.4510  141.8060 C   0  0  2  0  0  3  0  0  0  0  0  0
  194.7540  172.7310  142.9090 C   0  0  0  0  0  3  0  0  0  0  0  0
  190.9240  175.3660  144.3030 C   0  0  0  0  0  3  0  0  0  0  0  0
  193.1370  175.0480  146.1780 C   0  0  0  0  0  1  0  0  0  0  0  0
  197.7830  172.2060  143.2660 C   0  0  0  0  0  1  0  0  0  0  0  0
  192.8210  173.8460  143.9350 C   0  0  0  0  0  0  0  0  0  0  0  0
  195.5410  173.2120  143.9490 C   0  0  0  0  0  0  0  0  0  0  0  0
  185.7020  177.2380  142.2750 N   0  0  0  0  0  2  0  0  0  0  0  0
  184.9590  177.9210  141.2630 C   0  0  0  0  0  0  0  0  0  0  0  0
  185.5100  178.2630  140.1830 O   0  0  0  0  0  0  0  0  0  0  0  0
  183.5840  178.2120  141.4760 N   0  0  0  0  0  1  0  0  0  0  0  0
  1 16  1  0  0  0  0
  2 27  1  0  0  0  0
  2 24  2  0  0  0  0
  3 11  1  0  0  0  0
  4  3  1  0  0  0  0
  4 21  1  0  0  0  0
  5 25  1  0  0  0  0
  6  5  1  0  0  0  0
  6 18  1  0  0  0  0
  7 19  1  6  0  0  0
  7 24  1  0  0  0  0
  9 15  1  0  0  0  0
 12  8  1  6  0  0  0
 12  2  1  0  0  0  0
 13 11  1  6  0  0  0
 13 22  1  0  0  0  0
 13 12  1  0  0  0  0
 14 23  2  0  0  0  0
 14 27  1  0  0  0  0
 15 18  2  0  0  0  0
 16 19  1  0  0  0  0
 17 10  1  1  0  0  0
 17  8  1  0  0  0  0
 17  7  1  0  0  0  0
 20 29  1  1  0  0  0
 20  1  1  0  0  0  0
 20 10  1  0  0  0  0
 22 21  1  6  0  0  0
 22 14  1  0  0  0  0
 23 28  1  0  0  0  0
 26  9  1  0  0  0  0
 27  5  2  0  0  0  0
 28  9  1  0  0  0  0
 28  6  2  0  0  0  0
 30 32  1  0  0  0  0
 30 29  1  0  0  0  0
 31 30  2  0  0  0  0
M  END
>  <MODEL>
3

>  <REMARK>
 VINA RESULT:      -7.4      1.205      1.298
  Name = 
  1 active torsions:
  status: ('A' for Active; 'I' for Inactive)
    1  A    between atoms: C_20  and  N_29
                            x       y       z     vdW  Elec       q    Type
                         _______ _______ _______ _____ _____    ______ ____

>  <TORSDO>
F 1

$$$$
=
 OpenBabel11112416373D

 32 37  0  0  1  0  0  0  0  0999 V2000
  186.5770  175.6790  142.2070 C   0  0  0  0  0  2  0  0  0  0  0  0
  191.6360  176.3470  143.6270 C   0  0  0  0  0  0  0  0  0  0  0  0
  191.1980  177.1650  148.3890 O   0  0  0  0  0  0  0  0  0  0  0  0
  191.4600  175.8070  148.6600 C   0  0  0  0  0  2  0  0  0  0  0  0
  193.7310  175.0900  142.8560 C   0  0  0  0  0  0  0  0  0  0  0  0
  194.8860  174.3850  143.2090 C   0  0  0  0  0  0  0  0  0  0  0  0
  189.5070  176.5830  142.3280 C   0  0  2  0  0  3  0  0  0  0  0  0
  189.7700  177.9290  144.3900 C   0  0  0  0  0  2  0  0  0  0  0  0
  196.4560  173.5000  144.6220 N   0  0  0  0  0  0  0  0  0  0  0  0
  187.5350  177.7480  143.3750 C   0  0  0  0  0  2  0  0  0  0  0  0
  190.4390  177.2270  147.1960 C   0  0  0  0  0  2  0  0  0  0  0  0
  191.1160  177.2640  144.7160 C   0  0  1  0  0  3  0  0  0  0  0  0
  191.0970  176.4720  146.0190 C   0  0  1  0  0  3  0  0  0  0  0  0
  193.2960  175.4170  145.2590 C   0  0  0  0  0  0  0  0  0  0  0  0
  196.9450  173.1760  143.2890 C   0  0  0  0  0  3  0  0  0  0  0  0
  187.4450  176.0770  141.1830 O   0  0  0  0  0  0  0  0  0  0  0  0
  188.8310  176.9900  143.6460 C   0  0  1  0  0  3  0  0  0  0  0  0
  195.9060  173.7640  142.3100 C   0  0  0  0  0  3  0  0  0  0  0  0
  188.6870  175.5520  141.5540 C   0  0  0  0  0  2  0  0  0  0  0  0
  186.3270  176.8240  143.1960 C   0  0  1  0  0  3  0  0  0  0  0  0
  192.5230  175.2620  147.6950 C   0  0  0  0  0  2  0  0  0  0  0  0
  192.5310  176.0710  146.3920 C   0  0  2  0  0  3  0  0  0  0  0  0
  194.4860  174.7270  145.5570 C   0  0  0  0  0  3  0  0  0  0  0  0
  190.8620  175.9960  142.5880 C   0  0  0  0  0  3  0  0  0  0  0  0
  193.4420  175.3170  141.4060 C   0  0  0  0  0  1  0  0  0  0  0  0
  197.1320  173.1520  145.8590 C   0  0  0  0  0  1  0  0  0  0  0  0
  192.9080  175.6130  143.8970 C   0  0  0  0  0  0  0  0  0  0  0  0
  195.2420  174.2100  144.5130 C   0  0  0  0  0  0  0  0  0  0  0  0
  185.1850  177.6150  142.7640 N   0  0  0  0  0  2  0  0  0  0  0  0
  184.3210  178.2910  143.6810 C   0  0  0  0  0  0  0  0  0  0  0  0
  184.5400  178.2450  144.9210 O   0  0  0  0  0  0  0  0  0  0  0  0
  183.2080  179.0250  143.1880 N   0  0  0  0  0  1  0  0  0  0  0  0
  1 20  1  0  0  0  0
  2 27  1  0  0  0  0
  2 12  1  0  0  0  0
  3  4  1  0  0  0  0
  5  6  2  0  0  0  0
  5 27  1  0  0  0  0
  6 28  1  0  0  0  0
  7 19  1  1  0  0  0
  7 24  1  0  0  0  0
  7 17  1  0  0  0  0
  9 26  1  0  0  0  0
 11  3  1  0  0  0  0
 12  8  1  6  0  0  0
 12 13  1  0  0  0  0
 13 22  1  0  0  0  0
 13 11  1  1  0  0  0
 14 23  1  0  0  0  0
 14 22  1  0  0  0  0
 15  9  1  0  0  0  0
 16 19  1  0  0  0  0
 16  1  1  0  0  0  0
 17 10  1  6  0  0  0
 17  8  1  0  0  0  0
 18  6  1  0  0  0  0
 18 15  2  0  0  0  0
 20 29  1  6  0  0  0
 20 10  1  0  0  0  0
 21  4  1  0  0  0  0
 22 21  1  1  0  0  0
 24  2  2  0  0  0  0
 25  5  1  0  0  0  0
 27 14  2  0  0  0  0
 28  9  1  0  0  0  0
 28 23  2  0  0  0  0
 29 30  1  0  0  0  0
 30 31  2  0  0  0  0
 32 30  1  0  0  0  0
M  END
>  <MODEL>
4

>  <REMARK>
 VINA RESULT:      -7.1      1.955      4.302
  Name = 
  1 active torsions:
  status: ('A' for Active; 'I' for Inactive)
    1  A    between atoms: C_20  and  N_29
                            x       y       z     vdW  Elec       q    Type
                         _______ _______ _______ _____ _____    ______ ____

>  <TORSDO>
F 1

$$$$
=
 OpenBabel11112416373D

 32 37  0  0  1  0  0  0  0  0999 V2000
  193.0860  174.1630  140.6600 C   0  0  0  0  0  2  0  0  0  0  0  0
  189.2250  174.9410  144.2020 C   0  0  0  0  0  0  0  0  0  0  0  0
  191.7660  175.3870  148.3110 O   0  0  0  0  0  0  0  0  0  0  0  0
  191.7340  176.7910  148.1950 C   0  0  0  0  0  2  0  0  0  0  0  0
  187.0840  176.3330  144.0090 C   0  0  0  0  0  0  0  0  0  0  0  0
  186.2630  177.3260  144.5540 C   0  0  0  0  0  0  0  0  0  0  0  0
  190.4980  173.9350  142.2930 C   0  0  2  0  0  3  0  0  0  0  0  0
  191.1430  173.2870  144.5950 C   0  0  0  0  0  2  0  0  0  0  0  0
  185.5740  178.8610  146.1080 N   0  0  0  0  0  0  0  0  0  0  0  0
  192.6630  172.7290  142.7410 C   0  0  0  0  0  2  0  0  0  0  0  0
  191.8840  174.8490  147.0080 C   0  0  0  0  0  2  0  0  0  0  0  0
  190.1380  174.2720  145.2110 C   0  0  1  0  0  3  0  0  0  0  0  0
  190.8000  175.3700  146.0370 C   0  0  1  0  0  3  0  0  0  0  0  0
  188.5600  176.5960  145.9640 C   0  0  0  0  0  0  0  0  0  0  0  0
  184.5430  178.8990  145.0790 C   0  0  0  0  0  3  0  0  0  0  0  0
  191.8240  173.6830  140.2940 O   0  0  0  0  0  0  0  0  0  0  0  0
  191.6830  173.7780  143.2590 C   0  0  1  0  0  3  0  0  0  0  0  0
  184.9800  177.8690  144.0150 C   0  0  0  0  0  3  0  0  0  0  0  0
  190.9230  174.5280  140.9510 C   0  0  0  0  0  2  0  0  0  0  0  0
  193.7010  173.3060  141.7740 C   0  0  1  0  0  3  0  0  0  0  0  0
  190.3780  177.2530  147.6430 C   0  0  0  0  0  2  0  0  0  0  0  0
  189.7250  176.1370  146.8180 C   0  0  2  0  0  3  0  0  0  0  0  0
  187.6830  177.5660  146.4820 C   0  0  0  0  0  3  0  0  0  0  0  0
  189.4510  174.8310  142.8840 C   0  0  0  0  0  3  0  0  0  0  0  0
  186.6580  175.6650  142.7400 C   0  0  0  0  0  1  0  0  0  0  0  0
  185.5660  179.6620  147.3180 C   0  0  0  0  0  1  0  0  0  0  0  0
  188.2650  175.9610  144.7170 C   0  0  0  0  0  0  0  0  0  0  0  0
  186.5600  177.9190  145.7450 C   0  0  0  0  0  0  0  0  0  0  0  0
  194.4700  172.2140  141.1960 N   0  0  0  0  0  2  0  0  0  0  0  0
  195.7290  171.7920  141.7230 C   0  0  0  0  0  0  0  0  0  0  0  0
  196.2150  172.3460  142.7450 O   0  0  0  0  0  0  0  0  0  0  0  0
  196.4370  170.7330  141.0910 N   0  0  0  0  0  1  0  0  0  0  0  0
  1 20  1  0  0  0  0
  2 27  1  0  0  0  0
  2 12  1  0  0  0  0
  4  3  1  0  0  0  0
  5  6  2  0  0  0  0
  5 27  1  0  0  0  0
  6 28  1  0  0  0  0
  7 19  1  6  0  0  0
  7 24  1  0  0  0  0
  7 17  1  0  0  0  0
  9 26  1  0  0  0  0
 11  3  1  0  0  0  0
 12  8  1  6  0  0  0
 12 13  1  0  0  0  0
 13 22  1  0  0  0  0
 13 11  1  1  0  0  0
 14 23  1  0  0  0  0
 14 22  1  0  0  0  0
 15  9  1  0  0  0  0
 16  1  1  0  0  0  0
 16 19  1  0  0  0  0
 17 10  1  6  0  0  0
 17  8  1  0  0  0  0
 18  6  1  0  0  0  0
 18 15  2  0  0  0  0
 20 29  1  6  0  0  0
 20 10  1  0  0  0  0
 21  4  1  0  0  0  0
 22 21  1  6  0  0  0
 24  2  2  0  0  0  0
 25  5  1  0  0  0  0
 27 14  2  0  0  0  0
 28  9  1  0  0  0  0
 28 23  2  0  0  0  0
 29 30  1  0  0  0  0
 30 31  2  0  0  0  0
 32 30  1  0  0  0  0
M  END
>  <MODEL>
5

>  <REMARK>
 VINA RESULT:      -7.0      2.997      8.692
  Name = 
  1 active torsions:
  status: ('A' for Active; 'I' for Inactive)
    1  A    between atoms: C_20  and  N_29
                            x       y       z     vdW  Elec       q    Type
                         _______ _______ _______ _____ _____    ______ ____

>  <TORSDO>
F 1

$$$$
=
 OpenBabel11112416373D

 32 37  0  0  1  0  0  0  0  0999 V2000
  186.1010  176.5130  144.6730 C   0  0  0  0  0  2  0  0  0  0  0  0
  189.8380  174.6150  141.4350 C   0  0  0  0  0  0  0  0  0  0  0  0
  193.2960  173.3490  144.5940 O   0  0  0  0  0  0  0  0  0  0  0  0
  192.8320  172.0180  144.5890 C   0  0  0  0  0  2  0  0  0  0  0  0
  189.6010  173.1660  139.3350 C   0  0  0  0  0  0  0  0  0  0  0  0
  189.9870  172.0150  138.6420 C   0  0  0  0  0  0  0  0  0  0  0  0
  188.0880  176.1470  142.3630 C   0  0  2  0  0  3  0  0  0  0  0  0
  190.3630  176.2520  143.3360 C   0  0  0  0  0  2  0  0  0  0  0  0
  191.1800  170.0990  138.2510 N   0  0  0  0  0  0  0  0  0  0  0  0
  188.5160  177.3550  144.5320 C   0  0  0  0  0  2  0  0  0  0  0  0
  192.1690  174.1980  144.4910 C   0  0  0  0  0  2  0  0  0  0  0  0
  190.8440  175.0770  142.4710 C   0  0  1  0  0  3  0  0  0  0  0  0
  191.2610  173.8580  143.2870 C   0  0  1  0  0  3  0  0  0  0  0  0
  191.1960  172.5330  141.1040 C   0  0  0  0  0  0  0  0  0  0  0  0
  190.3320  170.2430  137.0750 C   0  0  0  0  0  3  0  0  0  0  0  0
  186.0510  176.9780  143.3550 O   0  0  0  0  0  0  0  0  0  0  0  0
  188.8840  176.1450  143.6780 C   0  0  1  0  0  3  0  0  0  0  0  0
  189.5140  171.5320  137.3080 C   0  0  0  0  0  3  0  0  0  0  0  0
  186.5920  175.9350  142.5950 C   0  0  0  0  0  2  0  0  0  0  0  0
  187.2970  177.1090  145.4250 C   0  0  1  0  0  3  0  0  0  0  0  0
  192.3780  171.6120  143.1800 C   0  0  0  0  0  2  0  0  0  0  0  0
  191.9650  172.8490  142.3710 C   0  0  2  0  0  3  0  0  0  0  0  0
  191.5700  171.4070  140.3490 C   0  0  0  0  0  3  0  0  0  0  0  0
  188.5730  175.0620  141.4500 C   0  0  0  0  0  3  0  0  0  0  0  0
  188.6180  174.0950  138.6970 C   0  0  0  0  0  1  0  0  0  0  0  0
  192.1350  169.0250  138.4560 C   0  0  0  0  0  1  0  0  0  0  0  0
  190.2070  173.4350  140.5990 C   0  0  0  0  0  0  0  0  0  0  0  0
  190.9330  171.1680  139.1370 C   0  0  0  0  0  0  0  0  0  0  0  0
  186.9130  178.3610  146.0600 N   0  0  0  0  0  2  0  0  0  0  0  0
  186.3160  178.4180  147.3570 C   0  0  0  0  0  0  0  0  0  0  0  0
  186.1210  177.3660  148.0210 O   0  0  0  0  0  0  0  0  0  0  0  0
  185.9440  179.6760  147.9050 N   0  0  0  0  0  1  0  0  0  0  0  0
  1 20  1  0  0  0  0
  2 24  2  0  0  0  0
  2 12  1  0  0  0  0
  4  3  1  0  0  0  0
  5 27  1  0  0  0  0
  6 28  1  0  0  0  0
  6  5  2  0  0  0  0
  7 24  1  6  0  0  0
  7 19  1  0  0  0  0
  7 17  1  0  0  0  0
  9 26  1  0  0  0  0
  9 28  1  0  0  0  0
 10 20  1  0  0  0  0
 11  3  1  0  0  0  0
 12 13  1  0  0  0  0
 12  8  1  1  0  0  0
 13 11  1  1  0  0  0
 14 22  1  0  0  0  0
 15 18  2  0  0  0  0
 15  9  1  0  0  0  0
 16  1  1  0  0  0  0
 17  8  1  6  0  0  0
 17 10  1  0  0  0  0
 18  6  1  0  0  0  0
 19 16  1  0  0  0  0
 20 29  1  6  0  0  0
 21  4  1  0  0  0  0
 22 21  1  1  0  0  0
 22 13  1  0  0  0  0
 23 14  1  0  0  0  0
 25  5  1  0  0  0  0
 27 14  2  0  0  0  0
 27  2  1  0  0  0  0
 28 23  2  0  0  0  0
 29 30  1  0  0  0  0
 30 32  1  0  0  0  0
 30 31  2  0  0  0  0
M  END
>  <MODEL>
6

>  <REMARK>
 VINA RESULT:      -6.9      3.080      5.616
  Name = 
  1 active torsions:
  status: ('A' for Active; 'I' for Inactive)
    1  A    between atoms: C_20  and  N_29
                            x       y       z     vdW  Elec       q    Type
                         _______ _______ _______ _____ _____    ______ ____

>  <TORSDO>
F 1

$$$$
=
 OpenBabel11112416373D

 32 37  0  0  1  0  0  0  0  0999 V2000
  188.7630  177.9160  144.3730 C   0  0  0  0  0  2  0  0  0  0  0  0
  192.5040  174.8300  142.2430 C   0  0  0  0  0  0  0  0  0  0  0  0
  189.8790  172.0710  139.2380 O   0  0  0  0  0  0  0  0  0  0  0  0
  190.1870  172.9260  138.1610 C   0  0  0  0  0  2  0  0  0  0  0  0
  194.8810  175.4220  141.4920 C   0  0  0  0  0  0  0  0  0  0  0  0
  195.8460  175.3880  140.4810 C   0  0  0  0  0  0  0  0  0  0  0  0
  191.1670  176.0510  143.9740 C   0  0  2  0  0  3  0  0  0  0  0  0
  190.2850  173.8980  143.1250 C   0  0  0  0  0  2  0  0  0  0  0  0
  196.7330  174.8370  138.4430 N   0  0  0  0  0  0  0  0  0  0  0  0
  188.7890  175.3560  144.4270 C   0  0  0  0  0  2  0  0  0  0  0  0
  189.7300  172.8710  140.3950 C   0  0  0  0  0  2  0  0  0  0  0  0
  191.4260  173.7740  142.1040 C   0  0  1  0  0  3  0  0  0  0  0  0
  190.9450  173.7900  140.6560 C   0  0  1  0  0  3  0  0  0  0  0  0
  193.3790  174.1770  139.9860 C   0  0  0  0  0  0  0  0  0  0  0  0
  197.8060  175.5490  139.1230 C   0  0  0  0  0  3  0  0  0  0  0  0
  189.9270  177.7660  145.1340 O   0  0  0  0  0  0  0  0  0  0  0  0
  189.9230  175.3500  143.4060 C   0  0  1  0  0  3  0  0  0  0  0  0
  197.2380  175.9330  140.5070 C   0  0  0  0  0  3  0  0  0  0  0  0
  190.9370  177.5460  144.1900 C   0  0  0  0  0  2  0  0  0  0  0  0
  187.9360  176.6250  144.3660 C   0  0  1  0  0  3  0  0  0  0  0  0
  191.6340  173.4270  138.2700 C   0  0  0  0  0  2  0  0  0  0  0  0
  192.1040  173.4000  139.7300 C   0  0  2  0  0  3  0  0  0  0  0  0
  194.3980  174.1440  139.0160 C   0  0  0  0  0  3  0  0  0  0  0  0
  192.3330  175.8930  143.0450 C   0  0  0  0  0  3  0  0  0  0  0  0
  195.2380  176.0400  142.8070 C   0  0  0  0  0  1  0  0  0  0  0  0
  196.8300  174.2740  137.1080 C   0  0  0  0  0  1  0  0  0  0  0  0
  193.6140  174.8150  141.2450 C   0  0  0  0  0  0  0  0  0  0  0  0
  195.6060  174.7740  139.2880 C   0  0  0  0  0  0  0  0  0  0  0  0
  187.0030  176.6250  145.4830 N   0  0  0  0  0  2  0  0  0  0  0  0
  185.6640  177.1100  145.3720 C   0  0  0  0  0  0  0  0  0  0  0  0
  185.2260  177.5410  144.2720 O   0  0  0  0  0  0  0  0  0  0  0  0
  184.8160  177.1020  146.5130 N   0  0  0  0  0  1  0  0  0  0  0  0
  1 16  1  0  0  0  0
  2 24  2  0  0  0  0
  3 11  1  0  0  0  0
  4 21  1  0  0  0  0
  4  3  1  0  0  0  0
  5 25  1  0  0  0  0
  6 18  1  0  0  0  0
  6  5  2  0  0  0  0
  7 24  1  6  0  0  0
  7 19  1  0  0  0  0
  9 15  1  0  0  0  0
  9 28  1  0  0  0  0
 12  2  1  0  0  0  0
 12  8  1  1  0  0  0
 13 11  1  1  0  0  0
 13 12  1  0  0  0  0
 14 27  2  0  0  0  0
 15 18  2  0  0  0  0
 17  8  1  1  0  0  0
 17  7  1  0  0  0  0
 17 10  1  0  0  0  0
 19 16  1  0  0  0  0
 20  1  1  0  0  0  0
 20 10  1  0  0  0  0
 20 29  1  1  0  0  0
 22 21  1  6  0  0  0
 22 14  1  0  0  0  0
 22 13  1  0  0  0  0
 23 28  2  0  0  0  0
 23 14  1  0  0  0  0
 26  9  1  0  0  0  0
 27  5  1  0  0  0  0
 27  2  1  0  0  0  0
 28  6  1  0  0  0  0
 30 29  1  0  0  0  0
 30 32  1  0  0  0  0
 31 30  2  0  0  0  0
M  END
>  <MODEL>
7

>  <REMARK>
 VINA RESULT:      -6.9      2.588      3.674
  Name = 
  1 active torsions:
  status: ('A' for Active; 'I' for Inactive)
    1  A    between atoms: C_20  and  N_29
                            x       y       z     vdW  Elec       q    Type
                         _______ _______ _______ _____ _____    ______ ____

>  <TORSDO>
F 1

$$$$
=
 OpenBabel11112416373D

 32 37  0  0  1  0  0  0  0  0999 V2000
  194.3050  172.8340  145.4430 C   0  0  0  0  0  2  0  0  0  0  0  0
  190.5160  176.4820  144.8170 C   0  0  0  0  0  0  0  0  0  0  0  0
  188.4740  175.0440  140.6570 O   0  0  0  0  0  0  0  0  0  0  0  0
  187.4760  174.3500  141.3710 C   0  0  0  0  0  2  0  0  0  0  0  0
  188.9680  177.5490  146.5580 C   0  0  0  0  0  0  0  0  0  0  0  0
  187.6630  177.8690  146.9430 C   0  0  0  0  0  0  0  0  0  0  0  0
  192.7680  175.4850  145.2720 C   0  0  2  0  0  3  0  0  0  0  0  0
  192.0790  175.7760  142.9120 C   0  0  0  0  0  2  0  0  0  0  0  0
  185.3900  178.0350  146.7240 N   0  0  0  0  0  0  0  0  0  0  0  0
  194.0310  174.3620  143.4050 C   0  0  0  0  0  2  0  0  0  0  0  0
  189.6850  174.9190  141.3790 C   0  0  0  0  0  2  0  0  0  0  0  0
  190.6840  176.2710  143.3250 C   0  0  1  0  0  3  0  0  0  0  0  0
  189.5570  175.3560  142.8560 C   0  0  1  0  0  3  0  0  0  0  0  0
  188.0350  176.6150  144.4770 C   0  0  0  0  0  0  0  0  0  0  0  0
  185.6740  178.6530  148.0120 C   0  0  0  0  0  3  0  0  0  0  0  0
  194.5220  174.0490  146.1010 O   0  0  0  0  0  0  0  0  0  0  0  0
  192.6540  174.7830  143.9100 C   0  0  1  0  0  3  0  0  0  0  0  0
  187.2050  178.5580  148.1880 C   0  0  0  0  0  3  0  0  0  0  0  0
  193.2380  174.5350  146.3730 C   0  0  0  0  0  2  0  0  0  0  0  0
  194.4660  172.9890  143.9260 C   0  0  1  0  0  3  0  0  0  0  0  0
  187.0660  175.1380  142.6240 C   0  0  0  0  0  2  0  0  0  0  0  0
  188.2090  176.0540  143.0800 C   0  0  2  0  0  3  0  0  0  0  0  0
  186.7470  176.9880  144.9000 C   0  0  0  0  0  3  0  0  0  0  0  0
  191.4440  176.0520  145.6860 C   0  0  0  0  0  3  0  0  0  0  0  0
  190.1010  177.9540  147.4460 C   0  0  0  0  0  1  0  0  0  0  0  0
  184.0660  177.9160  146.1380 C   0  0  0  0  0  1  0  0  0  0  0  0
  189.1680  176.8990  145.3030 C   0  0  0  0  0  0  0  0  0  0  0  0
  186.5960  177.5920  146.1420 C   0  0  0  0  0  0  0  0  0  0  0  0
  195.8510  172.7550  143.5460 N   0  0  0  0  0  2  0  0  0  0  0  0
  196.3360  171.4700  143.1480 C   0  0  0  0  0  0  0  0  0  0  0  0
  195.5590  170.4810  143.0870 O   0  0  0  0  0  0  0  0  0  0  0  0
  197.7090  171.3090  142.8140 N   0  0  0  0  0  1  0  0  0  0  0  0
  1 16  1  0  0  0  0
  2 27  1  0  0  0  0
  2 24  2  0  0  0  0
  3  4  1  0  0  0  0
  3 11  1  0  0  0  0
  4 21  1  0  0  0  0
  5  6  1  0  0  0  0
  5 25  1  0  0  0  0
  6 18  1  0  0  0  0
  7 24  1  1  0  0  0
  7 19  1  0  0  0  0
  9 15  1  0  0  0  0
 10 17  1  0  0  0  0
 10 20  1  0  0  0  0
 12  8  1  1  0  0  0
 12  2  1  0  0  0  0
 13 11  1  6  0  0  0
 13 22  1  0  0  0  0
 13 12  1  0  0  0  0
 14 23  2  0  0  0  0
 14 27  1  0  0  0  0
 15 18  2  0  0  0  0
 16 19  1  0  0  0  0
 17  8  1  6  0  0  0
 17  7  1  0  0  0  0
 20 29  1  1  0  0  0
 20  1  1  0  0  0  0
 22 21  1  1  0  0  0
 22 14  1  0  0  0  0
 23 28  1  0  0  0  0
 26  9  1  0  0  0  0
 27  5  2  0  0  0  0
 28  9  1  0  0  0  0
 28  6  2  0  0  0  0
 30 29  1  0  0  0  0
 31 30  2  0  0  0  0
 32 30  1  0  0  0  0
M  END
>  <MODEL>
8

>  <REMARK>
 VINA RESULT:      -6.8      2.866      8.334
  Name = 
  1 active torsions:
  status: ('A' for Active; 'I' for Inactive)
    1  A    between atoms: C_20  and  N_29
                            x       y       z     vdW  Elec       q    Type
                         _______ _______ _______ _____ _____    ______ ____

>  <TORSDO>
F 1

$$$$
=
 OpenBabel11112416373D

 32 37  0  0  1  0  0  0  0  0999 V2000
  186.9750  176.1380  143.7060 C   0  0  0  0  0  2  0  0  0  0  0  0
  191.9030  174.6960  142.4060 C   0  0  0  0  0  0  0  0  0  0  0  0
  194.5160  177.1400  145.6830 O   0  0  0  0  0  0  0  0  0  0  0  0
  194.5660  176.0020  146.5130 C   0  0  0  0  0  2  0  0  0  0  0  0
  192.8020  172.4090  141.6820 C   0  0  0  0  0  0  0  0  0  0  0  0
  193.7460  171.3940  141.8690 C   0  0  0  0  0  0  0  0  0  0  0  0
  189.5420  175.4910  142.1530 C   0  0  2  0  0  3  0  0  0  0  0  0
  191.2550  177.1340  142.8590 C   0  0  0  0  0  2  0  0  0  0  0  0
  195.5880  170.3820  142.7780 N   0  0  0  0  0  0  0  0  0  0  0  0
  188.8780  177.7360  143.0830 C   0  0  0  0  0  2  0  0  0  0  0  0
  193.2460  177.1660  145.0620 C   0  0  0  0  0  2  0  0  0  0  0  0
  192.3410  176.0500  142.9280 C   0  0  1  0  0  3  0  0  0  0  0  0
  192.9010  175.8470  144.3330 C   0  0  1  0  0  3  0  0  0  0  0  0
  193.9340  173.6760  143.4670 C   0  0  0  0  0  0  0  0  0  0  0  0
  195.1210  169.4420  141.7670 C   0  0  0  0  0  3  0  0  0  0  0  0
  187.1500  175.7030  142.3880 O   0  0  0  0  0  0  0  0  0  0  0  0
  189.8730  176.5830  143.1820 C   0  0  1  0  0  3  0  0  0  0  0  0
  193.8760  170.1000  141.1320 C   0  0  0  0  0  3  0  0  0  0  0  0
  188.2140  174.7970  142.4560 C   0  0  0  0  0  2  0  0  0  0  0  0
  187.6190  177.5130  143.9240 C   0  0  1  0  0  3  0  0  0  0  0  0
  194.7090  174.7280  145.6680 C   0  0  0  0  0  2  0  0  0  0  0  0
  194.1450  174.9500  144.2600 C   0  0  2  0  0  3  0  0  0  0  0  0
  194.8760  172.6390  143.5900 C   0  0  0  0  0  3  0  0  0  0  0  0
  190.6150  174.4450  142.1280 C   0  0  0  0  0  3  0  0  0  0  0  0
  191.7860  172.2550  140.5950 C   0  0  0  0  0  1  0  0  0  0  0  0
  196.7540  170.1800  143.6190 C   0  0  0  0  0  1  0  0  0  0  0  0
  192.8840  173.5750  142.5000 C   0  0  0  0  0  0  0  0  0  0  0  0
  194.7400  171.5090  142.7940 C   0  0  0  0  0  0  0  0  0  0  0  0
  186.6580  178.5650  143.6280 N   0  0  0  0  0  2  0  0  0  0  0  0
  185.8290  179.1590  144.6290 C   0  0  0  0  0  0  0  0  0  0  0  0
  185.9220  178.8020  145.8340 O   0  0  0  0  0  0  0  0  0  0  0  0
  184.8950  180.1660  144.2630 N   0  0  0  0  0  1  0  0  0  0  0  0
  1 20  1  0  0  0  0
  2 27  1  0  0  0  0
  2 12  1  0  0  0  0
  3  4  1  0  0  0  0
  5  6  2  0  0  0  0
  5 27  1  0  0  0  0
  6 28  1  0  0  0  0
  7 24  1  1  0  0  0
  7 19  1  0  0  0  0
  7 17  1  0  0  0  0
  9 28  1  0  0  0  0
  9 26  1  0  0  0  0
 10 17  1  0  0  0  0
 10 20  1  0  0  0  0
 11  3  1  0  0  0  0
 12  8  1  1  0  0  0
 12 13  1  0  0  0  0
 13 11  1  6  0  0  0
 14 23  1  0  0  0  0
 14 22  1  0  0  0  0
 15  9  1  0  0  0  0
 16 19  1  0  0  0  0
 16  1  1  0  0  0  0
 17  8  1  6  0  0  0
 18 15  2  0  0  0  0
 18  6  1  0  0  0  0
 20 29  1  6  0  0  0
 21  4  1  0  0  0  0
 22 13  1  0  0  0  0
 22 21  1  1  0  0  0
 24  2  2  0  0  0  0
 25  5  1  0  0  0  0
 27 14  2  0  0  0  0
 28 23  2  0  0  0  0
 29 30  1  0  0  0  0
 30 31  2  0  0  0  0
 32 30  1  0  0  0  0
M  END
>  <MODEL>
9

>  <REMARK>
 VINA RESULT:      -6.8      2.540      4.479
  Name = 
  1 active torsions:
  status: ('A' for Active; 'I' for Inactive)
    1  A    between atoms: C_20  and  N_29
                            x       y       z     vdW  Elec       q    Type
                         _______ _______ _______ _____ _____    ______ ____

>  <TORSDO>
F 1

$$$$
