=
 OpenBabel11112416173D

 30 34  0  0  1  0  0  0  0  0999 V2000
  187.8110  176.7820  145.5760 N   0  0  0  0  0  0  0  0  0  0  0  0
  185.7240  177.4350  146.8110 C   0  0  0  0  0  0  0  0  0  0  0  0
  186.3020  178.3960  141.9650 C   0  0  0  0  0  2  0  0  0  0  0  0
  188.3450  176.3500  144.2660 C   0  0  2  0  0  3  0  0  0  0  0  0
  188.5870  176.5380  146.7940 C   0  0  0  0  0  2  0  0  0  0  0  0
  191.9490  176.8730  145.1820 O   0  0  0  0  0  1  0  0  0  0  0  0
  190.5600  177.0190  145.2370 C   0  0  2  0  0  3  0  0  0  0  0  0
  187.4430  178.0830  141.0100 C   0  0  2  0  0  3  0  0  0  0  0  0
  190.0150  177.0880  146.6800 C   0  0  2  0  0  3  0  0  0  0  0  0
  189.8390  175.9980  144.3450 C   0  0  1  0  0  3  0  0  0  0  0  0
  184.4820  178.0780  146.8130 C   0  0  0  0  0  3  0  0  0  0  0  0
  186.1380  176.8030  147.9770 O   0  0  0  0  0  1  0  0  0  0  0  0
  186.8010  178.0220  143.2750 N   0  0  0  0  0  0  0  0  0  0  0  0
  184.0060  178.7000  145.6600 C   0  0  0  0  0  3  0  0  0  0  0  0
  186.5150  177.4230  145.6370 C   0  0  0  0  0  0  0  0  0  0  0  0
  188.1360  177.4540  143.2150 C   0  0  2  0  0  3  0  0  0  0  0  0
  186.9560  177.6030  139.7920 O   0  0  0  0  0  1  0  0  0  0  0  0
  188.3360  177.0680  141.7410 C   0  0  1  0  0  3  0  0  0  0  0  0
  184.7690  178.6830  144.4940 C   0  0  0  0  0  3  0  0  0  0  0  0
  186.0180  178.0490  144.4760 C   0  0  0  0  0  0  0  0  0  0  0  0
  187.1400  175.0280  142.3830 O   0  0  0  0  0  0  0  0  0  0  0  0
  187.9400  175.6160  141.3880 C   0  0  0  0  0  3  0  0  0  0  0  0
  189.0690  174.8320  141.1280 O   0  0  0  0  0  0  0  0  0  0  0  0
  187.4560  173.6730  142.3260 C   0  0  0  0  0  2  0  0  0  0  0  0
  188.6520  173.5400  141.4270 C   0  0  0  0  0  2  0  0  0  0  0  0
  191.1080  173.8680  144.0270 C   0  0  0  0  0  1  0  0  0  0  0  0
  190.0200  174.5610  144.8250 C   0  0  0  0  0  2  0  0  0  0  0  0
  190.9150  176.3640  147.6790 C   0  0  0  0  0  2  0  0  0  0  0  0
  190.6580  178.4080  148.8850 O   0  0  0  0  0  1  0  0  0  0  0  0
  191.5240  177.3350  148.6770 C   0  0  0  0  0  2  0  0  0  0  0  0
  1 15  1  0  0  0  0
  1  5  1  0  0  0  0
  2 11  1  0  0  0  0
  2 12  1  0  0  0  0
  3 13  1  0  0  0  0
  4 10  1  0  0  0  0
  4  1  1  1  0  0  0
  7  6  1  1  0  0  0
  7  9  1  0  0  0  0
  8 17  1  6  0  0  0
  8 18  1  0  0  0  0
  8  3  1  0  0  0  0
  9  5  1  0  0  0  0
  9 28  1  1  0  0  0
 10 27  1  1  0  0  0
 10  7  1  0  0  0  0
 13 20  1  0  0  0  0
 14 11  2  0  0  0  0
 15  2  2  0  0  0  0
 16 13  1  6  0  0  0
 16  4  1  0  0  0  0
 18 22  1  1  0  0  0
 18 16  1  0  0  0  0
 19 14  1  0  0  0  0
 20 19  2  0  0  0  0
 20 15  1  0  0  0  0
 22 21  1  0  0  0  0
 23 22  1  0  0  0  0
 23 25  1  0  0  0  0
 24 21  1  0  0  0  0
 25 24  1  0  0  0  0
 26 27  1  0  0  0  0
 28 30  1  0  0  0  0
 30 29  1  0  0  0  0
M  END
>  <MODEL>
1

>  <REMARK>
 VINA RESULT:      -8.0      0.000      0.000
  Name = 
  4 active torsions:
  status: ('A' for Active; 'I' for Inactive)
    1  A    between atoms: C_9  and  C_22
    2  A    between atoms: C_11  and  C_28
    3  A    between atoms: C_12  and  C_27
    4  A    between atoms: C_28  and  C_30
                            x       y       z     vdW  Elec       q    Type
                         _______ _______ _______ _____ _____    ______ ____

>  <TORSDO>
F 4

$$$$
=
 OpenBabel11112416173D

 30 34  0  0  1  0  0  0  0  0999 V2000
  188.5210  175.6170  142.7390 N   0  0  0  0  0  0  0  0  0  0  0  0
  186.8610  177.4900  142.5210 C   0  0  0  0  0  0  0  0  0  0  0  0
  188.9500  176.3430  146.8880 C   0  0  0  0  0  2  0  0  0  0  0  0
  189.7180  175.1530  143.4740 C   0  0  2  0  0  3  0  0  0  0  0  0
  188.1920  175.0280  141.4380 C   0  0  0  0  0  2  0  0  0  0  0  0
  189.5450  171.6230  142.2050 O   0  0  0  0  0  1  0  0  0  0  0  0
  189.1040  172.9060  142.5410 C   0  0  2  0  0  3  0  0  0  0  0  0
  189.9800  175.2890  147.2600 C   0  0  2  0  0  3  0  0  0  0  0  0
  188.1190  173.4970  141.5080 C   0  0  2  0  0  3  0  0  0  0  0  0
  190.2690  173.8400  142.8970 C   0  0  1  0  0  3  0  0  0  0  0  0
  186.0840  178.4810  143.1280 C   0  0  0  0  0  3  0  0  0  0  0  0
  186.7960  177.3580  141.1390 O   0  0  0  0  0  1  0  0  0  0  0  0
  188.6150  176.0630  145.5030 N   0  0  0  0  0  0  0  0  0  0  0  0
  186.1370  178.6760  144.5070 C   0  0  0  0  0  3  0  0  0  0  0  0
  187.7000  176.6640  143.3080 C   0  0  0  0  0  0  0  0  0  0  0  0
  189.3840  174.9560  144.9630 C   0  0  2  0  0  3  0  0  0  0  0  0
  190.9470  175.8170  148.1180 O   0  0  0  0  0  1  0  0  0  0  0  0
  190.5670  174.7860  145.9310 C   0  0  1  0  0  3  0  0  0  0  0  0
  186.9700  177.8790  145.2910 C   0  0  0  0  0  3  0  0  0  0  0  0
  187.7510  176.8770  144.7010 C   0  0  0  0  0  0  0  0  0  0  0  0
  191.5590  176.6580  144.6990 O   0  0  0  0  0  0  0  0  0  0  0  0
  191.8400  175.5730  145.5480 C   0  0  0  0  0  3  0  0  0  0  0  0
  192.8040  174.7320  144.9790 O   0  0  0  0  0  0  0  0  0  0  0  0
  192.7020  176.7910  143.9150 C   0  0  0  0  0  2  0  0  0  0  0  0
  193.5560  175.5830  144.1780 C   0  0  0  0  0  2  0  0  0  0  0  0
  192.3910  173.2070  141.7360 C   0  0  0  0  0  1  0  0  0  0  0  0
  191.1840  174.1250  141.7100 C   0  0  0  0  0  2  0  0  0  0  0  0
  188.3250  172.9200  140.1090 C   0  0  0  0  0  2  0  0  0  0  0  0
  189.7680  173.7910  138.4170 O   0  0  0  0  0  1  0  0  0  0  0  0
  188.5660  174.0210  139.0890 C   0  0  0  0  0  2  0  0  0  0  0  0
  1 15  1  0  0  0  0
  2 11  2  0  0  0  0
  2 15  1  0  0  0  0
  3  8  1  0  0  0  0
  4  1  1  6  0  0  0
  4 16  1  0  0  0  0
  5  9  1  0  0  0  0
  5  1  1  0  0  0  0
  7  6  1  6  0  0  0
  7 10  1  0  0  0  0
  8 17  1  1  0  0  0
  9 28  1  6  0  0  0
  9  7  1  0  0  0  0
 10 27  1  6  0  0  0
 10  4  1  0  0  0  0
 11 14  1  0  0  0  0
 12  2  1  0  0  0  0
 13  3  1  0  0  0  0
 14 19  2  0  0  0  0
 15 20  2  0  0  0  0
 16 13  1  1  0  0  0
 16 18  1  0  0  0  0
 18 22  1  6  0  0  0
 18  8  1  0  0  0  0
 20 19  1  0  0  0  0
 20 13  1  0  0  0  0
 21 22  1  0  0  0  0
 23 22  1  0  0  0  0
 24 25  1  0  0  0  0
 24 21  1  0  0  0  0
 25 23  1  0  0  0  0
 27 26  1  0  0  0  0
 29 30  1  0  0  0  0
 30 28  1  0  0  0  0
M  END
>  <MODEL>
2

>  <REMARK>
 VINA RESULT:      -7.1      1.938      5.777
  Name = 
  4 active torsions:
  status: ('A' for Active; 'I' for Inactive)
    1  A    between atoms: C_9  and  C_22
    2  A    between atoms: C_11  and  C_28
    3  A    between atoms: C_12  and  C_27
    4  A    between atoms: C_28  and  C_30
                            x       y       z     vdW  Elec       q    Type
                         _______ _______ _______ _____ _____    ______ ____

>  <TORSDO>
F 4

$$$$
=
 OpenBabel11112416173D

 30 34  0  0  1  0  0  0  0  0999 V2000
  191.5120  175.7390  144.3800 N   0  0  0  0  0  0  0  0  0  0  0  0
  193.8340  176.1310  143.5060 C   0  0  0  0  0  0  0  0  0  0  0  0
  190.4030  173.7280  140.8240 C   0  0  0  0  0  2  0  0  0  0  0  0
  190.0910  175.6020  143.9940 C   0  0  2  0  0  3  0  0  0  0  0  0
  191.8610  176.0610  145.7670 C   0  0  0  0  0  2  0  0  0  0  0  0
  188.9630  174.2720  147.3190 O   0  0  0  0  0  1  0  0  0  0  0  0
  189.8350  174.5810  146.2720 C   0  0  2  0  0  3  0  0  0  0  0  0
  188.9500  173.3960  141.1220 C   0  0  2  0  0  3  0  0  0  0  0  0
  191.2100  175.0890  146.7590 C   0  0  2  0  0  3  0  0  0  0  0  0
  189.1730  175.4840  145.2200 C   0  0  1  0  0  3  0  0  0  0  0  0
  194.7890  175.9290  142.5060 C   0  0  0  0  0  3  0  0  0  0  0  0
  194.1870  176.9040  144.6060 O   0  0  0  0  0  1  0  0  0  0  0  0
  190.9190  174.2800  142.0620 N   0  0  0  0  0  0  0  0  0  0  0  0
  194.4760  175.1890  141.3670 C   0  0  0  0  0  3  0  0  0  0  0  0
  192.5400  175.5710  143.3760 C   0  0  0  0  0  0  0  0  0  0  0  0
  189.9000  174.3690  143.0940 C   0  0  2  0  0  3  0  0  0  0  0  0
  188.1440  173.6420  140.0080 O   0  0  0  0  0  1  0  0  0  0  0  0
  188.5650  174.2480  142.3420 C   0  0  1  0  0  3  0  0  0  0  0  0
  193.2020  174.6440  141.2210 C   0  0  0  0  0  3  0  0  0  0  0  0
  192.2330  174.8310  142.2160 C   0  0  0  0  0  0  0  0  0  0  0  0
  188.8790  176.6330  141.8770 O   0  0  0  0  0  0  0  0  0  0  0  0
  187.9360  175.5920  141.9110 C   0  0  0  0  0  3  0  0  0  0  0  0
  186.8510  175.9280  142.7290 O   0  0  0  0  0  0  0  0  0  0  0  0
  188.1470  177.7750  142.1900 C   0  0  0  0  0  2  0  0  0  0  0  0
  186.7930  177.3150  142.6480 C   0  0  0  0  0  2  0  0  0  0  0  0
  187.3730  176.9310  146.1770 C   0  0  0  0  0  1  0  0  0  0  0  0
  188.8290  176.8690  145.7610 C   0  0  0  0  0  2  0  0  0  0  0  0
  191.1340  175.7500  148.1340 C   0  0  0  0  0  2  0  0  0  0  0  0
  191.5810  177.7510  149.3570 O   0  0  0  0  0  1  0  0  0  0  0  0
  191.6900  177.1640  148.0960 C   0  0  0  0  0  2  0  0  0  0  0  0
  1  5  1  0  0  0  0
  2 12  1  0  0  0  0
  3  8  1  0  0  0  0
  3 13  1  0  0  0  0
  4  1  1  1  0  0  0
  4 10  1  0  0  0  0
  5  9  1  0  0  0  0
  7  9  1  0  0  0  0
  7  6  1  1  0  0  0
  8 17  1  6  0  0  0
  8 18  1  0  0  0  0
  9 28  1  1  0  0  0
 10 27  1  1  0  0  0
 10  7  1  0  0  0  0
 11  2  2  0  0  0  0
 13 20  1  0  0  0  0
 14 11  1  0  0  0  0
 15  2  1  0  0  0  0
 15  1  1  0  0  0  0
 16 13  1  6  0  0  0
 16  4  1  0  0  0  0
 18 22  1  6  0  0  0
 18 16  1  0  0  0  0
 19 14  2  0  0  0  0
 19 20  1  0  0  0  0
 20 15  2  0  0  0  0
 21 22  1  0  0  0  0
 21 24  1  0  0  0  0
 22 23  1  0  0  0  0
 24 25  1  0  0  0  0
 25 23  1  0  0  0  0
 27 26  1  0  0  0  0
 30 28  1  0  0  0  0
 30 29  1  0  0  0  0
M  END
>  <MODEL>
3

>  <REMARK>
 VINA RESULT:      -7.0      2.414      5.514
  Name = 
  4 active torsions:
  status: ('A' for Active; 'I' for Inactive)
    1  A    between atoms: C_9  and  C_22
    2  A    between atoms: C_11  and  C_28
    3  A    between atoms: C_12  and  C_27
    4  A    between atoms: C_28  and  C_30
                            x       y       z     vdW  Elec       q    Type
                         _______ _______ _______ _____ _____    ______ ____

>  <TORSDO>
F 4

$$$$
=
 OpenBabel11112416173D

 30 34  0  0  1  0  0  0  0  0999 V2000
  188.0130  175.8560  141.6640 N   0  0  0  0  0  0  0  0  0  0  0  0
  186.2970  177.2330  140.4540 C   0  0  0  0  0  0  0  0  0  0  0  0
  186.8480  177.4910  145.3910 C   0  0  0  0  0  2  0  0  0  0  0  0
  188.9260  175.8250  142.8280 C   0  0  2  0  0  3  0  0  0  0  0  0
  188.2480  174.9550  140.5320 C   0  0  0  0  0  2  0  0  0  0  0  0
  189.6970  172.1610  142.5570 O   0  0  0  0  0  1  0  0  0  0  0  0
  188.9940  173.3560  142.3860 C   0  0  2  0  0  3  0  0  0  0  0  0
  187.8150  176.7870  146.3300 C   0  0  2  0  0  3  0  0  0  0  0  0
  188.3660  173.4930  140.9810 C   0  0  2  0  0  3  0  0  0  0  0  0
  189.8190  174.5760  142.8220 C   0  0  1  0  0  3  0  0  0  0  0  0
  185.2280  178.1340  140.5050 C   0  0  0  0  0  3  0  0  0  0  0  0
  186.7420  176.8110  139.2070 O   0  0  0  0  0  1  0  0  0  0  0  0
  187.0640  176.8670  144.0990 N   0  0  0  0  0  0  0  0  0  0  0  0
  184.7640  178.6130  141.7280 C   0  0  0  0  0  3  0  0  0  0  0  0
  186.9100  176.7910  141.6520 C   0  0  0  0  0  0  0  0  0  0  0  0
  188.1190  175.8690  144.1380 C   0  0  2  0  0  3  0  0  0  0  0  0
  188.3340  177.6790  147.2710 O   0  0  0  0  0  1  0  0  0  0  0  0
  188.8950  176.1650  145.4310 C   0  0  1  0  0  3  0  0  0  0  0  0
  185.3680  178.1960  142.9130 C   0  0  0  0  0  3  0  0  0  0  0  0
  186.4360  177.2900  142.8820 C   0  0  0  0  0  0  0  0  0  0  0  0
  189.9780  177.9350  144.1290 O   0  0  0  0  0  0  0  0  0  0  0  0
  190.1020  177.1160  145.2640 C   0  0  0  0  0  3  0  0  0  0  0  0
  191.3070  176.4060  145.2380 O   0  0  0  0  0  0  0  0  0  0  0  0
  191.2900  178.1560  143.7160 C   0  0  0  0  0  2  0  0  0  0  0  0
  192.1610  177.2290  144.5140 C   0  0  0  0  0  2  0  0  0  0  0  0
  192.2810  174.2080  142.5890 C   0  0  0  0  0  1  0  0  0  0  0  0
  191.0460  174.8060  141.9440 C   0  0  0  0  0  2  0  0  0  0  0  0
  189.1290  172.7010  139.9220 C   0  0  0  0  0  2  0  0  0  0  0  0
  188.6230  173.0010  137.6070 O   0  0  0  0  0  1  0  0  0  0  0  0
  189.3550  173.5330  138.6700 C   0  0  0  0  0  2  0  0  0  0  0  0
  2 11  2  0  0  0  0
  2 15  1  0  0  0  0
  3  8  1  0  0  0  0
  4  1  1  6  0  0  0
  4 16  1  0  0  0  0
  5  9  1  0  0  0  0
  5  1  1  0  0  0  0
  7  6  1  6  0  0  0
  7 10  1  0  0  0  0
  8 17  1  1  0  0  0
  9 28  1  6  0  0  0
  9  7  1  0  0  0  0
 10 27  1  6  0  0  0
 10  4  1  0  0  0  0
 11 14  1  0  0  0  0
 12  2  1  0  0  0  0
 13  3  1  0  0  0  0
 14 19  2  0  0  0  0
 15  1  1  0  0  0  0
 15 20  2  0  0  0  0
 16 13  1  6  0  0  0
 16 18  1  0  0  0  0
 18 22  1  6  0  0  0
 18  8  1  0  0  0  0
 20 19  1  0  0  0  0
 20 13  1  0  0  0  0
 21 22  1  0  0  0  0
 23 22  1  0  0  0  0
 24 21  1  0  0  0  0
 24 25  1  0  0  0  0
 25 23  1  0  0  0  0
 27 26  1  0  0  0  0
 29 30  1  0  0  0  0
 30 28  1  0  0  0  0
M  END
>  <MODEL>
4

>  <REMARK>
 VINA RESULT:      -7.0      1.977      5.766
  Name = 
  4 active torsions:
  status: ('A' for Active; 'I' for Inactive)
    1  A    between atoms: C_9  and  C_22
    2  A    between atoms: C_11  and  C_28
    3  A    between atoms: C_12  and  C_27
    4  A    between atoms: C_28  and  C_30
                            x       y       z     vdW  Elec       q    Type
                         _______ _______ _______ _____ _____    ______ ____

>  <TORSDO>
F 4

$$$$
=
 OpenBabel11112416173D

 30 34  0  0  1  0  0  0  0  0999 V2000
  189.2420  175.9130  144.8810 N   0  0  0  0  0  0  0  0  0  0  0  0
  187.7570  176.2370  146.8800 C   0  0  0  0  0  0  0  0  0  0  0  0
  186.3870  177.7310  142.3370 C   0  0  0  0  0  2  0  0  0  0  0  0
  189.2550  175.6680  143.4220 C   0  0  2  0  0  3  0  0  0  0  0  0
  190.4370  175.6230  145.6780 C   0  0  0  0  0  2  0  0  0  0  0  0
  192.9040  176.4380  142.9840 O   0  0  0  0  0  1  0  0  0  0  0  0
  191.6370  176.4450  143.5720 C   0  0  2  0  0  3  0  0  0  0  0  0
  187.0900  177.6250  140.9940 C   0  0  2  0  0  3  0  0  0  0  0  0
  191.6830  176.3160  145.1100 C   0  0  2  0  0  3  0  0  0  0  0  0
  190.6810  175.4540  142.8910 C   0  0  1  0  0  3  0  0  0  0  0  0
  186.5800  176.7550  147.4290 C   0  0  0  0  0  3  0  0  0  0  0  0
  188.6170  175.5320  147.7140 O   0  0  0  0  0  1  0  0  0  0  0  0
  187.3680  177.2760  143.3060 N   0  0  0  0  0  0  0  0  0  0  0  0
  185.6680  177.4410  146.6290 C   0  0  0  0  0  3  0  0  0  0  0  0
  188.0380  176.4180  145.5040 C   0  0  0  0  0  0  0  0  0  0  0  0
  188.6050  176.8470  142.6780 C   0  0  2  0  0  3  0  0  0  0  0  0
  186.1980  177.2270  139.9950 O   0  0  0  0  0  1  0  0  0  0  0  0
  188.2450  176.6320  141.1990 C   0  0  1  0  0  3  0  0  0  0  0  0
  185.9270  177.6140  145.2710 C   0  0  0  0  0  3  0  0  0  0  0  0
  187.1040  177.1070  144.7050 C   0  0  0  0  0  0  0  0  0  0  0  0
  187.4590  174.4420  141.9700 O   0  0  0  0  0  0  0  0  0  0  0  0
  187.8170  175.1920  140.8360 C   0  0  0  0  0  3  0  0  0  0  0  0
  188.8110  174.5390  140.1000 O   0  0  0  0  0  0  0  0  0  0  0  0
  187.7970  173.1320  141.6410 C   0  0  0  0  0  2  0  0  0  0  0  0
  188.5920  173.1920  140.3680 C   0  0  0  0  0  2  0  0  0  0  0  0
  191.8390  173.4980  141.8500 C   0  0  0  0  0  1  0  0  0  0  0  0
  191.1040  174.0000  143.0770 C   0  0  0  0  0  2  0  0  0  0  0  0
  192.9310  175.5830  145.5970 C   0  0  0  0  0  2  0  0  0  0  0  0
  194.5020  177.3760  145.7490 O   0  0  0  0  0  1  0  0  0  0  0  0
  193.7670  176.4660  146.5100 C   0  0  0  0  0  2  0  0  0  0  0  0
  1 15  1  0  0  0  0
  1  5  1  0  0  0  0
  2 11  1  0  0  0  0
  2 12  1  0  0  0  0
  3 13  1  0  0  0  0
  4  1  1  1  0  0  0
  7  6  1  6  0  0  0
  7  9  1  0  0  0  0
  8 17  1  6  0  0  0
  8 18  1  0  0  0  0
  8  3  1  0  0  0  0
  9 28  1  6  0  0  0
  9  5  1  0  0  0  0
 10 27  1  1  0  0  0
 10  4  1  0  0  0  0
 10  7  1  0  0  0  0
 13 20  1  0  0  0  0
 14 11  2  0  0  0  0
 15  2  2  0  0  0  0
 16 13  1  1  0  0  0
 16  4  1  0  0  0  0
 18 22  1  1  0  0  0
 18 16  1  0  0  0  0
 19 14  1  0  0  0  0
 20 19  2  0  0  0  0
 20 15  1  0  0  0  0
 22 21  1  0  0  0  0
 23 25  1  0  0  0  0
 23 22  1  0  0  0  0
 24 21  1  0  0  0  0
 25 24  1  0  0  0  0
 26 27  1  0  0  0  0
 28 30  1  0  0  0  0
 29 30  1  0  0  0  0
M  END
>  <MODEL>
5

>  <REMARK>
 VINA RESULT:      -6.9      1.605      2.059
  Name = 
  4 active torsions:
  status: ('A' for Active; 'I' for Inactive)
    1  A    between atoms: C_9  and  C_22
    2  A    between atoms: C_11  and  C_28
    3  A    between atoms: C_12  and  C_27
    4  A    between atoms: C_28  and  C_30
                            x       y       z     vdW  Elec       q    Type
                         _______ _______ _______ _____ _____    ______ ____

>  <TORSDO>
F 4

$$$$
=
 OpenBabel11112416173D

 30 34  0  0  1  0  0  0  0  0999 V2000
  188.4690  175.2970  142.9480 N   0  0  0  0  0  0  0  0  0  0  0  0
  188.5900  173.2900  141.4430 C   0  0  0  0  0  0  0  0  0  0  0  0
  192.6770  175.7470  142.8600 C   0  0  0  0  0  2  0  0  0  0  0  0
  189.1770  176.0490  144.0080 C   0  0  2  0  0  3  0  0  0  0  0  0
  187.0270  175.4850  142.7630 C   0  0  0  0  0  2  0  0  0  0  0  0
  186.9710  179.0800  143.8030 O   0  0  0  0  0  1  0  0  0  0  0  0
  187.5960  177.8990  143.3950 C   0  0  2  0  0  3  0  0  0  0  0  0
  192.8570  176.9520  143.7690 C   0  0  2  0  0  3  0  0  0  0  0  0
  186.6620  176.9660  142.5930 C   0  0  2  0  0  3  0  0  0  0  0  0
  188.3260  177.2050  144.5550 C   0  0  1  0  0  3  0  0  0  0  0  0
  189.3560  172.4290  140.6510 C   0  0  0  0  0  3  0  0  0  0  0  0
  187.2280  173.0420  141.5560 O   0  0  0  0  0  1  0  0  0  0  0  0
  191.2410  175.6150  142.6980 N   0  0  0  0  0  0  0  0  0  0  0  0
  190.7320  172.6150  140.5300 C   0  0  0  0  0  3  0  0  0  0  0  0
  189.2080  174.3690  142.1210 C   0  0  0  0  0  0  0  0  0  0  0  0
  190.5060  176.6040  143.4680 C   0  0  2  0  0  3  0  0  0  0  0  0
  193.9320  176.7630  144.6410 O   0  0  0  0  0  1  0  0  0  0  0  0
  191.5170  177.1340  144.4980 C   0  0  1  0  0  3  0  0  0  0  0  0
  191.3540  173.6650  141.2030 C   0  0  0  0  0  3  0  0  0  0  0  0
  190.6020  174.5410  141.9970 C   0  0  0  0  0  0  0  0  0  0  0  0
  190.9150  175.1240  145.7650 O   0  0  0  0  0  0  0  0  0  0  0  0
  191.5120  176.3930  145.8550 C   0  0  0  0  0  3  0  0  0  0  0  0
  190.8990  177.1630  146.8500 O   0  0  0  0  0  0  0  0  0  0  0  0
  190.3520  174.9160  147.0210 C   0  0  0  0  0  2  0  0  0  0  0  0
  190.4350  176.2210  147.7600 C   0  0  0  0  0  2  0  0  0  0  0  0
  187.3350  177.6650  146.8030 C   0  0  0  0  0  1  0  0  0  0  0  0
  187.3750  176.6990  145.6350 C   0  0  0  0  0  2  0  0  0  0  0  0
  185.1910  177.1660  142.9510 C   0  0  0  0  0  2  0  0  0  0  0  0
  185.3190  178.1670  140.7860 O   0  0  0  0  0  1  0  0  0  0  0  0
  184.4550  177.9160  141.8520 C   0  0  0  0  0  2  0  0  0  0  0  0
  2 12  1  0  0  0  0
  2 15  1  0  0  0  0
  3  8  1  0  0  0  0
  4  1  1  6  0  0  0
  4 10  1  0  0  0  0
  5  1  1  0  0  0  0
  7  6  1  1  0  0  0
  7 10  1  0  0  0  0
  8 18  1  0  0  0  0
  8 17  1  1  0  0  0
  9  5  1  0  0  0  0
  9 28  1  1  0  0  0
  9  7  1  0  0  0  0
 10 27  1  1  0  0  0
 11  2  2  0  0  0  0
 13  3  1  0  0  0  0
 14 11  1  0  0  0  0
 14 19  2  0  0  0  0
 15  1  1  0  0  0  0
 16 13  1  1  0  0  0
 16  4  1  0  0  0  0
 16 18  1  0  0  0  0
 18 22  1  1  0  0  0
 19 20  1  0  0  0  0
 20 15  2  0  0  0  0
 20 13  1  0  0  0  0
 21 22  1  0  0  0  0
 21 24  1  0  0  0  0
 22 23  1  0  0  0  0
 23 25  1  0  0  0  0
 24 25  1  0  0  0  0
 27 26  1  0  0  0  0
 29 30  1  0  0  0  0
 30 28  1  0  0  0  0
M  END
>  <MODEL>
6

>  <REMARK>
 VINA RESULT:      -6.4      2.128      6.468
  Name = 
  4 active torsions:
  status: ('A' for Active; 'I' for Inactive)
    1  A    between atoms: C_9  and  C_22
    2  A    between atoms: C_11  and  C_28
    3  A    between atoms: C_12  and  C_27
    4  A    between atoms: C_28  and  C_30
                            x       y       z     vdW  Elec       q    Type
                         _______ _______ _______ _____ _____    ______ ____

>  <TORSDO>
F 4

$$$$
=
 OpenBabel11112416173D

 30 34  0  0  1  0  0  0  0  0999 V2000
  189.9840  174.9010  143.4760 N   0  0  0  0  0  0  0  0  0  0  0  0
  188.1280  176.3430  142.5890 C   0  0  0  0  0  0  0  0  0  0  0  0
  189.8700  176.8780  147.2180 C   0  0  0  0  0  2  0  0  0  0  0  0
  191.1450  174.8670  144.3920 C   0  0  2  0  0  3  0  0  0  0  0  0
  189.8740  173.9100  142.4020 C   0  0  0  0  0  2  0  0  0  0  0  0
  191.5660  171.1380  144.2640 O   0  0  0  0  0  1  0  0  0  0  0  0
  190.9300  172.3770  144.1600 C   0  0  2  0  0  3  0  0  0  0  0  0
  190.9820  176.1550  147.9600 C   0  0  2  0  0  3  0  0  0  0  0  0
  189.9930  172.4760  142.9360 C   0  0  2  0  0  3  0  0  0  0  0  0
  191.9200  173.5440  144.2830 C   0  0  1  0  0  3  0  0  0  0  0  0
  187.1700  177.3370  142.8110 C   0  0  0  0  0  3  0  0  0  0  0  0
  188.2290  175.8000  141.3130 O   0  0  0  0  0  1  0  0  0  0  0  0
  189.7240  176.1530  145.9690 N   0  0  0  0  0  0  0  0  0  0  0  0
  187.0500  177.9360  144.0630 C   0  0  0  0  0  3  0  0  0  0  0  0
  188.9790  175.9280  143.6430 C   0  0  0  0  0  0  0  0  0  0  0  0
  190.6830  175.0700  145.8450 C   0  0  2  0  0  3  0  0  0  0  0  0
  191.7750  177.0570  148.6720 O   0  0  0  0  0  1  0  0  0  0  0  0
  191.7670  175.3800  146.8900 C   0  0  1  0  0  3  0  0  0  0  0  0
  187.8900  177.5460  145.1050 C   0  0  0  0  0  3  0  0  0  0  0  0
  188.8520  176.5490  144.9020 C   0  0  0  0  0  0  0  0  0  0  0  0
  192.6930  176.7920  145.1140 O   0  0  0  0  0  0  0  0  0  0  0  0
  192.9620  176.2060  146.3630 C   0  0  0  0  0  3  0  0  0  0  0  0
  194.1280  175.4340  146.3110 O   0  0  0  0  0  0  0  0  0  0  0  0
  193.9340  176.8480  144.4830 C   0  0  0  0  0  2  0  0  0  0  0  0
  194.8880  176.0470  145.3210 C   0  0  0  0  0  2  0  0  0  0  0  0
  194.2440  173.0070  143.5350 C   0  0  0  0  0  1  0  0  0  0  0  0
  192.9120  173.6050  143.1260 C   0  0  0  0  0  2  0  0  0  0  0  0
  190.4200  171.5500  141.7990 C   0  0  0  0  0  2  0  0  0  0  0  0
  189.6910  171.7530  139.5330 O   0  0  0  0  0  1  0  0  0  0  0  0
  190.5440  172.3090  140.4870 C   0  0  0  0  0  2  0  0  0  0  0  0
  1 15  1  0  0  0  0
  2 11  2  0  0  0  0
  2 15  1  0  0  0  0
  3  8  1  0  0  0  0
  4  1  1  6  0  0  0
  4 16  1  0  0  0  0
  5  9  1  0  0  0  0
  5  1  1  0  0  0  0
  7  6  1  6  0  0  0
  7 10  1  0  0  0  0
  8 17  1  6  0  0  0
  9 28  1  6  0  0  0
  9  7  1  0  0  0  0
 10 27  1  6  0  0  0
 10  4  1  0  0  0  0
 11 14  1  0  0  0  0
 12  2  1  0  0  0  0
 13  3  1  0  0  0  0
 14 19  2  0  0  0  0
 15 20  2  0  0  0  0
 16 13  1  6  0  0  0
 16 18  1  0  0  0  0
 18 22  1  6  0  0  0
 18  8  1  0  0  0  0
 20 19  1  0  0  0  0
 20 13  1  0  0  0  0
 21 22  1  0  0  0  0
 23 22  1  0  0  0  0
 24 21  1  0  0  0  0
 24 25  1  0  0  0  0
 25 23  1  0  0  0  0
 27 26  1  0  0  0  0
 29 30  1  0  0  0  0
 30 28  1  0  0  0  0
M  END
>  <MODEL>
7

>  <REMARK>
 VINA RESULT:      -6.4      2.320      6.206
  Name = 
  4 active torsions:
  status: ('A' for Active; 'I' for Inactive)
    1  A    between atoms: C_9  and  C_22
    2  A    between atoms: C_11  and  C_28
    3  A    between atoms: C_12  and  C_27
    4  A    between atoms: C_28  and  C_30
                            x       y       z     vdW  Elec       q    Type
                         _______ _______ _______ _____ _____    ______ ____

>  <TORSDO>
F 4

$$$$
=
 OpenBabel11112416173D

 30 34  0  0  1  0  0  0  0  0999 V2000
  190.9650  175.7770  144.6650 N   0  0  0  0  0  0  0  0  0  0  0  0
  189.3860  176.7580  146.3540 C   0  0  0  0  0  0  0  0  0  0  0  0
  187.8190  175.2320  141.8860 C   0  0  0  0  0  2  0  0  0  0  0  0
  191.0870  174.8040  143.5580 C   0  0  2  0  0  3  0  0  0  0  0  0
  192.1690  176.2470  145.3570 C   0  0  0  0  0  2  0  0  0  0  0  0
  194.4250  176.0510  142.3760 O   0  0  0  0  0  1  0  0  0  0  0  0
  193.1810  176.0740  143.0120 C   0  0  2  0  0  3  0  0  0  0  0  0
  188.5660  174.5950  140.7260 C   0  0  2  0  0  3  0  0  0  0  0  0
  193.2120  176.7990  144.3750 C   0  0  2  0  0  3  0  0  0  0  0  0
  192.5350  174.6810  143.0610 C   0  0  1  0  0  3  0  0  0  0  0  0
  188.0990  177.1960  146.6800 C   0  0  0  0  0  3  0  0  0  0  0  0
  190.3720  176.8310  147.3310 O   0  0  0  0  0  1  0  0  0  0  0  0
  188.8530  175.6080  142.8330 N   0  0  0  0  0  0  0  0  0  0  0  0
  187.0660  177.1140  145.7480 C   0  0  0  0  0  3  0  0  0  0  0  0
  189.6530  176.2390  145.0640 C   0  0  0  0  0  0  0  0  0  0  0  0
  190.1780  175.2140  142.3870 C   0  0  2  0  0  3  0  0  0  0  0  0
  187.8390  173.5300  140.1900 O   0  0  0  0  0  1  0  0  0  0  0  0
  189.9310  174.1670  141.2890 C   0  0  1  0  0  3  0  0  0  0  0  0
  187.3140  176.5920  144.4800 C   0  0  0  0  0  3  0  0  0  0  0  0
  188.5980  176.1540  144.1330 C   0  0  0  0  0  0  0  0  0  0  0  0
  189.6420  172.6110  143.1600 O   0  0  0  0  0  0  0  0  0  0  0  0
  189.9000  172.7020  141.7810 C   0  0  0  0  0  3  0  0  0  0  0  0
  191.0830  172.0320  141.4500 O   0  0  0  0  0  0  0  0  0  0  0  0
  190.3170  171.4620  143.5630 C   0  0  0  0  0  2  0  0  0  0  0  0
  191.1780  171.0320  142.4100 C   0  0  0  0  0  2  0  0  0  0  0  0
  194.2510  172.8630  143.0790 C   0  0  0  0  0  1  0  0  0  0  0  0
  193.3130  173.6970  143.9290 C   0  0  0  0  0  2  0  0  0  0  0  0
  194.5910  176.7550  145.0290 C   0  0  0  0  0  2  0  0  0  0  0  0
  195.5110  174.9160  146.2430 O   0  0  0  0  0  1  0  0  0  0  0  0
  194.5660  175.9410  146.3120 C   0  0  0  0  0  2  0  0  0  0  0  0
  1 15  1  0  0  0  0
  1  5  1  0  0  0  0
  2 11  1  0  0  0  0
  2 12  1  0  0  0  0
  3 13  1  0  0  0  0
  4  1  1  1  0  0  0
  7  6  1  1  0  0  0
  7 10  1  0  0  0  0
  7  9  1  0  0  0  0
  8 17  1  1  0  0  0
  8 18  1  0  0  0  0
  8  3  1  0  0  0  0
  9 28  1  1  0  0  0
  9  5  1  0  0  0  0
 10  4  1  0  0  0  0
 10 27  1  1  0  0  0
 13 20  1  0  0  0  0
 14 11  2  0  0  0  0
 15  2  2  0  0  0  0
 16 13  1  1  0  0  0
 16  4  1  0  0  0  0
 18 22  1  1  0  0  0
 18 16  1  0  0  0  0
 19 14  1  0  0  0  0
 20 19  2  0  0  0  0
 20 15  1  0  0  0  0
 21 24  1  0  0  0  0
 22 21  1  0  0  0  0
 23 22  1  0  0  0  0
 23 25  1  0  0  0  0
 25 24  1  0  0  0  0
 26 27  1  0  0  0  0
 28 30  1  0  0  0  0
 29 30  1  0  0  0  0
M  END
>  <MODEL>
8

>  <REMARK>
 VINA RESULT:      -6.2      2.522      3.769
  Name = 
  4 active torsions:
  status: ('A' for Active; 'I' for Inactive)
    1  A    between atoms: C_9  and  C_22
    2  A    between atoms: C_11  and  C_28
    3  A    between atoms: C_12  and  C_27
    4  A    between atoms: C_28  and  C_30
                            x       y       z     vdW  Elec       q    Type
                         _______ _______ _______ _____ _____    ______ ____

>  <TORSDO>
F 4

$$$$
=
 OpenBabel11112416173D

 30 34  0  0  1  0  0  0  0  0999 V2000
  189.1890  176.4280  143.9710 N   0  0  0  0  0  0  0  0  0  0  0  0
  191.1000  176.5580  145.5960 C   0  0  0  0  0  0  0  0  0  0  0  0
  190.1980  172.4470  142.9440 C   0  0  0  0  0  2  0  0  0  0  0  0
  188.7360  175.8320  142.6950 C   0  0  2  0  0  3  0  0  0  0  0  0
  188.5180  177.6210  144.4950 C   0  0  0  0  0  2  0  0  0  0  0  0
  185.1320  176.7890  143.1360 O   0  0  0  0  0  1  0  0  0  0  0  0
  186.4510  176.4950  143.4920 C   0  0  2  0  0  3  0  0  0  0  0  0
  189.1370  172.1410  141.8990 C   0  0  2  0  0  3  0  0  0  0  0  0
  187.0000  177.4240  144.5970 C   0  0  2  0  0  3  0  0  0  0  0  0
  187.3650  176.3760  142.2640 C   0  0  1  0  0  3  0  0  0  0  0  0
  192.1600  175.9270  146.2530 C   0  0  0  0  0  3  0  0  0  0  0  0
  190.8700  177.9030  145.8580 O   0  0  0  0  0  1  0  0  0  0  0  0
  189.8310  173.7460  143.4770 N   0  0  0  0  0  0  0  0  0  0  0  0
  192.4530  174.5880  146.0010 C   0  0  0  0  0  3  0  0  0  0  0  0
  190.3040  175.8330  144.6760 C   0  0  0  0  0  0  0  0  0  0  0  0
  188.6600  174.3000  142.8200 C   0  0  2  0  0  3  0  0  0  0  0  0
  189.6920  171.4680  140.8080 O   0  0  0  0  0  1  0  0  0  0  0  0
  188.5180  173.4950  141.5180 C   0  0  1  0  0  3  0  0  0  0  0  0
  191.6860  173.8680  145.0880 C   0  0  0  0  0  3  0  0  0  0  0  0
  190.6150  174.4820  144.4240 C   0  0  0  0  0  0  0  0  0  0  0  0
  188.5420  173.8490  139.0930 O   0  0  0  0  0  0  0  0  0  0  0  0
  189.2290  174.1110  140.2910 C   0  0  0  0  0  3  0  0  0  0  0  0
  190.5580  173.6820  140.2080 O   0  0  0  0  0  0  0  0  0  0  0  0
  189.5420  173.7900  138.1260 C   0  0  0  0  0  2  0  0  0  0  0  0
  190.8550  173.7840  138.8540 C   0  0  0  0  0  2  0  0  0  0  0  0
  186.8440  177.6330  140.1670 C   0  0  0  0  0  1  0  0  0  0  0  0
  187.5300  177.6970  141.5180 C   0  0  0  0  0  2  0  0  0  0  0  0
  186.3150  178.7890  144.6050 C   0  0  0  0  0  2  0  0  0  0  0  0
  184.2040  178.7830  145.7220 O   0  0  0  0  0  1  0  0  0  0  0  0
  185.5670  179.0210  145.9080 C   0  0  0  0  0  2  0  0  0  0  0  0
  1  5  1  0  0  0  0
  1 15  1  0  0  0  0
  2 12  1  0  0  0  0
  2 11  1  0  0  0  0
  3 13  1  0  0  0  0
  4 16  1  0  0  0  0
  4  1  1  1  0  0  0
  5  9  1  0  0  0  0
  7  6  1  6  0  0  0
  7  9  1  0  0  0  0
  8 17  1  6  0  0  0
  8  3  1  0  0  0  0
  9 28  1  6  0  0  0
 10 27  1  1  0  0  0
 10  4  1  0  0  0  0
 10  7  1  0  0  0  0
 13 20  1  0  0  0  0
 14 11  2  0  0  0  0
 15  2  2  0  0  0  0
 16 13  1  6  0  0  0
 18 22  1  6  0  0  0
 18  8  1  0  0  0  0
 18 16  1  0  0  0  0
 19 14  1  0  0  0  0
 20 15  1  0  0  0  0
 20 19  2  0  0  0  0
 21 22  1  0  0  0  0
 23 22  1  0  0  0  0
 24 25  1  0  0  0  0
 24 21  1  0  0  0  0
 25 23  1  0  0  0  0
 26 27  1  0  0  0  0
 28 30  1  0  0  0  0
 29 30  1  0  0  0  0
M  END
>  <MODEL>
9

>  <REMARK>
 VINA RESULT:      -6.2      2.076      5.467
  Name = 
  4 active torsions:
  status: ('A' for Active; 'I' for Inactive)
    1  A    between atoms: C_9  and  C_22
    2  A    between atoms: C_11  and  C_28
    3  A    between atoms: C_12  and  C_27
    4  A    between atoms: C_28  and  C_30
                            x       y       z     vdW  Elec       q    Type
                         _______ _______ _______ _____ _____    ______ ____

>  <TORSDO>
F 4

$$$$
