=
 OpenBabel11112417223D

 37 42  0  0  1  0  0  0  0  0999 V2000
  186.8700  177.3010  143.4330 C   0  0  0  0  0  0  0  0  0  0  0  0
  190.6420  176.3280  145.1020 C   0  0  0  0  0  0  0  0  0  0  0  0
  193.1400  174.0880  142.9880 C   0  0  0  0  0  2  0  0  0  0  0  0
  188.4480  177.3050  145.4580 C   0  0  0  0  0  0  0  0  0  0  0  0
  191.4140  175.6880  143.9780 C   0  0  1  0  0  3  0  0  0  0  0  0
  189.4140  176.7280  144.6370 C   0  0  0  0  0  0  0  0  0  0  0  0
  192.3810  174.5060  144.2750 C   0  0  2  0  0  3  0  0  0  0  0  0
  188.7820  177.5610  146.7930 C   0  0  0  0  0  3  0  0  0  0  0  0
  189.2460  176.4750  143.1990 C   0  0  2  0  0  3  0  0  0  0  0  0
  187.1550  178.6150  142.7230 C   0  0  0  0  0  1  0  0  0  0  0  0
  192.3810  176.3870  146.9480 C   0  0  0  0  0  2  0  0  0  0  0  0
  190.0710  177.2520  147.2650 C   0  0  0  0  0  3  0  0  0  0  0  0
  187.7750  176.1860  142.8750 C   0  0  0  0  0  2  0  0  0  0  0  0
  191.6260  172.7750  141.9100 C   0  0  1  0  0  3  0  0  0  0  0  0
  192.3110  174.0020  141.8560 O   0  0  0  0  0  0  0  0  0  0  0  0
  191.0160  176.6380  146.4220 C   0  0  0  0  0  0  0  0  0  0  0  0
  190.2880  175.3790  142.9280 C   0  0  2  0  0  3  0  0  0  0  0  0
  187.0390  177.4930  144.9570 C   0  0  0  0  0  2  0  0  0  0  0  0
  193.4090  174.7620  145.4000 C   0  0  1  0  0  3  0  0  0  0  0  0
  185.4290  176.9250  143.1610 C   0  0  0  0  0  1  0  0  0  0  0  0
  190.5430  172.7530  143.0020 C   0  0  0  0  0  2  0  0  0  0  0  0
  189.6250  173.9810  143.0480 C   0  0  0  0  0  2  0  0  0  0  0  0
  192.7540  174.9370  146.7580 C   0  0  0  0  0  2  0  0  0  0  0  0
  195.7880  173.9990  145.5760 C   0  0  0  0  0  3  0  0  0  0  0  0
  194.4310  173.6650  145.5140 C   0  0  0  0  0  0  0  0  0  0  0  0
  194.0470  172.3150  145.5630 C   0  0  0  0  0  3  0  0  0  0  0  0
  194.6030  169.8850  145.7180 C   0  0  0  0  0  1  0  0  0  0  0  0
  196.3690  171.6530  145.7280 C   0  0  0  0  0  3  0  0  0  0  0  0
  195.0140  171.3130  145.6690 C   0  0  0  0  0  0  0  0  0  0  0  0
  196.7550  172.9950  145.6810 C   0  0  0  0  0  3  0  0  0  0  0  0
  191.0360  172.4550  140.5750 C   0  0  0  0  0  0  0  0  0  0  0  0
  190.6550  173.5230  139.7070 N   0  0  0  0  0  2  0  0  0  0  0  0
  190.8980  171.2550  140.2140 O   0  0  0  0  0  0  0  0  0  0  0  0
  191.0370  173.9000  137.3220 C   0  0  0  0  0  1  0  0  0  0  0  0
  190.1180  173.2980  138.3720 C   0  0  2  0  0  3  0  0  0  0  0  0
  188.3570  174.5320  139.4480 O   0  0  0  0  0  1  0  0  0  0  0  0
  188.7210  173.8930  138.2600 C   0  0  0  0  0  2  0  0  0  0  0  0
  1 18  1  0  0  0  0
  2 16  1  0  0  0  0
  4  8  2  0  0  0  0
  5  7  1  0  0  0  0
  5  2  1  1  0  0  0
  6  2  2  0  0  0  0
  6  4  1  0  0  0  0
  7  3  1  6  0  0  0
  7 19  1  0  0  0  0
  8 12  1  0  0  0  0
  9 13  1  1  0  0  0
  9  6  1  0  0  0  0
 10  1  1  0  0  0  0
 13  1  1  0  0  0  0
 14 31  1  6  0  0  0
 14 21  1  0  0  0  0
 15 14  1  0  0  0  0
 15  3  1  0  0  0  0
 16 11  1  0  0  0  0
 16 12  2  0  0  0  0
 17 22  1  1  0  0  0
 17  9  1  0  0  0  0
 17  5  1  0  0  0  0
 18  4  1  0  0  0  0
 19 25  1  1  0  0  0
 19 23  1  0  0  0  0
 20  1  1  0  0  0  0
 21 22  1  0  0  0  0
 23 11  1  0  0  0  0
 24 30  1  0  0  0  0
 25 26  1  0  0  0  0
 25 24  2  0  0  0  0
 26 29  2  0  0  0  0
 29 27  1  0  0  0  0
 29 28  1  0  0  0  0
 30 28  2  0  0  0  0
 32 31  1  0  0  0  0
 33 31  2  0  0  0  0
 35 34  1  6  0  0  0
 35 32  1  0  0  0  0
 37 35  1  0  0  0  0
 37 36  1  0  0  0  0
M  END
>  <MODEL>
1

>  <REMARK>
 VINA RESULT:      -8.8      0.000      0.000
  Name = 
  4 active torsions:
  status: ('A' for Active; 'I' for Inactive)
    1  A    between atoms: CA_4  and  N_12
    2  A    between atoms: CA_4  and  C_37
    3  A    between atoms: C_8  and  C_18
    4  A    between atoms: C_23  and  C_30
                            x       y       z     vdW  Elec       q    Type
                         _______ _______ _______ _____ _____    ______ ____

>  <TORSDO>
F 4

$$$$
=
 OpenBabel11112417223D

 37 42  0  0  1  0  0  0  0  0999 V2000
  195.0580  174.3360  143.3360 C   0  0  0  0  0  0  0  0  0  0  0  0
  191.7370  175.6470  145.6220 C   0  0  0  0  0  0  0  0  0  0  0  0
  188.0930  175.1760  144.1300 C   0  0  0  0  0  2  0  0  0  0  0  0
  194.1530  175.5980  145.3800 C   0  0  0  0  0  0  0  0  0  0  0  0
  190.5290  175.1190  144.8940 C   0  0  1  0  0  3  0  0  0  0  0  0
  192.8740  175.2240  144.9770 C   0  0  0  0  0  0  0  0  0  0  0  0
  189.2280  175.9690  144.8320 C   0  0  2  0  0  3  0  0  0  0  0  0
  194.2810  176.3700  146.5420 C   0  0  0  0  0  3  0  0  0  0  0  0
  192.5800  174.3490  143.8330 C   0  0  2  0  0  3  0  0  0  0  0  0
  195.2440  172.9070  143.8200 C   0  0  0  0  0  1  0  0  0  0  0  0
  190.6790  176.7170  147.6640 C   0  0  0  0  0  2  0  0  0  0  0  0
  193.1360  176.7290  147.2750 C   0  0  0  0  0  3  0  0  0  0  0  0
  193.6460  174.5180  142.7440 C   0  0  0  0  0  2  0  0  0  0  0  0
  188.5650  175.4640  141.9220 C   0  0  1  0  0  3  0  0  0  0  0  0
  188.5150  174.5180  142.9620 O   0  0  0  0  0  0  0  0  0  0  0  0
  191.8520  176.3660  146.8250 C   0  0  0  0  0  0  0  0  0  0  0  0
  191.1250  174.7120  143.5000 C   0  0  2  0  0  3  0  0  0  0  0  0
  195.3410  175.3140  144.4990 C   0  0  0  0  0  2  0  0  0  0  0  0
  188.7090  176.4810  146.1950 C   0  0  1  0  0  3  0  0  0  0  0  0
  196.0700  174.5960  142.2420 C   0  0  0  0  0  1  0  0  0  0  0  0
  189.7350  176.4490  142.0790 C   0  0  0  0  0  2  0  0  0  0  0  0
  191.0930  175.8150  142.4090 C   0  0  0  0  0  2  0  0  0  0  0  0
  189.6600  177.4700  146.8450 C   0  0  0  0  0  2  0  0  0  0  0  0
  186.3380  176.7280  146.9650 C   0  0  0  0  0  3  0  0  0  0  0  0
  187.3570  177.1320  146.0950 C   0  0  0  0  0  0  0  0  0  0  0  0
  187.1020  178.1380  145.1490 C   0  0  0  0  0  3  0  0  0  0  0  0
  185.5710  179.7900  144.0700 C   0  0  0  0  0  1  0  0  0  0  0  0
  184.8230  178.3180  145.9440 C   0  0  0  0  0  3  0  0  0  0  0  0
  185.8380  178.7280  145.0740 C   0  0  0  0  0  0  0  0  0  0  0  0
  185.0740  177.3190  146.8890 C   0  0  0  0  0  3  0  0  0  0  0  0
  188.6280  174.7730  140.6000 C   0  0  0  0  0  0  0  0  0  0  0  0
  189.4880  173.6420  140.4440 N   0  0  0  0  0  2  0  0  0  0  0  0
  187.9140  175.1720  139.6400 O   0  0  0  0  0  0  0  0  0  0  0  0
  189.9480  171.4400  139.4900 C   0  0  0  0  0  1  0  0  0  0  0  0
  189.5730  172.8840  139.2040 C   0  0  2  0  0  3  0  0  0  0  0  0
  189.9540  174.0820  137.1540 O   0  0  0  0  0  1  0  0  0  0  0  0
  190.5880  173.5220  138.2660 C   0  0  0  0  0  2  0  0  0  0  0  0
  1 10  1  0  0  0  0
  1 18  1  0  0  0  0
  2 16  1  0  0  0  0
  4  8  2  0  0  0  0
  5  2  1  6  0  0  0
  6  4  1  0  0  0  0
  6  2  2  0  0  0  0
  7  3  1  1  0  0  0
  7  5  1  0  0  0  0
  7 19  1  0  0  0  0
  8 12  1  0  0  0  0
  9 13  1  6  0  0  0
  9  6  1  0  0  0  0
 13  1  1  0  0  0  0
 14 31  1  6  0  0  0
 14 21  1  0  0  0  0
 14 15  1  0  0  0  0
 15  3  1  0  0  0  0
 16 12  2  0  0  0  0
 16 11  1  0  0  0  0
 17 22  1  6  0  0  0
 17  9  1  0  0  0  0
 17  5  1  0  0  0  0
 18  4  1  0  0  0  0
 19 25  1  6  0  0  0
 19 23  1  0  0  0  0
 20  1  1  0  0  0  0
 21 22  1  0  0  0  0
 23 11  1  0  0  0  0
 25 24  2  0  0  0  0
 26 25  1  0  0  0  0
 27 29  1  0  0  0  0
 28 30  2  0  0  0  0
 29 26  2  0  0  0  0
 29 28  1  0  0  0  0
 30 24  1  0  0  0  0
 32 31  1  0  0  0  0
 33 31  2  0  0  0  0
 35 34  1  1  0  0  0
 35 32  1  0  0  0  0
 36 37  1  0  0  0  0
 37 35  1  0  0  0  0
M  END
>  <MODEL>
2

>  <REMARK>
 VINA RESULT:      -8.6      1.905      6.618
  Name = 
  4 active torsions:
  status: ('A' for Active; 'I' for Inactive)
    1  A    between atoms: CA_4  and  N_12
    2  A    between atoms: CA_4  and  C_37
    3  A    between atoms: C_8  and  C_18
    4  A    between atoms: C_23  and  C_30
                            x       y       z     vdW  Elec       q    Type
                         _______ _______ _______ _____ _____    ______ ____

>  <TORSDO>
F 4

$$$$
=
 OpenBabel11112417223D

 37 42  0  0  1  0  0  0  0  0999 V2000
  185.7940  178.1200  143.6400 C   0  0  0  0  0  0  0  0  0  0  0  0
  189.4940  176.7980  145.2310 C   0  0  0  0  0  0  0  0  0  0  0  0
  191.9900  174.8250  142.8640 C   0  0  0  0  0  2  0  0  0  0  0  0
  187.3160  177.7750  145.6780 C   0  0  0  0  0  0  0  0  0  0  0  0
  190.2790  176.3100  144.0420 C   0  0  1  0  0  3  0  0  0  0  0  0
  188.2890  177.2990  144.8020 C   0  0  0  0  0  0  0  0  0  0  0  0
  191.2070  175.0690  144.1810 C   0  0  2  0  0  3  0  0  0  0  0  0
  187.6210  177.8190  147.0440 C   0  0  0  0  0  3  0  0  0  0  0  0
  188.1540  177.2680  143.3390 C   0  0  2  0  0  3  0  0  0  0  0  0
  186.1320  179.5150  143.1410 C   0  0  0  0  0  1  0  0  0  0  0  0
  191.1830  176.5300  147.1050 C   0  0  0  0  0  2  0  0  0  0  0  0
  188.8870  177.4060  147.4940 C   0  0  0  0  0  3  0  0  0  0  0  0
  186.6860  177.0730  142.9420 C   0  0  0  0  0  2  0  0  0  0  0  0
  190.4720  173.7320  141.5670 C   0  0  1  0  0  3  0  0  0  0  0  0
  191.1900  174.9330  141.7130 O   0  0  0  0  0  0  0  0  0  0  0  0
  189.8390  176.8970  146.5910 C   0  0  0  0  0  0  0  0  0  0  0  0
  189.1750  176.1940  142.9320 C   0  0  2  0  0  3  0  0  0  0  0  0
  185.9270  178.0770  145.1790 C   0  0  0  0  0  2  0  0  0  0  0  0
  192.2100  175.1240  145.3550 C   0  0  1  0  0  3  0  0  0  0  0  0
  184.3520  177.8310  143.2810 C   0  0  0  0  0  1  0  0  0  0  0  0
  189.3600  173.5790  142.6180 C   0  0  0  0  0  2  0  0  0  0  0  0
  188.4730  174.8140  142.8260 C   0  0  0  0  0  2  0  0  0  0  0  0
  191.5230  175.1150  146.7090 C   0  0  0  0  0  2  0  0  0  0  0  0
  192.7600  172.7080  144.9860 C   0  0  0  0  0  3  0  0  0  0  0  0
  193.2000  173.9920  145.3270 C   0  0  0  0  0  0  0  0  0  0  0  0
  194.5550  174.2020  145.6310 C   0  0  0  0  0  3  0  0  0  0  0  0
  196.8880  173.3610  145.9240 C   0  0  0  0  0  1  0  0  0  0  0  0
  195.0090  171.8540  145.2600 C   0  0  0  0  0  3  0  0  0  0  0  0
  195.4550  173.1350  145.5980 C   0  0  0  0  0  0  0  0  0  0  0  0
  193.6620  171.6410  144.9540 C   0  0  0  0  0  3  0  0  0  0  0  0
  189.9110  173.6320  140.1860 C   0  0  0  0  0  0  0  0  0  0  0  0
  190.5550  172.7890  139.2300 N   0  0  0  0  0  2  0  0  0  0  0  0
  188.8680  174.2700  139.8780 O   0  0  0  0  0  0  0  0  0  0  0  0
  190.3440  171.1900  137.3930 C   0  0  0  0  0  1  0  0  0  0  0  0
  190.0460  172.5990  137.8790 C   0  0  2  0  0  3  0  0  0  0  0  0
  189.7910  173.9070  135.8780 O   0  0  0  0  0  1  0  0  0  0  0  0
  190.6570  173.6270  136.9370 C   0  0  0  0  0  2  0  0  0  0  0  0
  1 18  1  0  0  0  0
  2 16  1  0  0  0  0
  4  8  2  0  0  0  0
  5  7  1  0  0  0  0
  5  2  1  1  0  0  0
  6  2  2  0  0  0  0
  6  4  1  0  0  0  0
  7  3  1  6  0  0  0
  7 19  1  0  0  0  0
  8 12  1  0  0  0  0
  9 13  1  1  0  0  0
  9  6  1  0  0  0  0
 10  1  1  0  0  0  0
 13  1  1  0  0  0  0
 14 31  1  6  0  0  0
 14 15  1  0  0  0  0
 14 21  1  0  0  0  0
 15  3  1  0  0  0  0
 16 11  1  0  0  0  0
 16 12  2  0  0  0  0
 17 22  1  1  0  0  0
 17  9  1  0  0  0  0
 17  5  1  0  0  0  0
 18  4  1  0  0  0  0
 19 25  1  1  0  0  0
 19 23  1  0  0  0  0
 20  1  1  0  0  0  0
 21 22  1  0  0  0  0
 23 11  1  0  0  0  0
 24 25  1  0  0  0  0
 25 26  2  0  0  0  0
 28 29  2  0  0  0  0
 29 26  1  0  0  0  0
 29 27  1  0  0  0  0
 30 24  2  0  0  0  0
 30 28  1  0  0  0  0
 32 31  1  0  0  0  0
 33 31  2  0  0  0  0
 35 34  1  6  0  0  0
 35 32  1  0  0  0  0
 36 37  1  0  0  0  0
 37 35  1  0  0  0  0
M  END
>  <MODEL>
3

>  <REMARK>
 VINA RESULT:      -8.1      1.266      1.937
  Name = 
  4 active torsions:
  status: ('A' for Active; 'I' for Inactive)
    1  A    between atoms: CA_4  and  N_12
    2  A    between atoms: CA_4  and  C_37
    3  A    between atoms: C_8  and  C_18
    4  A    between atoms: C_23  and  C_30
                            x       y       z     vdW  Elec       q    Type
                         _______ _______ _______ _____ _____    ______ ____

>  <TORSDO>
F 4

$$$$
=
 OpenBabel11112417223D

 37 42  0  0  1  0  0  0  0  0999 V2000
  194.8660  172.9210  144.5090 C   0  0  0  0  0  0  0  0  0  0  0  0
  191.5380  175.3090  145.6010 C   0  0  0  0  0  0  0  0  0  0  0  0
  188.1620  174.9200  143.5590 C   0  0  0  0  0  2  0  0  0  0  0  0
  193.9050  174.8550  145.8980 C   0  0  0  0  0  0  0  0  0  0  0  0
  190.3840  174.7590  144.8060 C   0  0  1  0  0  3  0  0  0  0  0  0
  192.6600  174.5570  145.3500 C   0  0  0  0  0  0  0  0  0  0  0  0
  189.3000  175.7220  144.2430 C   0  0  2  0  0  3  0  0  0  0  0  0
  193.9910  175.9150  146.8080 C   0  0  0  0  0  3  0  0  0  0  0  0
  192.3910  173.4270  144.4490 C   0  0  2  0  0  3  0  0  0  0  0  0
  194.6900  171.6930  145.3880 C   0  0  0  0  0  1  0  0  0  0  0  0
  190.3920  177.0820  147.0070 C   0  0  0  0  0  2  0  0  0  0  0  0
  192.8340  176.6340  147.1570 C   0  0  0  0  0  3  0  0  0  0  0  0
  193.6310  173.1100  143.6050 C   0  0  0  0  0  2  0  0  0  0  0  0
  189.0310  174.4590  141.5060 C   0  0  1  0  0  3  0  0  0  0  0  0
  188.6310  173.8870  142.7280 O   0  0  0  0  0  0  0  0  0  0  0  0
  191.5950  176.3340  146.5620 C   0  0  0  0  0  0  0  0  0  0  0  0
  191.1070  173.8710  143.7320 C   0  0  2  0  0  3  0  0  0  0  0  0
  195.1420  174.1550  145.3970 C   0  0  0  0  0  2  0  0  0  0  0  0
  188.6780  176.6890  145.2760 C   0  0  1  0  0  3  0  0  0  0  0  0
  196.0720  172.6950  143.6240 C   0  0  0  0  0  1  0  0  0  0  0  0
  190.3290  175.2720  141.6340 C   0  0  0  0  0  2  0  0  0  0  0  0
  191.4660  174.5860  142.4020 C   0  0  0  0  0  2  0  0  0  0  0  0
  189.6850  177.6860  145.8200 C   0  0  0  0  0  2  0  0  0  0  0  0
  187.5770  177.9460  143.4090 C   0  0  0  0  0  3  0  0  0  0  0  0
  187.5120  177.4600  144.7200 C   0  0  0  0  0  0  0  0  0  0  0  0
  186.3620  177.6970  145.4910 C   0  0  0  0  0  3  0  0  0  0  0  0
  184.0780  178.6660  145.7730 C   0  0  0  0  0  1  0  0  0  0  0  0
  185.3640  178.9010  143.6440 C   0  0  0  0  0  3  0  0  0  0  0  0
  185.2920  178.4150  144.9530 C   0  0  0  0  0  0  0  0  0  0  0  0
  186.5060  178.6650  142.8730 C   0  0  0  0  0  3  0  0  0  0  0  0
  189.1720  173.3980  140.4630 C   0  0  0  0  0  0  0  0  0  0  0  0
  189.6120  173.7610  139.1540 N   0  0  0  0  0  2  0  0  0  0  0  0
  188.9250  172.1940  140.7460 O   0  0  0  0  0  0  0  0  0  0  0  0
  191.2930  172.4180  137.9940 C   0  0  0  0  0  1  0  0  0  0  0  0
  189.8210  172.7830  138.0950 C   0  0  2  0  0  3  0  0  0  0  0  0
  189.9390  174.5410  136.4590 O   0  0  0  0  0  1  0  0  0  0  0  0
  189.3160  173.3290  136.7670 C   0  0  0  0  0  2  0  0  0  0  0  0
  1 10  1  0  0  0  0
  1 18  1  0  0  0  0
  2 16  1  0  0  0  0
  4  8  2  0  0  0  0
  5  2  1  6  0  0  0
  6  2  2  0  0  0  0
  6  4  1  0  0  0  0
  7  3  1  1  0  0  0
  7  5  1  0  0  0  0
  7 19  1  0  0  0  0
  8 12  1  0  0  0  0
  9 13  1  6  0  0  0
  9  6  1  0  0  0  0
 13  1  1  0  0  0  0
 14 31  1  6  0  0  0
 14 21  1  0  0  0  0
 14 15  1  0  0  0  0
 15  3  1  0  0  0  0
 16 11  1  0  0  0  0
 16 12  2  0  0  0  0
 17 22  1  6  0  0  0
 17  9  1  0  0  0  0
 17  5  1  0  0  0  0
 18  4  1  0  0  0  0
 19 25  1  6  0  0  0
 19 23  1  0  0  0  0
 20  1  1  0  0  0  0
 21 22  1  0  0  0  0
 23 11  1  0  0  0  0
 24 25  1  0  0  0  0
 25 26  2  0  0  0  0
 28 29  2  0  0  0  0
 29 26  1  0  0  0  0
 29 27  1  0  0  0  0
 30 24  2  0  0  0  0
 30 28  1  0  0  0  0
 31 33  2  0  0  0  0
 32 31  1  0  0  0  0
 35 34  1  6  0  0  0
 35 32  1  0  0  0  0
 36 37  1  0  0  0  0
 37 35  1  0  0  0  0
M  END
>  <MODEL>
4

>  <REMARK>
 VINA RESULT:      -8.0      1.598      6.602
  Name = 
  4 active torsions:
  status: ('A' for Active; 'I' for Inactive)
    1  A    between atoms: CA_4  and  N_12
    2  A    between atoms: CA_4  and  C_37
    3  A    between atoms: C_8  and  C_18
    4  A    between atoms: C_23  and  C_30
                            x       y       z     vdW  Elec       q    Type
                         _______ _______ _______ _____ _____    ______ ____

>  <TORSDO>
F 4

$$$$
=
 OpenBabel11112417223D

 37 42  0  0  1  0  0  0  0  0999 V2000
  187.1080  177.0980  143.2400 C   0  0  0  0  0  0  0  0  0  0  0  0
  190.8840  176.0810  144.8740 C   0  0  0  0  0  0  0  0  0  0  0  0
  193.2100  173.5680  142.8750 C   0  0  0  0  0  2  0  0  0  0  0  0
  188.7480  177.1850  145.2130 C   0  0  0  0  0  0  0  0  0  0  0  0
  191.5900  175.3200  143.7830 C   0  0  1  0  0  3  0  0  0  0  0  0
  189.6600  176.5010  144.4130 C   0  0  0  0  0  0  0  0  0  0  0  0
  192.5120  174.1200  144.1450 C   0  0  2  0  0  3  0  0  0  0  0  0
  189.1360  177.5290  146.5140 C   0  0  0  0  0  3  0  0  0  0  0  0
  189.4360  176.1450  143.0050 C   0  0  2  0  0  3  0  0  0  0  0  0
  187.4290  178.3370  142.4200 C   0  0  0  0  0  1  0  0  0  0  0  0
  192.6820  176.2010  146.6600 C   0  0  0  0  0  2  0  0  0  0  0  0
  190.4240  177.1970  146.9720 C   0  0  0  0  0  3  0  0  0  0  0  0
  187.9440  175.9010  142.7470 C   0  0  0  0  0  2  0  0  0  0  0  0
  191.6050  172.2470  141.9470 C   0  0  1  0  0  3  0  0  0  0  0  0
  192.3430  173.4330  141.7770 O   0  0  0  0  0  0  0  0  0  0  0  0
  191.3130  176.4750  146.1540 C   0  0  0  0  0  0  0  0  0  0  0  0
  190.4190  174.9840  142.7930 C   0  0  2  0  0  3  0  0  0  0  0  0
  187.3340  177.4000  144.7390 C   0  0  0  0  0  2  0  0  0  0  0  0
  193.5860  174.4150  145.2170 C   0  0  1  0  0  3  0  0  0  0  0  0
  185.6440  176.7700  143.0400 C   0  0  0  0  0  1  0  0  0  0  0  0
  190.5580  172.3610  143.0680 C   0  0  0  0  0  2  0  0  0  0  0  0
  189.6980  173.6320  143.0420 C   0  0  0  0  0  2  0  0  0  0  0  0
  192.9830  174.7260  146.5750 C   0  0  0  0  0  2  0  0  0  0  0  0
  195.9340  173.5510  145.3480 C   0  0  0  0  0  3  0  0  0  0  0  0
  194.5610  173.2820  145.3890 C   0  0  0  0  0  0  0  0  0  0  0  0
  194.1180  171.9650  145.5930 C   0  0  0  0  0  3  0  0  0  0  0  0
  194.5690  169.5370  145.9630 C   0  0  0  0  0  1  0  0  0  0  0  0
  196.4130  171.2040  145.7050 C   0  0  0  0  0  3  0  0  0  0  0  0
  195.0420  170.9300  145.7500 C   0  0  0  0  0  0  0  0  0  0  0  0
  196.8570  172.5140  145.5040 C   0  0  0  0  0  3  0  0  0  0  0  0
  190.9600  171.8530  140.6600 C   0  0  0  0  0  0  0  0  0  0  0  0
  191.7700  171.3410  139.6000 N   0  0  0  0  0  2  0  0  0  0  0  0
  189.7100  171.9510  140.5200 O   0  0  0  0  0  0  0  0  0  0  0  0
  190.9520  169.3940  138.3710 C   0  0  0  0  0  1  0  0  0  0  0  0
  191.2150  170.8900  138.3320 C   0  0  2  0  0  3  0  0  0  0  0  0
  193.0030  170.1580  136.9010 O   0  0  0  0  0  1  0  0  0  0  0  0
  192.1610  171.2350  137.1910 C   0  0  0  0  0  2  0  0  0  0  0  0
  1 18  1  0  0  0  0
  2 16  1  0  0  0  0
  4  8  2  0  0  0  0
  5  7  1  0  0  0  0
  5  2  1  1  0  0  0
  6  2  2  0  0  0  0
  6  4  1  0  0  0  0
  7  3  1  6  0  0  0
  7 19  1  0  0  0  0
  8 12  1  0  0  0  0
  9 13  1  1  0  0  0
  9  6  1  0  0  0  0
 10  1  1  0  0  0  0
 13  1  1  0  0  0  0
 14 31  1  6  0  0  0
 14 21  1  0  0  0  0
 15 14  1  0  0  0  0
 15  3  1  0  0  0  0
 16 11  1  0  0  0  0
 16 12  2  0  0  0  0
 17  9  1  0  0  0  0
 17 22  1  1  0  0  0
 17  5  1  0  0  0  0
 18  4  1  0  0  0  0
 19 25  1  1  0  0  0
 19 23  1  0  0  0  0
 20  1  1  0  0  0  0
 22 21  1  0  0  0  0
 23 11  1  0  0  0  0
 24 25  2  0  0  0  0
 24 30  1  0  0  0  0
 25 26  1  0  0  0  0
 26 29  2  0  0  0  0
 28 29  1  0  0  0  0
 29 27  1  0  0  0  0
 30 28  2  0  0  0  0
 32 31  1  0  0  0  0
 33 31  2  0  0  0  0
 35 34  1  1  0  0  0
 35 32  1  0  0  0  0
 36 37  1  0  0  0  0
 37 35  1  0  0  0  0
M  END
>  <MODEL>
5

>  <REMARK>
 VINA RESULT:      -7.8      1.277      1.722
  Name = 
  4 active torsions:
  status: ('A' for Active; 'I' for Inactive)
    1  A    between atoms: CA_4  and  N_12
    2  A    between atoms: CA_4  and  C_37
    3  A    between atoms: C_8  and  C_18
    4  A    between atoms: C_23  and  C_30
                            x       y       z     vdW  Elec       q    Type
                         _______ _______ _______ _____ _____    ______ ____

>  <TORSDO>
F 4

$$$$
=
 OpenBabel11112417223D

 37 42  0  0  1  0  0  0  0  0999 V2000
  195.9220  173.4670  144.8500 C   0  0  0  0  0  0  0  0  0  0  0  0
  192.0950  175.1960  145.4230 C   0  0  0  0  0  0  0  0  0  0  0  0
  189.1340  174.1070  143.0210 C   0  0  0  0  0  2  0  0  0  0  0  0
  194.4490  175.2160  146.0170 C   0  0  0  0  0  0  0  0  0  0  0  0
  191.1740  174.4120  144.5270 C   0  0  1  0  0  3  0  0  0  0  0  0
  193.3610  174.6680  145.3430 C   0  0  0  0  0  0  0  0  0  0  0  0
  190.0060  175.1320  143.7930 C   0  0  2  0  0  3  0  0  0  0  0  0
  194.2200  176.2980  146.8760 C   0  0  0  0  0  3  0  0  0  0  0  0
  193.4240  173.4840  144.4760 C   0  0  2  0  0  3  0  0  0  0  0  0
  195.8730  172.2530  145.7640 C   0  0  0  0  0  1  0  0  0  0  0  0
  190.4690  176.7520  146.5940 C   0  0  0  0  0  2  0  0  0  0  0  0
  192.9140  176.7890  147.0510 C   0  0  0  0  0  3  0  0  0  0  0  0
  194.7970  173.3890  143.8000 C   0  0  0  0  0  2  0  0  0  0  0  0
  190.3230  173.7660  141.1110 C   0  0  1  0  0  3  0  0  0  0  0  0
  189.8890  173.1620  142.3050 O   0  0  0  0  0  0  0  0  0  0  0  0
  191.8370  176.2390  146.3300 C   0  0  0  0  0  0  0  0  0  0  0  0
  192.1780  173.6510  143.5910 C   0  0  2  0  0  3  0  0  0  0  0  0
  195.8490  174.7550  145.7010 C   0  0  0  0  0  2  0  0  0  0  0  0
  189.0890  175.9880  144.6950 C   0  0  1  0  0  3  0  0  0  0  0  0
  197.2510  173.4540  144.1260 C   0  0  0  0  0  1  0  0  0  0  0  0
  191.4190  174.8180  141.3480 C   0  0  0  0  0  2  0  0  0  0  0  0
  192.5600  174.3860  142.2780 C   0  0  0  0  0  2  0  0  0  0  0  0
  189.8140  177.1750  145.3020 C   0  0  0  0  0  2  0  0  0  0  0  0
  186.6930  176.7190  144.6830 C   0  0  0  0  0  3  0  0  0  0  0  0
  187.8770  176.5040  143.9690 C   0  0  0  0  0  0  0  0  0  0  0  0
  187.9160  176.7790  142.5920 C   0  0  0  0  0  3  0  0  0  0  0  0
  186.8220  177.5430  140.4820 C   0  0  0  0  0  1  0  0  0  0  0  0
  185.5960  177.4660  142.6570 C   0  0  0  0  0  3  0  0  0  0  0  0
  186.7780  177.2570  141.9390 C   0  0  0  0  0  0  0  0  0  0  0  0
  185.5540  177.1970  144.0280 C   0  0  0  0  0  3  0  0  0  0  0  0
  190.7900  172.7250  140.1470 C   0  0  0  0  0  0  0  0  0  0  0  0
  190.3340  171.3790  140.2990 N   0  0  0  0  0  2  0  0  0  0  0  0
  191.5600  173.0370  139.1990 O   0  0  0  0  0  0  0  0  0  0  0  0
  189.6870  170.2110  138.2520 C   0  0  0  0  0  1  0  0  0  0  0  0
  190.7040  170.3150  139.3750 C   0  0  2  0  0  3  0  0  0  0  0  0
  190.8230  169.1940  141.4990 O   0  0  0  0  0  1  0  0  0  0  0  0
  190.8150  168.9900  140.1170 C   0  0  0  0  0  2  0  0  0  0  0  0
  1 18  1  0  0  0  0
  1 10  1  0  0  0  0
  2 16  1  0  0  0  0
  4  8  2  0  0  0  0
  5  2  1  6  0  0  0
  6  2  2  0  0  0  0
  6  4  1  0  0  0  0
  7  3  1  1  0  0  0
  7  5  1  0  0  0  0
  7 19  1  0  0  0  0
  8 12  1  0  0  0  0
  9 13  1  6  0  0  0
  9  6  1  0  0  0  0
 13  1  1  0  0  0  0
 14 31  1  6  0  0  0
 14 21  1  0  0  0  0
 14 15  1  0  0  0  0
 15  3  1  0  0  0  0
 16 11  1  0  0  0  0
 16 12  2  0  0  0  0
 17 22  1  6  0  0  0
 17  9  1  0  0  0  0
 17  5  1  0  0  0  0
 18  4  1  0  0  0  0
 19 25  1  6  0  0  0
 19 23  1  0  0  0  0
 20  1  1  0  0  0  0
 21 22  1  0  0  0  0
 23 11  1  0  0  0  0
 25 24  2  0  0  0  0
 26 25  1  0  0  0  0
 27 29  1  0  0  0  0
 28 30  2  0  0  0  0
 29 26  2  0  0  0  0
 29 28  1  0  0  0  0
 30 24  1  0  0  0  0
 31 32  1  0  0  0  0
 33 31  2  0  0  0  0
 35 34  1  6  0  0  0
 35 37  1  0  0  0  0
 35 32  1  0  0  0  0
 37 36  1  0  0  0  0
M  END
>  <MODEL>
6

>  <REMARK>
 VINA RESULT:      -7.7      1.649      6.656
  Name = 
  4 active torsions:
  status: ('A' for Active; 'I' for Inactive)
    1  A    between atoms: CA_4  and  N_12
    2  A    between atoms: CA_4  and  C_37
    3  A    between atoms: C_8  and  C_18
    4  A    between atoms: C_23  and  C_30
                            x       y       z     vdW  Elec       q    Type
                         _______ _______ _______ _____ _____    ______ ____

>  <TORSDO>
F 4

$$$$
=
 OpenBabel11112417223D

 37 42  0  0  1  0  0  0  0  0999 V2000
  192.7420  172.2430  141.0970 C   0  0  0  0  0  0  0  0  0  0  0  0
  189.4590  174.9180  141.2660 C   0  0  0  0  0  0  0  0  0  0  0  0
  189.3790  177.6590  144.1300 C   0  0  0  0  0  2  0  0  0  0  0  0
  190.4130  172.9250  140.2600 C   0  0  0  0  0  0  0  0  0  0  0  0
  189.8470  175.9490  142.2920 C   0  0  1  0  0  3  0  0  0  0  0  0
  190.4930  174.0300  141.1040 C   0  0  0  0  0  0  0  0  0  0  0  0
  188.7670  176.5440  143.2410 C   0  0  2  0  0  3  0  0  0  0  0  0
  189.2580  172.7670  139.4850 C   0  0  0  0  0  3  0  0  0  0  0  0
  191.6680  174.3790  141.9140 C   0  0  2  0  0  3  0  0  0  0  0  0
  193.7090  172.9690  140.1750 C   0  0  0  0  0  1  0  0  0  0  0  0
  187.2340  175.8220  140.4470 C   0  0  0  0  0  2  0  0  0  0  0  0
  188.2270  173.7210  139.5600 C   0  0  0  0  0  3  0  0  0  0  0  0
  192.4260  173.1130  142.3300 C   0  0  0  0  0  2  0  0  0  0  0  0
  190.4040  176.4820  145.7870 C   0  0  1  0  0  3  0  0  0  0  0  0
  190.6280  177.3140  144.6740 O   0  0  0  0  0  0  0  0  0  0  0  0
  188.3200  174.8100  140.4470 C   0  0  0  0  0  0  0  0  0  0  0  0
  191.0640  175.2690  143.0120 C   0  0  2  0  0  3  0  0  0  0  0  0
  191.4710  171.8540  140.3080 C   0  0  0  0  0  2  0  0  0  0  0  0
  187.5070  177.0990  142.5410 C   0  0  1  0  0  3  0  0  0  0  0  0
  193.4120  170.9720  141.5710 C   0  0  0  0  0  1  0  0  0  0  0  0
  189.9220  175.0790  145.3840 C   0  0  0  0  0  2  0  0  0  0  0  0
  190.7120  174.4070  144.2540 C   0  0  0  0  0  2  0  0  0  0  0  0
  186.7030  176.0160  141.8450 C   0  0  0  0  0  2  0  0  0  0  0  0
  186.2020  179.1370  143.1900 C   0  0  0  0  0  3  0  0  0  0  0  0
  186.5890  177.8250  143.4860 C   0  0  0  0  0  0  0  0  0  0  0  0
  186.1130  177.2100  144.6550 C   0  0  0  0  0  3  0  0  0  0  0  0
  184.7620  177.2500  146.7550 C   0  0  0  0  0  1  0  0  0  0  0  0
  184.8810  179.2160  145.2180 C   0  0  0  0  0  3  0  0  0  0  0  0
  185.2620  177.9040  145.5180 C   0  0  0  0  0  0  0  0  0  0  0  0
  185.3510  179.8310  144.0540 C   0  0  0  0  0  3  0  0  0  0  0  0
  191.6390  176.3970  146.6230 C   0  0  0  0  0  0  0  0  0  0  0  0
  192.9120  176.3080  145.9820 N   0  0  0  0  0  2  0  0  0  0  0  0
  191.5560  176.4260  147.8810 O   0  0  0  0  0  0  0  0  0  0  0  0
  194.9000  177.5920  146.5890 C   0  0  0  0  0  1  0  0  0  0  0  0
  194.1650  176.2690  146.7220 C   0  0  2  0  0  3  0  0  0  0  0  0
  194.3380  174.3320  145.3090 O   0  0  0  0  0  1  0  0  0  0  0  0
  195.0350  175.1240  146.2240 C   0  0  0  0  0  2  0  0  0  0  0  0
  1 20  1  0  0  0  0
  1 13  1  0  0  0  0
  3 15  1  0  0  0  0
  4 18  1  0  0  0  0
  4  6  2  0  0  0  0
  5  2  1  6  0  0  0
  5 17  1  0  0  0  0
  5  7  1  0  0  0  0
  6  2  1  0  0  0  0
  6  9  1  0  0  0  0
  7  3  1  6  0  0  0
  8 12  2  0  0  0  0
  8  4  1  0  0  0  0
  9 13  1  1  0  0  0
  9 17  1  0  0  0  0
 10  1  1  0  0  0  0
 11 16  1  0  0  0  0
 11 23  1  0  0  0  0
 12 16  1  0  0  0  0
 14 31  1  6  0  0  0
 15 14  1  0  0  0  0
 16  2  2  0  0  0  0
 17 22  1  1  0  0  0
 18  1  1  0  0  0  0
 19  7  1  0  0  0  0
 19 25  1  1  0  0  0
 21 14  1  0  0  0  0
 22 21  1  0  0  0  0
 23 19  1  0  0  0  0
 24 25  2  0  0  0  0
 24 30  1  0  0  0  0
 25 26  1  0  0  0  0
 26 29  2  0  0  0  0
 28 29  1  0  0  0  0
 29 27  1  0  0  0  0
 30 28  2  0  0  0  0
 31 33  2  0  0  0  0
 32 31  1  0  0  0  0
 32 35  1  0  0  0  0
 35 34  1  6  0  0  0
 36 37  1  0  0  0  0
 37 35  1  0  0  0  0
M  END
>  <MODEL>
7

>  <REMARK>
 VINA RESULT:      -7.6      2.759      8.186
  Name = 
  4 active torsions:
  status: ('A' for Active; 'I' for Inactive)
    1  A    between atoms: CA_4  and  N_12
    2  A    between atoms: CA_4  and  C_37
    3  A    between atoms: C_8  and  C_18
    4  A    between atoms: C_23  and  C_30
                            x       y       z     vdW  Elec       q    Type
                         _______ _______ _______ _____ _____    ______ ____

>  <TORSDO>
F 4

$$$$
=
 OpenBabel11112417223D

 37 42  0  0  1  0  0  0  0  0999 V2000
  185.1350  178.2970  143.5810 C   0  0  0  0  0  0  0  0  0  0  0  0
  188.5180  176.1730  144.9980 C   0  0  0  0  0  0  0  0  0  0  0  0
  190.9280  174.4510  142.3620 C   0  0  0  0  0  2  0  0  0  0  0  0
  186.4470  177.3110  145.5550 C   0  0  0  0  0  0  0  0  0  0  0  0
  189.3250  175.8570  143.7670 C   0  0  1  0  0  3  0  0  0  0  0  0
  187.4180  176.9130  144.6400 C   0  0  0  0  0  0  0  0  0  0  0  0
  190.0840  174.5030  143.6630 C   0  0  2  0  0  3  0  0  0  0  0  0
  186.6510  177.0140  146.9080 C   0  0  0  0  0  3  0  0  0  0  0  0
  187.3900  177.2230  143.2040 C   0  0  2  0  0  3  0  0  0  0  0  0
  185.6760  179.7100  143.4280 C   0  0  0  0  0  1  0  0  0  0  0  0
  190.0170  175.2750  146.8380 C   0  0  0  0  0  2  0  0  0  0  0  0
  187.8220  176.3450  147.3100 C   0  0  0  0  0  3  0  0  0  0  0  0
  185.9440  177.3190  142.7050 C   0  0  0  0  0  2  0  0  0  0  0  0
  189.3910  173.8830  140.7820 C   0  0  1  0  0  3  0  0  0  0  0  0
  190.2360  174.9160  141.2300 O   0  0  0  0  0  0  0  0  0  0  0  0
  188.7700  175.9230  146.3590 C   0  0  0  0  0  0  0  0  0  0  0  0
  188.3020  176.1370  142.6110 C   0  0  2  0  0  3  0  0  0  0  0  0
  185.1460  177.9000  145.0750 C   0  0  0  0  0  2  0  0  0  0  0  0
  190.9950  174.1630  144.8640 C   0  0  1  0  0  3  0  0  0  0  0  0
  183.7000  178.2900  143.1000 C   0  0  0  0  0  1  0  0  0  0  0  0
  188.1940  173.6550  141.7190 C   0  0  0  0  0  2  0  0  0  0  0  0
  187.4490  174.9210  142.1610 C   0  0  0  0  0  2  0  0  0  0  0  0
  190.2130  173.9490  146.1460 C   0  0  0  0  0  2  0  0  0  0  0  0
  193.1210  172.8770  145.1860 C   0  0  0  0  0  3  0  0  0  0  0  0
  191.8410  172.9420  144.6240 C   0  0  0  0  0  0  0  0  0  0  0  0
  191.3670  171.8690  143.8530 C   0  0  0  0  0  3  0  0  0  0  0  0
  191.6660  169.6130  142.8250 C   0  0  0  0  0  1  0  0  0  0  0  0
  193.4500  170.6870  144.2060 C   0  0  0  0  0  3  0  0  0  0  0  0
  192.1700  170.7450  143.6450 C   0  0  0  0  0  0  0  0  0  0  0  0
  193.9240  171.7530  144.9770 C   0  0  0  0  0  3  0  0  0  0  0  0
  188.9280  174.1660  139.3900 C   0  0  0  0  0  0  0  0  0  0  0  0
  189.6940  173.6790  138.2870 N   0  0  0  0  0  2  0  0  0  0  0  0
  187.8600  174.8080  139.1950 O   0  0  0  0  0  0  0  0  0  0  0  0
  189.5110  172.5960  136.1040 C   0  0  0  0  0  1  0  0  0  0  0  0
  189.2860  173.8690  136.9020 C   0  0  2  0  0  3  0  0  0  0  0  0
  190.3380  174.7750  134.9380 O   0  0  0  0  0  1  0  0  0  0  0  0
  190.0550  175.0290  136.2830 C   0  0  0  0  0  2  0  0  0  0  0  0
  1 18  1  0  0  0  0
  2 16  1  0  0  0  0
  4  8  2  0  0  0  0
  5  2  1  1  0  0  0
  6  2  2  0  0  0  0
  6  4  1  0  0  0  0
  7  3  1  6  0  0  0
  7  5  1  0  0  0  0
  7 19  1  0  0  0  0
  8 12  1  0  0  0  0
  9 13  1  6  0  0  0
  9  6  1  0  0  0  0
 10  1  1  0  0  0  0
 13  1  1  0  0  0  0
 14 31  1  6  0  0  0
 14 15  1  0  0  0  0
 14 21  1  0  0  0  0
 15  3  1  0  0  0  0
 16 11  1  0  0  0  0
 16 12  2  0  0  0  0
 17 22  1  1  0  0  0
 17  9  1  0  0  0  0
 17  5  1  0  0  0  0
 18  4  1  0  0  0  0
 19 25  1  6  0  0  0
 19 23  1  0  0  0  0
 20  1  1  0  0  0  0
 21 22  1  0  0  0  0
 23 11  1  0  0  0  0
 25 24  2  0  0  0  0
 26 25  1  0  0  0  0
 27 29  1  0  0  0  0
 28 30  2  0  0  0  0
 29 26  2  0  0  0  0
 29 28  1  0  0  0  0
 30 24  1  0  0  0  0
 32 31  1  0  0  0  0
 33 31  2  0  0  0  0
 35 34  1  6  0  0  0
 35 32  1  0  0  0  0
 36 37  1  0  0  0  0
 37 35  1  0  0  0  0
M  END
>  <MODEL>
8

>  <REMARK>
 VINA RESULT:      -7.5      1.870      2.729
  Name = 
  4 active torsions:
  status: ('A' for Active; 'I' for Inactive)
    1  A    between atoms: CA_4  and  N_12
    2  A    between atoms: CA_4  and  C_37
    3  A    between atoms: C_8  and  C_18
    4  A    between atoms: C_23  and  C_30
                            x       y       z     vdW  Elec       q    Type
                         _______ _______ _______ _____ _____    ______ ____

>  <TORSDO>
F 4

$$$$
=
 OpenBabel11112417223D

 37 42  0  0  1  0  0  0  0  0999 V2000
  196.9530  173.9920  140.3410 C   0  0  0  0  0  0  0  0  0  0  0  0
  194.5370  175.1700  143.6180 C   0  0  0  0  0  0  0  0  0  0  0  0
  190.9720  173.4890  144.0580 C   0  0  0  0  0  2  0  0  0  0  0  0
  196.5450  175.5800  142.3170 C   0  0  0  0  0  0  0  0  0  0  0  0
  193.3870  174.1980  143.6260 C   0  0  1  0  0  3  0  0  0  0  0  0
  195.4080  174.8320  142.6120 C   0  0  0  0  0  0  0  0  0  0  0  0
  191.9610  174.6840  144.0160 C   0  0  2  0  0  3  0  0  0  0  0  0
  196.8490  176.6730  143.1380 C   0  0  0  0  0  3  0  0  0  0  0  0
  195.0010  173.6130  141.9000 C   0  0  2  0  0  3  0  0  0  0  0  0
  197.7670  172.8510  140.9280 C   0  0  0  0  0  1  0  0  0  0  0  0
  194.0580  176.5450  145.6960 C   0  0  0  0  0  2  0  0  0  0  0  0
  196.0250  176.9760  144.2360 C   0  0  0  0  0  3  0  0  0  0  0  0
  195.4470  173.6760  140.4350 C   0  0  0  0  0  2  0  0  0  0  0  0
  190.4350  173.1970  141.8650 C   0  0  1  0  0  3  0  0  0  0  0  0
  191.1020  172.6200  142.9610 O   0  0  0  0  0  0  0  0  0  0  0  0
  194.8630  176.2240  144.4910 C   0  0  0  0  0  0  0  0  0  0  0  0
  193.4980  173.5310  142.2090 C   0  0  2  0  0  3  0  0  0  0  0  0
  197.3240  175.3120  141.0560 C   0  0  0  0  0  2  0  0  0  0  0  0
  191.8700  175.4550  145.3520 C   0  0  1  0  0  3  0  0  0  0  0  0
  197.3210  174.1270  138.8790 C   0  0  0  0  0  1  0  0  0  0  0  0
  191.1840  174.4140  141.2970 C   0  0  0  0  0  2  0  0  0  0  0  0
  192.6900  174.2220  141.0780 C   0  0  0  0  0  2  0  0  0  0  0  0
  192.6170  176.7760  145.3130 C   0  0  0  0  0  2  0  0  0  0  0  0
  189.9120  175.0480  146.8600 C   0  0  0  0  0  3  0  0  0  0  0  0
  190.4520  175.7340  145.7660 C   0  0  0  0  0  0  0  0  0  0  0  0
  189.6630  176.6710  145.0780 C   0  0  0  0  0  3  0  0  0  0  0  0
  187.5170  177.9030  144.7490 C   0  0  0  0  0  1  0  0  0  0  0  0
  187.8130  176.2230  146.5730 C   0  0  0  0  0  3  0  0  0  0  0  0
  188.3480  176.9130  145.4810 C   0  0  0  0  0  0  0  0  0  0  0  0
  188.5960  175.2910  147.2620 C   0  0  0  0  0  3  0  0  0  0  0  0
  190.2080  172.1730  140.8030 C   0  0  0  0  0  0  0  0  0  0  0  0
  191.0230  170.9990  140.7790 N   0  0  0  0  0  2  0  0  0  0  0  0
  189.2930  172.3340  139.9510 O   0  0  0  0  0  0  0  0  0  0  0  0
  191.0080  168.5750  140.4700 C   0  0  0  0  0  1  0  0  0  0  0  0
  190.8350  169.9310  139.8070 C   0  0  2  0  0  3  0  0  0  0  0  0
  191.2280  170.7730  137.5890 O   0  0  0  0  0  1  0  0  0  0  0  0
  191.8180  170.0900  138.6550 C   0  0  0  0  0  2  0  0  0  0  0  0
  1 13  1  0  0  0  0
  1 10  1  0  0  0  0
  1 18  1  0  0  0  0
  2 16  1  0  0  0  0
  4  6  1  0  0  0  0
  4  8  2  0  0  0  0
  5  2  1  6  0  0  0
  5  7  1  0  0  0  0
  6  2  2  0  0  0  0
  7  3  1  1  0  0  0
  7 19  1  0  0  0  0
  8 12  1  0  0  0  0
  9 13  1  6  0  0  0
  9 17  1  0  0  0  0
  9  6  1  0  0  0  0
 12 16  2  0  0  0  0
 14 31  1  6  0  0  0
 14 15  1  0  0  0  0
 15  3  1  0  0  0  0
 16 11  1  0  0  0  0
 17 22  1  6  0  0  0
 17  5  1  0  0  0  0
 18  4  1  0  0  0  0
 19 25  1  6  0  0  0
 20  1  1  0  0  0  0
 21 14  1  0  0  0  0
 22 21  1  0  0  0  0
 23 19  1  0  0  0  0
 23 11  1  0  0  0  0
 24 30  1  0  0  0  0
 25 24  2  0  0  0  0
 26 29  2  0  0  0  0
 26 25  1  0  0  0  0
 27 29  1  0  0  0  0
 28 30  2  0  0  0  0
 29 28  1  0  0  0  0
 32 31  1  0  0  0  0
 33 31  2  0  0  0  0
 35 34  1  1  0  0  0
 35 32  1  0  0  0  0
 36 37  1  0  0  0  0
 37 35  1  0  0  0  0
M  END
>  <MODEL>
9

>  <REMARK>
 VINA RESULT:      -7.2      2.667      6.572
  Name = 
  4 active torsions:
  status: ('A' for Active; 'I' for Inactive)
    1  A    between atoms: CA_4  and  N_12
    2  A    between atoms: CA_4  and  C_37
    3  A    between atoms: C_8  and  C_18
    4  A    between atoms: C_23  and  C_30
                            x       y       z     vdW  Elec       q    Type
                         _______ _______ _______ _____ _____    ______ ____

>  <TORSDO>
F 4

$$$$
