=
 OpenBabel11112417313D

 37 44  0  0  1  0  0  0  0  0999 V2000
  186.9600  177.3030  147.1450 C   0  0  0  0  0  0  0  0  0  0  0  0
  189.5680  176.0740  144.7390 C   0  0  1  0  0  3  0  0  0  0  0  0
  188.9480  176.3150  141.4980 O   0  0  0  0  0  0  0  0  0  0  0  0
  189.2520  177.2280  147.0530 C   0  0  2  0  0  3  0  0  0  0  0  0
  188.3870  175.9130  143.7840 C   0  0  2  0  0  3  0  0  0  0  0  0
  189.1960  177.3370  145.5240 C   0  0  2  0  0  3  0  0  0  0  0  0
  188.7280  175.2880  142.4290 C   0  0  2  0  0  3  0  0  0  0  0  0
  190.5030  176.4630  147.4550 C   0  0  0  0  0  2  0  0  0  0  0  0
  187.8090  177.7330  145.0220 C   0  0  2  0  0  3  0  0  0  0  0  0
  187.0250  178.6620  147.4410 F   0  0  0  0  0  0  0  0  0  0  0  0
  190.4430  173.7010  144.8230 C   0  0  0  0  0  2  0  0  0  0  0  0
  190.5280  175.0350  146.8970 C   0  0  0  0  0  2  0  0  0  0  0  0
  186.7850  177.0840  145.7620 O   0  0  0  0  0  0  0  0  0  0  0  0
  186.6470  175.7950  141.0320 O   0  0  0  0  0  0  0  0  0  0  0  0
  187.7960  176.5430  140.6910 C   0  0  1  0  0  3  0  0  0  0  0  0
  189.7330  174.8090  145.6010 C   0  0  1  0  0  3  0  0  0  0  0  0
  187.8080  177.2500  143.6360 N   0  0  2  0  0  0  0  0  0  0  0  0
  188.1060  176.6150  147.5980 O   0  0  0  0  0  0  0  0  0  0  0  0
  189.8780  174.2640  142.4490 C   0  0  1  0  0  3  0  0  0  0  0  0
  185.8620  176.7840  147.8020 F   0  0  0  0  0  0  0  0  0  0  0  0
  186.6250  177.1500  141.4230 C   0  0  2  0  0  3  0  0  0  0  0  0
  186.4910  177.1820  142.9670 C   0  0  2  0  0  3  0  0  0  0  0  0
  189.6900  173.2520  143.5780 C   0  0  0  0  0  2  0  0  0  0  0  0
  188.7270  172.8920  140.6660 C   0  0  0  0  0  2  0  0  0  0  0  0
  190.0420  173.5190  141.1200 C   0  0  2  0  0  3  0  0  0  0  0  0
  191.1760  172.4850  141.1560 C   0  0  0  0  0  2  0  0  0  0  0  0
  192.2140  170.9490  139.6560 O   0  0  0  0  0  0  0  0  0  0  0  0
  190.0090  171.4730  139.1300 N   0  0  0  0  0  2  0  0  0  0  0  0
  191.1870  171.6200  139.9320 C   0  0  0  0  0  0  0  0  0  0  0  0
  188.8840  172.3960  139.2360 C   0  0  0  0  0  2  0  0  0  0  0  0
  185.6040  178.3860  143.3160 C   0  0  1  0  0  3  0  0  0  0  0  0
  184.2290  178.1990  142.7500 N   0  0  0  0  0  0  0  0  0  0  0  0
  184.5930  178.0160  144.1820 C   0  0  2  0  0  3  0  0  0  0  0  0
  183.6660  178.5130  140.4880 N   0  0  0  0  0  2  0  0  0  0  0  0
  183.2880  178.2010  141.6820 C   0  0  0  0  0  3  0  0  0  0  0  0
  184.1170  179.2160  144.9740 C   0  0  0  0  0  2  0  0  0  0  0  0
  184.0590  178.8910  146.3150 F   0  0  0  0  0  0  0  0  0  0  0  0
  1 10  1  0  0  0  0
  1 18  1  0  0  0  0
  1 20  1  0  0  0  0
  2  6  1  0  0  0  0
  2 16  1  0  0  0  0
  3  7  1  0  0  0  0
  4  8  1  0  0  0  0
  4 18  1  0  0  0  0
  5  2  1  0  0  0  0
  6  4  1  0  0  0  0
  7 19  1  0  0  0  0
  7  5  1  0  0  0  0
  9  6  1  0  0  0  0
  9 13  1  0  0  0  0
 11 16  1  0  0  0  0
 12  8  1  0  0  0  0
 13  1  1  0  0  0  0
 14 21  1  0  0  0  0
 15 14  1  0  0  0  0
 15 21  1  0  0  0  0
 15  3  1  0  0  0  0
 16 12  1  0  0  0  0
 17  5  1  0  0  0  0
 17  9  1  0  0  0  0
 19 23  1  0  0  0  0
 21 22  1  0  0  0  0
 22 31  1  0  0  0  0
 22 17  1  0  0  0  0
 23 11  1  0  0  0  0
 24 25  1  0  0  0  0
 25 26  1  0  0  0  0
 25 19  1  0  0  0  0
 27 29  2  0  0  0  0
 28 30  1  0  0  0  0
 28 29  1  0  0  0  0
 29 26  1  0  0  0  0
 30 24  1  0  0  0  0
 31 33  1  0  0  0  0
 32 31  1  0  0  0  0
 32 33  1  0  0  0  0
 33 36  1  0  0  0  0
 34 35  2  0  0  0  0
 35 32  1  0  0  0  0
 36 37  1  0  0  0  0
M  END
>  <MODEL>
1

>  <REMARK>
 VINA RESULT:      -8.8      0.000      0.000
  Name = 
  3 active torsions:
  status: ('A' for Active; 'I' for Inactive)
    1  A    between atoms: C_1  and  C_27
    2  A    between atoms: C_8  and  C_12
    3  A    between atoms: C_23  and  C_30
                            x       y       z     vdW  Elec       q    Type
                         _______ _______ _______ _____ _____    ______ ____

>  <TORSDO>
F 3

$$$$
=
 OpenBabel11112417313D

 37 44  0  0  1  0  0  0  0  0999 V2000
  193.9760  175.0000  143.4560 C   0  0  0  0  0  0  0  0  0  0  0  0
  190.5420  175.2170  144.9600 C   0  0  1  0  0  3  0  0  0  0  0  0
  187.9440  174.4910  143.0440 O   0  0  0  0  0  0  0  0  0  0  0  0
  193.0150  174.6080  145.5040 C   0  0  2  0  0  3  0  0  0  0  0  0
  190.0920  175.4210  143.5150 C   0  0  2  0  0  3  0  0  0  0  0  0
  191.7010  174.2240  144.8150 C   0  0  2  0  0  3  0  0  0  0  0  0
  188.5990  175.6990  143.3320 C   0  0  2  0  0  3  0  0  0  0  0  0
  192.7120  175.1770  146.8800 C   0  0  0  0  0  2  0  0  0  0  0  0
  191.8720  174.0180  143.3110 C   0  0  2  0  0  3  0  0  0  0  0  0
  194.5580  173.7360  143.4970 F   0  0  0  0  0  0  0  0  0  0  0  0
  189.6910  177.3460  146.0310 C   0  0  0  0  0  2  0  0  0  0  0  0
  191.8460  176.4400  146.8210 C   0  0  0  0  0  2  0  0  0  0  0  0
  192.7530  174.9820  142.7530 O   0  0  0  0  0  0  0  0  0  0  0  0
  188.2600  175.3520  140.8220 O   0  0  0  0  0  0  0  0  0  0  0  0
  187.7140  174.3430  141.6460 C   0  0  1  0  0  3  0  0  0  0  0  0
  190.9310  176.5670  145.5920 C   0  0  1  0  0  3  0  0  0  0  0  0
  190.5140  174.2190  142.7910 N   0  0  2  0  0  0  0  0  0  0  0  0
  193.7770  175.5250  144.7510 O   0  0  0  0  0  0  0  0  0  0  0  0
  187.9270  176.4640  144.4880 C   0  0  1  0  0  3  0  0  0  0  0  0
  194.8440  175.8390  142.7830 F   0  0  0  0  0  0  0  0  0  0  0  0
  188.9590  174.1260  140.8220 C   0  0  2  0  0  3  0  0  0  0  0  0
  190.3950  174.4150  141.3310 C   0  0  2  0  0  3  0  0  0  0  0  0
  188.7490  177.6880  144.8840 C   0  0  0  0  0  2  0  0  0  0  0  0
  186.4130  177.6180  142.8260 C   0  0  0  0  0  2  0  0  0  0  0  0
  186.4920  176.8960  144.1680 C   0  0  2  0  0  3  0  0  0  0  0  0
  185.8590  177.7280  145.2920 C   0  0  0  0  0  2  0  0  0  0  0  0
  183.7590  178.7560  145.7610 O   0  0  0  0  0  0  0  0  0  0  0  0
  184.2200  178.4880  143.4970 N   0  0  0  0  0  2  0  0  0  0  0  0
  184.5450  178.3210  144.8810 C   0  0  0  0  0  0  0  0  0  0  0  0
  184.9500  177.7910  142.4430 C   0  0  0  0  0  2  0  0  0  0  0  0
  191.3420  173.4950  140.5460 C   0  0  1  0  0  3  0  0  0  0  0  0
  190.8300  172.0870  140.5630 N   0  0  0  0  0  0  0  0  0  0  0  0
  190.7270  173.0170  139.4050 C   0  0  2  0  0  3  0  0  0  0  0  0
  191.0200  170.6230  142.3950 N   0  0  0  0  0  2  0  0  0  0  0  0
  190.6130  170.8260  141.1870 C   0  0  0  0  0  3  0  0  0  0  0  0
  191.7660  172.6390  138.3700 C   0  0  0  0  0  2  0  0  0  0  0  0
  191.5250  171.3550  137.9210 F   0  0  0  0  0  0  0  0  0  0  0  0
  1 10  1  0  0  0  0
  1 18  1  0  0  0  0
  2 16  1  0  0  0  0
  3  7  1  0  0  0  0
  4  8  1  0  0  0  0
  5  2  1  0  0  0  0
  6  2  1  0  0  0  0
  6  4  1  0  0  0  0
  7  5  1  0  0  0  0
  7 19  1  0  0  0  0
  9  6  1  0  0  0  0
 12  8  1  0  0  0  0
 13  9  1  0  0  0  0
 13  1  1  0  0  0  0
 14 15  1  0  0  0  0
 15  3  1  0  0  0  0
 16 11  1  0  0  0  0
 16 12  1  0  0  0  0
 17  9  1  0  0  0  0
 17  5  1  0  0  0  0
 18  4  1  0  0  0  0
 19 23  1  0  0  0  0
 20  1  1  0  0  0  0
 21 14  1  0  0  0  0
 21 22  1  0  0  0  0
 21 15  1  0  0  0  0
 22 17  1  0  0  0  0
 23 11  1  0  0  0  0
 24 25  1  0  0  0  0
 25 19  1  0  0  0  0
 25 26  1  0  0  0  0
 28 29  1  0  0  0  0
 29 26  1  0  0  0  0
 29 27  2  0  0  0  0
 30 24  1  0  0  0  0
 30 28  1  0  0  0  0
 31 32  1  0  0  0  0
 31 22  1  0  0  0  0
 32 35  1  0  0  0  0
 33 31  1  0  0  0  0
 33 32  1  0  0  0  0
 35 34  2  0  0  0  0
 36 33  1  0  0  0  0
 37 36  1  0  0  0  0
M  END
>  <MODEL>
2

>  <REMARK>
 VINA RESULT:      -8.7      3.752      7.260
  Name = 
  3 active torsions:
  status: ('A' for Active; 'I' for Inactive)
    1  A    between atoms: C_1  and  C_27
    2  A    between atoms: C_8  and  C_12
    3  A    between atoms: C_23  and  C_30
                            x       y       z     vdW  Elec       q    Type
                         _______ _______ _______ _____ _____    ______ ____

>  <TORSDO>
F 3

$$$$
=
 OpenBabel11112417313D

 37 44  0  0  1  0  0  0  0  0999 V2000
  193.3600  174.7400  145.3040 C   0  0  0  0  0  0  0  0  0  0  0  0
  189.6620  175.3570  145.0870 C   0  0  1  0  0  3  0  0  0  0  0  0
  188.0210  174.1460  142.4820 O   0  0  0  0  0  0  0  0  0  0  0  0
  191.6010  174.9130  146.7690 C   0  0  2  0  0  3  0  0  0  0  0  0
  189.8760  175.1660  143.5870 C   0  0  2  0  0  3  0  0  0  0  0  0
  190.6530  174.3600  145.6980 C   0  0  2  0  0  3  0  0  0  0  0  0
  188.6340  175.3860  142.7200 C   0  0  2  0  0  3  0  0  0  0  0  0
  190.8250  175.8310  147.6990 C   0  0  0  0  0  2  0  0  0  0  0  0
  191.4050  173.7570  144.5130 C   0  0  2  0  0  3  0  0  0  0  0  0
  193.7220  173.5320  145.8950 F   0  0  0  0  0  0  0  0  0  0  0  0
  188.6990  177.6970  145.1390 C   0  0  0  0  0  2  0  0  0  0  0  0
  190.2140  177.0330  146.9700 C   0  0  0  0  0  2  0  0  0  0  0  0
  192.5420  174.5350  144.1720 O   0  0  0  0  0  0  0  0  0  0  0  0
  189.3230  174.3770  140.4750 O   0  0  0  0  0  0  0  0  0  0  0  0
  188.3720  173.6280  141.2030 C   0  0  1  0  0  3  0  0  0  0  0  0
  189.9090  176.8260  145.4770 C   0  0  1  0  0  3  0  0  0  0  0  0
  190.4160  173.8130  143.4300 N   0  0  2  0  0  0  0  0  0  0  0  0
  192.7060  175.5930  146.2180 O   0  0  0  0  0  0  0  0  0  0  0  0
  187.6400  176.4350  143.2530 C   0  0  1  0  0  3  0  0  0  0  0  0
  194.5190  175.3650  144.8870 F   0  0  0  0  0  0  0  0  0  0  0  0
  189.8120  173.1960  141.0720 C   0  0  2  0  0  3  0  0  0  0  0  0
  190.9330  173.6090  142.0600 C   0  0  2  0  0  3  0  0  0  0  0  0
  188.3610  177.7190  143.6540 C   0  0  0  0  0  2  0  0  0  0  0  0
  187.0580  177.5660  141.0700 C   0  0  0  0  0  2  0  0  0  0  0  0
  186.5250  176.7670  142.2550 C   0  0  2  0  0  3  0  0  0  0  0  0
  185.3290  177.4680  142.9140 C   0  0  0  0  0  2  0  0  0  0  0  0
  183.1850  178.2860  142.2660 O   0  0  0  0  0  0  0  0  0  0  0  0
  184.7500  178.2060  140.5460 N   0  0  0  0  0  2  0  0  0  0  0  0
  184.3480  177.9760  141.9010 C   0  0  0  0  0  0  0  0  0  0  0  0
  185.9790  177.6420  139.9990 C   0  0  0  0  0  2  0  0  0  0  0  0
  192.0060  172.5110  142.0060 C   0  0  1  0  0  3  0  0  0  0  0  0
  192.5110  172.3480  140.6050 N   0  0  0  0  0  0  0  0  0  0  0  0
  193.2410  173.0470  141.6990 C   0  0  2  0  0  3  0  0  0  0  0  0
  191.3560  171.2220  138.8940 N   0  0  0  0  0  2  0  0  0  0  0  0
  192.4000  171.8820  139.2650 C   0  0  0  0  0  3  0  0  0  0  0  0
  194.3450  172.1480  142.2140 C   0  0  0  0  0  2  0  0  0  0  0  0
  195.0500  172.8030  143.2040 F   0  0  0  0  0  0  0  0  0  0  0  0
  1 10  1  0  0  0  0
  1 18  1  0  0  0  0
  2 16  1  0  0  0  0
  2  6  1  0  0  0  0
  3  7  1  0  0  0  0
  4  8  1  0  0  0  0
  5  2  1  0  0  0  0
  6  4  1  0  0  0  0
  7 19  1  0  0  0  0
  7  5  1  0  0  0  0
  9  6  1  0  0  0  0
 11 16  1  0  0  0  0
 12  8  1  0  0  0  0
 13  9  1  0  0  0  0
 13  1  1  0  0  0  0
 14 21  1  0  0  0  0
 14 15  1  0  0  0  0
 15  3  1  0  0  0  0
 16 12  1  0  0  0  0
 17  5  1  0  0  0  0
 17  9  1  0  0  0  0
 18  4  1  0  0  0  0
 19 23  1  0  0  0  0
 20  1  1  0  0  0  0
 21 15  1  0  0  0  0
 21 22  1  0  0  0  0
 22 17  1  0  0  0  0
 23 11  1  0  0  0  0
 24 25  1  0  0  0  0
 25 26  1  0  0  0  0
 25 19  1  0  0  0  0
 28 29  1  0  0  0  0
 29 27  2  0  0  0  0
 29 26  1  0  0  0  0
 30 28  1  0  0  0  0
 30 24  1  0  0  0  0
 31 22  1  0  0  0  0
 32 33  1  0  0  0  0
 32 31  1  0  0  0  0
 33 31  1  0  0  0  0
 33 36  1  0  0  0  0
 34 35  2  0  0  0  0
 35 32  1  0  0  0  0
 36 37  1  0  0  0  0
M  END
>  <MODEL>
3

>  <REMARK>
 VINA RESULT:      -8.5      3.383      7.000
  Name = 
  3 active torsions:
  status: ('A' for Active; 'I' for Inactive)
    1  A    between atoms: C_1  and  C_27
    2  A    between atoms: C_8  and  C_12
    3  A    between atoms: C_23  and  C_30
                            x       y       z     vdW  Elec       q    Type
                         _______ _______ _______ _____ _____    ______ ____

>  <TORSDO>
F 3

$$$$
=
 OpenBabel11112417313D

 37 44  0  0  1  0  0  0  0  0999 V2000
  194.2030  174.8270  143.0200 C   0  0  0  0  0  0  0  0  0  0  0  0
  190.9010  175.1130  144.7850 C   0  0  1  0  0  3  0  0  0  0  0  0
  188.1590  174.3080  143.1190 O   0  0  0  0  0  0  0  0  0  0  0  0
  193.4120  174.5260  145.1540 C   0  0  2  0  0  3  0  0  0  0  0  0
  190.3360  175.2550  143.3740 C   0  0  2  0  0  3  0  0  0  0  0  0
  192.0470  174.1130  144.5910 C   0  0  2  0  0  3  0  0  0  0  0  0
  188.8320  175.5260  143.3000 C   0  0  2  0  0  3  0  0  0  0  0  0
  193.2200  175.1550  146.5240 C   0  0  0  0  0  2  0  0  0  0  0  0
  192.0970  173.8410  143.0880 C   0  0  2  0  0  3  0  0  0  0  0  0
  194.7900  173.5650  143.0690 F   0  0  0  0  0  0  0  0  0  0  0  0
  190.1350  177.2890  145.8280 C   0  0  0  0  0  2  0  0  0  0  0  0
  192.3480  176.4150  146.4800 C   0  0  0  0  0  2  0  0  0  0  0  0
  192.9270  174.7800  142.4200 O   0  0  0  0  0  0  0  0  0  0  0  0
  188.2920  175.0700  140.8430 O   0  0  0  0  0  0  0  0  0  0  0  0
  187.8160  174.0990  141.7530 C   0  0  1  0  0  3  0  0  0  0  0  0
  191.3370  176.4890  145.3250 C   0  0  1  0  0  3  0  0  0  0  0  0
  190.7010  174.0220  142.6720 N   0  0  2  0  0  0  0  0  0  0  0  0
  194.1080  175.4080  144.3030 O   0  0  0  0  0  0  0  0  0  0  0  0
  188.2540  176.3420  144.4720 C   0  0  1  0  0  3  0  0  0  0  0  0
  195.0120  175.6340  142.2430 F   0  0  0  0  0  0  0  0  0  0  0  0
  188.9910  173.8450  140.8410 C   0  0  2  0  0  3  0  0  0  0  0  0
  190.4630  174.1540  141.2190 C   0  0  2  0  0  3  0  0  0  0  0  0
  189.1030  177.5810  144.7470 C   0  0  0  0  0  2  0  0  0  0  0  0
  186.6510  177.6380  143.0110 C   0  0  0  0  0  2  0  0  0  0  0  0
  186.7970  176.7620  144.2510 C   0  0  2  0  0  3  0  0  0  0  0  0
  186.1780  177.4290  145.4870 C   0  0  0  0  0  2  0  0  0  0  0  0
  184.0650  178.3220  146.1410 O   0  0  0  0  0  0  0  0  0  0  0  0
  184.4570  178.3460  143.8480 N   0  0  0  0  0  2  0  0  0  0  0  0
  184.8340  178.0230  145.1910 C   0  0  0  0  0  0  0  0  0  0  0  0
  185.1720  177.8070  142.6960 C   0  0  0  0  0  2  0  0  0  0  0  0
  191.3460  173.1990  140.4010 C   0  0  1  0  0  3  0  0  0  0  0  0
  191.1700  173.4570  138.9350 N   0  0  0  0  0  0  0  0  0  0  0  0
  192.3410  173.8950  139.7430 C   0  0  2  0  0  3  0  0  0  0  0  0
  189.3220  172.7390  137.6690 N   0  0  0  0  0  2  0  0  0  0  0  0
  190.4540  173.3580  137.7100 C   0  0  0  0  0  3  0  0  0  0  0  0
  193.5140  172.9820  139.4530 C   0  0  0  0  0  2  0  0  0  0  0  0
  194.6740  173.5490  139.9450 F   0  0  0  0  0  0  0  0  0  0  0  0
  1 10  1  0  0  0  0
  1 18  1  0  0  0  0
  2 16  1  0  0  0  0
  3  7  1  0  0  0  0
  4  8  1  0  0  0  0
  5  2  1  0  0  0  0
  6  2  1  0  0  0  0
  6  4  1  0  0  0  0
  7  5  1  0  0  0  0
  7 19  1  0  0  0  0
  9  6  1  0  0  0  0
 12  8  1  0  0  0  0
 13  1  1  0  0  0  0
 13  9  1  0  0  0  0
 14 15  1  0  0  0  0
 15  3  1  0  0  0  0
 16 11  1  0  0  0  0
 16 12  1  0  0  0  0
 17  9  1  0  0  0  0
 17  5  1  0  0  0  0
 18  4  1  0  0  0  0
 19 23  1  0  0  0  0
 20  1  1  0  0  0  0
 21 14  1  0  0  0  0
 21 22  1  0  0  0  0
 21 15  1  0  0  0  0
 22 17  1  0  0  0  0
 23 11  1  0  0  0  0
 24 25  1  0  0  0  0
 25 19  1  0  0  0  0
 25 26  1  0  0  0  0
 28 29  1  0  0  0  0
 29 26  1  0  0  0  0
 29 27  2  0  0  0  0
 30 24  1  0  0  0  0
 30 28  1  0  0  0  0
 31 22  1  0  0  0  0
 32 33  1  0  0  0  0
 32 31  1  0  0  0  0
 33 31  1  0  0  0  0
 34 35  2  0  0  0  0
 35 32  1  0  0  0  0
 36 33  1  0  0  0  0
 36 37  1  0  0  0  0
M  END
>  <MODEL>
4

>  <REMARK>
 VINA RESULT:      -8.2      3.818      7.265
  Name = 
  3 active torsions:
  status: ('A' for Active; 'I' for Inactive)
    1  A    between atoms: C_1  and  C_27
    2  A    between atoms: C_8  and  C_12
    3  A    between atoms: C_23  and  C_30
                            x       y       z     vdW  Elec       q    Type
                         _______ _______ _______ _____ _____    ______ ____

>  <TORSDO>
F 3

$$$$
=
 OpenBabel11112417313D

 37 44  0  0  1  0  0  0  0  0999 V2000
  191.1290  176.0120  147.6850 C   0  0  0  0  0  0  0  0  0  0  0  0
  191.7970  175.6740  144.0050 C   0  0  1  0  0  3  0  0  0  0  0  0
  189.3040  176.2270  141.9030 O   0  0  0  0  0  0  0  0  0  0  0  0
  192.8800  176.4120  146.2560 C   0  0  2  0  0  3  0  0  0  0  0  0
  190.2960  175.4110  143.9150 C   0  0  2  0  0  3  0  0  0  0  0  0
  191.8900  176.7160  145.1260 C   0  0  2  0  0  3  0  0  0  0  0  0
  189.7800  175.0590  142.5180 C   0  0  2  0  0  3  0  0  0  0  0  0
  194.1680  175.8660  145.6610 C   0  0  0  0  0  2  0  0  0  0  0  0
  190.4620  176.8910  145.6370 C   0  0  2  0  0  3  0  0  0  0  0  0
  191.2580  177.3020  148.1910 F   0  0  0  0  0  0  0  0  0  0  0  0
  192.7180  173.5360  143.0110 C   0  0  0  0  0  2  0  0  0  0  0  0
  193.9540  174.5620  144.8840 C   0  0  0  0  0  2  0  0  0  0  0  0
  190.1600  175.9540  146.6600 O   0  0  0  0  0  0  0  0  0  0  0  0
  187.2490  175.3240  142.7630 O   0  0  0  0  0  0  0  0  0  0  0  0
  187.8870  176.3280  142.0000 C   0  0  1  0  0  3  0  0  0  0  0  0
  192.5520  174.3610  144.2880 C   0  0  1  0  0  3  0  0  0  0  0  0
  189.6470  176.6120  144.4470 N   0  0  2  0  0  0  0  0  0  0  0  0
  192.3600  175.5120  147.2090 O   0  0  0  0  0  0  0  0  0  0  0  0
  190.7750  174.2940  141.6250 C   0  0  1  0  0  3  0  0  0  0  0  0
  190.7080  175.1980  148.7180 F   0  0  0  0  0  0  0  0  0  0  0  0
  187.3680  176.5810  143.3940 C   0  0  2  0  0  3  0  0  0  0  0  0
  188.2070  176.3730  144.6810 C   0  0  2  0  0  3  0  0  0  0  0  0
  191.3960  173.1210  142.3790 C   0  0  0  0  0  2  0  0  0  0  0  0
  188.9180  172.9230  140.5960 C   0  0  0  0  0  2  0  0  0  0  0  0
  190.1460  173.7870  140.3230 C   0  0  2  0  0  3  0  0  0  0  0  0
  191.1540  173.0610  139.4210 C   0  0  0  0  0  2  0  0  0  0  0  0
  191.1760  172.0270  137.2720 O   0  0  0  0  0  0  0  0  0  0  0  0
  189.0920  172.0640  138.3060 N   0  0  0  0  0  2  0  0  0  0  0  0
  190.4850  172.3890  138.2600 C   0  0  0  0  0  0  0  0  0  0  0  0
  188.1910  172.6670  139.2840 C   0  0  0  0  0  2  0  0  0  0  0  0
  187.6320  177.3150  145.7490 C   0  0  1  0  0  3  0  0  0  0  0  0
  186.2870  177.8200  145.3250 N   0  0  0  0  0  0  0  0  0  0  0  0
  186.5160  176.7590  146.3440 C   0  0  2  0  0  3  0  0  0  0  0  0
  185.9420  179.5130  143.7290 N   0  0  0  0  0  2  0  0  0  0  0  0
  185.4350  178.6630  144.5570 C   0  0  0  0  0  3  0  0  0  0  0  0
  186.3130  177.3440  147.7250 C   0  0  0  0  0  2  0  0  0  0  0  0
  186.6650  178.6800  147.7180 F   0  0  0  0  0  0  0  0  0  0  0  0
  1 10  1  0  0  0  0
  1 20  1  0  0  0  0
  2 16  1  0  0  0  0
  2  6  1  0  0  0  0
  3 15  1  0  0  0  0
  3  7  1  0  0  0  0
  4 18  1  0  0  0  0
  5  2  1  0  0  0  0
  5 17  1  0  0  0  0
  6  9  1  0  0  0  0
  6  4  1  0  0  0  0
  7  5  1  0  0  0  0
  8  4  1  0  0  0  0
  9 13  1  0  0  0  0
 11 16  1  0  0  0  0
 12  8  1  0  0  0  0
 13  1  1  0  0  0  0
 14 21  1  0  0  0  0
 15 14  1  0  0  0  0
 15 21  1  0  0  0  0
 16 12  1  0  0  0  0
 17 22  1  0  0  0  0
 17  9  1  0  0  0  0
 18  1  1  0  0  0  0
 19 23  1  0  0  0  0
 19  7  1  0  0  0  0
 21 22  1  0  0  0  0
 22 31  1  0  0  0  0
 23 11  1  0  0  0  0
 25 24  1  0  0  0  0
 25 19  1  0  0  0  0
 26 25  1  0  0  0  0
 27 29  2  0  0  0  0
 28 30  1  0  0  0  0
 29 28  1  0  0  0  0
 29 26  1  0  0  0  0
 30 24  1  0  0  0  0
 31 33  1  0  0  0  0
 32 31  1  0  0  0  0
 32 33  1  0  0  0  0
 33 36  1  0  0  0  0
 34 35  2  0  0  0  0
 35 32  1  0  0  0  0
 37 36  1  0  0  0  0
M  END
>  <MODEL>
5

>  <REMARK>
 VINA RESULT:      -8.1      2.232      2.960
  Name = 
  3 active torsions:
  status: ('A' for Active; 'I' for Inactive)
    1  A    between atoms: C_1  and  C_27
    2  A    between atoms: C_8  and  C_12
    3  A    between atoms: C_23  and  C_30
                            x       y       z     vdW  Elec       q    Type
                         _______ _______ _______ _____ _____    ______ ____

>  <TORSDO>
F 3

$$$$
=
 OpenBabel11112417313D

 37 44  0  0  1  0  0  0  0  0999 V2000
  193.4270  171.7110  141.3960 C   0  0  0  0  0  0  0  0  0  0  0  0
  191.1820  174.7100  141.6540 C   0  0  1  0  0  3  0  0  0  0  0  0
  191.6630  176.8170  144.1590 O   0  0  0  0  0  0  0  0  0  0  0  0
  192.3620  173.1370  139.9460 C   0  0  2  0  0  3  0  0  0  0  0  0
  191.5490  174.6630  143.1350 C   0  0  2  0  0  3  0  0  0  0  0  0
  192.4830  174.2710  140.9710 C   0  0  2  0  0  3  0  0  0  0  0  0
  190.8360  175.6920  144.0150 C   0  0  2  0  0  3  0  0  0  0  0  0
  191.1300  173.3670  139.0860 C   0  0  0  0  0  2  0  0  0  0  0  0
  193.4420  173.9260  142.1080 C   0  0  2  0  0  3  0  0  0  0  0  0
  194.6230  171.9270  140.7160 F   0  0  0  0  0  0  0  0  0  0  0  0
  188.6650  174.4810  141.7760 C   0  0  0  0  0  2  0  0  0  0  0  0
  189.8330  173.3790  139.9020 C   0  0  0  0  0  2  0  0  0  0  0  0
  193.3030  172.5700  142.5080 O   0  0  0  0  0  0  0  0  0  0  0  0
  192.1940  175.6280  146.1800 O   0  0  0  0  0  0  0  0  0  0  0  0
  192.3680  176.7910  145.3960 C   0  0  1  0  0  3  0  0  0  0  0  0
  189.9730  173.7990  141.3750 C   0  0  1  0  0  3  0  0  0  0  0  0
  193.0050  174.8150  143.1920 N   0  0  2  0  0  0  0  0  0  0  0  0
  192.3100  171.8630  140.5470 O   0  0  0  0  0  0  0  0  0  0  0  0
  189.4130  176.0700  143.5610 C   0  0  1  0  0  3  0  0  0  0  0  0
  193.4390  170.4100  141.8600 F   0  0  0  0  0  0  0  0  0  0  0  0
  193.4250  175.7190  145.4960 C   0  0  2  0  0  3  0  0  0  0  0  0
  193.5150  174.5000  144.5430 C   0  0  2  0  0  3  0  0  0  0  0  0
  188.5860  174.8230  143.2580 C   0  0  0  0  0  2  0  0  0  0  0  0
  188.2690  176.1350  145.8130 C   0  0  0  0  0  2  0  0  0  0  0  0
  188.6690  176.9400  144.5790 C   0  0  2  0  0  3  0  0  0  0  0  0
  187.4640  177.6690  143.9690 C   0  0  0  0  0  2  0  0  0  0  0  0
  185.8000  179.2260  144.6710 O   0  0  0  0  0  0  0  0  0  0  0  0
  186.6810  177.9160  146.3800 N   0  0  0  0  0  2  0  0  0  0  0  0
  186.6250  178.3400  145.0140 C   0  0  0  0  0  0  0  0  0  0  0  0
  187.7730  177.0920  146.8880 C   0  0  0  0  0  2  0  0  0  0  0  0
  194.9860  174.0580  144.5160 C   0  0  1  0  0  3  0  0  0  0  0  0
  195.8800  175.2440  144.3150 N   0  0  0  0  0  0  0  0  0  0  0  0
  195.6650  174.5490  145.6140 C   0  0  2  0  0  3  0  0  0  0  0  0
  196.2240  176.3170  142.2500 N   0  0  0  0  0  2  0  0  0  0  0  0
  196.4840  176.2530  143.5130 C   0  0  0  0  0  3  0  0  0  0  0  0
  196.8670  173.6800  145.9170 C   0  0  0  0  0  2  0  0  0  0  0  0
  197.1910  173.7910  147.2560 F   0  0  0  0  0  0  0  0  0  0  0  0
  1 20  1  0  0  0  0
  1 13  1  0  0  0  0
  2  5  1  0  0  0  0
  3 15  1  0  0  0  0
  4 18  1  0  0  0  0
  4  6  1  0  0  0  0
  5 17  1  0  0  0  0
  5  7  1  0  0  0  0
  6  2  1  0  0  0  0
  6  9  1  0  0  0  0
  7  3  1  0  0  0  0
  8 12  1  0  0  0  0
  8  4  1  0  0  0  0
  9 13  1  0  0  0  0
  9 17  1  0  0  0  0
 10  1  1  0  0  0  0
 11 23  1  0  0  0  0
 12 16  1  0  0  0  0
 15 21  1  0  0  0  0
 15 14  1  0  0  0  0
 16  2  1  0  0  0  0
 16 11  1  0  0  0  0
 17 22  1  0  0  0  0
 18  1  1  0  0  0  0
 19  7  1  0  0  0  0
 19 25  1  0  0  0  0
 21 14  1  0  0  0  0
 22 21  1  0  0  0  0
 23 19  1  0  0  0  0
 24 30  1  0  0  0  0
 25 24  1  0  0  0  0
 26 25  1  0  0  0  0
 26 29  1  0  0  0  0
 27 29  2  0  0  0  0
 28 30  1  0  0  0  0
 29 28  1  0  0  0  0
 31 22  1  0  0  0  0
 31 33  1  0  0  0  0
 32 31  1  0  0  0  0
 32 33  1  0  0  0  0
 33 36  1  0  0  0  0
 34 35  2  0  0  0  0
 35 32  1  0  0  0  0
 36 37  1  0  0  0  0
M  END
>  <MODEL>
6

>  <REMARK>
 VINA RESULT:      -7.8      4.818      8.790
  Name = 
  3 active torsions:
  status: ('A' for Active; 'I' for Inactive)
    1  A    between atoms: C_1  and  C_27
    2  A    between atoms: C_8  and  C_12
    3  A    between atoms: C_23  and  C_30
                            x       y       z     vdW  Elec       q    Type
                         _______ _______ _______ _____ _____    ______ ____

>  <TORSDO>
F 3

$$$$
=
 OpenBabel11112417313D

 37 44  0  0  1  0  0  0  0  0999 V2000
  191.1610  175.7140  147.2860 C   0  0  0  0  0  0  0  0  0  0  0  0
  191.9150  174.8120  143.7190 C   0  0  1  0  0  3  0  0  0  0  0  0
  189.5960  175.3920  141.4320 O   0  0  0  0  0  0  0  0  0  0  0  0
  193.0020  175.6980  145.9140 C   0  0  2  0  0  3  0  0  0  0  0  0
  190.3960  174.7300  143.5820 C   0  0  2  0  0  3  0  0  0  0  0  0
  192.1030  175.9730  144.7020 C   0  0  2  0  0  3  0  0  0  0  0  0
  189.8910  174.2650  142.2150 C   0  0  2  0  0  3  0  0  0  0  0  0
  194.2280  174.9200  145.4630 C   0  0  0  0  0  2  0  0  0  0  0  0
  190.6920  176.3920  145.1100 C   0  0  2  0  0  3  0  0  0  0  0  0
  191.4410  177.0330  147.6310 F   0  0  0  0  0  0  0  0  0  0  0  0
  192.5810  172.4620  143.0540 C   0  0  0  0  0  2  0  0  0  0  0  0
  193.8730  173.5630  144.8450 C   0  0  0  0  0  2  0  0  0  0  0  0
  190.2320  175.6440  146.2260 O   0  0  0  0  0  0  0  0  0  0  0  0
  187.4100  174.8770  142.2880 O   0  0  0  0  0  0  0  0  0  0  0  0
  188.2020  175.6830  141.4400 C   0  0  1  0  0  3  0  0  0  0  0  0
  192.4790  173.4630  144.2050 C   0  0  1  0  0  3  0  0  0  0  0  0
  189.8930  176.0630  143.9230 N   0  0  2  0  0  0  0  0  0  0  0  0
  192.3330  175.0050  146.9430 O   0  0  0  0  0  0  0  0  0  0  0  0
  190.8080  173.2700  141.4800 C   0  0  1  0  0  3  0  0  0  0  0  0
  190.5980  175.1030  148.3890 F   0  0  0  0  0  0  0  0  0  0  0  0
  187.6700  176.1810  142.7610 C   0  0  2  0  0  3  0  0  0  0  0  0
  188.4260  176.0410  144.1070 C   0  0  2  0  0  3  0  0  0  0  0  0
  191.2410  172.1370  142.4080 C   0  0  0  0  0  2  0  0  0  0  0  0
  190.5540  171.2140  140.0320 C   0  0  0  0  0  2  0  0  0  0  0  0
  190.1670  172.6780  140.2210 C   0  0  2  0  0  3  0  0  0  0  0  0
  190.4620  173.5040  138.9610 C   0  0  0  0  0  2  0  0  0  0  0  0
  189.8910  173.4610  136.6460 O   0  0  0  0  0  0  0  0  0  0  0  0
  189.8190  171.3880  137.6990 N   0  0  0  0  0  2  0  0  0  0  0  0
  190.0130  172.8060  137.7130 C   0  0  0  0  0  0  0  0  0  0  0  0
  189.6940  170.6140  138.9290 C   0  0  0  0  0  2  0  0  0  0  0  0
  187.9410  177.1810  145.0150 C   0  0  1  0  0  3  0  0  0  0  0  0
  186.4440  177.2240  145.0390 N   0  0  0  0  0  0  0  0  0  0  0  0
  187.2970  176.6790  146.1300 C   0  0  2  0  0  3  0  0  0  0  0  0
  185.1090  178.1070  143.3150 N   0  0  0  0  0  2  0  0  0  0  0  0
  185.1770  177.5430  144.4730 C   0  0  0  0  0  3  0  0  0  0  0  0
  187.3560  177.6820  147.2630 C   0  0  0  0  0  2  0  0  0  0  0  0
  188.6740  177.9690  147.5590 F   0  0  0  0  0  0  0  0  0  0  0  0
  1 10  1  0  0  0  0
  1 20  1  0  0  0  0
  2 16  1  0  0  0  0
  2  6  1  0  0  0  0
  3 15  1  0  0  0  0
  3  7  1  0  0  0  0
  4 18  1  0  0  0  0
  5  2  1  0  0  0  0
  5 17  1  0  0  0  0
  6  9  1  0  0  0  0
  6  4  1  0  0  0  0
  7  5  1  0  0  0  0
  8  4  1  0  0  0  0
  9 13  1  0  0  0  0
 11 16  1  0  0  0  0
 12  8  1  0  0  0  0
 13  1  1  0  0  0  0
 14 21  1  0  0  0  0
 15 14  1  0  0  0  0
 15 21  1  0  0  0  0
 16 12  1  0  0  0  0
 17 22  1  0  0  0  0
 17  9  1  0  0  0  0
 18  1  1  0  0  0  0
 19  7  1  0  0  0  0
 19 23  1  0  0  0  0
 21 22  1  0  0  0  0
 22 31  1  0  0  0  0
 23 11  1  0  0  0  0
 24 25  1  0  0  0  0
 25 19  1  0  0  0  0
 26 25  1  0  0  0  0
 27 29  2  0  0  0  0
 28 29  1  0  0  0  0
 28 30  1  0  0  0  0
 29 26  1  0  0  0  0
 30 24  1  0  0  0  0
 31 32  1  0  0  0  0
 31 33  1  0  0  0  0
 32 33  1  0  0  0  0
 33 36  1  0  0  0  0
 34 35  2  0  0  0  0
 35 32  1  0  0  0  0
 36 37  1  0  0  0  0
M  END
>  <MODEL>
7

>  <REMARK>
 VINA RESULT:      -7.7      2.324      3.256
  Name = 
  3 active torsions:
  status: ('A' for Active; 'I' for Inactive)
    1  A    between atoms: C_1  and  C_27
    2  A    between atoms: C_8  and  C_12
    3  A    between atoms: C_23  and  C_30
                            x       y       z     vdW  Elec       q    Type
                         _______ _______ _______ _____ _____    ______ ____

>  <TORSDO>
F 3

$$$$
=
 OpenBabel11112417313D

 37 44  0  0  1  0  0  0  0  0999 V2000
  190.3270  177.7860  144.6610 C   0  0  0  0  0  0  0  0  0  0  0  0
  189.2510  174.5330  143.1240 C   0  0  1  0  0  3  0  0  0  0  0  0
  191.3250  171.9610  143.2860 O   0  0  0  0  0  0  0  0  0  0  0  0
  188.3630  176.6280  144.3920 C   0  0  2  0  0  3  0  0  0  0  0  0
  190.7510  174.2640  143.0230 C   0  0  2  0  0  3  0  0  0  0  0  0
  189.1340  175.3040  144.4440 C   0  0  2  0  0  3  0  0  0  0  0  0
  191.1310  172.9600  142.3190 C   0  0  2  0  0  3  0  0  0  0  0  0
  187.1160  176.4480  143.5420 C   0  0  0  0  0  2  0  0  0  0  0  0
  190.5690  175.4880  144.9340 C   0  0  2  0  0  3  0  0  0  0  0  0
  190.0550  177.9130  146.0210 F   0  0  0  0  0  0  0  0  0  0  0  0
  188.5720  174.3720  140.6910 C   0  0  0  0  0  2  0  0  0  0  0  0
  187.4370  176.0540  142.0960 C   0  0  0  0  0  2  0  0  0  0  0  0
  191.1510  176.6700  144.4030 O   0  0  0  0  0  0  0  0  0  0  0  0
  193.5950  172.6760  142.9410 O   0  0  0  0  0  0  0  0  0  0  0  0
  192.7080  171.7790  143.5770 C   0  0  1  0  0  3  0  0  0  0  0  0
  188.7650  175.3080  141.8850 C   0  0  1  0  0  3  0  0  0  0  0  0
  191.2570  174.3070  144.3980 N   0  0  2  0  0  0  0  0  0  0  0  0
  189.1430  177.6940  143.8990 O   0  0  0  0  0  0  0  0  0  0  0  0
  190.1680  172.5120  141.2040 C   0  0  1  0  0  3  0  0  0  0  0  0
  191.0060  178.9200  144.2630 F   0  0  0  0  0  0  0  0  0  0  0  0
  193.3540  172.9290  144.3080 C   0  0  2  0  0  3  0  0  0  0  0  0
  192.7350  174.3460  144.4130 C   0  0  2  0  0  3  0  0  0  0  0  0
  189.8500  173.6670  140.2580 C   0  0  0  0  0  2  0  0  0  0  0  0
  192.1310  171.5580  139.9300 C   0  0  0  0  0  2  0  0  0  0  0  0
  190.6970  171.3220  140.3950 C   0  0  2  0  0  3  0  0  0  0  0  0
  189.7800  170.9470  139.2230 C   0  0  0  0  0  2  0  0  0  0  0  0
  189.6910  169.2910  137.5090 O   0  0  0  0  0  0  0  0  0  0  0  0
  191.8310  169.7510  138.2990 N   0  0  0  0  0  2  0  0  0  0  0  0
  190.4100  169.9300  138.3200 C   0  0  0  0  0  0  0  0  0  0  0  0
  192.6880  170.2590  139.3660 C   0  0  0  0  0  2  0  0  0  0  0  0
  193.2820  174.9810  145.7000 C   0  0  1  0  0  3  0  0  0  0  0  0
  194.7750  175.0860  145.6330 N   0  0  0  0  0  0  0  0  0  0  0  0
  193.8310  176.2220  145.4400 C   0  0  2  0  0  3  0  0  0  0  0  0
  196.2530  173.2870  145.9610 N   0  0  0  0  0  2  0  0  0  0  0  0
  196.0870  174.5410  145.7050 C   0  0  0  0  0  3  0  0  0  0  0  0
  193.8160  177.0740  146.6910 C   0  0  0  0  0  2  0  0  0  0  0  0
  192.6830  176.7910  147.4290 F   0  0  0  0  0  0  0  0  0  0  0  0
  1 10  1  0  0  0  0
  2  6  1  0  0  0  0
  3 15  1  0  0  0  0
  4  6  1  0  0  0  0
  5  2  1  0  0  0  0
  5 17  1  0  0  0  0
  6  9  1  0  0  0  0
  7  5  1  0  0  0  0
  7  3  1  0  0  0  0
  8  4  1  0  0  0  0
 11 16  1  0  0  0  0
 12  8  1  0  0  0  0
 13  1  1  0  0  0  0
 13  9  1  0  0  0  0
 14 15  1  0  0  0  0
 14 21  1  0  0  0  0
 15 21  1  0  0  0  0
 16 12  1  0  0  0  0
 16  2  1  0  0  0  0
 17 22  1  0  0  0  0
 17  9  1  0  0  0  0
 18  4  1  0  0  0  0
 18  1  1  0  0  0  0
 19  7  1  0  0  0  0
 20  1  1  0  0  0  0
 21 22  1  0  0  0  0
 22 31  1  0  0  0  0
 23 11  1  0  0  0  0
 23 19  1  0  0  0  0
 24 25  1  0  0  0  0
 25 19  1  0  0  0  0
 26 25  1  0  0  0  0
 27 29  2  0  0  0  0
 28 29  1  0  0  0  0
 28 30  1  0  0  0  0
 29 26  1  0  0  0  0
 30 24  1  0  0  0  0
 32 31  1  0  0  0  0
 32 35  1  0  0  0  0
 33 32  1  0  0  0  0
 33 31  1  0  0  0  0
 33 36  1  0  0  0  0
 35 34  2  0  0  0  0
 36 37  1  0  0  0  0
M  END
>  <MODEL>
8

>  <REMARK>
 VINA RESULT:      -7.5      3.435      6.409
  Name = 
  3 active torsions:
  status: ('A' for Active; 'I' for Inactive)
    1  A    between atoms: C_1  and  C_27
    2  A    between atoms: C_8  and  C_12
    3  A    between atoms: C_23  and  C_30
                            x       y       z     vdW  Elec       q    Type
                         _______ _______ _______ _____ _____    ______ ____

>  <TORSDO>
F 3

$$$$
=
 OpenBabel11112417313D

 37 44  0  0  1  0  0  0  0  0999 V2000
  190.7270  175.5560  146.8570 C   0  0  0  0  0  0  0  0  0  0  0  0
  192.0240  173.8800  143.7570 C   0  0  1  0  0  3  0  0  0  0  0  0
  189.9950  173.6070  141.1570 O   0  0  0  0  0  0  0  0  0  0  0  0
  192.7310  175.4020  145.7480 C   0  0  2  0  0  3  0  0  0  0  0  0
  190.5480  173.5980  143.4800 C   0  0  2  0  0  3  0  0  0  0  0  0
  191.9850  175.2630  144.4150 C   0  0  2  0  0  3  0  0  0  0  0  0
  190.2700  172.7520  142.2350 C   0  0  2  0  0  3  0  0  0  0  0  0
  194.0640  174.6770  145.6540 C   0  0  0  0  0  2  0  0  0  0  0  0
  190.5040  175.6110  144.5410 C   0  0  2  0  0  3  0  0  0  0  0  0
  190.8520  176.9430  146.8720 F   0  0  0  0  0  0  0  0  0  0  0  0
  192.9570  171.5270  143.8080 C   0  0  0  0  0  2  0  0  0  0  0  0
  193.9040  173.1780  145.3790 C   0  0  0  0  0  2  0  0  0  0  0  0
  189.9580  175.1200  145.7570 O   0  0  0  0  0  0  0  0  0  0  0  0
  187.7610  173.0840  141.8730 O   0  0  0  0  0  0  0  0  0  0  0  0
  188.5940  173.7340  140.9350 C   0  0  1  0  0  3  0  0  0  0  0  0
  192.6220  172.7660  144.6380 C   0  0  1  0  0  3  0  0  0  0  0  0
  189.9000  174.9100  143.4020 N   0  0  2  0  0  0  0  0  0  0  0  0
  191.9860  174.9190  146.8420 O   0  0  0  0  0  0  0  0  0  0  0  0
  191.3540  171.7130  141.8930 C   0  0  1  0  0  3  0  0  0  0  0  0
  190.0710  175.1820  148.0130 F   0  0  0  0  0  0  0  0  0  0  0  0
  187.8520  174.4850  142.0130 C   0  0  2  0  0  3  0  0  0  0  0  0
  188.4280  174.7710  143.4230 C   0  0  2  0  0  3  0  0  0  0  0  0
  191.7460  170.9040  143.1270 C   0  0  0  0  0  2  0  0  0  0  0  0
  191.1600  169.3000  141.1660 C   0  0  0  0  0  2  0  0  0  0  0  0
  190.9370  170.7570  140.7700 C   0  0  2  0  0  3  0  0  0  0  0  0
  191.6110  171.0860  139.4310 C   0  0  0  0  0  2  0  0  0  0  0  0
  191.5690  170.2790  137.1870 O   0  0  0  0  0  0  0  0  0  0  0  0
  190.9920  168.6980  138.7940 N   0  0  0  0  0  2  0  0  0  0  0  0
  191.3630  170.0240  138.4020 C   0  0  0  0  0  0  0  0  0  0  0  0
  190.4950  168.4010  140.1330 C   0  0  0  0  0  2  0  0  0  0  0  0
  187.7370  176.0410  143.9420 C   0  0  1  0  0  3  0  0  0  0  0  0
  187.5860  177.0380  142.8340 N   0  0  0  0  0  0  0  0  0  0  0  0
  186.4880  176.1870  143.3700 C   0  0  2  0  0  3  0  0  0  0  0  0
  189.3250  178.3910  142.0130 N   0  0  0  0  0  2  0  0  0  0  0  0
  188.0860  178.0370  141.9520 C   0  0  0  0  0  3  0  0  0  0  0  0
  185.5980  177.0260  144.2620 C   0  0  0  0  0  2  0  0  0  0  0  0
  185.5520  176.4680  145.5250 F   0  0  0  0  0  0  0  0  0  0  0  0
  1 10  1  0  0  0  0
  1 20  1  0  0  0  0
  2  6  1  0  0  0  0
  2 16  1  0  0  0  0
  3  7  1  0  0  0  0
  4 18  1  0  0  0  0
  5  2  1  0  0  0  0
  6  9  1  0  0  0  0
  6  4  1  0  0  0  0
  7  5  1  0  0  0  0
  8  4  1  0  0  0  0
  9 13  1  0  0  0  0
 11 16  1  0  0  0  0
 12  8  1  0  0  0  0
 13  1  1  0  0  0  0
 14 21  1  0  0  0  0
 15  3  1  0  0  0  0
 15 14  1  0  0  0  0
 15 21  1  0  0  0  0
 16 12  1  0  0  0  0
 17 22  1  0  0  0  0
 17  5  1  0  0  0  0
 17  9  1  0  0  0  0
 18  1  1  0  0  0  0
 19  7  1  0  0  0  0
 19 23  1  0  0  0  0
 21 22  1  0  0  0  0
 22 31  1  0  0  0  0
 23 11  1  0  0  0  0
 25 24  1  0  0  0  0
 25 19  1  0  0  0  0
 26 25  1  0  0  0  0
 27 29  2  0  0  0  0
 28 30  1  0  0  0  0
 29 28  1  0  0  0  0
 29 26  1  0  0  0  0
 30 24  1  0  0  0  0
 32 33  1  0  0  0  0
 32 31  1  0  0  0  0
 33 31  1  0  0  0  0
 33 36  1  0  0  0  0
 35 34  2  0  0  0  0
 35 32  1  0  0  0  0
 36 37  1  0  0  0  0
M  END
>  <MODEL>
9

>  <REMARK>
 VINA RESULT:      -7.4      2.481      3.580
  Name = 
  3 active torsions:
  status: ('A' for Active; 'I' for Inactive)
    1  A    between atoms: C_1  and  C_27
    2  A    between atoms: C_8  and  C_12
    3  A    between atoms: C_23  and  C_30
                            x       y       z     vdW  Elec       q    Type
                         _______ _______ _______ _____ _____    ______ ____

>  <TORSDO>
F 3

$$$$
