=
 OpenBabel11112417363D

 28 32  0  0  1  0  0  0  0  0999 V2000
  191.9240  176.2740  145.0290 C   0  0  0  0  0  0  0  0  0  0  0  0
  189.8870  174.2560  141.1540 C   0  0  0  0  0  1  0  0  0  0  0  0
  185.7750  177.4410  146.2230 O   0  0  0  0  0  0  0  0  0  0  0  0
  193.2540  176.0990  142.5670 C   0  0  0  0  0  3  0  0  0  0  0  0
  186.9470  178.3060  144.3740 N   0  0  0  0  0  0  0  0  0  0  0  0
  191.3180  176.4540  146.3790 C   0  0  0  0  0  2  0  0  0  0  0  0
  187.6760  174.1030  142.2110 C   0  0  0  0  0  1  0  0  0  0  0  0
  188.6550  175.0540  141.5270 C   0  0  0  0  0  0  0  0  0  0  0  0
  187.0830  176.5550  140.6030 C   0  0  2  0  0  3  0  0  0  0  0  0
  189.0290  176.2260  142.4410 C   0  0  1  0  0  3  0  0  0  0  0  0
  188.7830  174.1890  147.6930 O   0  0  0  0  0  0  0  0  0  0  0  0
  188.9720  177.1120  144.6540 C   0  0  1  0  0  3  0  0  0  0  0  0
  187.5840  177.6010  141.4160 O   0  0  0  0  0  0  0  0  0  0  0  0
  188.0860  175.5760  140.3270 O   0  0  0  0  0  0  0  0  0  0  0  0
  189.3000  175.2400  147.2320 C   0  0  0  0  0  0  0  0  0  0  0  0
  191.1590  176.1400  143.8350 C   0  0  0  0  0  0  0  0  0  0  0  0
  186.8000  177.4510  145.4890 C   0  0  0  0  0  0  0  0  0  0  0  0
  186.5680  177.1310  139.3010 C   0  0  0  0  0  1  0  0  0  0  0  0
  188.4560  176.4610  147.0550 C   0  0  0  0  0  2  0  0  0  0  0  0
  191.8610  176.0510  142.6170 C   0  0  0  0  0  3  0  0  0  0  0  0
  193.3210  176.3230  144.9660 C   0  0  0  0  0  3  0  0  0  0  0  0
  193.9850  176.2330  143.7440 C   0  0  0  0  0  3  0  0  0  0  0  0
  190.6690  175.2330  146.8260 N   0  0  0  0  0  2  0  0  0  0  0  0
  188.1550  177.9490  143.6520 C   0  0  1  0  0  3  0  0  0  0  0  0
  187.9360  176.5160  145.6280 C   0  0  2  0  0  3  0  0  0  0  0  0
  187.8240  177.0010  142.6080 N   0  0  2  0  0  0  0  0  0  0  0  0
  185.8880  179.1390  143.8290 C   0  0  0  0  0  1  0  0  0  0  0  0
  189.6340  176.0000  143.8330 C   0  0  2  0  0  3  0  0  0  0  0  0
  1  6  1  0  0  0  0
  2  8  1  0  0  0  0
  4 20  2  0  0  0  0
  4 22  1  0  0  0  0
  5 17  1  0  0  0  0
  6 23  1  0  0  0  0
  8  7  1  0  0  0  0
  9 18  1  6  0  0  0
  9 13  1  0  0  0  0
 10  8  1  1  0  0  0
 10 26  1  0  0  0  0
 10 28  1  0  0  0  0
 12 25  1  0  0  0  0
 13 26  1  0  0  0  0
 14  9  1  0  0  0  0
 14  8  1  0  0  0  0
 15 11  2  0  0  0  0
 16  1  2  0  0  0  0
 17 25  1  0  0  0  0
 17  3  2  0  0  0  0
 19 15  1  0  0  0  0
 20 16  1  0  0  0  0
 21  1  1  0  0  0  0
 22 21  2  0  0  0  0
 23 15  1  0  0  0  0
 24  5  1  0  0  0  0
 24 12  1  0  0  0  0
 25 19  1  0  0  0  0
 26 24  1  0  0  0  0
 27  5  1  0  0  0  0
 28 16  1  0  0  0  0
 28 12  1  0  0  0  0
M  END
>  <MODEL>
1

>  <REMARK>
 VINA RESULT:      -8.5      0.000      0.000
  Name = 
  0 active torsions:
  status: ('A' for Active; 'I' for Inactive)
                            x       y       z     vdW  Elec       q    Type
                         _______ _______ _______ _____ _____    ______ ____

>  <TORSDO>
F 0

$$$$
=
 OpenBabel11112417363D

 28 32  0  0  1  0  0  0  0  0999 V2000
  189.7630  176.3470  145.6460 C   0  0  0  0  0  0  0  0  0  0  0  0
  189.4070  172.1900  143.2320 C   0  0  0  0  0  1  0  0  0  0  0  0
  184.8080  177.6400  141.8550 O   0  0  0  0  0  0  0  0  0  0  0  0
  191.9860  174.7070  145.1680 C   0  0  0  0  0  3  0  0  0  0  0  0
  186.9800  177.1770  141.0750 N   0  0  0  0  0  0  0  0  0  0  0  0
  188.6710  177.3190  145.9410 C   0  0  0  0  0  2  0  0  0  0  0  0
  187.0940  172.6230  142.5310 C   0  0  0  0  0  1  0  0  0  0  0  0
  188.5540  172.9650  142.2490 C   0  0  0  0  0  0  0  0  0  0  0  0
  188.3590  173.4200  139.9400 C   0  0  2  0  0  3  0  0  0  0  0  0
  188.8140  174.4700  142.3820 C   0  0  1  0  0  3  0  0  0  0  0  0
  185.1950  176.2880  146.3060 O   0  0  0  0  0  0  0  0  0  0  0  0
  187.9700  176.5680  143.1380 C   0  0  1  0  0  3  0  0  0  0  0  0
  188.7200  174.7720  140.1620 O   0  0  0  0  0  0  0  0  0  0  0  0
  188.9160  172.5560  140.9310 O   0  0  0  0  0  0  0  0  0  0  0  0
  186.2200  176.8220  145.8090 C   0  0  0  0  0  0  0  0  0  0  0  0
  189.7270  175.4300  144.5570 C   0  0  0  0  0  0  0  0  0  0  0  0
  185.9820  177.2350  142.0730 C   0  0  0  0  0  0  0  0  0  0  0  0
  188.8340  172.9890  138.5690 C   0  0  0  0  0  1  0  0  0  0  0  0
  186.1050  177.5890  144.5300 C   0  0  0  0  0  2  0  0  0  0  0  0
  190.8590  174.6190  144.3500 C   0  0  0  0  0  3  0  0  0  0  0  0
  190.8990  176.4270  146.4600 C   0  0  0  0  0  3  0  0  0  0  0  0
  192.0040  175.6110  146.2260 C   0  0  0  0  0  3  0  0  0  0  0  0
  187.4880  176.6380  146.4380 N   0  0  0  0  0  2  0  0  0  0  0  0
  188.1540  176.5120  141.6100 C   0  0  1  0  0  3  0  0  0  0  0  0
  186.4490  176.6800  143.3610 C   0  0  2  0  0  3  0  0  0  0  0  0
  188.0780  175.0960  141.3110 N   0  0  2  0  0  0  0  0  0  0  0  0
  186.7430  177.3980  139.6590 C   0  0  0  0  0  1  0  0  0  0  0  0
  188.4910  175.2310  143.6750 C   0  0  2  0  0  3  0  0  0  0  0  0
  1  6  1  0  0  0  0
  1 21  1  0  0  0  0
  3 17  2  0  0  0  0
  4 22  1  0  0  0  0
  5 24  1  0  0  0  0
  5 17  1  0  0  0  0
  6 23  1  0  0  0  0
  8  7  1  0  0  0  0
  8  2  1  0  0  0  0
  9 18  1  6  0  0  0
  9 13  1  0  0  0  0
  9 14  1  0  0  0  0
 10  8  1  1  0  0  0
 10 28  1  0  0  0  0
 12 25  1  0  0  0  0
 12 28  1  0  0  0  0
 13 26  1  0  0  0  0
 14  8  1  0  0  0  0
 15 11  2  0  0  0  0
 15 23  1  0  0  0  0
 16  1  2  0  0  0  0
 17 25  1  0  0  0  0
 19 15  1  0  0  0  0
 20 16  1  0  0  0  0
 20  4  2  0  0  0  0
 22 21  2  0  0  0  0
 24 12  1  0  0  0  0
 25 19  1  0  0  0  0
 26 24  1  0  0  0  0
 26 10  1  0  0  0  0
 27  5  1  0  0  0  0
 28 16  1  0  0  0  0
M  END
>  <MODEL>
2

>  <REMARK>
 VINA RESULT:      -8.1      1.986      3.135
  Name = 
  0 active torsions:
  status: ('A' for Active; 'I' for Inactive)
                            x       y       z     vdW  Elec       q    Type
                         _______ _______ _______ _____ _____    ______ ____

>  <TORSDO>
F 0

$$$$
=
 OpenBabel11112417363D

 28 32  0  0  1  0  0  0  0  0999 V2000
  188.5890  173.6800  142.4490 C   0  0  0  0  0  0  0  0  0  0  0  0
  192.5300  175.5690  144.4840 C   0  0  0  0  0  1  0  0  0  0  0  0
  186.1920  179.1030  144.7790 O   0  0  0  0  0  0  0  0  0  0  0  0
  190.6630  172.0800  143.4480 C   0  0  0  0  0  3  0  0  0  0  0  0
  187.1000  177.3850  146.1060 N   0  0  0  0  0  0  0  0  0  0  0  0
  187.4100  174.4140  141.9070 C   0  0  0  0  0  2  0  0  0  0  0  0
  191.5950  177.8390  144.5380 C   0  0  0  0  0  1  0  0  0  0  0  0
  191.5720  176.4770  145.2270 C   0  0  0  0  0  0  0  0  0  0  0  0
  191.0460  177.2080  147.4100 C   0  0  2  0  0  3  0  0  0  0  0  0
  190.1610  175.8780  145.2370 C   0  0  1  0  0  3  0  0  0  0  0  0
  187.6710  177.7860  140.5520 O   0  0  0  0  0  0  0  0  0  0  0  0
  187.9430  176.0120  144.3710 C   0  0  1  0  0  3  0  0  0  0  0  0
  189.8080  176.5210  147.3570 O   0  0  0  0  0  0  0  0  0  0  0  0
  192.0270  176.5930  146.5740 O   0  0  0  0  0  0  0  0  0  0  0  0
  187.3630  176.8520  141.3360 C   0  0  0  0  0  0  0  0  0  0  0  0
  189.4580  174.2120  143.4440 C   0  0  0  0  0  0  0  0  0  0  0  0
  186.8440  178.0290  144.8750 C   0  0  0  0  0  0  0  0  0  0  0  0
  191.5460  177.2370  148.8380 C   0  0  0  0  0  1  0  0  0  0  0  0
  186.5670  177.1530  142.5660 C   0  0  0  0  0  2  0  0  0  0  0  0
  190.4910  173.3810  143.9200 C   0  0  0  0  0  3  0  0  0  0  0  0
  188.7700  172.3720  141.9850 C   0  0  0  0  0  3  0  0  0  0  0  0
  189.8020  171.5750  142.4770 C   0  0  0  0  0  3  0  0  0  0  0  0
  187.8280  175.5280  141.0730 N   0  0  0  0  0  2  0  0  0  0  0  0
  188.0120  176.2780  145.8880 C   0  0  1  0  0  3  0  0  0  0  0  0
  187.5090  177.3510  143.7420 C   0  0  2  0  0  3  0  0  0  0  0  0
  189.3720  176.7330  146.0910 N   0  0  2  0  0  0  0  0  0  0  0  0
  186.8090  177.9560  147.4110 C   0  0  0  0  0  1  0  0  0  0  0  0
  189.3710  175.6580  143.9410 C   0  0  2  0  0  3  0  0  0  0  0  0
  1 16  1  0  0  0  0
  2  8  1  0  0  0  0
  3 17  2  0  0  0  0
  4 20  1  0  0  0  0
  5 27  1  0  0  0  0
  6  1  1  0  0  0  0
  7  8  1  0  0  0  0
  8 14  1  0  0  0  0
  9 18  1  1  0  0  0
 10  8  1  6  0  0  0
 10 26  1  0  0  0  0
 11 15  2  0  0  0  0
 12 24  1  0  0  0  0
 13  9  1  0  0  0  0
 14  9  1  0  0  0  0
 15 19  1  0  0  0  0
 16 20  2  0  0  0  0
 16 28  1  0  0  0  0
 17  5  1  0  0  0  0
 19 25  1  0  0  0  0
 21  1  2  0  0  0  0
 21 22  1  0  0  0  0
 22  4  2  0  0  0  0
 23 15  1  0  0  0  0
 23  6  1  0  0  0  0
 24 26  1  0  0  0  0
 24  5  1  0  0  0  0
 25 12  1  0  0  0  0
 25 17  1  0  0  0  0
 26 13  1  0  0  0  0
 28 12  1  0  0  0  0
 28 10  1  0  0  0  0
M  END
>  <MODEL>
3

>  <REMARK>
 VINA RESULT:      -7.8      1.950      5.278
  Name = 
  0 active torsions:
  status: ('A' for Active; 'I' for Inactive)
                            x       y       z     vdW  Elec       q    Type
                         _______ _______ _______ _____ _____    ______ ____

>  <TORSDO>
F 0

$$$$
=
 OpenBabel11112417363D

 28 32  0  0  1  0  0  0  0  0999 V2000
  187.4840  176.7790  142.0850 C   0  0  0  0  0  0  0  0  0  0  0  0
  187.3560  176.4940  146.8950 C   0  0  0  0  0  1  0  0  0  0  0  0
  192.8580  173.5390  143.1890 O   0  0  0  0  0  0  0  0  0  0  0  0
  186.2310  178.7300  143.6600 C   0  0  0  0  0  3  0  0  0  0  0  0
  192.4640  175.7340  143.9390 N   0  0  0  0  0  0  0  0  0  0  0  0
  188.1390  175.8290  141.1400 C   0  0  0  0  0  2  0  0  0  0  0  0
  188.9410  174.6210  146.9760 C   0  0  0  0  0  1  0  0  0  0  0  0
  188.8240  176.1320  146.8000 C   0  0  0  0  0  0  0  0  0  0  0  0
  190.9320  176.7430  147.6720 C   0  0  2  0  0  3  0  0  0  0  0  0
  189.4030  176.5880  145.4550 C   0  0  1  0  0  3  0  0  0  0  0  0
  188.5470  172.2910  141.9060 O   0  0  0  0  0  0  0  0  0  0  0  0
  190.1900  175.9170  143.3060 C   0  0  1  0  0  3  0  0  0  0  0  0
  191.3270  177.2400  146.4060 O   0  0  0  0  0  0  0  0  0  0  0  0
  189.5160  176.8110  147.8470 O   0  0  0  0  0  0  0  0  0  0  0  0
  188.8500  173.4940  141.6970 C   0  0  0  0  0  0  0  0  0  0  0  0
  187.8760  176.9290  143.4460 C   0  0  0  0  0  0  0  0  0  0  0  0
  192.0660  174.5010  143.3780 C   0  0  0  0  0  0  0  0  0  0  0  0
  191.6140  177.5410  148.7630 C   0  0  0  0  0  1  0  0  0  0  0  0
  190.2850  173.9130  141.7480 C   0  0  0  0  0  2  0  0  0  0  0  0
  187.2220  177.9160  144.2080 C   0  0  0  0  0  3  0  0  0  0  0  0
  186.4900  177.6030  141.5460 C   0  0  0  0  0  3  0  0  0  0  0  0
  185.8620  178.5710  142.3270 C   0  0  0  0  0  3  0  0  0  0  0  0
  187.8160  174.4530  141.4760 N   0  0  0  0  0  2  0  0  0  0  0  0
  191.2910  176.5550  144.1760 C   0  0  1  0  0  3  0  0  0  0  0  0
  190.6090  174.4430  143.1350 C   0  0  2  0  0  3  0  0  0  0  0  0
  190.8220  176.3370  145.5290 N   0  0  2  0  0  0  0  0  0  0  0  0
  193.7690  175.9890  144.5270 C   0  0  0  0  0  1  0  0  0  0  0  0
  188.8990  176.0130  144.1260 C   0  0  2  0  0  3  0  0  0  0  0  0
  1 16  1  0  0  0  0
  3 17  2  0  0  0  0
  4 20  1  0  0  0  0
  5 24  1  0  0  0  0
  5 27  1  0  0  0  0
  6 23  1  0  0  0  0
  6  1  1  0  0  0  0
  8  2  1  0  0  0  0
  8  7  1  0  0  0  0
  8 14  1  0  0  0  0
  9 14  1  0  0  0  0
  9 18  1  1  0  0  0
 10 26  1  0  0  0  0
 10  8  1  1  0  0  0
 12 28  1  0  0  0  0
 12 24  1  0  0  0  0
 13  9  1  0  0  0  0
 15 19  1  0  0  0  0
 15 11  2  0  0  0  0
 16 28  1  0  0  0  0
 16 20  2  0  0  0  0
 17  5  1  0  0  0  0
 19 25  1  0  0  0  0
 21  1  2  0  0  0  0
 21 22  1  0  0  0  0
 22  4  2  0  0  0  0
 23 15  1  0  0  0  0
 24 26  1  0  0  0  0
 25 12  1  0  0  0  0
 25 17  1  0  0  0  0
 26 13  1  0  0  0  0
 28 10  1  0  0  0  0
M  END
>  <MODEL>
4

>  <REMARK>
 VINA RESULT:      -7.8      2.164      6.290
  Name = 
  0 active torsions:
  status: ('A' for Active; 'I' for Inactive)
                            x       y       z     vdW  Elec       q    Type
                         _______ _______ _______ _____ _____    ______ ____

>  <TORSDO>
F 0

$$$$
=
 OpenBabel11112417363D

 28 32  0  0  1  0  0  0  0  0999 V2000
  191.1370  176.6100  144.7960 C   0  0  0  0  0  0  0  0  0  0  0  0
  190.3530  172.4240  142.5370 C   0  0  0  0  0  1  0  0  0  0  0  0
  185.1290  177.4600  142.8540 O   0  0  0  0  0  0  0  0  0  0  0  0
  193.2080  175.1600  143.5840 C   0  0  0  0  0  3  0  0  0  0  0  0
  186.9570  177.1770  141.4000 N   0  0  0  0  0  0  0  0  0  0  0  0
  190.1260  177.4870  145.4520 C   0  0  0  0  0  2  0  0  0  0  0  0
  187.9110  172.6570  142.6370 C   0  0  0  0  0  1  0  0  0  0  0  0
  189.1660  173.1190  141.9030 C   0  0  0  0  0  0  0  0  0  0  0  0
  188.1910  173.5440  139.7940 C   0  0  2  0  0  3  0  0  0  0  0  0
  189.3310  174.6420  141.9780 C   0  0  1  0  0  3  0  0  0  0  0  0
  187.0550  176.1700  146.9050 O   0  0  0  0  0  0  0  0  0  0  0  0
  188.6120  176.6650  143.0140 C   0  0  1  0  0  3  0  0  0  0  0  0
  188.4940  174.9220  139.9160 O   0  0  0  0  0  0  0  0  0  0  0  0
  189.1100  172.7350  140.5300 O   0  0  0  0  0  0  0  0  0  0  0  0
  187.8150  176.7860  146.1130 C   0  0  0  0  0  0  0  0  0  0  0  0
  190.8230  175.6870  143.7580 C   0  0  0  0  0  0  0  0  0  0  0  0
  186.3380  177.1570  142.6690 C   0  0  0  0  0  0  0  0  0  0  0  0
  188.2270  173.1470  138.3330 C   0  0  0  0  0  1  0  0  0  0  0  0
  187.2270  177.5330  144.9590 C   0  0  0  0  0  2  0  0  0  0  0  0
  191.8870  174.9730  143.1750 C   0  0  0  0  0  3  0  0  0  0  0  0
  192.4660  176.7900  145.1970 C   0  0  0  0  0  3  0  0  0  0  0  0
  193.4970  176.0680  144.5980 C   0  0  0  0  0  3  0  0  0  0  0  0
  189.2290  176.7120  146.2910 N   0  0  0  0  0  2  0  0  0  0  0  0
  188.2920  176.6170  141.5070 C   0  0  1  0  0  3  0  0  0  0  0  0
  187.2430  176.6500  143.7220 C   0  0  2  0  0  3  0  0  0  0  0  0
  188.2370  175.1980  141.2180 N   0  0  2  0  0  0  0  0  0  0  0  0
  186.2540  177.3690  140.1420 C   0  0  0  0  0  1  0  0  0  0  0  0
  189.3870  175.3800  143.3210 C   0  0  2  0  0  3  0  0  0  0  0  0
  1 21  1  0  0  0  0
  1  6  1  0  0  0  0
  4 22  1  0  0  0  0
  5 24  1  0  0  0  0
  5 17  1  0  0  0  0
  6 23  1  0  0  0  0
  8  2  1  0  0  0  0
  8  7  1  0  0  0  0
  9 18  1  6  0  0  0
  9 13  1  0  0  0  0
  9 14  1  0  0  0  0
 10  8  1  1  0  0  0
 10 28  1  0  0  0  0
 12 28  1  0  0  0  0
 12 25  1  0  0  0  0
 13 26  1  0  0  0  0
 14  8  1  0  0  0  0
 15 23  1  0  0  0  0
 15 11  2  0  0  0  0
 16  1  2  0  0  0  0
 17  3  2  0  0  0  0
 17 25  1  0  0  0  0
 19 15  1  0  0  0  0
 20  4  2  0  0  0  0
 20 16  1  0  0  0  0
 22 21  2  0  0  0  0
 24 12  1  0  0  0  0
 25 19  1  0  0  0  0
 26 24  1  0  0  0  0
 26 10  1  0  0  0  0
 27  5  1  0  0  0  0
 28 16  1  0  0  0  0
M  END
>  <MODEL>
5

>  <REMARK>
 VINA RESULT:      -7.7      1.705      2.436
  Name = 
  0 active torsions:
  status: ('A' for Active; 'I' for Inactive)
                            x       y       z     vdW  Elec       q    Type
                         _______ _______ _______ _____ _____    ______ ____

>  <TORSDO>
F 0

$$$$
=
 OpenBabel11112417363D

 28 32  0  0  1  0  0  0  0  0999 V2000
  187.5590  176.5130  142.9600 C   0  0  0  0  0  0  0  0  0  0  0  0
  189.8620  175.9820  147.1610 C   0  0  0  0  0  1  0  0  0  0  0  0
  192.9550  173.7690  140.9740 O   0  0  0  0  0  0  0  0  0  0  0  0
  187.1390  178.2510  145.1190 C   0  0  0  0  0  3  0  0  0  0  0  0
  192.8530  175.8760  142.0180 N   0  0  0  0  0  0  0  0  0  0  0  0
  187.7120  175.6800  141.7330 C   0  0  0  0  0  2  0  0  0  0  0  0
  191.3880  174.2730  146.2790 C   0  0  0  0  0  1  0  0  0  0  0  0
  191.1060  175.7720  146.3230 C   0  0  0  0  0  0  0  0  0  0  0  0
  193.3260  176.5450  146.0960 C   0  0  2  0  0  3  0  0  0  0  0  0
  190.9090  176.3480  144.9150 C   0  0  1  0  0  3  0  0  0  0  0  0
  188.6640  172.1660  141.8710 O   0  0  0  0  0  0  0  0  0  0  0  0
  190.5600  175.8640  142.6070 C   0  0  1  0  0  3  0  0  0  0  0  0
  193.0060  177.1400  144.8510 O   0  0  0  0  0  0  0  0  0  0  0  0
  192.1840  176.4640  146.9510 O   0  0  0  0  0  0  0  0  0  0  0  0
  188.7480  173.4020  141.6510 C   0  0  0  0  0  0  0  0  0  0  0  0
  188.5660  176.6340  143.9590 C   0  0  0  0  0  0  0  0  0  0  0  0
  192.3050  174.6380  141.6150 C   0  0  0  0  0  0  0  0  0  0  0  0
  194.4100  177.3510  146.7780 C   0  0  0  0  0  1  0  0  0  0  0  0
  189.9880  173.9580  141.0270 C   0  0  0  0  0  2  0  0  0  0  0  0
  188.3200  177.5130  145.0310 C   0  0  0  0  0  3  0  0  0  0  0  0
  186.3790  177.2600  143.0580 C   0  0  0  0  0  3  0  0  0  0  0  0
  186.1660  178.1230  144.1320 C   0  0  0  0  0  3  0  0  0  0  0  0
  187.6850  174.2640  142.0570 N   0  0  0  0  0  2  0  0  0  0  0  0
  191.9060  176.5640  142.8760 C   0  0  1  0  0  3  0  0  0  0  0  0
  190.9270  174.4490  142.1170 C   0  0  2  0  0  3  0  0  0  0  0  0
  192.1890  176.2350  144.2580 N   0  0  2  0  0  0  0  0  0  0  0  0
  194.2590  176.2300  141.9080 C   0  0  0  0  0  1  0  0  0  0  0  0
  189.8450  175.7910  143.9600 C   0  0  2  0  0  3  0  0  0  0  0  0
  1 21  2  0  0  0  0
  1 16  1  0  0  0  0
  3 17  2  0  0  0  0
  5 24  1  0  0  0  0
  6 23  1  0  0  0  0
  6  1  1  0  0  0  0
  7  8  1  0  0  0  0
  8 14  1  0  0  0  0
  8  2  1  0  0  0  0
  9 18  1  1  0  0  0
  9 14  1  0  0  0  0
 10  8  1  1  0  0  0
 12 24  1  0  0  0  0
 12 28  1  0  0  0  0
 13  9  1  0  0  0  0
 15 11  2  0  0  0  0
 15 23  1  0  0  0  0
 16 28  1  0  0  0  0
 16 20  2  0  0  0  0
 17  5  1  0  0  0  0
 17 25  1  0  0  0  0
 19 15  1  0  0  0  0
 19 25  1  0  0  0  0
 20  4  1  0  0  0  0
 21 22  1  0  0  0  0
 22  4  2  0  0  0  0
 24 26  1  0  0  0  0
 25 12  1  0  0  0  0
 26 13  1  0  0  0  0
 26 10  1  0  0  0  0
 27  5  1  0  0  0  0
 28 10  1  0  0  0  0
M  END
>  <MODEL>
6

>  <REMARK>
 VINA RESULT:      -7.6      2.547      6.403
  Name = 
  0 active torsions:
  status: ('A' for Active; 'I' for Inactive)
                            x       y       z     vdW  Elec       q    Type
                         _______ _______ _______ _____ _____    ______ ____

>  <TORSDO>
F 0

$$$$
=
 OpenBabel11112417363D

 28 32  0  0  1  0  0  0  0  0999 V2000
  192.7800  175.5300  145.9890 C   0  0  0  0  0  0  0  0  0  0  0  0
  192.3150  171.6880  143.1150 C   0  0  0  0  0  1  0  0  0  0  0  0
  186.7760  176.3020  144.0000 O   0  0  0  0  0  0  0  0  0  0  0  0
  194.9660  174.4020  144.6440 C   0  0  0  0  0  3  0  0  0  0  0  0
  188.6520  176.3470  142.5800 N   0  0  0  0  0  0  0  0  0  0  0  0
  191.7000  176.2380  146.7340 C   0  0  0  0  0  2  0  0  0  0  0  0
  189.8610  171.7580  143.1690 C   0  0  0  0  0  1  0  0  0  0  0  0
  191.1010  172.3980  142.5520 C   0  0  0  0  0  0  0  0  0  0  0  0
  190.1510  173.0730  140.4980 C   0  0  2  0  0  3  0  0  0  0  0  0
  191.1680  173.9000  142.8550 C   0  0  1  0  0  3  0  0  0  0  0  0
  188.6860  174.5390  147.8770 O   0  0  0  0  0  0  0  0  0  0  0  0
  190.2980  175.7000  144.1540 C   0  0  1  0  0  3  0  0  0  0  0  0
  190.3630  174.4340  140.8310 O   0  0  0  0  0  0  0  0  0  0  0  0
  191.1020  172.2200  141.1360 O   0  0  0  0  0  0  0  0  0  0  0  0
  189.4230  175.3100  147.2100 C   0  0  0  0  0  0  0  0  0  0  0  0
  192.5480  174.7550  144.8170 C   0  0  0  0  0  0  0  0  0  0  0  0
  188.0070  176.1020  143.8120 C   0  0  0  0  0  0  0  0  0  0  0  0
  190.2450  172.9010  138.9970 C   0  0  0  0  0  1  0  0  0  0  0  0
  188.8160  176.1850  146.1600 C   0  0  0  0  0  2  0  0  0  0  0  0
  193.6700  174.2000  144.1700 C   0  0  0  0  0  3  0  0  0  0  0  0
  194.0850  175.7260  146.4550 C   0  0  0  0  0  3  0  0  0  0  0  0
  195.1730  175.1640  145.7900 C   0  0  0  0  0  3  0  0  0  0  0  0
  190.8350  175.2950  147.4210 N   0  0  0  0  0  2  0  0  0  0  0  0
  190.0160  175.8570  142.6480 C   0  0  1  0  0  3  0  0  0  0  0  0
  188.9170  175.4980  144.8080 C   0  0  2  0  0  3  0  0  0  0  0  0
  190.0590  174.4970  142.1510 N   0  0  2  0  0  0  0  0  0  0  0  0
  187.9670  176.6830  141.3430 C   0  0  0  0  0  1  0  0  0  0  0  0
  191.1460  174.4310  144.2940 C   0  0  2  0  0  3  0  0  0  0  0  0
  1 21  1  0  0  0  0
  1  6  1  0  0  0  0
  4 22  1  0  0  0  0
  5 24  1  0  0  0  0
  5 17  1  0  0  0  0
  6 23  1  0  0  0  0
  8  2  1  0  0  0  0
  8  7  1  0  0  0  0
  9 18  1  6  0  0  0
  9 13  1  0  0  0  0
  9 14  1  0  0  0  0
 10  8  1  1  0  0  0
 10 28  1  0  0  0  0
 12 28  1  0  0  0  0
 12 25  1  0  0  0  0
 13 26  1  0  0  0  0
 14  8  1  0  0  0  0
 15 23  1  0  0  0  0
 15 11  2  0  0  0  0
 16  1  2  0  0  0  0
 17  3  2  0  0  0  0
 17 25  1  0  0  0  0
 19 15  1  0  0  0  0
 20  4  2  0  0  0  0
 20 16  1  0  0  0  0
 22 21  2  0  0  0  0
 24 12  1  0  0  0  0
 25 19  1  0  0  0  0
 26 24  1  0  0  0  0
 26 10  1  0  0  0  0
 27  5  1  0  0  0  0
 28 16  1  0  0  0  0
M  END
>  <MODEL>
7

>  <REMARK>
 VINA RESULT:      -7.5      2.152      3.011
  Name = 
  0 active torsions:
  status: ('A' for Active; 'I' for Inactive)
                            x       y       z     vdW  Elec       q    Type
                         _______ _______ _______ _____ _____    ______ ____

>  <TORSDO>
F 0

$$$$
=
 OpenBabel11112417363D

 28 32  0  0  1  0  0  0  0  0999 V2000
  187.4540  176.3200  146.5240 C   0  0  0  0  0  0  0  0  0  0  0  0
  186.7510  179.1100  142.6560 C   0  0  0  0  0  1  0  0  0  0  0  0
  191.7410  173.8350  142.5190 O   0  0  0  0  0  0  0  0  0  0  0  0
  184.9700  177.4920  145.9640 C   0  0  0  0  0  3  0  0  0  0  0  0
  189.4180  173.8150  142.1430 N   0  0  0  0  0  0  0  0  0  0  0  0
  188.7100  175.6190  146.9180 C   0  0  0  0  0  2  0  0  0  0  0  0
  188.9290  178.5490  141.6710 C   0  0  0  0  0  1  0  0  0  0  0  0
  187.5060  178.0430  141.8900 C   0  0  0  0  0  0  0  0  0  0  0  0
  187.3270  176.6800  139.9700 C   0  0  2  0  0  3  0  0  0  0  0  0
  187.4940  176.7180  142.6610 C   0  0  1  0  0  3  0  0  0  0  0  0
  192.0080  176.8920  146.0360 O   0  0  0  0  0  0  0  0  0  0  0  0
  188.7570  175.1720  143.9660 C   0  0  1  0  0  3  0  0  0  0  0  0
  187.2110  175.5260  140.7830 O   0  0  0  0  0  0  0  0  0  0  0  0
  186.8480  177.8480  140.6400 O   0  0  0  0  0  0  0  0  0  0  0  0
  190.9950  176.1450  146.0400 C   0  0  0  0  0  0  0  0  0  0  0  0
  187.1530  176.7010  145.1850 C   0  0  0  0  0  0  0  0  0  0  0  0
  190.5840  174.2300  142.8240 C   0  0  0  0  0  0  0  0  0  0  0  0
  186.5460  176.4770  138.6890 C   0  0  0  0  0  1  0  0  0  0  0  0
  190.9760  174.9240  145.1780 C   0  0  0  0  0  2  0  0  0  0  0  0
  185.8980  177.2910  144.9420 C   0  0  0  0  0  3  0  0  0  0  0  0
  186.5150  176.5250  147.5410 C   0  0  0  0  0  3  0  0  0  0  0  0
  185.2800  177.1100  147.2660 C   0  0  0  0  0  3  0  0  0  0  0  0
  189.8550  176.5070  146.8190 N   0  0  0  0  0  2  0  0  0  0  0  0
  188.2820  174.5780  142.6260 C   0  0  1  0  0  3  0  0  0  0  0  0
  190.2930  175.2450  143.8590 C   0  0  2  0  0  3  0  0  0  0  0  0
  188.0980  175.7430  141.7850 N   0  0  2  0  0  0  0  0  0  0  0  0
  189.4140  173.0380  140.9140 C   0  0  0  0  0  1  0  0  0  0  0  0
  188.1600  176.5820  144.0370 C   0  0  2  0  0  3  0  0  0  0  0  0
  1  6  1  0  0  0  0
  1 21  1  0  0  0  0
  3 17  2  0  0  0  0
  4 22  1  0  0  0  0
  5 24  1  0  0  0  0
  5 17  1  0  0  0  0
  7  8  1  0  0  0  0
  8  2  1  0  0  0  0
  9 18  1  6  0  0  0
  9 14  1  0  0  0  0
  9 13  1  0  0  0  0
 10  8  1  6  0  0  0
 10 28  1  0  0  0  0
 11 15  2  0  0  0  0
 12 28  1  0  0  0  0
 13 26  1  0  0  0  0
 14  8  1  0  0  0  0
 15 23  1  0  0  0  0
 16  1  2  0  0  0  0
 17 25  1  0  0  0  0
 19 15  1  0  0  0  0
 20 16  1  0  0  0  0
 20  4  2  0  0  0  0
 22 21  2  0  0  0  0
 23  6  1  0  0  0  0
 24 12  1  0  0  0  0
 25 12  1  0  0  0  0
 25 19  1  0  0  0  0
 26 24  1  0  0  0  0
 26 10  1  0  0  0  0
 27  5  1  0  0  0  0
 28 16  1  0  0  0  0
M  END
>  <MODEL>
8

>  <REMARK>
 VINA RESULT:      -7.5      2.158      4.831
  Name = 
  0 active torsions:
  status: ('A' for Active; 'I' for Inactive)
                            x       y       z     vdW  Elec       q    Type
                         _______ _______ _______ _____ _____    ______ ____

>  <TORSDO>
F 0

$$$$
=
 OpenBabel11112417363D

 28 32  0  0  1  0  0  0  0  0999 V2000
  192.0900  175.4140  146.2670 C   0  0  0  0  0  0  0  0  0  0  0  0
  190.6540  172.6110  142.6180 C   0  0  0  0  0  1  0  0  0  0  0  0
  197.5520  172.4400  144.8840 O   0  0  0  0  0  0  0  0  0  0  0  0
  189.4550  174.4810  146.0520 C   0  0  0  0  0  3  0  0  0  0  0  0
  195.6150  171.3490  145.6530 N   0  0  0  0  0  0  0  0  0  0  0  0
  193.4600  175.9500  146.5120 C   0  0  0  0  0  2  0  0  0  0  0  0
  192.9400  172.2570  141.7940 C   0  0  0  0  0  1  0  0  0  0  0  0
  191.9320  171.8350  142.8600 C   0  0  0  0  0  0  0  0  0  0  0  0
  192.7120  169.6350  143.2160 C   0  0  2  0  0  3  0  0  0  0  0  0
  192.4650  172.1040  144.2730 C   0  0  1  0  0  3  0  0  0  0  0  0
  195.7970  176.6270  143.8000 O   0  0  0  0  0  0  0  0  0  0  0  0
  194.1280  173.1900  145.5910 C   0  0  1  0  0  3  0  0  0  0  0  0
  193.0650  169.9600  144.5480 O   0  0  0  0  0  0  0  0  0  0  0  0
  191.6350  170.4450  142.7420 O   0  0  0  0  0  0  0  0  0  0  0  0
  195.2910  176.0700  144.8080 C   0  0  0  0  0  0  0  0  0  0  0  0
  191.8290  174.2420  145.5020 C   0  0  0  0  0  0  0  0  0  0  0  0
  196.3200  172.4640  145.1490 C   0  0  0  0  0  0  0  0  0  0  0  0
  192.3170  168.1760  143.1400 C   0  0  0  0  0  1  0  0  0  0  0  0
  195.9920  174.9100  145.4390 C   0  0  0  0  0  2  0  0  0  0  0  0
  190.4940  173.8050  145.4120 C   0  0  0  0  0  3  0  0  0  0  0  0
  191.0400  176.0830  146.9070 C   0  0  0  0  0  3  0  0  0  0  0  0
  189.7290  175.6240  146.7990 C   0  0  0  0  0  3  0  0  0  0  0  0
  194.0240  176.5110  145.2960 N   0  0  0  0  0  2  0  0  0  0  0  0
  194.1960  171.6540  145.6870 C   0  0  1  0  0  3  0  0  0  0  0  0
  195.4290  173.6120  144.8810 C   0  0  2  0  0  3  0  0  0  0  0  0
  193.5830  171.2100  144.4520 N   0  0  2  0  0  0  0  0  0  0  0  0
  196.1610  170.0060  145.7600 C   0  0  0  0  0  1  0  0  0  0  0  0
  192.9140  173.5040  144.7110 C   0  0  2  0  0  3  0  0  0  0  0  0
  1  6  1  0  0  0  0
  1 21  1  0  0  0  0
  2  8  1  0  0  0  0
  3 17  2  0  0  0  0
  4 22  1  0  0  0  0
  5 24  1  0  0  0  0
  5 27  1  0  0  0  0
  7  8  1  0  0  0  0
  9 18  1  1  0  0  0
  9 13  1  0  0  0  0
 10  8  1  6  0  0  0
 10 26  1  0  0  0  0
 10 28  1  0  0  0  0
 11 15  2  0  0  0  0
 12 24  1  0  0  0  0
 14  8  1  0  0  0  0
 14  9  1  0  0  0  0
 15 23  1  0  0  0  0
 15 19  1  0  0  0  0
 16  1  2  0  0  0  0
 17  5  1  0  0  0  0
 20 16  1  0  0  0  0
 20  4  2  0  0  0  0
 22 21  2  0  0  0  0
 23  6  1  0  0  0  0
 25 17  1  0  0  0  0
 25 19  1  0  0  0  0
 25 12  1  0  0  0  0
 26 13  1  0  0  0  0
 26 24  1  0  0  0  0
 28 16  1  0  0  0  0
 28 12  1  0  0  0  0
M  END
>  <MODEL>
9

>  <REMARK>
 VINA RESULT:      -7.0      4.710      7.580
  Name = 
  0 active torsions:
  status: ('A' for Active; 'I' for Inactive)
                            x       y       z     vdW  Elec       q    Type
                         _______ _______ _______ _____ _____    ______ ____

>  <TORSDO>
F 0

$$$$
