=
 OpenBabel11112417423D

 28 32  0  0  1  0  0  0  0  0999 V2000
  190.9220  174.1970  142.5580 C   0  0  0  0  0  0  0  0  0  0  0  0
  188.4440  178.5100  141.5580 O   0  0  0  0  0  0  0  0  0  0  0  0
  189.1770  174.9550  147.2150 C   0  0  0  0  0  1  0  0  0  0  0  0
  188.9100  172.2580  142.7740 C   0  0  0  0  0  3  0  0  0  0  0  0
  188.6410  177.1560  146.2540 C   0  0  0  0  0  0  0  0  0  0  0  0
  192.0380  175.1990  142.5240 C   0  0  0  0  0  2  0  0  0  0  0  0
  187.6760  176.5860  140.2380 O   0  0  0  0  0  0  0  0  0  0  0  0
  187.4980  177.3430  141.5240 S   0  0  0  0  0  0  0  0  0  0  0  0
  185.2250  177.5350  142.9720 C   0  0  2  0  0  3  0  0  0  0  0  0
  187.7840  176.2820  142.8770 N   0  0  2  0  0  0  0  0  0  0  0  0
  193.4240  174.6100  146.0860 C   0  0  0  0  0  1  0  0  0  0  0  0
  189.7680  176.8000  144.2040 C   0  0  1  0  0  3  0  0  0  0  0  0
  186.1930  177.8740  144.0970 C   0  0  0  0  0  2  0  0  0  0  0  0
  185.8240  177.9410  141.6350 C   0  0  0  0  0  2  0  0  0  0  0  0
  192.3780  174.9310  145.0380 C   0  0  1  0  0  3  0  0  0  0  0  0
  189.5950  174.5940  142.8330 C   0  0  0  0  0  0  0  0  0  0  0  0
  189.7390  176.2280  146.6120 C   0  0  2  0  0  3  0  0  0  0  0  0
  183.9240  178.2800  143.1820 C   0  0  0  0  0  1  0  0  0  0  0  0
  191.7710  176.1530  145.3470 O   0  0  0  0  0  0  0  0  0  0  0  0
  188.6010  173.6080  142.9490 C   0  0  0  0  0  3  0  0  0  0  0  0
  191.2210  172.8400  142.3760 C   0  0  0  0  0  3  0  0  0  0  0  0
  190.2180  171.8740  142.4800 C   0  0  0  0  0  3  0  0  0  0  0  0
  193.0400  174.9850  143.6630 C   0  0  0  0  0  2  0  0  0  0  0  0
  188.5820  177.5100  144.8160 C   0  0  1  0  0  3  0  0  0  0  0  0
  190.3970  175.9020  145.2810 C   0  0  2  0  0  3  0  0  0  0  0  0
  187.3700  176.8850  144.1590 C   0  0  2  0  0  3  0  0  0  0  0  0
  187.8780  177.6320  147.0820 O   0  0  0  0  0  0  0  0  0  0  0  0
  189.2280  176.0610  142.9710 C   0  0  1  0  0  3  0  0  0  0  0  0
  1 16  1  0  0  0  0
  4 20  1  0  0  0  0
  5 17  1  0  0  0  0
  5 27  2  0  0  0  0
  6  1  1  0  0  0  0
  6 23  1  0  0  0  0
  7  8  2  0  0  0  0
  8  2  2  0  0  0  0
  8 14  1  0  0  0  0
  9 18  1  1  0  0  0
  9 13  1  0  0  0  0
 10  8  1  6  0  0  0
 10 28  1  0  0  0  0
 10 26  1  0  0  0  0
 12 24  1  0  0  0  0
 12 25  1  0  0  0  0
 13 26  1  0  0  0  0
 14  9  1  0  0  0  0
 15 19  1  0  0  0  0
 15 11  1  0  0  0  0
 16 20  2  0  0  0  0
 16 28  1  0  0  0  0
 17  3  1  0  0  0  0
 21 22  1  0  0  0  0
 21  1  2  0  0  0  0
 22  4  2  0  0  0  0
 23 15  1  0  0  0  0
 24  5  1  0  0  0  0
 25 19  1  0  0  0  0
 25 17  1  0  0  0  0
 26 24  1  0  0  0  0
 28 12  1  0  0  0  0
M  END
>  <MODEL>
1

>  <REMARK>
 VINA RESULT:      -8.5      0.000      0.000
  Name = 
  0 active torsions:
  status: ('A' for Active; 'I' for Inactive)
                            x       y       z     vdW  Elec       q    Type
                         _______ _______ _______ _____ _____    ______ ____

>  <TORSDO>
F 0

$$$$
=
 OpenBabel11112417423D

 28 32  0  0  1  0  0  0  0  0999 V2000
  191.5760  174.1030  142.7880 C   0  0  0  0  0  0  0  0  0  0  0  0
  188.8040  178.2470  141.8460 O   0  0  0  0  0  0  0  0  0  0  0  0
  190.6850  175.3070  147.5900 C   0  0  0  0  0  1  0  0  0  0  0  0
  189.7080  172.1630  143.5620 C   0  0  0  0  0  3  0  0  0  0  0  0
  189.9030  177.3880  146.5340 C   0  0  0  0  0  0  0  0  0  0  0  0
  192.6300  175.1150  142.4490 C   0  0  0  0  0  2  0  0  0  0  0  0
  187.8780  176.1840  140.8870 O   0  0  0  0  0  0  0  0  0  0  0  0
  187.9100  177.0670  142.1020 S   0  0  0  0  0  0  0  0  0  0  0  0
  185.9350  177.3680  143.9210 C   0  0  2  0  0  3  0  0  0  0  0  0
  188.4760  176.1560  143.4770 N   0  0  2  0  0  0  0  0  0  0  0  0
  194.6640  174.9200  145.7330 C   0  0  0  0  0  1  0  0  0  0  0  0
  190.6500  176.8420  144.3560 C   0  0  1  0  0  3  0  0  0  0  0  0
  187.0790  177.8380  144.8090 C   0  0  0  0  0  2  0  0  0  0  0  0
  186.2640  177.6440  142.4630 C   0  0  0  0  0  2  0  0  0  0  0  0
  193.4330  175.1140  144.8710 C   0  0  1  0  0  3  0  0  0  0  0  0
  190.3080  174.5030  143.2640 C   0  0  0  0  0  0  0  0  0  0  0  0
  191.0810  176.5210  146.7710 C   0  0  2  0  0  3  0  0  0  0  0  0
  184.6680  178.1080  144.2950 C   0  0  0  0  0  1  0  0  0  0  0  0
  192.8500  176.3500  145.1650 O   0  0  0  0  0  0  0  0  0  0  0  0
  189.3880  173.5180  143.6580 C   0  0  0  0  0  3  0  0  0  0  0  0
  191.8850  172.7400  142.6870 C   0  0  0  0  0  3  0  0  0  0  0  0
  190.9530  171.7730  143.0700 C   0  0  0  0  0  3  0  0  0  0  0  0
  193.8300  175.0370  143.3980 C   0  0  0  0  0  2  0  0  0  0  0  0
  189.5710  177.5910  145.1040 C   0  0  1  0  0  3  0  0  0  0  0  0
  191.4960  176.0700  145.3800 C   0  0  2  0  0  3  0  0  0  0  0  0
  188.2820  176.8810  144.7480 C   0  0  2  0  0  3  0  0  0  0  0  0
  189.2880  177.9330  147.4380 O   0  0  0  0  0  0  0  0  0  0  0  0
  189.9200  175.9710  143.3220 C   0  0  1  0  0  3  0  0  0  0  0  0
  1 16  1  0  0  0  0
  2  8  2  0  0  0  0
  4 20  1  0  0  0  0
  5 17  1  0  0  0  0
  5 27  2  0  0  0  0
  6  1  1  0  0  0  0
  6 23  1  0  0  0  0
  7  8  2  0  0  0  0
  8 14  1  0  0  0  0
  9 18  1  1  0  0  0
  9 13  1  0  0  0  0
 10  8  1  6  0  0  0
 10 26  1  0  0  0  0
 12 24  1  0  0  0  0
 12 25  1  0  0  0  0
 14  9  1  0  0  0  0
 15 19  1  0  0  0  0
 15 11  1  0  0  0  0
 16 28  1  0  0  0  0
 16 20  2  0  0  0  0
 17  3  1  0  0  0  0
 19 25  1  0  0  0  0
 21  1  2  0  0  0  0
 21 22  1  0  0  0  0
 22  4  2  0  0  0  0
 23 15  1  0  0  0  0
 24  5  1  0  0  0  0
 25 17  1  0  0  0  0
 26 13  1  0  0  0  0
 26 24  1  0  0  0  0
 28 10  1  0  0  0  0
 28 12  1  0  0  0  0
M  END
>  <MODEL>
2

>  <REMARK>
 VINA RESULT:      -8.5      1.023      1.059
  Name = 
  0 active torsions:
  status: ('A' for Active; 'I' for Inactive)
                            x       y       z     vdW  Elec       q    Type
                         _______ _______ _______ _____ _____    ______ ____

>  <TORSDO>
F 0

$$$$
=
 OpenBabel11112417423D

 28 32  0  0  1  0  0  0  0  0999 V2000
  189.3790  176.8910  145.3240 C   0  0  0  0  0  0  0  0  0  0  0  0
  194.3490  176.6440  144.3320 O   0  0  0  0  0  0  0  0  0  0  0  0
  189.2110  172.6850  142.5700 C   0  0  0  0  0  1  0  0  0  0  0  0
  188.9450  174.9160  147.2630 C   0  0  0  0  0  3  0  0  0  0  0  0
  191.5120  173.3810  142.0450 C   0  0  0  0  0  0  0  0  0  0  0  0
  189.5330  177.9160  144.2380 C   0  0  0  0  0  2  0  0  0  0  0  0
  193.8020  176.5880  146.7260 O   0  0  0  0  0  0  0  0  0  0  0  0
  194.0020  175.7540  145.4930 S   0  0  0  0  0  0  0  0  0  0  0  0
  194.8650  173.1950  145.4060 C   0  0  2  0  0  3  0  0  0  0  0  0
  192.5540  174.8440  145.1550 N   0  0  2  0  0  0  0  0  0  0  0  0
  187.0330  176.4160  141.6980 C   0  0  0  0  0  1  0  0  0  0  0  0
  191.3720  175.4860  143.1160 C   0  0  1  0  0  3  0  0  0  0  0  0
  194.1800  173.2080  144.0470 C   0  0  0  0  0  2  0  0  0  0  0  0
  195.3290  174.5990  145.7640 C   0  0  0  0  0  2  0  0  0  0  0  0
  188.2300  176.4290  142.6260 C   0  0  1  0  0  3  0  0  0  0  0  0
  190.3050  175.8350  145.4660 C   0  0  0  0  0  0  0  0  0  0  0  0
  190.0810  173.7450  141.9220 C   0  0  2  0  0  3  0  0  0  0  0  0
  196.0630  172.2710  145.3610 C   0  0  0  0  0  1  0  0  0  0  0  0
  189.3700  176.0320  141.9200 O   0  0  0  0  0  0  0  0  0  0  0  0
  190.0670  174.8480  146.4350 C   0  0  0  0  0  3  0  0  0  0  0  0
  188.2600  176.9560  146.1650 C   0  0  0  0  0  3  0  0  0  0  0  0
  188.0450  175.9740  147.1330 C   0  0  0  0  0  3  0  0  0  0  0  0
  188.4080  177.8320  143.2020 C   0  0  0  0  0  2  0  0  0  0  0  0
  192.3340  174.3700  142.7830 C   0  0  1  0  0  3  0  0  0  0  0  0
  189.9590  175.0400  142.7100 C   0  0  2  0  0  3  0  0  0  0  0  0
  192.7670  173.8130  144.1220 C   0  0  2  0  0  3  0  0  0  0  0  0
  191.9870  172.3770  141.5360 O   0  0  0  0  0  0  0  0  0  0  0  0
  191.5610  175.7740  144.6130 C   0  0  1  0  0  3  0  0  0  0  0  0
  1 16  2  0  0  0  0
  1 21  1  0  0  0  0
  2  8  2  0  0  0  0
  5 24  1  0  0  0  0
  6  1  1  0  0  0  0
  8 14  1  0  0  0  0
  8  7  2  0  0  0  0
  9 18  1  6  0  0  0
  9 14  1  0  0  0  0
 10  8  1  6  0  0  0
 11 15  1  0  0  0  0
 12 28  1  0  0  0  0
 13 26  1  0  0  0  0
 13  9  1  0  0  0  0
 15 23  1  0  0  0  0
 16 20  1  0  0  0  0
 17  5  1  0  0  0  0
 17  3  1  0  0  0  0
 17 25  1  0  0  0  0
 19 15  1  0  0  0  0
 19 25  1  0  0  0  0
 20  4  2  0  0  0  0
 21 22  2  0  0  0  0
 22  4  1  0  0  0  0
 23  6  1  0  0  0  0
 24 12  1  0  0  0  0
 24 26  1  0  0  0  0
 25 12  1  0  0  0  0
 26 10  1  0  0  0  0
 27  5  2  0  0  0  0
 28 10  1  0  0  0  0
 28 16  1  0  0  0  0
M  END
>  <MODEL>
3

>  <REMARK>
 VINA RESULT:      -8.1      2.635      6.787
  Name = 
  0 active torsions:
  status: ('A' for Active; 'I' for Inactive)
                            x       y       z     vdW  Elec       q    Type
                         _______ _______ _______ _____ _____    ______ ____

>  <TORSDO>
F 0

$$$$
=
 OpenBabel11112417423D

 28 32  0  0  1  0  0  0  0  0999 V2000
  189.2940  176.7240  145.2450 C   0  0  0  0  0  0  0  0  0  0  0  0
  193.7190  176.4160  142.7810 O   0  0  0  0  0  0  0  0  0  0  0  0
  188.0150  172.9010  142.2360 C   0  0  0  0  0  1  0  0  0  0  0  0
  189.3080  174.5410  147.0010 C   0  0  0  0  0  3  0  0  0  0  0  0
  190.1030  173.5710  141.1190 C   0  0  0  0  0  0  0  0  0  0  0  0
  189.1960  177.8690  144.2800 C   0  0  0  0  0  2  0  0  0  0  0  0
  193.9000  176.0840  145.2080 O   0  0  0  0  0  0  0  0  0  0  0  0
  193.6650  175.4020  143.8890 S   0  0  0  0  0  0  0  0  0  0  0  0
  194.2760  172.8430  143.2730 C   0  0  2  0  0  3  0  0  0  0  0  0
  192.1200  174.5960  143.9090 N   0  0  2  0  0  0  0  0  0  0  0  0
  185.9550  176.7910  142.4660 C   0  0  0  0  0  1  0  0  0  0  0  0
  190.4390  175.5300  142.4020 C   0  0  1  0  0  3  0  0  0  0  0  0
  193.2230  173.0500  142.1930 C   0  0  0  0  0  2  0  0  0  0  0  0
  194.9260  174.1730  143.6220 C   0  0  0  0  0  2  0  0  0  0  0  0
  187.3700  176.6440  142.9860 C   0  0  1  0  0  3  0  0  0  0  0  0
  190.1420  175.6240  144.9870 C   0  0  0  0  0  0  0  0  0  0  0  0
  188.7300  174.0010  141.4740 C   0  0  2  0  0  3  0  0  0  0  0  0
  195.3360  171.8870  142.7690 C   0  0  0  0  0  1  0  0  0  0  0  0
  188.2190  176.2950  141.9310 O   0  0  0  0  0  0  0  0  0  0  0  0
  190.1280  174.5340  145.8720 C   0  0  0  0  0  3  0  0  0  0  0  0
  188.4810  176.7260  146.3870 C   0  0  0  0  0  3  0  0  0  0  0  0
  188.4900  175.6390  147.2630 C   0  0  0  0  0  3  0  0  0  0  0  0
  187.8120  177.9570  143.6290 C   0  0  0  0  0  2  0  0  0  0  0  0
  191.1760  174.4280  141.6760 C   0  0  1  0  0  3  0  0  0  0  0  0
  188.9410  175.1910  142.3960 C   0  0  2  0  0  3  0  0  0  0  0  0
  191.9430  173.6940  142.7540 C   0  0  2  0  0  3  0  0  0  0  0  0
  190.3320  172.6210  140.3860 O   0  0  0  0  0  0  0  0  0  0  0  0
  191.0820  175.6230  143.7940 C   0  0  1  0  0  3  0  0  0  0  0  0
  1 21  1  0  0  0  0
  2  8  2  0  0  0  0
  4 22  1  0  0  0  0
  5 17  1  0  0  0  0
  5 24  1  0  0  0  0
  6  1  1  0  0  0  0
  8  7  2  0  0  0  0
  9 18  1  6  0  0  0
  9 14  1  0  0  0  0
 10  8  1  6  0  0  0
 11 15  1  0  0  0  0
 12 28  1  0  0  0  0
 13 26  1  0  0  0  0
 13  9  1  0  0  0  0
 14  8  1  0  0  0  0
 15 23  1  0  0  0  0
 16  1  2  0  0  0  0
 16 20  1  0  0  0  0
 17  3  1  0  0  0  0
 17 25  1  0  0  0  0
 19 25  1  0  0  0  0
 19 15  1  0  0  0  0
 20  4  2  0  0  0  0
 21 22  2  0  0  0  0
 23  6  1  0  0  0  0
 24 12  1  0  0  0  0
 24 26  1  0  0  0  0
 25 12  1  0  0  0  0
 26 10  1  0  0  0  0
 27  5  2  0  0  0  0
 28 10  1  0  0  0  0
 28 16  1  0  0  0  0
M  END
>  <MODEL>
4

>  <REMARK>
 VINA RESULT:      -7.6      2.437      6.548
  Name = 
  0 active torsions:
  status: ('A' for Active; 'I' for Inactive)
                            x       y       z     vdW  Elec       q    Type
                         _______ _______ _______ _____ _____    ______ ____

>  <TORSDO>
F 0

$$$$
=
 OpenBabel11112417423D

 28 32  0  0  1  0  0  0  0  0999 V2000
  194.8840  176.0390  144.1930 C   0  0  0  0  0  0  0  0  0  0  0  0
  190.1570  177.2490  145.5830 O   0  0  0  0  0  0  0  0  0  0  0  0
  192.7530  171.6880  142.8400 C   0  0  0  0  0  1  0  0  0  0  0  0
  194.8680  176.2170  141.3970 C   0  0  0  0  0  3  0  0  0  0  0  0
  190.8800  172.6360  144.1250 C   0  0  0  0  0  0  0  0  0  0  0  0
  194.9390  175.8580  145.6820 C   0  0  0  0  0  2  0  0  0  0  0  0
  191.1160  178.7460  143.8880 O   0  0  0  0  0  0  0  0  0  0  0  0
  190.3440  177.4760  144.1090 S   0  0  0  0  0  0  0  0  0  0  0  0
  188.5160  176.3960  142.4370 C   0  0  2  0  0  3  0  0  0  0  0  0
  191.1920  176.1360  143.3850 N   0  0  2  0  0  0  0  0  0  0  0  0
  196.0280  172.1480  145.7530 C   0  0  0  0  0  1  0  0  0  0  0  0
  192.0830  174.4950  144.9590 C   0  0  1  0  0  3  0  0  0  0  0  0
  188.8500  175.1210  143.1980 C   0  0  0  0  0  2  0  0  0  0  0  0
  188.7490  177.6060  143.3280 C   0  0  0  0  0  2  0  0  0  0  0  0
  195.1600  173.3340  145.3850 C   0  0  1  0  0  3  0  0  0  0  0  0
  193.6600  175.9610  143.4950 C   0  0  0  0  0  0  0  0  0  0  0  0
  192.2760  172.1460  144.2060 C   0  0  2  0  0  3  0  0  0  0  0  0
  187.0650  176.3640  142.0070 C   0  0  0  0  0  1  0  0  0  0  0  0
  193.8390  173.0780  145.7630 O   0  0  0  0  0  0  0  0  0  0  0  0
  193.6710  176.0410  142.0930 C   0  0  0  0  0  3  0  0  0  0  0  0
  196.0810  176.2240  143.4870 C   0  0  0  0  0  3  0  0  0  0  0  0
  196.0720  176.3160  142.0940 C   0  0  0  0  0  3  0  0  0  0  0  0
  195.6920  174.5860  146.0810 C   0  0  0  0  0  2  0  0  0  0  0  0
  190.7030  174.0500  144.5310 C   0  0  1  0  0  3  0  0  0  0  0  0
  193.0740  173.3680  144.6280 C   0  0  2  0  0  3  0  0  0  0  0  0
  190.3680  174.9130  143.3330 C   0  0  2  0  0  3  0  0  0  0  0  0
  189.9440  171.9200  143.8020 O   0  0  0  0  0  0  0  0  0  0  0  0
  192.3410  175.8260  144.2370 C   0  0  1  0  0  3  0  0  0  0  0  0
  1  6  1  0  0  0  0
  3 17  1  0  0  0  0
  4 20  1  0  0  0  0
  4 22  2  0  0  0  0
  5 17  1  0  0  0  0
  5 24  1  0  0  0  0
  6 23  1  0  0  0  0
  7  8  2  0  0  0  0
  8  2  2  0  0  0  0
  9 18  1  1  0  0  0
  9 13  1  0  0  0  0
  9 14  1  0  0  0  0
 10  8  1  1  0  0  0
 10 28  1  0  0  0  0
 13 26  1  0  0  0  0
 14  8  1  0  0  0  0
 15 11  1  0  0  0  0
 15 19  1  0  0  0  0
 15 23  1  0  0  0  0
 16  1  1  0  0  0  0
 16 28  1  0  0  0  0
 17 25  1  0  0  0  0
 20 16  2  0  0  0  0
 21  1  2  0  0  0  0
 22 21  1  0  0  0  0
 24 12  1  0  0  0  0
 25 12  1  0  0  0  0
 25 19  1  0  0  0  0
 26 10  1  0  0  0  0
 26 24  1  0  0  0  0
 27  5  2  0  0  0  0
 28 12  1  0  0  0  0
M  END
>  <MODEL>
5

>  <REMARK>
 VINA RESULT:      -7.5      2.537      4.755
  Name = 
  0 active torsions:
  status: ('A' for Active; 'I' for Inactive)
                            x       y       z     vdW  Elec       q    Type
                         _______ _______ _______ _____ _____    ______ ____

>  <TORSDO>
F 0

$$$$
=
 OpenBabel11112417423D

 28 32  0  0  1  0  0  0  0  0999 V2000
  188.5380  175.6660  145.5360 C   0  0  0  0  0  0  0  0  0  0  0  0
  189.5520  171.5610  142.7310 O   0  0  0  0  0  0  0  0  0  0  0  0
  193.0630  177.1660  143.9310 C   0  0  0  0  0  1  0  0  0  0  0  0
  187.8900  177.6550  143.6710 C   0  0  0  0  0  3  0  0  0  0  0  0
  193.1720  174.8160  143.2070 C   0  0  0  0  0  0  0  0  0  0  0  0
  188.9410  174.6650  146.5790 C   0  0  0  0  0  2  0  0  0  0  0  0
  187.5250  172.7660  142.0450 O   0  0  0  0  0  0  0  0  0  0  0  0
  189.0130  172.6660  141.8660 S   0  0  0  0  0  0  0  0  0  0  0  0
  190.4120  173.3080  139.6460 C   0  0  2  0  0  3  0  0  0  0  0  0
  189.7610  174.1860  142.2780 N   0  0  2  0  0  0  0  0  0  0  0  0
  191.8730  176.6450  148.1430 C   0  0  0  0  0  1  0  0  0  0  0  0
  191.1680  174.1480  144.2740 C   0  0  1  0  0  3  0  0  0  0  0  0
  191.5660  173.4210  140.6320 C   0  0  0  0  0  2  0  0  0  0  0  0
  189.3860  172.3110  140.1620 C   0  0  0  0  0  2  0  0  0  0  0  0
  191.0790  175.9800  147.0370 C   0  0  1  0  0  3  0  0  0  0  0  0
  188.9670  175.5350  144.1970 C   0  0  0  0  0  0  0  0  0  0  0  0
  193.0790  175.7170  144.3800 C   0  0  2  0  0  3  0  0  0  0  0  0
  190.9360  172.8360  138.3070 C   0  0  0  0  0  1  0  0  0  0  0  0
  191.8980  175.0700  146.3610 O   0  0  0  0  0  0  0  0  0  0  0  0
  188.6430  176.5470  143.2780 C   0  0  0  0  0  3  0  0  0  0  0  0
  187.7750  176.7770  145.9200 C   0  0  0  0  0  3  0  0  0  0  0  0
  187.4500  177.7660  144.9900 C   0  0  0  0  0  3  0  0  0  0  0  0
  189.8640  175.2770  147.6380 C   0  0  0  0  0  2  0  0  0  0  0  0
  192.0370  173.8740  143.0680 C   0  0  1  0  0  3  0  0  0  0  0  0
  191.7360  175.3740  145.0050 C   0  0  2  0  0  3  0  0  0  0  0  0
  191.1790  174.2410  141.8760 C   0  0  2  0  0  3  0  0  0  0  0  0
  194.1290  174.8130  142.4480 O   0  0  0  0  0  0  0  0  0  0  0  0
  189.7380  174.3110  143.7370 C   0  0  1  0  0  3  0  0  0  0  0  0
  1 21  1  0  0  0  0
  1  6  1  0  0  0  0
  3 17  1  0  0  0  0
  4 22  1  0  0  0  0
  5 17  1  0  0  0  0
  6 23  1  0  0  0  0
  8  7  2  0  0  0  0
  8  2  2  0  0  0  0
  9 18  1  6  0  0  0
  9 14  1  0  0  0  0
  9 13  1  0  0  0  0
 10  8  1  1  0  0  0
 10 28  1  0  0  0  0
 12 25  1  0  0  0  0
 13 26  1  0  0  0  0
 14  8  1  0  0  0  0
 15 23  1  0  0  0  0
 15 11  1  0  0  0  0
 16  1  2  0  0  0  0
 17 25  1  0  0  0  0
 19 15  1  0  0  0  0
 20  4  2  0  0  0  0
 20 16  1  0  0  0  0
 22 21  2  0  0  0  0
 24  5  1  0  0  0  0
 24 12  1  0  0  0  0
 25 19  1  0  0  0  0
 26 10  1  0  0  0  0
 26 24  1  0  0  0  0
 27  5  2  0  0  0  0
 28 16  1  0  0  0  0
 28 12  1  0  0  0  0
M  END
>  <MODEL>
6

>  <REMARK>
 VINA RESULT:      -7.3      2.542      5.374
  Name = 
  0 active torsions:
  status: ('A' for Active; 'I' for Inactive)
                            x       y       z     vdW  Elec       q    Type
                         _______ _______ _______ _____ _____    ______ ____

>  <TORSDO>
F 0

$$$$
=
 OpenBabel11112417423D

 28 32  0  0  1  0  0  0  0  0999 V2000
  189.7840  175.9670  144.9990 C   0  0  0  0  0  0  0  0  0  0  0  0
  191.8430  171.4420  143.9830 O   0  0  0  0  0  0  0  0  0  0  0  0
  194.5570  177.2920  145.8780 C   0  0  0  0  0  1  0  0  0  0  0  0
  190.3970  177.5410  142.7630 C   0  0  0  0  0  3  0  0  0  0  0  0
  194.8630  174.8530  145.7630 C   0  0  0  0  0  0  0  0  0  0  0  0
  189.4850  175.1980  146.2520 C   0  0  0  0  0  2  0  0  0  0  0  0
  190.6040  172.4230  142.1030 O   0  0  0  0  0  0  0  0  0  0  0  0
  191.9410  172.3420  142.7840 S   0  0  0  0  0  0  0  0  0  0  0  0
  194.3610  172.6000  141.6100 C   0  0  2  0  0  3  0  0  0  0  0  0
  192.4580  173.9390  143.2570 N   0  0  2  0  0  0  0  0  0  0  0  0
  191.2450  177.5400  148.7760 C   0  0  0  0  0  1  0  0  0  0  0  0
  192.5580  174.3300  145.6660 C   0  0  1  0  0  3  0  0  0  0  0  0
  194.8030  172.9390  143.0260 C   0  0  0  0  0  2  0  0  0  0  0  0
  193.1470  171.6840  141.6520 C   0  0  0  0  0  2  0  0  0  0  0  0
  191.1280  176.6500  147.5560 C   0  0  1  0  0  3  0  0  0  0  0  0
  190.8580  175.6000  144.1580 C   0  0  0  0  0  0  0  0  0  0  0  0
  194.2190  175.9570  146.5130 C   0  0  2  0  0  3  0  0  0  0  0  0
  195.4880  171.9000  140.8810 C   0  0  0  0  0  1  0  0  0  0  0  0
  192.1110  175.6570  147.6090 O   0  0  0  0  0  0  0  0  0  0  0  0
  191.1580  176.4060  143.0480 C   0  0  0  0  0  3  0  0  0  0  0  0
  189.0210  177.1040  144.7000 C   0  0  0  0  0  3  0  0  0  0  0  0
  189.3240  177.8860  143.5850 C   0  0  0  0  0  3  0  0  0  0  0  0
  189.7320  176.0320  147.5130 C   0  0  0  0  0  2  0  0  0  0  0  0
  193.9170  173.8620  145.1980 C   0  0  1  0  0  3  0  0  0  0  0  0
  192.7300  175.6920  146.3560 C   0  0  2  0  0  3  0  0  0  0  0  0
  193.8690  173.9660  143.6890 C   0  0  2  0  0  3  0  0  0  0  0  0
  196.0750  174.7400  145.6610 O   0  0  0  0  0  0  0  0  0  0  0  0
  191.6610  174.3380  144.4190 C   0  0  1  0  0  3  0  0  0  0  0  0
  1  6  1  0  0  0  0
  3 17  1  0  0  0  0
  4 20  2  0  0  0  0
  4 22  1  0  0  0  0
  5 17  1  0  0  0  0
  6 23  1  0  0  0  0
  7  8  2  0  0  0  0
  8  2  2  0  0  0  0
  9 18  1  1  0  0  0
  9 14  1  0  0  0  0
  9 13  1  0  0  0  0
 10  8  1  1  0  0  0
 10 26  1  0  0  0  0
 10 28  1  0  0  0  0
 12 25  1  0  0  0  0
 13 26  1  0  0  0  0
 14  8  1  0  0  0  0
 15 19  1  0  0  0  0
 15 11  1  0  0  0  0
 16 28  1  0  0  0  0
 16  1  2  0  0  0  0
 20 16  1  0  0  0  0
 21  1  1  0  0  0  0
 22 21  2  0  0  0  0
 23 15  1  0  0  0  0
 24 12  1  0  0  0  0
 24  5  1  0  0  0  0
 25 17  1  0  0  0  0
 25 19  1  0  0  0  0
 26 24  1  0  0  0  0
 27  5  2  0  0  0  0
 28 12  1  0  0  0  0
M  END
>  <MODEL>
7

>  <REMARK>
 VINA RESULT:      -7.2      3.337      6.456
  Name = 
  0 active torsions:
  status: ('A' for Active; 'I' for Inactive)
                            x       y       z     vdW  Elec       q    Type
                         _______ _______ _______ _____ _____    ______ ____

>  <TORSDO>
F 0

$$$$
=
 OpenBabel11112417423D

 28 32  0  0  1  0  0  0  0  0999 V2000
  194.0540  173.9300  145.2370 C   0  0  0  0  0  0  0  0  0  0  0  0
  189.4340  174.5410  147.2430 O   0  0  0  0  0  0  0  0  0  0  0  0
  191.5180  173.8000  140.8950 C   0  0  0  0  0  1  0  0  0  0  0  0
  194.6690  176.4180  144.1030 C   0  0  0  0  0  3  0  0  0  0  0  0
  189.6140  173.6120  142.4440 C   0  0  0  0  0  0  0  0  0  0  0  0
  193.7560  172.5560  145.7630 C   0  0  0  0  0  2  0  0  0  0  0  0
  190.9850  176.3830  147.7240 O   0  0  0  0  0  0  0  0  0  0  0  0
  189.9690  175.8560  146.7510 S   0  0  0  0  0  0  0  0  0  0  0  0
  188.3780  177.3270  145.1360 C   0  0  2  0  0  3  0  0  0  0  0  0
  190.6990  175.6720  145.1780 N   0  0  2  0  0  0  0  0  0  0  0  0
  194.1230  170.6010  142.4460 C   0  0  0  0  0  1  0  0  0  0  0  0
  190.9240  173.3680  144.3990 C   0  0  1  0  0  3  0  0  0  0  0  0
  188.3070  176.0310  144.3390 C   0  0  0  0  0  2  0  0  0  0  0  0
  188.6280  177.0180  146.6040 C   0  0  0  0  0  2  0  0  0  0  0  0
  193.5800  171.6640  143.3790 C   0  0  1  0  0  3  0  0  0  0  0  0
  193.0140  174.8300  144.9210 C   0  0  0  0  0  0  0  0  0  0  0  0
  190.8500  172.9520  141.9610 C   0  0  2  0  0  3  0  0  0  0  0  0
  187.0710  178.0770  144.9990 C   0  0  0  0  0  1  0  0  0  0  0  0
  192.1850  171.5880  143.4080 O   0  0  0  0  0  0  0  0  0  0  0  0
  193.3380  176.0680  144.3430 C   0  0  0  0  0  3  0  0  0  0  0  0
  195.3870  174.2930  145.0010 C   0  0  0  0  0  3  0  0  0  0  0  0
  195.6930  175.5330  144.4390 C   0  0  0  0  0  3  0  0  0  0  0  0
  194.1660  171.4600  144.7750 C   0  0  0  0  0  2  0  0  0  0  0  0
  189.6110  173.9200  143.8930 C   0  0  1  0  0  3  0  0  0  0  0  0
  191.7450  172.8980  143.1880 C   0  0  2  0  0  3  0  0  0  0  0  0
  189.7000  175.4130  144.1230 C   0  0  2  0  0  3  0  0  0  0  0  0
  188.6560  173.8360  141.7200 O   0  0  0  0  0  0  0  0  0  0  0  0
  191.5650  174.4920  145.2270 C   0  0  1  0  0  3  0  0  0  0  0  0
  1  6  1  0  0  0  0
  3 17  1  0  0  0  0
  4 20  2  0  0  0  0
  4 22  1  0  0  0  0
  5 24  1  0  0  0  0
  8  2  2  0  0  0  0
  8  7  2  0  0  0  0
  9 18  1  1  0  0  0
  9 14  1  0  0  0  0
 10 28  1  0  0  0  0
 10  8  1  1  0  0  0
 11 15  1  0  0  0  0
 12 28  1  0  0  0  0
 13  9  1  0  0  0  0
 14  8  1  0  0  0  0
 15 19  1  0  0  0  0
 15 23  1  0  0  0  0
 16 28  1  0  0  0  0
 16  1  2  0  0  0  0
 17  5  1  0  0  0  0
 17 25  1  0  0  0  0
 20 16  1  0  0  0  0
 21  1  1  0  0  0  0
 22 21  2  0  0  0  0
 23  6  1  0  0  0  0
 24 26  1  0  0  0  0
 24 12  1  0  0  0  0
 25 19  1  0  0  0  0
 25 12  1  0  0  0  0
 26 13  1  0  0  0  0
 26 10  1  0  0  0  0
 27  5  2  0  0  0  0
M  END
>  <MODEL>
8

>  <REMARK>
 VINA RESULT:      -7.1      2.540      5.159
  Name = 
  0 active torsions:
  status: ('A' for Active; 'I' for Inactive)
                            x       y       z     vdW  Elec       q    Type
                         _______ _______ _______ _____ _____    ______ ____

>  <TORSDO>
F 0

$$$$
=
 OpenBabel11112417423D

 28 32  0  0  1  0  0  0  0  0999 V2000
  186.2860  176.4970  143.0510 C   0  0  0  0  0  0  0  0  0  0  0  0
  188.9330  172.1790  142.7400 O   0  0  0  0  0  0  0  0  0  0  0  0
  190.7520  178.4670  144.2670 C   0  0  0  0  0  1  0  0  0  0  0  0
  186.9730  177.9160  140.7340 C   0  0  0  0  0  3  0  0  0  0  0  0
  191.3360  176.0830  144.4450 C   0  0  0  0  0  0  0  0  0  0  0  0
  185.9320  175.8180  144.3420 C   0  0  0  0  0  2  0  0  0  0  0  0
  187.8160  172.8210  140.6490 O   0  0  0  0  0  0  0  0  0  0  0  0
  189.0670  172.9680  141.4680 S   0  0  0  0  0  0  0  0  0  0  0  0
  191.5620  173.4040  140.5270 C   0  0  2  0  0  3  0  0  0  0  0  0
  189.3480  174.6520  141.8190 N   0  0  2  0  0  0  0  0  0  0  0  0
  187.1250  178.5840  146.7680 C   0  0  0  0  0  1  0  0  0  0  0  0
  189.1290  175.2770  144.1690 C   0  0  1  0  0  3  0  0  0  0  0  0
  191.8000  173.9260  141.9370 C   0  0  0  0  0  2  0  0  0  0  0  0
  190.4600  172.3560  140.5430 C   0  0  0  0  0  2  0  0  0  0  0  0
  187.2460  177.5750  145.6450 C   0  0  1  0  0  3  0  0  0  0  0  0
  187.4820  176.1840  142.3680 C   0  0  0  0  0  0  0  0  0  0  0  0
  190.4930  177.1660  145.0030 C   0  0  2  0  0  3  0  0  0  0  0  0
  192.8350  172.7810  139.9960 C   0  0  0  0  0  1  0  0  0  0  0  0
  188.3200  176.7170  145.9040 O   0  0  0  0  0  0  0  0  0  0  0  0
  187.8160  176.9130  141.2150 C   0  0  0  0  0  3  0  0  0  0  0  0
  185.4410  177.4990  142.5560 C   0  0  0  0  0  3  0  0  0  0  0  0
  185.7820  178.2040  141.4010 C   0  0  0  0  0  3  0  0  0  0  0  0
  185.9410  176.7910  145.5250 C   0  0  0  0  0  2  0  0  0  0  0  0
  190.5750  174.9360  143.8960 C   0  0  1  0  0  3  0  0  0  0  0  0
  189.0700  176.7090  144.7240 C   0  0  2  0  0  3  0  0  0  0  0  0
  190.6890  174.8910  142.3870 C   0  0  2  0  0  3  0  0  0  0  0  0
  192.5570  176.1080  144.4810 O   0  0  0  0  0  0  0  0  0  0  0  0
  188.3850  175.0590  142.8430 C   0  0  1  0  0  3  0  0  0  0  0  0
  1  6  1  0  0  0  0
  3 17  1  0  0  0  0
  4 20  2  0  0  0  0
  4 22  1  0  0  0  0
  5 27  2  0  0  0  0
  5 17  1  0  0  0  0
  6 23  1  0  0  0  0
  7  8  2  0  0  0  0
  8  2  2  0  0  0  0
  9 18  1  1  0  0  0
  9 14  1  0  0  0  0
  9 13  1  0  0  0  0
 10  8  1  1  0  0  0
 10 26  1  0  0  0  0
 10 28  1  0  0  0  0
 12 25  1  0  0  0  0
 13 26  1  0  0  0  0
 14  8  1  0  0  0  0
 15 19  1  0  0  0  0
 15 11  1  0  0  0  0
 16 28  1  0  0  0  0
 16  1  2  0  0  0  0
 20 16  1  0  0  0  0
 21  1  1  0  0  0  0
 22 21  2  0  0  0  0
 23 15  1  0  0  0  0
 24 12  1  0  0  0  0
 24  5  1  0  0  0  0
 25 17  1  0  0  0  0
 25 19  1  0  0  0  0
 26 24  1  0  0  0  0
 28 12  1  0  0  0  0
M  END
>  <MODEL>
9

>  <REMARK>
 VINA RESULT:      -7.1      2.189      5.620
  Name = 
  0 active torsions:
  status: ('A' for Active; 'I' for Inactive)
                            x       y       z     vdW  Elec       q    Type
                         _______ _______ _______ _____ _____    ______ ____

>  <TORSDO>
F 0

$$$$
