=
 OpenBabel11112417473D

 34 40  0  0  1  0  0  0  0  0999 V2000
  189.9280  176.7420  146.0960 C   0  0  0  0  0  0  0  0  0  0  0  0
  187.6470  177.8280  145.9030 C   0  0  0  0  0  3  0  0  0  0  0  0
  195.6030  176.1850  143.4160 C   0  0  2  0  0  3  0  0  0  0  0  0
  192.2340  176.0750  145.9890 C   0  0  0  0  0  0  0  0  0  0  0  0
  193.1980  175.2480  143.7310 C   0  0  2  0  0  3  0  0  0  0  0  0
  194.8600  174.0200  142.2680 C   0  0  0  0  0  1  0  0  0  0  0  0
  196.4150  176.6660  142.3890 O   0  0  0  0  0  1  0  0  0  0  0  0
  195.6520  174.4670  145.3120 C   0  0  0  0  0  2  0  0  0  0  0  0
  188.3890  176.2930  144.1720 C   0  0  2  0  0  3  0  0  0  0  0  0
  187.5110  176.9500  141.1140 C   0  0  0  0  0  2  0  0  0  0  0  0
  192.1120  176.1350  143.1230 C   0  0  0  0  0  2  0  0  0  0  0  0
  194.4630  175.1400  145.9180 C   0  0  0  0  0  3  0  0  0  0  0  0
  189.6140  176.4140  143.2290 C   0  0  1  0  0  3  0  0  0  0  0  0
  186.5810  177.8230  144.8230 C   0  0  0  0  0  3  0  0  0  0  0  0
  193.3810  175.5280  145.2270 C   0  0  0  0  0  0  0  0  0  0  0  0
  196.4580  175.4200  144.4340 C   0  0  0  0  0  2  0  0  0  0  0  0
  187.3060  177.8040  142.3780 C   0  0  2  0  0  3  0  0  0  0  0  0
  191.0130  176.2980  145.3400 C   0  0  0  0  0  0  0  0  0  0  0  0
  194.4410  175.3690  142.8320 C   0  0  2  0  0  3  0  0  0  0  0  0
  190.8840  176.1140  143.9170 N   0  0  0  0  0  0  0  0  0  0  0  0
  191.2750  176.8010  148.0330 C   0  0  0  0  0  3  0  0  0  0  0  0
  188.0600  175.5450  141.3670 C   0  0  0  0  0  2  0  0  0  0  0  0
  192.3360  176.3350  147.3230 N   0  0  0  0  0  0  0  0  0  0  0  0
  189.4630  175.5400  141.9730 C   0  0  0  0  0  2  0  0  0  0  0  0
  187.0990  176.9670  143.6610 C   0  0  1  0  0  3  0  0  0  0  0  0
  190.0780  176.9990  147.4220 N   0  0  0  0  0  0  0  0  0  0  0  0
  188.6680  176.9100  145.4510 N   0  0  0  0  0  0  0  0  0  0  0  0
  186.1840  178.7040  142.1560 N   0  0  0  0  0  2  0  0  0  0  0  0
  185.4690  178.2090  140.9910 C   0  0  0  0  0  2  0  0  0  0  0  0
  182.2180  178.7770  142.5140 N   0  0  0  0  0  2  0  0  0  0  0  0
  183.0670  178.1370  140.3580 C   0  0  0  0  0  2  0  0  0  0  0  0
  184.0820  177.7440  141.3930 C   0  0  2  0  0  3  0  0  0  0  0  0
  181.8180  178.4080  141.1600 C   0  0  0  0  0  2  0  0  0  0  0  0
  183.6370  178.4650  142.6440 C   0  0  0  0  0  2  0  0  0  0  0  0
  1 26  1  0  0  0  0
  3  7  1  6  0  0  0
  3 16  1  0  0  0  0
  4 23  2  0  0  0  0
  5 11  1  6  0  0  0
  5 15  1  0  0  0  0
  8 12  1  0  0  0  0
  9 27  1  1  0  0  0
 10 22  1  0  0  0  0
 10 17  1  0  0  0  0
 11 20  1  0  0  0  0
 13 24  1  6  0  0  0
 13 20  1  0  0  0  0
 13  9  1  0  0  0  0
 14  2  2  0  0  0  0
 15 12  2  0  0  0  0
 15  4  1  0  0  0  0
 16  8  1  0  0  0  0
 17 28  1  6  0  0  0
 17 25  1  0  0  0  0
 18  4  1  0  0  0  0
 18  1  2  0  0  0  0
 19  6  1  1  0  0  0
 19  3  1  0  0  0  0
 19  5  1  0  0  0  0
 20 18  1  0  0  0  0
 22 24  1  0  0  0  0
 23 21  1  0  0  0  0
 25  9  1  0  0  0  0
 25 14  1  1  0  0  0
 26 21  2  0  0  0  0
 27  2  1  0  0  0  0
 27  1  1  0  0  0  0
 29 28  1  0  0  0  0
 30 34  1  0  0  0  0
 31 33  1  0  0  0  0
 31 32  1  0  0  0  0
 32 29  1  6  0  0  0
 32 34  1  0  0  0  0
 33 30  1  0  0  0  0
M  END
>  <MODEL>
1

>  <REMARK>
 VINA RESULT:      -8.5      0.000      0.000
  Name = 
  3 active torsions:
  status: ('A' for Active; 'I' for Inactive)
    1  A    between atoms: C_17  and  N_28
    2  A    between atoms: N_28  and  C_29
    3  A    between atoms: C_29  and  C_32
                            x       y       z     vdW  Elec       q    Type
                         _______ _______ _______ _____ _____    ______ ____

>  <TORSDO>
F 3

$$$$
=
 OpenBabel11112417473D

 34 40  0  0  1  0  0  0  0  0999 V2000
  192.4270  176.0480  145.4250 C   0  0  0  0  0  0  0  0  0  0  0  0
  190.3660  177.2400  146.2910 C   0  0  0  0  0  3  0  0  0  0  0  0
  196.0390  175.0390  140.3610 C   0  0  2  0  0  3  0  0  0  0  0  0
  194.3700  175.2550  144.2540 C   0  0  0  0  0  0  0  0  0  0  0  0
  194.0840  174.2510  141.8830 C   0  0  2  0  0  3  0  0  0  0  0  0
  194.7890  172.8550  139.8920 C   0  0  0  0  0  1  0  0  0  0  0  0
  196.2490  175.4180  139.0350 O   0  0  0  0  0  1  0  0  0  0  0  0
  196.9830  173.4330  142.1150 C   0  0  0  0  0  2  0  0  0  0  0  0
  190.1330  175.5710  144.5400 C   0  0  2  0  0  3  0  0  0  0  0  0
  187.8760  176.0990  142.2640 C   0  0  0  0  0  2  0  0  0  0  0  0
  192.8550  175.1580  141.8190 C   0  0  0  0  0  2  0  0  0  0  0  0
  196.2590  174.2010  143.1720 C   0  0  0  0  0  3  0  0  0  0  0  0
  190.7380  175.5740  143.1120 C   0  0  1  0  0  3  0  0  0  0  0  0
  188.9070  177.2300  145.8740 C   0  0  0  0  0  3  0  0  0  0  0  0
  194.9830  174.6050  143.0720 C   0  0  0  0  0  0  0  0  0  0  0  0
  197.2700  174.2900  140.8850 C   0  0  0  0  0  2  0  0  0  0  0  0
  188.3350  177.0330  143.3980 C   0  0  2  0  0  3  0  0  0  0  0  0
  192.9920  175.5050  144.2710 C   0  0  0  0  0  0  0  0  0  0  0  0
  194.7250  174.2540  140.4840 C   0  0  2  0  0  3  0  0  0  0  0  0
  192.1760  175.2470  143.1110 N   0  0  0  0  0  0  0  0  0  0  0  0
  194.5530  176.1470  146.4440 C   0  0  0  0  0  3  0  0  0  0  0  0
  188.4530  174.6830  142.3210 C   0  0  0  0  0  2  0  0  0  0  0  0
  195.1190  175.5850  145.3430 N   0  0  0  0  0  0  0  0  0  0  0  0
  189.9730  174.6390  142.1610 C   0  0  0  0  0  2  0  0  0  0  0  0
  188.7710  176.2830  144.6760 C   0  0  1  0  0  3  0  0  0  0  0  0
  193.2140  176.3730  146.4840 N   0  0  0  0  0  0  0  0  0  0  0  0
  191.0160  176.2460  145.4680 N   0  0  0  0  0  0  0  0  0  0  0  0
  187.2650  177.9770  143.6850 N   0  0  0  0  0  2  0  0  0  0  0  0
  186.0400  177.2030  143.8060 C   0  0  0  0  0  2  0  0  0  0  0  0
  185.4020  177.6370  147.3590 N   0  0  0  0  0  2  0  0  0  0  0  0
  185.7390  179.0500  145.4430 C   0  0  0  0  0  2  0  0  0  0  0  0
  185.2070  177.7300  144.9600 C   0  0  2  0  0  3  0  0  0  0  0  0
  185.4660  179.0290  146.9270 C   0  0  0  0  0  2  0  0  0  0  0  0
  185.3420  176.8150  146.1550 C   0  0  0  0  0  2  0  0  0  0  0  0
  1 27  1  0  0  0  0
  1 26  1  0  0  0  0
  3  7  1  6  0  0  0
  3 19  1  0  0  0  0
  3 16  1  0  0  0  0
  4 18  1  0  0  0  0
  4 23  2  0  0  0  0
  5 11  1  6  0  0  0
  5 15  1  0  0  0  0
  8 12  1  0  0  0  0
  9 25  1  0  0  0  0
  9 27  1  1  0  0  0
 10 22  1  0  0  0  0
 10 17  1  0  0  0  0
 11 20  1  0  0  0  0
 13 24  1  6  0  0  0
 13  9  1  0  0  0  0
 14  2  2  0  0  0  0
 15 12  2  0  0  0  0
 15  4  1  0  0  0  0
 16  8  1  0  0  0  0
 17 28  1  1  0  0  0
 17 25  1  0  0  0  0
 18  1  2  0  0  0  0
 19  6  1  1  0  0  0
 19  5  1  0  0  0  0
 20 13  1  0  0  0  0
 20 18  1  0  0  0  0
 21 26  2  0  0  0  0
 23 21  1  0  0  0  0
 24 22  1  0  0  0  0
 25 14  1  1  0  0  0
 27  2  1  0  0  0  0
 28 29  1  0  0  0  0
 31 33  1  0  0  0  0
 32 29  1  6  0  0  0
 32 31  1  0  0  0  0
 32 34  1  0  0  0  0
 33 30  1  0  0  0  0
 34 30  1  0  0  0  0
M  END
>  <MODEL>
2

>  <REMARK>
 VINA RESULT:      -8.1      2.252      3.226
  Name = 
  3 active torsions:
  status: ('A' for Active; 'I' for Inactive)
    1  A    between atoms: C_17  and  N_28
    2  A    between atoms: N_28  and  C_29
    3  A    between atoms: C_29  and  C_32
                            x       y       z     vdW  Elec       q    Type
                         _______ _______ _______ _____ _____    ______ ____

>  <TORSDO>
F 3

$$$$
=
 OpenBabel11112417473D

 34 40  0  0  1  0  0  0  0  0999 V2000
  193.4350  176.1410  143.0170 C   0  0  0  0  0  0  0  0  0  0  0  0
  191.3220  177.5390  143.0370 C   0  0  0  0  0  3  0  0  0  0  0  0
  195.8050  170.3850  143.9950 C   0  0  2  0  0  3  0  0  0  0  0  0
  195.1320  174.4410  142.9550 C   0  0  0  0  0  0  0  0  0  0  0  0
  195.3000  172.7620  144.9200 C   0  0  2  0  0  3  0  0  0  0  0  0
  196.4760  171.0550  146.3740 C   0  0  0  0  0  1  0  0  0  0  0  0
  195.4660  169.0600  144.2680 O   0  0  0  0  0  1  0  0  0  0  0  0
  197.8750  171.8450  143.6330 C   0  0  0  0  0  2  0  0  0  0  0  0
  192.1030  176.5250  145.1030 C   0  0  2  0  0  3  0  0  0  0  0  0
  189.8530  175.4590  147.1890 C   0  0  0  0  0  2  0  0  0  0  0  0
  193.8070  173.0500  145.0860 C   0  0  0  0  0  2  0  0  0  0  0  0
  196.9960  172.9030  143.0500 C   0  0  0  0  0  3  0  0  0  0  0  0
  192.2860  175.0220  145.4360 C   0  0  1  0  0  3  0  0  0  0  0  0
  190.2850  177.8400  144.1030 C   0  0  0  0  0  3  0  0  0  0  0  0
  195.8320  173.2980  143.5860 C   0  0  0  0  0  0  0  0  0  0  0  0
  197.2550  170.4560  143.5040 C   0  0  0  0  0  2  0  0  0  0  0  0
  189.6600  176.0110  145.7650 C   0  0  2  0  0  3  0  0  0  0  0  0
  194.0290  175.0190  143.5950 C   0  0  0  0  0  0  0  0  0  0  0  0
  195.5110  171.2670  145.2180 C   0  0  2  0  0  3  0  0  0  0  0  0
  193.4880  174.4480  144.8030 N   0  0  0  0  0  0  0  0  0  0  0  0
  194.9490  176.0360  141.2090 C   0  0  0  0  0  3  0  0  0  0  0  0
  191.2750  175.5790  147.7400 C   0  0  0  0  0  2  0  0  0  0  0  0
  195.5650  174.9640  141.7730 N   0  0  0  0  0  0  0  0  0  0  0  0
  192.3020  174.7660  146.9520 C   0  0  0  0  0  2  0  0  0  0  0  0
  190.6950  177.0910  145.3770 C   0  0  1  0  0  3  0  0  0  0  0  0
  193.8920  176.6220  141.8310 N   0  0  0  0  0  0  0  0  0  0  0  0
  192.3510  176.7690  143.6980 N   0  0  0  0  0  0  0  0  0  0  0  0
  188.3020  176.5210  145.6440 N   0  0  0  0  0  2  0  0  0  0  0  0
  187.6540  176.3100  146.9280 C   0  0  0  0  0  2  0  0  0  0  0  0
  185.0900  178.8850  146.8230 N   0  0  0  0  0  2  0  0  0  0  0  0
  185.8110  177.0560  145.4380 C   0  0  0  0  0  2  0  0  0  0  0  0
  186.2040  176.7500  146.8550 C   0  0  2  0  0  3  0  0  0  0  0  0
  184.8140  178.1820  145.5740 C   0  0  0  0  0  2  0  0  0  0  0  0
  186.0240  178.0610  147.5840 C   0  0  0  0  0  2  0  0  0  0  0  0
  1 18  1  0  0  0  0
  1 27  1  0  0  0  0
  2 27  1  0  0  0  0
  2 14  2  0  0  0  0
  3  7  1  1  0  0  0
  3 19  1  0  0  0  0
  4 15  1  0  0  0  0
  4 18  2  0  0  0  0
  5 11  1  6  0  0  0
  5 19  1  0  0  0  0
  9 27  1  6  0  0  0
  9 25  1  0  0  0  0
  9 13  1  0  0  0  0
 10 22  1  0  0  0  0
 12 15  2  0  0  0  0
 12  8  1  0  0  0  0
 13 24  1  1  0  0  0
 15  5  1  0  0  0  0
 16  8  1  0  0  0  0
 16  3  1  0  0  0  0
 17 28  1  1  0  0  0
 17 10  1  0  0  0  0
 18 20  1  0  0  0  0
 19  6  1  1  0  0  0
 20 11  1  0  0  0  0
 20 13  1  0  0  0  0
 21 23  2  0  0  0  0
 21 26  1  0  0  0  0
 23  4  1  0  0  0  0
 24 22  1  0  0  0  0
 25 14  1  6  0  0  0
 25 17  1  0  0  0  0
 26  1  2  0  0  0  0
 28 29  1  0  0  0  0
 30 34  1  0  0  0  0
 31 33  1  0  0  0  0
 31 32  1  0  0  0  0
 32 29  1  6  0  0  0
 32 34  1  0  0  0  0
 33 30  1  0  0  0  0
M  END
>  <MODEL>
3

>  <REMARK>
 VINA RESULT:      -8.1      3.154      5.241
  Name = 
  3 active torsions:
  status: ('A' for Active; 'I' for Inactive)
    1  A    between atoms: C_17  and  N_28
    2  A    between atoms: N_28  and  C_29
    3  A    between atoms: C_29  and  C_32
                            x       y       z     vdW  Elec       q    Type
                         _______ _______ _______ _____ _____    ______ ____

>  <TORSDO>
F 3

$$$$
=
 OpenBabel11112417473D

 34 40  0  0  1  0  0  0  0  0999 V2000
  189.8960  174.4730  142.1400 C   0  0  0  0  0  0  0  0  0  0  0  0
  187.5890  175.4790  142.4260 C   0  0  0  0  0  3  0  0  0  0  0  0
  194.4630  171.1870  144.9760 C   0  0  2  0  0  3  0  0  0  0  0  0
  191.9530  173.2340  142.2390 C   0  0  0  0  0  0  0  0  0  0  0  0
  193.4800  173.5010  144.3150 C   0  0  2  0  0  3  0  0  0  0  0  0
  195.6740  173.3630  145.5710 C   0  0  0  0  0  1  0  0  0  0  0  0
  194.7860  170.4770  146.1320 O   0  0  0  0  0  1  0  0  0  0  0  0
  195.5140  171.9010  142.7550 C   0  0  0  0  0  2  0  0  0  0  0  0
  189.4170  176.2680  143.8190 C   0  0  2  0  0  3  0  0  0  0  0  0
  188.7170  177.0780  146.8860 C   0  0  0  0  0  2  0  0  0  0  0  0
  192.1750  173.8400  145.0350 C   0  0  0  0  0  2  0  0  0  0  0  0
  194.1480  172.2190  142.2400 C   0  0  0  0  0  3  0  0  0  0  0  0
  190.2710  175.4720  144.8390 C   0  0  1  0  0  3  0  0  0  0  0  0
  187.0030  176.4740  143.4110 C   0  0  0  0  0  3  0  0  0  0  0  0
  193.2180  172.8950  142.9310 C   0  0  0  0  0  0  0  0  0  0  0  0
  195.4730  170.8590  143.8700 C   0  0  0  0  0  2  0  0  0  0  0  0
  187.8040  176.4280  145.8310 C   0  0  2  0  0  3  0  0  0  0  0  0
  191.0440  174.1110  142.8450 C   0  0  0  0  0  0  0  0  0  0  0  0
  194.3410  172.6840  145.2940 C   0  0  2  0  0  3  0  0  0  0  0  0
  191.2640  174.6020  144.1820 N   0  0  0  0  0  0  0  0  0  0  0  0
  190.5280  173.0690  140.3500 C   0  0  0  0  0  3  0  0  0  0  0  0
  190.0790  177.5400  146.3640 C   0  0  0  0  0  2  0  0  0  0  0  0
  191.6700  172.7310  141.0040 N   0  0  0  0  0  0  0  0  0  0  0  0
  190.9570  176.3950  145.8600 C   0  0  0  0  0  2  0  0  0  0  0  0
  188.1170  176.8760  144.3850 C   0  0  1  0  0  3  0  0  0  0  0  0
  189.6490  173.9380  140.9150 N   0  0  0  0  0  0  0  0  0  0  0  0
  189.0010  175.4130  142.7270 N   0  0  0  0  0  0  0  0  0  0  0  0
  186.4190  176.7100  146.1770 N   0  0  0  0  0  2  0  0  0  0  0  0
  186.4240  177.9030  147.0070 C   0  0  0  0  0  2  0  0  0  0  0  0
  184.8120  179.6590  144.2630 N   0  0  0  0  0  2  0  0  0  0  0  0
  184.1410  178.2430  146.0870 C   0  0  0  0  0  2  0  0  0  0  0  0
  185.4300  178.9140  146.4680 C   0  0  2  0  0  3  0  0  0  0  0  0
  183.6540  179.0410  144.9020 C   0  0  0  0  0  2  0  0  0  0  0  0
  185.9410  179.5020  145.1740 C   0  0  0  0  0  2  0  0  0  0  0  0
  1 27  1  0  0  0  0
  1 18  1  0  0  0  0
  2 27  1  0  0  0  0
  2 14  2  0  0  0  0
  3 19  1  0  0  0  0
  3  7  1  1  0  0  0
  4 18  2  0  0  0  0
  4 15  1  0  0  0  0
  5 11  1  1  0  0  0
  5 19  1  0  0  0  0
  8 16  1  0  0  0  0
  9 27  1  6  0  0  0
  9 25  1  0  0  0  0
  9 13  1  0  0  0  0
 12  8  1  0  0  0  0
 12 15  2  0  0  0  0
 13 24  1  1  0  0  0
 15  5  1  0  0  0  0
 16  3  1  0  0  0  0
 17 28  1  1  0  0  0
 17 10  1  0  0  0  0
 18 20  1  0  0  0  0
 19  6  1  6  0  0  0
 20 13  1  0  0  0  0
 20 11  1  0  0  0  0
 21 26  1  0  0  0  0
 21 23  2  0  0  0  0
 22 10  1  0  0  0  0
 23  4  1  0  0  0  0
 24 22  1  0  0  0  0
 25 14  1  6  0  0  0
 25 17  1  0  0  0  0
 26  1  2  0  0  0  0
 28 29  1  0  0  0  0
 30 33  1  0  0  0  0
 30 34  1  0  0  0  0
 31 32  1  0  0  0  0
 32 29  1  6  0  0  0
 33 31  1  0  0  0  0
 34 32  1  0  0  0  0
M  END
>  <MODEL>
4

>  <REMARK>
 VINA RESULT:      -8.1      2.723      4.620
  Name = 
  3 active torsions:
  status: ('A' for Active; 'I' for Inactive)
    1  A    between atoms: C_17  and  N_28
    2  A    between atoms: N_28  and  C_29
    3  A    between atoms: C_29  and  C_32
                            x       y       z     vdW  Elec       q    Type
                         _______ _______ _______ _____ _____    ______ ____

>  <TORSDO>
F 3

$$$$
=
 OpenBabel11112417473D

 34 40  0  0  1  0  0  0  0  0999 V2000
  191.1610  174.1110  141.2580 C   0  0  0  0  0  0  0  0  0  0  0  0
  188.7030  174.1290  141.8720 C   0  0  0  0  0  3  0  0  0  0  0  0
  197.0330  174.2540  143.5370 C   0  0  2  0  0  3  0  0  0  0  0  0
  193.5540  173.9400  141.1330 C   0  0  0  0  0  0  0  0  0  0  0  0
  195.0040  175.5490  142.5540 C   0  0  2  0  0  3  0  0  0  0  0  0
  197.1330  176.7830  143.1510 C   0  0  0  0  0  1  0  0  0  0  0  0
  197.7860  174.2190  144.7110 O   0  0  0  0  0  1  0  0  0  0  0  0
  197.3560  174.4500  141.0060 C   0  0  0  0  0  2  0  0  0  0  0  0
  190.0900  176.0430  142.4380 C   0  0  2  0  0  3  0  0  0  0  0  0
  189.4530  177.5780  145.2290 C   0  0  0  0  0  2  0  0  0  0  0  0
  193.7880  175.5740  143.4800 C   0  0  0  0  0  2  0  0  0  0  0  0
  195.9520  173.9750  140.8170 C   0  0  0  0  0  3  0  0  0  0  0  0
  191.3310  176.1000  143.3650 C   0  0  1  0  0  3  0  0  0  0  0  0
  187.8360  175.0920  142.6630 C   0  0  0  0  0  3  0  0  0  0  0  0
  194.9000  174.4230  141.5190 C   0  0  0  0  0  0  0  0  0  0  0  0
  197.9410  173.9760  142.3340 C   0  0  0  0  0  2  0  0  0  0  0  0
  188.8390  176.2740  144.6870 C   0  0  2  0  0  3  0  0  0  0  0  0
  192.4170  174.5330  141.6950 C   0  0  0  0  0  0  0  0  0  0  0  0
  196.2570  175.5760  143.4470 C   0  0  2  0  0  3  0  0  0  0  0  0
  192.5330  175.5280  142.7300 N   0  0  0  0  0  0  0  0  0  0  0  0
  192.1670  172.5270  139.8270 C   0  0  0  0  0  3  0  0  0  0  0  0
  190.3640  178.3190  144.2490 C   0  0  0  0  0  2  0  0  0  0  0  0
  193.4010  172.9470  140.2120 N   0  0  0  0  0  0  0  0  0  0  0  0
  191.6130  177.5270  143.8630 C   0  0  0  0  0  2  0  0  0  0  0  0
  188.7330  176.2380  143.1450 C   0  0  1  0  0  3  0  0  0  0  0  0
  191.0550  173.1090  140.3460 N   0  0  0  0  0  0  0  0  0  0  0  0
  190.0030  174.7550  141.7830 N   0  0  0  0  0  0  0  0  0  0  0  0
  187.5360  176.0810  145.3050 N   0  0  0  0  0  2  0  0  0  0  0  0
  187.6790  176.4260  146.7100 C   0  0  0  0  0  2  0  0  0  0  0  0
  185.1930  179.0190  147.2740 N   0  0  0  0  0  2  0  0  0  0  0  0
  185.2870  176.8680  146.2020 C   0  0  0  0  0  2  0  0  0  0  0  0
  186.3500  176.9060  147.2630 C   0  0  2  0  0  3  0  0  0  0  0  0
  184.3980  178.0410  146.5390 C   0  0  0  0  0  2  0  0  0  0  0  0
  186.4450  178.3650  147.6440 C   0  0  0  0  0  2  0  0  0  0  0  0
  1 18  1  0  0  0  0
  1 27  1  0  0  0  0
  2 14  2  0  0  0  0
  3  7  1  1  0  0  0
  4 15  1  0  0  0  0
  4 18  2  0  0  0  0
  5 19  1  0  0  0  0
  5 11  1  1  0  0  0
  8 16  1  0  0  0  0
  9 27  1  1  0  0  0
  9 25  1  0  0  0  0
  9 13  1  0  0  0  0
 12  8  1  0  0  0  0
 12 15  2  0  0  0  0
 13 24  1  6  0  0  0
 15  5  1  0  0  0  0
 16  3  1  0  0  0  0
 17 10  1  0  0  0  0
 17 28  1  1  0  0  0
 18 20  1  0  0  0  0
 19  6  1  6  0  0  0
 19  3  1  0  0  0  0
 20 13  1  0  0  0  0
 20 11  1  0  0  0  0
 21 23  2  0  0  0  0
 21 26  1  0  0  0  0
 22 10  1  0  0  0  0
 23  4  1  0  0  0  0
 24 22  1  0  0  0  0
 25 14  1  1  0  0  0
 25 17  1  0  0  0  0
 26  1  2  0  0  0  0
 27  2  1  0  0  0  0
 28 29  1  0  0  0  0
 30 34  1  0  0  0  0
 31 33  1  0  0  0  0
 31 32  1  0  0  0  0
 32 29  1  6  0  0  0
 32 34  1  0  0  0  0
 33 30  1  0  0  0  0
M  END
>  <MODEL>
5

>  <REMARK>
 VINA RESULT:      -8.0      2.983      4.863
  Name = 
  3 active torsions:
  status: ('A' for Active; 'I' for Inactive)
    1  A    between atoms: C_17  and  N_28
    2  A    between atoms: N_28  and  C_29
    3  A    between atoms: C_29  and  C_32
                            x       y       z     vdW  Elec       q    Type
                         _______ _______ _______ _____ _____    ______ ____

>  <TORSDO>
F 3

$$$$
=
 OpenBabel11112417473D

 34 40  0  0  1  0  0  0  0  0999 V2000
  192.2250  176.1770  145.4090 C   0  0  0  0  0  0  0  0  0  0  0  0
  189.8940  176.9780  145.9960 C   0  0  0  0  0  3  0  0  0  0  0  0
  196.3730  175.4070  140.7290 C   0  0  2  0  0  3  0  0  0  0  0  0
  194.3810  175.7020  144.4620 C   0  0  0  0  0  0  0  0  0  0  0  0
  194.5120  174.3900  142.2320 C   0  0  2  0  0  3  0  0  0  0  0  0
  195.6590  172.9610  140.4840 C   0  0  0  0  0  1  0  0  0  0  0  0
  196.6060  175.6650  139.3790 O   0  0  0  0  0  1  0  0  0  0  0  0
  197.4900  174.2660  142.7290 C   0  0  0  0  0  2  0  0  0  0  0  0
  190.1660  175.1050  144.4700 C   0  0  2  0  0  3  0  0  0  0  0  0
  188.0440  174.8510  142.0240 C   0  0  0  0  0  2  0  0  0  0  0  0
  193.1270  174.9890  141.9810 C   0  0  0  0  0  2  0  0  0  0  0  0
  196.5340  174.9730  143.6340 C   0  0  0  0  0  3  0  0  0  0  0  0
  190.8720  175.0740  143.0910 C   0  0  1  0  0  3  0  0  0  0  0  0
  188.5090  176.5960  145.5050 C   0  0  0  0  0  3  0  0  0  0  0  0
  195.2140  175.0710  143.4120 C   0  0  0  0  0  0  0  0  0  0  0  0
  197.6880  175.0160  141.4140 C   0  0  0  0  0  2  0  0  0  0  0  0
  188.1980  175.9890  143.0480 C   0  0  2  0  0  3  0  0  0  0  0  0
  192.9850  175.6410  144.3700 C   0  0  0  0  0  0  0  0  0  0  0  0
  195.2510  174.3710  140.8830 C   0  0  2  0  0  3  0  0  0  0  0  0
  192.3420  175.0760  143.2120 N   0  0  0  0  0  0  0  0  0  0  0  0
  194.1910  176.8620  146.5210 C   0  0  0  0  0  3  0  0  0  0  0  0
  188.9010  173.6140  142.3000 C   0  0  0  0  0  2  0  0  0  0  0  0
  194.9520  176.3150  145.5370 N   0  0  0  0  0  0  0  0  0  0  0  0
  190.4040  173.8890  142.2310 C   0  0  0  0  0  2  0  0  0  0  0  0
  188.6770  175.5080  144.4370 C   0  0  1  0  0  3  0  0  0  0  0  0
  192.8360  176.7900  146.4570 N   0  0  0  0  0  0  0  0  0  0  0  0
  190.8060  176.0620  145.3480 N   0  0  0  0  0  0  0  0  0  0  0  0
  186.9320  176.7000  143.1490 N   0  0  0  0  0  2  0  0  0  0  0  0
  187.0770  177.9330  142.3920 C   0  0  0  0  0  2  0  0  0  0  0  0
  183.6980  178.6660  143.5130 N   0  0  0  0  0  2  0  0  0  0  0  0
  185.9390  179.1150  144.2580 C   0  0  0  0  0  2  0  0  0  0  0  0
  185.9760  178.9050  142.7710 C   0  0  2  0  0  3  0  0  0  0  0  0
  184.4750  179.3260  144.5570 C   0  0  0  0  0  2  0  0  0  0  0  0
  184.6260  178.3120  142.4440 C   0  0  0  0  0  2  0  0  0  0  0  0
  1 26  1  0  0  0  0
  3  7  1  6  0  0  0
  3 19  1  0  0  0  0
  3 16  1  0  0  0  0
  4 23  2  0  0  0  0
  5 11  1  6  0  0  0
  5 15  1  0  0  0  0
  8 12  1  0  0  0  0
  9 27  1  1  0  0  0
 10 22  1  0  0  0  0
 10 17  1  0  0  0  0
 11 20  1  0  0  0  0
 13 24  1  1  0  0  0
 13 20  1  0  0  0  0
 13  9  1  0  0  0  0
 14  2  2  0  0  0  0
 15 12  2  0  0  0  0
 15  4  1  0  0  0  0
 16  8  1  0  0  0  0
 17 28  1  1  0  0  0
 17 25  1  0  0  0  0
 18  4  1  0  0  0  0
 18  1  2  0  0  0  0
 19  6  1  1  0  0  0
 19  5  1  0  0  0  0
 20 18  1  0  0  0  0
 23 21  1  0  0  0  0
 24 22  1  0  0  0  0
 25  9  1  0  0  0  0
 25 14  1  1  0  0  0
 26 21  2  0  0  0  0
 27  1  1  0  0  0  0
 27  2  1  0  0  0  0
 29 28  1  0  0  0  0
 30 33  1  0  0  0  0
 31 33  1  0  0  0  0
 32 29  1  1  0  0  0
 32 31  1  0  0  0  0
 34 32  1  0  0  0  0
 34 30  1  0  0  0  0
M  END
>  <MODEL>
6

>  <REMARK>
 VINA RESULT:      -8.0      1.761      2.658
  Name = 
  3 active torsions:
  status: ('A' for Active; 'I' for Inactive)
    1  A    between atoms: C_17  and  N_28
    2  A    between atoms: N_28  and  C_29
    3  A    between atoms: C_29  and  C_32
                            x       y       z     vdW  Elec       q    Type
                         _______ _______ _______ _____ _____    ______ ____

>  <TORSDO>
F 3

$$$$
=
 OpenBabel11112417473D

 34 40  0  0  1  0  0  0  0  0999 V2000
  189.4830  174.9250  142.6950 C   0  0  0  0  0  0  0  0  0  0  0  0
  191.8620  174.0780  142.9090 C   0  0  0  0  0  3  0  0  0  0  0  0
  185.6150  179.7540  143.8880 C   0  0  2  0  0  3  0  0  0  0  0  0
  187.4320  176.1660  142.5400 C   0  0  0  0  0  0  0  0  0  0  0  0
  186.5840  177.4550  144.6210 C   0  0  2  0  0  3  0  0  0  0  0  0
  184.8310  178.6080  146.0390 C   0  0  0  0  0  1  0  0  0  0  0  0
  185.5660  181.0680  144.3530 O   0  0  0  0  0  1  0  0  0  0  0  0
  184.0520  177.9150  143.0380 C   0  0  0  0  0  2  0  0  0  0  0  0
  190.5830  174.5690  144.9170 C   0  0  2  0  0  3  0  0  0  0  0  0
  192.1920  175.8220  147.4450 C   0  0  0  0  0  2  0  0  0  0  0  0
  188.0660  177.5070  144.9970 C   0  0  0  0  0  2  0  0  0  0  0  0
  185.2410  177.1900  142.4960 C   0  0  0  0  0  3  0  0  0  0  0  0
  189.9800  175.9210  145.3760 C   0  0  1  0  0  3  0  0  0  0  0  0
  192.7920  173.8790  144.0910 C   0  0  0  0  0  3  0  0  0  0  0  0
  186.3870  177.0080  143.1690 C   0  0  0  0  0  0  0  0  0  0  0  0
  184.3090  179.4140  143.1620 C   0  0  0  0  0  2  0  0  0  0  0  0
  192.7050  175.5440  146.0200 C   0  0  2  0  0  3  0  0  0  0  0  0
  188.5520  175.7790  143.2860 C   0  0  0  0  0  0  0  0  0  0  0  0
  185.9610  178.7990  145.0390 C   0  0  2  0  0  3  0  0  0  0  0  0
  188.7650  176.2800  144.6200 N   0  0  0  0  0  0  0  0  0  0  0  0
  188.2440  174.9300  140.6870 C   0  0  0  0  0  3  0  0  0  0  0  0
  190.7880  175.2910  147.7400 C   0  0  0  0  0  2  0  0  0  0  0  0
  187.3060  175.7330  141.2540 N   0  0  0  0  0  0  0  0  0  0  0  0
  189.7000  175.9440  146.8870 C   0  0  0  0  0  2  0  0  0  0  0  0
  192.0410  174.3180  145.3540 C   0  0  1  0  0  3  0  0  0  0  0  0
  189.3240  174.5260  141.4060 N   0  0  0  0  0  0  0  0  0  0  0  0
  190.5920  174.4790  143.4720 N   0  0  0  0  0  0  0  0  0  0  0  0
  194.1520  175.3920  146.0680 N   0  0  0  0  0  2  0  0  0  0  0  0
  194.7240  176.6240  145.5500 C   0  0  0  0  0  2  0  0  0  0  0  0
  196.4450  174.2970  143.3500 N   0  0  0  0  0  2  0  0  0  0  0  0
  195.1190  176.2890  143.1190 C   0  0  0  0  0  2  0  0  0  0  0  0
  195.7530  176.3080  144.4810 C   0  0  2  0  0  3  0  0  0  0  0  0
  195.8940  175.2300  142.3730 C   0  0  0  0  0  2  0  0  0  0  0  0
  196.2770  174.9030  144.6670 C   0  0  0  0  0  2  0  0  0  0  0  0
  1 18  1  0  0  0  0
  1 27  1  0  0  0  0
  2 27  1  0  0  0  0
  2 14  2  0  0  0  0
  3  7  1  1  0  0  0
  3 19  1  0  0  0  0
  4 15  1  0  0  0  0
  4 18  2  0  0  0  0
  5 11  1  6  0  0  0
  5 19  1  0  0  0  0
  8 16  1  0  0  0  0
  9 27  1  6  0  0  0
  9 25  1  0  0  0  0
  9 13  1  0  0  0  0
 10 22  1  0  0  0  0
 12  8  1  0  0  0  0
 12 15  2  0  0  0  0
 13 24  1  1  0  0  0
 15  5  1  0  0  0  0
 16  3  1  0  0  0  0
 17 28  1  1  0  0  0
 17 10  1  0  0  0  0
 18 20  1  0  0  0  0
 19  6  1  6  0  0  0
 20 11  1  0  0  0  0
 20 13  1  0  0  0  0
 21 23  2  0  0  0  0
 21 26  1  0  0  0  0
 23  4  1  0  0  0  0
 24 22  1  0  0  0  0
 25 14  1  6  0  0  0
 25 17  1  0  0  0  0
 26  1  2  0  0  0  0
 29 28  1  0  0  0  0
 30 34  1  0  0  0  0
 31 32  1  0  0  0  0
 32 34  1  0  0  0  0
 32 29  1  1  0  0  0
 33 31  1  0  0  0  0
 33 30  1  0  0  0  0
M  END
>  <MODEL>
7

>  <REMARK>
 VINA RESULT:      -8.0      2.787      8.931
  Name = 
  3 active torsions:
  status: ('A' for Active; 'I' for Inactive)
    1  A    between atoms: C_17  and  N_28
    2  A    between atoms: N_28  and  C_29
    3  A    between atoms: C_29  and  C_32
                            x       y       z     vdW  Elec       q    Type
                         _______ _______ _______ _____ _____    ______ ____

>  <TORSDO>
F 3

$$$$
=
 OpenBabel11112417473D

 34 40  0  0  1  0  0  0  0  0999 V2000
  191.7850  174.4710  142.4610 C   0  0  0  0  0  0  0  0  0  0  0  0
  189.8900  176.1320  142.7220 C   0  0  0  0  0  3  0  0  0  0  0  0
  194.7030  169.5420  145.0860 C   0  0  2  0  0  3  0  0  0  0  0  0
  193.3230  172.6250  142.5230 C   0  0  0  0  0  0  0  0  0  0  0  0
  194.5830  172.1140  144.7280 C   0  0  2  0  0  3  0  0  0  0  0  0
  196.4470  171.1080  146.1150 C   0  0  0  0  0  1  0  0  0  0  0  0
  194.6400  168.6250  146.1350 O   0  0  0  0  0  1  0  0  0  0  0  0
  196.1960  170.1470  143.0980 C   0  0  0  0  0  2  0  0  0  0  0  0
  191.6820  176.0970  144.3630 C   0  0  2  0  0  3  0  0  0  0  0  0
  190.8880  176.6970  147.4550 C   0  0  0  0  0  2  0  0  0  0  0  0
  193.3680  172.7670  145.3880 C   0  0  0  0  0  2  0  0  0  0  0  0
  195.0740  170.9560  142.5340 C   0  0  0  0  0  3  0  0  0  0  0  0
  192.1100  174.9430  145.3060 C   0  0  1  0  0  3  0  0  0  0  0  0
  189.5240  177.1310  143.8040 C   0  0  0  0  0  3  0  0  0  0  0  0
  194.3220  171.8070  143.2490 C   0  0  0  0  0  0  0  0  0  0  0  0
  195.6910  169.0440  144.0250 C   0  0  0  0  0  2  0  0  0  0  0  0
  189.9590  176.5200  146.2410 C   0  0  2  0  0  3  0  0  0  0  0  0
  192.6650  173.6680  143.1870 C   0  0  0  0  0  0  0  0  0  0  0  0
  195.0160  170.9440  145.6280 C   0  0  2  0  0  3  0  0  0  0  0  0
  192.8560  173.8860  144.5990 N   0  0  0  0  0  0  0  0  0  0  0  0
  192.1680  173.1760  140.5250 C   0  0  0  0  0  3  0  0  0  0  0  0
  192.3810  176.7510  147.1230 C   0  0  0  0  0  2  0  0  0  0  0  0
  193.0560  172.4030  141.2050 N   0  0  0  0  0  0  0  0  0  0  0  0
  192.9140  175.4540  146.5130 C   0  0  0  0  0  2  0  0  0  0  0  0
  190.5760  177.0200  144.9150 C   0  0  1  0  0  3  0  0  0  0  0  0
  191.5400  174.2050  141.1510 N   0  0  0  0  0  0  0  0  0  0  0  0
  191.1610  175.5700  143.1190 N   0  0  0  0  0  0  0  0  0  0  0  0
  188.6990  177.1940  146.5170 N   0  0  0  0  0  2  0  0  0  0  0  0
  187.7420  176.1650  146.8910 C   0  0  0  0  0  2  0  0  0  0  0  0
  185.5130  179.0320  147.0570 N   0  0  0  0  0  2  0  0  0  0  0  0
  185.5710  176.9060  145.9350 C   0  0  0  0  0  2  0  0  0  0  0  0
  186.3940  176.7940  147.1870 C   0  0  2  0  0  3  0  0  0  0  0  0
  184.7750  178.1730  146.1370 C   0  0  0  0  0  2  0  0  0  0  0  0
  186.5780  178.2230  147.6410 C   0  0  0  0  0  2  0  0  0  0  0  0
  1 27  1  0  0  0  0
  1 18  1  0  0  0  0
  2 27  1  0  0  0  0
  2 14  2  0  0  0  0
  3 19  1  0  0  0  0
  3  7  1  1  0  0  0
  4 18  2  0  0  0  0
  4 15  1  0  0  0  0
  5 11  1  1  0  0  0
  5 19  1  0  0  0  0
  8 16  1  0  0  0  0
  9 27  1  6  0  0  0
  9 25  1  0  0  0  0
  9 13  1  0  0  0  0
 12  8  1  0  0  0  0
 12 15  2  0  0  0  0
 13 24  1  1  0  0  0
 15  5  1  0  0  0  0
 16  3  1  0  0  0  0
 17 28  1  1  0  0  0
 17 10  1  0  0  0  0
 18 20  1  0  0  0  0
 19  6  1  6  0  0  0
 20 13  1  0  0  0  0
 20 11  1  0  0  0  0
 21 26  1  0  0  0  0
 21 23  2  0  0  0  0
 22 10  1  0  0  0  0
 23  4  1  0  0  0  0
 24 22  1  0  0  0  0
 25 14  1  6  0  0  0
 25 17  1  0  0  0  0
 26  1  2  0  0  0  0
 28 29  1  0  0  0  0
 30 34  1  0  0  0  0
 31 33  1  0  0  0  0
 31 32  1  0  0  0  0
 32 29  1  6  0  0  0
 32 34  1  0  0  0  0
 33 30  1  0  0  0  0
M  END
>  <MODEL>
8

>  <REMARK>
 VINA RESULT:      -7.6      3.371      5.583
  Name = 
  3 active torsions:
  status: ('A' for Active; 'I' for Inactive)
    1  A    between atoms: C_17  and  N_28
    2  A    between atoms: N_28  and  C_29
    3  A    between atoms: C_29  and  C_32
                            x       y       z     vdW  Elec       q    Type
                         _______ _______ _______ _____ _____    ______ ____

>  <TORSDO>
F 3

$$$$
=
 OpenBabel11112417473D

 34 40  0  0  1  0  0  0  0  0999 V2000
  188.9360  174.3590  140.8490 C   0  0  0  0  0  0  0  0  0  0  0  0
  187.5500  176.2750  141.7560 C   0  0  0  0  0  3  0  0  0  0  0  0
  192.0480  169.0930  142.3630 C   0  0  2  0  0  3  0  0  0  0  0  0
  190.1140  172.3140  140.3950 C   0  0  0  0  0  0  0  0  0  0  0  0
  192.1100  171.6520  141.9080 C   0  0  2  0  0  3  0  0  0  0  0  0
  194.2430  170.4060  142.4620 C   0  0  0  0  0  1  0  0  0  0  0  0
  192.3180  168.2060  143.4040 O   0  0  0  0  0  1  0  0  0  0  0  0
  192.6280  169.4570  139.8970 C   0  0  0  0  0  2  0  0  0  0  0  0
  189.8470  176.0030  142.5030 C   0  0  2  0  0  3  0  0  0  0  0  0
  190.5100  176.7450  145.5960 C   0  0  0  0  0  2  0  0  0  0  0  0
  191.3780  172.4790  142.9660 C   0  0  0  0  0  2  0  0  0  0  0  0
  191.4830  170.4120  139.7960 C   0  0  0  0  0  3  0  0  0  0  0  0
  190.4840  174.8110  143.2620 C   0  0  1  0  0  3  0  0  0  0  0  0
  187.8020  177.3280  142.8200 C   0  0  0  0  0  3  0  0  0  0  0  0
  191.2150  171.3690  140.6970 C   0  0  0  0  0  0  0  0  0  0  0  0
  192.4270  168.4480  141.0250 C   0  0  0  0  0  2  0  0  0  0  0  0
  189.1420  176.6890  144.8920 C   0  0  2  0  0  3  0  0  0  0  0  0
  189.9320  173.4460  141.1990 C   0  0  0  0  0  0  0  0  0  0  0  0
  192.7320  170.4420  142.6270 C   0  0  2  0  0  3  0  0  0  0  0  0
  190.7250  173.6510  142.3840 N   0  0  0  0  0  0  0  0  0  0  0  0
  188.3040  173.0010  139.0250 C   0  0  0  0  0  3  0  0  0  0  0  0
  191.7180  176.5810  144.6710 C   0  0  0  0  0  2  0  0  0  0  0  0
  189.2910  172.1170  139.3260 N   0  0  0  0  0  0  0  0  0  0  0  0
  191.7790  175.2160  143.9860 C   0  0  0  0  0  2  0  0  0  0  0  0
  189.2000  177.0810  143.3990 C   0  0  1  0  0  3  0  0  0  0  0  0
  188.1320  174.1160  139.7810 N   0  0  0  0  0  0  0  0  0  0  0  0
  188.7900  175.5430  141.6280 N   0  0  0  0  0  0  0  0  0  0  0  0
  188.2100  177.5380  145.6190 N   0  0  0  0  0  2  0  0  0  0  0  0
  187.9330  176.8770  146.8840 C   0  0  0  0  0  2  0  0  0  0  0  0
  184.8150  178.7080  147.2620 N   0  0  0  0  0  2  0  0  0  0  0  0
  185.6430  176.8940  145.9180 C   0  0  0  0  0  2  0  0  0  0  0  0
  186.4480  176.9390  147.1860 C   0  0  2  0  0  3  0  0  0  0  0  0
  184.4420  177.7560  146.2210 C   0  0  0  0  0  2  0  0  0  0  0  0
  186.1000  178.2740  147.8010 C   0  0  0  0  0  2  0  0  0  0  0  0
  1 18  1  0  0  0  0
  1 27  1  0  0  0  0
  2 14  2  0  0  0  0
  3 19  1  0  0  0  0
  3  7  1  1  0  0  0
  4 15  1  0  0  0  0
  4 18  2  0  0  0  0
  5 19  1  0  0  0  0
  5 11  1  1  0  0  0
  8 16  1  0  0  0  0
  9 27  1  6  0  0  0
  9 13  1  0  0  0  0
  9 25  1  0  0  0  0
 12  8  1  0  0  0  0
 12 15  2  0  0  0  0
 13 24  1  6  0  0  0
 15  5  1  0  0  0  0
 16  3  1  0  0  0  0
 17 10  1  0  0  0  0
 17 28  1  1  0  0  0
 18 20  1  0  0  0  0
 19  6  1  6  0  0  0
 20 11  1  0  0  0  0
 20 13  1  0  0  0  0
 21 23  2  0  0  0  0
 21 26  1  0  0  0  0
 22 10  1  0  0  0  0
 23  4  1  0  0  0  0
 24 22  1  0  0  0  0
 25 14  1  6  0  0  0
 25 17  1  0  0  0  0
 26  1  2  0  0  0  0
 27  2  1  0  0  0  0
 28 29  1  0  0  0  0
 30 34  1  0  0  0  0
 31 33  1  0  0  0  0
 31 32  1  0  0  0  0
 32 29  1  6  0  0  0
 32 34  1  0  0  0  0
 33 30  1  0  0  0  0
M  END
>  <MODEL>
9

>  <REMARK>
 VINA RESULT:      -7.5      3.732      6.003
  Name = 
  3 active torsions:
  status: ('A' for Active; 'I' for Inactive)
    1  A    between atoms: C_17  and  N_28
    2  A    between atoms: N_28  and  C_29
    3  A    between atoms: C_29  and  C_32
                            x       y       z     vdW  Elec       q    Type
                         _______ _______ _______ _____ _____    ______ ____

>  <TORSDO>
F 3

$$$$
