=
 OpenBabel11112416163D

 30 35  0  0  1  0  0  0  0  0999 V2000
  187.2210  177.0670  143.9650 C   0  0  1  0  0  3  0  0  0  0  0  0
  185.1020  178.0300  145.0270 C   0  0  0  0  0  0  0  0  0  0  0  0
  189.0720  177.1100  147.6330 N   0  0  0  0  0  0  0  0  0  0  0  0
  188.5250  176.3080  144.3290 C   0  0  1  0  0  3  0  0  0  0  0  0
  186.4110  176.2390  143.1630 O   0  0  0  0  0  0  0  0  0  0  0  0
  189.0520  175.1960  140.8880 O   0  0  0  0  0  1  0  0  0  0  0  0
  191.6910  175.9960  143.7010 C   0  0  1  0  0  3  0  0  0  0  0  0
  188.4060  175.3220  142.1210 C   0  0  2  0  0  3  0  0  0  0  0  0
  191.7940  176.3990  145.1750 C   0  0  2  0  0  3  0  0  0  0  0  0
  190.3240  176.5680  147.2630 C   0  0  0  0  0  0  0  0  0  0  0  0
  187.0660  176.0480  141.9270 C   0  0  2  0  0  3  0  0  0  0  0  0
  189.2730  176.0250  143.0840 N   0  0  2  0  0  0  0  0  0  0  0  0
  184.4130  178.5400  146.1320 C   0  0  0  0  0  3  0  0  0  0  0  0
  192.7210  175.3750  145.7980 C   0  0  0  0  0  2  0  0  0  0  0  0
  192.9500  175.2020  143.3900 C   0  0  0  0  0  2  0  0  0  0  0  0
  184.4410  177.9510  143.8070 O   0  0  0  0  0  1  0  0  0  0  0  0
  188.5060  177.4290  146.5160 C   0  0  0  0  0  0  0  0  0  0  0  0
  185.0510  178.6660  147.3670 C   0  0  0  0  0  3  0  0  0  0  0  0
  186.4450  177.6100  145.1590 C   0  0  0  0  0  0  0  0  0  0  0  0
  189.3440  177.1650  145.3020 C   0  0  1  0  0  3  0  0  0  0  0  0
  191.1920  176.2190  148.1060 O   0  0  0  0  0  0  0  0  0  0  0  0
  190.4960  176.4600  145.8520 N   0  0  0  0  0  0  0  0  0  0  0  0
  193.6970  175.0170  144.7000 C   0  0  0  0  0  2  0  0  0  0  0  0
  190.1850  173.9370  144.1910 C   0  0  0  0  0  1  0  0  0  0  0  0
  186.3900  178.3000  147.5000 C   0  0  0  0  0  3  0  0  0  0  0  0
  187.0940  177.7980  146.3990 C   0  0  0  0  0  0  0  0  0  0  0  0
  190.4520  175.1720  143.3190 C   0  0  2  0  0  3  0  0  0  0  0  0
  187.2300  177.2620  141.2450 O   0  0  0  0  0  0  0  0  0  0  0  0
  185.2170  178.2910  140.5130 C   0  0  0  0  0  1  0  0  0  0  0  0
  186.2680  177.2380  140.2340 C   0  0  0  0  0  2  0  0  0  0  0  0
  1  5  1  1  0  0  0
  1  4  1  0  0  0  0
  1 19  1  0  0  0  0
  2 19  2  0  0  0  0
  2 13  1  0  0  0  0
  4 20  1  0  0  0  0
  6  8  1  0  0  0  0
  7  9  1  0  0  0  0
  8 12  1  0  0  0  0
  9 14  1  0  0  0  0
  9 22  1  0  0  0  0
 10  3  1  0  0  0  0
 10 21  2  0  0  0  0
 11  8  1  0  0  0  0
 11  5  1  0  0  0  0
 12 27  1  0  0  0  0
 12  4  1  0  0  0  0
 13 18  2  0  0  0  0
 15  7  1  0  0  0  0
 15 23  1  0  0  0  0
 16  2  1  0  0  0  0
 17  3  2  0  0  0  0
 18 25  1  0  0  0  0
 19 26  1  0  0  0  0
 20 22  1  0  0  0  0
 20 17  1  0  0  0  0
 22 10  1  0  0  0  0
 23 14  1  0  0  0  0
 26 17  1  0  0  0  0
 26 25  2  0  0  0  0
 27  7  1  0  0  0  0
 27 24  1  0  0  0  0
 28 11  1  0  0  0  0
 30 29  1  0  0  0  0
 30 28  1  0  0  0  0
M  END
>  <MODEL>
1

>  <REMARK>
 VINA RESULT:      -8.5      0.000      0.000
  Name = 
  2 active torsions:
  status: ('A' for Active; 'I' for Inactive)
    1  A    between atoms: C_11  and  O_28
    2  A    between atoms: O_28  and  C_30
                            x       y       z     vdW  Elec       q    Type
                         _______ _______ _______ _____ _____    ______ ____

>  <TORSDO>
F 2

$$$$
=
 OpenBabel11112416163D

 30 35  0  0  1  0  0  0  0  0999 V2000
  189.3540  175.4940  143.9810 C   0  0  1  0  0  3  0  0  0  0  0  0
  191.3730  174.7540  145.3660 C   0  0  0  0  0  0  0  0  0  0  0  0
  187.9620  177.6630  147.1810 N   0  0  0  0  0  0  0  0  0  0  0  0
  188.2590  176.5920  143.9210 C   0  0  1  0  0  3  0  0  0  0  0  0
  190.2020  175.6220  142.8630 O   0  0  0  0  0  0  0  0  0  0  0  0
  187.5460  175.9430  140.3960 O   0  0  0  0  0  1  0  0  0  0  0  0
  185.1500  177.2210  143.2490 C   0  0  1  0  0  3  0  0  0  0  0  0
  188.2970  176.3070  141.5170 C   0  0  2  0  0  3  0  0  0  0  0  0
  185.1470  177.6300  144.7250 C   0  0  2  0  0  3  0  0  0  0  0  0
  186.7940  178.2050  146.5980 C   0  0  0  0  0  0  0  0  0  0  0  0
  189.4530  175.3140  141.7070 C   0  0  2  0  0  3  0  0  0  0  0  0
  187.4340  176.3750  142.7110 N   0  0  2  0  0  0  0  0  0  0  0  0
  192.0820  174.7210  146.5720 C   0  0  0  0  0  3  0  0  0  0  0  0
  184.4970  178.9990  144.7510 C   0  0  0  0  0  2  0  0  0  0  0  0
  184.0260  178.0060  142.5900 C   0  0  0  0  0  2  0  0  0  0  0  0
  191.8920  174.0760  144.2690 O   0  0  0  0  0  1  0  0  0  0  0  0
  188.3280  176.7220  146.3740 C   0  0  0  0  0  0  0  0  0  0  0  0
  191.5790  175.3610  147.7050 C   0  0  0  0  0  3  0  0  0  0  0  0
  190.1520  175.4590  145.2790 C   0  0  0  0  0  0  0  0  0  0  0  0
  187.4170  176.5240  145.2010 C   0  0  1  0  0  3  0  0  0  0  0  0
  186.1060  179.1000  147.1550 O   0  0  0  0  0  0  0  0  0  0  0  0
  186.4810  177.6360  145.3280 N   0  0  0  0  0  0  0  0  0  0  0  0
  183.4810  178.9670  143.6310 C   0  0  0  0  0  2  0  0  0  0  0  0
  187.0480  178.8770  142.6150 C   0  0  0  0  0  1  0  0  0  0  0  0
  190.3520  176.0210  147.6460 C   0  0  0  0  0  3  0  0  0  0  0  0
  189.6280  176.0520  146.4490 C   0  0  0  0  0  0  0  0  0  0  0  0
  186.4640  177.4620  142.4910 C   0  0  2  0  0  3  0  0  0  0  0  0
  188.9960  173.9880  141.7350 O   0  0  0  0  0  0  0  0  0  0  0  0
  190.2450  171.9690  141.8420 C   0  0  0  0  0  1  0  0  0  0  0  0
  189.9860  173.2530  141.0830 C   0  0  0  0  0  2  0  0  0  0  0  0
  1  5  1  6  0  0  0
  1 19  1  0  0  0  0
  2 13  1  0  0  0  0
  4  1  1  0  0  0  0
  4 20  1  0  0  0  0
  6  8  1  0  0  0  0
  7  9  1  0  0  0  0
  8 11  1  0  0  0  0
  8 12  1  0  0  0  0
  9 14  1  0  0  0  0
  9 22  1  0  0  0  0
 10 21  2  0  0  0  0
 10  3  1  0  0  0  0
 11 28  1  0  0  0  0
 11  5  1  0  0  0  0
 12  4  1  0  0  0  0
 13 18  2  0  0  0  0
 15  7  1  0  0  0  0
 15 23  1  0  0  0  0
 16  2  1  0  0  0  0
 17 26  1  0  0  0  0
 17  3  2  0  0  0  0
 19  2  2  0  0  0  0
 19 26  1  0  0  0  0
 20 22  1  0  0  0  0
 20 17  1  0  0  0  0
 22 10  1  0  0  0  0
 23 14  1  0  0  0  0
 25 18  1  0  0  0  0
 26 25  2  0  0  0  0
 27 24  1  0  0  0  0
 27 12  1  0  0  0  0
 27  7  1  0  0  0  0
 30 28  1  0  0  0  0
 30 29  1  0  0  0  0
M  END
>  <MODEL>
2

>  <REMARK>
 VINA RESULT:      -7.9      2.035      5.656
  Name = 
  2 active torsions:
  status: ('A' for Active; 'I' for Inactive)
    1  A    between atoms: C_11  and  O_28
    2  A    between atoms: O_28  and  C_30
                            x       y       z     vdW  Elec       q    Type
                         _______ _______ _______ _____ _____    ______ ____

>  <TORSDO>
F 2

$$$$
=
 OpenBabel11112416163D

 30 35  0  0  1  0  0  0  0  0999 V2000
  187.7560  176.3010  143.2450 C   0  0  1  0  0  3  0  0  0  0  0  0
  185.5700  177.5980  143.5310 C   0  0  0  0  0  0  0  0  0  0  0  0
  188.9160  177.4390  147.0190 N   0  0  0  0  0  0  0  0  0  0  0  0
  188.9060  175.6620  144.0700 C   0  0  1  0  0  3  0  0  0  0  0  0
  187.0370  175.2850  142.5870 O   0  0  0  0  0  0  0  0  0  0  0  0
  189.9460  173.5210  141.2960 O   0  0  0  0  0  1  0  0  0  0  0  0
  192.0950  175.0930  144.1990 C   0  0  1  0  0  3  0  0  0  0  0  0
  189.1020  174.0410  142.2820 C   0  0  2  0  0  3  0  0  0  0  0  0
  191.9660  175.9320  145.4740 C   0  0  2  0  0  3  0  0  0  0  0  0
  190.1640  176.7790  147.0830 C   0  0  0  0  0  0  0  0  0  0  0  0
  187.8850  174.7030  141.6200 C   0  0  2  0  0  3  0  0  0  0  0  0
  189.8390  174.9870  143.1390 N   0  0  2  0  0  0  0  0  0  0  0  0
  184.7390  178.4440  144.2730 C   0  0  0  0  0  3  0  0  0  0  0  0
  192.6770  175.1310  146.5460 C   0  0  0  0  0  2  0  0  0  0  0  0
  193.3190  174.2110  144.3960 C   0  0  0  0  0  2  0  0  0  0  0  0
  185.1350  177.1600  142.2860 O   0  0  0  0  0  1  0  0  0  0  0  0
  188.5890  177.4080  145.7700 C   0  0  0  0  0  0  0  0  0  0  0  0
  185.1540  178.9320  145.5130 C   0  0  0  0  0  3  0  0  0  0  0  0
  186.8270  177.2080  144.0430 C   0  0  0  0  0  0  0  0  0  0  0  0
  189.6060  176.7590  144.8800 C   0  0  1  0  0  3  0  0  0  0  0  0
  190.8350  176.6880  148.1450 O   0  0  0  0  0  0  0  0  0  0  0  0
  190.5780  176.2320  145.8320 N   0  0  0  0  0  0  0  0  0  0  0  0
  193.8000  174.4250  145.8200 C   0  0  0  0  0  2  0  0  0  0  0  0
  190.3590  173.3260  144.9800 C   0  0  0  0  0  1  0  0  0  0  0  0
  186.4110  178.5930  146.0100 C   0  0  0  0  0  3  0  0  0  0  0  0
  187.2570  177.7570  145.2720 C   0  0  0  0  0  0  0  0  0  0  0  0
  190.8800  174.2210  143.8470 C   0  0  2  0  0  3  0  0  0  0  0  0
  188.2690  175.6400  140.6500 O   0  0  0  0  0  0  0  0  0  0  0  0
  188.1210  174.4380  138.6050 C   0  0  0  0  0  1  0  0  0  0  0  0
  187.4340  175.3910  139.5600 C   0  0  0  0  0  2  0  0  0  0  0  0
  1  5  1  1  0  0  0
  1 19  1  0  0  0  0
  1  4  1  0  0  0  0
  2 19  2  0  0  0  0
  2 13  1  0  0  0  0
  3 10  1  0  0  0  0
  4 20  1  0  0  0  0
  6  8  1  0  0  0  0
  7 15  1  0  0  0  0
  7  9  1  0  0  0  0
  8 12  1  0  0  0  0
  9 22  1  0  0  0  0
  9 14  1  0  0  0  0
 10 21  2  0  0  0  0
 11  8  1  0  0  0  0
 11  5  1  0  0  0  0
 12 27  1  0  0  0  0
 12  4  1  0  0  0  0
 13 18  2  0  0  0  0
 15 23  1  0  0  0  0
 16  2  1  0  0  0  0
 17  3  2  0  0  0  0
 18 25  1  0  0  0  0
 19 26  1  0  0  0  0
 20 17  1  0  0  0  0
 20 22  1  0  0  0  0
 22 10  1  0  0  0  0
 23 14  1  0  0  0  0
 26 17  1  0  0  0  0
 26 25  2  0  0  0  0
 27  7  1  0  0  0  0
 27 24  1  0  0  0  0
 28 11  1  0  0  0  0
 29 30  1  0  0  0  0
 30 28  1  0  0  0  0
M  END
>  <MODEL>
3

>  <REMARK>
 VINA RESULT:      -7.8      1.285      1.616
  Name = 
  2 active torsions:
  status: ('A' for Active; 'I' for Inactive)
    1  A    between atoms: C_11  and  O_28
    2  A    between atoms: O_28  and  C_30
                            x       y       z     vdW  Elec       q    Type
                         _______ _______ _______ _____ _____    ______ ____

>  <TORSDO>
F 2

$$$$
=
 OpenBabel11112416163D

 30 35  0  0  1  0  0  0  0  0999 V2000
  188.6220  175.9760  143.7610 C   0  0  1  0  0  3  0  0  0  0  0  0
  186.2450  176.7520  144.3000 C   0  0  0  0  0  0  0  0  0  0  0  0
  189.8790  177.2910  147.4460 N   0  0  0  0  0  0  0  0  0  0  0  0
  189.9610  175.5960  144.4480 C   0  0  1  0  0  3  0  0  0  0  0  0
  188.0800  174.8350  143.1380 O   0  0  0  0  0  0  0  0  0  0  0  0
  191.1590  173.7780  141.5130 O   0  0  0  0  0  1  0  0  0  0  0  0
  193.1940  175.7460  144.2530 C   0  0  1  0  0  3  0  0  0  0  0  0
  190.3260  174.0840  142.5930 C   0  0  2  0  0  3  0  0  0  0  0  0
  193.0130  176.5190  145.5630 C   0  0  2  0  0  3  0  0  0  0  0  0
  191.2420  176.9220  147.3660 C   0  0  0  0  0  0  0  0  0  0  0  0
  188.9330  174.4690  142.0740 C   0  0  2  0  0  3  0  0  0  0  0  0
  190.9210  175.1580  143.4100 N   0  0  2  0  0  0  0  0  0  0  0  0
  185.3280  177.3830  145.1480 C   0  0  0  0  0  3  0  0  0  0  0  0
  193.9870  175.8800  146.5330 C   0  0  0  0  0  2  0  0  0  0  0  0
  194.5950  175.1550  144.3000 C   0  0  0  0  0  2  0  0  0  0  0  0
  185.7930  176.2460  143.0870 O   0  0  0  0  0  1  0  0  0  0  0  0
  189.4430  177.2050  146.2320 C   0  0  0  0  0  0  0  0  0  0  0  0
  185.7490  177.9330  146.3590 C   0  0  0  0  0  3  0  0  0  0  0  0
  187.6020  176.6440  144.6760 C   0  0  0  0  0  0  0  0  0  0  0  0
  190.4810  176.8100  145.2270 C   0  0  1  0  0  3  0  0  0  0  0  0
  192.0200  176.9680  148.3550 O   0  0  0  0  0  0  0  0  0  0  0  0
  191.6370  176.4980  146.0630 N   0  0  0  0  0  0  0  0  0  0  0  0
  195.1590  175.4510  145.6780 C   0  0  0  0  0  2  0  0  0  0  0  0
  191.9750  173.6280  145.1310 C   0  0  0  0  0  1  0  0  0  0  0  0
  187.0940  177.8750  146.7220 C   0  0  0  0  0  3  0  0  0  0  0  0
  188.0230  177.2560  145.8770 C   0  0  0  0  0  0  0  0  0  0  0  0
  192.1700  174.6320  143.9870 C   0  0  2  0  0  3  0  0  0  0  0  0
  189.0030  175.4810  141.1060 O   0  0  0  0  0  0  0  0  0  0  0  0
  188.4790  174.1530  139.2070 C   0  0  0  0  0  1  0  0  0  0  0  0
  187.9850  175.1820  140.2010 C   0  0  0  0  0  2  0  0  0  0  0  0
  1  5  1  1  0  0  0
  1  4  1  0  0  0  0
  1 19  1  0  0  0  0
  2 19  2  0  0  0  0
  2 13  1  0  0  0  0
  4 20  1  0  0  0  0
  6  8  1  0  0  0  0
  7 15  1  0  0  0  0
  7  9  1  0  0  0  0
  8 12  1  0  0  0  0
  9 22  1  0  0  0  0
  9 14  1  0  0  0  0
 10  3  1  0  0  0  0
 10 21  2  0  0  0  0
 11  8  1  0  0  0  0
 11  5  1  0  0  0  0
 12 27  1  0  0  0  0
 12  4  1  0  0  0  0
 13 18  2  0  0  0  0
 15 23  1  0  0  0  0
 16  2  1  0  0  0  0
 17  3  2  0  0  0  0
 18 25  1  0  0  0  0
 19 26  1  0  0  0  0
 20 22  1  0  0  0  0
 20 17  1  0  0  0  0
 22 10  1  0  0  0  0
 23 14  1  0  0  0  0
 26 17  1  0  0  0  0
 26 25  2  0  0  0  0
 27  7  1  0  0  0  0
 27 24  1  0  0  0  0
 28 11  1  0  0  0  0
 29 30  1  0  0  0  0
 30 28  1  0  0  0  0
M  END
>  <MODEL>
4

>  <REMARK>
 VINA RESULT:      -7.7      1.550      2.022
  Name = 
  2 active torsions:
  status: ('A' for Active; 'I' for Inactive)
    1  A    between atoms: C_11  and  O_28
    2  A    between atoms: O_28  and  C_30
                            x       y       z     vdW  Elec       q    Type
                         _______ _______ _______ _____ _____    ______ ____

>  <TORSDO>
F 2

$$$$
=
 OpenBabel11112416163D

 30 35  0  0  1  0  0  0  0  0999 V2000
  190.5790  175.0170  144.0470 C   0  0  1  0  0  3  0  0  0  0  0  0
  193.0770  174.4700  144.0980 C   0  0  0  0  0  0  0  0  0  0  0  0
  191.0230  177.3230  147.4190 N   0  0  0  0  0  0  0  0  0  0  0  0
  189.5520  176.0550  144.5750 C   0  0  1  0  0  3  0  0  0  0  0  0
  190.6560  175.1130  142.6430 O   0  0  0  0  0  0  0  0  0  0  0  0
  187.0640  175.1400  142.0580 O   0  0  0  0  0  1  0  0  0  0  0  0
  186.5510  176.4860  145.7250 C   0  0  1  0  0  3  0  0  0  0  0  0
  188.2790  175.6140  142.5630 C   0  0  2  0  0  3  0  0  0  0  0  0
  187.3320  176.9920  146.9420 C   0  0  2  0  0  3  0  0  0  0  0  0
  189.6890  177.7680  147.5680 C   0  0  0  0  0  0  0  0  0  0  0  0
  189.4190  174.6930  142.1070 C   0  0  2  0  0  3  0  0  0  0  0  0
  188.2160  175.7190  144.0330 N   0  0  2  0  0  0  0  0  0  0  0  0
  194.3340  174.5520  144.7070 C   0  0  0  0  0  3  0  0  0  0  0  0
  186.7020  178.3260  147.2860 C   0  0  0  0  0  2  0  0  0  0  0  0
  185.1940  177.1700  145.7790 C   0  0  0  0  0  2  0  0  0  0  0  0
  192.9540  173.7470  142.9170 O   0  0  0  0  0  1  0  0  0  0  0  0
  190.9540  176.3500  146.5710 C   0  0  0  0  0  0  0  0  0  0  0  0
  194.4920  175.2400  145.9100 C   0  0  0  0  0  3  0  0  0  0  0  0
  191.9610  175.1070  144.6830 C   0  0  0  0  0  0  0  0  0  0  0  0
  189.5650  176.0310  146.1080 C   0  0  1  0  0  3  0  0  0  0  0  0
  189.3570  178.6640  148.3870 O   0  0  0  0  0  0  0  0  0  0  0  0
  188.7730  177.1020  146.7010 N   0  0  0  0  0  0  0  0  0  0  0  0
  185.2430  178.1710  146.9200 C   0  0  0  0  0  2  0  0  0  0  0  0
  187.6490  178.1870  144.0970 C   0  0  0  0  0  1  0  0  0  0  0  0
  193.3900  175.8340  146.5240 C   0  0  0  0  0  3  0  0  0  0  0  0
  192.1260  175.7500  145.9300 C   0  0  0  0  0  0  0  0  0  0  0  0
  187.2060  176.7400  144.3580 C   0  0  2  0  0  3  0  0  0  0  0  0
  189.1580  173.3510  142.4210 O   0  0  0  0  0  0  0  0  0  0  0  0
  190.4500  171.4690  141.7620 C   0  0  0  0  0  1  0  0  0  0  0  0
  189.5920  172.6310  141.3080 C   0  0  0  0  0  2  0  0  0  0  0  0
  1  5  1  6  0  0  0
  1  4  1  0  0  0  0
  1 19  1  0  0  0  0
  2 19  2  0  0  0  0
  2 13  1  0  0  0  0
  3 10  1  0  0  0  0
  4 20  1  0  0  0  0
  6  8  1  0  0  0  0
  7 15  1  0  0  0  0
  7  9  1  0  0  0  0
  8 12  1  0  0  0  0
  9 14  1  0  0  0  0
 10 21  2  0  0  0  0
 11 28  1  0  0  0  0
 11  8  1  0  0  0  0
 11  5  1  0  0  0  0
 12 27  1  0  0  0  0
 12  4  1  0  0  0  0
 13 18  2  0  0  0  0
 15 23  1  0  0  0  0
 16  2  1  0  0  0  0
 17  3  2  0  0  0  0
 18 25  1  0  0  0  0
 19 26  1  0  0  0  0
 20 17  1  0  0  0  0
 20 22  1  0  0  0  0
 22  9  1  0  0  0  0
 22 10  1  0  0  0  0
 23 14  1  0  0  0  0
 24 27  1  0  0  0  0
 26 25  2  0  0  0  0
 26 17  1  0  0  0  0
 27  7  1  0  0  0  0
 30 29  1  0  0  0  0
 30 28  1  0  0  0  0
M  END
>  <MODEL>
5

>  <REMARK>
 VINA RESULT:      -7.6      1.820      5.817
  Name = 
  2 active torsions:
  status: ('A' for Active; 'I' for Inactive)
    1  A    between atoms: C_11  and  O_28
    2  A    between atoms: O_28  and  C_30
                            x       y       z     vdW  Elec       q    Type
                         _______ _______ _______ _____ _____    ______ ____

>  <TORSDO>
F 2

$$$$
=
 OpenBabel11112416163D

 30 35  0  0  1  0  0  0  0  0999 V2000
  187.8740  176.5760  144.0270 C   0  0  1  0  0  3  0  0  0  0  0  0
  186.2650  178.3320  143.0950 C   0  0  0  0  0  0  0  0  0  0  0  0
  188.2990  174.9790  140.2640 N   0  0  0  0  0  0  0  0  0  0  0  0
  188.9910  175.5940  143.5810 C   0  0  1  0  0  3  0  0  0  0  0  0
  188.4310  177.5660  144.8590 O   0  0  0  0  0  0  0  0  0  0  0  0
  190.3170  175.2820  146.9730 O   0  0  0  0  0  1  0  0  0  0  0  0
  190.2970  172.6610  144.0320 C   0  0  1  0  0  3  0  0  0  0  0  0
  189.9570  175.9130  145.7780 C   0  0  2  0  0  3  0  0  0  0  0  0
  189.9010  172.5050  142.5610 C   0  0  2  0  0  3  0  0  0  0  0  0
  189.2170  173.9440  140.5580 C   0  0  0  0  0  0  0  0  0  0  0  0
  188.8550  176.9460  146.0550 C   0  0  2  0  0  3  0  0  0  0  0  0
  189.5320  174.9150  144.7800 N   0  0  2  0  0  0  0  0  0  0  0  0
  185.5310  178.8770  142.0360 C   0  0  0  0  0  3  0  0  0  0  0  0
  191.1440  171.9770  141.8740 C   0  0  0  0  0  2  0  0  0  0  0  0
  191.4540  171.7010  144.2630 C   0  0  0  0  0  2  0  0  0  0  0  0
  186.1700  178.9260  144.3470 O   0  0  0  0  0  1  0  0  0  0  0  0
  187.8540  175.3630  141.4150 C   0  0  0  0  0  0  0  0  0  0  0  0
  185.5740  178.2910  140.7710 C   0  0  0  0  0  3  0  0  0  0  0  0
  187.0790  177.1970  142.8840 C   0  0  0  0  0  0  0  0  0  0  0  0
  188.4030  174.5940  142.5780 C   0  0  1  0  0  3  0  0  0  0  0  0
  189.7940  173.2710  139.6650 O   0  0  0  0  0  0  0  0  0  0  0  0
  189.4170  173.7480  141.9560 N   0  0  0  0  0  0  0  0  0  0  0  0
  191.8220  171.1120  142.9120 C   0  0  0  0  0  2  0  0  0  0  0  0
  191.7650  174.7580  143.5950 C   0  0  0  0  0  1  0  0  0  0  0  0
  186.3350  177.1420  140.5600 C   0  0  0  0  0  3  0  0  0  0  0  0
  187.0660  176.5810  141.6130 C   0  0  0  0  0  0  0  0  0  0  0  0
  190.7030  174.0760  144.4690 C   0  0  2  0  0  3  0  0  0  0  0  0
  187.7750  176.3780  146.7450 O   0  0  0  0  0  0  0  0  0  0  0  0
  185.6130  177.2250  147.2510 C   0  0  0  0  0  1  0  0  0  0  0  0
  187.1070  177.4600  147.3180 C   0  0  0  0  0  2  0  0  0  0  0  0
  1 19  1  6  0  0  0
  1  5  1  0  0  0  0
  2 16  1  0  0  0  0
  3 10  1  0  0  0  0
  3 17  2  0  0  0  0
  4  1  1  0  0  0  0
  4 12  1  0  0  0  0
  5 11  1  0  0  0  0
  7 15  1  0  0  0  0
  7 27  1  0  0  0  0
  8 11  1  0  0  0  0
  8  6  1  0  0  0  0
  9  7  1  0  0  0  0
 10 22  1  0  0  0  0
 11 28  1  0  0  0  0
 12  8  1  0  0  0  0
 13  2  2  0  0  0  0
 14  9  1  0  0  0  0
 14 23  1  0  0  0  0
 17 26  1  0  0  0  0
 17 20  1  0  0  0  0
 18 13  1  0  0  0  0
 19  2  1  0  0  0  0
 20  4  1  0  0  0  0
 21 10  2  0  0  0  0
 22  9  1  0  0  0  0
 22 20  1  0  0  0  0
 23 15  1  0  0  0  0
 24 27  1  0  0  0  0
 25 18  2  0  0  0  0
 25 26  1  0  0  0  0
 26 19  2  0  0  0  0
 27 12  1  0  0  0  0
 28 30  1  0  0  0  0
 29 30  1  0  0  0  0
M  END
>  <MODEL>
6

>  <REMARK>
 VINA RESULT:      -7.3      1.959      4.987
  Name = 
  2 active torsions:
  status: ('A' for Active; 'I' for Inactive)
    1  A    between atoms: C_11  and  O_28
    2  A    between atoms: O_28  and  C_30
                            x       y       z     vdW  Elec       q    Type
                         _______ _______ _______ _____ _____    ______ ____

>  <TORSDO>
F 2

$$$$
=
 OpenBabel11112416163D

 30 35  0  0  1  0  0  0  0  0999 V2000
  188.0010  175.6730  141.2600 C   0  0  1  0  0  3  0  0  0  0  0  0
  188.0300  174.6580  138.9120 C   0  0  0  0  0  0  0  0  0  0  0  0
  190.9990  173.1050  142.3990 N   0  0  0  0  0  0  0  0  0  0  0  0
  188.8780  175.8150  142.5330 C   0  0  1  0  0  3  0  0  0  0  0  0
  187.8160  176.9430  140.6800 O   0  0  0  0  0  0  0  0  0  0  0  0
  186.9420  178.6580  143.7680 O   0  0  0  0  0  1  0  0  0  0  0  0
  188.8790  175.8760  145.7740 C   0  0  1  0  0  3  0  0  0  0  0  0
  187.7630  177.9320  142.9000 C   0  0  2  0  0  3  0  0  0  0  0  0
  189.7840  174.6560  145.5740 C   0  0  2  0  0  3  0  0  0  0  0  0
  191.1650  173.5280  143.7380 C   0  0  0  0  0  0  0  0  0  0  0  0
  187.0350  177.7200  141.5630 C   0  0  2  0  0  3  0  0  0  0  0  0
  188.1550  176.6520  143.5170 N   0  0  2  0  0  0  0  0  0  0  0  0
  188.5080  173.7170  137.9930 C   0  0  0  0  0  3  0  0  0  0  0  0
  190.9920  174.9150  146.4510 C   0  0  0  0  0  2  0  0  0  0  0  0
  189.2490  176.4590  147.1300 C   0  0  0  0  0  2  0  0  0  0  0  0
  187.0680  175.5700  138.4930 O   0  0  0  0  0  1  0  0  0  0  0  0
  189.8790  173.6290  142.0240 C   0  0  0  0  0  0  0  0  0  0  0  0
  189.4490  172.7640  138.3830 C   0  0  0  0  0  3  0  0  0  0  0  0
  188.5180  174.6680  140.2370 C   0  0  0  0  0  0  0  0  0  0  0  0
  189.1770  174.4160  143.0870 C   0  0  1  0  0  3  0  0  0  0  0  0
  192.1190  173.1400  144.4630 O   0  0  0  0  0  0  0  0  0  0  0  0
  190.1510  174.4310  144.1740 N   0  0  0  0  0  0  0  0  0  0  0  0
  190.4520  175.6820  147.6370 C   0  0  0  0  0  2  0  0  0  0  0  0
  190.3990  177.4510  144.3770 C   0  0  0  0  0  1  0  0  0  0  0  0
  189.9050  172.7320  139.7000 C   0  0  0  0  0  3  0  0  0  0  0  0
  189.4270  173.6610  140.6310 C   0  0  0  0  0  0  0  0  0  0  0  0
  188.9780  176.9660  144.6970 C   0  0  2  0  0  3  0  0  0  0  0  0
  185.7650  177.1560  141.7490 O   0  0  0  0  0  0  0  0  0  0  0  0
  183.6980  178.2910  142.0420 C   0  0  0  0  0  1  0  0  0  0  0  0
  184.8840  178.0450  141.1340 C   0  0  0  0  0  2  0  0  0  0  0  0
  1 19  1  6  0  0  0
  1  4  1  0  0  0  0
  2 19  1  0  0  0  0
  3 10  1  0  0  0  0
  4 20  1  0  0  0  0
  4 12  1  0  0  0  0
  5  1  1  0  0  0  0
  5 11  1  0  0  0  0
  7 15  1  0  0  0  0
  8 12  1  0  0  0  0
  8  6  1  0  0  0  0
  9  7  1  0  0  0  0
  9 14  1  0  0  0  0
 10 22  1  0  0  0  0
 10 21  2  0  0  0  0
 11 28  1  0  0  0  0
 11  8  1  0  0  0  0
 12 27  1  0  0  0  0
 13 18  1  0  0  0  0
 13  2  2  0  0  0  0
 14 23  1  0  0  0  0
 15 23  1  0  0  0  0
 16  2  1  0  0  0  0
 17  3  2  0  0  0  0
 17 20  1  0  0  0  0
 18 25  2  0  0  0  0
 19 26  2  0  0  0  0
 20 22  1  0  0  0  0
 22  9  1  0  0  0  0
 24 27  1  0  0  0  0
 25 26  1  0  0  0  0
 26 17  1  0  0  0  0
 27  7  1  0  0  0  0
 30 28  1  0  0  0  0
 30 29  1  0  0  0  0
M  END
>  <MODEL>
7

>  <REMARK>
 VINA RESULT:      -7.2      2.480      5.314
  Name = 
  2 active torsions:
  status: ('A' for Active; 'I' for Inactive)
    1  A    between atoms: C_11  and  O_28
    2  A    between atoms: O_28  and  C_30
                            x       y       z     vdW  Elec       q    Type
                         _______ _______ _______ _____ _____    ______ ____

>  <TORSDO>
F 2

$$$$
=
 OpenBabel11112416163D

 30 35  0  0  1  0  0  0  0  0999 V2000
  188.6520  175.7220  144.0020 C   0  0  1  0  0  3  0  0  0  0  0  0
  187.2940  177.8010  144.6150 C   0  0  0  0  0  0  0  0  0  0  0  0
  187.3280  176.0100  140.1230 N   0  0  0  0  0  0  0  0  0  0  0  0
  189.2690  174.9910  142.7790 C   0  0  1  0  0  3  0  0  0  0  0  0
  189.6880  176.1850  144.8370 O   0  0  0  0  0  0  0  0  0  0  0  0
  191.5840  173.0800  144.8630 O   0  0  0  0  0  1  0  0  0  0  0  0
  189.8990  172.1080  141.4380 C   0  0  1  0  0  3  0  0  0  0  0  0
  190.9920  174.2090  144.2890 C   0  0  2  0  0  3  0  0  0  0  0  0
  188.9860  172.6690  140.3430 C   0  0  2  0  0  3  0  0  0  0  0  0
  188.0110  174.9040  139.5660 C   0  0  0  0  0  0  0  0  0  0  0  0
  190.3420  175.0620  145.3880 C   0  0  2  0  0  3  0  0  0  0  0  0
  190.0150  173.8070  143.2610 N   0  0  2  0  0  0  0  0  0  0  0  0
  186.3890  178.8130  144.2770 C   0  0  0  0  0  3  0  0  0  0  0  0
  189.7410  172.4440  139.0490 C   0  0  0  0  0  2  0  0  0  0  0  0
  190.7950  171.0840  140.7580 C   0  0  0  0  0  2  0  0  0  0  0  0
  187.7920  177.7580  145.9120 O   0  0  0  0  0  1  0  0  0  0  0  0
  187.4230  175.8470  141.4010 C   0  0  0  0  0  0  0  0  0  0  0  0
  185.8410  178.8720  142.9950 C   0  0  0  0  0  3  0  0  0  0  0  0
  187.6810  176.8440  143.6520 C   0  0  0  0  0  0  0  0  0  0  0  0
  188.1430  174.6000  141.8150 C   0  0  1  0  0  3  0  0  0  0  0  0
  188.0560  174.6840  138.3280 O   0  0  0  0  0  0  0  0  0  0  0  0
  188.6360  174.0770  140.5450 N   0  0  0  0  0  0  0  0  0  0  0  0
  190.5110  171.1610  139.2680 C   0  0  0  0  0  2  0  0  0  0  0  0
  191.5800  174.0820  141.2880 C   0  0  0  0  0  1  0  0  0  0  0  0
  186.1790  177.9060  142.0480 C   0  0  0  0  0  3  0  0  0  0  0  0
  187.0740  176.8820  142.3770 C   0  0  0  0  0  0  0  0  0  0  0  0
  190.7620  173.1380  142.1810 C   0  0  2  0  0  3  0  0  0  0  0  0
  189.4700  174.3050  146.1840 O   0  0  0  0  0  0  0  0  0  0  0  0
  190.9390  175.2680  147.7830 C   0  0  0  0  0  1  0  0  0  0  0  0
  189.5080  174.9140  147.4380 C   0  0  0  0  0  2  0  0  0  0  0  0
  1 19  1  6  0  0  0
  1  5  1  0  0  0  0
  2 16  1  0  0  0  0
  3 17  2  0  0  0  0
  4 12  1  0  0  0  0
  4  1  1  0  0  0  0
  5 11  1  0  0  0  0
  7 27  1  0  0  0  0
  8  6  1  0  0  0  0
  8 11  1  0  0  0  0
  9 22  1  0  0  0  0
  9  7  1  0  0  0  0
 10  3  1  0  0  0  0
 10 22  1  0  0  0  0
 11 28  1  0  0  0  0
 12  8  1  0  0  0  0
 13  2  1  0  0  0  0
 14 23  1  0  0  0  0
 14  9  1  0  0  0  0
 15  7  1  0  0  0  0
 17 20  1  0  0  0  0
 17 26  1  0  0  0  0
 18 13  2  0  0  0  0
 19  2  2  0  0  0  0
 20  4  1  0  0  0  0
 21 10  2  0  0  0  0
 22 20  1  0  0  0  0
 23 15  1  0  0  0  0
 24 27  1  0  0  0  0
 25 26  2  0  0  0  0
 25 18  1  0  0  0  0
 26 19  1  0  0  0  0
 27 12  1  0  0  0  0
 28 30  1  0  0  0  0
 30 29  1  0  0  0  0
M  END
>  <MODEL>
8

>  <REMARK>
 VINA RESULT:      -7.2      2.752      5.610
  Name = 
  2 active torsions:
  status: ('A' for Active; 'I' for Inactive)
    1  A    between atoms: C_11  and  O_28
    2  A    between atoms: O_28  and  C_30
                            x       y       z     vdW  Elec       q    Type
                         _______ _______ _______ _____ _____    ______ ____

>  <TORSDO>
F 2

$$$$
=
 OpenBabel11112416163D

 30 35  0  0  1  0  0  0  0  0999 V2000
  190.8320  174.1340  143.3580 C   0  0  1  0  0  3  0  0  0  0  0  0
  193.0910  172.9480  143.1790 C   0  0  0  0  0  0  0  0  0  0  0  0
  191.9470  175.6970  146.9900 N   0  0  0  0  0  0  0  0  0  0  0  0
  190.1330  175.3110  144.0890 C   0  0  1  0  0  3  0  0  0  0  0  0
  190.9030  174.4200  141.9800 O   0  0  0  0  0  0  0  0  0  0  0  0
  187.4410  175.4800  141.6230 O   0  0  0  0  0  1  0  0  0  0  0  0
  187.3820  176.3350  145.4670 C   0  0  1  0  0  3  0  0  0  0  0  0
  188.7480  175.5350  142.1160 C   0  0  2  0  0  3  0  0  0  0  0  0
  188.2950  176.4250  146.6950 C   0  0  2  0  0  3  0  0  0  0  0  0
  190.7860  176.4490  147.2810 C   0  0  0  0  0  0  0  0  0  0  0  0
  189.5890  174.4270  141.4650 C   0  0  2  0  0  3  0  0  0  0  0  0
  188.7450  175.4250  143.5860 N   0  0  2  0  0  0  0  0  0  0  0  0
  194.3360  172.6020  143.7170 C   0  0  0  0  0  3  0  0  0  0  0  0
  188.0540  177.8090  147.2620 C   0  0  0  0  0  2  0  0  0  0  0  0
  186.2600  177.3350  145.7000 C   0  0  0  0  0  2  0  0  0  0  0  0
  192.7550  172.4730  141.9170 O   0  0  0  0  0  1  0  0  0  0  0  0
  191.6020  174.9180  146.0190 C   0  0  0  0  0  0  0  0  0  0  0  0
  194.6970  173.0320  144.9940 C   0  0  0  0  0  3  0  0  0  0  0  0
  192.2000  173.7590  143.9160 C   0  0  0  0  0  0  0  0  0  0  0  0
  190.1700  175.0500  145.5990 C   0  0  1  0  0  3  0  0  0  0  0  0
  190.7230  177.2640  148.2390 O   0  0  0  0  0  0  0  0  0  0  0  0
  189.7070  176.1880  146.3860 N   0  0  0  0  0  0  0  0  0  0  0  0
  186.5990  178.1010  146.9670 C   0  0  0  0  0  2  0  0  0  0  0  0
  188.8640  177.9160  144.0350 C   0  0  0  0  0  1  0  0  0  0  0  0
  193.8090  173.7930  145.7510 C   0  0  0  0  0  3  0  0  0  0  0  0
  192.5560  174.1370  145.2290 C   0  0  0  0  0  0  0  0  0  0  0  0
  188.0540  176.6140  144.1140 C   0  0  2  0  0  3  0  0  0  0  0  0
  188.9830  173.1690  141.6000 O   0  0  0  0  0  0  0  0  0  0  0  0
  188.1910  172.6660  139.4170 C   0  0  0  0  0  1  0  0  0  0  0  0
  189.3050  172.4870  140.4270 C   0  0  0  0  0  2  0  0  0  0  0  0
  1  5  1  6  0  0  0
  1 19  1  0  0  0  0
  1  4  1  0  0  0  0
  2 13  2  0  0  0  0
  2 19  1  0  0  0  0
  3 10  1  0  0  0  0
  4 20  1  0  0  0  0
  6  8  1  0  0  0  0
  7 15  1  0  0  0  0
  7  9  1  0  0  0  0
  8 12  1  0  0  0  0
  9 14  1  0  0  0  0
 10 21  2  0  0  0  0
 11 28  1  0  0  0  0
 11  5  1  0  0  0  0
 11  8  1  0  0  0  0
 12  4  1  0  0  0  0
 12 27  1  0  0  0  0
 13 18  1  0  0  0  0
 15 23  1  0  0  0  0
 16  2  1  0  0  0  0
 17  3  2  0  0  0  0
 18 25  2  0  0  0  0
 19 26  2  0  0  0  0
 20 17  1  0  0  0  0
 20 22  1  0  0  0  0
 22  9  1  0  0  0  0
 22 10  1  0  0  0  0
 23 14  1  0  0  0  0
 24 27  1  0  0  0  0
 26 25  1  0  0  0  0
 26 17  1  0  0  0  0
 27  7  1  0  0  0  0
 29 30  1  0  0  0  0
 30 28  1  0  0  0  0
M  END
>  <MODEL>
9

>  <REMARK>
 VINA RESULT:      -7.1      1.925      5.894
  Name = 
  2 active torsions:
  status: ('A' for Active; 'I' for Inactive)
    1  A    between atoms: C_11  and  O_28
    2  A    between atoms: O_28  and  C_30
                            x       y       z     vdW  Elec       q    Type
                         _______ _______ _______ _____ _____    ______ ____

>  <TORSDO>
F 2

$$$$
