=
 OpenBabel11112416413D

 32 37  0  0  1  0  0  0  0  0999 V2000
  190.9880  174.6830  144.9420 C   0  0  1  0  0  3  0  0  0  0  0  0
  188.9840  172.8210  141.5530 C   0  0  0  0  0  2  0  0  0  0  0  0
  187.8410  173.7710  141.8410 C   0  0  0  0  0  2  0  0  0  0  0  0
  188.8830  175.2980  146.3130 C   0  0  0  0  0  0  0  0  0  0  0  0
  187.8110  176.2950  146.3700 C   0  0  2  0  0  3  0  0  0  0  0  0
  193.3470  175.3650  145.6800 C   0  0  2  0  0  3  0  0  0  0  0  0
  192.9290  174.1620  143.4170 C   0  0  0  0  0  2  0  0  0  0  0  0
  186.0960  177.5890  145.4590 C   0  0  1  0  0  3  0  0  0  0  0  0
  190.1140  173.1060  142.5240 C   0  0  0  0  0  2  0  0  0  0  0  0
  191.5850  174.8780  143.5430 C   0  0  1  0  0  3  0  0  0  0  0  0
  190.5790  174.5720  142.4280 C   0  0  2  0  0  3  0  0  0  0  0  0
  189.0730  175.9880  143.8620 C   0  0  1  0  0  3  0  0  0  0  0  0
  185.8660  177.2680  146.9360 C   0  0  0  0  0  2  0  0  0  0  0  0
  193.7430  174.2040  144.7300 C   0  0  2  0  0  3  0  0  0  0  0  0
  186.9140  176.3260  147.2900 N   0  0  0  0  0  2  0  0  0  0  0  0
  188.3240  175.1960  141.6130 C   0  0  0  0  0  2  0  0  0  0  0  0
  189.4530  175.5450  142.4920 N   0  0  2  0  0  0  0  0  0  0  0  0
  187.6660  176.4040  143.9700 N   0  0  0  0  0  2  0  0  0  0  0  0
  191.8280  175.4840  145.9400 C   0  0  0  0  0  2  0  0  0  0  0  0
  189.2050  174.6370  147.3370 O   0  0  0  0  0  0  0  0  0  0  0  0
  185.9380  179.0770  145.2220 C   0  0  0  0  0  1  0  0  0  0  0  0
  189.4730  174.9740  144.9630 C   0  0  1  0  0  3  0  0  0  0  0  0
  187.5350  177.1700  145.2080 C   0  0  2  0  0  3  0  0  0  0  0  0
  193.3530  171.7630  144.4510 C   0  0  0  0  0  2  0  0  0  0  0  0
  193.6360  172.8690  145.4490 C   0  0  1  0  0  3  0  0  0  0  0  0
  194.7550  171.9570  144.9850 C   0  0  1  0  0  3  0  0  0  0  0  0
  195.0350  170.9320  146.0670 C   0  0  0  0  0  2  0  0  0  0  0  0
  196.4870  170.6100  146.0970 C   0  0  0  0  0  0  0  0  0  0  0  0
  197.3870  171.3850  145.3780 O   0  0  0  0  0  0  0  0  0  0  0  0
  196.8970  169.6140  146.7480 O   0  0  0  0  0  1  0  0  0  0  0  0
  194.5730  177.4510  146.2900 C   0  0  0  0  0  1  0  0  0  0  0  0
  193.8820  176.6940  145.1710 C   0  0  0  0  0  2  0  0  0  0  0  0
  1 22  1  0  0  0  0
  1 19  1  1  0  0  0
  2  3  1  0  0  0  0
  2  9  1  0  0  0  0
  4 20  2  0  0  0  0
  5  4  1  6  0  0  0
  5 15  1  0  0  0  0
  6 32  1  6  0  0  0
  6 19  1  0  0  0  0
  8 21  1  1  0  0  0
  8 13  1  0  0  0  0
 10  7  1  6  0  0  0
 10  1  1  0  0  0  0
 11 17  1  0  0  0  0
 11  9  1  1  0  0  0
 11 10  1  0  0  0  0
 12 18  1  6  0  0  0
 12 22  1  0  0  0  0
 13 15  1  0  0  0  0
 14  7  1  6  0  0  0
 14 25  1  0  0  0  0
 14  6  1  0  0  0  0
 16  3  1  0  0  0  0
 17 16  1  1  0  0  0
 17 12  1  0  0  0  0
 22  4  1  1  0  0  0
 23 18  1  6  0  0  0
 23  8  1  0  0  0  0
 23  5  1  0  0  0  0
 24 26  1  0  0  0  0
 25 24  1  6  0  0  0
 26 25  1  0  0  0  0
 26 27  1  1  0  0  0
 27 28  1  0  0  0  0
 28 30  1  0  0  0  0
 29 28  2  0  0  0  0
 32 31  1  0  0  0  0
M  END
>  <MODEL>
1

>  <REMARK>
 VINA RESULT:      -7.9      0.000      0.000
  Name = 
  4 active torsions:
  status: ('A' for Active; 'I' for Inactive)
    1  A    between atoms: C_7  and  C_19
    2  A    between atoms: C_10  and  C_17
    3  A    between atoms: C_20  and  C_29
    4  A    between atoms: C_29  and  C_30
                            x       y       z     vdW  Elec       q    Type
                         _______ _______ _______ _____ _____    ______ ____

>  <TORSDO>
F 4

$$$$
=
 OpenBabel11112416413D

 32 37  0  0  1  0  0  0  0  0999 V2000
  190.7800  175.6340  144.7610 C   0  0  1  0  0  3  0  0  0  0  0  0
  189.2340  171.9880  142.9500 C   0  0  0  0  0  2  0  0  0  0  0  0
  190.6340  171.7870  142.4100 C   0  0  0  0  0  2  0  0  0  0  0  0
  192.5950  176.1720  142.9970 C   0  0  0  0  0  0  0  0  0  0  0  0
  193.9450  175.7720  142.5940 C   0  0  2  0  0  3  0  0  0  0  0  0
  190.4920  177.0280  146.8930 C   0  0  2  0  0  3  0  0  0  0  0  0
  189.0810  174.8900  146.4700 C   0  0  0  0  0  2  0  0  0  0  0  0
  195.5970  174.2230  142.0310 C   0  0  1  0  0  3  0  0  0  0  0  0
  189.2150  173.2400  143.8060 C   0  0  0  0  0  2  0  0  0  0  0  0
  190.3310  174.4960  145.6830 C   0  0  1  0  0  3  0  0  0  0  0  0
  190.2400  173.1500  144.9530 C   0  0  2  0  0  3  0  0  0  0  0  0
  192.4890  173.8600  144.0760 C   0  0  1  0  0  3  0  0  0  0  0  0
  195.7940  175.5690  141.3330 C   0  0  0  0  0  2  0  0  0  0  0  0
  189.0800  176.3850  146.8610 C   0  0  2  0  0  3  0  0  0  0  0  0
  194.6050  176.3410  141.6470 N   0  0  0  0  0  2  0  0  0  0  0  0
  191.5830  171.5840  143.5820 C   0  0  0  0  0  2  0  0  0  0  0  0
  191.5960  172.7420  144.4910 N   0  0  2  0  0  0  0  0  0  0  0  0
  193.5040  173.4590  143.0900 N   0  0  0  0  0  2  0  0  0  0  0  0
  191.3400  176.7650  145.6280 C   0  0  0  0  0  2  0  0  0  0  0  0
  192.1390  177.3070  142.6930 O   0  0  0  0  0  0  0  0  0  0  0  0
  196.8850  173.7960  142.7040 C   0  0  0  0  0  1  0  0  0  0  0  0
  191.7150  175.1290  143.6410 C   0  0  1  0  0  3  0  0  0  0  0  0
  194.5300  174.5000  143.0770 C   0  0  2  0  0  3  0  0  0  0  0  0
  186.9000  176.3670  145.6640 C   0  0  0  0  0  2  0  0  0  0  0  0
  188.1620  177.1630  145.9320 C   0  0  1  0  0  3  0  0  0  0  0  0
  186.8780  177.5040  146.6630 C   0  0  1  0  0  3  0  0  0  0  0  0
  186.2610  178.7320  146.0240 C   0  0  0  0  0  2  0  0  0  0  0  0
  184.7780  178.6090  146.0180 C   0  0  0  0  0  0  0  0  0  0  0  0
  184.0630  178.8620  144.8550 O   0  0  0  0  0  0  0  0  0  0  0  0
  184.1670  178.3090  147.0760 O   0  0  0  0  0  1  0  0  0  0  0  0
  191.4400  177.7510  149.0850 C   0  0  0  0  0  1  0  0  0  0  0  0
  191.2650  176.5880  148.1260 C   0  0  0  0  0  2  0  0  0  0  0  0
  1 19  1  1  0  0  0
  1 10  1  0  0  0  0
  2  9  1  0  0  0  0
  3  2  1  0  0  0  0
  3 16  1  0  0  0  0
  5 15  1  6  0  0  0
  5  4  1  0  0  0  0
  5 23  1  0  0  0  0
  6 32  1  1  0  0  0
  8 21  1  1  0  0  0
  8 23  1  0  0  0  0
 10  7  1  6  0  0  0
 11  9  1  6  0  0  0
 11 10  1  0  0  0  0
 12 18  1  6  0  0  0
 12 17  1  0  0  0  0
 13 15  1  0  0  0  0
 13  8  1  0  0  0  0
 14  7  1  6  0  0  0
 14  6  1  0  0  0  0
 17 16  1  6  0  0  0
 17 11  1  0  0  0  0
 19  6  1  0  0  0  0
 20  4  2  0  0  0  0
 22  4  1  1  0  0  0
 22 12  1  0  0  0  0
 22  1  1  0  0  0  0
 23 18  1  6  0  0  0
 24 26  1  0  0  0  0
 25 24  1  6  0  0  0
 25 26  1  0  0  0  0
 25 14  1  0  0  0  0
 26 27  1  6  0  0  0
 28 27  1  0  0  0  0
 28 30  1  0  0  0  0
 29 28  2  0  0  0  0
 32 31  1  0  0  0  0
M  END
>  <MODEL>
2

>  <REMARK>
 VINA RESULT:      -7.8      3.603      7.772
  Name = 
  4 active torsions:
  status: ('A' for Active; 'I' for Inactive)
    1  A    between atoms: C_7  and  C_19
    2  A    between atoms: C_10  and  C_17
    3  A    between atoms: C_20  and  C_29
    4  A    between atoms: C_29  and  C_30
                            x       y       z     vdW  Elec       q    Type
                         _______ _______ _______ _____ _____    ______ ____

>  <TORSDO>
F 4

$$$$
=
 OpenBabel11112416413D

 32 37  0  0  1  0  0  0  0  0999 V2000
  188.5230  176.4400  144.8150 C   0  0  1  0  0  3  0  0  0  0  0  0
  186.6910  178.8330  147.9590 C   0  0  0  0  0  2  0  0  0  0  0  0
  185.5840  179.1050  146.9620 C   0  0  0  0  0  2  0  0  0  0  0  0
  187.6200  177.7610  142.7830 C   0  0  0  0  0  0  0  0  0  0  0  0
  186.4050  177.9270  141.9810 C   0  0  2  0  0  3  0  0  0  0  0  0
  189.8940  174.2900  144.5470 C   0  0  2  0  0  3  0  0  0  0  0  0
  189.1920  175.1670  146.8870 C   0  0  0  0  0  2  0  0  0  0  0  0
  184.1200  178.2910  141.6800 C   0  0  1  0  0  3  0  0  0  0  0  0
  187.6970  177.8900  147.3270 C   0  0  0  0  0  2  0  0  0  0  0  0
  188.0240  175.7280  146.0770 C   0  0  1  0  0  3  0  0  0  0  0  0
  187.0280  176.5770  146.8750 C   0  0  2  0  0  3  0  0  0  0  0  0
  186.0240  176.9320  144.5960 C   0  0  1  0  0  3  0  0  0  0  0  0
  184.9550  178.8160  140.5120 C   0  0  0  0  0  2  0  0  0  0  0  0
  190.3390  174.6540  145.9880 C   0  0  2  0  0  3  0  0  0  0  0  0
  186.3370  178.6730  140.9350 N   0  0  0  0  0  2  0  0  0  0  0  0
  184.8810  177.7930  146.6450 C   0  0  0  0  0  2  0  0  0  0  0  0
  185.8000  176.7990  146.0620 N   0  0  2  0  0  0  0  0  0  0  0  0
  184.9920  177.7330  143.9190 N   0  0  0  0  0  2  0  0  0  0  0  0
  189.0580  175.3830  143.8440 C   0  0  0  0  0  2  0  0  0  0  0  0
  188.7510  178.0470  142.3080 O   0  0  0  0  0  0  0  0  0  0  0  0
  182.9940  177.4210  141.1610 C   0  0  0  0  0  1  0  0  0  0  0  0
  187.4580  177.3960  144.2380 C   0  0  1  0  0  3  0  0  0  0  0  0
  185.0970  177.4540  142.4880 C   0  0  2  0  0  3  0  0  0  0  0  0
  191.8040  176.1180  147.3650 C   0  0  0  0  0  2  0  0  0  0  0  0
  191.4670  175.6720  145.9560 C   0  0  1  0  0  3  0  0  0  0  0  0
  192.6800  175.1020  146.6660 C   0  0  1  0  0  3  0  0  0  0  0  0
  193.9260  175.7810  146.1340 C   0  0  0  0  0  2  0  0  0  0  0  0
  194.8480  174.7680  145.5540 C   0  0  0  0  0  0  0  0  0  0  0  0
  196.0880  174.5410  146.1370 O   0  0  0  0  0  1  0  0  0  0  0  0
  194.5190  174.1390  144.5160 O   0  0  0  0  0  0  0  0  0  0  0  0
  189.3210  172.2760  143.1910 C   0  0  0  0  0  1  0  0  0  0  0  0
  189.1340  172.9740  144.5250 C   0  0  0  0  0  2  0  0  0  0  0  0
  1 19  1  6  0  0  0
  1 10  1  0  0  0  0
  3  2  1  0  0  0  0
  5 15  1  1  0  0  0
  5 23  1  0  0  0  0
  5  4  1  0  0  0  0
  6 32  1  1  0  0  0
  6 14  1  0  0  0  0
  8 21  1  6  0  0  0
  8 23  1  0  0  0  0
  9  2  1  0  0  0  0
 10 11  1  0  0  0  0
 10  7  1  1  0  0  0
 11  9  1  6  0  0  0
 12 18  1  1  0  0  0
 12 17  1  0  0  0  0
 13 15  1  0  0  0  0
 13  8  1  0  0  0  0
 14  7  1  1  0  0  0
 16  3  1  0  0  0  0
 17 16  1  1  0  0  0
 17 11  1  0  0  0  0
 19  6  1  0  0  0  0
 20  4  2  0  0  0  0
 22  4  1  6  0  0  0
 22 12  1  0  0  0  0
 22  1  1  0  0  0  0
 23 18  1  1  0  0  0
 25 14  1  0  0  0  0
 25 26  1  0  0  0  0
 25 24  1  1  0  0  0
 26 27  1  6  0  0  0
 26 24  1  0  0  0  0
 28 27  1  0  0  0  0
 28 29  1  0  0  0  0
 30 28  2  0  0  0  0
 31 32  1  0  0  0  0
M  END
>  <MODEL>
3

>  <REMARK>
 VINA RESULT:      -7.8      2.635      5.329
  Name = 
  4 active torsions:
  status: ('A' for Active; 'I' for Inactive)
    1  A    between atoms: C_7  and  C_19
    2  A    between atoms: C_10  and  C_17
    3  A    between atoms: C_20  and  C_29
    4  A    between atoms: C_29  and  C_30
                            x       y       z     vdW  Elec       q    Type
                         _______ _______ _______ _____ _____    ______ ____

>  <TORSDO>
F 4

$$$$
=
 OpenBabel11112416413D

 32 37  0  0  1  0  0  0  0  0999 V2000
  190.7040  174.9420  144.3660 C   0  0  1  0  0  3  0  0  0  0  0  0
  194.1040  176.3960  146.6680 C   0  0  0  0  0  2  0  0  0  0  0  0
  194.9020  175.3120  145.9760 C   0  0  0  0  0  2  0  0  0  0  0  0
  191.4240  172.4640  144.1850 C   0  0  0  0  0  0  0  0  0  0  0  0
  192.3330  171.5930  143.4370 C   0  0  2  0  0  3  0  0  0  0  0  0
  188.6150  175.8470  143.1890 C   0  0  2  0  0  3  0  0  0  0  0  0
  190.2220  177.4150  144.4920 C   0  0  0  0  0  2  0  0  0  0  0  0
  194.4040  170.9850  142.5490 C   0  0  1  0  0  3  0  0  0  0  0  0
  192.6840  176.3740  146.1340 C   0  0  0  0  0  2  0  0  0  0  0  0
  191.2360  176.3500  144.0740 C   0  0  1  0  0  3  0  0  0  0  0  0
  192.6580  176.5630  144.6050 C   0  0  2  0  0  3  0  0  0  0  0  0
  193.0360  174.3280  143.5140 C   0  0  1  0  0  3  0  0  0  0  0  0
  193.5330  169.7750  142.8860 C   0  0  0  0  0  2  0  0  0  0  0  0
  188.7640  176.9630  144.2570 C   0  0  2  0  0  3  0  0  0  0  0  0
  192.3770  170.3160  143.5790 N   0  0  0  0  0  2  0  0  0  0  0  0
  194.9440  175.6160  144.4850 C   0  0  0  0  0  2  0  0  0  0  0  0
  193.5970  175.6550  143.8900 N   0  0  2  0  0  0  0  0  0  0  0  0
  194.0560  173.2730  143.4030 N   0  0  0  0  0  2  0  0  0  0  0  0
  189.5640  174.6450  143.3890 C   0  0  0  0  0  2  0  0  0  0  0  0
  190.3960  171.9960  144.7450 O   0  0  0  0  0  0  0  0  0  0  0  0
  194.9280  170.8680  141.1330 C   0  0  0  0  0  1  0  0  0  0  0  0
  191.8400  173.8980  144.4010 C   0  0  1  0  0  3  0  0  0  0  0  0
  193.4550  172.1670  142.6590 C   0  0  2  0  0  3  0  0  0  0  0  0
  188.8140  177.2370  146.7280 C   0  0  0  0  0  2  0  0  0  0  0  0
  188.1370  176.5280  145.5720 C   0  0  1  0  0  3  0  0  0  0  0  0
  187.4690  177.7200  146.2300 C   0  0  1  0  0  3  0  0  0  0  0  0
  186.3740  177.2220  147.1520 C   0  0  0  0  0  2  0  0  0  0  0  0
  185.2690  178.2170  147.2090 C   0  0  0  0  0  0  0  0  0  0  0  0
  184.0130  177.8910  146.7110 O   0  0  0  0  0  0  0  0  0  0  0  0
  185.4790  179.3660  147.6770 O   0  0  0  0  0  1  0  0  0  0  0  0
  187.9910  177.6870  141.6240 C   0  0  0  0  0  1  0  0  0  0  0  0
  188.7890  176.4070  141.7870 C   0  0  0  0  0  2  0  0  0  0  0  0
  1 19  1  6  0  0  0
  1 22  1  0  0  0  0
  3  2  1  0  0  0  0
  4 20  2  0  0  0  0
  5 15  1  1  0  0  0
  5  4  1  0  0  0  0
  6 32  1  6  0  0  0
  6 19  1  0  0  0  0
  6 14  1  0  0  0  0
  8 21  1  6  0  0  0
  8 23  1  0  0  0  0
  8 13  1  0  0  0  0
  9  2  1  0  0  0  0
 10  1  1  0  0  0  0
 10  7  1  1  0  0  0
 10 11  1  0  0  0  0
 11  9  1  1  0  0  0
 12 18  1  1  0  0  0
 12 17  1  0  0  0  0
 12 22  1  0  0  0  0
 13 15  1  0  0  0  0
 14  7  1  1  0  0  0
 14 25  1  0  0  0  0
 16  3  1  0  0  0  0
 17 16  1  1  0  0  0
 17 11  1  0  0  0  0
 22  4  1  6  0  0  0
 23 18  1  1  0  0  0
 23  5  1  0  0  0  0
 25 26  1  0  0  0  0
 25 24  1  1  0  0  0
 26 24  1  0  0  0  0
 26 27  1  1  0  0  0
 27 28  1  0  0  0  0
 28 30  1  0  0  0  0
 29 28  2  0  0  0  0
 31 32  1  0  0  0  0
M  END
>  <MODEL>
4

>  <REMARK>
 VINA RESULT:      -7.6      3.153      8.121
  Name = 
  4 active torsions:
  status: ('A' for Active; 'I' for Inactive)
    1  A    between atoms: C_7  and  C_19
    2  A    between atoms: C_10  and  C_17
    3  A    between atoms: C_20  and  C_29
    4  A    between atoms: C_29  and  C_30
                            x       y       z     vdW  Elec       q    Type
                         _______ _______ _______ _____ _____    ______ ____

>  <TORSDO>
F 4

$$$$
=
 OpenBabel11112416413D

 32 37  0  0  1  0  0  0  0  0999 V2000
  190.7940  175.8100  144.2720 C   0  0  1  0  0  3  0  0  0  0  0  0
  190.0420  171.8750  142.5640 C   0  0  0  0  0  2  0  0  0  0  0  0
  191.5190  171.6180  142.7730 C   0  0  0  0  0  2  0  0  0  0  0  0
  193.2440  176.0820  143.4870 C   0  0  0  0  0  0  0  0  0  0  0  0
  194.6030  175.6510  143.8240 C   0  0  2  0  0  3  0  0  0  0  0  0
  189.6400  177.5380  145.7730 C   0  0  2  0  0  3  0  0  0  0  0  0
  188.4590  175.3280  145.0960 C   0  0  0  0  0  2  0  0  0  0  0  0
  196.2350  174.0670  144.3470 C   0  0  1  0  0  3  0  0  0  0  0  0
  189.7050  173.2530  143.1000 C   0  0  0  0  0  2  0  0  0  0  0  0
  189.9050  174.8340  145.0510 C   0  0  1  0  0  3  0  0  0  0  0  0
  190.0820  173.3830  144.5880 C   0  0  2  0  0  3  0  0  0  0  0  0
  192.5190  173.9850  144.7510 C   0  0  1  0  0  3  0  0  0  0  0  0
  196.8090  175.2790  143.6120 C   0  0  0  0  0  2  0  0  0  0  0  0
  188.3660  176.8660  145.1960 C   0  0  2  0  0  3  0  0  0  0  0  0
  195.6550  176.0660  143.2130 N   0  0  0  0  0  2  0  0  0  0  0  0
  191.8110  171.6380  144.2670 C   0  0  0  0  0  2  0  0  0  0  0  0
  191.4720  172.9340  144.8790 N   0  0  2  0  0  0  0  0  0  0  0  0
  193.8480  173.4460  144.4240 N   0  0  0  0  0  2  0  0  0  0  0  0
  190.9580  177.0840  145.1050 C   0  0  0  0  0  2  0  0  0  0  0  0
  193.0460  177.1380  142.8290 O   0  0  0  0  0  0  0  0  0  0  0  0
  197.0420  173.7890  145.5980 C   0  0  0  0  0  1  0  0  0  0  0  0
  192.1070  175.1440  143.8090 C   0  0  1  0  0  3  0  0  0  0  0  0
  194.8250  174.4930  144.7200 C   0  0  2  0  0  3  0  0  0  0  0  0
  187.2230  176.4560  143.0260 C   0  0  0  0  0  2  0  0  0  0  0  0
  188.0250  177.4550  143.8360 C   0  0  1  0  0  3  0  0  0  0  0  0
  186.5210  177.6040  143.7160 C   0  0  1  0  0  3  0  0  0  0  0  0
  186.2140  178.6950  142.7080 C   0  0  0  0  0  2  0  0  0  0  0  0
  185.0600  178.2910  141.8600 C   0  0  0  0  0  0  0  0  0  0  0  0
  185.1820  178.2820  140.4770 O   0  0  0  0  0  0  0  0  0  0  0  0
  183.9610  177.9910  142.3950 O   0  0  0  0  0  1  0  0  0  0  0  0
  191.1300  176.8820  147.6640 C   0  0  0  0  0  1  0  0  0  0  0  0
  189.7330  177.3320  147.2760 C   0  0  0  0  0  2  0  0  0  0  0  0
  1 10  1  0  0  0  0
  1 19  1  1  0  0  0
  2  3  1  0  0  0  0
  2  9  1  0  0  0  0
  3 16  1  0  0  0  0
  4  5  1  0  0  0  0
  5 15  1  6  0  0  0
  5 23  1  0  0  0  0
  6 32  1  1  0  0  0
  8 23  1  0  0  0  0
  8 21  1  1  0  0  0
 10  7  1  6  0  0  0
 11  9  1  6  0  0  0
 11 17  1  0  0  0  0
 11 10  1  0  0  0  0
 12 18  1  6  0  0  0
 12 17  1  0  0  0  0
 13  8  1  0  0  0  0
 14  7  1  6  0  0  0
 14  6  1  0  0  0  0
 15 13  1  0  0  0  0
 17 16  1  6  0  0  0
 19  6  1  0  0  0  0
 20  4  2  0  0  0  0
 22  4  1  1  0  0  0
 22  1  1  0  0  0  0
 22 12  1  0  0  0  0
 23 18  1  6  0  0  0
 24 26  1  0  0  0  0
 25 24  1  6  0  0  0
 25 14  1  0  0  0  0
 26 27  1  6  0  0  0
 26 25  1  0  0  0  0
 28 30  1  0  0  0  0
 28 27  1  0  0  0  0
 29 28  2  0  0  0  0
 32 31  1  0  0  0  0
M  END
>  <MODEL>
5

>  <REMARK>
 VINA RESULT:      -7.5      3.398      7.916
  Name = 
  4 active torsions:
  status: ('A' for Active; 'I' for Inactive)
    1  A    between atoms: C_7  and  C_19
    2  A    between atoms: C_10  and  C_17
    3  A    between atoms: C_20  and  C_29
    4  A    between atoms: C_29  and  C_30
                            x       y       z     vdW  Elec       q    Type
                         _______ _______ _______ _____ _____    ______ ____

>  <TORSDO>
F 4

$$$$
=
 OpenBabel11112416413D

 32 37  0  0  1  0  0  0  0  0999 V2000
  189.5150  174.8370  143.0460 C   0  0  1  0  0  3  0  0  0  0  0  0
  193.3320  175.7770  144.9200 C   0  0  0  0  0  2  0  0  0  0  0  0
  193.9060  174.6690  144.0640 C   0  0  0  0  0  2  0  0  0  0  0  0
  189.9270  172.3160  142.6320 C   0  0  0  0  0  0  0  0  0  0  0  0
  190.6260  171.4110  141.7170 C   0  0  2  0  0  3  0  0  0  0  0  0
  187.3970  176.0270  142.2260 C   0  0  2  0  0  3  0  0  0  0  0  0
  189.3280  177.3310  143.3720 C   0  0  0  0  0  2  0  0  0  0  0  0
  192.4790  170.6580  140.5150 C   0  0  1  0  0  3  0  0  0  0  0  0
  191.8600  175.9360  144.5910 C   0  0  0  0  0  2  0  0  0  0  0  0
  190.1530  176.2000  142.7570 C   0  0  1  0  0  3  0  0  0  0  0  0
  191.6490  176.2310  143.0930 C   0  0  2  0  0  3  0  0  0  0  0  0
  191.6280  174.0490  141.8410 C   0  0  1  0  0  3  0  0  0  0  0  0
  191.5330  169.5220  140.9060 C   0  0  0  0  0  2  0  0  0  0  0  0
  187.8110  177.0460  143.3200 C   0  0  2  0  0  3  0  0  0  0  0  0
  190.5480  170.1290  141.7830 N   0  0  0  0  0  2  0  0  0  0  0  0
  193.7800  175.0670  142.6010 C   0  0  0  0  0  2  0  0  0  0  0  0
  192.3780  175.2830  142.2050 N   0  0  2  0  0  0  0  0  0  0  0  0
  192.5020  172.9070  141.5310 N   0  0  0  0  0  2  0  0  0  0  0  0
  188.2270  174.7230  142.2250 C   0  0  0  0  0  2  0  0  0  0  0  0
  188.9390  171.9180  143.3060 O   0  0  0  0  0  0  0  0  0  0  0  0
  192.7910  170.5870  139.0350 C   0  0  0  0  0  1  0  0  0  0  0  0
  190.5240  173.6830  142.8640 C   0  0  1  0  0  3  0  0  0  0  0  0
  191.6890  171.9200  140.8210 C   0  0  2  0  0  3  0  0  0  0  0  0
  187.9850  177.4070  145.7750 C   0  0  0  0  0  2  0  0  0  0  0  0
  187.3230  176.5880  144.6850 C   0  0  1  0  0  3  0  0  0  0  0  0
  186.5650  177.7180  145.3550 C   0  0  1  0  0  3  0  0  0  0  0  0
  185.5950  177.1310  146.3610 C   0  0  0  0  0  2  0  0  0  0  0  0
  184.6890  178.1960  146.8720 C   0  0  0  0  0  0  0  0  0  0  0  0
  183.6580  178.6740  146.0740 O   0  0  0  0  0  0  0  0  0  0  0  0
  184.8780  178.6880  148.0140 O   0  0  0  0  0  1  0  0  0  0  0  0
  186.5570  177.8920  140.7990 C   0  0  0  0  0  1  0  0  0  0  0  0
  187.4420  176.6600  140.8450 C   0  0  0  0  0  2  0  0  0  0  0  0
  1 19  1  6  0  0  0
  3  2  1  0  0  0  0
  4 20  2  0  0  0  0
  5 15  1  1  0  0  0
  5  4  1  0  0  0  0
  6 32  1  6  0  0  0
  6 14  1  0  0  0  0
  8 21  1  6  0  0  0
  8 23  1  0  0  0  0
  8 13  1  0  0  0  0
  9  2  1  0  0  0  0
 10  1  1  0  0  0  0
 10 11  1  0  0  0  0
 10  7  1  1  0  0  0
 11  9  1  1  0  0  0
 12 18  1  1  0  0  0
 12 17  1  0  0  0  0
 12 22  1  0  0  0  0
 13 15  1  0  0  0  0
 14  7  1  1  0  0  0
 14 25  1  0  0  0  0
 16  3  1  0  0  0  0
 17 16  1  1  0  0  0
 17 11  1  0  0  0  0
 19  6  1  0  0  0  0
 22  4  1  6  0  0  0
 22  1  1  0  0  0  0
 23 18  1  1  0  0  0
 23  5  1  0  0  0  0
 25 26  1  0  0  0  0
 25 24  1  1  0  0  0
 26 24  1  0  0  0  0
 26 27  1  1  0  0  0
 27 28  1  0  0  0  0
 28 30  1  0  0  0  0
 29 28  2  0  0  0  0
 31 32  1  0  0  0  0
M  END
>  <MODEL>
6

>  <REMARK>
 VINA RESULT:      -7.4      3.450      8.236
  Name = 
  4 active torsions:
  status: ('A' for Active; 'I' for Inactive)
    1  A    between atoms: C_7  and  C_19
    2  A    between atoms: C_10  and  C_17
    3  A    between atoms: C_20  and  C_29
    4  A    between atoms: C_29  and  C_30
                            x       y       z     vdW  Elec       q    Type
                         _______ _______ _______ _____ _____    ______ ____

>  <TORSDO>
F 4

$$$$
=
 OpenBabel11112416413D

 32 37  0  0  1  0  0  0  0  0999 V2000
  190.3730  175.3360  143.1910 C   0  0  1  0  0  3  0  0  0  0  0  0
  192.5840  175.8880  146.9020 C   0  0  0  0  0  2  0  0  0  0  0  0
  191.2860  176.4150  147.4740 C   0  0  0  0  0  2  0  0  0  0  0  0
  188.6820  177.2710  143.4870 C   0  0  0  0  0  0  0  0  0  0  0  0
  187.4470  177.6060  144.2000 C   0  0  2  0  0  3  0  0  0  0  0  0
  190.2520  173.7070  141.2150 C   0  0  2  0  0  3  0  0  0  0  0  0
  191.9830  173.3960  143.1250 C   0  0  0  0  0  2  0  0  0  0  0  0
  186.0910  177.7640  146.0930 C   0  0  1  0  0  3  0  0  0  0  0  0
  192.3440  175.4470  145.4710 C   0  0  0  0  0  2  0  0  0  0  0  0
  190.8850  174.0930  143.9270 C   0  0  1  0  0  3  0  0  0  0  0  0
  191.2340  174.3810  145.3920 C   0  0  2  0  0  3  0  0  0  0  0  0
  189.0050  175.5450  145.3410 C   0  0  1  0  0  3  0  0  0  0  0  0
  185.7770  178.8430  145.0560 C   0  0  0  0  0  2  0  0  0  0  0  0
  191.7370  173.4710  141.6020 C   0  0  2  0  0  3  0  0  0  0  0  0
  186.8100  178.7120  144.0430 N   0  0  0  0  0  2  0  0  0  0  0  0
  190.2640  175.2870  147.4840 C   0  0  0  0  0  2  0  0  0  0  0  0
  190.0000  174.7690  146.1310 N   0  0  2  0  0  0  0  0  0  0  0  0
  188.1570  176.4180  146.1690 N   0  0  0  0  0  2  0  0  0  0  0  0
  189.5780  174.8770  141.9650 C   0  0  0  0  0  2  0  0  0  0  0  0
  189.0020  177.8770  142.4290 O   0  0  0  0  0  0  0  0  0  0  0  0
  184.8160  177.0620  146.5120 C   0  0  0  0  0  1  0  0  0  0  0  0
  189.6320  176.3000  144.1420 C   0  0  1  0  0  3  0  0  0  0  0  0
  187.0020  176.7960  145.3570 C   0  0  2  0  0  3  0  0  0  0  0  0
  193.9620  174.5790  141.6960 C   0  0  0  0  0  2  0  0  0  0  0  0
  192.6230  174.5420  140.9850 C   0  0  1  0  0  3  0  0  0  0  0  0
  193.8370  173.8880  140.3550 C   0  0  1  0  0  3  0  0  0  0  0  0
  194.3720  174.7930  139.2630 C   0  0  0  0  0  2  0  0  0  0  0  0
  195.8530  174.6690  139.1810 C   0  0  0  0  0  0  0  0  0  0  0  0
  196.6650  175.6640  139.7120 O   0  0  0  0  0  1  0  0  0  0  0  0
  196.3710  173.6800  138.6020 O   0  0  0  0  0  0  0  0  0  0  0  0
  188.0420  172.7800  141.9060 C   0  0  0  0  0  1  0  0  0  0  0  0
  189.4320  172.4410  141.4010 C   0  0  0  0  0  2  0  0  0  0  0  0
  1 19  1  6  0  0  0
  1 10  1  0  0  0  0
  1 22  1  0  0  0  0
  2  3  1  0  0  0  0
  3 16  1  0  0  0  0
  5  4  1  1  0  0  0
  5 23  1  0  0  0  0
  6 32  1  1  0  0  0
  6 14  1  0  0  0  0
  6 19  1  0  0  0  0
  8 21  1  6  0  0  0
  9  2  1  0  0  0  0
 10  7  1  6  0  0  0
 10 11  1  0  0  0  0
 11  9  1  6  0  0  0
 11 17  1  0  0  0  0
 12 17  1  0  0  0  0
 12 18  1  1  0  0  0
 13  8  1  0  0  0  0
 14  7  1  1  0  0  0
 15  5  1  0  0  0  0
 15 13  1  0  0  0  0
 17 16  1  1  0  0  0
 20  4  2  0  0  0  0
 22  4  1  6  0  0  0
 22 12  1  0  0  0  0
 23  8  1  0  0  0  0
 23 18  1  1  0  0  0
 25 14  1  0  0  0  0
 25 24  1  1  0  0  0
 26 27  1  6  0  0  0
 26 25  1  0  0  0  0
 26 24  1  0  0  0  0
 28 27  1  0  0  0  0
 28 29  1  0  0  0  0
 30 28  2  0  0  0  0
 32 31  1  0  0  0  0
M  END
>  <MODEL>
7

>  <REMARK>
 VINA RESULT:      -7.3      3.119      5.037
  Name = 
  4 active torsions:
  status: ('A' for Active; 'I' for Inactive)
    1  A    between atoms: C_7  and  C_19
    2  A    between atoms: C_10  and  C_17
    3  A    between atoms: C_20  and  C_29
    4  A    between atoms: C_29  and  C_30
                            x       y       z     vdW  Elec       q    Type
                         _______ _______ _______ _____ _____    ______ ____

>  <TORSDO>
F 4

$$$$
=
 OpenBabel11112416413D

 32 37  0  0  1  0  0  0  0  0999 V2000
  190.0060  175.0960  143.7490 C   0  0  1  0  0  3  0  0  0  0  0  0
  193.6340  174.8500  146.1450 C   0  0  0  0  0  2  0  0  0  0  0  0
  194.1360  173.8810  145.0970 C   0  0  0  0  0  2  0  0  0  0  0  0
  190.0650  172.7070  142.7570 C   0  0  0  0  0  0  0  0  0  0  0  0
  190.7300  171.9230  141.7140 C   0  0  2  0  0  3  0  0  0  0  0  0
  188.2350  176.8170  143.0590 C   0  0  2  0  0  3  0  0  0  0  0  0
  190.1740  177.4380  144.6700 C   0  0  0  0  0  2  0  0  0  0  0  0
  192.5860  171.1350  140.5400 C   0  0  1  0  0  3  0  0  0  0  0  0
  192.2640  175.3530  145.7310 C   0  0  0  0  0  2  0  0  0  0  0  0
  190.8850  176.3450  143.8720 C   0  0  1  0  0  3  0  0  0  0  0  0
  192.3070  176.0180  144.3420 C   0  0  2  0  0  3  0  0  0  0  0  0
  192.1110  174.2260  142.5870 C   0  0  1  0  0  3  0  0  0  0  0  0
  191.4280  170.1360  140.5430 C   0  0  0  0  0  2  0  0  0  0  0  0
  188.6520  177.4610  144.4080 C   0  0  2  0  0  3  0  0  0  0  0  0
  190.4420  170.6980  141.4490 N   0  0  0  0  0  2  0  0  0  0  0  0
  194.2740  174.6230  143.7750 C   0  0  0  0  0  2  0  0  0  0  0  0
  192.9900  175.1810  143.3170 N   0  0  2  0  0  0  0  0  0  0  0  0
  192.8270  173.0440  142.0830 N   0  0  0  0  0  2  0  0  0  0  0  0
  188.8400  175.4170  142.8090 C   0  0  0  0  0  2  0  0  0  0  0  0
  188.9450  172.3560  143.2150 O   0  0  0  0  0  0  0  0  0  0  0  0
  193.0810  171.3480  139.1240 C   0  0  0  0  0  1  0  0  0  0  0  0
  190.8340  173.8470  143.3780 C   0  0  1  0  0  3  0  0  0  0  0  0
  191.9720  172.4170  141.0770 C   0  0  2  0  0  3  0  0  0  0  0  0
  188.5850  177.1580  146.8760 C   0  0  0  0  0  2  0  0  0  0  0  0
  187.9170  176.8000  145.5630 C   0  0  1  0  0  3  0  0  0  0  0  0
  187.3170  177.8690  146.4560 C   0  0  1  0  0  3  0  0  0  0  0  0
  186.1330  177.2820  147.1980 C   0  0  0  0  0  2  0  0  0  0  0  0
  184.8840  177.9830  146.7950 C   0  0  0  0  0  0  0  0  0  0  0  0
  184.4410  177.9160  145.4810 O   0  0  0  0  0  0  0  0  0  0  0  0
  184.2460  178.6660  147.6380 O   0  0  0  0  0  1  0  0  0  0  0  0
  187.3520  177.9100  140.9980 C   0  0  0  0  0  1  0  0  0  0  0  0
  188.5660  177.7310  141.8920 C   0  0  0  0  0  2  0  0  0  0  0  0
  1 19  1  6  0  0  0
  1 10  1  0  0  0  0
  3  2  1  0  0  0  0
  4 20  2  0  0  0  0
  5 15  1  1  0  0  0
  5  4  1  0  0  0  0
  6 32  1  6  0  0  0
  6 14  1  0  0  0  0
  8 21  1  6  0  0  0
  8 13  1  0  0  0  0
  8 23  1  0  0  0  0
  9  2  1  0  0  0  0
 10 11  1  0  0  0  0
 10  7  1  1  0  0  0
 11  9  1  1  0  0  0
 12 18  1  1  0  0  0
 12 17  1  0  0  0  0
 12 22  1  0  0  0  0
 13 15  1  0  0  0  0
 14  7  1  1  0  0  0
 14 25  1  0  0  0  0
 16  3  1  0  0  0  0
 17 16  1  1  0  0  0
 17 11  1  0  0  0  0
 19  6  1  0  0  0  0
 22  4  1  6  0  0  0
 22  1  1  0  0  0  0
 23  5  1  0  0  0  0
 23 18  1  1  0  0  0
 25 26  1  0  0  0  0
 25 24  1  1  0  0  0
 26 24  1  0  0  0  0
 26 27  1  1  0  0  0
 28 27  1  0  0  0  0
 28 30  1  0  0  0  0
 29 28  2  0  0  0  0
 31 32  1  0  0  0  0
M  END
>  <MODEL>
8

>  <REMARK>
 VINA RESULT:      -7.3      3.369      7.998
  Name = 
  4 active torsions:
  status: ('A' for Active; 'I' for Inactive)
    1  A    between atoms: C_7  and  C_19
    2  A    between atoms: C_10  and  C_17
    3  A    between atoms: C_20  and  C_29
    4  A    between atoms: C_29  and  C_30
                            x       y       z     vdW  Elec       q    Type
                         _______ _______ _______ _____ _____    ______ ____

>  <TORSDO>
F 4

$$$$
=
 OpenBabel11112416413D

 32 37  0  0  1  0  0  0  0  0999 V2000
  190.7070  174.7830  143.7200 C   0  0  1  0  0  3  0  0  0  0  0  0
  194.2400  176.9570  145.0470 C   0  0  0  0  0  2  0  0  0  0  0  0
  195.0380  175.8370  144.4150 C   0  0  0  0  0  2  0  0  0  0  0  0
  191.6880  172.3920  143.8400 C   0  0  0  0  0  0  0  0  0  0  0  0
  192.5590  171.4790  143.0960 C   0  0  2  0  0  3  0  0  0  0  0  0
  188.3520  175.2500  142.8210 C   0  0  2  0  0  3  0  0  0  0  0  0
  189.9500  177.1790  143.5030 C   0  0  0  0  0  2  0  0  0  0  0  0
  194.5090  170.9010  141.9530 C   0  0  1  0  0  3  0  0  0  0  0  0
  192.7640  176.7040  144.8040 C   0  0  0  0  0  2  0  0  0  0  0  0
  191.0020  176.1500  143.0920 C   0  0  1  0  0  3  0  0  0  0  0  0
  192.4560  176.5900  143.2990 C   0  0  2  0  0  3  0  0  0  0  0  0
  192.9190  174.2290  142.5620 C   0  0  1  0  0  3  0  0  0  0  0  0
  193.8640  169.7050  142.6540 C   0  0  0  0  0  2  0  0  0  0  0  0
  188.5400  176.5600  143.6300 C   0  0  2  0  0  3  0  0  0  0  0  0
  192.7840  170.2630  143.4480 N   0  0  0  0  0  2  0  0  0  0  0  0
  194.7890  175.8490  142.9140 C   0  0  0  0  0  2  0  0  0  0  0  0
  193.3660  175.6490  142.5880 N   0  0  2  0  0  0  0  0  0  0  0  0
  194.0280  173.2700  142.4440 N   0  0  0  0  0  2  0  0  0  0  0  0
  189.4640  174.2000  143.0440 C   0  0  0  0  0  2  0  0  0  0  0  0
  190.8370  171.9510  144.6580 O   0  0  0  0  0  0  0  0  0  0  0  0
  194.7960  170.5600  140.5050 C   0  0  0  0  0  1  0  0  0  0  0  0
  191.9540  173.8730  143.7200 C   0  0  1  0  0  3  0  0  0  0  0  0
  193.4530  171.9910  142.0330 C   0  0  2  0  0  3  0  0  0  0  0  0
  188.8510  177.4060  145.9480 C   0  0  0  0  0  2  0  0  0  0  0  0
  188.2040  176.3330  145.0950 C   0  0  1  0  0  3  0  0  0  0  0  0
  187.3800  177.4970  145.6090 C   0  0  1  0  0  3  0  0  0  0  0  0
  186.5530  177.0310  146.7910 C   0  0  0  0  0  2  0  0  0  0  0  0
  185.4270  177.9740  147.0260 C   0  0  0  0  0  0  0  0  0  0  0  0
  184.2250  177.8060  146.3500 O   0  0  0  0  0  0  0  0  0  0  0  0
  185.5730  178.9460  147.8120 O   0  0  0  0  0  1  0  0  0  0  0  0
  188.7020  174.3580  140.5170 C   0  0  0  0  0  1  0  0  0  0  0  0
  188.2160  175.5400  141.3350 C   0  0  0  0  0  2  0  0  0  0  0  0
  1 19  1  6  0  0  0
  1 22  1  0  0  0  0
  3  2  1  0  0  0  0
  4 20  2  0  0  0  0
  5 15  1  1  0  0  0
  5  4  1  0  0  0  0
  6 32  1  6  0  0  0
  6 19  1  0  0  0  0
  6 14  1  0  0  0  0
  8 21  1  6  0  0  0
  8 23  1  0  0  0  0
  8 13  1  0  0  0  0
  9  2  1  0  0  0  0
 10 11  1  0  0  0  0
 10  7  1  1  0  0  0
 10  1  1  0  0  0  0
 11  9  1  1  0  0  0
 12 18  1  1  0  0  0
 12 17  1  0  0  0  0
 12 22  1  0  0  0  0
 13 15  1  0  0  0  0
 14  7  1  1  0  0  0
 14 25  1  0  0  0  0
 16  3  1  0  0  0  0
 17 16  1  1  0  0  0
 17 11  1  0  0  0  0
 22  4  1  6  0  0  0
 23 18  1  1  0  0  0
 23  5  1  0  0  0  0
 25 26  1  0  0  0  0
 25 24  1  1  0  0  0
 26 24  1  0  0  0  0
 26 27  1  1  0  0  0
 27 28  1  0  0  0  0
 28 30  1  0  0  0  0
 29 28  2  0  0  0  0
 31 32  1  0  0  0  0
M  END
>  <MODEL>
9

>  <REMARK>
 VINA RESULT:      -6.9      3.142      8.136
  Name = 
  4 active torsions:
  status: ('A' for Active; 'I' for Inactive)
    1  A    between atoms: C_7  and  C_19
    2  A    between atoms: C_10  and  C_17
    3  A    between atoms: C_20  and  C_29
    4  A    between atoms: C_29  and  C_30
                            x       y       z     vdW  Elec       q    Type
                         _______ _______ _______ _____ _____    ______ ____

>  <TORSDO>
F 4

$$$$
