=
 OpenBabel11112417103D

 37 43  0  0  1  0  0  0  0  0999 V2000
  189.8720  174.1470  140.8650 C   0  0  0  0  0  2  0  0  0  0  0  0
  186.3250  177.4510  143.1970 C   0  0  0  0  0  0  0  0  0  0  0  0
  189.7100  175.7140  144.8650 C   0  0  0  0  0  0  0  0  0  0  0  0
  189.7190  173.3980  139.5410 C   0  0  2  0  0  3  0  0  0  0  0  0
  190.4120  172.3070  144.4600 C   0  0  0  0  0  2  0  0  0  0  0  0
  187.9630  177.3590  145.0720 C   0  0  0  0  0  0  0  0  0  0  0  0
  189.9370  174.6610  143.9810 C   0  0  0  0  0  0  0  0  0  0  0  0
  190.6510  171.4010  140.9040 C   0  0  2  0  0  3  0  0  0  0  0  0
  188.5450  176.2780  144.4720 C   0  0  0  0  0  0  0  0  0  0  0  0
  191.0390  173.6300  144.0540 C   0  0  1  0  0  3  0  0  0  0  0  0
  188.6190  177.9160  146.1850 C   0  0  0  0  0  3  0  0  0  0  0  0
  189.8680  171.8740  139.6700 C   0  0  0  0  0  2  0  0  0  0  0  0
  188.0690  175.6340  143.3930 C   0  0  0  0  0  0  0  0  0  0  0  0
  186.9080  178.4240  142.1890 C   0  0  0  0  0  1  0  0  0  0  0  0
  191.7720  175.7240  146.3060 C   0  0  0  0  0  2  0  0  0  0  0  0
  189.8620  177.3680  146.6080 C   0  0  0  0  0  3  0  0  0  0  0  0
  186.7450  176.0030  142.7910 C   0  0  0  0  0  2  0  0  0  0  0  0
  189.8750  171.4980  142.1530 N   0  0  1  0  0  0  0  0  0  0  0  0
  190.6280  171.2490  143.3880 C   0  0  0  0  0  2  0  0  0  0  0  0
  190.4330  176.2620  145.9280 C   0  0  0  0  0  0  0  0  0  0  0  0
  188.9090  174.6210  143.0750 N   0  0  0  0  0  0  0  0  0  0  0  0
  186.7630  177.8360  144.5260 O   0  0  0  0  0  0  0  0  0  0  0  0
  192.1790  173.9400  145.0450 C   0  0  2  0  0  3  0  0  0  0  0  0
  184.8160  177.5520  143.1330 C   0  0  0  0  0  1  0  0  0  0  0  0
  188.6310  172.2910  142.2140 C   0  0  0  0  0  2  0  0  0  0  0  0
  191.8790  172.0650  141.0100 O   0  0  0  0  0  1  0  0  0  0  0  0
  188.7900  173.7870  141.8810 C   0  0  2  0  0  3  0  0  0  0  0  0
  192.4530  175.3090  145.1530 O   0  0  0  0  0  0  0  0  0  0  0  0
  194.0050  173.3600  143.4080 C   0  0  0  0  0  3  0  0  0  0  0  0
  193.4210  173.1940  144.6720 C   0  0  0  0  0  0  0  0  0  0  0  0
  193.9900  172.3040  145.5880 C   0  0  0  0  0  3  0  0  0  0  0  0
  195.6910  170.7270  146.1380 F   0  0  0  0  0  0  0  0  0  0  0  0
  195.7230  171.7560  143.9880 C   0  0  0  0  0  3  0  0  0  0  0  0
  195.1410  171.5870  145.2480 C   0  0  0  0  0  0  0  0  0  0  0  0
  195.1550  172.6420  143.0680 C   0  0  0  0  0  3  0  0  0  0  0  0
  190.1010  173.7910  137.2680 C   0  0  0  0  0  1  0  0  0  0  0  0
  190.6970  173.8960  138.5880 N   0  0  0  0  0  2  0  0  0  0  0  0
  2 22  1  0  0  0  0
  3 20  1  0  0  0  0
  4 37  1  6  0  0  0
  4 12  1  0  0  0  0
  4  1  1  0  0  0  0
  6 11  2  0  0  0  0
  7 10  1  0  0  0  0
  7  3  2  0  0  0  0
  8 26  1  1  0  0  0
  8 18  1  0  0  0  0
  9  3  1  0  0  0  0
  9  6  1  0  0  0  0
 10  5  1  1  0  0  0
 10 23  1  0  0  0  0
 11 16  1  0  0  0  0
 12  8  1  0  0  0  0
 13  9  2  0  0  0  0
 14  2  1  0  0  0  0
 17  2  1  0  0  0  0
 17 13  1  0  0  0  0
 18 25  1  1  0  0  0
 18 19  1  0  0  0  0
 19  5  1  0  0  0  0
 20 15  1  0  0  0  0
 20 16  2  0  0  0  0
 21 13  1  0  0  0  0
 21  7  1  0  0  0  0
 22  6  1  0  0  0  0
 23 30  1  6  0  0  0
 23 28  1  0  0  0  0
 24  2  1  0  0  0  0
 27  1  1  6  0  0  0
 27 25  1  0  0  0  0
 27 21  1  0  0  0  0
 28 15  1  0  0  0  0
 29 30  1  0  0  0  0
 30 31  2  0  0  0  0
 33 34  2  0  0  0  0
 34 31  1  0  0  0  0
 34 32  1  0  0  0  0
 35 29  2  0  0  0  0
 35 33  1  0  0  0  0
 36 37  1  0  0  0  0
M  END
>  <MODEL>
1

>  <REMARK>
 VINA RESULT:      -8.2      0.000      0.000
  Name = 
  2 active torsions:
  status: ('A' for Active; 'I' for Inactive)
    1  A    between atoms: C_4  and  N_37
    2  A    between atoms: C_23  and  C_30
                            x       y       z     vdW  Elec       q    Type
                         _______ _______ _______ _____ _____    ______ ____

>  <TORSDO>
F 2

$$$$
=
 OpenBabel11112417103D

 37 43  0  0  1  0  0  0  0  0999 V2000
  189.9470  174.1270  140.9430 C   0  0  0  0  0  2  0  0  0  0  0  0
  186.3690  177.4400  143.2160 C   0  0  0  0  0  0  0  0  0  0  0  0
  189.7390  175.7190  144.9320 C   0  0  0  0  0  0  0  0  0  0  0  0
  189.8100  173.3700  139.6220 C   0  0  2  0  0  3  0  0  0  0  0  0
  190.4510  172.3110  144.5550 C   0  0  0  0  0  2  0  0  0  0  0  0
  187.9870  177.3620  145.1090 C   0  0  0  0  0  0  0  0  0  0  0  0
  189.9770  174.6610  144.0560 C   0  0  0  0  0  0  0  0  0  0  0  0
  190.7300  171.3830  141.0070 C   0  0  2  0  0  3  0  0  0  0  0  0
  188.5780  176.2780  144.5220 C   0  0  0  0  0  0  0  0  0  0  0  0
  191.0800  173.6320  144.1480 C   0  0  1  0  0  3  0  0  0  0  0  0
  188.6300  177.9270  146.2260 C   0  0  0  0  0  3  0  0  0  0  0  0
  189.9600  171.8470  139.7620 C   0  0  0  0  0  2  0  0  0  0  0  0
  188.1140  175.6270  143.4420 C   0  0  0  0  0  0  0  0  0  0  0  0
  186.9620  178.4070  142.2080 C   0  0  0  0  0  1  0  0  0  0  0  0
  191.7850  175.7410  146.3950 C   0  0  0  0  0  2  0  0  0  0  0  0
  189.8690  177.3830  146.6660 C   0  0  0  0  0  3  0  0  0  0  0  0
  186.7960  175.9900  142.8230 C   0  0  0  0  0  2  0  0  0  0  0  0
  189.9400  171.4870  142.2470 N   0  0  1  0  0  0  0  0  0  0  0  0
  190.6800  171.2460  143.4920 C   0  0  0  0  0  2  0  0  0  0  0  0
  190.4490  176.2750  145.9980 C   0  0  0  0  0  0  0  0  0  0  0  0
  188.9600  174.6140  143.1390 N   0  0  0  0  0  0  0  0  0  0  0  0
  186.7930  177.8330  144.5470 O   0  0  0  0  0  0  0  0  0  0  0  0
  192.2080  173.9500  145.1500 C   0  0  2  0  0  3  0  0  0  0  0  0
  184.8620  177.5380  143.1340 C   0  0  0  0  0  1  0  0  0  0  0  0
  188.6940  172.2770  142.2890 C   0  0  0  0  0  2  0  0  0  0  0  0
  191.9560  172.0490  141.1230 O   0  0  0  0  0  1  0  0  0  0  0  0
  188.8550  173.7720  141.9490 C   0  0  2  0  0  3  0  0  0  0  0  0
  192.4790  175.3200  145.2520 O   0  0  0  0  0  0  0  0  0  0  0  0
  194.0120  172.2720  145.6820 C   0  0  0  0  0  3  0  0  0  0  0  0
  193.4560  173.2040  144.7950 C   0  0  0  0  0  0  0  0  0  0  0  0
  194.0850  173.4590  143.5720 C   0  0  0  0  0  3  0  0  0  0  0  0
  195.8670  173.0310  142.0480 F   0  0  0  0  0  0  0  0  0  0  0  0
  195.8130  171.8530  144.1200 C   0  0  0  0  0  3  0  0  0  0  0  0
  195.2610  172.7830  143.2330 C   0  0  0  0  0  0  0  0  0  0  0  0
  195.1890  171.5980  145.3440 C   0  0  0  0  0  3  0  0  0  0  0  0
  190.1810  173.8410  137.3620 C   0  0  0  0  0  1  0  0  0  0  0  0
  190.7980  173.8640  138.6770 N   0  0  0  0  0  2  0  0  0  0  0  0
  2 22  1  0  0  0  0
  3 20  1  0  0  0  0
  4 37  1  6  0  0  0
  4 12  1  0  0  0  0
  4  1  1  0  0  0  0
  6 11  2  0  0  0  0
  7 10  1  0  0  0  0
  7  3  2  0  0  0  0
  8 26  1  1  0  0  0
  8 18  1  0  0  0  0
  9  3  1  0  0  0  0
  9  6  1  0  0  0  0
 10  5  1  1  0  0  0
 10 23  1  0  0  0  0
 11 16  1  0  0  0  0
 12  8  1  0  0  0  0
 13  9  2  0  0  0  0
 14  2  1  0  0  0  0
 17  2  1  0  0  0  0
 17 13  1  0  0  0  0
 18 25  1  1  0  0  0
 18 19  1  0  0  0  0
 19  5  1  0  0  0  0
 20 15  1  0  0  0  0
 20 16  2  0  0  0  0
 21 13  1  0  0  0  0
 21  7  1  0  0  0  0
 22  6  1  0  0  0  0
 23 30  1  6  0  0  0
 23 28  1  0  0  0  0
 24  2  1  0  0  0  0
 27  1  1  6  0  0  0
 27 25  1  0  0  0  0
 27 21  1  0  0  0  0
 28 15  1  0  0  0  0
 30 29  2  0  0  0  0
 31 30  1  0  0  0  0
 32 34  1  0  0  0  0
 33 35  2  0  0  0  0
 34 31  2  0  0  0  0
 34 33  1  0  0  0  0
 35 29  1  0  0  0  0
 36 37  1  0  0  0  0
M  END
>  <MODEL>
2

>  <REMARK>
 VINA RESULT:      -8.1      0.780      1.114
  Name = 
  2 active torsions:
  status: ('A' for Active; 'I' for Inactive)
    1  A    between atoms: C_4  and  N_37
    2  A    between atoms: C_23  and  C_30
                            x       y       z     vdW  Elec       q    Type
                         _______ _______ _______ _____ _____    ______ ____

>  <TORSDO>
F 2

$$$$
=
 OpenBabel11112417103D

 37 43  0  0  1  0  0  0  0  0999 V2000
  193.9490  174.9390  144.7360 C   0  0  0  0  0  2  0  0  0  0  0  0
  195.0080  169.6710  144.4790 C   0  0  0  0  0  0  0  0  0  0  0  0
  191.5270  171.6550  143.3800 C   0  0  0  0  0  0  0  0  0  0  0  0
  194.7310  176.0130  145.4930 C   0  0  2  0  0  3  0  0  0  0  0  0
  190.0420  174.0440  145.4650 C   0  0  0  0  0  2  0  0  0  0  0  0
  192.8080  169.6170  143.3110 C   0  0  0  0  0  0  0  0  0  0  0  0
  191.6690  172.8550  144.0750 C   0  0  0  0  0  0  0  0  0  0  0  0
  192.3740  176.7780  146.2470 C   0  0  2  0  0  3  0  0  0  0  0  0
  192.5660  170.8820  143.7690 C   0  0  0  0  0  0  0  0  0  0  0  0
  190.7020  174.0150  144.0980 C   0  0  1  0  0  3  0  0  0  0  0  0
  191.9030  169.0800  142.3770 C   0  0  0  0  0  3  0  0  0  0  0  0
  193.8860  176.7920  146.5130 C   0  0  0  0  0  2  0  0  0  0  0  0
  193.3310  171.5530  144.6450 C   0  0  0  0  0  0  0  0  0  0  0  0
  196.0090  170.1520  143.4450 C   0  0  0  0  0  1  0  0  0  0  0  0
  189.5460  172.0750  141.8870 C   0  0  0  0  0  2  0  0  0  0  0  0
  190.8160  169.8770  141.9210 C   0  0  0  0  0  3  0  0  0  0  0  0
  194.5130  170.9020  145.3020 C   0  0  0  0  0  2  0  0  0  0  0  0
  191.7370  175.4960  146.5990 N   0  0  1  0  0  0  0  0  0  0  0  0
  190.3350  175.3520  146.1870 C   0  0  0  0  0  2  0  0  0  0  0  0
  190.6320  171.1950  142.4100 C   0  0  0  0  0  0  0  0  0  0  0  0
  192.7910  172.7760  144.8590 N   0  0  0  0  0  0  0  0  0  0  0  0
  193.9430  168.9560  143.8000 O   0  0  0  0  0  0  0  0  0  0  0  0
  189.5880  173.9780  143.0330 C   0  0  2  0  0  3  0  0  0  0  0  0
  195.7170  168.7170  145.4150 C   0  0  0  0  0  1  0  0  0  0  0  0
  192.5470  174.2860  146.8370 C   0  0  0  0  0  2  0  0  0  0  0  0
  192.0870  177.1490  144.9280 O   0  0  0  0  0  1  0  0  0  0  0  0
  193.4170  173.8360  145.6480 C   0  0  2  0  0  3  0  0  0  0  0  0
  190.0040  173.3990  141.8270 O   0  0  0  0  0  0  0  0  0  0  0  0
  189.9120  176.4400  142.6020 C   0  0  0  0  0  3  0  0  0  0  0  0
  189.0480  175.3510  142.7840 C   0  0  0  0  0  0  0  0  0  0  0  0
  187.6640  175.5510  142.7580 C   0  0  0  0  0  3  0  0  0  0  0  0
  185.8030  177.0210  142.5180 F   0  0  0  0  0  0  0  0  0  0  0  0
  188.0080  177.9150  142.3600 C   0  0  0  0  0  3  0  0  0  0  0  0
  187.1440  176.8310  142.5440 C   0  0  0  0  0  0  0  0  0  0  0  0
  189.3910  177.7200  142.3890 C   0  0  0  0  0  3  0  0  0  0  0  0
  196.0630  176.1580  143.5770 C   0  0  0  0  0  1  0  0  0  0  0  0
  195.3160  176.9440  144.5440 N   0  0  0  0  0  2  0  0  0  0  0  0
  1  4  1  0  0  0  0
  2 17  1  0  0  0  0
  2 24  1  0  0  0  0
  3  9  1  0  0  0  0
  3  7  2  0  0  0  0
  4 37  1  6  0  0  0
  4 12  1  0  0  0  0
  5 19  1  0  0  0  0
  6  9  1  0  0  0  0
  6 22  1  0  0  0  0
  7 10  1  0  0  0  0
  7 21  1  0  0  0  0
  8 26  1  6  0  0  0
  8 12  1  0  0  0  0
  8 18  1  0  0  0  0
  9 13  2  0  0  0  0
 10  5  1  1  0  0  0
 11  6  2  0  0  0  0
 13 21  1  0  0  0  0
 13 17  1  0  0  0  0
 14  2  1  0  0  0  0
 15 20  1  0  0  0  0
 16 11  1  0  0  0  0
 16 20  2  0  0  0  0
 18 19  1  6  0  0  0
 18 25  1  0  0  0  0
 20  3  1  0  0  0  0
 21 27  1  0  0  0  0
 22  2  1  0  0  0  0
 23 30  1  6  0  0  0
 23 10  1  0  0  0  0
 27  1  1  6  0  0  0
 27 25  1  0  0  0  0
 28 15  1  0  0  0  0
 28 23  1  0  0  0  0
 29 30  1  0  0  0  0
 31 30  2  0  0  0  0
 32 34  1  0  0  0  0
 33 35  1  0  0  0  0
 33 34  2  0  0  0  0
 34 31  1  0  0  0  0
 35 29  2  0  0  0  0
 36 37  1  0  0  0  0
M  END
>  <MODEL>
3

>  <REMARK>
 VINA RESULT:      -7.7      3.225      7.945
  Name = 
  2 active torsions:
  status: ('A' for Active; 'I' for Inactive)
    1  A    between atoms: C_4  and  N_37
    2  A    between atoms: C_23  and  C_30
                            x       y       z     vdW  Elec       q    Type
                         _______ _______ _______ _____ _____    ______ ____

>  <TORSDO>
F 2

$$$$
=
 OpenBabel11112417103D

 37 43  0  0  1  0  0  0  0  0999 V2000
  190.8820  173.7060  141.4660 C   0  0  0  0  0  2  0  0  0  0  0  0
  189.8260  175.1360  146.5430 C   0  0  0  0  0  0  0  0  0  0  0  0
  193.4760  175.1850  144.5600 C   0  0  0  0  0  0  0  0  0  0  0  0
  189.9840  172.9180  140.5120 C   0  0  2  0  0  3  0  0  0  0  0  0
  194.5690  172.4520  142.6630 C   0  0  0  0  0  2  0  0  0  0  0  0
  192.2070  175.8690  146.4890 C   0  0  0  0  0  0  0  0  0  0  0  0
  193.2200  174.3150  143.5010 C   0  0  0  0  0  0  0  0  0  0  0  0
  192.1650  171.6140  140.0090 C   0  0  2  0  0  3  0  0  0  0  0  0
  192.3730  175.1460  145.3410 C   0  0  0  0  0  0  0  0  0  0  0  0
  194.1790  173.8980  142.4110 C   0  0  1  0  0  3  0  0  0  0  0  0
  193.2650  176.7050  146.8890 C   0  0  0  0  0  3  0  0  0  0  0  0
  190.6300  171.6330  139.9720 C   0  0  0  0  0  2  0  0  0  0  0  0
  191.4640  174.3150  144.8050 C   0  0  0  0  0  0  0  0  0  0  0  0
  189.0440  176.2280  145.8360 C   0  0  0  0  0  1  0  0  0  0  0  0
  195.7090  176.1830  143.9700 C   0  0  0  0  0  2  0  0  0  0  0  0
  194.4280  176.7950  146.0750 C   0  0  0  0  0  3  0  0  0  0  0  0
  190.1710  174.0210  145.5070 C   0  0  0  0  0  2  0  0  0  0  0  0
  192.7080  171.3980  141.3620 N   0  0  1  0  0  0  0  0  0  0  0  0
  194.1610  171.5650  141.4960 C   0  0  0  0  0  2  0  0  0  0  0  0
  194.5320  176.0420  144.8780 C   0  0  0  0  0  0  0  0  0  0  0  0
  191.9690  173.7800  143.6680 N   0  0  0  0  0  0  0  0  0  0  0  0
  190.9910  175.7290  147.1730 O   0  0  0  0  0  0  0  0  0  0  0  0
  195.4740  174.7290  142.3070 C   0  0  2  0  0  3  0  0  0  0  0  0
  188.9410  174.5420  147.6170 C   0  0  0  0  0  1  0  0  0  0  0  0
  191.8520  171.5440  142.5560 C   0  0  0  0  0  2  0  0  0  0  0  0
  192.7010  172.7650  139.4190 O   0  0  0  0  0  1  0  0  0  0  0  0
  191.2180  172.9360  142.7410 C   0  0  2  0  0  3  0  0  0  0  0  0
  195.2870  176.0770  142.6370 O   0  0  0  0  0  0  0  0  0  0  0  0
  197.3760  174.1370  140.7630 C   0  0  0  0  0  3  0  0  0  0  0  0
  196.0680  174.6120  140.9390 C   0  0  0  0  0  0  0  0  0  0  0  0
  195.3170  175.0040  139.8270 C   0  0  0  0  0  3  0  0  0  0  0  0
  195.1340  175.2970  137.4680 F   0  0  0  0  0  0  0  0  0  0  0  0
  197.1680  174.4420  138.3700 C   0  0  0  0  0  3  0  0  0  0  0  0
  195.8650  174.9180  138.5440 C   0  0  0  0  0  0  0  0  0  0  0  0
  197.9240  174.0520  139.4790 C   0  0  0  0  0  3  0  0  0  0  0  0
  188.5800  173.0560  138.6480 C   0  0  0  0  0  1  0  0  0  0  0  0
  189.6010  173.7670  139.3970 N   0  0  0  0  0  2  0  0  0  0  0  0
  2 22  1  0  0  0  0
  2 24  1  0  0  0  0
  3 20  1  0  0  0  0
  3  9  1  0  0  0  0
  4 37  1  6  0  0  0
  4  1  1  0  0  0  0
  6 11  2  0  0  0  0
  6 22  1  0  0  0  0
  7 21  1  0  0  0  0
  7  3  2  0  0  0  0
  8 26  1  1  0  0  0
  8 18  1  0  0  0  0
  9  6  1  0  0  0  0
 10  5  1  1  0  0  0
 10  7  1  0  0  0  0
 12  8  1  0  0  0  0
 12  4  1  0  0  0  0
 13  9  2  0  0  0  0
 13 17  1  0  0  0  0
 14  2  1  0  0  0  0
 15 20  1  0  0  0  0
 16 11  1  0  0  0  0
 17  2  1  0  0  0  0
 18 19  1  1  0  0  0
 18 25  1  0  0  0  0
 19  5  1  0  0  0  0
 20 16  2  0  0  0  0
 21 13  1  0  0  0  0
 23 30  1  6  0  0  0
 23 10  1  0  0  0  0
 23 28  1  0  0  0  0
 25 27  1  0  0  0  0
 27  1  1  6  0  0  0
 27 21  1  0  0  0  0
 28 15  1  0  0  0  0
 29 30  1  0  0  0  0
 31 30  2  0  0  0  0
 32 34  1  0  0  0  0
 33 34  2  0  0  0  0
 33 35  1  0  0  0  0
 34 31  1  0  0  0  0
 35 29  2  0  0  0  0
 36 37  1  0  0  0  0
M  END
>  <MODEL>
4

>  <REMARK>
 VINA RESULT:      -7.5      3.020      4.509
  Name = 
  2 active torsions:
  status: ('A' for Active; 'I' for Inactive)
    1  A    between atoms: C_4  and  N_37
    2  A    between atoms: C_23  and  C_30
                            x       y       z     vdW  Elec       q    Type
                         _______ _______ _______ _____ _____    ______ ____

>  <TORSDO>
F 2

$$$$
=
 OpenBabel11112417103D

 37 43  0  0  1  0  0  0  0  0999 V2000
  191.2240  175.5420  145.5440 C   0  0  0  0  0  2  0  0  0  0  0  0
  187.6100  176.5980  141.7020 C   0  0  0  0  0  0  0  0  0  0  0  0
  190.6360  173.7520  141.6800 C   0  0  0  0  0  0  0  0  0  0  0  0
  191.5680  176.3980  146.7640 C   0  0  2  0  0  3  0  0  0  0  0  0
  193.9070  174.5450  142.6460 C   0  0  0  0  0  2  0  0  0  0  0  0
  188.6260  174.5840  140.6470 C   0  0  0  0  0  0  0  0  0  0  0  0
  191.4780  174.2440  142.6760 C   0  0  0  0  0  0  0  0  0  0  0  0
  194.0090  175.8740  146.0730 C   0  0  2  0  0  3  0  0  0  0  0  0
  189.6670  174.6830  141.5260 C   0  0  0  0  0  0  0  0  0  0  0  0
  192.7850  173.6490  143.1410 C   0  0  1  0  0  3  0  0  0  0  0  0
  188.5660  173.4340  139.8370 C   0  0  0  0  0  3  0  0  0  0  0  0
  193.0510  176.7910  146.8470 C   0  0  0  0  0  2  0  0  0  0  0  0
  189.8700  175.6970  142.3830 C   0  0  0  0  0  0  0  0  0  0  0  0
  186.6620  176.0720  142.7630 C   0  0  0  0  0  1  0  0  0  0  0  0
  191.5890  171.4780  141.1790 C   0  0  0  0  0  2  0  0  0  0  0  0
  189.5510  172.4200  139.9940 C   0  0  0  0  0  3  0  0  0  0  0  0
  188.9850  176.9090  142.3740 C   0  0  0  0  0  2  0  0  0  0  0  0
  193.9650  176.0880  144.6160 N   0  0  1  0  0  0  0  0  0  0  0  0
  194.7080  175.1120  143.8090 C   0  0  0  0  0  2  0  0  0  0  0  0
  190.5930  172.5650  140.9440 C   0  0  0  0  0  0  0  0  0  0  0  0
  190.9920  175.4540  143.1010 N   0  0  0  0  0  0  0  0  0  0  0  0
  187.6920  175.6290  140.6260 O   0  0  0  0  0  0  0  0  0  0  0  0
  193.0760  172.2140  142.6580 C   0  0  2  0  0  3  0  0  0  0  0  0
  187.0380  177.8880  141.1550 C   0  0  0  0  0  1  0  0  0  0  0  0
  192.8640  176.8500  143.9940 C   0  0  0  0  0  2  0  0  0  0  0  0
  193.7980  174.5290  146.4010 O   0  0  0  0  0  1  0  0  0  0  0  0
  191.4550  176.2690  144.2220 C   0  0  2  0  0  3  0  0  0  0  0  0
  191.9190  171.4320  142.5410 O   0  0  0  0  0  0  0  0  0  0  0  0
  193.7980  171.3950  144.9300 C   0  0  0  0  0  3  0  0  0  0  0  0
  194.0620  171.5410  143.5600 C   0  0  0  0  0  0  0  0  0  0  0  0
  195.2700  171.0750  143.0320 C   0  0  0  0  0  3  0  0  0  0  0  0
  197.3770  170.0080  143.3510 F   0  0  0  0  0  0  0  0  0  0  0  0
  195.9430  170.3130  145.2310 C   0  0  0  0  0  3  0  0  0  0  0  0
  196.2090  170.4600  143.8650 C   0  0  0  0  0  0  0  0  0  0  0  0
  194.7380  170.7810  145.7630 C   0  0  0  0  0  3  0  0  0  0  0  0
  190.0010  174.9160  147.6660 C   0  0  0  0  0  1  0  0  0  0  0  0
  191.1910  175.6880  147.9750 N   0  0  0  0  0  2  0  0  0  0  0  0
  1  4  1  0  0  0  0
  2 17  1  0  0  0  0
  2 14  1  0  0  0  0
  3  7  2  0  0  0  0
  4 12  1  0  0  0  0
  4 37  1  1  0  0  0
  5 19  1  0  0  0  0
  6  9  1  0  0  0  0
  7 21  1  0  0  0  0
  7 10  1  0  0  0  0
  8 26  1  6  0  0  0
  8 12  1  0  0  0  0
  9  3  1  0  0  0  0
  9 13  2  0  0  0  0
 10  5  1  6  0  0  0
 11 16  1  0  0  0  0
 11  6  2  0  0  0  0
 13 21  1  0  0  0  0
 15 28  1  0  0  0  0
 16 20  2  0  0  0  0
 17 13  1  0  0  0  0
 18 19  1  6  0  0  0
 18  8  1  0  0  0  0
 20 15  1  0  0  0  0
 20  3  1  0  0  0  0
 21 27  1  0  0  0  0
 22  6  1  0  0  0  0
 22  2  1  0  0  0  0
 23 10  1  0  0  0  0
 23 30  1  1  0  0  0
 24  2  1  0  0  0  0
 25 18  1  0  0  0  0
 27 25  1  6  0  0  0
 27  1  1  0  0  0  0
 28 23  1  0  0  0  0
 29 35  1  0  0  0  0
 30 29  2  0  0  0  0
 31 30  1  0  0  0  0
 31 34  2  0  0  0  0
 32 34  1  0  0  0  0
 33 35  2  0  0  0  0
 34 33  1  0  0  0  0
 36 37  1  0  0  0  0
M  END
>  <MODEL>
5

>  <REMARK>
 VINA RESULT:      -7.5      2.233      5.310
  Name = 
  2 active torsions:
  status: ('A' for Active; 'I' for Inactive)
    1  A    between atoms: C_4  and  N_37
    2  A    between atoms: C_23  and  C_30
                            x       y       z     vdW  Elec       q    Type
                         _______ _______ _______ _____ _____    ______ ____

>  <TORSDO>
F 2

$$$$
=
 OpenBabel11112417103D

 37 43  0  0  1  0  0  0  0  0999 V2000
  192.3490  172.2490  142.3450 C   0  0  0  0  0  2  0  0  0  0  0  0
  197.1120  173.9450  140.5090 C   0  0  0  0  0  0  0  0  0  0  0  0
  194.5760  175.8240  143.2090 C   0  0  0  0  0  0  0  0  0  0  0  0
  191.4800  171.1220  141.7860 C   0  0  2  0  0  3  0  0  0  0  0  0
  191.1430  176.1320  142.5910 C   0  0  0  0  0  2  0  0  0  0  0  0
  196.7630  175.7360  142.2050 C   0  0  0  0  0  0  0  0  0  0  0  0
  193.3700  175.1780  142.9420 C   0  0  0  0  0  0  0  0  0  0  0  0
  189.5710  172.8470  142.0860 C   0  0  2  0  0  3  0  0  0  0  0  0
  195.4510  175.3610  142.2880 C   0  0  0  0  0  0  0  0  0  0  0  0
  192.0350  175.4310  143.6010 C   0  0  1  0  0  3  0  0  0  0  0  0
  197.2290  176.6800  143.1380 C   0  0  0  0  0  3  0  0  0  0  0  0
  190.0640  171.5690  141.3920 C   0  0  0  0  0  2  0  0  0  0  0  0
  194.8450  174.4630  141.4950 C   0  0  0  0  0  0  0  0  0  0  0  0
  197.5910  172.7320  141.2850 C   0  0  0  0  0  1  0  0  0  0  0  0
  194.0790  177.1540  145.2860 C   0  0  0  0  0  2  0  0  0  0  0  0
  196.3450  177.1660  144.1400 C   0  0  0  0  0  3  0  0  0  0  0  0
  195.5650  173.8440  140.3320 C   0  0  0  0  0  2  0  0  0  0  0  0
  190.1810  174.0730  141.5420 N   0  0  1  0  0  0  0  0  0  0  0  0
  189.9010  175.3050  142.2900 C   0  0  0  0  0  2  0  0  0  0  0  0
  195.0000  176.7180  144.1960 C   0  0  0  0  0  0  0  0  0  0  0  0
  193.5510  174.3390  141.8730 N   0  0  0  0  0  0  0  0  0  0  0  0
  197.5440  175.1440  141.2030 O   0  0  0  0  0  0  0  0  0  0  0  0
  192.0730  176.2910  144.8800 C   0  0  2  0  0  3  0  0  0  0  0  0
  197.7570  173.9140  139.1400 C   0  0  0  0  0  1  0  0  0  0  0  0
  191.3780  174.0070  140.6820 C   0  0  0  0  0  2  0  0  0  0  0  0
  189.7330  172.7640  143.4740 O   0  0  0  0  0  1  0  0  0  0  0  0
  192.6160  173.3560  141.3290 C   0  0  2  0  0  3  0  0  0  0  0  0
  193.2340  176.0930  145.6380 O   0  0  0  0  0  0  0  0  0  0  0  0
  190.5630  174.7530  146.1880 C   0  0  0  0  0  3  0  0  0  0  0  0
  190.8610  176.0420  145.7210 C   0  0  0  0  0  0  0  0  0  0  0  0
  190.0040  177.1050  146.0240 C   0  0  0  0  0  3  0  0  0  0  0  0
  188.0300  177.9150  147.0870 F   0  0  0  0  0  0  0  0  0  0  0  0
  188.5650  175.5990  147.2600 C   0  0  0  0  0  3  0  0  0  0  0  0
  188.8580  176.8840  146.7940 C   0  0  0  0  0  0  0  0  0  0  0  0
  189.4170  174.5330  146.9570 C   0  0  0  0  0  3  0  0  0  0  0  0
  192.5190  170.1970  143.6650 C   0  0  0  0  0  1  0  0  0  0  0  0
  191.3900  170.0500  142.7630 N   0  0  0  0  0  2  0  0  0  0  0  0
  2 22  1  0  0  0  0
  2 14  1  0  0  0  0
  3 20  1  0  0  0  0
  4  1  1  0  0  0  0
  4 37  1  1  0  0  0
  6  9  1  0  0  0  0
  6 11  2  0  0  0  0
  7  3  2  0  0  0  0
  7 10  1  0  0  0  0
  8 26  1  1  0  0  0
  9  3  1  0  0  0  0
 10  5  1  6  0  0  0
 10 23  1  0  0  0  0
 11 16  1  0  0  0  0
 12  4  1  0  0  0  0
 12  8  1  0  0  0  0
 13 21  1  0  0  0  0
 13  9  2  0  0  0  0
 15 28  1  0  0  0  0
 16 20  2  0  0  0  0
 17  2  1  0  0  0  0
 17 13  1  0  0  0  0
 18 25  1  1  0  0  0
 18  8  1  0  0  0  0
 18 19  1  0  0  0  0
 19  5  1  0  0  0  0
 20 15  1  0  0  0  0
 21  7  1  0  0  0  0
 22  6  1  0  0  0  0
 23 28  1  0  0  0  0
 23 30  1  1  0  0  0
 24  2  1  0  0  0  0
 27 25  1  1  0  0  0
 27 21  1  0  0  0  0
 27  1  1  0  0  0  0
 29 35  1  0  0  0  0
 30 31  1  0  0  0  0
 30 29  2  0  0  0  0
 31 34  2  0  0  0  0
 34 32  1  0  0  0  0
 34 33  1  0  0  0  0
 35 33  2  0  0  0  0
 37 36  1  0  0  0  0
M  END
>  <MODEL>
6

>  <REMARK>
 VINA RESULT:      -7.3      3.281      6.837
  Name = 
  2 active torsions:
  status: ('A' for Active; 'I' for Inactive)
    1  A    between atoms: C_4  and  N_37
    2  A    between atoms: C_23  and  C_30
                            x       y       z     vdW  Elec       q    Type
                         _______ _______ _______ _____ _____    ______ ____

>  <TORSDO>
F 2

$$$$
=
 OpenBabel11112417103D

 37 43  0  0  1  0  0  0  0  0999 V2000
  193.4600  173.9910  142.4830 C   0  0  0  0  0  2  0  0  0  0  0  0
  192.1950  171.9260  137.6800 C   0  0  0  0  0  0  0  0  0  0  0  0
  189.7050  173.8470  140.3950 C   0  0  0  0  0  0  0  0  0  0  0  0
  194.7350  173.7560  143.2940 C   0  0  2  0  0  3  0  0  0  0  0  0
  189.7270  173.0290  143.8000 C   0  0  0  0  0  2  0  0  0  0  0  0
  189.9990  173.0010  138.1590 C   0  0  0  0  0  0  0  0  0  0  0  0
  190.4480  173.7350  141.5690 C   0  0  0  0  0  0  0  0  0  0  0  0
  193.0750  173.4550  145.2600 C   0  0  2  0  0  3  0  0  0  0  0  0
  190.3840  173.1400  139.4630 C   0  0  0  0  0  0  0  0  0  0  0  0
  190.0650  174.2360  142.9410 C   0  0  1  0  0  3  0  0  0  0  0  0
  188.8050  173.6310  137.7640 C   0  0  0  0  0  3  0  0  0  0  0  0
  194.4800  173.1910  144.7000 C   0  0  0  0  0  2  0  0  0  0  0  0
  191.4990  172.6240  140.0060 C   0  0  0  0  0  0  0  0  0  0  0  0
  193.1060  173.0450  137.2100 C   0  0  0  0  0  1  0  0  0  0  0  0
  187.8430  175.4160  141.0280 C   0  0  0  0  0  2  0  0  0  0  0  0
  188.0810  174.4090  138.7090 C   0  0  0  0  0  3  0  0  0  0  0  0
  192.4040  171.7260  139.2140 C   0  0  0  0  0  2  0  0  0  0  0  0
  192.0400  172.5990  144.6550 N   0  0  1  0  0  0  0  0  0  0  0  0
  190.6540  172.9370  145.0030 C   0  0  0  0  0  2  0  0  0  0  0  0
  188.5450  174.5410  140.0430 C   0  0  0  0  0  0  0  0  0  0  0  0
  191.5570  172.9700  141.3140 N   0  0  0  0  0  0  0  0  0  0  0  0
  190.8280  172.2510  137.3140 O   0  0  0  0  0  0  0  0  0  0  0  0
  188.8660  175.2030  142.9890 C   0  0  2  0  0  3  0  0  0  0  0  0
  192.6010  170.6550  136.9670 C   0  0  0  0  0  1  0  0  0  0  0  0
  192.3090  171.8440  143.4150 C   0  0  0  0  0  2  0  0  0  0  0  0
  192.7390  174.8110  145.1650 O   0  0  0  0  0  1  0  0  0  0  0  0
  192.6920  172.7040  142.1950 C   0  0  2  0  0  3  0  0  0  0  0  0
  188.7860  176.0320  141.8620 O   0  0  0  0  0  0  0  0  0  0  0  0
  190.0390  176.7870  144.5600 C   0  0  0  0  0  3  0  0  0  0  0  0
  188.9030  176.0320  144.2340 C   0  0  0  0  0  0  0  0  0  0  0  0
  187.8000  176.0320  145.0940 C   0  0  0  0  0  3  0  0  0  0  0  0
  186.7570  176.7860  147.1000 F   0  0  0  0  0  0  0  0  0  0  0  0
  188.9600  177.5410  146.5920 C   0  0  0  0  0  3  0  0  0  0  0  0
  187.8270  176.7870  146.2700 C   0  0  0  0  0  0  0  0  0  0  0  0
  190.0660  177.5410  145.7370 C   0  0  0  0  0  3  0  0  0  0  0  0
  196.5320  174.7870  144.3770 C   0  0  0  0  0  1  0  0  0  0  0  0
  195.4740  175.0020  143.4050 N   0  0  0  0  0  2  0  0  0  0  0  0
  1  4  1  0  0  0  0
  2 17  1  0  0  0  0
  3  7  2  0  0  0  0
  4 37  1  1  0  0  0
  4 12  1  0  0  0  0
  5 19  1  0  0  0  0
  6  9  1  0  0  0  0
  7 10  1  0  0  0  0
  8 26  1  6  0  0  0
  9 13  2  0  0  0  0
  9  3  1  0  0  0  0
 10 23  1  0  0  0  0
 10  5  1  1  0  0  0
 11  6  2  0  0  0  0
 11 16  1  0  0  0  0
 12  8  1  0  0  0  0
 13 21  1  0  0  0  0
 14  2  1  0  0  0  0
 15 28  1  0  0  0  0
 16 20  2  0  0  0  0
 17 13  1  0  0  0  0
 18 25  1  6  0  0  0
 18 19  1  0  0  0  0
 18  8  1  0  0  0  0
 20  3  1  0  0  0  0
 20 15  1  0  0  0  0
 21  7  1  0  0  0  0
 21 27  1  0  0  0  0
 22  2  1  0  0  0  0
 22  6  1  0  0  0  0
 23 30  1  1  0  0  0
 24  2  1  0  0  0  0
 27  1  1  1  0  0  0
 27 25  1  0  0  0  0
 28 23  1  0  0  0  0
 29 35  1  0  0  0  0
 30 29  2  0  0  0  0
 30 31  1  0  0  0  0
 31 34  2  0  0  0  0
 34 33  1  0  0  0  0
 34 32  1  0  0  0  0
 35 33  2  0  0  0  0
 37 36  1  0  0  0  0
M  END
>  <MODEL>
7

>  <REMARK>
 VINA RESULT:      -7.3      2.831      6.925
  Name = 
  2 active torsions:
  status: ('A' for Active; 'I' for Inactive)
    1  A    between atoms: C_4  and  N_37
    2  A    between atoms: C_23  and  C_30
                            x       y       z     vdW  Elec       q    Type
                         _______ _______ _______ _____ _____    ______ ____

>  <TORSDO>
F 2

$$$$
=
 OpenBabel11112417103D

 37 43  0  0  1  0  0  0  0  0999 V2000
  192.9760  176.1840  144.8650 C   0  0  0  0  0  2  0  0  0  0  0  0
  188.2130  177.1890  142.5730 C   0  0  0  0  0  0  0  0  0  0  0  0
  190.3400  173.6210  142.6360 C   0  0  0  0  0  0  0  0  0  0  0  0
  193.9930  177.1990  145.3870 C   0  0  2  0  0  3  0  0  0  0  0  0
  193.7600  173.5110  141.8930 C   0  0  0  0  0  2  0  0  0  0  0  0
  188.2540  174.7300  142.1730 C   0  0  0  0  0  0  0  0  0  0  0  0
  191.6220  174.0750  142.9430 C   0  0  0  0  0  0  0  0  0  0  0  0
  195.6910  175.6960  144.1330 C   0  0  2  0  0  3  0  0  0  0  0  0
  189.5860  174.7320  142.4740 C   0  0  0  0  0  0  0  0  0  0  0  0
  192.8720  173.2420  143.0960 C   0  0  1  0  0  3  0  0  0  0  0  0
  187.6260  173.4820  142.0100 C   0  0  0  0  0  3  0  0  0  0  0  0
  195.3820  177.0720  144.7420 C   0  0  0  0  0  2  0  0  0  0  0  0
  190.3380  175.8260  142.6810 C   0  0  0  0  0  0  0  0  0  0  0  0
  187.8050  177.3620  144.0240 C   0  0  0  0  0  1  0  0  0  0  0  0
  190.5440  171.1200  142.8280 C   0  0  0  0  0  2  0  0  0  0  0  0
  188.3800  172.2910  142.2030 C   0  0  0  0  0  3  0  0  0  0  0  0
  189.7720  177.2030  142.4910 C   0  0  0  0  0  2  0  0  0  0  0  0
  195.0010  175.4620  142.8530 N   0  0  1  0  0  0  0  0  0  0  0  0
  195.0980  174.0960  142.3210 C   0  0  0  0  0  2  0  0  0  0  0  0
  189.7550  172.3550  142.5440 C   0  0  0  0  0  0  0  0  0  0  0  0
  191.6060  175.4460  142.9640 N   0  0  0  0  0  0  0  0  0  0  0  0
  187.6120  175.9710  142.0600 O   0  0  0  0  0  0  0  0  0  0  0  0
  192.6530  171.7190  143.1930 C   0  0  2  0  0  3  0  0  0  0  0  0
  187.6780  178.3660  141.7880 C   0  0  0  0  0  1  0  0  0  0  0  0
  193.8830  176.3250  142.4240 C   0  0  0  0  0  2  0  0  0  0  0  0
  195.4360  174.6680  145.0490 O   0  0  0  0  0  1  0  0  0  0  0  0
  192.6740  176.3540  143.3780 C   0  0  2  0  0  3  0  0  0  0  0  0
  191.4650  171.3790  143.8530 O   0  0  0  0  0  0  0  0  0  0  0  0
  194.1980  171.4150  145.1620 C   0  0  0  0  0  3  0  0  0  0  0  0
  193.8180  171.0580  143.8600 C   0  0  0  0  0  0  0  0  0  0  0  0
  194.5500  170.0910  143.1640 C   0  0  0  0  0  3  0  0  0  0  0  0
  196.3580  168.5400  143.0910 F   0  0  0  0  0  0  0  0  0  0  0  0
  196.0280  169.8330  145.0660 C   0  0  0  0  0  3  0  0  0  0  0  0
  195.6520  169.4770  143.7660 C   0  0  0  0  0  0  0  0  0  0  0  0
  195.3010  170.8020  145.7630 C   0  0  0  0  0  3  0  0  0  0  0  0
  192.9080  176.4150  147.3030 C   0  0  0  0  0  1  0  0  0  0  0  0
  194.1190  177.0600  146.8280 N   0  0  0  0  0  2  0  0  0  0  0  0
  1  4  1  0  0  0  0
  2 14  1  0  0  0  0
  3  7  2  0  0  0  0
  4 37  1  1  0  0  0
  5 19  1  0  0  0  0
  6  9  1  0  0  0  0
  7 21  1  0  0  0  0
  7 10  1  0  0  0  0
  8 12  1  0  0  0  0
  8 26  1  1  0  0  0
  9  3  1  0  0  0  0
  9 13  2  0  0  0  0
 10  5  1  6  0  0  0
 10 23  1  0  0  0  0
 11  6  2  0  0  0  0
 11 16  1  0  0  0  0
 12  4  1  0  0  0  0
 13 21  1  0  0  0  0
 15 28  1  0  0  0  0
 16 20  2  0  0  0  0
 17  2  1  0  0  0  0
 17 13  1  0  0  0  0
 18 19  1  1  0  0  0
 18  8  1  0  0  0  0
 20  3  1  0  0  0  0
 20 15  1  0  0  0  0
 21 27  1  0  0  0  0
 22  6  1  0  0  0  0
 22  2  1  0  0  0  0
 23 28  1  0  0  0  0
 23 30  1  1  0  0  0
 24  2  1  0  0  0  0
 25 18  1  0  0  0  0
 27 25  1  6  0  0  0
 27  1  1  0  0  0  0
 29 35  1  0  0  0  0
 30 29  2  0  0  0  0
 31 34  2  0  0  0  0
 31 30  1  0  0  0  0
 32 34  1  0  0  0  0
 33 35  2  0  0  0  0
 34 33  1  0  0  0  0
 37 36  1  0  0  0  0
M  END
>  <MODEL>
8

>  <REMARK>
 VINA RESULT:      -7.2      2.603      5.105
  Name = 
  2 active torsions:
  status: ('A' for Active; 'I' for Inactive)
    1  A    between atoms: C_4  and  N_37
    2  A    between atoms: C_23  and  C_30
                            x       y       z     vdW  Elec       q    Type
                         _______ _______ _______ _____ _____    ______ ____

>  <TORSDO>
F 2

$$$$
=
 OpenBabel11112417103D

 37 43  0  0  1  0  0  0  0  0999 V2000
  189.3720  174.5050  142.6080 C   0  0  0  0  0  2  0  0  0  0  0  0
  194.7340  174.1130  142.4120 C   0  0  0  0  0  0  0  0  0  0  0  0
  192.3970  176.0920  145.2190 C   0  0  0  0  0  0  0  0  0  0  0  0
  188.3710  174.1720  141.5010 C   0  0  2  0  0  3  0  0  0  0  0  0
  189.7750  178.2070  144.2600 C   0  0  0  0  0  2  0  0  0  0  0  0
  194.5720  175.2490  144.6230 C   0  0  0  0  0  0  0  0  0  0  0  0
  191.1970  176.2310  144.5230 C   0  0  0  0  0  0  0  0  0  0  0  0
  187.3070  176.4310  142.1920 C   0  0  2  0  0  3  0  0  0  0  0  0
  193.2720  175.5580  144.3380 C   0  0  0  0  0  0  0  0  0  0  0  0
  189.9310  176.8950  145.0110 C   0  0  1  0  0  3  0  0  0  0  0  0
  195.0330  175.5170  145.9250 C   0  0  0  0  0  3  0  0  0  0  0  0
  187.4610  175.3480  141.1150 C   0  0  0  0  0  2  0  0  0  0  0  0
  192.6630  175.3540  143.1580 C   0  0  0  0  0  0  0  0  0  0  0  0
  194.4120  172.6540  142.6750 C   0  0  0  0  0  1  0  0  0  0  0  0
  191.8030  176.8080  147.5570 C   0  0  0  0  0  2  0  0  0  0  0  0
  194.1310  176.0510  146.8880 C   0  0  0  0  0  3  0  0  0  0  0  0
  193.4240  174.8390  141.9710 C   0  0  0  0  0  2  0  0  0  0  0  0
  188.4910  177.3000  142.3120 N   0  0  1  0  0  0  0  0  0  0  0  0
  188.4860  178.2250  143.4530 C   0  0  0  0  0  2  0  0  0  0  0  0
  192.7840  176.3240  146.5420 C   0  0  0  0  0  0  0  0  0  0  0  0
  191.3780  175.7720  143.2440 N   0  0  0  0  0  0  0  0  0  0  0  0
  195.3440  174.6790  143.6010 O   0  0  0  0  0  0  0  0  0  0  0  0
  189.8770  177.2020  146.5210 C   0  0  2  0  0  3  0  0  0  0  0  0
  195.7290  174.1800  141.2740 C   0  0  0  0  0  1  0  0  0  0  0  0
  189.7790  176.9170  141.7010 C   0  0  0  0  0  2  0  0  0  0  0  0
  186.9540  175.8720  143.4260 O   0  0  0  0  0  1  0  0  0  0  0  0
  190.3710  175.5850  142.2010 C   0  0  2  0  0  3  0  0  0  0  0  0
  190.5450  176.2470  147.2970 O   0  0  0  0  0  0  0  0  0  0  0  0
  187.5660  176.2630  146.8880 C   0  0  0  0  0  3  0  0  0  0  0  0
  188.4600  177.3400  146.9810 C   0  0  0  0  0  0  0  0  0  0  0  0
  188.0190  178.5660  147.4890 C   0  0  0  0  0  3  0  0  0  0  0  0
  186.2680  179.9040  148.4000 F   0  0  0  0  0  0  0  0  0  0  0  0
  185.8040  177.6400  147.8150 C   0  0  0  0  0  3  0  0  0  0  0  0
  186.6930  178.7160  147.9070 C   0  0  0  0  0  0  0  0  0  0  0  0
  186.2410  176.4140  147.3050 C   0  0  0  0  0  3  0  0  0  0  0  0
  188.3750  172.2030  142.7620 C   0  0  0  0  0  1  0  0  0  0  0  0
  187.5490  173.0470  141.9150 N   0  0  0  0  0  2  0  0  0  0  0  0
  2 14  1  0  0  0  0
  2 22  1  0  0  0  0
  3 20  1  0  0  0  0
  4 37  1  1  0  0  0
  4  1  1  0  0  0  0
  6 11  2  0  0  0  0
  7 10  1  0  0  0  0
  7  3  2  0  0  0  0
  8 18  1  0  0  0  0
  8 26  1  1  0  0  0
  9  6  1  0  0  0  0
  9  3  1  0  0  0  0
 10  5  1  6  0  0  0
 10 23  1  0  0  0  0
 11 16  1  0  0  0  0
 12  4  1  0  0  0  0
 12  8  1  0  0  0  0
 13 21  1  0  0  0  0
 13  9  2  0  0  0  0
 17  2  1  0  0  0  0
 17 13  1  0  0  0  0
 18 25  1  1  0  0  0
 18 19  1  0  0  0  0
 19  5  1  0  0  0  0
 20 16  2  0  0  0  0
 20 15  1  0  0  0  0
 21  7  1  0  0  0  0
 22  6  1  0  0  0  0
 23 30  1  1  0  0  0
 23 28  1  0  0  0  0
 24  2  1  0  0  0  0
 27 25  1  1  0  0  0
 27  1  1  0  0  0  0
 27 21  1  0  0  0  0
 28 15  1  0  0  0  0
 29 30  2  0  0  0  0
 29 35  1  0  0  0  0
 30 31  1  0  0  0  0
 31 34  2  0  0  0  0
 33 34  1  0  0  0  0
 34 32  1  0  0  0  0
 35 33  2  0  0  0  0
 37 36  1  0  0  0  0
M  END
>  <MODEL>
9

>  <REMARK>
 VINA RESULT:      -7.2      3.242      6.861
  Name = 
  2 active torsions:
  status: ('A' for Active; 'I' for Inactive)
    1  A    between atoms: C_4  and  N_37
    2  A    between atoms: C_23  and  C_30
                            x       y       z     vdW  Elec       q    Type
                         _______ _______ _______ _____ _____    ______ ____

>  <TORSDO>
F 2

$$$$
