=
 OpenBabel11112416283D

 32 37  0  0  1  0  0  0  0  0999 V2000
  191.3270  174.1990  144.4970 C   0  0  0  0  0  2  0  0  0  0  0  0
  187.8040  177.7360  143.2590 C   0  0  1  0  0  3  0  0  0  0  0  0
  186.1790  178.0880  147.9660 C   0  0  0  0  0  3  0  0  0  0  0  0
  184.8960  178.4100  147.5170 C   0  0  0  0  0  3  0  0  0  0  0  0
  185.9960  177.6390  141.4340 C   0  0  0  0  0  0  0  0  0  0  0  0
  184.5960  177.8770  141.0880 C   0  0  0  0  0  0  0  0  0  0  0  0
  190.0960  176.7440  143.1350 C   0  0  1  0  0  3  0  0  0  0  0  0
  189.4240  177.7680  145.1690 C   0  0  0  0  0  2  0  0  0  0  0  0
  182.5380  178.2460  141.3840 C   0  0  0  0  0  0  0  0  0  0  0  0
  191.5070  176.6900  145.0910 C   0  0  0  0  0  2  0  0  0  0  0  0
  187.2090  177.8800  147.0460 C   0  0  0  0  0  3  0  0  0  0  0  0
  188.0330  177.7680  144.7160 N   0  0  0  0  0  0  0  0  0  0  0  0
  186.9680  177.9850  145.6660 C   0  0  0  0  0  0  0  0  0  0  0  0
  185.4320  178.4790  143.7480 C   0  0  2  0  0  3  0  0  0  0  0  0
  182.7170  178.0200  140.0630 N   0  0  0  0  0  0  0  0  0  0  0  0
  190.9060  174.2960  143.0220 C   0  0  0  0  0  2  0  0  0  0  0  0
  190.1290  176.6220  144.6030 N   0  0  2  0  0  0  0  0  0  0  0  0
  184.0150  177.7840  139.8750 N   0  0  0  0  0  0  0  0  0  0  0  0
  190.9780  175.7060  142.4220 C   0  0  0  0  0  2  0  0  0  0  0  0
  192.2440  175.3440  144.9570 C   0  0  1  0  0  3  0  0  0  0  0  0
  184.6430  178.5190  146.1480 C   0  0  0  0  0  3  0  0  0  0  0  0
  185.6670  178.2870  145.2160 C   0  0  0  0  0  0  0  0  0  0  0  0
  184.0150  178.3430  143.3850 N   0  0  0  0  0  2  0  0  0  0  0  0
  188.6570  176.6250  142.6420 C   0  0  0  0  0  2  0  0  0  0  0  0
  186.8600  177.4570  140.5350 O   0  0  0  0  0  0  0  0  0  0  0  0
  181.2280  178.5600  142.0170 C   0  0  0  0  0  1  0  0  0  0  0  0
  186.3190  177.5200  142.9160 C   0  0  2  0  0  3  0  0  0  0  0  0
  183.7040  178.1630  142.0310 N   0  0  0  0  0  0  0  0  0  0  0  0
  192.8940  175.0010  146.2860 C   0  0  0  0  0  2  0  0  0  0  0  0
  194.1910  175.7170  146.4430 C   0  0  0  0  0  0  0  0  0  0  0  0
  194.2120  177.0190  146.9250 O   0  0  0  0  0  1  0  0  0  0  0  0
  195.2710  175.1320  146.1660 O   0  0  0  0  0  0  0  0  0  0  0  0
  1 20  1  0  0  0  0
  2 24  1  6  0  0  0
  2 12  1  0  0  0  0
  4  3  1  0  0  0  0
  6  5  1  0  0  0  0
  6 28  1  0  0  0  0
  7 19  1  6  0  0  0
  7 17  1  0  0  0  0
  9 26  1  0  0  0  0
  9 28  1  0  0  0  0
 11  3  2  0  0  0  0
 12  8  1  0  0  0  0
 12 13  1  0  0  0  0
 13 11  1  0  0  0  0
 14 23  1  1  0  0  0
 14 22  1  0  0  0  0
 15  9  2  0  0  0  0
 16  1  1  0  0  0  0
 17 10  1  1  0  0  0
 17  8  1  0  0  0  0
 18 15  1  0  0  0  0
 18  6  2  0  0  0  0
 19 16  1  0  0  0  0
 20 10  1  0  0  0  0
 20 29  1  1  0  0  0
 21  4  2  0  0  0  0
 22 13  2  0  0  0  0
 22 21  1  0  0  0  0
 24  7  1  0  0  0  0
 25  5  2  0  0  0  0
 27  5  1  6  0  0  0
 27  2  1  0  0  0  0
 27 14  1  0  0  0  0
 28 23  1  0  0  0  0
 29 30  1  0  0  0  0
 30 31  1  0  0  0  0
 32 30  2  0  0  0  0
M  END
>  <MODEL>
1

>  <REMARK>
 VINA RESULT:      -9.8      0.000      0.000
  Name = 
  2 active torsions:
  status: ('A' for Active; 'I' for Inactive)
    1  A    between atoms: C_20  and  C_29
    2  A    between atoms: C_29  and  C_30
                            x       y       z     vdW  Elec       q    Type
                         _______ _______ _______ _____ _____    ______ ____

>  <TORSDO>
F 2

$$$$
=
 OpenBabel11112416283D

 32 37  0  0  1  0  0  0  0  0999 V2000
  195.0080  176.3670  144.9940 C   0  0  0  0  0  2  0  0  0  0  0  0
  189.9190  175.6290  144.8660 C   0  0  1  0  0  3  0  0  0  0  0  0
  190.0920  173.6820  140.2730 C   0  0  0  0  0  3  0  0  0  0  0  0
  188.8090  174.1610  140.0030 C   0  0  0  0  0  3  0  0  0  0  0  0
  188.0350  177.3190  145.3170 C   0  0  0  0  0  0  0  0  0  0  0  0
  186.7480  177.8590  144.8810 C   0  0  0  0  0  0  0  0  0  0  0  0
  192.1490  175.5530  145.9960 C   0  0  1  0  0  3  0  0  0  0  0  0
  191.7330  174.0230  144.2290 C   0  0  0  0  0  2  0  0  0  0  0  0
  185.1160  178.2410  143.5970 C   0  0  0  0  0  0  0  0  0  0  0  0
  193.8740  174.0730  145.1880 C   0  0  0  0  0  2  0  0  0  0  0  0
  190.6650  173.8890  141.5290 C   0  0  0  0  0  3  0  0  0  0  0  0
  190.5570  174.7960  143.8280 N   0  0  0  0  0  0  0  0  0  0  0  0
  189.9630  174.5820  142.5300 C   0  0  0  0  0  0  0  0  0  0  0  0
  187.9000  175.7520  143.3400 C   0  0  2  0  0  3  0  0  0  0  0  0
  184.9380  178.9960  144.7050 N   0  0  0  0  0  0  0  0  0  0  0  0
  194.1470  177.1860  145.9700 C   0  0  0  0  0  2  0  0  0  0  0  0
  192.7360  174.9110  144.8070 N   0  0  2  0  0  0  0  0  0  0  0  0
  185.9700  178.7580  145.5140 N   0  0  0  0  0  0  0  0  0  0  0  0
  193.1690  176.3580  146.8160 C   0  0  0  0  0  2  0  0  0  0  0  0
  195.1620  174.8900  145.3910 C   0  0  1  0  0  3  0  0  0  0  0  0
  188.1010  174.8510  140.9880 C   0  0  0  0  0  3  0  0  0  0  0  0
  188.6780  175.0850  142.2460 C   0  0  0  0  0  0  0  0  0  0  0  0
  186.8160  176.5970  142.8230 N   0  0  0  0  0  2  0  0  0  0  0  0
  190.9950  176.4570  145.5750 C   0  0  0  0  0  2  0  0  0  0  0  0
  188.4760  177.5600  146.4720 O   0  0  0  0  0  0  0  0  0  0  0  0
  184.1790  178.2050  142.4410 C   0  0  0  0  0  1  0  0  0  0  0  0
  188.8390  176.5530  144.2760 C   0  0  2  0  0  3  0  0  0  0  0  0
  186.2390  177.5250  143.6980 N   0  0  0  0  0  0  0  0  0  0  0  0
  196.2880  174.2450  144.6010 C   0  0  0  0  0  2  0  0  0  0  0  0
  197.0550  173.2920  145.4530 C   0  0  0  0  0  0  0  0  0  0  0  0
  197.7020  172.2090  144.8740 O   0  0  0  0  0  0  0  0  0  0  0  0
  197.1420  173.4860  146.6940 O   0  0  0  0  0  1  0  0  0  0  0  0
  1 20  1  0  0  0  0
  1 16  1  0  0  0  0
  2 24  1  6  0  0  0
  3 11  1  0  0  0  0
  4  3  2  0  0  0  0
  4 21  1  0  0  0  0
  5 25  2  0  0  0  0
  6  5  1  0  0  0  0
  6 18  2  0  0  0  0
  7 24  1  6  0  0  0
  7 19  1  0  0  0  0
  9 28  1  0  0  0  0
  9 15  2  0  0  0  0
 10 20  1  0  0  0  0
 11 13  2  0  0  0  0
 12  8  1  0  0  0  0
 12  2  1  0  0  0  0
 13 12  1  0  0  0  0
 14 22  1  6  0  0  0
 14 27  1  0  0  0  0
 15 18  1  0  0  0  0
 16 19  1  0  0  0  0
 17  8  1  1  0  0  0
 17 10  1  0  0  0  0
 17  7  1  0  0  0  0
 20 29  1  6  0  0  0
 21 22  2  0  0  0  0
 22 13  1  0  0  0  0
 23 14  1  0  0  0  0
 23 28  1  0  0  0  0
 26  9  1  0  0  0  0
 27  2  1  0  0  0  0
 27  5  1  1  0  0  0
 28  6  1  0  0  0  0
 29 30  1  0  0  0  0
 30 32  1  0  0  0  0
 31 30  2  0  0  0  0
M  END
>  <MODEL>
2

>  <REMARK>
 VINA RESULT:      -8.7      2.524      5.032
  Name = 
  2 active torsions:
  status: ('A' for Active; 'I' for Inactive)
    1  A    between atoms: C_20  and  C_29
    2  A    between atoms: C_29  and  C_30
                            x       y       z     vdW  Elec       q    Type
                         _______ _______ _______ _____ _____    ______ ____

>  <TORSDO>
F 2

$$$$
=
 OpenBabel11112416283D

 32 37  0  0  1  0  0  0  0  0999 V2000
  183.7450  177.8700  142.7380 C   0  0  0  0  0  2  0  0  0  0  0  0
  188.8250  177.0660  142.7270 C   0  0  1  0  0  3  0  0  0  0  0  0
  188.4000  172.9960  139.8670 C   0  0  0  0  0  3  0  0  0  0  0  0
  189.5360  172.4410  140.4590 C   0  0  0  0  0  3  0  0  0  0  0  0
  190.4320  176.8900  144.7260 C   0  0  0  0  0  0  0  0  0  0  0  0
  191.5400  176.1620  145.3430 C   0  0  0  0  0  0  0  0  0  0  0  0
  186.8070  178.5330  142.5680 C   0  0  1  0  0  3  0  0  0  0  0  0
  187.2490  177.0340  140.7810 C   0  0  0  0  0  2  0  0  0  0  0  0
  192.9030  174.5850  145.6820 C   0  0  0  0  0  0  0  0  0  0  0  0
  185.2730  178.2970  140.7210 C   0  0  0  0  0  2  0  0  0  0  0  0
  187.9670  174.2690  140.2460 C   0  0  0  0  0  3  0  0  0  0  0  0
  188.2120  176.3150  141.6150 N   0  0  0  0  0  0  0  0  0  0  0  0
  188.6620  175.0000  141.2240 C   0  0  0  0  0  0  0  0  0  0  0  0
  190.5790  175.2400  142.8200 C   0  0  2  0  0  3  0  0  0  0  0  0
  193.0890  175.4930  146.6670 N   0  0  0  0  0  0  0  0  0  0  0  0
  184.5700  178.5280  143.8560 C   0  0  0  0  0  2  0  0  0  0  0  0
  186.1900  177.5920  141.6160 N   0  0  2  0  0  0  0  0  0  0  0  0
  192.2260  176.4870  146.4560 N   0  0  0  0  0  0  0  0  0  0  0  0
  185.7770  179.3430  143.3710 C   0  0  0  0  0  2  0  0  0  0  0  0
  183.9000  178.5510  141.3690 C   0  0  1  0  0  3  0  0  0  0  0  0
  190.2360  173.1570  141.4330 C   0  0  0  0  0  3  0  0  0  0  0  0
  189.7940  174.4260  141.8360 C   0  0  0  0  0  0  0  0  0  0  0  0
  191.4260  174.4090  143.6860 N   0  0  0  0  0  2  0  0  0  0  0  0
  187.7240  177.7740  143.5210 C   0  0  0  0  0  2  0  0  0  0  0  0
  190.1080  178.0370  145.1350 O   0  0  0  0  0  0  0  0  0  0  0  0
  193.6750  173.3210  145.5410 C   0  0  0  0  0  1  0  0  0  0  0  0
  189.6450  176.1510  143.6550 C   0  0  2  0  0  3  0  0  0  0  0  0
  191.9420  174.9950  144.8490 N   0  0  0  0  0  0  0  0  0  0  0  0
  182.8090  178.0840  140.4190 C   0  0  0  0  0  2  0  0  0  0  0  0
  181.4750  178.5830  140.8580 C   0  0  0  0  0  0  0  0  0  0  0  0
  180.6170  177.7470  141.5590 O   0  0  0  0  0  1  0  0  0  0  0  0
  181.1370  179.7720  140.6170 O   0  0  0  0  0  0  0  0  0  0  0  0
  1 16  1  0  0  0  0
  2 24  1  1  0  0  0
  2 27  1  0  0  0  0
  3 11  2  0  0  0  0
  3  4  1  0  0  0  0
  4 21  2  0  0  0  0
  5 25  2  0  0  0  0
  5  6  1  0  0  0  0
  6 18  2  0  0  0  0
  7 19  1  1  0  0  0
  7 24  1  0  0  0  0
  8 12  1  0  0  0  0
  8 17  1  0  0  0  0
  9 15  2  0  0  0  0
 10 20  1  0  0  0  0
 11 13  1  0  0  0  0
 12  2  1  0  0  0  0
 13 12  1  0  0  0  0
 13 22  2  0  0  0  0
 14 22  1  6  0  0  0
 14 27  1  0  0  0  0
 14 23  1  0  0  0  0
 17 10  1  6  0  0  0
 17  7  1  0  0  0  0
 18 15  1  0  0  0  0
 19 16  1  0  0  0  0
 20 29  1  6  0  0  0
 20  1  1  0  0  0  0
 21 22  1  0  0  0  0
 23 28  1  0  0  0  0
 26  9  1  0  0  0  0
 27  5  1  1  0  0  0
 28  6  1  0  0  0  0
 28  9  1  0  0  0  0
 29 30  1  0  0  0  0
 30 31  1  0  0  0  0
 32 30  2  0  0  0  0
M  END
>  <MODEL>
3

>  <REMARK>
 VINA RESULT:      -8.5      2.666      8.989
  Name = 
  2 active torsions:
  status: ('A' for Active; 'I' for Inactive)
    1  A    between atoms: C_20  and  C_29
    2  A    between atoms: C_29  and  C_30
                            x       y       z     vdW  Elec       q    Type
                         _______ _______ _______ _____ _____    ______ ____

>  <TORSDO>
F 2

$$$$
=
 OpenBabel11112416283D

 32 37  0  0  1  0  0  0  0  0999 V2000
  194.9610  175.9170  145.3500 C   0  0  0  0  0  2  0  0  0  0  0  0
  189.9010  175.5070  144.5210 C   0  0  1  0  0  3  0  0  0  0  0  0
  190.5780  173.1460  140.1750 C   0  0  0  0  0  3  0  0  0  0  0  0
  189.3880  173.6820  139.6790 C   0  0  0  0  0  3  0  0  0  0  0  0
  188.1100  177.3510  144.5480 C   0  0  0  0  0  0  0  0  0  0  0  0
  186.9450  177.9330  143.8830 C   0  0  0  0  0  0  0  0  0  0  0  0
  191.9320  175.3860  145.9750 C   0  0  1  0  0  3  0  0  0  0  0  0
  191.6550  173.7330  144.2920 C   0  0  0  0  0  2  0  0  0  0  0  0
  185.5490  178.3050  142.3430 C   0  0  0  0  0  0  0  0  0  0  0  0
  193.6340  173.7290  145.5540 C   0  0  0  0  0  2  0  0  0  0  0  0
  190.9790  173.4280  141.4830 C   0  0  0  0  0  3  0  0  0  0  0  0
  190.6140  174.5440  143.6600 N   0  0  0  0  0  0  0  0  0  0  0  0
  190.1970  174.2530  142.3090 C   0  0  0  0  0  0  0  0  0  0  0  0
  188.1380  175.6240  142.7060 C   0  0  2  0  0  3  0  0  0  0  0  0
  185.2740  179.1670  143.3480 N   0  0  0  0  0  0  0  0  0  0  0  0
  194.0360  176.8750  146.1180 C   0  0  0  0  0  2  0  0  0  0  0  0
  192.6320  174.6020  144.9420 N   0  0  2  0  0  0  0  0  0  0  0  0
  186.1570  178.9350  144.3190 N   0  0  0  0  0  0  0  0  0  0  0  0
  192.8850  176.1940  146.8710 C   0  0  0  0  0  2  0  0  0  0  0  0
  194.9400  174.4750  145.8830 C   0  0  1  0  0  3  0  0  0  0  0  0
  188.6020  174.5040  140.4890 C   0  0  0  0  0  3  0  0  0  0  0  0
  189.0100  174.8110  141.7970 C   0  0  0  0  0  0  0  0  0  0  0  0
  187.2090  176.4890  141.9660 N   0  0  0  0  0  2  0  0  0  0  0  0
  190.9250  176.3220  145.3150 C   0  0  0  0  0  2  0  0  0  0  0  0
  188.3990  177.6660  145.7340 O   0  0  0  0  0  0  0  0  0  0  0  0
  184.7880  178.2260  141.0660 C   0  0  0  0  0  1  0  0  0  0  0  0
  188.9930  176.4430  143.7050 C   0  0  2  0  0  3  0  0  0  0  0  0
  186.5870  177.5280  142.6680 N   0  0  0  0  0  0  0  0  0  0  0  0
  196.1140  173.6880  145.3240 C   0  0  0  0  0  2  0  0  0  0  0  0
  196.5020  174.1990  143.9780 C   0  0  0  0  0  0  0  0  0  0  0  0
  197.6280  174.9990  143.8380 O   0  0  0  0  0  1  0  0  0  0  0  0
  195.8260  173.8810  142.9650 O   0  0  0  0  0  0  0  0  0  0  0  0
  1 20  1  0  0  0  0
  1 16  1  0  0  0  0
  2 24  1  6  0  0  0
  3 11  1  0  0  0  0
  4  3  2  0  0  0  0
  4 21  1  0  0  0  0
  5 25  2  0  0  0  0
  6 18  2  0  0  0  0
  6  5  1  0  0  0  0
  7 24  1  6  0  0  0
  7 19  1  0  0  0  0
  9 28  1  0  0  0  0
  9 15  2  0  0  0  0
 10 20  1  0  0  0  0
 11 13  2  0  0  0  0
 12  8  1  0  0  0  0
 12  2  1  0  0  0  0
 13 12  1  0  0  0  0
 14 22  1  6  0  0  0
 14 27  1  0  0  0  0
 15 18  1  0  0  0  0
 16 19  1  0  0  0  0
 17  8  1  1  0  0  0
 17 10  1  0  0  0  0
 17  7  1  0  0  0  0
 20 29  1  6  0  0  0
 21 22  2  0  0  0  0
 22 13  1  0  0  0  0
 23 28  1  0  0  0  0
 23 14  1  0  0  0  0
 26  9  1  0  0  0  0
 27  2  1  0  0  0  0
 27  5  1  1  0  0  0
 28  6  1  0  0  0  0
 30 29  1  0  0  0  0
 31 30  1  0  0  0  0
 32 30  2  0  0  0  0
M  END
>  <MODEL>
4

>  <REMARK>
 VINA RESULT:      -8.3      2.584      5.073
  Name = 
  2 active torsions:
  status: ('A' for Active; 'I' for Inactive)
    1  A    between atoms: C_20  and  C_29
    2  A    between atoms: C_29  and  C_30
                            x       y       z     vdW  Elec       q    Type
                         _______ _______ _______ _____ _____    ______ ____

>  <TORSDO>
F 2

$$$$
=
 OpenBabel11112416283D

 32 37  0  0  1  0  0  0  0  0999 V2000
  191.4680  173.2000  143.7350 C   0  0  0  0  0  2  0  0  0  0  0  0
  188.1830  177.1200  143.1960 C   0  0  1  0  0  3  0  0  0  0  0  0
  186.5950  176.7310  147.9120 C   0  0  0  0  0  3  0  0  0  0  0  0
  185.3360  177.2100  147.5460 C   0  0  0  0  0  3  0  0  0  0  0  0
  186.3680  177.4660  141.4080 C   0  0  0  0  0  0  0  0  0  0  0  0
  184.9850  177.8530  141.1290 C   0  0  0  0  0  0  0  0  0  0  0  0
  190.4040  176.0200  142.8640 C   0  0  1  0  0  3  0  0  0  0  0  0
  189.8060  176.7070  145.0580 C   0  0  0  0  0  2  0  0  0  0  0  0
  182.9570  178.2940  141.5150 C   0  0  0  0  0  0  0  0  0  0  0  0
  191.8130  175.5270  144.7590 C   0  0  0  0  0  2  0  0  0  0  0  0
  187.6070  176.6240  146.9550 C   0  0  0  0  0  3  0  0  0  0  0  0
  188.4170  176.8770  144.6320 N   0  0  0  0  0  0  0  0  0  0  0  0
  187.3700  176.9900  145.6200 C   0  0  0  0  0  0  0  0  0  0  0  0
  185.8660  177.9150  143.8420 C   0  0  2  0  0  3  0  0  0  0  0  0
  183.1180  178.2970  140.1730 N   0  0  0  0  0  0  0  0  0  0  0  0
  191.0510  173.5850  142.3060 C   0  0  0  0  0  2  0  0  0  0  0  0
  190.4330  175.6370  144.2870 N   0  0  2  0  0  0  0  0  0  0  0  0
  184.3970  178.0140  139.9280 N   0  0  0  0  0  0  0  0  0  0  0  0
  191.2140  175.0720  141.9660 C   0  0  0  0  0  2  0  0  0  0  0  0
  192.4590  174.1830  144.3780 C   0  0  1  0  0  3  0  0  0  0  0  0
  185.0880  177.5770  146.2220 C   0  0  0  0  0  3  0  0  0  0  0  0
  186.0910  177.4490  145.2490 C   0  0  0  0  0  0  0  0  0  0  0  0
  184.4420  177.9370  143.4810 N   0  0  0  0  0  2  0  0  0  0  0  0
  188.9590  176.0840  142.3790 C   0  0  0  0  0  2  0  0  0  0  0  0
  187.2160  177.3930  140.4790 O   0  0  0  0  0  0  0  0  0  0  0  0
  181.6720  178.5740  142.2130 C   0  0  0  0  0  1  0  0  0  0  0  0
  186.6860  177.0650  142.8400 C   0  0  2  0  0  3  0  0  0  0  0  0
  184.1170  178.0230  142.1210 N   0  0  0  0  0  0  0  0  0  0  0  0
  193.0880  173.5670  145.6160 C   0  0  0  0  0  2  0  0  0  0  0  0
  194.2530  172.7120  145.2480 C   0  0  0  0  0  0  0  0  0  0  0  0
  195.0990  173.0970  144.2170 O   0  0  0  0  0  0  0  0  0  0  0  0
  194.4870  171.6560  145.8920 O   0  0  0  0  0  1  0  0  0  0  0  0
  1 20  1  0  0  0  0
  2 24  1  6  0  0  0
  2 12  1  0  0  0  0
  4  3  1  0  0  0  0
  6  5  1  0  0  0  0
  6 28  1  0  0  0  0
  7 19  1  6  0  0  0
  7 17  1  0  0  0  0
  9 28  1  0  0  0  0
  9 26  1  0  0  0  0
 11  3  2  0  0  0  0
 12  8  1  0  0  0  0
 12 13  1  0  0  0  0
 13 11  1  0  0  0  0
 14 23  1  6  0  0  0
 14 22  1  0  0  0  0
 15  9  2  0  0  0  0
 16  1  1  0  0  0  0
 17 10  1  1  0  0  0
 17  8  1  0  0  0  0
 18 15  1  0  0  0  0
 18  6  2  0  0  0  0
 19 16  1  0  0  0  0
 20 10  1  0  0  0  0
 20 29  1  1  0  0  0
 21  4  2  0  0  0  0
 22 13  2  0  0  0  0
 22 21  1  0  0  0  0
 24  7  1  0  0  0  0
 25  5  2  0  0  0  0
 27  5  1  6  0  0  0
 27  2  1  0  0  0  0
 27 14  1  0  0  0  0
 28 23  1  0  0  0  0
 30 29  1  0  0  0  0
 30 32  1  0  0  0  0
 31 30  2  0  0  0  0
M  END
>  <MODEL>
5

>  <REMARK>
 VINA RESULT:      -8.2      1.384      1.502
  Name = 
  2 active torsions:
  status: ('A' for Active; 'I' for Inactive)
    1  A    between atoms: C_20  and  C_29
    2  A    between atoms: C_29  and  C_30
                            x       y       z     vdW  Elec       q    Type
                         _______ _______ _______ _____ _____    ______ ____

>  <TORSDO>
F 2

$$$$
=
 OpenBabel11112416283D

 32 37  0  0  1  0  0  0  0  0999 V2000
  195.3590  176.5090  144.2260 C   0  0  0  0  0  2  0  0  0  0  0  0
  190.4640  175.7390  145.6070 C   0  0  1  0  0  3  0  0  0  0  0  0
  189.1050  174.5490  140.9530 C   0  0  0  0  0  3  0  0  0  0  0  0
  187.8220  175.0490  141.1820 C   0  0  0  0  0  3  0  0  0  0  0  0
  188.8850  177.3130  146.8870 C   0  0  0  0  0  0  0  0  0  0  0  0
  187.5490  177.9000  146.9710 C   0  0  0  0  0  0  0  0  0  0  0  0
  192.9310  175.5110  145.9450 C   0  0  1  0  0  3  0  0  0  0  0  0
  191.9200  174.2760  144.1870 C   0  0  0  0  0  2  0  0  0  0  0  0
  185.6110  178.4620  146.3470 C   0  0  0  0  0  0  0  0  0  0  0  0
  194.2550  174.2000  144.4130 C   0  0  0  0  0  2  0  0  0  0  0  0
  190.0520  174.5610  141.9790 C   0  0  0  0  0  3  0  0  0  0  0  0
  190.7100  175.0900  144.3050 N   0  0  0  0  0  0  0  0  0  0  0  0
  189.7290  175.0770  143.2450 C   0  0  0  0  0  0  0  0  0  0  0  0
  188.0740  176.0780  144.8390 C   0  0  2  0  0  3  0  0  0  0  0  0
  185.8220  179.0290  147.5560 N   0  0  0  0  0  0  0  0  0  0  0  0
  194.8820  177.1510  145.5390 C   0  0  0  0  0  2  0  0  0  0  0  0
  193.0890  175.0730  144.5470 N   0  0  2  0  0  0  0  0  0  0  0  0
  187.0460  178.6770  147.9490 N   0  0  0  0  0  0  0  0  0  0  0  0
  194.1890  176.1890  146.5130 C   0  0  0  0  0  2  0  0  0  0  0  0
  195.5730  174.9900  144.3210 C   0  0  1  0  0  3  0  0  0  0  0  0
  187.4880  175.5660  142.4350 C   0  0  0  0  0  3  0  0  0  0  0  0
  188.4410  175.6030  143.4650 C   0  0  0  0  0  0  0  0  0  0  0  0
  186.9160  176.9820  144.8290 N   0  0  0  0  0  2  0  0  0  0  0  0
  191.7400  176.4570  146.0570 C   0  0  0  0  0  2  0  0  0  0  0  0
  189.6770  177.3730  147.8650 O   0  0  0  0  0  0  0  0  0  0  0  0
  184.3570  178.5980  145.5560 C   0  0  0  0  0  1  0  0  0  0  0  0
  189.2900  176.7320  145.5400 C   0  0  2  0  0  3  0  0  0  0  0  0
  186.6810  177.7520  145.9740 N   0  0  0  0  0  0  0  0  0  0  0  0
  196.3660  174.4920  143.1250 C   0  0  0  0  0  2  0  0  0  0  0  0
  195.9660  175.2160  141.8840 C   0  0  0  0  0  0  0  0  0  0  0  0
  196.8140  176.1640  141.3300 O   0  0  0  0  0  1  0  0  0  0  0  0
  194.8720  174.9460  141.3240 O   0  0  0  0  0  0  0  0  0  0  0  0
  1 20  1  0  0  0  0
  1 16  1  0  0  0  0
  2 24  1  6  0  0  0
  3  4  2  0  0  0  0
  3 11  1  0  0  0  0
  4 21  1  0  0  0  0
  5  6  1  0  0  0  0
  5 25  2  0  0  0  0
  6 18  2  0  0  0  0
  7 24  1  6  0  0  0
  7 19  1  0  0  0  0
  8 12  1  0  0  0  0
  9 15  2  0  0  0  0
 10 17  1  0  0  0  0
 11 13  2  0  0  0  0
 12  2  1  0  0  0  0
 13 22  1  0  0  0  0
 13 12  1  0  0  0  0
 14 22  1  6  0  0  0
 14 27  1  0  0  0  0
 15 18  1  0  0  0  0
 16 19  1  0  0  0  0
 17  8  1  1  0  0  0
 17  7  1  0  0  0  0
 20 29  1  6  0  0  0
 20 10  1  0  0  0  0
 21 22  2  0  0  0  0
 23 14  1  0  0  0  0
 23 28  1  0  0  0  0
 26  9  1  0  0  0  0
 27  2  1  0  0  0  0
 27  5  1  1  0  0  0
 28  9  1  0  0  0  0
 28  6  1  0  0  0  0
 30 29  1  0  0  0  0
 31 30  1  0  0  0  0
 32 30  2  0  0  0  0
M  END
>  <MODEL>
6

>  <REMARK>
 VINA RESULT:      -8.1      3.172      5.502
  Name = 
  2 active torsions:
  status: ('A' for Active; 'I' for Inactive)
    1  A    between atoms: C_20  and  C_29
    2  A    between atoms: C_29  and  C_30
                            x       y       z     vdW  Elec       q    Type
                         _______ _______ _______ _____ _____    ______ ____

>  <TORSDO>
F 2

$$$$
=
 OpenBabel11112416283D

 32 37  0  0  1  0  0  0  0  0999 V2000
  186.2380  178.6550  142.3380 C   0  0  0  0  0  2  0  0  0  0  0  0
  190.0210  175.4020  143.5920 C   0  0  1  0  0  3  0  0  0  0  0  0
  190.5340  177.3990  148.1380 C   0  0  0  0  0  3  0  0  0  0  0  0
  191.8910  177.0710  148.1480 C   0  0  0  0  0  3  0  0  0  0  0  0
  192.1960  174.8950  142.3190 C   0  0  0  0  0  0  0  0  0  0  0  0
  193.6430  174.7010  142.4010 C   0  0  0  0  0  0  0  0  0  0  0  0
  187.7990  175.9430  142.5800 C   0  0  1  0  0  3  0  0  0  0  0  0
  188.0080  176.0290  144.9440 C   0  0  0  0  0  2  0  0  0  0  0  0
  195.5860  174.7610  143.2270 C   0  0  0  0  0  0  0  0  0  0  0  0
  185.9770  176.6930  143.9730 C   0  0  0  0  0  2  0  0  0  0  0  0
  189.7370  177.0440  147.0470 C   0  0  0  0  0  3  0  0  0  0  0  0
  189.4650  175.9990  144.8220 N   0  0  0  0  0  0  0  0  0  0  0  0
  190.2900  176.3630  145.9500 C   0  0  0  0  0  0  0  0  0  0  0  0
  192.2330  175.2570  144.8180 C   0  0  2  0  0  3  0  0  0  0  0  0
  195.7090  174.3470  141.9450 N   0  0  0  0  0  0  0  0  0  0  0  0
  186.9880  177.9610  141.1890 C   0  0  0  0  0  2  0  0  0  0  0  0
  187.4280  176.7040  143.7860 N   0  0  2  0  0  0  0  0  0  0  0  0
  194.4830  174.3130  141.4220 N   0  0  0  0  0  0  0  0  0  0  0  0
  187.0830  176.4340  141.3120 C   0  0  0  0  0  2  0  0  0  0  0  0
  185.2640  177.7330  143.0900 C   0  0  1  0  0  3  0  0  0  0  0  0
  192.4520  176.3930  147.0640 C   0  0  0  0  0  3  0  0  0  0  0  0
  191.6640  176.0550  145.9520 C   0  0  0  0  0  0  0  0  0  0  0  0
  193.6920  175.3890  144.7150 N   0  0  0  0  0  2  0  0  0  0  0  0
  189.3090  176.0050  142.3780 C   0  0  0  0  0  2  0  0  0  0  0  0
  191.5570  174.5460  141.2910 O   0  0  0  0  0  0  0  0  0  0  0  0
  196.7220  174.9280  144.1740 C   0  0  0  0  0  1  0  0  0  0  0  0
  191.5400  175.6240  143.4820 C   0  0  2  0  0  3  0  0  0  0  0  0
  194.3010  174.9800  143.5220 N   0  0  0  0  0  0  0  0  0  0  0  0
  184.3210  178.5530  143.9540 C   0  0  0  0  0  2  0  0  0  0  0  0
  184.8030  178.6050  145.3630 C   0  0  0  0  0  0  0  0  0  0  0  0
  185.8750  179.4200  145.7000 O   0  0  0  0  0  0  0  0  0  0  0  0
  184.2200  177.9330  146.2530 O   0  0  0  0  0  1  0  0  0  0  0  0
  1 20  1  0  0  0  0
  2 24  1  6  0  0  0
  2 12  1  0  0  0  0
  3  4  1  0  0  0  0
  5  6  1  0  0  0  0
  6 28  1  0  0  0  0
  7 19  1  6  0  0  0
  7 17  1  0  0  0  0
  9 28  1  0  0  0  0
  9 26  1  0  0  0  0
 11  3  2  0  0  0  0
 12  8  1  0  0  0  0
 12 13  1  0  0  0  0
 13 22  2  0  0  0  0
 13 11  1  0  0  0  0
 14 23  1  6  0  0  0
 14 22  1  0  0  0  0
 15  9  2  0  0  0  0
 16 19  1  0  0  0  0
 16  1  1  0  0  0  0
 17 10  1  1  0  0  0
 17  8  1  0  0  0  0
 18 15  1  0  0  0  0
 18  6  2  0  0  0  0
 20 29  1  1  0  0  0
 20 10  1  0  0  0  0
 21  4  2  0  0  0  0
 22 21  1  0  0  0  0
 24  7  1  0  0  0  0
 25  5  2  0  0  0  0
 27  5  1  6  0  0  0
 27  2  1  0  0  0  0
 27 14  1  0  0  0  0
 28 23  1  0  0  0  0
 29 30  1  0  0  0  0
 30 31  2  0  0  0  0
 30 32  1  0  0  0  0
M  END
>  <MODEL>
7

>  <REMARK>
 VINA RESULT:      -8.1      3.087      8.029
  Name = 
  2 active torsions:
  status: ('A' for Active; 'I' for Inactive)
    1  A    between atoms: C_20  and  C_29
    2  A    between atoms: C_29  and  C_30
                            x       y       z     vdW  Elec       q    Type
                         _______ _______ _______ _____ _____    ______ ____

>  <TORSDO>
F 2

$$$$
=
 OpenBabel11112416283D

 32 37  0  0  1  0  0  0  0  0999 V2000
  186.6740  179.0430  143.1810 C   0  0  0  0  0  2  0  0  0  0  0  0
  189.6580  174.8550  143.0720 C   0  0  1  0  0  3  0  0  0  0  0  0
  192.3750  176.4160  146.9580 C   0  0  0  0  0  3  0  0  0  0  0  0
  193.4960  175.7440  146.4660 C   0  0  0  0  0  3  0  0  0  0  0  0
  190.9650  173.8600  141.0940 C   0  0  0  0  0  0  0  0  0  0  0  0
  192.2280  173.2900  140.6280 C   0  0  0  0  0  0  0  0  0  0  0  0
  187.4430  176.0090  142.9590 C   0  0  1  0  0  3  0  0  0  0  0  0
  188.5560  175.9180  145.0540 C   0  0  0  0  0  2  0  0  0  0  0  0
  194.2820  172.7980  140.6430 C   0  0  0  0  0  0  0  0  0  0  0  0
  186.5570  177.1380  144.8980 C   0  0  0  0  0  2  0  0  0  0  0  0
  191.1590  176.3380  146.2750 C   0  0  0  0  0  3  0  0  0  0  0  0
  189.7920  175.5130  144.3850 N   0  0  0  0  0  0  0  0  0  0  0  0
  191.0500  175.5910  145.0910 C   0  0  0  0  0  0  0  0  0  0  0  0
  192.0500  174.0740  143.3650 C   0  0  2  0  0  3  0  0  0  0  0  0
  193.7920  172.4320  139.4370 N   0  0  0  0  0  0  0  0  0  0  0  0
  186.7160  178.2360  141.8740 C   0  0  0  0  0  2  0  0  0  0  0  0
  187.7750  176.7780  144.1700 N   0  0  2  0  0  0  0  0  0  0  0  0
  192.4970  172.7460  139.4250 N   0  0  0  0  0  0  0  0  0  0  0  0
  186.4500  176.7330  142.0350 C   0  0  0  0  0  2  0  0  0  0  0  0
  185.8580  178.3720  144.2980 C   0  0  1  0  0  3  0  0  0  0  0  0
  193.4010  174.9980  145.2890 C   0  0  0  0  0  3  0  0  0  0  0  0
  192.1890  174.9350  144.5840 C   0  0  0  0  0  0  0  0  0  0  0  0
  193.3390  173.8240  142.7050 N   0  0  0  0  0  2  0  0  0  0  0  0
  188.7190  175.6830  142.1910 C   0  0  0  0  0  2  0  0  0  0  0  0
  189.9140  173.7430  140.4100 O   0  0  0  0  0  0  0  0  0  0  0  0
  195.6950  172.6140  141.0720 C   0  0  0  0  0  1  0  0  0  0  0  0
  191.0200  174.6760  142.3770 C   0  0  2  0  0  3  0  0  0  0  0  0
  193.3140  173.3310  141.3940 N   0  0  0  0  0  0  0  0  0  0  0  0
  185.5670  179.3660  145.4100 C   0  0  0  0  0  2  0  0  0  0  0  0
  184.8740  178.6980  146.5490 C   0  0  0  0  0  0  0  0  0  0  0  0
  185.5230  178.5550  147.7680 O   0  0  0  0  0  1  0  0  0  0  0  0
  183.6910  178.2910  146.4150 O   0  0  0  0  0  0  0  0  0  0  0  0
  1 20  1  0  0  0  0
  2 24  1  6  0  0  0
  2 12  1  0  0  0  0
  4  3  1  0  0  0  0
  6  5  1  0  0  0  0
  6 28  1  0  0  0  0
  7 19  1  6  0  0  0
  7 17  1  0  0  0  0
  9 26  1  0  0  0  0
  9 28  1  0  0  0  0
 11  3  2  0  0  0  0
 12  8  1  0  0  0  0
 12 13  1  0  0  0  0
 13 11  1  0  0  0  0
 14 23  1  6  0  0  0
 14 22  1  0  0  0  0
 15  9  2  0  0  0  0
 16 19  1  0  0  0  0
 16  1  1  0  0  0  0
 17 10  1  1  0  0  0
 17  8  1  0  0  0  0
 18 15  1  0  0  0  0
 18  6  2  0  0  0  0
 20 10  1  0  0  0  0
 20 29  1  1  0  0  0
 21  4  2  0  0  0  0
 22 13  2  0  0  0  0
 22 21  1  0  0  0  0
 24  7  1  0  0  0  0
 25  5  2  0  0  0  0
 27  5  1  6  0  0  0
 27  2  1  0  0  0  0
 27 14  1  0  0  0  0
 28 23  1  0  0  0  0
 29 30  1  0  0  0  0
 30 31  1  0  0  0  0
 32 30  2  0  0  0  0
M  END
>  <MODEL>
8

>  <REMARK>
 VINA RESULT:      -7.8      3.414      7.991
  Name = 
  2 active torsions:
  status: ('A' for Active; 'I' for Inactive)
    1  A    between atoms: C_20  and  C_29
    2  A    between atoms: C_29  and  C_30
                            x       y       z     vdW  Elec       q    Type
                         _______ _______ _______ _____ _____    ______ ____

>  <TORSDO>
F 2

$$$$
=
 OpenBabel11112416283D

 32 37  0  0  1  0  0  0  0  0999 V2000
  187.8160  176.0550  146.8880 C   0  0  0  0  0  2  0  0  0  0  0  0
  191.3170  176.0340  143.1200 C   0  0  1  0  0  3  0  0  0  0  0  0
  188.5490  173.0210  140.2600 C   0  0  0  0  0  3  0  0  0  0  0  0
  189.7010  172.4810  139.6850 C   0  0  0  0  0  3  0  0  0  0  0  0
  193.8260  175.4870  143.2570 C   0  0  0  0  0  0  0  0  0  0  0  0
  194.9540  174.7720  142.6620 C   0  0  0  0  0  0  0  0  0  0  0  0
  189.9480  177.1730  144.8750 C   0  0  1  0  0  3  0  0  0  0  0  0
  188.8430  176.3740  142.9310 C   0  0  0  0  0  2  0  0  0  0  0  0
  195.9710  173.3800  141.4410 C   0  0  0  0  0  0  0  0  0  0  0  0
  187.5490  177.2970  144.6570 C   0  0  0  0  0  2  0  0  0  0  0  0
  188.6550  174.0400  141.2100 C   0  0  0  0  0  3  0  0  0  0  0  0
  190.0210  175.5800  142.5820 N   0  0  0  0  0  0  0  0  0  0  0  0
  189.9140  174.5270  141.5990 C   0  0  0  0  0  0  0  0  0  0  0  0
  192.4110  174.5400  141.3910 C   0  0  2  0  0  3  0  0  0  0  0  0
  196.8940  173.9590  142.2420 N   0  0  0  0  0  0  0  0  0  0  0  0
  189.2550  176.4510  147.2550 C   0  0  0  0  0  2  0  0  0  0  0  0
  188.7380  176.4910  144.3820 N   0  0  2  0  0  0  0  0  0  0  0  0
  196.2530  174.8340  143.0160 N   0  0  0  0  0  0  0  0  0  0  0  0
  189.8700  177.5400  146.3660 C   0  0  0  0  0  2  0  0  0  0  0  0
  187.0550  177.1390  146.1070 C   0  0  1  0  0  3  0  0  0  0  0  0
  190.9580  172.9560  140.0630 C   0  0  0  0  0  3  0  0  0  0  0  0
  191.0740  173.9630  141.0340 C   0  0  0  0  0  0  0  0  0  0  0  0
  193.5160  173.6140  141.1060 N   0  0  0  0  0  2  0  0  0  0  0  0
  191.1710  176.2980  144.6210 C   0  0  0  0  0  2  0  0  0  0  0  0
  194.0160  176.3930  144.1100 O   0  0  0  0  0  0  0  0  0  0  0  0
  196.2720  172.3450  140.4150 C   0  0  0  0  0  1  0  0  0  0  0  0
  192.4360  175.0070  142.8680 C   0  0  2  0  0  3  0  0  0  0  0  0
  194.7580  173.8830  141.6930 N   0  0  0  0  0  0  0  0  0  0  0  0
  185.5660  176.8340  146.0930 C   0  0  0  0  0  2  0  0  0  0  0  0
  184.7740  178.0420  146.4580 C   0  0  0  0  0  0  0  0  0  0  0  0
  183.9810  178.6670  145.5040 O   0  0  0  0  0  0  0  0  0  0  0  0
  184.8000  178.4790  147.6380 O   0  0  0  0  0  1  0  0  0  0  0  0
  1 16  1  0  0  0  0
  2 24  1  1  0  0  0
  3 11  1  0  0  0  0
  4 21  1  0  0  0  0
  4  3  2  0  0  0  0
  5 25  2  0  0  0  0
  6 18  2  0  0  0  0
  6  5  1  0  0  0  0
  7 24  1  1  0  0  0
  7 19  1  0  0  0  0
  9 28  1  0  0  0  0
  9 15  2  0  0  0  0
 10 20  1  0  0  0  0
 11 13  2  0  0  0  0
 12  8  1  0  0  0  0
 12  2  1  0  0  0  0
 13 12  1  0  0  0  0
 14 22  1  1  0  0  0
 14 27  1  0  0  0  0
 15 18  1  0  0  0  0
 17  8  1  6  0  0  0
 17 10  1  0  0  0  0
 17  7  1  0  0  0  0
 19 16  1  0  0  0  0
 20 29  1  6  0  0  0
 20  1  1  0  0  0  0
 21 22  2  0  0  0  0
 22 13  1  0  0  0  0
 23 14  1  0  0  0  0
 23 28  1  0  0  0  0
 26  9  1  0  0  0  0
 27  2  1  0  0  0  0
 27  5  1  6  0  0  0
 28  6  1  0  0  0  0
 29 30  1  0  0  0  0
 30 32  1  0  0  0  0
 31 30  2  0  0  0  0
M  END
>  <MODEL>
9

>  <REMARK>
 VINA RESULT:      -7.8      3.737      8.855
  Name = 
  2 active torsions:
  status: ('A' for Active; 'I' for Inactive)
    1  A    between atoms: C_20  and  C_29
    2  A    between atoms: C_29  and  C_30
                            x       y       z     vdW  Elec       q    Type
                         _______ _______ _______ _____ _____    ______ ____

>  <TORSDO>
F 2

$$$$
