=
 OpenBabel11112417083D

 37 43  0  0  1  0  0  0  0  0999 V2000
  190.9410  172.8670  142.6140 C   0  0  0  0  0  2  0  0  0  0  0  0
  195.5690  176.0620  142.3870 C   0  0  0  0  0  0  0  0  0  0  0  0
  192.4240  175.6610  145.1370 C   0  0  0  0  0  0  0  0  0  0  0  0
  190.6880  171.7570  141.5900 C   0  0  2  0  0  3  0  0  0  0  0  0
  189.2400  175.9750  143.2380 O   0  0  0  0  0  0  0  0  0  0  0  0
  194.7370  176.2810  144.8140 C   0  0  0  0  0  0  0  0  0  0  0  0
  191.3280  175.1060  144.2800 C   0  0  1  0  0  3  0  0  0  0  0  0
  188.6010  173.0860  140.8050 C   0  0  2  0  0  3  0  0  0  0  0  0
  193.5680  175.6540  144.3940 C   0  0  0  0  0  0  0  0  0  0  0  0
  189.9880  175.7910  144.4030 C   0  0  0  0  0  0  0  0  0  0  0  0
  194.7650  176.8260  146.1050 C   0  0  0  0  0  3  0  0  0  0  0  0
  189.7710  172.1650  140.4280 C   0  0  0  0  0  2  0  0  0  0  0  0
  193.3180  175.1370  143.0450 C   0  0  2  0  0  3  0  0  0  0  0  0
  196.1880  174.6890  142.1800 C   0  0  0  0  0  1  0  0  0  0  0  0
  191.2030  176.2900  147.2990 C   0  0  0  0  0  2  0  0  0  0  0  0
  193.6160  176.7690  146.9170 C   0  0  0  0  0  3  0  0  0  0  0  0
  194.0640  176.0180  142.0440 C   0  0  0  0  0  2  0  0  0  0  0  0
  189.0200  174.4970  141.2830 C   0  0  1  0  0  3  0  0  0  0  0  0
  188.5430  174.8600  142.6980 C   0  0  0  0  0  2  0  0  0  0  0  0
  192.4220  176.1980  146.4370 C   0  0  0  0  0  0  0  0  0  0  0  0
  191.8620  175.2240  142.9020 N   0  0  1  0  0  0  0  0  0  0  0  0
  195.8540  176.5340  143.8350 C   0  0  0  0  0  2  0  0  0  0  0  0
  189.4370  176.0290  145.6110 C   0  0  0  0  0  0  0  0  0  0  0  0
  196.2440  177.0270  141.4350 C   0  0  0  0  0  1  0  0  0  0  0  0
  190.4390  174.7910  141.0170 N   0  0  0  0  0  2  0  0  0  0  0  0
  187.7280  172.4500  141.6940 O   0  0  0  0  0  1  0  0  0  0  0  0
  191.3960  174.1930  141.9650 C   0  0  2  0  0  3  0  0  0  0  0  0
  190.0990  175.5810  146.7560 O   0  0  0  0  0  0  0  0  0  0  0  0
  187.3170  176.3190  146.8840 C   0  0  0  0  0  3  0  0  0  0  0  0
  188.1140  176.6810  145.7890 C   0  0  0  0  0  0  0  0  0  0  0  0
  187.6550  177.6870  144.9210 C   0  0  0  0  0  3  0  0  0  0  0  0
  185.9430  179.3560  144.2030 C   0  0  0  0  0  1  0  0  0  0  0  0
  185.6280  177.9210  146.2220 C   0  0  0  0  0  3  0  0  0  0  0  0
  186.4170  178.2990  145.1340 C   0  0  0  0  0  0  0  0  0  0  0  0
  186.0790  176.9310  147.0990 C   0  0  0  0  0  3  0  0  0  0  0  0
  190.8330  169.2730  141.7800 C   0  0  0  0  0  1  0  0  0  0  0  0
  190.1330  170.5210  142.2800 C   0  0  0  0  0  2  0  0  0  0  0  0
  2 22  1  0  0  0  0
  3 20  1  0  0  0  0
  4 37  1  1  0  0  0
  4  1  1  0  0  0  0
  5 10  1  0  0  0  0
  6 11  2  0  0  0  0
  7 10  1  6  0  0  0
  7  3  1  0  0  0  0
  8 18  1  0  0  0  0
  8 26  1  1  0  0  0
  9  6  1  0  0  0  0
  9  3  2  0  0  0  0
 10 23  2  0  0  0  0
 11 16  1  0  0  0  0
 12  8  1  0  0  0  0
 12  4  1  0  0  0  0
 13 17  1  6  0  0  0
 13  9  1  0  0  0  0
 14  2  1  0  0  0  0
 17  2  1  0  0  0  0
 18 19  1  1  0  0  0
 19  5  1  0  0  0  0
 20 16  2  0  0  0  0
 20 15  1  0  0  0  0
 21 13  1  0  0  0  0
 21  7  1  0  0  0  0
 22  6  1  0  0  0  0
 23 30  1  0  0  0  0
 23 28  1  0  0  0  0
 24  2  1  0  0  0  0
 25 18  1  0  0  0  0
 25 27  1  0  0  0  0
 27  1  1  0  0  0  0
 27 21  1  0  0  0  0
 28 15  1  0  0  0  0
 29 35  1  0  0  0  0
 30 29  2  0  0  0  0
 31 34  2  0  0  0  0
 31 30  1  0  0  0  0
 32 34  1  0  0  0  0
 33 35  2  0  0  0  0
 34 33  1  0  0  0  0
 36 37  1  0  0  0  0
M  END
>  <MODEL>
1

>  <REMARK>
 VINA RESULT:      -9.5      0.000      0.000
  Name = 
  2 active torsions:
  status: ('A' for Active; 'I' for Inactive)
    1  A    between atoms: C_4  and  C_37
    2  A    between atoms: C_23  and  C_30
                            x       y       z     vdW  Elec       q    Type
                         _______ _______ _______ _____ _____    ______ ____

>  <TORSDO>
F 2

$$$$
=
 OpenBabel11112417083D

 37 43  0  0  1  0  0  0  0  0999 V2000
  191.6860  175.6250  144.7670 C   0  0  0  0  0  2  0  0  0  0  0  0
  190.7950  171.0740  141.5770 C   0  0  0  0  0  0  0  0  0  0  0  0
  189.1500  174.9330  141.6920 C   0  0  0  0  0  0  0  0  0  0  0  0
  192.8340  175.6770  145.7790 C   0  0  2  0  0  3  0  0  0  0  0  0
  188.1150  175.5980  145.2030 O   0  0  0  0  0  0  0  0  0  0  0  0
  189.6160  172.9930  140.3290 C   0  0  0  0  0  0  0  0  0  0  0  0
  189.4290  175.3510  143.1020 C   0  0  1  0  0  3  0  0  0  0  0  0
  191.0480  175.8630  147.6530 C   0  0  2  0  0  3  0  0  0  0  0  0
  189.8120  173.7620  141.4720 C   0  0  0  0  0  0  0  0  0  0  0  0
  188.2610  175.9390  143.8570 C   0  0  0  0  0  0  0  0  0  0  0  0
  188.8020  173.5160  139.3150 C   0  0  0  0  0  3  0  0  0  0  0  0
  192.4240  175.3360  147.2190 C   0  0  0  0  0  2  0  0  0  0  0  0
  190.5290  173.3280  142.6750 C   0  0  2  0  0  3  0  0  0  0  0  0
  192.3010  171.2120  141.4230 C   0  0  0  0  0  1  0  0  0  0  0  0
  187.5280  176.7370  140.8670 C   0  0  0  0  0  2  0  0  0  0  0  0
  188.1740  174.7640  139.4920 C   0  0  0  0  0  3  0  0  0  0  0  0
  190.3250  171.8230  142.8430 C   0  0  0  0  0  2  0  0  0  0  0  0
  189.8500  175.2270  146.9080 C   0  0  1  0  0  3  0  0  0  0  0  0
  188.9600  176.2280  146.1570 C   0  0  0  0  0  2  0  0  0  0  0  0
  188.3270  175.4850  140.6920 C   0  0  0  0  0  0  0  0  0  0  0  0
  189.9110  174.1080  143.7510 N   0  0  1  0  0  0  0  0  0  0  0  0
  190.1040  171.5680  140.2810 C   0  0  0  0  0  2  0  0  0  0  0  0
  187.5070  176.9190  143.3160 C   0  0  0  0  0  0  0  0  0  0  0  0
  190.4750  169.6040  141.7510 C   0  0  0  0  0  1  0  0  0  0  0  0
  190.2310  174.0360  146.1290 N   0  0  0  0  0  2  0  0  0  0  0  0
  191.0180  177.2610  147.6340 O   0  0  0  0  0  1  0  0  0  0  0  0
  190.8800  174.3080  144.8360 C   0  0  2  0  0  3  0  0  0  0  0  0
  187.8540  177.4280  142.0640 O   0  0  0  0  0  0  0  0  0  0  0  0
  185.1960  177.8470  143.2990 C   0  0  0  0  0  3  0  0  0  0  0  0
  186.3600  177.5460  144.0220 C   0  0  0  0  0  0  0  0  0  0  0  0
  186.3830  177.8010  145.4040 C   0  0  0  0  0  3  0  0  0  0  0  0
  185.3180  178.6360  147.5030 C   0  0  0  0  0  1  0  0  0  0  0  0
  184.1270  178.6720  145.3080 C   0  0  0  0  0  3  0  0  0  0  0  0
  185.2750  178.3650  146.0420 C   0  0  0  0  0  0  0  0  0  0  0  0
  184.0870  178.4110  143.9360 C   0  0  0  0  0  3  0  0  0  0  0  0
  194.9600  176.9010  145.3170 C   0  0  0  0  0  1  0  0  0  0  0  0
  193.5090  177.0380  145.7390 C   0  0  0  0  0  2  0  0  0  0  0  0
  1 27  1  0  0  0  0
  1  4  1  0  0  0  0
  2 24  1  0  0  0  0
  2 17  1  0  0  0  0
  4 37  1  1  0  0  0
  4 12  1  0  0  0  0
  5 19  1  0  0  0  0
  6  9  2  0  0  0  0
  7  3  1  6  0  0  0
  7 21  1  0  0  0  0
  7 10  1  0  0  0  0
  8 26  1  6  0  0  0
  9  3  1  0  0  0  0
  9 13  1  0  0  0  0
 10  5  1  0  0  0  0
 11 16  2  0  0  0  0
 11  6  1  0  0  0  0
 12  8  1  0  0  0  0
 13 17  1  1  0  0  0
 13 21  1  0  0  0  0
 14  2  1  0  0  0  0
 15 28  1  0  0  0  0
 16 20  1  0  0  0  0
 18 19  1  6  0  0  0
 18  8  1  0  0  0  0
 20 15  1  0  0  0  0
 20  3  2  0  0  0  0
 21 27  1  0  0  0  0
 22  6  1  0  0  0  0
 22  2  1  0  0  0  0
 23 10  2  0  0  0  0
 23 30  1  0  0  0  0
 25 18  1  0  0  0  0
 27 25  1  0  0  0  0
 28 23  1  0  0  0  0
 29 35  2  0  0  0  0
 29 30  1  0  0  0  0
 30 31  2  0  0  0  0
 31 34  1  0  0  0  0
 33 34  2  0  0  0  0
 34 32  1  0  0  0  0
 35 33  1  0  0  0  0
 36 37  1  0  0  0  0
M  END
>  <MODEL>
2

>  <REMARK>
 VINA RESULT:      -8.7      1.960      5.865
  Name = 
  2 active torsions:
  status: ('A' for Active; 'I' for Inactive)
    1  A    between atoms: C_4  and  C_37
    2  A    between atoms: C_23  and  C_30
                            x       y       z     vdW  Elec       q    Type
                         _______ _______ _______ _____ _____    ______ ____

>  <TORSDO>
F 2

$$$$
=
 OpenBabel11112417083D

 37 43  0  0  1  0  0  0  0  0999 V2000
  191.2580  173.5050  141.4260 C   0  0  0  0  0  2  0  0  0  0  0  0
  188.9820  176.5370  145.5860 C   0  0  0  0  0  0  0  0  0  0  0  0
  192.7330  174.7550  144.9800 C   0  0  0  0  0  0  0  0  0  0  0  0
  190.5270  173.3010  140.0960 C   0  0  2  0  0  3  0  0  0  0  0  0
  192.1380  171.2030  144.0460 O   0  0  0  0  0  0  0  0  0  0  0  0
  191.5070  176.5130  146.0940 C   0  0  0  0  0  0  0  0  0  0  0  0
  192.4110  173.6770  143.9900 C   0  0  1  0  0  3  0  0  0  0  0  0
  190.4410  170.7640  140.6400 C   0  0  2  0  0  3  0  0  0  0  0  0
  191.6220  175.5350  145.1110 C   0  0  0  0  0  0  0  0  0  0  0  0
  192.9520  172.3050  144.3150 C   0  0  0  0  0  0  0  0  0  0  0  0
  192.6280  176.7830  146.8900 C   0  0  0  0  0  3  0  0  0  0  0  0
  189.7540  171.9770  139.9950 C   0  0  0  0  0  2  0  0  0  0  0  0
  190.5270  175.0400  144.2720 C   0  0  2  0  0  3  0  0  0  0  0  0
  188.7060  177.4580  144.4090 C   0  0  0  0  0  1  0  0  0  0  0  0
  195.1150  174.1670  145.7170 C   0  0  0  0  0  2  0  0  0  0  0  0
  193.8120  176.0410  146.7120 C   0  0  0  0  0  3  0  0  0  0  0  0
  189.2330  175.1000  145.0810 C   0  0  0  0  0  2  0  0  0  0  0  0
  190.5760  170.8440  142.1800 C   0  0  1  0  0  3  0  0  0  0  0  0
  192.0190  170.7620  142.7000 C   0  0  0  0  0  2  0  0  0  0  0  0
  193.8760  175.0030  145.7630 C   0  0  0  0  0  0  0  0  0  0  0  0
  190.9290  173.6690  143.9460 N   0  0  1  0  0  0  0  0  0  0  0  0
  190.1600  177.1100  146.4130 C   0  0  0  0  0  2  0  0  0  0  0  0
  194.2470  172.1310  144.6540 C   0  0  0  0  0  0  0  0  0  0  0  0
  187.7510  176.5220  146.4670 C   0  0  0  0  0  1  0  0  0  0  0  0
  189.7700  171.9280  142.7670 N   0  0  0  0  0  2  0  0  0  0  0  0
  191.6530  170.4780  140.0040 O   0  0  0  0  0  1  0  0  0  0  0  0
  190.3490  173.2780  142.6540 C   0  0  2  0  0  3  0  0  0  0  0  0
  195.1020  173.2330  144.6480 O   0  0  0  0  0  0  0  0  0  0  0  0
  195.6860  170.1980  144.0260 C   0  0  0  0  0  3  0  0  0  0  0  0
  194.8340  170.8020  144.9630 C   0  0  0  0  0  0  0  0  0  0  0  0
  194.6060  170.1510  146.1870 C   0  0  0  0  0  3  0  0  0  0  0  0
  194.9410  168.2350  147.7530 C   0  0  0  0  0  1  0  0  0  0  0  0
  196.0350  168.3190  145.5100 C   0  0  0  0  0  3  0  0  0  0  0  0
  195.1990  168.9140  146.4570 C   0  0  0  0  0  0  0  0  0  0  0  0
  196.2810  168.9620  144.2940 C   0  0  0  0  0  3  0  0  0  0  0  0
  192.8840  173.7910  139.4390 C   0  0  0  0  0  1  0  0  0  0  0  0
  191.5010  173.4240  138.9360 C   0  0  0  0  0  2  0  0  0  0  0  0
  1 27  1  0  0  0  0
  2 22  1  0  0  0  0
  2 24  1  0  0  0  0
  3  9  2  0  0  0  0
  3 20  1  0  0  0  0
  4 37  1  6  0  0  0
  4  1  1  0  0  0  0
  5 10  1  0  0  0  0
  6 22  1  0  0  0  0
  6 11  2  0  0  0  0
  7 10  1  1  0  0  0
  7  3  1  0  0  0  0
  8 26  1  6  0  0  0
  8 18  1  0  0  0  0
  9  6  1  0  0  0  0
 10 23  2  0  0  0  0
 12  4  1  0  0  0  0
 12  8  1  0  0  0  0
 13 17  1  1  0  0  0
 13  9  1  0  0  0  0
 14  2  1  0  0  0  0
 15 20  1  0  0  0  0
 16 11  1  0  0  0  0
 17  2  1  0  0  0  0
 18 19  1  6  0  0  0
 18 25  1  0  0  0  0
 19  5  1  0  0  0  0
 20 16  2  0  0  0  0
 21  7  1  0  0  0  0
 21 13  1  0  0  0  0
 23 30  1  0  0  0  0
 27 25  1  0  0  0  0
 27 21  1  0  0  0  0
 28 23  1  0  0  0  0
 28 15  1  0  0  0  0
 29 35  2  0  0  0  0
 29 30  1  0  0  0  0
 30 31  2  0  0  0  0
 31 34  1  0  0  0  0
 33 34  2  0  0  0  0
 34 32  1  0  0  0  0
 35 33  1  0  0  0  0
 37 36  1  0  0  0  0
M  END
>  <MODEL>
3

>  <REMARK>
 VINA RESULT:      -8.6      3.372      6.776
  Name = 
  2 active torsions:
  status: ('A' for Active; 'I' for Inactive)
    1  A    between atoms: C_4  and  C_37
    2  A    between atoms: C_23  and  C_30
                            x       y       z     vdW  Elec       q    Type
                         _______ _______ _______ _____ _____    ______ ____

>  <TORSDO>
F 2

$$$$
=
 OpenBabel11112417083D

 37 43  0  0  1  0  0  0  0  0999 V2000
  193.7830  174.9320  143.1330 C   0  0  0  0  0  2  0  0  0  0  0  0
  191.6730  170.4080  140.5340 C   0  0  0  0  0  0  0  0  0  0  0  0
  190.1340  174.1760  141.5590 C   0  0  0  0  0  0  0  0  0  0  0  0
  195.2680  175.0210  143.4990 C   0  0  2  0  0  3  0  0  0  0  0  0
  190.8290  174.7150  145.1740 O   0  0  0  0  0  0  0  0  0  0  0  0
  189.9820  172.2900  140.0560 C   0  0  0  0  0  0  0  0  0  0  0  0
  191.0230  174.5780  142.6950 C   0  0  1  0  0  3  0  0  0  0  0  0
  194.5530  175.0790  145.9940 C   0  0  2  0  0  3  0  0  0  0  0  0
  190.6600  173.0440  141.0090 C   0  0  0  0  0  0  0  0  0  0  0  0
  190.3190  175.0900  143.9290 C   0  0  0  0  0  0  0  0  0  0  0  0
  188.7720  172.7920  139.5580 C   0  0  0  0  0  3  0  0  0  0  0  0
  195.5870  174.6310  144.9500 C   0  0  0  0  0  2  0  0  0  0  0  0
  191.8690  172.6220  141.7230 C   0  0  2  0  0  3  0  0  0  0  0  0
  192.9280  170.6250  139.7050 C   0  0  0  0  0  1  0  0  0  0  0  0
  188.2530  175.9110  141.6570 C   0  0  0  0  0  2  0  0  0  0  0  0
  188.2540  174.0020  140.0570 C   0  0  0  0  0  3  0  0  0  0  0  0
  191.8200  171.1060  141.9040 C   0  0  0  0  0  2  0  0  0  0  0  0
  193.1690  174.3970  145.8630 C   0  0  1  0  0  3  0  0  0  0  0  0
  191.9970  175.3680  145.6530 C   0  0  0  0  0  2  0  0  0  0  0  0
  188.9220  174.7050  141.0790 C   0  0  0  0  0  0  0  0  0  0  0  0
  191.7950  173.3480  142.9940 N   0  0  1  0  0  0  0  0  0  0  0  0
  190.4420  170.8930  139.7280 C   0  0  0  0  0  2  0  0  0  0  0  0
  189.3660  176.0410  143.8420 C   0  0  0  0  0  0  0  0  0  0  0  0
  191.5230  168.9200  140.7750 C   0  0  0  0  0  1  0  0  0  0  0  0
  193.1860  173.2440  144.9480 N   0  0  0  0  0  2  0  0  0  0  0  0
  194.4680  176.4730  146.0490 O   0  0  0  0  0  1  0  0  0  0  0  0
  193.1500  173.5750  143.5130 C   0  0  2  0  0  3  0  0  0  0  0  0
  189.0730  176.5930  142.5930 O   0  0  0  0  0  0  0  0  0  0  0  0
  189.3790  177.3540  145.9580 C   0  0  0  0  0  3  0  0  0  0  0  0
  188.6580  176.5950  145.0240 C   0  0  0  0  0  0  0  0  0  0  0  0
  187.2760  176.4260  145.2130 C   0  0  0  0  0  3  0  0  0  0  0  0
  185.1740  176.7900  146.5120 C   0  0  0  0  0  1  0  0  0  0  0  0
  187.3680  177.7280  147.2510 C   0  0  0  0  0  3  0  0  0  0  0  0
  186.6350  176.9850  146.3230 C   0  0  0  0  0  0  0  0  0  0  0  0
  188.7400  177.9150  147.0680 C   0  0  0  0  0  3  0  0  0  0  0  0
  197.3140  176.4040  143.1370 C   0  0  0  0  0  1  0  0  0  0  0  0
  195.7990  176.4160  143.2080 C   0  0  0  0  0  2  0  0  0  0  0  0
  1  4  1  0  0  0  0
  1 27  1  0  0  0  0
  2 24  1  0  0  0  0
  2 17  1  0  0  0  0
  4 37  1  1  0  0  0
  4 12  1  0  0  0  0
  5 19  1  0  0  0  0
  6  9  1  0  0  0  0
  7  3  1  6  0  0  0
  7 21  1  0  0  0  0
  7 10  1  0  0  0  0
  8 26  1  6  0  0  0
  9  3  2  0  0  0  0
  9 13  1  0  0  0  0
 10  5  1  0  0  0  0
 11  6  2  0  0  0  0
 11 16  1  0  0  0  0
 12  8  1  0  0  0  0
 13 17  1  1  0  0  0
 13 21  1  0  0  0  0
 14  2  1  0  0  0  0
 15 28  1  0  0  0  0
 16 20  2  0  0  0  0
 18 19  1  6  0  0  0
 18  8  1  0  0  0  0
 20  3  1  0  0  0  0
 20 15  1  0  0  0  0
 21 27  1  0  0  0  0
 22  6  1  0  0  0  0
 22  2  1  0  0  0  0
 23 10  2  0  0  0  0
 23 30  1  0  0  0  0
 25 18  1  0  0  0  0
 27 25  1  0  0  0  0
 28 23  1  0  0  0  0
 29 35  1  0  0  0  0
 30 31  1  0  0  0  0
 30 29  2  0  0  0  0
 31 34  2  0  0  0  0
 34 32  1  0  0  0  0
 34 33  1  0  0  0  0
 35 33  2  0  0  0  0
 36 37  1  0  0  0  0
M  END
>  <MODEL>
4

>  <REMARK>
 VINA RESULT:      -8.5      1.659      5.795
  Name = 
  2 active torsions:
  status: ('A' for Active; 'I' for Inactive)
    1  A    between atoms: C_4  and  C_37
    2  A    between atoms: C_23  and  C_30
                            x       y       z     vdW  Elec       q    Type
                         _______ _______ _______ _____ _____    ______ ____

>  <TORSDO>
F 2

$$$$
=
 OpenBabel11112417083D

 37 43  0  0  1  0  0  0  0  0999 V2000
  191.2790  172.4930  142.4870 C   0  0  0  0  0  2  0  0  0  0  0  0
  195.7700  175.4770  144.1000 C   0  0  0  0  0  0  0  0  0  0  0  0
  191.7350  175.4070  145.2550 C   0  0  0  0  0  0  0  0  0  0  0  0
  191.4090  171.3190  141.5110 C   0  0  2  0  0  3  0  0  0  0  0  0
  189.6880  175.7030  142.1630 O   0  0  0  0  0  0  0  0  0  0  0  0
  194.0020  175.9100  145.9230 C   0  0  0  0  0  0  0  0  0  0  0  0
  191.0720  174.8330  144.0410 C   0  0  1  0  0  3  0  0  0  0  0  0
  189.9480  172.6670  139.8420 C   0  0  2  0  0  3  0  0  0  0  0  0
  193.0830  175.3000  145.0750 C   0  0  0  0  0  0  0  0  0  0  0  0
  189.8560  175.5780  143.5430 C   0  0  0  0  0  0  0  0  0  0  0  0
  193.5170  176.5490  147.0720 C   0  0  0  0  0  3  0  0  0  0  0  0
  191.1030  171.6750  140.0490 C   0  0  0  0  0  2  0  0  0  0  0  0
  193.3950  174.6930  143.7770 C   0  0  2  0  0  3  0  0  0  0  0  0
  196.3230  174.0690  144.2490 C   0  0  0  0  0  1  0  0  0  0  0  0
  189.7570  176.2450  146.6510 C   0  0  0  0  0  2  0  0  0  0  0  0
  192.1300  176.5990  147.3150 C   0  0  0  0  0  3  0  0  0  0  0  0
  194.5530  175.4660  143.1490 C   0  0  0  0  0  2  0  0  0  0  0  0
  190.2200  174.0920  140.3810 C   0  0  1  0  0  3  0  0  0  0  0  0
  189.2130  174.5790  141.4340 C   0  0  0  0  0  2  0  0  0  0  0  0
  191.2170  176.0410  146.4000 C   0  0  0  0  0  0  0  0  0  0  0  0
  192.1480  174.8260  143.0210 N   0  0  1  0  0  0  0  0  0  0  0  0
  195.4440  176.0450  145.5050 C   0  0  0  0  0  2  0  0  0  0  0  0
  188.8620  175.9280  144.3860 C   0  0  0  0  0  0  0  0  0  0  0  0
  196.8480  176.3410  143.4810 C   0  0  0  0  0  1  0  0  0  0  0  0
  191.6330  174.3090  140.7330 N   0  0  0  0  0  2  0  0  0  0  0  0
  188.7400  172.1340  140.3020 O   0  0  0  0  0  1  0  0  0  0  0  0
  192.0540  173.7470  142.0280 C   0  0  2  0  0  3  0  0  0  0  0  0
  188.9420  175.5420  145.7250 O   0  0  0  0  0  0  0  0  0  0  0  0
  186.7860  176.0280  143.0150 C   0  0  0  0  0  3  0  0  0  0  0  0
  187.6370  176.6420  143.9460 C   0  0  0  0  0  0  0  0  0  0  0  0
  187.2730  177.8940  144.4710 C   0  0  0  0  0  3  0  0  0  0  0  0
  185.7310  179.8530  144.6150 C   0  0  0  0  0  1  0  0  0  0  0  0
  185.2660  177.9080  143.1190 C   0  0  0  0  0  3  0  0  0  0  0  0
  186.0970  178.5260  144.0560 C   0  0  0  0  0  0  0  0  0  0  0  0
  185.6090  176.6580  142.5990 C   0  0  0  0  0  3  0  0  0  0  0  0
  190.8890  168.8980  141.2010 C   0  0  0  0  0  1  0  0  0  0  0  0
  190.5320  170.1620  141.9600 C   0  0  0  0  0  2  0  0  0  0  0  0
  2 14  1  0  0  0  0
  2 22  1  0  0  0  0
  3 20  1  0  0  0  0
  4 37  1  1  0  0  0
  4  1  1  0  0  0  0
  5 10  1  0  0  0  0
  6 11  2  0  0  0  0
  7 10  1  6  0  0  0
  7  3  1  0  0  0  0
  8 12  1  0  0  0  0
  8 26  1  1  0  0  0
  8 18  1  0  0  0  0
  9  3  2  0  0  0  0
  9  6  1  0  0  0  0
 10 23  2  0  0  0  0
 11 16  1  0  0  0  0
 12  4  1  0  0  0  0
 13 17  1  6  0  0  0
 13  9  1  0  0  0  0
 17  2  1  0  0  0  0
 18 25  1  0  0  0  0
 18 19  1  1  0  0  0
 19  5  1  0  0  0  0
 20 15  1  0  0  0  0
 20 16  2  0  0  0  0
 21 13  1  0  0  0  0
 21  7  1  0  0  0  0
 22  6  1  0  0  0  0
 23 28  1  0  0  0  0
 24  2  1  0  0  0  0
 25 27  1  0  0  0  0
 27  1  1  0  0  0  0
 27 21  1  0  0  0  0
 28 15  1  0  0  0  0
 29 30  1  0  0  0  0
 30 23  1  0  0  0  0
 30 31  2  0  0  0  0
 33 34  2  0  0  0  0
 34 31  1  0  0  0  0
 34 32  1  0  0  0  0
 35 29  2  0  0  0  0
 35 33  1  0  0  0  0
 36 37  1  0  0  0  0
M  END
>  <MODEL>
5

>  <REMARK>
 VINA RESULT:      -8.4      1.334      1.695
  Name = 
  2 active torsions:
  status: ('A' for Active; 'I' for Inactive)
    1  A    between atoms: C_4  and  C_37
    2  A    between atoms: C_23  and  C_30
                            x       y       z     vdW  Elec       q    Type
                         _______ _______ _______ _____ _____    ______ ____

>  <TORSDO>
F 2

$$$$
=
 OpenBabel11112417083D

 37 43  0  0  1  0  0  0  0  0999 V2000
  190.5750  173.6000  139.5120 C   0  0  0  0  0  2  0  0  0  0  0  0
  187.1160  176.6930  142.6960 C   0  0  0  0  0  0  0  0  0  0  0  0
  191.2340  175.8890  142.7810 C   0  0  0  0  0  0  0  0  0  0  0  0
  190.0920  172.9440  138.2150 C   0  0  2  0  0  3  0  0  0  0  0  0
  191.6490  172.1950  142.6440 O   0  0  0  0  0  0  0  0  0  0  0  0
  189.4840  177.4450  143.3750 C   0  0  0  0  0  0  0  0  0  0  0  0
  191.3150  174.5880  142.0440 C   0  0  1  0  0  3  0  0  0  0  0  0
  190.5600  170.6400  139.3170 C   0  0  2  0  0  3  0  0  0  0  0  0
  189.9590  176.3550  142.6520 C   0  0  0  0  0  0  0  0  0  0  0  0
  192.1280  173.5050  142.7120 C   0  0  0  0  0  0  0  0  0  0  0  0
  190.3940  178.1600  144.1660 C   0  0  0  0  0  3  0  0  0  0  0  0
  189.6860  171.4700  138.3650 C   0  0  0  0  0  2  0  0  0  0  0  0
  189.1350  175.4270  141.8720 C   0  0  2  0  0  3  0  0  0  0  0  0
  186.7770  177.2500  141.3230 C   0  0  0  0  0  1  0  0  0  0  0  0
  193.5730  176.1190  143.8010 C   0  0  0  0  0  2  0  0  0  0  0  0
  191.7360  177.7390  144.2470 C   0  0  0  0  0  3  0  0  0  0  0  0
  187.7720  175.3030  142.5520 C   0  0  0  0  0  2  0  0  0  0  0  0
  190.4730  171.0630  140.8030 C   0  0  1  0  0  3  0  0  0  0  0  0
  191.8140  171.4750  141.4300 C   0  0  0  0  0  2  0  0  0  0  0  0
  192.1720  176.5860  143.5660 C   0  0  0  0  0  0  0  0  0  0  0  0
  189.8980  174.1770  141.8980 N   0  0  1  0  0  0  0  0  0  0  0  0
  188.0030  177.7140  143.4520 C   0  0  0  0  0  2  0  0  0  0  0  0
  193.3710  173.7530  143.1730 C   0  0  0  0  0  0  0  0  0  0  0  0
  185.8230  176.5300  143.4680 C   0  0  0  0  0  1  0  0  0  0  0  0
  189.3590  171.9880  141.0690 N   0  0  0  0  0  2  0  0  0  0  0  0
  191.8760  170.5640  138.8510 O   0  0  0  0  0  1  0  0  0  0  0  0
  189.6000  173.3920  140.6920 C   0  0  2  0  0  3  0  0  0  0  0  0
  193.9260  175.0190  142.9760 O   0  0  0  0  0  0  0  0  0  0  0  0
  193.9070  172.2910  145.1160 C   0  0  0  0  0  3  0  0  0  0  0  0
  194.2210  172.7200  143.8180 C   0  0  0  0  0  0  0  0  0  0  0  0
  195.3030  172.1200  143.1510 C   0  0  0  0  0  3  0  0  0  0  0  0
  197.2100  170.5100  143.0610 C   0  0  0  0  0  1  0  0  0  0  0  0
  195.7470  170.7200  145.0740 C   0  0  0  0  0  3  0  0  0  0  0  0
  196.0650  171.1300  143.7770 C   0  0  0  0  0  0  0  0  0  0  0  0
  194.6660  171.3000  145.7440 C   0  0  0  0  0  3  0  0  0  0  0  0
  192.3110  173.9220  137.6240 C   0  0  0  0  0  1  0  0  0  0  0  0
  191.1470  173.0840  137.1300 C   0  0  0  0  0  2  0  0  0  0  0  0
  1 27  1  0  0  0  0
  2 22  1  0  0  0  0
  2 24  1  0  0  0  0
  3 20  1  0  0  0  0
  4 37  1  6  0  0  0
  4 12  1  0  0  0  0
  4  1  1  0  0  0  0
  5 10  1  0  0  0  0
  6 22  1  0  0  0  0
  6 11  2  0  0  0  0
  7 10  1  1  0  0  0
  7  3  1  0  0  0  0
  8 26  1  6  0  0  0
  8 18  1  0  0  0  0
  9  3  2  0  0  0  0
  9  6  1  0  0  0  0
 10 23  2  0  0  0  0
 11 16  1  0  0  0  0
 12  8  1  0  0  0  0
 13 21  1  0  0  0  0
 13 17  1  1  0  0  0
 13  9  1  0  0  0  0
 14  2  1  0  0  0  0
 17  2  1  0  0  0  0
 18 25  1  0  0  0  0
 18 19  1  6  0  0  0
 19  5  1  0  0  0  0
 20 15  1  0  0  0  0
 20 16  2  0  0  0  0
 21  7  1  0  0  0  0
 23 30  1  0  0  0  0
 27 25  1  0  0  0  0
 27 21  1  0  0  0  0
 28 23  1  0  0  0  0
 28 15  1  0  0  0  0
 29 35  1  0  0  0  0
 30 29  2  0  0  0  0
 31 34  2  0  0  0  0
 31 30  1  0  0  0  0
 32 34  1  0  0  0  0
 33 35  2  0  0  0  0
 34 33  1  0  0  0  0
 37 36  1  0  0  0  0
M  END
>  <MODEL>
6

>  <REMARK>
 VINA RESULT:      -8.0      2.827      6.668
  Name = 
  2 active torsions:
  status: ('A' for Active; 'I' for Inactive)
    1  A    between atoms: C_4  and  C_37
    2  A    between atoms: C_23  and  C_30
                            x       y       z     vdW  Elec       q    Type
                         _______ _______ _______ _____ _____    ______ ____

>  <TORSDO>
F 2

$$$$
=
 OpenBabel11112417083D

 37 43  0  0  1  0  0  0  0  0999 V2000
  194.0400  173.7410  144.1720 C   0  0  0  0  0  2  0  0  0  0  0  0
  189.0670  176.3480  144.5620 C   0  0  0  0  0  0  0  0  0  0  0  0
  190.9890  174.1510  141.5470 C   0  0  0  0  0  0  0  0  0  0  0  0
  194.9630  173.5980  145.3860 C   0  0  2  0  0  3  0  0  0  0  0  0
  194.3890  175.5980  141.1110 O   0  0  0  0  0  0  0  0  0  0  0  0
  188.8720  174.8690  142.4630 C   0  0  0  0  0  0  0  0  0  0  0  0
  192.4310  174.2930  141.9260 C   0  0  1  0  0  3  0  0  0  0  0  0
  196.6900  175.0720  144.1280 C   0  0  2  0  0  3  0  0  0  0  0  0
  190.2450  174.6640  142.5670 C   0  0  0  0  0  0  0  0  0  0  0  0
  193.3670  174.6950  140.8110 C   0  0  0  0  0  0  0  0  0  0  0  0
  188.2230  174.4090  141.3090 C   0  0  0  0  0  3  0  0  0  0  0  0
  196.0660  174.6630  145.4710 C   0  0  0  0  0  2  0  0  0  0  0  0
  191.1020  175.1800  143.6390 C   0  0  2  0  0  3  0  0  0  0  0  0
  189.0060  175.4780  145.8070 C   0  0  0  0  0  1  0  0  0  0  0  0
  191.1100  173.1470  139.1930 C   0  0  0  0  0  2  0  0  0  0  0  0
  188.9670  173.8020  140.2790 C   0  0  0  0  0  3  0  0  0  0  0  0
  190.5340  176.5170  144.1110 C   0  0  0  0  0  2  0  0  0  0  0  0
  195.7240  175.8070  143.1670 C   0  0  1  0  0  3  0  0  0  0  0  0
  195.5330  175.1200  141.8060 C   0  0  0  0  0  2  0  0  0  0  0  0
  190.3660  173.6780  140.3760 C   0  0  0  0  0  0  0  0  0  0  0  0
  192.4150  175.3130  143.0020 N   0  0  1  0  0  0  0  0  0  0  0  0
  188.1570  175.7330  143.4690 C   0  0  0  0  0  2  0  0  0  0  0  0
  193.3520  174.0520  139.6250 C   0  0  0  0  0  0  0  0  0  0  0  0
  188.5200  177.7140  144.9180 C   0  0  0  0  0  1  0  0  0  0  0  0
  194.4760  176.2290  143.8250 N   0  0  0  0  0  2  0  0  0  0  0  0
  197.3360  173.9890  143.5240 O   0  0  0  0  0  1  0  0  0  0  0  0
  193.4710  175.1680  144.0120 C   0  0  2  0  0  3  0  0  0  0  0  0
  192.4930  172.9650  139.4560 O   0  0  0  0  0  0  0  0  0  0  0  0
  193.8440  175.3260  137.5430 C   0  0  0  0  0  3  0  0  0  0  0  0
  194.2630  174.3930  138.5030 C   0  0  0  0  0  0  0  0  0  0  0  0
  195.5550  173.8490  138.3990 C   0  0  0  0  0  3  0  0  0  0  0  0
  197.7580  173.6230  137.2450 C   0  0  0  0  0  1  0  0  0  0  0  0
  195.9630  175.1350  136.3900 C   0  0  0  0  0  3  0  0  0  0  0  0
  196.3980  174.2130  137.3450 C   0  0  0  0  0  0  0  0  0  0  0  0
  194.6860  175.6930  136.4890 C   0  0  0  0  0  3  0  0  0  0  0  0
  194.5090  171.1580  145.6460 C   0  0  0  0  0  1  0  0  0  0  0  0
  195.5780  172.2090  145.4180 C   0  0  0  0  0  2  0  0  0  0  0  0
  1  4  1  0  0  0  0
  2 24  1  0  0  0  0
  2 14  1  0  0  0  0
  3  7  1  0  0  0  0
  3  9  1  0  0  0  0
  4 37  1  6  0  0  0
  4 12  1  0  0  0  0
  5 19  1  0  0  0  0
  6  9  2  0  0  0  0
  6 22  1  0  0  0  0
  7 10  1  6  0  0  0
  7 21  1  0  0  0  0
  8 26  1  6  0  0  0
  8 12  1  0  0  0  0
  9 13  1  0  0  0  0
 10  5  1  0  0  0  0
 11  6  1  0  0  0  0
 13 17  1  6  0  0  0
 15 28  1  0  0  0  0
 15 20  1  0  0  0  0
 16 20  1  0  0  0  0
 16 11  2  0  0  0  0
 17  2  1  0  0  0  0
 18 19  1  6  0  0  0
 18 25  1  0  0  0  0
 18  8  1  0  0  0  0
 20  3  2  0  0  0  0
 21 13  1  0  0  0  0
 21 27  1  0  0  0  0
 22  2  1  0  0  0  0
 23 10  2  0  0  0  0
 25 27  1  0  0  0  0
 27  1  1  0  0  0  0
 28 23  1  0  0  0  0
 29 30  1  0  0  0  0
 30 23  1  0  0  0  0
 31 30  2  0  0  0  0
 32 34  1  0  0  0  0
 33 35  1  0  0  0  0
 33 34  2  0  0  0  0
 34 31  1  0  0  0  0
 35 29  2  0  0  0  0
 37 36  1  0  0  0  0
M  END
>  <MODEL>
7

>  <REMARK>
 VINA RESULT:      -7.8      3.225      8.135
  Name = 
  2 active torsions:
  status: ('A' for Active; 'I' for Inactive)
    1  A    between atoms: C_4  and  C_37
    2  A    between atoms: C_23  and  C_30
                            x       y       z     vdW  Elec       q    Type
                         _______ _______ _______ _____ _____    ______ ____

>  <TORSDO>
F 2

$$$$
=
 OpenBabel11112417083D

 37 43  0  0  1  0  0  0  0  0999 V2000
  193.3130  171.6000  141.8800 C   0  0  0  0  0  2  0  0  0  0  0  0
  197.1060  174.6620  139.0670 C   0  0  0  0  0  0  0  0  0  0  0  0
  195.1600  175.0900  142.7610 C   0  0  0  0  0  0  0  0  0  0  0  0
  192.8860  170.2130  141.3890 C   0  0  2  0  0  3  0  0  0  0  0  0
  191.5110  174.7010  142.1460 O   0  0  0  0  0  0  0  0  0  0  0  0
  197.1190  175.6290  141.4540 C   0  0  0  0  0  0  0  0  0  0  0  0
  193.9270  174.2630  142.5620 C   0  0  1  0  0  3  0  0  0  0  0  0
  190.4940  171.1700  141.0670 C   0  0  2  0  0  3  0  0  0  0  0  0
  195.9750  174.8730  141.6900 C   0  0  0  0  0  0  0  0  0  0  0  0
  192.6260  174.9190  142.9590 C   0  0  0  0  0  0  0  0  0  0  0  0
  197.5060  176.5600  142.4280 C   0  0  0  0  0  3  0  0  0  0  0  0
  191.5830  170.2050  140.5750 C   0  0  0  0  0  2  0  0  0  0  0  0
  195.3590  173.9440  140.7370 C   0  0  2  0  0  3  0  0  0  0  0  0
  197.8020  173.3110  139.0590 C   0  0  0  0  0  1  0  0  0  0  0  0
  194.6640  176.3500  144.9350 C   0  0  0  0  0  2  0  0  0  0  0  0
  196.7170  176.7400  143.5810 C   0  0  0  0  0  3  0  0  0  0  0  0
  195.5950  174.4740  139.3240 C   0  0  0  0  0  2  0  0  0  0  0  0
  190.8510  172.6690  140.9260 C   0  0  1  0  0  3  0  0  0  0  0  0
  190.8340  173.4560  142.2460 C   0  0  0  0  0  2  0  0  0  0  0  0
  195.5220  176.0170  143.7560 C   0  0  0  0  0  0  0  0  0  0  0  0
  193.9430  173.9450  141.1140 N   0  0  1  0  0  0  0  0  0  0  0  0
  197.7940  175.5810  140.1080 C   0  0  0  0  0  2  0  0  0  0  0  0
  192.4870  175.5190  144.1590 C   0  0  0  0  0  0  0  0  0  0  0  0
  197.2800  175.2870  137.6990 C   0  0  0  0  0  1  0  0  0  0  0  0
  192.0420  172.8960  140.0900 N   0  0  0  0  0  2  0  0  0  0  0  0
  190.0680  170.8320  142.3550 O   0  0  0  0  0  1  0  0  0  0  0  0
  193.3350  172.6570  140.7540 C   0  0  2  0  0  3  0  0  0  0  0  0
  193.5510  175.4790  145.0630 O   0  0  0  0  0  0  0  0  0  0  0  0
  190.8200  177.3630  144.0080 C   0  0  0  0  0  3  0  0  0  0  0  0
  191.2250  176.1610  144.6070 C   0  0  0  0  0  0  0  0  0  0  0  0
  190.3940  175.5770  145.5790 C   0  0  0  0  0  3  0  0  0  0  0  0
  188.3350  175.5680  146.9910 C   0  0  0  0  0  1  0  0  0  0  0  0
  188.8130  177.3970  145.3600 C   0  0  0  0  0  3  0  0  0  0  0  0
  189.1980  176.1940  145.9570 C   0  0  0  0  0  0  0  0  0  0  0  0
  189.6240  177.9810  144.3830 C   0  0  0  0  0  3  0  0  0  0  0  0
  193.1230  169.9530  143.8600 C   0  0  0  0  0  1  0  0  0  0  0  0
  192.7720  169.2520  142.5610 C   0  0  0  0  0  2  0  0  0  0  0  0
  2 17  1  0  0  0  0
  2 22  1  0  0  0  0
  3 20  1  0  0  0  0
  4  1  1  0  0  0  0
  4 37  1  1  0  0  0
  5 19  1  0  0  0  0
  5 10  1  0  0  0  0
  6  9  1  0  0  0  0
  6 11  2  0  0  0  0
  7  3  1  6  0  0  0
  7 10  1  0  0  0  0
  8 26  1  1  0  0  0
  9  3  2  0  0  0  0
 10 23  2  0  0  0  0
 11 16  1  0  0  0  0
 12  8  1  0  0  0  0
 12  4  1  0  0  0  0
 13 17  1  6  0  0  0
 13 21  1  0  0  0  0
 13  9  1  0  0  0  0
 14  2  1  0  0  0  0
 15 28  1  0  0  0  0
 16 20  2  0  0  0  0
 18  8  1  0  0  0  0
 18 19  1  1  0  0  0
 20 15  1  0  0  0  0
 21  7  1  0  0  0  0
 22  6  1  0  0  0  0
 23 30  1  0  0  0  0
 23 28  1  0  0  0  0
 24  2  1  0  0  0  0
 25 27  1  0  0  0  0
 25 18  1  0  0  0  0
 27 21  1  0  0  0  0
 27  1  1  0  0  0  0
 29 35  2  0  0  0  0
 29 30  1  0  0  0  0
 30 31  2  0  0  0  0
 31 34  1  0  0  0  0
 33 34  2  0  0  0  0
 34 32  1  0  0  0  0
 35 33  1  0  0  0  0
 37 36  1  0  0  0  0
M  END
>  <MODEL>
8

>  <REMARK>
 VINA RESULT:      -7.7      2.154      3.593
  Name = 
  2 active torsions:
  status: ('A' for Active; 'I' for Inactive)
    1  A    between atoms: C_4  and  C_37
    2  A    between atoms: C_23  and  C_30
                            x       y       z     vdW  Elec       q    Type
                         _______ _______ _______ _____ _____    ______ ____

>  <TORSDO>
F 2

$$$$
=
 OpenBabel11112417083D

 37 43  0  0  1  0  0  0  0  0999 V2000
  193.4950  174.5840  140.7270 C   0  0  0  0  0  2  0  0  0  0  0  0
  188.9110  176.4210  143.4280 C   0  0  0  0  0  0  0  0  0  0  0  0
  192.7800  175.3320  144.6380 C   0  0  0  0  0  0  0  0  0  0  0  0
  193.5530  174.5350  139.1970 C   0  0  2  0  0  3  0  0  0  0  0  0
  193.4900  171.9740  143.2020 O   0  0  0  0  0  0  0  0  0  0  0  0
  190.8220  176.6560  145.1380 C   0  0  0  0  0  0  0  0  0  0  0  0
  193.2130  174.4280  143.5260 C   0  0  1  0  0  3  0  0  0  0  0  0
  193.7700  171.9550  139.3820 C   0  0  2  0  0  3  0  0  0  0  0  0
  191.6020  175.9090  144.2620 C   0  0  0  0  0  0  0  0  0  0  0  0
  193.8150  173.1090  143.9490 C   0  0  0  0  0  0  0  0  0  0  0  0
  191.3370  176.9260  146.4140 C   0  0  0  0  0  3  0  0  0  0  0  0
  193.2310  173.1590  138.5960 C   0  0  0  0  0  2  0  0  0  0  0  0
  191.1790  175.4330  142.9420 C   0  0  2  0  0  3  0  0  0  0  0  0
  189.0400  177.5010  142.3650 C   0  0  0  0  0  1  0  0  0  0  0  0
  194.5810  174.9570  146.4200 C   0  0  0  0  0  2  0  0  0  0  0  0
  192.5900  176.4050  146.7900 C   0  0  0  0  0  3  0  0  0  0  0  0
  189.6780  175.1550  142.9860 C   0  0  0  0  0  2  0  0  0  0  0  0
  193.1310  171.7590  140.7780 C   0  0  1  0  0  3  0  0  0  0  0  0
  194.1280  171.7840  141.9460 C   0  0  0  0  0  2  0  0  0  0  0  0
  193.3240  175.5860  145.9110 C   0  0  0  0  0  0  0  0  0  0  0  0
  191.9750  174.2190  142.7370 N   0  0  1  0  0  0  0  0  0  0  0  0
  189.3940  176.9870  144.7870 C   0  0  0  0  0  2  0  0  0  0  0  0
  194.7920  173.0580  144.8780 C   0  0  0  0  0  0  0  0  0  0  0  0
  187.4450  176.0660  143.5590 C   0  0  0  0  0  1  0  0  0  0  0  0
  191.9290  172.5880  140.9760 N   0  0  0  0  0  2  0  0  0  0  0  0
  195.1680  171.9680  139.4230 O   0  0  0  0  0  1  0  0  0  0  0  0
  192.1830  174.0020  141.2990 C   0  0  2  0  0  3  0  0  0  0  0  0
  195.2840  174.2510  145.4090 O   0  0  0  0  0  0  0  0  0  0  0  0
  196.7870  171.5740  145.0210 C   0  0  0  0  0  3  0  0  0  0  0  0
  195.4330  171.7910  145.3150 C   0  0  0  0  0  0  0  0  0  0  0  0
  194.7390  170.8210  146.0600 C   0  0  0  0  0  3  0  0  0  0  0  0
  194.6310  168.6350  147.2610 C   0  0  0  0  0  1  0  0  0  0  0  0
  196.7270  169.4450  146.1700 C   0  0  0  0  0  3  0  0  0  0  0  0
  195.3810  169.6530  146.4800 C   0  0  0  0  0  0  0  0  0  0  0  0
  197.4310  170.4070  145.4410 C   0  0  0  0  0  3  0  0  0  0  0  0
  195.7930  175.4000  139.8780 C   0  0  0  0  0  1  0  0  0  0  0  0
  194.9100  175.0120  138.7070 C   0  0  0  0  0  2  0  0  0  0  0  0
  1 27  1  0  0  0  0
  2 24  1  0  0  0  0
  2 22  1  0  0  0  0
  3 20  1  0  0  0  0
  4 37  1  1  0  0  0
  4  1  1  0  0  0  0
  5 10  1  0  0  0  0
  6 11  2  0  0  0  0
  7 10  1  1  0  0  0
  7  3  1  0  0  0  0
  8 26  1  1  0  0  0
  8 18  1  0  0  0  0
  9  3  2  0  0  0  0
  9  6  1  0  0  0  0
 10 23  2  0  0  0  0
 11 16  1  0  0  0  0
 12  4  1  0  0  0  0
 12  8  1  0  0  0  0
 13 17  1  1  0  0  0
 13  9  1  0  0  0  0
 14  2  1  0  0  0  0
 17  2  1  0  0  0  0
 18 25  1  0  0  0  0
 18 19  1  1  0  0  0
 19  5  1  0  0  0  0
 20 15  1  0  0  0  0
 20 16  2  0  0  0  0
 21 13  1  0  0  0  0
 21  7  1  0  0  0  0
 22  6  1  0  0  0  0
 23 30  1  0  0  0  0
 23 28  1  0  0  0  0
 25 27  1  0  0  0  0
 27 21  1  0  0  0  0
 28 15  1  0  0  0  0
 29 30  2  0  0  0  0
 29 35  1  0  0  0  0
 30 31  1  0  0  0  0
 31 34  2  0  0  0  0
 33 34  1  0  0  0  0
 34 32  1  0  0  0  0
 35 33  2  0  0  0  0
 37 36  1  0  0  0  0
M  END
>  <MODEL>
9

>  <REMARK>
 VINA RESULT:      -7.7      3.619      6.955
  Name = 
  2 active torsions:
  status: ('A' for Active; 'I' for Inactive)
    1  A    between atoms: C_4  and  C_37
    2  A    between atoms: C_23  and  C_30
                            x       y       z     vdW  Elec       q    Type
                         _______ _______ _______ _____ _____    ______ ____

>  <TORSDO>
F 2

$$$$
