=
 OpenBabel11112417153D

 37 42  0  0  1  0  0  0  0  0999 V2000
  194.6670  175.7380  144.4480 C   0  0  1  0  0  0  0  0  0  0  0  0
  190.7240  175.8550  145.8230 C   0  0  0  0  0  0  0  0  0  0  0  0
  189.2250  177.9310  144.5430 C   0  0  0  0  0  1  0  0  0  0  0  0
  193.0250  176.2410  146.3430 C   0  0  0  0  0  0  0  0  0  0  0  0
  189.8790  175.5810  144.6180 C   0  0  1  0  0  3  0  0  0  0  0  0
  192.0300  175.8340  145.4710 C   0  0  0  0  0  0  0  0  0  0  0  0
  188.7710  176.5390  144.4530 N   0  0  0  0  0  0  0  0  0  0  0  0
  192.6620  176.6550  147.5930 N   0  0  0  0  0  0  0  0  0  0  0  0
  192.2260  175.6180  144.0960 N   0  0  0  0  0  0  0  0  0  0  0  0
  194.8720  174.2450  144.6410 C   0  0  0  0  0  1  0  0  0  0  0  0
  188.8880  176.5920  147.3640 C   0  0  0  0  0  2  0  0  0  0  0  0
  191.3450  176.6980  147.9760 C   0  0  0  0  0  3  0  0  0  0  0  0
  193.4950  175.9730  143.4690 C   0  0  0  0  0  2  0  0  0  0  0  0
  190.3310  176.3040  147.0820 C   0  0  0  0  0  0  0  0  0  0  0  0
  190.9100  175.6270  143.4500 C   0  0  1  0  0  3  0  0  0  0  0  0
  194.4300  176.4060  145.8250 C   0  0  0  0  0  2  0  0  0  0  0  0
  187.6790  176.2420  145.4140 C   0  0  1  0  0  3  0  0  0  0  0  0
  195.8270  176.2720  143.8890 O   0  0  0  0  0  1  0  0  0  0  0  0
  188.0580  175.6920  146.6700 O   0  0  0  0  0  0  0  0  0  0  0  0
  190.1550  173.2170  143.1650 C   0  0  0  0  0  2  0  0  0  0  0  0
  190.2730  172.0010  142.2990 C   0  0  0  0  0  0  0  0  0  0  0  0
  188.7360  172.8310  140.5650 C   0  0  0  0  0  0  0  0  0  0  0  0
  189.6050  171.8710  141.1890 N   0  0  0  0  0  0  0  0  0  0  0  0
  188.6640  174.2730  140.9770 C   0  0  1  0  0  3  0  0  0  0  0  0
  187.8300  174.4470  142.0670 F   0  0  0  0  0  0  0  0  0  0  0  0
  190.0490  174.8860  141.2000 C   0  0  0  0  0  2  0  0  0  0  0  0
  188.0070  172.4540  139.6110 O   0  0  0  0  0  0  0  0  0  0  0  0
  190.7640  174.4470  142.4880 C   0  0  1  0  0  3  0  0  0  0  0  0
  191.8240  171.0030  143.8710 O   0  0  0  0  0  1  0  0  0  0  0  0
  191.1140  170.9280  142.7210 N   0  0  0  0  0  2  0  0  0  0  0  0
  185.4320  177.0280  146.2890 C   0  0  0  0  0  3  0  0  0  0  0  0
  186.5350  177.2200  145.4440 C   0  0  0  0  0  0  0  0  0  0  0  0
  186.5950  178.3590  144.6340 C   0  0  0  0  0  3  0  0  0  0  0  0
  185.6170  180.3920  143.8670 F   0  0  0  0  0  0  0  0  0  0  0  0
  184.4550  179.0960  145.4950 C   0  0  0  0  0  3  0  0  0  0  0  0
  185.5550  179.2930  144.6570 C   0  0  0  0  0  0  0  0  0  0  0  0
  184.3940  177.9620  146.3120 C   0  0  0  0  0  3  0  0  0  0  0  0
  1 10  1  1  0  0  0
  1 16  1  0  0  0  0
  2 14  1  0  0  0  0
  4  8  2  0  0  0  0
  5  2  1  1  0  0  0
  6  2  2  0  0  0  0
  6  4  1  0  0  0  0
  7  3  1  0  0  0  0
  7  5  1  0  0  0  0
  7 17  1  0  0  0  0
  8 12  1  0  0  0  0
  9  6  1  0  0  0  0
 13  9  1  0  0  0  0
 13  1  1  0  0  0  0
 14 11  1  0  0  0  0
 14 12  2  0  0  0  0
 15  9  1  1  0  0  0
 15  5  1  0  0  0  0
 16  4  1  0  0  0  0
 17 32  1  1  0  0  0
 17 19  1  0  0  0  0
 18  1  1  0  0  0  0
 19 11  1  0  0  0  0
 21 30  1  0  0  0  0
 21 20  1  0  0  0  0
 22 24  1  0  0  0  0
 22 23  1  0  0  0  0
 23 21  2  0  0  0  0
 24 26  1  0  0  0  0
 24 25  1  1  0  0  0
 27 22  2  0  0  0  0
 28 26  1  6  0  0  0
 28 20  1  0  0  0  0
 28 15  1  0  0  0  0
 30 29  1  0  0  0  0
 31 37  1  0  0  0  0
 32 31  2  0  0  0  0
 33 36  2  0  0  0  0
 33 32  1  0  0  0  0
 34 36  1  0  0  0  0
 35 37  2  0  0  0  0
 36 35  1  0  0  0  0
M  END
>  <MODEL>
1

>  <REMARK>
 VINA RESULT:     -10.1      0.000      0.000
  Name = 
  2 active torsions:
  status: ('A' for Active; 'I' for Inactive)
    1  A    between atoms: C_21  and  C_27
    2  A    between atoms: C_23  and  C_30
                            x       y       z     vdW  Elec       q    Type
                         _______ _______ _______ _____ _____    ______ ____

>  <TORSDO>
F 2

$$$$
=
 OpenBabel11112417153D

 37 42  0  0  1  0  0  0  0  0999 V2000
  189.6980  172.4940  139.4850 C   0  0  1  0  0  0  0  0  0  0  0  0
  188.1910  176.0440  141.0900 C   0  0  0  0  0  0  0  0  0  0  0  0
  186.3980  175.5390  143.2630 C   0  0  0  0  0  1  0  0  0  0  0  0
  188.2000  174.5500  139.2250 C   0  0  0  0  0  0  0  0  0  0  0  0
  188.6600  176.0640  142.5110 C   0  0  1  0  0  3  0  0  0  0  0  0
  188.6380  174.9200  140.4840 C   0  0  0  0  0  0  0  0  0  0  0  0
  187.5870  176.3710  143.4740 N   0  0  0  0  0  0  0  0  0  0  0  0
  187.3050  175.3600  138.5850 N   0  0  0  0  0  0  0  0  0  0  0  0
  189.3560  174.0780  141.3490 N   0  0  0  0  0  0  0  0  0  0  0  0
  191.0350  173.0610  139.0390 C   0  0  0  0  0  1  0  0  0  0  0  0
  186.5570  177.9400  141.2460 C   0  0  0  0  0  2  0  0  0  0  0  0
  186.8240  176.5010  139.1780 C   0  0  0  0  0  3  0  0  0  0  0  0
  189.5490  172.6700  141.0130 C   0  0  0  0  0  2  0  0  0  0  0  0
  187.2550  176.8680  140.4680 C   0  0  0  0  0  0  0  0  0  0  0  0
  189.2640  174.6400  142.7000 C   0  0  1  0  0  3  0  0  0  0  0  0
  188.5580  173.1850  138.6960 C   0  0  0  0  0  2  0  0  0  0  0  0
  187.2680  177.8210  143.4530 C   0  0  1  0  0  3  0  0  0  0  0  0
  189.6790  171.1320  139.1910 O   0  0  0  0  0  1  0  0  0  0  0  0
  187.4210  178.4950  142.2090 O   0  0  0  0  0  0  0  0  0  0  0  0
  191.5150  175.8080  142.8640 C   0  0  0  0  0  2  0  0  0  0  0  0
  192.9320  175.6570  143.3250 C   0  0  0  0  0  0  0  0  0  0  0  0
  192.4160  176.0210  145.7040 C   0  0  0  0  0  0  0  0  0  0  0  0
  193.2740  175.7930  144.5730 N   0  0  0  0  0  0  0  0  0  0  0  0
  190.9220  175.8770  145.6510 C   0  0  1  0  0  3  0  0  0  0  0  0
  190.3210  177.0190  145.1510 F   0  0  0  0  0  0  0  0  0  0  0  0
  190.4830  174.6140  144.9060 C   0  0  0  0  0  2  0  0  0  0  0  0
  192.9390  176.3420  146.8030 O   0  0  0  0  0  0  0  0  0  0  0  0
  190.6360  174.6650  143.3770 C   0  0  1  0  0  3  0  0  0  0  0  0
  193.6560  175.2560  141.0470 O   0  0  0  0  0  1  0  0  0  0  0  0
  193.9510  175.3960  142.3610 N   0  0  0  0  0  2  0  0  0  0  0  0
  184.8860  178.6500  143.7170 C   0  0  0  0  0  3  0  0  0  0  0  0
  186.1010  178.2580  144.2970 C   0  0  0  0  0  0  0  0  0  0  0  0
  186.2280  178.2410  145.6900 C   0  0  0  0  0  3  0  0  0  0  0  0
  185.2830  178.6070  147.8470 F   0  0  0  0  0  0  0  0  0  0  0  0
  183.9460  179.0190  145.9170 C   0  0  0  0  0  3  0  0  0  0  0  0
  185.1530  178.6230  146.4990 C   0  0  0  0  0  0  0  0  0  0  0  0
  183.8120  179.0320  144.5250 C   0  0  0  0  0  3  0  0  0  0  0  0
  1 10  1  6  0  0  0
  1 13  1  0  0  0  0
  3  7  1  0  0  0  0
  4  6  2  0  0  0  0
  5  2  1  6  0  0  0
  5 15  1  0  0  0  0
  5  7  1  0  0  0  0
  6  2  1  0  0  0  0
  6  9  1  0  0  0  0
  8 12  2  0  0  0  0
  8  4  1  0  0  0  0
 11 19  1  0  0  0  0
 12 14  1  0  0  0  0
 13  9  1  0  0  0  0
 14  2  2  0  0  0  0
 14 11  1  0  0  0  0
 15  9  1  6  0  0  0
 15 28  1  0  0  0  0
 16  4  1  0  0  0  0
 16  1  1  0  0  0  0
 17  7  1  0  0  0  0
 17 32  1  6  0  0  0
 18  1  1  0  0  0  0
 19 17  1  0  0  0  0
 20 21  1  0  0  0  0
 21 23  2  0  0  0  0
 22 27  2  0  0  0  0
 23 22  1  0  0  0  0
 24 25  1  6  0  0  0
 24 22  1  0  0  0  0
 26 24  1  0  0  0  0
 28 20  1  1  0  0  0
 28 26  1  0  0  0  0
 29 30  1  0  0  0  0
 30 21  1  0  0  0  0
 31 32  2  0  0  0  0
 31 37  1  0  0  0  0
 32 33  1  0  0  0  0
 33 36  2  0  0  0  0
 35 36  1  0  0  0  0
 36 34  1  0  0  0  0
 37 35  2  0  0  0  0
M  END
>  <MODEL>
2

>  <REMARK>
 VINA RESULT:      -9.3      2.462      5.768
  Name = 
  2 active torsions:
  status: ('A' for Active; 'I' for Inactive)
    1  A    between atoms: C_21  and  C_27
    2  A    between atoms: C_23  and  C_30
                            x       y       z     vdW  Elec       q    Type
                         _______ _______ _______ _____ _____    ______ ____

>  <TORSDO>
F 2

$$$$
=
 OpenBabel11112417153D

 37 42  0  0  1  0  0  0  0  0999 V2000
  194.8560  175.8480  143.6130 C   0  0  1  0  0  0  0  0  0  0  0  0
  191.0780  175.7910  145.3940 C   0  0  0  0  0  0  0  0  0  0  0  0
  189.3760  177.8250  144.3170 C   0  0  0  0  0  1  0  0  0  0  0  0
  193.4050  176.2580  145.6780 C   0  0  0  0  0  0  0  0  0  0  0  0
  190.1220  175.5010  144.2800 C   0  0  1  0  0  3  0  0  0  0  0  0
  192.3400  175.8260  144.9070 C   0  0  0  0  0  0  0  0  0  0  0  0
  188.9680  176.4180  144.2490 N   0  0  0  0  0  0  0  0  0  0  0  0
  193.1600  176.6390  146.9670 N   0  0  0  0  0  0  0  0  0  0  0  0
  192.3970  175.6380  143.5160 N   0  0  0  0  0  0  0  0  0  0  0  0
  195.1350  174.3610  143.7560 C   0  0  0  0  0  1  0  0  0  0  0  0
  189.3880  176.4320  147.1320 C   0  0  0  0  0  2  0  0  0  0  0  0
  191.8890  176.6250  147.4860 C   0  0  0  0  0  3  0  0  0  0  0  0
  193.5790  176.0520  142.7660 C   0  0  0  0  0  2  0  0  0  0  0  0
  190.8020  176.2050  146.6960 C   0  0  0  0  0  0  0  0  0  0  0  0
  191.0210  175.6050  143.0120 C   0  0  1  0  0  3  0  0  0  0  0  0
  194.7400  176.4860  145.0200 C   0  0  0  0  0  2  0  0  0  0  0  0
  187.9940  176.0640  145.3130 C   0  0  1  0  0  3  0  0  0  0  0  0
  195.9300  176.4340  142.9460 O   0  0  0  0  0  1  0  0  0  0  0  0
  188.5240  175.5110  146.5120 O   0  0  0  0  0  0  0  0  0  0  0  0
  192.1460  173.8700  141.5340 C   0  0  0  0  0  2  0  0  0  0  0  0
  191.9330  172.9220  140.3950 C   0  0  0  0  0  0  0  0  0  0  0  0
  190.7860  171.2200  141.7540 C   0  0  0  0  0  0  0  0  0  0  0  0
  191.3630  171.7620  140.5530 N   0  0  0  0  0  0  0  0  0  0  0  0
  190.5170  172.0360  142.9840 C   0  0  1  0  0  3  0  0  0  0  0  0
  191.6520  172.1660  143.7640 F   0  0  0  0  0  0  0  0  0  0  0  0
  189.8750  173.3880  142.6600 C   0  0  0  0  0  2  0  0  0  0  0  0
  190.4730  170.0010  141.7740 O   0  0  0  0  0  0  0  0  0  0  0  0
  190.8200  174.4350  142.0470 C   0  0  1  0  0  3  0  0  0  0  0  0
  193.0170  174.4670  138.8740 O   0  0  0  0  0  1  0  0  0  0  0  0
  192.4060  173.2790  139.0960 N   0  0  0  0  0  2  0  0  0  0  0  0
  186.6430  177.7360  146.6590 C   0  0  0  0  0  3  0  0  0  0  0  0
  186.8240  176.9960  145.4810 C   0  0  0  0  0  0  0  0  0  0  0  0
  185.9200  177.1470  144.4240 C   0  0  0  0  0  3  0  0  0  0  0  0
  183.9610  178.1600  143.5200 F   0  0  0  0  0  0  0  0  0  0  0  0
  184.6550  178.7520  145.7230 C   0  0  0  0  0  3  0  0  0  0  0  0
  184.8350  178.0210  144.5460 C   0  0  0  0  0  0  0  0  0  0  0  0
  185.5590  178.6090  146.7800 C   0  0  0  0  0  3  0  0  0  0  0  0
  1 10  1  1  0  0  0
  1 16  1  0  0  0  0
  2 14  1  0  0  0  0
  4  8  2  0  0  0  0
  5  2  1  1  0  0  0
  6  2  2  0  0  0  0
  6  4  1  0  0  0  0
  7  5  1  0  0  0  0
  7  3  1  0  0  0  0
  7 17  1  0  0  0  0
  8 12  1  0  0  0  0
  9  6  1  0  0  0  0
 13  9  1  0  0  0  0
 13  1  1  0  0  0  0
 14 11  1  0  0  0  0
 14 12  2  0  0  0  0
 15  9  1  1  0  0  0
 15  5  1  0  0  0  0
 16  4  1  0  0  0  0
 17 32  1  1  0  0  0
 17 19  1  0  0  0  0
 18  1  1  0  0  0  0
 19 11  1  0  0  0  0
 21 23  2  0  0  0  0
 21 20  1  0  0  0  0
 22 27  2  0  0  0  0
 22 24  1  0  0  0  0
 23 22  1  0  0  0  0
 24 25  1  6  0  0  0
 26 24  1  0  0  0  0
 28 20  1  1  0  0  0
 28 26  1  0  0  0  0
 28 15  1  0  0  0  0
 29 30  1  0  0  0  0
 30 21  1  0  0  0  0
 31 37  1  0  0  0  0
 32 31  2  0  0  0  0
 33 36  2  0  0  0  0
 33 32  1  0  0  0  0
 34 36  1  0  0  0  0
 35 37  2  0  0  0  0
 36 35  1  0  0  0  0
M  END
>  <MODEL>
3

>  <REMARK>
 VINA RESULT:      -9.1      1.754      2.118
  Name = 
  2 active torsions:
  status: ('A' for Active; 'I' for Inactive)
    1  A    between atoms: C_21  and  C_27
    2  A    between atoms: C_23  and  C_30
                            x       y       z     vdW  Elec       q    Type
                         _______ _______ _______ _____ _____    ______ ____

>  <TORSDO>
F 2

$$$$
=
 OpenBabel11112417153D

 37 42  0  0  1  0  0  0  0  0999 V2000
  191.2070  171.7130  140.8970 C   0  0  1  0  0  0  0  0  0  0  0  0
  189.3960  175.3550  141.8490 C   0  0  0  0  0  0  0  0  0  0  0  0
  187.8700  175.1710  144.2630 C   0  0  0  0  0  1  0  0  0  0  0  0
  189.4420  173.4830  140.3630 C   0  0  0  0  0  0  0  0  0  0  0  0
  189.9750  175.7480  143.1720 C   0  0  1  0  0  3  0  0  0  0  0  0
  189.9320  174.1760  141.4560 C   0  0  0  0  0  0  0  0  0  0  0  0
  188.9560  176.1510  144.1570 N   0  0  0  0  0  0  0  0  0  0  0  0
  188.4010  174.0260  139.6650 N   0  0  0  0  0  0  0  0  0  0  0  0
  190.8220  173.6350  142.3990 N   0  0  0  0  0  0  0  0  0  0  0  0
  192.4190  172.3020  140.1950 C   0  0  0  0  0  1  0  0  0  0  0  0
  187.5520  177.0510  141.7680 C   0  0  0  0  0  2  0  0  0  0  0  0
  187.8280  175.2150  140.0450 C   0  0  0  0  0  3  0  0  0  0  0  0
  191.1640  172.2170  142.3570 C   0  0  0  0  0  2  0  0  0  0  0  0
  188.3140  175.9100  141.1690 C   0  0  0  0  0  0  0  0  0  0  0  0
  190.7700  174.4770  143.5970 C   0  0  1  0  0  3  0  0  0  0  0  0
  189.9260  172.0810  140.1070 C   0  0  0  0  0  2  0  0  0  0  0  0
  188.4530  177.5150  143.8570 C   0  0  1  0  0  3  0  0  0  0  0  0
  191.3390  170.3250  140.9090 O   0  0  0  0  0  1  0  0  0  0  0  0
  188.4140  177.9000  142.4870 O   0  0  0  0  0  0  0  0  0  0  0  0
  192.8180  175.9570  143.3240 C   0  0  0  0  0  2  0  0  0  0  0  0
  194.2790  176.0810  143.6330 C   0  0  0  0  0  0  0  0  0  0  0  0
  193.9380  176.7520  145.9770 C   0  0  0  0  0  0  0  0  0  0  0  0
  194.7120  176.4640  144.7990 N   0  0  0  0  0  0  0  0  0  0  0  0
  192.4870  176.3960  146.1200 C   0  0  1  0  0  3  0  0  0  0  0  0
  191.6720  177.3470  145.5320 F   0  0  0  0  0  0  0  0  0  0  0  0
  192.1810  174.9800  145.6250 C   0  0  0  0  0  2  0  0  0  0  0  0
  194.5060  177.3160  146.9480 O   0  0  0  0  0  0  0  0  0  0  0  0
  192.1790  174.8020  144.0990 C   0  0  1  0  0  3  0  0  0  0  0  0
  194.8390  175.4190  141.3700 O   0  0  0  0  0  1  0  0  0  0  0  0
  195.2310  175.8100  142.6050 N   0  0  0  0  0  2  0  0  0  0  0  0
  186.2760  178.7800  144.1670 C   0  0  0  0  0  3  0  0  0  0  0  0
  187.3140  178.0070  144.7090 C   0  0  0  0  0  0  0  0  0  0  0  0
  187.2790  177.6560  146.0630 C   0  0  0  0  0  3  0  0  0  0  0  0
  186.1960  177.7430  148.1840 F   0  0  0  0  0  0  0  0  0  0  0  0
  185.1930  178.8580  146.3300 C   0  0  0  0  0  3  0  0  0  0  0  0
  186.2220  178.0840  146.8730 C   0  0  0  0  0  0  0  0  0  0  0  0
  185.2210  179.2060  144.9770 C   0  0  0  0  0  3  0  0  0  0  0  0
  1 10  1  6  0  0  0
  1 18  1  0  0  0  0
  1 13  1  0  0  0  0
  4  6  2  0  0  0  0
  5  2  1  6  0  0  0
  5 15  1  0  0  0  0
  5  7  1  0  0  0  0
  6  2  1  0  0  0  0
  6  9  1  0  0  0  0
  7  3  1  0  0  0  0
  8 12  2  0  0  0  0
  8  4  1  0  0  0  0
 11 19  1  0  0  0  0
 12 14  1  0  0  0  0
 13  9  1  0  0  0  0
 14 11  1  0  0  0  0
 14  2  2  0  0  0  0
 15  9  1  6  0  0  0
 15 28  1  0  0  0  0
 16  4  1  0  0  0  0
 16  1  1  0  0  0  0
 17  7  1  0  0  0  0
 17 32  1  6  0  0  0
 19 17  1  0  0  0  0
 20 21  1  0  0  0  0
 21 23  2  0  0  0  0
 22 24  1  0  0  0  0
 22 27  2  0  0  0  0
 23 22  1  0  0  0  0
 24 25  1  6  0  0  0
 26 24  1  0  0  0  0
 28 20  1  6  0  0  0
 28 26  1  0  0  0  0
 29 30  1  0  0  0  0
 30 21  1  0  0  0  0
 31 32  2  0  0  0  0
 31 37  1  0  0  0  0
 32 33  1  0  0  0  0
 33 36  2  0  0  0  0
 35 36  1  0  0  0  0
 36 34  1  0  0  0  0
 37 35  2  0  0  0  0
M  END
>  <MODEL>
4

>  <REMARK>
 VINA RESULT:      -8.9      2.317      5.572
  Name = 
  2 active torsions:
  status: ('A' for Active; 'I' for Inactive)
    1  A    between atoms: C_21  and  C_27
    2  A    between atoms: C_23  and  C_30
                            x       y       z     vdW  Elec       q    Type
                         _______ _______ _______ _____ _____    ______ ____

>  <TORSDO>
F 2

$$$$
=
 OpenBabel11112417153D

 37 42  0  0  1  0  0  0  0  0999 V2000
  194.0040  175.8150  145.5910 C   0  0  1  0  0  0  0  0  0  0  0  0
  189.9040  175.8780  144.7950 C   0  0  0  0  0  0  0  0  0  0  0  0
  189.2880  177.5780  142.5760 C   0  0  0  0  0  1  0  0  0  0  0  0
  191.6500  176.5190  146.2960 C   0  0  0  0  0  0  0  0  0  0  0  0
  189.7640  175.3330  143.4080 C   0  0  1  0  0  3  0  0  0  0  0  0
  191.2110  175.8930  145.1430 C   0  0  0  0  0  0  0  0  0  0  0  0
  188.9070  176.1620  142.5410 N   0  0  0  0  0  0  0  0  0  0  0  0
  190.7230  177.1190  147.1010 N   0  0  0  0  0  0  0  0  0  0  0  0
  192.0590  175.4540  144.1130 N   0  0  0  0  0  0  0  0  0  0  0  0
  194.0510  174.3990  146.1390 C   0  0  0  0  0  1  0  0  0  0  0  0
  187.5620  176.7350  145.0610 C   0  0  0  0  0  2  0  0  0  0  0  0
  189.3900  177.1310  146.7700 C   0  0  0  0  0  3  0  0  0  0  0  0
  193.4800  175.7870  144.1370 C   0  0  0  0  0  2  0  0  0  0  0  0
  188.9470  176.5100  145.5860 C   0  0  0  0  0  0  0  0  0  0  0  0
  191.2390  175.2510  142.9140 C   0  0  1  0  0  3  0  0  0  0  0  0
  193.1290  176.6960  146.5170 C   0  0  0  0  0  2  0  0  0  0  0  0
  187.4750  175.9580  142.8750 C   0  0  1  0  0  3  0  0  0  0  0  0
  195.3010  176.3270  145.5850 O   0  0  0  0  0  1  0  0  0  0  0  0
  187.1670  175.6680  144.2340 O   0  0  0  0  0  0  0  0  0  0  0  0
  191.0230  172.7220  143.0440 C   0  0  0  0  0  2  0  0  0  0  0  0
  191.5790  171.4270  142.5370 C   0  0  0  0  0  0  0  0  0  0  0  0
  190.4370  171.5490  140.3600 C   0  0  0  0  0  0  0  0  0  0  0  0
  191.2630  170.9450  141.3690 N   0  0  0  0  0  0  0  0  0  0  0  0
  190.0060  172.9870  140.3950 C   0  0  1  0  0  3  0  0  0  0  0  0
  188.8950  173.1630  141.2000 F   0  0  0  0  0  0  0  0  0  0  0  0
  191.1520  173.9310  140.7680 C   0  0  0  0  0  2  0  0  0  0  0  0
  190.0660  170.8460  139.3840 O   0  0  0  0  0  0  0  0  0  0  0  0
  191.5650  173.9120  142.2490 C   0  0  1  0  0  3  0  0  0  0  0  0
  192.8070  171.1170  144.6030 O   0  0  0  0  0  1  0  0  0  0  0  0
  192.4520  170.6710  143.3750 N   0  0  0  0  0  2  0  0  0  0  0  0
  186.6340  177.1260  140.7870 C   0  0  0  0  0  3  0  0  0  0  0  0
  186.4910  176.8380  142.1520 C   0  0  0  0  0  0  0  0  0  0  0  0
  185.3950  177.3510  142.8550 C   0  0  0  0  0  3  0  0  0  0  0  0
  183.3980  178.6510  142.8910 F   0  0  0  0  0  0  0  0  0  0  0  0
  184.6040  178.4440  140.8450 C   0  0  0  0  0  3  0  0  0  0  0  0
  184.4560  178.1550  142.2040 C   0  0  0  0  0  0  0  0  0  0  0  0
  185.6940  177.9300  140.1360 C   0  0  0  0  0  3  0  0  0  0  0  0
  1 10  1  1  0  0  0
  1 16  1  0  0  0  0
  2  6  2  0  0  0  0
  2 14  1  0  0  0  0
  4 16  1  0  0  0  0
  4  8  2  0  0  0  0
  5  2  1  1  0  0  0
  6  4  1  0  0  0  0
  7  3  1  0  0  0  0
  7 17  1  0  0  0  0
  7  5  1  0  0  0  0
  9 13  1  0  0  0  0
  9  6  1  0  0  0  0
 11 14  1  0  0  0  0
 12  8  1  0  0  0  0
 13  1  1  0  0  0  0
 14 12  2  0  0  0  0
 15  5  1  0  0  0  0
 15  9  1  1  0  0  0
 17 32  1  1  0  0  0
 17 19  1  0  0  0  0
 18  1  1  0  0  0  0
 19 11  1  0  0  0  0
 21 20  1  0  0  0  0
 21 30  1  0  0  0  0
 22 24  1  0  0  0  0
 22 23  1  0  0  0  0
 23 21  2  0  0  0  0
 24 26  1  0  0  0  0
 24 25  1  1  0  0  0
 27 22  2  0  0  0  0
 28 26  1  6  0  0  0
 28 15  1  0  0  0  0
 28 20  1  0  0  0  0
 30 29  1  0  0  0  0
 31 32  1  0  0  0  0
 32 33  2  0  0  0  0
 35 36  2  0  0  0  0
 36 33  1  0  0  0  0
 36 34  1  0  0  0  0
 37 31  2  0  0  0  0
 37 35  1  0  0  0  0
M  END
>  <MODEL>
5

>  <REMARK>
 VINA RESULT:      -8.8      2.008      2.436
  Name = 
  2 active torsions:
  status: ('A' for Active; 'I' for Inactive)
    1  A    between atoms: C_21  and  C_27
    2  A    between atoms: C_23  and  C_30
                            x       y       z     vdW  Elec       q    Type
                         _______ _______ _______ _____ _____    ______ ____

>  <TORSDO>
F 2

$$$$
=
 OpenBabel11112417153D

 37 42  0  0  1  0  0  0  0  0999 V2000
  194.8050  175.3560  144.9240 C   0  0  1  0  0  0  0  0  0  0  0  0
  190.7460  175.8870  145.7550 C   0  0  0  0  0  0  0  0  0  0  0  0
  189.5820  177.8910  144.0760 C   0  0  0  0  0  1  0  0  0  0  0  0
  192.9900  176.1810  146.5240 C   0  0  0  0  0  0  0  0  0  0  0  0
  190.0350  175.5280  144.4880 C   0  0  1  0  0  3  0  0  0  0  0  0
  192.0800  175.7410  145.5800 C   0  0  0  0  0  0  0  0  0  0  0  0
  189.0340  176.5300  144.0780 N   0  0  0  0  0  0  0  0  0  0  0  0
  192.5110  176.7610  147.6650 N   0  0  0  0  0  0  0  0  0  0  0  0
  192.4230  175.3540  144.2740 N   0  0  0  0  0  0  0  0  0  0  0  0
  194.8670  173.8860  145.3020 C   0  0  0  0  0  1  0  0  0  0  0  0
  188.8000  176.9150  146.9570 C   0  0  0  0  0  2  0  0  0  0  0  0
  191.1650  176.9340  147.8670 C   0  0  0  0  0  3  0  0  0  0  0  0
  193.7830  175.5510  143.7820 C   0  0  0  0  0  2  0  0  0  0  0  0
  190.2390  176.5040  146.8970 C   0  0  0  0  0  0  0  0  0  0  0  0
  191.2000  175.3720  143.4650 C   0  0  1  0  0  3  0  0  0  0  0  0
  194.4560  176.1950  146.1790 C   0  0  0  0  0  2  0  0  0  0  0  0
  187.8130  176.4190  144.9150 C   0  0  1  0  0  3  0  0  0  0  0  0
  196.0630  175.7450  144.4660 O   0  0  0  0  0  1  0  0  0  0  0  0
  187.9930  175.9960  146.2620 O   0  0  0  0  0  0  0  0  0  0  0  0
  190.2020  174.3000  141.3880 C   0  0  0  0  0  2  0  0  0  0  0  0
  189.8710  172.9940  140.7340 C   0  0  0  0  0  0  0  0  0  0  0  0
  192.1830  172.5240  140.0310 C   0  0  0  0  0  0  0  0  0  0  0  0
  190.7700  172.2750  140.1260 N   0  0  0  0  0  0  0  0  0  0  0  0
  192.9000  173.5490  140.8610 C   0  0  1  0  0  3  0  0  0  0  0  0
  192.7900  174.8130  140.3100 F   0  0  0  0  0  0  0  0  0  0  0  0
  192.4720  173.5140  142.3300 C   0  0  0  0  0  2  0  0  0  0  0  0
  192.8620  171.8380  139.2240 O   0  0  0  0  0  0  0  0  0  0  0  0
  191.0810  174.0990  142.6250 C   0  0  1  0  0  3  0  0  0  0  0  0
  187.5400  173.2510  141.3440 O   0  0  0  0  0  1  0  0  0  0  0  0
  188.5180  172.5390  140.7380 N   0  0  0  0  0  2  0  0  0  0  0  0
  186.3930  178.3660  145.7030 C   0  0  0  0  0  3  0  0  0  0  0  0
  186.7550  177.4650  144.6920 C   0  0  0  0  0  0  0  0  0  0  0  0
  186.1450  177.5550  143.4350 C   0  0  0  0  0  3  0  0  0  0  0  0
  184.5840  178.6120  141.9760 F   0  0  0  0  0  0  0  0  0  0  0  0
  184.8110  179.4240  144.2070 C   0  0  0  0  0  3  0  0  0  0  0  0
  185.1730  178.5310  143.1940 C   0  0  0  0  0  0  0  0  0  0  0  0
  185.4210  179.3410  145.4620 C   0  0  0  0  0  3  0  0  0  0  0  0
  1 10  1  1  0  0  0
  1 16  1  0  0  0  0
  2 14  1  0  0  0  0
  3  7  1  0  0  0  0
  4  8  2  0  0  0  0
  5  2  1  1  0  0  0
  6  2  2  0  0  0  0
  6  4  1  0  0  0  0
  7  5  1  0  0  0  0
  7 17  1  0  0  0  0
  8 12  1  0  0  0  0
  9  6  1  0  0  0  0
 13  9  1  0  0  0  0
 13  1  1  0  0  0  0
 14 11  1  0  0  0  0
 14 12  2  0  0  0  0
 15  9  1  1  0  0  0
 15  5  1  0  0  0  0
 16  4  1  0  0  0  0
 17 32  1  1  0  0  0
 17 19  1  0  0  0  0
 18  1  1  0  0  0  0
 19 11  1  0  0  0  0
 21 30  1  0  0  0  0
 21 20  1  0  0  0  0
 22 23  1  0  0  0  0
 22 24  1  0  0  0  0
 23 21  2  0  0  0  0
 24 25  1  6  0  0  0
 24 26  1  0  0  0  0
 26 28  1  0  0  0  0
 27 22  2  0  0  0  0
 28 20  1  6  0  0  0
 28 15  1  0  0  0  0
 30 29  1  0  0  0  0
 32 31  2  0  0  0  0
 33 32  1  0  0  0  0
 34 36  1  0  0  0  0
 35 37  2  0  0  0  0
 36 33  2  0  0  0  0
 36 35  1  0  0  0  0
 37 31  1  0  0  0  0
M  END
>  <MODEL>
6

>  <REMARK>
 VINA RESULT:      -8.6      1.667      2.156
  Name = 
  2 active torsions:
  status: ('A' for Active; 'I' for Inactive)
    1  A    between atoms: C_21  and  C_27
    2  A    between atoms: C_23  and  C_30
                            x       y       z     vdW  Elec       q    Type
                         _______ _______ _______ _____ _____    ______ ____

>  <TORSDO>
F 2

$$$$
=
 OpenBabel11112417153D

 37 42  0  0  1  0  0  0  0  0999 V2000
  193.7270  170.1660  143.9600 C   0  0  1  0  0  0  0  0  0  0  0  0
  191.0280  173.2970  143.3580 C   0  0  0  0  0  0  0  0  0  0  0  0
  189.6910  174.0140  145.7840 C   0  0  0  0  0  1  0  0  0  0  0  0
  191.5300  170.9960  142.9490 C   0  0  0  0  0  0  0  0  0  0  0  0
  191.5230  174.4140  144.2220 C   0  0  1  0  0  3  0  0  0  0  0  0
  191.8510  172.2300  143.4870 C   0  0  0  0  0  0  0  0  0  0  0  0
  190.4660  175.0210  145.0510 N   0  0  0  0  0  0  0  0  0  0  0  0
  190.3580  170.8740  142.2580 N   0  0  0  0  0  0  0  0  0  0  0  0
  192.8850  172.4420  144.4130 N   0  0  0  0  0  0  0  0  0  0  0  0
  194.7090  170.5740  142.8750 C   0  0  0  0  0  1  0  0  0  0  0  0
  188.7910  174.2740  142.7870 C   0  0  0  0  0  2  0  0  0  0  0  0
  189.4980  171.9340  142.1200 C   0  0  0  0  0  3  0  0  0  0  0  0
  193.5980  171.3080  144.9930 C   0  0  0  0  0  2  0  0  0  0  0  0
  189.8140  173.1850  142.6840 C   0  0  0  0  0  0  0  0  0  0  0  0
  192.6470  173.7360  145.0610 C   0  0  1  0  0  3  0  0  0  0  0  0
  192.3690  169.7990  143.3120 C   0  0  0  0  0  2  0  0  0  0  0  0
  189.6010  175.9040  144.2280 C   0  0  1  0  0  3  0  0  0  0  0  0
  194.2310  169.0380  144.6060 O   0  0  0  0  0  1  0  0  0  0  0  0
  189.4140  175.5330  142.8660 O   0  0  0  0  0  0  0  0  0  0  0  0
  194.2780  175.1800  143.7510 C   0  0  0  0  0  2  0  0  0  0  0  0
  195.6620  175.7520  143.7470 C   0  0  0  0  0  0  0  0  0  0  0  0
  195.1480  177.5480  145.3490 C   0  0  0  0  0  0  0  0  0  0  0  0
  195.9780  176.8090  144.4380 N   0  0  0  0  0  0  0  0  0  0  0  0
  193.8250  177.0490  145.8540 C   0  0  1  0  0  3  0  0  0  0  0  0
  192.8090  177.3070  144.9500 F   0  0  0  0  0  0  0  0  0  0  0  0
  193.8750  175.5770  146.2680 C   0  0  0  0  0  2  0  0  0  0  0  0
  195.5530  178.6650  145.7630 O   0  0  0  0  0  0  0  0  0  0  0  0
  193.9310  174.5680  145.1100 C   0  0  1  0  0  3  0  0  0  0  0  0
  196.3860  174.0540  142.1760 O   0  0  0  0  0  1  0  0  0  0  0  0
  196.6600  175.1480  142.9260 N   0  0  0  0  0  2  0  0  0  0  0  0
  188.4750  176.9600  146.2390 C   0  0  0  0  0  3  0  0  0  0  0  0
  188.4010  176.4920  144.9190 C   0  0  0  0  0  0  0  0  0  0  0  0
  187.1970  176.6000  144.2140 C   0  0  0  0  0  3  0  0  0  0  0  0
  184.9080  177.2600  144.1390 F   0  0  0  0  0  0  0  0  0  0  0  0
  186.1480  177.6210  146.1430 C   0  0  0  0  0  3  0  0  0  0  0  0
  186.0720  177.1610  144.8260 C   0  0  0  0  0  0  0  0  0  0  0  0
  187.3500  177.5200  146.8500 C   0  0  0  0  0  3  0  0  0  0  0  0
  1 10  1  6  0  0  0
  1 18  1  0  0  0  0
  1 13  1  0  0  0  0
  2  6  1  0  0  0  0
  4 16  1  0  0  0  0
  4  6  2  0  0  0  0
  5  2  1  6  0  0  0
  5  7  1  0  0  0  0
  5 15  1  0  0  0  0
  6  9  1  0  0  0  0
  7  3  1  0  0  0  0
  8  4  1  0  0  0  0
  9 13  1  0  0  0  0
 11 19  1  0  0  0  0
 12  8  2  0  0  0  0
 12 14  1  0  0  0  0
 14 11  1  0  0  0  0
 14  2  2  0  0  0  0
 15  9  1  6  0  0  0
 15 28  1  0  0  0  0
 16  1  1  0  0  0  0
 17 32  1  1  0  0  0
 17  7  1  0  0  0  0
 19 17  1  0  0  0  0
 21 20  1  0  0  0  0
 21 23  2  0  0  0  0
 22 27  2  0  0  0  0
 22 24  1  0  0  0  0
 23 22  1  0  0  0  0
 24 25  1  6  0  0  0
 24 26  1  0  0  0  0
 28 20  1  6  0  0  0
 28 26  1  0  0  0  0
 29 30  1  0  0  0  0
 30 21  1  0  0  0  0
 31 37  1  0  0  0  0
 32 31  2  0  0  0  0
 33 36  2  0  0  0  0
 33 32  1  0  0  0  0
 34 36  1  0  0  0  0
 35 37  2  0  0  0  0
 36 35  1  0  0  0  0
M  END
>  <MODEL>
7

>  <REMARK>
 VINA RESULT:      -8.6      2.551      5.581
  Name = 
  2 active torsions:
  status: ('A' for Active; 'I' for Inactive)
    1  A    between atoms: C_21  and  C_27
    2  A    between atoms: C_23  and  C_30
                            x       y       z     vdW  Elec       q    Type
                         _______ _______ _______ _____ _____    ______ ____

>  <TORSDO>
F 2

$$$$
=
 OpenBabel11112417153D

 37 42  0  0  1  0  0  0  0  0999 V2000
  185.6650  177.8370  146.3020 C   0  0  1  0  0  0  0  0  0  0  0  0
  189.5290  176.5290  145.4040 C   0  0  0  0  0  0  0  0  0  0  0  0
  189.8020  173.7070  145.7950 C   0  0  0  0  0  1  0  0  0  0  0  0
  188.1490  177.7780  146.9030 C   0  0  0  0  0  0  0  0  0  0  0  0
  189.3650  175.5630  144.2720 C   0  0  1  0  0  3  0  0  0  0  0  0
  188.3170  177.0120  145.7630 C   0  0  0  0  0  0  0  0  0  0  0  0
  190.0840  174.2940  144.4810 N   0  0  0  0  0  0  0  0  0  0  0  0
  189.2490  178.0600  147.6630 N   0  0  0  0  0  0  0  0  0  0  0  0
  187.2610  176.4470  145.0300 N   0  0  0  0  0  0  0  0  0  0  0  0
  185.6410  178.9920  145.3150 C   0  0  0  0  0  1  0  0  0  0  0  0
  191.9240  176.0170  145.9410 C   0  0  0  0  0  2  0  0  0  0  0  0
  190.4900  177.5750  147.3310 C   0  0  0  0  0  3  0  0  0  0  0  0
  185.8940  176.5130  145.5380 C   0  0  0  0  0  2  0  0  0  0  0  0
  190.6580  176.7780  146.1820 C   0  0  0  0  0  0  0  0  0  0  0  0
  187.8190  175.3850  144.1870 C   0  0  1  0  0  3  0  0  0  0  0  0
  186.7540  178.0980  147.3720 C   0  0  0  0  0  2  0  0  0  0  0  0
  191.5390  174.4760  144.2490 C   0  0  1  0  0  3  0  0  0  0  0  0
  184.4250  177.7750  146.9350 O   0  0  0  0  0  1  0  0  0  0  0  0
  192.0880  175.7490  144.5690 O   0  0  0  0  0  0  0  0  0  0  0  0
  187.7640  176.7650  142.0530 C   0  0  0  0  0  2  0  0  0  0  0  0
  187.0260  176.9880  140.7690 C   0  0  0  0  0  0  0  0  0  0  0  0
  187.9850  175.0250  139.6350 C   0  0  0  0  0  0  0  0  0  0  0  0
  187.1860  176.2160  139.7330 N   0  0  0  0  0  0  0  0  0  0  0  0
  188.5740  174.3240  140.8250 C   0  0  1  0  0  3  0  0  0  0  0  0
  189.7630  174.9110  141.2220 F   0  0  0  0  0  0  0  0  0  0  0  0
  187.5760  174.1930  141.9790 C   0  0  0  0  0  2  0  0  0  0  0  0
  188.1910  174.5290  138.4970 O   0  0  0  0  0  0  0  0  0  0  0  0
  187.2910  175.4890  142.7540 C   0  0  1  0  0  3  0  0  0  0  0  0
  185.9520  178.9520  141.6980 O   0  0  0  0  0  1  0  0  0  0  0  0
  186.1490  178.1090  140.6580 N   0  0  0  0  0  2  0  0  0  0  0  0
  193.5180  173.3950  145.4100 C   0  0  0  0  0  3  0  0  0  0  0  0
  192.4150  173.2890  144.5500 C   0  0  0  0  0  0  0  0  0  0  0  0
  192.0990  172.0510  143.9810 C   0  0  0  0  0  3  0  0  0  0  0  0
  192.5740  169.7320  143.7030 F   0  0  0  0  0  0  0  0  0  0  0  0
  193.9850  171.0380  145.1130 C   0  0  0  0  0  3  0  0  0  0  0  0
  192.8840  170.9280  144.2590 C   0  0  0  0  0  0  0  0  0  0  0  0
  194.3020  172.2720  145.6890 C   0  0  0  0  0  3  0  0  0  0  0  0
  1 10  1  6  0  0  0
  1 18  1  0  0  0  0
  1 16  1  0  0  0  0
  2  6  2  0  0  0  0
  2 14  1  0  0  0  0
  4 16  1  0  0  0  0
  4  8  2  0  0  0  0
  5  7  1  0  0  0  0
  5  2  1  1  0  0  0
  6  4  1  0  0  0  0
  7  3  1  0  0  0  0
  9 13  1  0  0  0  0
  9  6  1  0  0  0  0
 11 14  1  0  0  0  0
 12  8  1  0  0  0  0
 13  1  1  0  0  0  0
 14 12  2  0  0  0  0
 15  5  1  0  0  0  0
 15  9  1  1  0  0  0
 17  7  1  0  0  0  0
 17 32  1  1  0  0  0
 17 19  1  0  0  0  0
 19 11  1  0  0  0  0
 20 28  1  0  0  0  0
 21 20  1  0  0  0  0
 22 23  1  0  0  0  0
 22 24  1  0  0  0  0
 23 21  2  0  0  0  0
 24 25  1  1  0  0  0
 24 26  1  0  0  0  0
 27 22  2  0  0  0  0
 28 26  1  6  0  0  0
 28 15  1  0  0  0  0
 30 21  1  0  0  0  0
 30 29  1  0  0  0  0
 31 37  1  0  0  0  0
 32 31  2  0  0  0  0
 33 36  2  0  0  0  0
 33 32  1  0  0  0  0
 34 36  1  0  0  0  0
 35 37  2  0  0  0  0
 36 35  1  0  0  0  0
M  END
>  <MODEL>
8

>  <REMARK>
 VINA RESULT:      -8.6      2.841      6.814
  Name = 
  2 active torsions:
  status: ('A' for Active; 'I' for Inactive)
    1  A    between atoms: C_21  and  C_27
    2  A    between atoms: C_23  and  C_30
                            x       y       z     vdW  Elec       q    Type
                         _______ _______ _______ _____ _____    ______ ____

>  <TORSDO>
F 2

$$$$
=
 OpenBabel11112417153D

 37 42  0  0  1  0  0  0  0  0999 V2000
  195.9270  175.6260  143.0010 C   0  0  1  0  0  0  0  0  0  0  0  0
  192.0450  175.4550  144.5350 C   0  0  0  0  0  0  0  0  0  0  0  0
  190.3160  177.3270  143.2320 C   0  0  0  0  0  1  0  0  0  0  0  0
  194.3200  176.0680  144.9400 C   0  0  0  0  0  0  0  0  0  0  0  0
  191.1830  175.0500  143.3800 C   0  0  1  0  0  3  0  0  0  0  0  0
  193.3340  175.5340  144.1290 C   0  0  0  0  0  0  0  0  0  0  0  0
  189.9870  175.8970  143.2210 N   0  0  0  0  0  0  0  0  0  0  0  0
  193.9690  176.5060  146.1850 N   0  0  0  0  0  0  0  0  0  0  0  0
  193.4950  175.2730  142.7580 N   0  0  0  0  0  0  0  0  0  0  0  0
  196.2740  174.1680  143.2490 C   0  0  0  0  0  1  0  0  0  0  0  0
  190.2110  176.0970  146.1190 C   0  0  0  0  0  2  0  0  0  0  0  0
  192.6690  176.4500  146.6210 C   0  0  0  0  0  3  0  0  0  0  0  0
  194.7010  175.7100  142.0630 C   0  0  0  0  0  2  0  0  0  0  0  0
  191.6610  175.9250  145.7890 C   0  0  0  0  0  0  0  0  0  0  0  0
  192.1600  175.1340  142.1690 C   0  0  1  0  0  3  0  0  0  0  0  0
  195.6830  176.3340  144.3570 C   0  0  0  0  0  2  0  0  0  0  0  0
  188.9640  175.5500  144.2390 C   0  0  1  0  0  3  0  0  0  0  0  0
  197.0110  176.2340  142.3700 O   0  0  0  0  0  1  0  0  0  0  0  0
  189.4400  175.0950  145.5010 O   0  0  0  0  0  0  0  0  0  0  0  0
  191.8230  172.6170  142.0550 C   0  0  0  0  0  2  0  0  0  0  0  0
  192.0270  171.4010  141.2050 C   0  0  0  0  0  0  0  0  0  0  0  0
  190.1140  171.8610  139.7250 C   0  0  0  0  0  0  0  0  0  0  0  0
  191.2300  171.1010  140.2200 N   0  0  0  0  0  0  0  0  0  0  0  0
  189.8450  173.2850  140.1160 C   0  0  1  0  0  3  0  0  0  0  0  0
  189.1710  173.3600  141.3230 F   0  0  0  0  0  0  0  0  0  0  0  0
  191.1110  174.1450  140.1010 C   0  0  0  0  0  2  0  0  0  0  0  0
  189.3280  171.3140  138.9090 O   0  0  0  0  0  0  0  0  0  0  0  0
  192.0850  173.9010  141.2650 C   0  0  1  0  0  3  0  0  0  0  0  0
  193.9590  170.7710  142.5250 O   0  0  0  0  0  1  0  0  0  0  0  0
  193.1050  170.5160  141.5060 N   0  0  0  0  0  2  0  0  0  0  0  0
  186.8070  176.4180  143.2270 C   0  0  0  0  0  3  0  0  0  0  0  0
  187.7380  176.4220  144.2760 C   0  0  0  0  0  0  0  0  0  0  0  0
  187.5130  177.2280  145.3970 C   0  0  0  0  0  3  0  0  0  0  0  0
  186.1600  178.8150  146.5520 F   0  0  0  0  0  0  0  0  0  0  0  0
  185.4490  178.0310  144.4160 C   0  0  0  0  0  3  0  0  0  0  0  0
  186.3720  178.0340  145.4650 C   0  0  0  0  0  0  0  0  0  0  0  0
  185.6670  177.2230  143.2960 C   0  0  0  0  0  3  0  0  0  0  0  0
  1 10  1  1  0  0  0
  1 16  1  0  0  0  0
  2 14  1  0  0  0  0
  4  8  2  0  0  0  0
  5  2  1  1  0  0  0
  6  2  2  0  0  0  0
  6  4  1  0  0  0  0
  7  3  1  0  0  0  0
  7  5  1  0  0  0  0
  7 17  1  0  0  0  0
  8 12  1  0  0  0  0
  9  6  1  0  0  0  0
 13  9  1  0  0  0  0
 13  1  1  0  0  0  0
 14 11  1  0  0  0  0
 14 12  2  0  0  0  0
 15  9  1  1  0  0  0
 15  5  1  0  0  0  0
 16  4  1  0  0  0  0
 17 32  1  1  0  0  0
 17 19  1  0  0  0  0
 18  1  1  0  0  0  0
 19 11  1  0  0  0  0
 21 30  1  0  0  0  0
 21 20  1  0  0  0  0
 22 24  1  0  0  0  0
 22 23  1  0  0  0  0
 23 21  2  0  0  0  0
 24 25  1  1  0  0  0
 26 24  1  0  0  0  0
 27 22  2  0  0  0  0
 28 26  1  6  0  0  0
 28 20  1  0  0  0  0
 28 15  1  0  0  0  0
 30 29  1  0  0  0  0
 31 37  2  0  0  0  0
 31 32  1  0  0  0  0
 32 33  2  0  0  0  0
 33 36  1  0  0  0  0
 35 36  2  0  0  0  0
 36 34  1  0  0  0  0
 37 35  1  0  0  0  0
M  END
>  <MODEL>
9

>  <REMARK>
 VINA RESULT:      -8.4      1.701      2.071
  Name = 
  2 active torsions:
  status: ('A' for Active; 'I' for Inactive)
    1  A    between atoms: C_21  and  C_27
    2  A    between atoms: C_23  and  C_30
                            x       y       z     vdW  Elec       q    Type
                         _______ _______ _______ _____ _____    ______ ____

>  <TORSDO>
F 2

$$$$
