=
 OpenBabel11112416223D

 30 35  0  0  1  0  0  0  0  0999 V2000
  187.0210  176.6230  144.3260 C   0  0  2  0  0  3  0  0  0  0  0  0
  185.2610  177.9400  145.6220 C   0  0  0  0  0  0  0  0  0  0  0  0
  189.7290  177.2650  147.5360 N   0  0  0  0  0  2  0  0  0  0  0  0
  188.3570  175.9320  144.4230 N   0  0  1  0  0  0  0  0  0  0  0  0
  186.8870  177.5090  143.0780 C   0  0  0  0  0  2  0  0  0  0  0  0
  187.3370  174.3160  142.1950 O   0  0  0  0  0  1  0  0  0  0  0  0
  191.5360  175.5250  143.2590 C   0  0  1  0  0  3  0  0  0  0  0  0
  188.0050  175.5190  141.9530 C   0  0  1  0  0  3  0  0  0  0  0  0
  191.6530  176.4670  144.4650 C   0  0  2  0  0  3  0  0  0  0  0  0
  190.9110  176.7890  146.9100 C   0  0  0  0  0  0  0  0  0  0  0  0
  186.9820  176.6490  141.8130 C   0  0  2  0  0  3  0  0  0  0  0  0
  188.9930  175.8220  143.0890 C   0  0  2  0  0  3  0  0  0  0  0  0
  184.8490  178.6660  146.7440 C   0  0  0  0  0  3  0  0  0  0  0  0
  193.0780  176.2470  144.9020 C   0  0  0  0  0  2  0  0  0  0  0  0
  192.5370  174.5460  143.3540 O   0  0  0  0  0  0  0  0  0  0  0  0
  184.3970  177.7860  144.5880 F   0  0  0  0  0  0  0  0  0  0  0  0
  188.6660  176.7630  146.6910 C   0  0  2  0  0  3  0  0  0  0  0  0
  185.7050  178.8230  147.8360 C   0  0  0  0  0  3  0  0  0  0  0  0
  186.5530  177.3810  145.5730 C   0  0  0  0  0  0  0  0  0  0  0  0
  189.2530  176.7050  145.3020 C   0  0  1  0  0  3  0  0  0  0  0  0
  192.0380  176.8660  147.4660 O   0  0  0  0  0  0  0  0  0  0  0  0
  190.6490  176.1240  145.5890 C   0  0  1  0  0  3  0  0  0  0  0  0
  193.6200  175.2020  143.9530 C   0  0  0  0  0  2  0  0  0  0  0  0
  190.0350  173.6930  143.0380 O   0  0  0  0  0  0  0  0  0  0  0  0
  186.9760  178.2480  147.8130 C   0  0  0  0  0  3  0  0  0  0  0  0
  187.4070  177.5460  146.6810 C   0  0  0  0  0  0  0  0  0  0  0  0
  190.1770  174.9050  143.0980 C   0  0  0  0  0  0  0  0  0  0  0  0
  187.3380  177.5170  140.6150 C   0  0  0  0  0  2  0  0  0  0  0  0
  184.9440  178.0710  140.1830 C   0  0  0  0  0  1  0  0  0  0  0  0
  186.2220  177.5190  139.5810 C   0  0  0  0  0  2  0  0  0  0  0  0
  1  5  1  6  0  0  0
  1  4  1  0  0  0  0
  1 19  1  0  0  0  0
  2 13  1  0  0  0  0
  4 20  1  0  0  0  0
  7 15  1  0  0  0  0
  7  9  1  0  0  0  0
  8  6  1  0  0  0  0
  8 12  1  0  0  0  0
  9 14  1  0  0  0  0
  9 22  1  0  0  0  0
 10 21  2  0  0  0  0
 10  3  1  0  0  0  0
 11  8  1  0  0  0  0
 11  5  1  0  0  0  0
 12 27  1  0  0  0  0
 12  4  1  0  0  0  0
 13 18  2  0  0  0  0
 15 23  1  0  0  0  0
 16  2  1  0  0  0  0
 17  3  1  0  0  0  0
 19  2  2  0  0  0  0
 19 26  1  0  0  0  0
 20 22  1  0  0  0  0
 20 17  1  0  0  0  0
 22 10  1  0  0  0  0
 23 14  1  0  0  0  0
 24 27  2  0  0  0  0
 25 18  1  0  0  0  0
 26 17  1  0  0  0  0
 26 25  2  0  0  0  0
 27  7  1  0  0  0  0
 28 11  1  0  0  0  0
 30 29  1  0  0  0  0
 30 28  1  0  0  0  0
M  END
>  <MODEL>
1

>  <REMARK>
 VINA RESULT:      -8.5      0.000      0.000
  Name = 
  2 active torsions:
  status: ('A' for Active; 'I' for Inactive)
    1  A    between atoms: C_11  and  C_28
    2  A    between atoms: C_28  and  C_30
                            x       y       z     vdW  Elec       q    Type
                         _______ _______ _______ _____ _____    ______ ____

>  <TORSDO>
F 2

$$$$
=
 OpenBabel11112416223D

 30 35  0  0  1  0  0  0  0  0999 V2000
  189.8850  174.5210  144.3230 C   0  0  2  0  0  3  0  0  0  0  0  0
  191.1030  173.2440  142.4800 C   0  0  0  0  0  0  0  0  0  0  0  0
  187.1730  175.9740  141.3950 N   0  0  0  0  0  2  0  0  0  0  0  0
  188.6250  175.2710  144.6730 N   0  0  1  0  0  0  0  0  0  0  0  0
  191.1630  175.2340  144.7920 C   0  0  0  0  0  2  0  0  0  0  0  0
  189.2520  174.4330  147.4150 O   0  0  0  0  0  1  0  0  0  0  0  0
  187.1320  178.0900  145.8790 C   0  0  1  0  0  3  0  0  0  0  0  0
  189.7830  175.6160  146.8940 C   0  0  1  0  0  3  0  0  0  0  0  0
  187.0850  178.2170  144.3500 C   0  0  2  0  0  3  0  0  0  0  0  0
  186.5010  176.9380  142.1910 C   0  0  0  0  0  0  0  0  0  0  0  0
  191.1740  175.3390  146.3190 C   0  0  2  0  0  3  0  0  0  0  0  0
  188.8550  176.1900  145.8130 C   0  0  2  0  0  3  0  0  0  0  0  0
  191.2550  172.8640  141.1430 C   0  0  0  0  0  3  0  0  0  0  0  0
  185.9140  179.1430  144.1450 C   0  0  0  0  0  2  0  0  0  0  0  0
  185.8750  178.4330  146.3980 O   0  0  0  0  0  0  0  0  0  0  0  0
  192.0070  172.8070  143.3920 F   0  0  0  0  0  0  0  0  0  0  0  0
  187.8670  175.1510  142.3610 C   0  0  2  0  0  3  0  0  0  0  0  0
  190.3290  173.2770  140.1830 C   0  0  0  0  0  3  0  0  0  0  0  0
  190.0270  174.0670  142.8670 C   0  0  0  0  0  0  0  0  0  0  0  0
  188.1860  176.0710  143.5140 C   0  0  1  0  0  3  0  0  0  0  0  0
  185.6350  177.7160  141.7110 O   0  0  0  0  0  0  0  0  0  0  0  0
  186.8700  176.8580  143.6450 C   0  0  1  0  0  3  0  0  0  0  0  0
  185.3930  179.4260  145.5360 C   0  0  0  0  0  2  0  0  0  0  0  0
  186.8920  176.0860  147.1380 O   0  0  0  0  0  0  0  0  0  0  0  0
  189.2420  174.0670  140.5580 C   0  0  0  0  0  3  0  0  0  0  0  0
  189.1000  174.4770  141.8890 C   0  0  0  0  0  0  0  0  0  0  0  0
  187.5770  176.7400  146.3660 C   0  0  0  0  0  0  0  0  0  0  0  0
  192.1370  176.4300  146.7630 C   0  0  0  0  0  2  0  0  0  0  0  0
  194.4470  177.1220  146.1230 C   0  0  0  0  0  1  0  0  0  0  0  0
  193.5840  175.9810  146.6260 C   0  0  0  0  0  2  0  0  0  0  0  0
  1  4  1  0  0  0  0
  1  5  1  6  0  0  0
  2 19  1  0  0  0  0
  2 16  1  0  0  0  0
  3 10  1  0  0  0  0
  3 17  1  0  0  0  0
  4 12  1  0  0  0  0
  5 11  1  0  0  0  0
  7 27  1  0  0  0  0
  7 15  1  0  0  0  0
  8  6  1  0  0  0  0
  9  7  1  0  0  0  0
 10 22  1  0  0  0  0
 11 28  1  0  0  0  0
 11  8  1  0  0  0  0
 12 27  1  0  0  0  0
 12  8  1  0  0  0  0
 13  2  2  0  0  0  0
 14  9  1  0  0  0  0
 14 23  1  0  0  0  0
 17 20  1  0  0  0  0
 18 25  2  0  0  0  0
 18 13  1  0  0  0  0
 19  1  1  0  0  0  0
 20 22  1  0  0  0  0
 20  4  1  0  0  0  0
 21 10  2  0  0  0  0
 22  9  1  0  0  0  0
 23 15  1  0  0  0  0
 25 26  1  0  0  0  0
 26 17  1  0  0  0  0
 26 19  2  0  0  0  0
 27 24  2  0  0  0  0
 29 30  1  0  0  0  0
 30 28  1  0  0  0  0
M  END
>  <MODEL>
2

>  <REMARK>
 VINA RESULT:      -8.3      2.888      7.030
  Name = 
  2 active torsions:
  status: ('A' for Active; 'I' for Inactive)
    1  A    between atoms: C_11  and  C_28
    2  A    between atoms: C_28  and  C_30
                            x       y       z     vdW  Elec       q    Type
                         _______ _______ _______ _____ _____    ______ ____

>  <TORSDO>
F 2

$$$$
=
 OpenBabel11112416223D

 30 35  0  0  1  0  0  0  0  0999 V2000
  189.6670  176.1260  143.7650 C   0  0  2  0  0  3  0  0  0  0  0  0
  191.8760  175.2030  144.6470 C   0  0  0  0  0  0  0  0  0  0  0  0
  188.9220  177.7630  147.6140 N   0  0  0  0  0  2  0  0  0  0  0  0
  188.5330  177.0790  144.0460 N   0  0  1  0  0  0  0  0  0  0  0  0
  189.1910  174.7510  143.2710 C   0  0  0  0  0  2  0  0  0  0  0  0
  188.2670  177.1410  141.1230 O   0  0  0  0  0  1  0  0  0  0  0  0
  185.1840  177.6380  144.3590 C   0  0  1  0  0  3  0  0  0  0  0  0
  187.6040  176.1690  141.8770 C   0  0  1  0  0  3  0  0  0  0  0  0
  185.7070  177.4420  145.7890 C   0  0  2  0  0  3  0  0  0  0  0  0
  187.5720  178.1540  147.4170 C   0  0  0  0  0  0  0  0  0  0  0  0
  188.4570  174.9000  141.9350 C   0  0  2  0  0  3  0  0  0  0  0  0
  187.3170  176.6920  143.2920 C   0  0  2  0  0  3  0  0  0  0  0  0
  192.8110  175.0230  145.6710 C   0  0  0  0  0  3  0  0  0  0  0  0
  184.6790  178.1810  146.6060 C   0  0  0  0  0  2  0  0  0  0  0  0
  184.3320  178.7530  144.3400 O   0  0  0  0  0  0  0  0  0  0  0  0
  192.1100  174.6330  143.4380 F   0  0  0  0  0  0  0  0  0  0  0  0
  189.4130  177.5290  146.2720 C   0  0  2  0  0  3  0  0  0  0  0  0
  192.6120  175.6160  146.9190 C   0  0  0  0  0  3  0  0  0  0  0  0
  190.7130  175.9650  144.8730 C   0  0  0  0  0  0  0  0  0  0  0  0
  188.2130  177.0600  145.4850 C   0  0  1  0  0  3  0  0  0  0  0  0
  186.8700  178.6250  148.3500 O   0  0  0  0  0  0  0  0  0  0  0  0
  187.1250  178.0250  145.9890 C   0  0  1  0  0  3  0  0  0  0  0  0
  183.7080  178.7440  145.5940 C   0  0  0  0  0  2  0  0  0  0  0  0
  186.3230  178.7200  142.5730 O   0  0  0  0  0  0  0  0  0  0  0  0
  191.4800  176.3990  147.1470 C   0  0  0  0  0  3  0  0  0  0  0  0
  190.5240  176.5580  146.1360 C   0  0  0  0  0  0  0  0  0  0  0  0
  186.2660  177.7580  143.3240 C   0  0  0  0  0  0  0  0  0  0  0  0
  187.5820  173.6820  141.6790 C   0  0  0  0  0  2  0  0  0  0  0  0
  188.9310  173.6010  139.5820 C   0  0  0  0  0  1  0  0  0  0  0  0
  188.1870  172.7780  140.6160 C   0  0  0  0  0  2  0  0  0  0  0  0
  1  5  1  1  0  0  0
  1  4  1  0  0  0  0
  1 19  1  0  0  0  0
  2 19  2  0  0  0  0
  2 13  1  0  0  0  0
  4 20  1  0  0  0  0
  6  8  1  0  0  0  0
  7  9  1  0  0  0  0
  8 11  1  0  0  0  0
  8 12  1  0  0  0  0
  9 22  1  0  0  0  0
  9 14  1  0  0  0  0
 10  3  1  0  0  0  0
 10 21  2  0  0  0  0
 11  5  1  0  0  0  0
 12 27  1  0  0  0  0
 12  4  1  0  0  0  0
 13 18  2  0  0  0  0
 15  7  1  0  0  0  0
 15 23  1  0  0  0  0
 16  2  1  0  0  0  0
 17  3  1  0  0  0  0
 18 25  1  0  0  0  0
 19 26  1  0  0  0  0
 20 22  1  0  0  0  0
 20 17  1  0  0  0  0
 22 10  1  0  0  0  0
 23 14  1  0  0  0  0
 24 27  2  0  0  0  0
 26 17  1  0  0  0  0
 26 25  2  0  0  0  0
 27  7  1  0  0  0  0
 28 11  1  0  0  0  0
 29 30  1  0  0  0  0
 30 28  1  0  0  0  0
M  END
>  <MODEL>
3

>  <REMARK>
 VINA RESULT:      -8.1      2.671      5.545
  Name = 
  2 active torsions:
  status: ('A' for Active; 'I' for Inactive)
    1  A    between atoms: C_11  and  C_28
    2  A    between atoms: C_28  and  C_30
                            x       y       z     vdW  Elec       q    Type
                         _______ _______ _______ _____ _____    ______ ____

>  <TORSDO>
F 2

$$$$
=
 OpenBabel11112416223D

 30 35  0  0  1  0  0  0  0  0999 V2000
  188.0240  177.1780  143.6630 C   0  0  2  0  0  3  0  0  0  0  0  0
  186.2740  178.4640  142.3240 C   0  0  0  0  0  0  0  0  0  0  0  0
  188.4930  174.5570  140.3520 N   0  0  0  0  0  2  0  0  0  0  0  0
  189.1220  176.1480  143.5800 N   0  0  1  0  0  0  0  0  0  0  0  0
  187.0760  176.9560  144.8520 C   0  0  0  0  0  2  0  0  0  0  0  0
  190.1840  177.5400  145.9370 O   0  0  0  0  0  1  0  0  0  0  0  0
  190.4920  173.2290  144.6900 C   0  0  1  0  0  3  0  0  0  0  0  0
  189.2570  176.5040  146.0800 C   0  0  1  0  0  3  0  0  0  0  0  0
  189.7090  172.8640  143.4220 C   0  0  2  0  0  3  0  0  0  0  0  0
  189.2970  173.5700  140.9790 C   0  0  0  0  0  0  0  0  0  0  0  0
  187.8470  177.0910  146.1680 C   0  0  2  0  0  3  0  0  0  0  0  0
  189.3620  175.5230  144.9030 C   0  0  2  0  0  3  0  0  0  0  0  0
  185.5160  178.6660  141.1660 C   0  0  0  0  0  3  0  0  0  0  0  0
  190.4130  171.6120  142.9650 C   0  0  0  0  0  2  0  0  0  0  0  0
  191.7500  172.6110  144.6370 O   0  0  0  0  0  0  0  0  0  0  0  0
  186.0760  179.2840  143.3870 F   0  0  0  0  0  0  0  0  0  0  0  0
  188.5670  175.6870  141.2540 C   0  0  2  0  0  3  0  0  0  0  0  0
  185.7120  177.8560  140.0460 C   0  0  0  0  0  3  0  0  0  0  0  0
  187.2250  177.4270  142.3790 C   0  0  0  0  0  0  0  0  0  0  0  0
  188.7390  175.0890  142.6290 C   0  0  1  0  0  3  0  0  0  0  0  0
  189.6280  172.5060  140.3920 O   0  0  0  0  0  0  0  0  0  0  0  0
  189.7640  173.9750  142.3480 C   0  0  1  0  0  3  0  0  0  0  0  0
  191.5230  171.4010  143.9690 C   0  0  0  0  0  2  0  0  0  0  0  0
  191.7090  175.2370  145.0710 O   0  0  0  0  0  0  0  0  0  0  0  0
  186.6720  176.8450  140.0770 C   0  0  0  0  0  3  0  0  0  0  0  0
  187.4130  176.6170  141.2430 C   0  0  0  0  0  0  0  0  0  0  0  0
  190.6170  174.7080  144.9260 C   0  0  0  0  0  0  0  0  0  0  0  0
  187.0800  176.4170  147.2970 C   0  0  0  0  0  2  0  0  0  0  0  0
  186.4040  178.7090  148.0120 C   0  0  0  0  0  1  0  0  0  0  0  0
  185.9310  177.2870  147.7830 C   0  0  0  0  0  2  0  0  0  0  0  0
  1  5  1  1  0  0  0
  2 19  1  0  0  0  0
  2 16  1  0  0  0  0
  3 10  1  0  0  0  0
  3 17  1  0  0  0  0
  4  1  1  0  0  0  0
  4 12  1  0  0  0  0
  5 11  1  0  0  0  0
  6  8  1  0  0  0  0
  7 27  1  0  0  0  0
  8 11  1  0  0  0  0
  9  7  1  0  0  0  0
 10 22  1  0  0  0  0
 11 28  1  0  0  0  0
 12 27  1  0  0  0  0
 12  8  1  0  0  0  0
 13  2  2  0  0  0  0
 14  9  1  0  0  0  0
 14 23  1  0  0  0  0
 15  7  1  0  0  0  0
 17 20  1  0  0  0  0
 18 25  2  0  0  0  0
 18 13  1  0  0  0  0
 19  1  1  0  0  0  0
 20  4  1  0  0  0  0
 21 10  2  0  0  0  0
 22 20  1  0  0  0  0
 22  9  1  0  0  0  0
 23 15  1  0  0  0  0
 25 26  1  0  0  0  0
 26 17  1  0  0  0  0
 26 19  2  0  0  0  0
 27 24  2  0  0  0  0
 28 30  1  0  0  0  0
 30 29  1  0  0  0  0
M  END
>  <MODEL>
4

>  <REMARK>
 VINA RESULT:      -8.1      1.954      5.198
  Name = 
  2 active torsions:
  status: ('A' for Active; 'I' for Inactive)
    1  A    between atoms: C_11  and  C_28
    2  A    between atoms: C_28  and  C_30
                            x       y       z     vdW  Elec       q    Type
                         _______ _______ _______ _____ _____    ______ ____

>  <TORSDO>
F 2

$$$$
=
 OpenBabel11112416223D

 30 35  0  0  1  0  0  0  0  0999 V2000
  188.5340  177.2510  144.1970 C   0  0  2  0  0  3  0  0  0  0  0  0
  186.2800  178.4060  144.5090 C   0  0  0  0  0  0  0  0  0  0  0  0
  187.1480  175.7630  140.4670 N   0  0  0  0  0  2  0  0  0  0  0  0
  189.4340  176.5590  143.2040 N   0  0  1  0  0  0  0  0  0  0  0  0
  188.4410  176.5170  145.5430 C   0  0  0  0  0  2  0  0  0  0  0  0
  191.5860  177.4940  144.9670 O   0  0  0  0  0  1  0  0  0  0  0  0
  191.3150  173.8460  142.3510 C   0  0  1  0  0  3  0  0  0  0  0  0
  190.9510  176.2730  145.2070 C   0  0  1  0  0  3  0  0  0  0  0  0
  189.9660  173.6540  141.6440 C   0  0  2  0  0  3  0  0  0  0  0  0
  188.2080  174.8580  140.1960 C   0  0  0  0  0  0  0  0  0  0  0  0
  189.8170  176.4780  146.2140 C   0  0  2  0  0  3  0  0  0  0  0  0
  190.4090  175.6830  143.8960 C   0  0  2  0  0  3  0  0  0  0  0  0
  184.9900  178.7220  144.0710 C   0  0  0  0  0  3  0  0  0  0  0  0
  190.3380  172.7590  140.4900 C   0  0  0  0  0  2  0  0  0  0  0  0
  192.3440  173.5680  141.4400 O   0  0  0  0  0  0  0  0  0  0  0  0
  186.6870  178.8520  145.7230 F   0  0  0  0  0  0  0  0  0  0  0  0
  187.6740  176.6040  141.5210 C   0  0  2  0  0  3  0  0  0  0  0  0
  184.5490  178.2990  142.8150 C   0  0  0  0  0  3  0  0  0  0  0  0
  187.1370  177.6360  143.6980 C   0  0  0  0  0  0  0  0  0  0  0  0
  188.6230  175.7250  142.2980 C   0  0  1  0  0  3  0  0  0  0  0  0
  188.1910  174.0880  139.2000 O   0  0  0  0  0  0  0  0  0  0  0  0
  189.3530  174.9880  141.1600 C   0  0  1  0  0  3  0  0  0  0  0  0
  191.8300  172.5550  140.6210 C   0  0  0  0  0  2  0  0  0  0  0  0
  192.4460  175.9090  142.7030 O   0  0  0  0  0  0  0  0  0  0  0  0
  185.3990  177.5630  141.9900 C   0  0  0  0  0  3  0  0  0  0  0  0
  186.6800  177.2150  142.4340 C   0  0  0  0  0  0  0  0  0  0  0  0
  191.4890  175.2000  142.9780 C   0  0  0  0  0  0  0  0  0  0  0  0
  189.8580  175.3760  147.2630 C   0  0  0  0  0  2  0  0  0  0  0  0
  191.5470  176.7480  148.4840 C   0  0  0  0  0  1  0  0  0  0  0  0
  191.1910  175.3570  147.9950 C   0  0  0  0  0  2  0  0  0  0  0  0
  1  5  1  1  0  0  0
  2 16  1  0  0  0  0
  3 17  1  0  0  0  0
  4 12  1  0  0  0  0
  4  1  1  0  0  0  0
  5 11  1  0  0  0  0
  6  8  1  0  0  0  0
  7 27  1  0  0  0  0
  8 11  1  0  0  0  0
  9  7  1  0  0  0  0
 10  3  1  0  0  0  0
 10 22  1  0  0  0  0
 11 28  1  0  0  0  0
 12  8  1  0  0  0  0
 13  2  1  0  0  0  0
 14 23  1  0  0  0  0
 14  9  1  0  0  0  0
 15  7  1  0  0  0  0
 17 20  1  0  0  0  0
 17 26  1  0  0  0  0
 18 13  2  0  0  0  0
 19  1  1  0  0  0  0
 19  2  2  0  0  0  0
 20  4  1  0  0  0  0
 21 10  2  0  0  0  0
 22  9  1  0  0  0  0
 22 20  1  0  0  0  0
 23 15  1  0  0  0  0
 24 27  2  0  0  0  0
 25 26  2  0  0  0  0
 25 18  1  0  0  0  0
 26 19  1  0  0  0  0
 27 12  1  0  0  0  0
 28 30  1  0  0  0  0
 30 29  1  0  0  0  0
M  END
>  <MODEL>
5

>  <REMARK>
 VINA RESULT:      -7.4      2.055      5.294
  Name = 
  2 active torsions:
  status: ('A' for Active; 'I' for Inactive)
    1  A    between atoms: C_11  and  C_28
    2  A    between atoms: C_28  and  C_30
                            x       y       z     vdW  Elec       q    Type
                         _______ _______ _______ _____ _____    ______ ____

>  <TORSDO>
F 2

$$$$
=
 OpenBabel11112416223D

 30 35  0  0  1  0  0  0  0  0999 V2000
  191.4890  173.6250  145.1330 C   0  0  2  0  0  3  0  0  0  0  0  0
  193.0370  171.7140  144.4550 C   0  0  0  0  0  0  0  0  0  0  0  0
  189.6940  173.4090  141.2890 N   0  0  0  0  0  2  0  0  0  0  0  0
  190.2350  174.3800  144.7690 N   0  0  1  0  0  0  0  0  0  0  0  0
  192.6550  174.5450  145.5260 C   0  0  0  0  0  2  0  0  0  0  0  0
  190.1030  174.9370  147.6480 O   0  0  0  0  0  1  0  0  0  0  0  0
  188.6840  177.3480  144.1260 C   0  0  1  0  0  3  0  0  0  0  0  0
  190.8250  175.7750  146.7940 C   0  0  1  0  0  3  0  0  0  0  0  0
  189.0270  176.7530  142.7530 C   0  0  2  0  0  3  0  0  0  0  0  0
  188.9120  174.5920  141.3560 C   0  0  0  0  0  0  0  0  0  0  0  0
  192.2930  175.3430  146.7810 C   0  0  2  0  0  3  0  0  0  0  0  0
  190.2360  175.7320  145.3760 C   0  0  2  0  0  3  0  0  0  0  0  0
  193.4910  170.7690  143.5290 C   0  0  0  0  0  3  0  0  0  0  0  0
  188.0090  177.4120  141.8590 C   0  0  0  0  0  2  0  0  0  0  0  0
  187.3640  177.8200  144.0950 O   0  0  0  0  0  0  0  0  0  0  0  0
  193.6540  171.7980  145.6610 F   0  0  0  0  0  0  0  0  0  0  0  0
  190.0690  173.1640  142.6650 C   0  0  2  0  0  3  0  0  0  0  0  0
  192.8630  170.6400  142.2890 C   0  0  0  0  0  3  0  0  0  0  0  0
  191.9570  172.5600  144.1360 C   0  0  0  0  0  0  0  0  0  0  0  0
  190.1530  174.5290  143.3050 C   0  0  1  0  0  3  0  0  0  0  0  0
  188.2480  175.0110  140.3720 O   0  0  0  0  0  0  0  0  0  0  0  0
  188.9020  175.2120  142.7240 C   0  0  1  0  0  3  0  0  0  0  0  0
  187.1800  178.2740  142.7840 C   0  0  0  0  0  2  0  0  0  0  0  0
  188.0030  176.1400  146.0600 O   0  0  0  0  0  0  0  0  0  0  0  0
  191.7720  171.4510  141.9720 C   0  0  0  0  0  3  0  0  0  0  0  0
  191.3320  172.4200  142.8820 C   0  0  0  0  0  0  0  0  0  0  0  0
  188.9020  176.4020  145.2730 C   0  0  0  0  0  0  0  0  0  0  0  0
  193.1880  176.5680  146.9000 C   0  0  0  0  0  2  0  0  0  0  0  0
  194.8150  177.3910  145.1970 C   0  0  0  0  0  1  0  0  0  0  0  0
  194.5420  176.3320  146.2480 C   0  0  0  0  0  2  0  0  0  0  0  0
  1  5  1  6  0  0  0
  2 16  1  0  0  0  0
  3 10  1  0  0  0  0
  3 17  1  0  0  0  0
  4  1  1  0  0  0  0
  4 12  1  0  0  0  0
  5 11  1  0  0  0  0
  7 27  1  0  0  0  0
  8  6  1  0  0  0  0
  9  7  1  0  0  0  0
 10 22  1  0  0  0  0
 11  8  1  0  0  0  0
 11 28  1  0  0  0  0
 12  8  1  0  0  0  0
 13  2  2  0  0  0  0
 14  9  1  0  0  0  0
 14 23  1  0  0  0  0
 15  7  1  0  0  0  0
 17 26  1  0  0  0  0
 17 20  1  0  0  0  0
 18 13  1  0  0  0  0
 19  2  1  0  0  0  0
 19  1  1  0  0  0  0
 20  4  1  0  0  0  0
 21 10  2  0  0  0  0
 22  9  1  0  0  0  0
 22 20  1  0  0  0  0
 23 15  1  0  0  0  0
 25 18  2  0  0  0  0
 25 26  1  0  0  0  0
 26 19  2  0  0  0  0
 27 12  1  0  0  0  0
 27 24  2  0  0  0  0
 29 30  1  0  0  0  0
 30 28  1  0  0  0  0
M  END
>  <MODEL>
6

>  <REMARK>
 VINA RESULT:      -7.3      3.283      7.420
  Name = 
  2 active torsions:
  status: ('A' for Active; 'I' for Inactive)
    1  A    between atoms: C_11  and  C_28
    2  A    between atoms: C_28  and  C_30
                            x       y       z     vdW  Elec       q    Type
                         _______ _______ _______ _____ _____    ______ ____

>  <TORSDO>
F 2

$$$$
=
 OpenBabel11112416223D

 30 35  0  0  1  0  0  0  0  0999 V2000
  189.0160  174.5900  143.3460 C   0  0  2  0  0  3  0  0  0  0  0  0
  187.0920  176.2650  143.3370 C   0  0  0  0  0  0  0  0  0  0  0  0
  190.8310  176.8360  146.4610 N   0  0  0  0  0  2  0  0  0  0  0  0
  190.2200  174.1040  144.1130 N   0  0  1  0  0  0  0  0  0  0  0  0
  189.2870  174.7630  141.8440 C   0  0  0  0  0  2  0  0  0  0  0  0
  189.6920  171.5670  142.7360 O   0  0  0  0  0  1  0  0  0  0  0  0
  193.5490  173.3700  144.1850 C   0  0  1  0  0  3  0  0  0  0  0  0
  190.4950  172.5440  142.1420 C   0  0  1  0  0  3  0  0  0  0  0  0
  193.4220  174.7790  144.7800 C   0  0  2  0  0  3  0  0  0  0  0  0
  192.0930  176.1870  146.4800 C   0  0  0  0  0  0  0  0  0  0  0  0
  189.6400  173.4110  141.2160 C   0  0  2  0  0  3  0  0  0  0  0  0
  191.1720  173.4070  143.2180 C   0  0  2  0  0  3  0  0  0  0  0  0
  186.4600  177.4140  143.8230 C   0  0  0  0  0  3  0  0  0  0  0  0
  194.6600  174.8740  145.6350 C   0  0  0  0  0  2  0  0  0  0  0  0
  194.4060  172.6130  144.9960 O   0  0  0  0  0  0  0  0  0  0  0  0
  186.5190  175.5870  142.3100 F   0  0  0  0  0  0  0  0  0  0  0  0
  189.9900  175.9340  145.7050 C   0  0  2  0  0  3  0  0  0  0  0  0
  187.0100  178.1200  144.8940 C   0  0  0  0  0  3  0  0  0  0  0  0
  188.3010  175.8230  143.9070 C   0  0  0  0  0  0  0  0  0  0  0  0
  190.9140  175.2520  144.7250 C   0  0  1  0  0  3  0  0  0  0  0  0
  193.0380  176.5820  147.2120 O   0  0  0  0  0  0  0  0  0  0  0  0
  192.1340  174.9580  145.6170 C   0  0  1  0  0  3  0  0  0  0  0  0
  195.3440  173.5350  145.4790 C   0  0  0  0  0  2  0  0  0  0  0  0
  192.0140  171.5740  144.4640 O   0  0  0  0  0  0  0  0  0  0  0  0
  188.1920  177.6760  145.4890 C   0  0  0  0  0  3  0  0  0  0  0  0
  188.8460  176.5440  144.9880 C   0  0  0  0  0  0  0  0  0  0  0  0
  192.2330  172.6740  143.9780 C   0  0  0  0  0  0  0  0  0  0  0  0
  190.3660  173.6190  139.8950 C   0  0  0  0  0  2  0  0  0  0  0  0
  188.2420  172.6250  139.0440 C   0  0  0  0  0  1  0  0  0  0  0  0
  189.4080  173.5380  138.7160 C   0  0  0  0  0  2  0  0  0  0  0  0
  1  5  1  6  0  0  0
  1 19  1  0  0  0  0
  1  4  1  0  0  0  0
  2 13  2  0  0  0  0
  2 19  1  0  0  0  0
  3 10  1  0  0  0  0
  4 20  1  0  0  0  0
  7  9  1  0  0  0  0
  7 15  1  0  0  0  0
  8  6  1  0  0  0  0
  8 12  1  0  0  0  0
  9 22  1  0  0  0  0
  9 14  1  0  0  0  0
 10 21  2  0  0  0  0
 11  5  1  0  0  0  0
 11  8  1  0  0  0  0
 12 27  1  0  0  0  0
 12  4  1  0  0  0  0
 13 18  1  0  0  0  0
 15 23  1  0  0  0  0
 16  2  1  0  0  0  0
 17  3  1  0  0  0  0
 18 25  2  0  0  0  0
 19 26  2  0  0  0  0
 20 22  1  0  0  0  0
 20 17  1  0  0  0  0
 22 10  1  0  0  0  0
 23 14  1  0  0  0  0
 26 25  1  0  0  0  0
 26 17  1  0  0  0  0
 27  7  1  0  0  0  0
 27 24  2  0  0  0  0
 28 11  1  0  0  0  0
 30 29  1  0  0  0  0
 30 28  1  0  0  0  0
M  END
>  <MODEL>
7

>  <REMARK>
 VINA RESULT:      -7.2      2.261      3.311
  Name = 
  2 active torsions:
  status: ('A' for Active; 'I' for Inactive)
    1  A    between atoms: C_11  and  C_28
    2  A    between atoms: C_28  and  C_30
                            x       y       z     vdW  Elec       q    Type
                         _______ _______ _______ _____ _____    ______ ____

>  <TORSDO>
F 2

$$$$
=
 OpenBabel11112416223D

 30 35  0  0  1  0  0  0  0  0999 V2000
  188.0700  175.1070  143.6220 C   0  0  2  0  0  3  0  0  0  0  0  0
  186.2340  176.8790  143.6820 C   0  0  0  0  0  0  0  0  0  0  0  0
  190.0350  177.1730  146.7720 N   0  0  0  0  0  2  0  0  0  0  0  0
  189.2550  174.5400  144.3610 N   0  0  1  0  0  0  0  0  0  0  0  0
  188.3320  175.3060  142.1220 C   0  0  0  0  0  2  0  0  0  0  0  0
  188.5810  172.0710  142.9250 O   0  0  0  0  0  1  0  0  0  0  0  0
  192.5420  173.6330  144.3700 C   0  0  1  0  0  3  0  0  0  0  0  0
  189.4260  173.0210  142.3470 C   0  0  1  0  0  3  0  0  0  0  0  0
  192.4960  175.0300  145.0040 C   0  0  2  0  0  3  0  0  0  0  0  0
  191.2610  176.4590  146.7570 C   0  0  0  0  0  0  0  0  0  0  0  0
  188.6070  173.9560  141.4540 C   0  0  2  0  0  3  0  0  0  0  0  0
  190.1600  173.8180  143.4360 C   0  0  2  0  0  3  0  0  0  0  0  0
  185.6690  178.0450  144.2060 C   0  0  0  0  0  3  0  0  0  0  0  0
  193.7470  175.0390  145.8450 C   0  0  0  0  0  2  0  0  0  0  0  0
  193.3690  172.8120  145.1510 O   0  0  0  0  0  0  0  0  0  0  0  0
  185.6160  176.2590  142.6460 F   0  0  0  0  0  0  0  0  0  0  0  0
  189.1390  176.3360  146.0030 C   0  0  2  0  0  3  0  0  0  0  0  0
  186.2670  178.6940  145.2880 C   0  0  0  0  0  3  0  0  0  0  0  0
  187.4260  176.3600  144.2250 C   0  0  0  0  0  0  0  0  0  0  0  0
  190.0150  175.6340  144.9940 C   0  0  1  0  0  3  0  0  0  0  0  0
  192.2340  176.7860  147.4870 O   0  0  0  0  0  0  0  0  0  0  0  0
  191.2290  175.2530  145.8620 C   0  0  1  0  0  3  0  0  0  0  0  0
  194.3590  173.6710  145.6450 C   0  0  0  0  0  2  0  0  0  0  0  0
  190.9200  171.9120  144.6220 O   0  0  0  0  0  0  0  0  0  0  0  0
  187.4310  178.1730  145.8560 C   0  0  0  0  0  3  0  0  0  0  0  0
  188.0200  177.0230  145.3170 C   0  0  0  0  0  0  0  0  0  0  0  0
  191.1900  173.0120  144.1620 C   0  0  0  0  0  0  0  0  0  0  0  0
  189.3280  174.1610  140.1300 C   0  0  0  0  0  2  0  0  0  0  0  0
  188.1960  174.2080  137.9070 C   0  0  0  0  0  1  0  0  0  0  0  0
  188.7080  173.3200  139.0250 C   0  0  0  0  0  2  0  0  0  0  0  0
  1  5  1  6  0  0  0
  1 19  1  0  0  0  0
  1  4  1  0  0  0  0
  2 13  2  0  0  0  0
  2 19  1  0  0  0  0
  4 20  1  0  0  0  0
  7  9  1  0  0  0  0
  7 15  1  0  0  0  0
  8  6  1  0  0  0  0
  8 12  1  0  0  0  0
  9 14  1  0  0  0  0
  9 22  1  0  0  0  0
 10  3  1  0  0  0  0
 10 21  2  0  0  0  0
 11  5  1  0  0  0  0
 11  8  1  0  0  0  0
 12 27  1  0  0  0  0
 12  4  1  0  0  0  0
 13 18  1  0  0  0  0
 15 23  1  0  0  0  0
 16  2  1  0  0  0  0
 17  3  1  0  0  0  0
 18 25  2  0  0  0  0
 19 26  2  0  0  0  0
 20 22  1  0  0  0  0
 20 17  1  0  0  0  0
 22 10  1  0  0  0  0
 23 14  1  0  0  0  0
 26 25  1  0  0  0  0
 26 17  1  0  0  0  0
 27  7  1  0  0  0  0
 27 24  2  0  0  0  0
 28 11  1  0  0  0  0
 29 30  1  0  0  0  0
 30 28  1  0  0  0  0
M  END
>  <MODEL>
8

>  <REMARK>
 VINA RESULT:      -7.2      1.923      2.550
  Name = 
  2 active torsions:
  status: ('A' for Active; 'I' for Inactive)
    1  A    between atoms: C_11  and  C_28
    2  A    between atoms: C_28  and  C_30
                            x       y       z     vdW  Elec       q    Type
                         _______ _______ _______ _____ _____    ______ ____

>  <TORSDO>
F 2

$$$$
=
 OpenBabel11112416223D

 30 35  0  0  1  0  0  0  0  0999 V2000
  188.5590  175.6360  144.0740 C   0  0  2  0  0  3  0  0  0  0  0  0
  187.2310  176.8940  145.8530 C   0  0  0  0  0  0  0  0  0  0  0  0
  192.1330  176.7910  146.0600 N   0  0  0  0  0  2  0  0  0  0  0  0
  189.9140  175.0790  143.7160 N   0  0  1  0  0  0  0  0  0  0  0  0
  187.8930  176.3970  142.9170 C   0  0  0  0  0  2  0  0  0  0  0  0
  188.3660  173.1940  142.0830 O   0  0  0  0  0  1  0  0  0  0  0  0
  192.5020  174.8640  141.5070 C   0  0  1  0  0  3  0  0  0  0  0  0
  188.7620  174.4280  141.5600 C   0  0  1  0  0  3  0  0  0  0  0  0
  192.9280  175.9130  142.5440 C   0  0  2  0  0  3  0  0  0  0  0  0
  193.0640  176.3730  145.0750 C   0  0  0  0  0  0  0  0  0  0  0  0
  187.6340  175.4450  141.7450 C   0  0  2  0  0  3  0  0  0  0  0  0
  190.0470  174.9140  142.2490 C   0  0  2  0  0  3  0  0  0  0  0  0
  187.1610  177.6730  147.0130 C   0  0  0  0  0  3  0  0  0  0  0  0
  194.4310  175.8600  142.4490 C   0  0  0  0  0  2  0  0  0  0  0  0
  193.5770  173.9920  141.2810 O   0  0  0  0  0  0  0  0  0  0  0  0
  186.0810  176.5750  145.2080 F   0  0  0  0  0  0  0  0  0  0  0  0
  190.9050  176.1250  145.6790 C   0  0  2  0  0  3  0  0  0  0  0  0
  188.3230  177.9980  147.7140 C   0  0  0  0  0  3  0  0  0  0  0  0
  188.4780  176.4510  145.3690 C   0  0  0  0  0  0  0  0  0  0  0  0
  190.9670  176.0020  144.1760 C   0  0  1  0  0  3  0  0  0  0  0  0
  194.2980  176.5980  145.1830 O   0  0  0  0  0  0  0  0  0  0  0  0
  192.4320  175.5760  143.9690 C   0  0  1  0  0  3  0  0  0  0  0  0
  194.7180  174.7910  141.4190 C   0  0  0  0  0  2  0  0  0  0  0  0
  191.2400  172.8920  141.9270 O   0  0  0  0  0  0  0  0  0  0  0  0
  189.5610  177.5410  147.2630 C   0  0  0  0  0  3  0  0  0  0  0  0
  189.6430  176.7870  146.0860 C   0  0  0  0  0  0  0  0  0  0  0  0
  191.2540  174.1120  141.8750 C   0  0  0  0  0  0  0  0  0  0  0  0
  187.4410  176.2360  140.4600 C   0  0  0  0  0  2  0  0  0  0  0  0
  185.5970  177.9160  140.4200 C   0  0  0  0  0  1  0  0  0  0  0  0
  187.0580  177.6800  140.7490 C   0  0  0  0  0  2  0  0  0  0  0  0
  1  5  1  6  0  0  0
  1 19  1  0  0  0  0
  2 13  1  0  0  0  0
  4  1  1  0  0  0  0
  4 20  1  0  0  0  0
  7 27  1  0  0  0  0
  7  9  1  0  0  0  0
  8 11  1  0  0  0  0
  8  6  1  0  0  0  0
  8 12  1  0  0  0  0
  9 22  1  0  0  0  0
 10 21  2  0  0  0  0
 10  3  1  0  0  0  0
 11  5  1  0  0  0  0
 12  4  1  0  0  0  0
 13 18  2  0  0  0  0
 14  9  1  0  0  0  0
 15 23  1  0  0  0  0
 15  7  1  0  0  0  0
 16  2  1  0  0  0  0
 17  3  1  0  0  0  0
 17 26  1  0  0  0  0
 19  2  2  0  0  0  0
 19 26  1  0  0  0  0
 20 17  1  0  0  0  0
 22 20  1  0  0  0  0
 22 10  1  0  0  0  0
 23 14  1  0  0  0  0
 25 18  1  0  0  0  0
 26 25  2  0  0  0  0
 27 24  2  0  0  0  0
 27 12  1  0  0  0  0
 28 30  1  0  0  0  0
 28 11  1  0  0  0  0
 29 30  1  0  0  0  0
M  END
>  <MODEL>
9

>  <REMARK>
 VINA RESULT:      -7.1      1.590      2.208
  Name = 
  2 active torsions:
  status: ('A' for Active; 'I' for Inactive)
    1  A    between atoms: C_11  and  C_28
    2  A    between atoms: C_28  and  C_30
                            x       y       z     vdW  Elec       q    Type
                         _______ _______ _______ _____ _____    ______ ____

>  <TORSDO>
F 2

$$$$
