=
 OpenBabel11112416353D

 32 38  0  0  1  0  0  0  0  0999 V2000
  184.8310  178.2650  146.3280 C   0  0  1  0  0  3  0  0  0  0  0  0
  189.4730  175.8160  145.5890 C   0  0  0  0  0  0  0  0  0  0  0  0
  188.8980  173.9810  141.1160 C   0  0  0  0  0  3  0  0  0  0  0  0
  190.2000  173.4890  141.1740 C   0  0  0  0  0  3  0  0  0  0  0  0
  191.7280  175.7500  146.5850 C   0  0  1  0  0  3  0  0  0  0  0  0
  193.1070  175.2560  146.4760 C   0  0  2  0  0  3  0  0  0  0  0  0
  187.7020  177.4020  146.4060 C   0  0  1  0  0  3  0  0  0  0  0  0
  187.3060  176.0550  144.4150 N   0  0  0  0  0  2  0  0  0  0  0  0
  194.8390  174.2630  145.4330 C   0  0  0  0  0  0  0  0  0  0  0  0
  185.4380  177.4720  145.1680 C   0  0  2  0  0  3  0  0  0  0  0  0
  188.3870  174.6810  142.2060 C   0  0  0  0  0  3  0  0  0  0  0  0
  188.6590  175.5680  144.4550 C   0  0  0  0  0  0  0  0  0  0  0  0
  189.1750  174.8930  143.3460 C   0  0  0  0  0  0  0  0  0  0  0  0
  191.3020  174.5770  144.5020 C   0  0  0  0  0  0  0  0  0  0  0  0
  195.2980  175.3390  145.9820 N   0  0  0  0  0  0  0  0  0  0  0  0
  185.5660  178.0810  147.6770 C   0  0  0  0  0  2  0  0  0  0  0  0
  186.6650  176.6390  145.5850 C   0  0  2  0  0  3  0  0  0  0  0  0
  194.1990  175.9950  146.6020 C   0  0  0  0  0  2  0  0  0  0  0  0
  187.1040  178.0800  147.6400 C   0  0  0  0  0  2  0  0  0  0  0  0
  185.6480  178.9820  145.2630 C   0  0  1  0  0  3  0  0  0  0  0  0
  190.9550  173.6970  142.2850 N   0  0  0  0  0  0  0  0  0  0  0  0
  190.4880  174.3860  143.3690 C   0  0  0  0  0  0  0  0  0  0  0  0
  192.5270  174.0030  144.5100 C   0  0  0  0  0  2  0  0  0  0  0  0
  188.8100  176.4380  146.7990 C   0  0  0  0  0  2  0  0  0  0  0  0
  191.4390  176.9400  147.8610 Cl  0  0  0  0  0  0  0  0  0  0  0  0
  195.6790  173.3370  144.7530 N   0  0  0  0  0  1  0  0  0  0  0  0
  190.8340  175.3780  145.6090 C   0  0  0  0  0  0  0  0  0  0  0  0
  193.4000  174.0220  145.7240 C   0  0  2  0  0  3  0  0  0  0  0  0
  184.7100  179.6750  144.2960 C   0  0  0  0  0  2  0  0  0  0  0  0
  184.6860  178.9430  143.0020 C   0  0  0  0  0  0  0  0  0  0  0  0
  183.5100  178.3510  142.5590 O   0  0  0  0  0  1  0  0  0  0  0  0
  185.7400  178.8300  142.3220 O   0  0  0  0  0  0  0  0  0  0  0  0
  1 16  1  1  0  0  0
  2 27  1  0  0  0  0
  2 24  1  0  0  0  0
  3  4  2  0  0  0  0
  3 11  1  0  0  0  0
  4 21  1  0  0  0  0
  5 25  1  6  0  0  0
  6  5  1  0  0  0  0
  6 18  1  6  0  0  0
  7 24  1  1  0  0  0
  7 19  1  0  0  0  0
  8 12  1  0  0  0  0
  8 17  1  0  0  0  0
  9 28  1  0  0  0  0
  9 15  2  0  0  0  0
 10 20  1  0  0  0  0
 10 17  1  0  0  0  0
 10  1  1  0  0  0  0
 11 13  2  0  0  0  0
 12  2  2  0  0  0  0
 13 22  1  0  0  0  0
 13 12  1  0  0  0  0
 14 23  1  0  0  0  0
 14 27  2  0  0  0  0
 15 18  1  0  0  0  0
 17  7  1  0  0  0  0
 19 16  1  0  0  0  0
 20  1  1  0  0  0  0
 21 22  2  0  0  0  0
 22 14  1  0  0  0  0
 23 28  1  0  0  0  0
 26  9  1  0  0  0  0
 27  5  1  0  0  0  0
 28  6  1  0  0  0  0
 29 20  1  0  0  0  0
 30 29  1  0  0  0  0
 31 30  1  0  0  0  0
 32 30  2  0  0  0  0
M  END
>  <MODEL>
1

>  <REMARK>
 VINA RESULT:      -9.6      0.000      0.000
  Name = 
  2 active torsions:
  status: ('A' for Active; 'I' for Inactive)
    1  A    between atoms: C_20  and  C_29
    2  A    between atoms: C_29  and  C_30
                            x       y       z     vdW  Elec       q    Type
                         _______ _______ _______ _____ _____    ______ ____

>  <TORSDO>
F 2

$$$$
=
 OpenBabel11112416353D

 32 38  0  0  1  0  0  0  0  0999 V2000
  185.1670  179.1150  144.1080 C   0  0  1  0  0  3  0  0  0  0  0  0
  189.0480  175.5780  143.3960 C   0  0  0  0  0  0  0  0  0  0  0  0
  191.8470  176.4160  147.2910 C   0  0  0  0  0  3  0  0  0  0  0  0
  192.6820  175.3750  146.8870 C   0  0  0  0  0  3  0  0  0  0  0  0
  189.5190  173.5700  142.0430 C   0  0  1  0  0  3  0  0  0  0  0  0
  190.4290  172.4470  141.7860 C   0  0  2  0  0  3  0  0  0  0  0  0
  186.8210  176.7410  143.3230 C   0  0  1  0  0  3  0  0  0  0  0  0
  188.5010  177.4290  144.9460 N   0  0  0  0  0  2  0  0  0  0  0  0
  192.1760  171.0960  142.2300 C   0  0  0  0  0  0  0  0  0  0  0  0
  186.4150  178.7370  144.9080 C   0  0  2  0  0  3  0  0  0  0  0  0
  190.7330  176.7310  146.5170 C   0  0  0  0  0  3  0  0  0  0  0  0
  189.3530  176.3380  144.5530 C   0  0  0  0  0  0  0  0  0  0  0  0
  190.4520  176.0080  145.3500 C   0  0  0  0  0  0  0  0  0  0  0  0
  191.0610  174.2200  143.8040 C   0  0  0  0  0  0  0  0  0  0  0  0
  191.1870  170.3330  141.9010 N   0  0  0  0  0  0  0  0  0  0  0  0
  185.1640  178.5960  142.6510 C   0  0  0  0  0  2  0  0  0  0  0  0
  187.4280  177.9130  144.0910 C   0  0  2  0  0  3  0  0  0  0  0  0
  190.0660  171.1780  141.6650 C   0  0  0  0  0  2  0  0  0  0  0  0
  185.6570  177.1570  142.4220 C   0  0  0  0  0  2  0  0  0  0  0  0
  185.0900  178.0220  145.1630 C   0  0  1  0  0  3  0  0  0  0  0  0
  192.4020  174.6820  145.7530 N   0  0  0  0  0  0  0  0  0  0  0  0
  191.3140  174.9610  144.9750 C   0  0  0  0  0  0  0  0  0  0  0  0
  191.9600  173.2760  143.4410 C   0  0  0  0  0  2  0  0  0  0  0  0
  187.9220  176.0720  142.5150 C   0  0  0  0  0  2  0  0  0  0  0  0
  187.9780  173.5230  141.1780 Cl  0  0  0  0  0  0  0  0  0  0  0  0
  193.4760  170.5830  142.5000 N   0  0  0  0  0  1  0  0  0  0  0  0
  189.8640  174.4620  143.0330 C   0  0  0  0  0  0  0  0  0  0  0  0
  191.8560  172.5470  142.1400 C   0  0  2  0  0  3  0  0  0  0  0  0
  184.4570  178.5820  146.4210 C   0  0  0  0  0  2  0  0  0  0  0  0
  185.4500  178.5890  147.5270 C   0  0  0  0  0  0  0  0  0  0  0  0
  185.9410  179.7940  148.0130 O   0  0  0  0  0  1  0  0  0  0  0  0
  185.8720  177.5020  148.0020 O   0  0  0  0  0  0  0  0  0  0  0  0
  1 16  1  6  0  0  0
  1 10  1  0  0  0  0
  1 20  1  0  0  0  0
  2 12  1  0  0  0  0
  4  3  1  0  0  0  0
  5 25  1  1  0  0  0
  5 27  1  0  0  0  0
  6 18  1  1  0  0  0
  6  5  1  0  0  0  0
  6 28  1  0  0  0  0
  7 19  1  6  0  0  0
  7 17  1  0  0  0  0
  9 26  1  0  0  0  0
 10 20  1  0  0  0  0
 11  3  2  0  0  0  0
 12  8  1  0  0  0  0
 12 13  2  0  0  0  0
 13 11  1  0  0  0  0
 14 22  2  0  0  0  0
 15  9  2  0  0  0  0
 17 10  1  0  0  0  0
 17  8  1  0  0  0  0
 18 15  1  0  0  0  0
 19 16  1  0  0  0  0
 20 29  1  0  0  0  0
 21  4  2  0  0  0  0
 22 13  1  0  0  0  0
 22 21  1  0  0  0  0
 23 14  1  0  0  0  0
 24  7  1  0  0  0  0
 24  2  1  0  0  0  0
 27  2  2  0  0  0  0
 27 14  1  0  0  0  0
 28  9  1  0  0  0  0
 28 23  1  0  0  0  0
 29 30  1  0  0  0  0
 30 32  2  0  0  0  0
 30 31  1  0  0  0  0
M  END
>  <MODEL>
2

>  <REMARK>
 VINA RESULT:      -8.9      2.666      4.642
  Name = 
  2 active torsions:
  status: ('A' for Active; 'I' for Inactive)
    1  A    between atoms: C_20  and  C_29
    2  A    between atoms: C_29  and  C_30
                            x       y       z     vdW  Elec       q    Type
                         _______ _______ _______ _____ _____    ______ ____

>  <TORSDO>
F 2

$$$$
=
 OpenBabel11112416353D

 32 38  0  0  1  0  0  0  0  0999 V2000
  186.0650  178.3660  141.5110 C   0  0  1  0  0  3  0  0  0  0  0  0
  190.0250  175.4270  143.4510 C   0  0  0  0  0  0  0  0  0  0  0  0
  190.5470  177.3250  147.9050 C   0  0  0  0  0  3  0  0  0  0  0  0
  191.5370  176.3800  148.1670 C   0  0  0  0  0  3  0  0  0  0  0  0
  191.2140  173.3270  142.9420 C   0  0  1  0  0  3  0  0  0  0  0  0
  192.2040  172.3370  143.3840 C   0  0  2  0  0  3  0  0  0  0  0  0
  188.0390  176.1910  142.1130 C   0  0  1  0  0  3  0  0  0  0  0  0
  188.6840  177.3940  144.1300 N   0  0  0  0  0  2  0  0  0  0  0  0
  193.6040  171.3730  144.8630 C   0  0  0  0  0  0  0  0  0  0  0  0
  186.7960  178.3280  142.8550 C   0  0  2  0  0  3  0  0  0  0  0  0
  189.9250  177.3280  146.6590 C   0  0  0  0  0  3  0  0  0  0  0  0
  189.6870  176.4040  144.4210 C   0  0  0  0  0  0  0  0  0  0  0  0
  190.2860  176.3880  145.6830 C   0  0  0  0  0  0  0  0  0  0  0  0
  191.6740  174.4930  145.0230 C   0  0  0  0  0  0  0  0  0  0  0  0
  192.9460  170.4190  144.2940 N   0  0  0  0  0  0  0  0  0  0  0  0
  186.7960  177.6220  140.3690 C   0  0  0  0  0  2  0  0  0  0  0  0
  188.1260  177.5540  142.7950 C   0  0  2  0  0  3  0  0  0  0  0  0
  192.0260  171.0240  143.3920 C   0  0  0  0  0  2  0  0  0  0  0  0
  187.4280  176.2630  140.7130 C   0  0  0  0  0  2  0  0  0  0  0  0
  185.5600  177.4610  142.6260 C   0  0  1  0  0  3  0  0  0  0  0  0
  191.8820  175.4750  147.2140 N   0  0  0  0  0  0  0  0  0  0  0  0
  191.2860  175.4450  145.9840 C   0  0  0  0  0  0  0  0  0  0  0  0
  192.6950  173.6590  145.3290 C   0  0  0  0  0  2  0  0  0  0  0  0
  189.4330  175.5840  142.0680 C   0  0  0  0  0  2  0  0  0  0  0  0
  190.2850  172.8930  141.5020 Cl  0  0  0  0  0  0  0  0  0  0  0  0
  194.6430  171.1260  145.8030 N   0  0  0  0  0  1  0  0  0  0  0  0
  190.9830  174.4110  143.7570 C   0  0  0  0  0  0  0  0  0  0  0  0
  193.2760  172.7200  144.3210 C   0  0  2  0  0  3  0  0  0  0  0  0
  184.3660  178.1100  143.2950 C   0  0  0  0  0  2  0  0  0  0  0  0
  184.6300  178.2740  144.7500 C   0  0  0  0  0  0  0  0  0  0  0  0
  184.9730  177.1720  145.5220 O   0  0  0  0  0  1  0  0  0  0  0  0
  184.5100  179.4050  145.2880 O   0  0  0  0  0  0  0  0  0  0  0  0
  1 16  1  6  0  0  0
  1 20  1  0  0  0  0
  1 10  1  0  0  0  0
  2 27  2  0  0  0  0
  2 12  1  0  0  0  0
  3  4  1  0  0  0  0
  5 25  1  1  0  0  0
  5  6  1  0  0  0  0
  5 27  1  0  0  0  0
  6 18  1  1  0  0  0
  6 28  1  0  0  0  0
  7 19  1  6  0  0  0
  7 17  1  0  0  0  0
  8 12  1  0  0  0  0
  9 26  1  0  0  0  0
 11  3  2  0  0  0  0
 12 13  2  0  0  0  0
 13 22  1  0  0  0  0
 13 11  1  0  0  0  0
 14 23  1  0  0  0  0
 14 22  2  0  0  0  0
 15  9  2  0  0  0  0
 16 19  1  0  0  0  0
 17 10  1  0  0  0  0
 17  8  1  0  0  0  0
 18 15  1  0  0  0  0
 20 10  1  0  0  0  0
 20 29  1  0  0  0  0
 21  4  2  0  0  0  0
 22 21  1  0  0  0  0
 24  7  1  0  0  0  0
 24  2  1  0  0  0  0
 27 14  1  0  0  0  0
 28  9  1  0  0  0  0
 28 23  1  0  0  0  0
 29 30  1  0  0  0  0
 30 32  2  0  0  0  0
 30 31  1  0  0  0  0
M  END
>  <MODEL>
3

>  <REMARK>
 VINA RESULT:      -8.3      2.545      4.447
  Name = 
  2 active torsions:
  status: ('A' for Active; 'I' for Inactive)
    1  A    between atoms: C_20  and  C_29
    2  A    between atoms: C_29  and  C_30
                            x       y       z     vdW  Elec       q    Type
                         _______ _______ _______ _____ _____    ______ ____

>  <TORSDO>
F 2

$$$$
=
 OpenBabel11112416353D

 32 38  0  0  1  0  0  0  0  0999 V2000
  186.6330  177.4560  146.1390 C   0  0  1  0  0  3  0  0  0  0  0  0
  191.1870  175.6200  144.1460 C   0  0  0  0  0  0  0  0  0  0  0  0
  189.6910  173.6850  139.9360 C   0  0  0  0  0  3  0  0  0  0  0  0
  191.0140  173.3660  139.6380 C   0  0  0  0  0  3  0  0  0  0  0  0
  193.6150  175.8540  144.5140 C   0  0  1  0  0  3  0  0  0  0  0  0
  194.9670  175.5410  144.0340 C   0  0  2  0  0  3  0  0  0  0  0  0
  189.5080  176.9710  145.4390 C   0  0  1  0  0  3  0  0  0  0  0  0
  188.7760  175.5670  143.5890 N   0  0  0  0  0  2  0  0  0  0  0  0
  196.4740  174.7700  142.5480 C   0  0  0  0  0  0  0  0  0  0  0  0
  187.0080  176.7370  144.8410 C   0  0  2  0  0  3  0  0  0  0  0  0
  189.4010  174.3240  141.1390 C   0  0  0  0  0  3  0  0  0  0  0  0
  190.1420  175.2580  143.2600 C   0  0  0  0  0  0  0  0  0  0  0  0
  190.4280  174.6450  142.0380 C   0  0  0  0  0  0  0  0  0  0  0  0
  192.8070  174.6170  142.5860 C   0  0  0  0  0  0  0  0  0  0  0  0
  196.9220  175.9000  142.9840 N   0  0  0  0  0  0  0  0  0  0  0  0
  187.7140  177.3800  147.2430 C   0  0  0  0  0  2  0  0  0  0  0  0
  188.3970  176.0740  144.9000 C   0  0  2  0  0  3  0  0  0  0  0  0
  195.9510  176.4150  143.8880 C   0  0  0  0  0  2  0  0  0  0  0  0
  189.1750  177.5770  146.8040 C   0  0  0  0  0  2  0  0  0  0  0  0
  187.0420  178.2620  144.9150 C   0  0  1  0  0  3  0  0  0  0  0  0
  192.0030  173.6790  140.5160 N   0  0  0  0  0  0  0  0  0  0  0  0
  191.7540  174.3120  141.7020 C   0  0  0  0  0  0  0  0  0  0  0  0
  194.0530  174.2050  142.2580 C   0  0  0  0  0  2  0  0  0  0  0  0
  190.7930  176.1610  145.5030 C   0  0  0  0  0  2  0  0  0  0  0  0
  193.5230  177.0070  145.8510 Cl  0  0  0  0  0  0  0  0  0  0  0  0
  197.2160  173.9530  141.6480 N   0  0  0  0  0  1  0  0  0  0  0  0
  192.5490  175.3610  143.7970 C   0  0  0  0  0  0  0  0  0  0  0  0
  195.2050  174.3480  143.2000 C   0  0  2  0  0  3  0  0  0  0  0  0
  185.8020  178.8200  144.2460 C   0  0  0  0  0  2  0  0  0  0  0  0
  185.9220  178.6870  142.7700 C   0  0  0  0  0  0  0  0  0  0  0  0
  184.7810  178.5490  141.9900 O   0  0  0  0  0  0  0  0  0  0  0  0
  187.0580  178.6660  142.2290 O   0  0  0  0  0  1  0  0  0  0  0  0
  1 16  1  1  0  0  0
  2 24  1  0  0  0  0
  3 11  1  0  0  0  0
  4  3  2  0  0  0  0
  4 21  1  0  0  0  0
  5 25  1  6  0  0  0
  6 18  1  6  0  0  0
  6  5  1  0  0  0  0
  7 24  1  1  0  0  0
  7 19  1  0  0  0  0
  8 17  1  0  0  0  0
  9 15  2  0  0  0  0
  9 28  1  0  0  0  0
 10 17  1  0  0  0  0
 10 20  1  0  0  0  0
 10  1  1  0  0  0  0
 11 13  2  0  0  0  0
 12  8  1  0  0  0  0
 12  2  2  0  0  0  0
 13 12  1  0  0  0  0
 14 27  2  0  0  0  0
 15 18  1  0  0  0  0
 17  7  1  0  0  0  0
 19 16  1  0  0  0  0
 20  1  1  0  0  0  0
 21 22  2  0  0  0  0
 22 13  1  0  0  0  0
 22 14  1  0  0  0  0
 23 14  1  0  0  0  0
 23 28  1  0  0  0  0
 26  9  1  0  0  0  0
 27  2  1  0  0  0  0
 27  5  1  0  0  0  0
 28  6  1  0  0  0  0
 29 20  1  0  0  0  0
 30 29  1  0  0  0  0
 31 30  2  0  0  0  0
 32 30  1  0  0  0  0
M  END
>  <MODEL>
4

>  <REMARK>
 VINA RESULT:      -8.3      1.879      2.331
  Name = 
  2 active torsions:
  status: ('A' for Active; 'I' for Inactive)
    1  A    between atoms: C_20  and  C_29
    2  A    between atoms: C_29  and  C_30
                            x       y       z     vdW  Elec       q    Type
                         _______ _______ _______ _____ _____    ______ ____

>  <TORSDO>
F 2

$$$$
=
 OpenBabel11112416353D

 32 38  0  0  1  0  0  0  0  0999 V2000
  191.0740  172.3410  139.5460 C   0  0  1  0  0  3  0  0  0  0  0  0
  188.7130  175.2210  143.3150 C   0  0  0  0  0  0  0  0  0  0  0  0
  192.0270  175.0580  146.8780 C   0  0  0  0  0  3  0  0  0  0  0  0
  191.2130  175.8890  147.6440 C   0  0  0  0  0  3  0  0  0  0  0  0
  186.8330  176.8000  143.5560 C   0  0  1  0  0  3  0  0  0  0  0  0
  186.1200  177.7380  144.4320 C   0  0  2  0  0  3  0  0  0  0  0  0
  189.3950  174.2930  141.0810 C   0  0  1  0  0  3  0  0  0  0  0  0
  190.7560  173.8480  143.0520 N   0  0  0  0  0  2  0  0  0  0  0  0
  185.8410  178.9810  146.2900 C   0  0  0  0  0  0  0  0  0  0  0  0
  191.4780  172.7750  140.9570 C   0  0  2  0  0  3  0  0  0  0  0  0
  191.6050  174.6780  145.6070 C   0  0  0  0  0  3  0  0  0  0  0  0
  189.9340  174.7280  143.8390 C   0  0  0  0  0  0  0  0  0  0  0  0
  190.3780  175.1300  145.1020 C   0  0  0  0  0  0  0  0  0  0  0  0
  188.3420  176.4370  145.4240 C   0  0  0  0  0  0  0  0  0  0  0  0
  185.5420  179.7360  145.2850 N   0  0  0  0  0  0  0  0  0  0  0  0
  189.5670  172.5010  139.2390 C   0  0  0  0  0  2  0  0  0  0  0  0
  190.2900  173.2820  141.7950 C   0  0  2  0  0  3  0  0  0  0  0  0
  185.7620  178.9710  144.1060 C   0  0  0  0  0  2  0  0  0  0  0  0
  188.8880  173.7910  139.7280 C   0  0  0  0  0  2  0  0  0  0  0  0
  191.8140  173.6540  139.7550 C   0  0  1  0  0  3  0  0  0  0  0  0
  190.0230  176.3200  147.1480 N   0  0  0  0  0  0  0  0  0  0  0  0
  189.5830  175.9720  145.9010 C   0  0  0  0  0  0  0  0  0  0  0  0
  187.5770  177.1780  146.2590 C   0  0  0  0  0  2  0  0  0  0  0  0
  188.2360  174.6440  142.0010 C   0  0  0  0  0  2  0  0  0  0  0  0
  186.3210  176.7900  141.8640 Cl  0  0  0  0  0  0  0  0  0  0  0  0
  185.6980  179.4160  147.6380 N   0  0  0  0  0  1  0  0  0  0  0  0
  187.9210  176.1370  144.0760 C   0  0  0  0  0  0  0  0  0  0  0  0
  186.1850  177.5880  145.8970 C   0  0  2  0  0  3  0  0  0  0  0  0
  193.2750  173.4680  139.3960 C   0  0  0  0  0  2  0  0  0  0  0  0
  194.0250  174.7230  139.6680 C   0  0  0  0  0  0  0  0  0  0  0  0
  193.9950  175.2910  140.9350 O   0  0  0  0  0  1  0  0  0  0  0  0
  194.6600  175.2910  138.7410 O   0  0  0  0  0  0  0  0  0  0  0  0
  1 16  1  1  0  0  0
  1 20  1  0  0  0  0
  1 10  1  0  0  0  0
  2 12  2  0  0  0  0
  2 27  1  0  0  0  0
  3  4  1  0  0  0  0
  5 25  1  6  0  0  0
  5 27  1  0  0  0  0
  5  6  1  0  0  0  0
  6 18  1  1  0  0  0
  6 28  1  0  0  0  0
  7 19  1  6  0  0  0
  7 17  1  0  0  0  0
  7 24  1  0  0  0  0
  8 12  1  0  0  0  0
  9 26  1  0  0  0  0
 10 17  1  0  0  0  0
 11  3  2  0  0  0  0
 12 13  1  0  0  0  0
 13 11  1  0  0  0  0
 13 22  2  0  0  0  0
 14 22  1  0  0  0  0
 14 23  1  0  0  0  0
 15  9  2  0  0  0  0
 16 19  1  0  0  0  0
 17  8  1  0  0  0  0
 18 15  1  0  0  0  0
 20 10  1  0  0  0  0
 21  4  2  0  0  0  0
 22 21  1  0  0  0  0
 24  2  1  0  0  0  0
 27 14  2  0  0  0  0
 28 23  1  0  0  0  0
 28  9  1  0  0  0  0
 29 30  1  0  0  0  0
 29 20  1  0  0  0  0
 30 31  1  0  0  0  0
 32 30  2  0  0  0  0
M  END
>  <MODEL>
5

>  <REMARK>
 VINA RESULT:      -8.2      3.471      7.908
  Name = 
  2 active torsions:
  status: ('A' for Active; 'I' for Inactive)
    1  A    between atoms: C_20  and  C_29
    2  A    between atoms: C_29  and  C_30
                            x       y       z     vdW  Elec       q    Type
                         _______ _______ _______ _____ _____    ______ ____

>  <TORSDO>
F 2

$$$$
=
 OpenBabel11112416353D

 32 38  0  0  1  0  0  0  0  0999 V2000
  187.6190  177.3560  145.8690 C   0  0  1  0  0  3  0  0  0  0  0  0
  191.9230  174.3020  145.3830 C   0  0  0  0  0  0  0  0  0  0  0  0
  190.3480  170.8960  142.2790 C   0  0  0  0  0  3  0  0  0  0  0  0
  191.6180  170.3240  142.2970 C   0  0  0  0  0  3  0  0  0  0  0  0
  194.3370  174.3850  145.8810 C   0  0  1  0  0  3  0  0  0  0  0  0
  195.6450  173.7340  145.7370 C   0  0  2  0  0  3  0  0  0  0  0  0
  190.4140  176.2740  145.7710 C   0  0  1  0  0  3  0  0  0  0  0  0
  189.5620  174.2940  144.6380 N   0  0  0  0  0  2  0  0  0  0  0  0
  197.0840  172.2120  144.9060 C   0  0  0  0  0  0  0  0  0  0  0  0
  187.9400  176.0980  145.0580 C   0  0  2  0  0  3  0  0  0  0  0  0
  190.1030  172.0310  143.0500 C   0  0  0  0  0  3  0  0  0  0  0  0
  190.8780  173.7120  144.6280 C   0  0  0  0  0  0  0  0  0  0  0  0
  191.1240  172.5930  143.8300 C   0  0  0  0  0  0  0  0  0  0  0  0
  193.4400  172.5280  144.5980 C   0  0  0  0  0  0  0  0  0  0  0  0
  197.6810  173.3570  144.8590 N   0  0  0  0  0  0  0  0  0  0  0  0
  188.6220  177.6490  147.0100 C   0  0  0  0  0  2  0  0  0  0  0  0
  189.2040  175.3690  145.5510 C   0  0  2  0  0  3  0  0  0  0  0  0
  196.7590  174.3300  145.3380 C   0  0  0  0  0  2  0  0  0  0  0  0
  190.1140  177.4560  146.6950 C   0  0  0  0  0  2  0  0  0  0  0  0
  188.2070  177.4820  144.4710 C   0  0  1  0  0  3  0  0  0  0  0  0
  192.6000  170.8740  143.0590 N   0  0  0  0  0  0  0  0  0  0  0  0
  192.3960  171.9900  143.8200 C   0  0  0  0  0  0  0  0  0  0  0  0
  194.6210  171.8690  144.6200 C   0  0  0  0  0  2  0  0  0  0  0  0
  191.5540  175.4300  146.3200 C   0  0  0  0  0  2  0  0  0  0  0  0
  194.3620  176.0130  146.5710 Cl  0  0  0  0  0  0  0  0  0  0  0  0
  197.7320  171.0010  144.5350 N   0  0  0  0  0  1  0  0  0  0  0  0
  193.2430  173.7560  145.3330 C   0  0  0  0  0  0  0  0  0  0  0  0
  195.7350  172.2770  145.5310 C   0  0  2  0  0  3  0  0  0  0  0  0
  187.1020  177.8300  143.4940 C   0  0  0  0  0  2  0  0  0  0  0  0
  187.6440  177.8550  142.1090 C   0  0  0  0  0  0  0  0  0  0  0  0
  188.9250  178.3360  141.8720 O   0  0  0  0  0  1  0  0  0  0  0  0
  186.9290  177.4720  141.1460 O   0  0  0  0  0  0  0  0  0  0  0  0
  1 16  1  1  0  0  0
  2 24  1  0  0  0  0
  3  4  2  0  0  0  0
  3 11  1  0  0  0  0
  4 21  1  0  0  0  0
  5 25  1  6  0  0  0
  6 18  1  6  0  0  0
  6  5  1  0  0  0  0
  7 24  1  1  0  0  0
  7 19  1  0  0  0  0
  8 17  1  0  0  0  0
  9 28  1  0  0  0  0
 10 17  1  0  0  0  0
 10  1  1  0  0  0  0
 11 13  2  0  0  0  0
 12  8  1  0  0  0  0
 12  2  2  0  0  0  0
 13 12  1  0  0  0  0
 14 23  1  0  0  0  0
 14 27  2  0  0  0  0
 15  9  2  0  0  0  0
 15 18  1  0  0  0  0
 17  7  1  0  0  0  0
 19 16  1  0  0  0  0
 20 10  1  0  0  0  0
 20  1  1  0  0  0  0
 21 22  2  0  0  0  0
 22 13  1  0  0  0  0
 22 14  1  0  0  0  0
 23 28  1  0  0  0  0
 26  9  1  0  0  0  0
 27  2  1  0  0  0  0
 27  5  1  0  0  0  0
 28  6  1  0  0  0  0
 29 20  1  0  0  0  0
 30 29  1  0  0  0  0
 31 30  1  0  0  0  0
 32 30  2  0  0  0  0
M  END
>  <MODEL>
6

>  <REMARK>
 VINA RESULT:      -8.2      2.211      3.187
  Name = 
  2 active torsions:
  status: ('A' for Active; 'I' for Inactive)
    1  A    between atoms: C_20  and  C_29
    2  A    between atoms: C_29  and  C_30
                            x       y       z     vdW  Elec       q    Type
                         _______ _______ _______ _____ _____    ______ ____

>  <TORSDO>
F 2

$$$$
=
 OpenBabel11112416353D

 32 38  0  0  1  0  0  0  0  0999 V2000
  194.1560  172.8700  141.2650 C   0  0  1  0  0  3  0  0  0  0  0  0
  189.7620  175.2000  143.0950 C   0  0  0  0  0  0  0  0  0  0  0  0
  191.2260  176.7160  147.4840 C   0  0  0  0  0  3  0  0  0  0  0  0
  189.9740  177.2970  147.6770 C   0  0  0  0  0  3  0  0  0  0  0  0
  187.5940  176.0200  142.2520 C   0  0  1  0  0  3  0  0  0  0  0  0
  186.3560  176.7510  142.5500 C   0  0  2  0  0  3  0  0  0  0  0  0
  191.5280  174.2830  141.5590 C   0  0  1  0  0  3  0  0  0  0  0  0
  192.0240  174.6250  143.9190 N   0  0  0  0  0  2  0  0  0  0  0  0
  185.0080  178.0520  143.8010 C   0  0  0  0  0  0  0  0  0  0  0  0
  193.8080  173.6070  142.5610 C   0  0  2  0  0  3  0  0  0  0  0  0
  191.4860  176.0410  146.2940 C   0  0  0  0  0  3  0  0  0  0  0  0
  190.7440  175.2520  144.1150 C   0  0  0  0  0  0  0  0  0  0  0  0
  190.5010  175.9520  145.2990 C   0  0  0  0  0  0  0  0  0  0  0  0
  188.2390  176.4770  144.5480 C   0  0  0  0  0  0  0  0  0  0  0  0
  184.9520  178.5070  142.5930 N   0  0  0  0  0  0  0  0  0  0  0  0
  192.9270  172.4380  140.4300 C   0  0  0  0  0  2  0  0  0  0  0  0
  192.2910  173.7650  142.7750 C   0  0  2  0  0  3  0  0  0  0  0  0
  185.8390  177.7190  141.8070 C   0  0  0  0  0  2  0  0  0  0  0  0
  191.7800  173.4540  140.2980 C   0  0  0  0  0  2  0  0  0  0  0  0
  194.3510  174.3760  141.3590 C   0  0  1  0  0  3  0  0  0  0  0  0
  189.0250  177.2030  146.7080 N   0  0  0  0  0  0  0  0  0  0  0  0
  189.2500  176.5550  145.5260 C   0  0  0  0  0  0  0  0  0  0  0  0
  187.0270  177.0010  144.8430 C   0  0  0  0  0  2  0  0  0  0  0  0
  190.0450  174.3180  141.8990 C   0  0  0  0  0  2  0  0  0  0  0  0
  187.8460  175.5990  140.5530 Cl  0  0  0  0  0  0  0  0  0  0  0  0
  184.2110  178.5860  144.8530 N   0  0  0  0  0  1  0  0  0  0  0  0
  188.5090  175.8670  143.2680 C   0  0  0  0  0  0  0  0  0  0  0  0
  185.8520  176.8340  143.9330 C   0  0  2  0  0  3  0  0  0  0  0  0
  195.8190  174.6780  141.5830 C   0  0  0  0  0  2  0  0  0  0  0  0
  195.9740  176.0490  142.1390 C   0  0  0  0  0  0  0  0  0  0  0  0
  196.0980  177.1360  141.2830 O   0  0  0  0  0  0  0  0  0  0  0  0
  196.0260  176.2220  143.3840 O   0  0  0  0  0  1  0  0  0  0  0  0
  1 16  1  6  0  0  0
  1 20  1  0  0  0  0
  1 10  1  0  0  0  0
  2 27  2  0  0  0  0
  2 12  1  0  0  0  0
  3  4  1  0  0  0  0
  5 25  1  6  0  0  0
  5  6  1  0  0  0  0
  5 27  1  0  0  0  0
  6 18  1  1  0  0  0
  6 28  1  0  0  0  0
  7 19  1  6  0  0  0
  7 24  1  0  0  0  0
  7 17  1  0  0  0  0
  8 12  1  0  0  0  0
  9 28  1  0  0  0  0
  9 26  1  0  0  0  0
 10 17  1  0  0  0  0
 11  3  2  0  0  0  0
 12 13  2  0  0  0  0
 13 22  1  0  0  0  0
 13 11  1  0  0  0  0
 14 23  1  0  0  0  0
 14 22  2  0  0  0  0
 15  9  2  0  0  0  0
 17  8  1  0  0  0  0
 18 15  1  0  0  0  0
 19 16  1  0  0  0  0
 20 29  1  0  0  0  0
 20 10  1  0  0  0  0
 21  4  2  0  0  0  0
 22 21  1  0  0  0  0
 24  2  1  0  0  0  0
 27 14  1  0  0  0  0
 28 23  1  0  0  0  0
 29 30  1  0  0  0  0
 30 32  1  0  0  0  0
 31 30  2  0  0  0  0
M  END
>  <MODEL>
7

>  <REMARK>
 VINA RESULT:      -7.9      3.837      8.474
  Name = 
  2 active torsions:
  status: ('A' for Active; 'I' for Inactive)
    1  A    between atoms: C_20  and  C_29
    2  A    between atoms: C_29  and  C_30
                            x       y       z     vdW  Elec       q    Type
                         _______ _______ _______ _____ _____    ______ ____

>  <TORSDO>
F 2

$$$$
=
 OpenBabel11112416353D

 32 38  0  0  1  0  0  0  0  0999 V2000
  192.8680  170.2130  143.0620 C   0  0  1  0  0  3  0  0  0  0  0  0
  189.5580  174.2740  143.8580 C   0  0  0  0  0  0  0  0  0  0  0  0
  191.4110  176.2560  147.9010 C   0  0  0  0  0  3  0  0  0  0  0  0
  190.4430  177.2550  147.8290 C   0  0  0  0  0  3  0  0  0  0  0  0
  187.8290  175.5400  142.6370 C   0  0  1  0  0  3  0  0  0  0  0  0
  186.9250  176.6980  142.6330 C   0  0  2  0  0  3  0  0  0  0  0  0
  190.9050  172.4590  142.7590 C   0  0  1  0  0  3  0  0  0  0  0  0
  191.4620  173.1930  145.0130 N   0  0  0  0  0  2  0  0  0  0  0  0
  186.1080  178.6480  143.4090 C   0  0  0  0  0  0  0  0  0  0  0  0
  192.7880  171.3250  144.1110 C   0  0  2  0  0  3  0  0  0  0  0  0
  191.4300  175.2570  146.9300 C   0  0  0  0  0  3  0  0  0  0  0  0
  190.4840  174.2450  144.9310 C   0  0  0  0  0  0  0  0  0  0  0  0
  190.4890  175.2600  145.8910 C   0  0  0  0  0  0  0  0  0  0  0  0
  188.5670  176.3140  144.8180 C   0  0  0  0  0  0  0  0  0  0  0  0
  186.2310  178.7760  142.1300 N   0  0  0  0  0  0  0  0  0  0  0  0
  191.5770  170.0280  142.2320 C   0  0  0  0  0  2  0  0  0  0  0  0
  191.4220  172.0360  144.1320 C   0  0  2  0  0  3  0  0  0  0  0  0
  186.7920  177.5630  141.6390 C   0  0  0  0  0  2  0  0  0  0  0  0
  190.8630  171.3050  141.7560 C   0  0  0  0  0  2  0  0  0  0  0  0
  193.5820  171.5360  142.8240 C   0  0  1  0  0  3  0  0  0  0  0  0
  189.5330  177.2480  146.8190 N   0  0  0  0  0  0  0  0  0  0  0  0
  189.5290  176.2870  145.8460 C   0  0  0  0  0  0  0  0  0  0  0  0
  187.6150  177.2740  144.8620 C   0  0  0  0  0  2  0  0  0  0  0  0
  189.5260  173.0780  142.9330 C   0  0  0  0  0  2  0  0  0  0  0  0
  187.9370  174.6460  141.1150 Cl  0  0  0  0  0  0  0  0  0  0  0  0
  185.5390  179.6660  144.2250 N   0  0  0  0  0  1  0  0  0  0  0  0
  188.6190  175.3470  143.7460 C   0  0  0  0  0  0  0  0  0  0  0  0
  186.4670  177.2910  143.9030 C   0  0  2  0  0  3  0  0  0  0  0  0
  195.0590  171.3690  143.1180 C   0  0  0  0  0  2  0  0  0  0  0  0
  195.5110  172.4300  144.0560 C   0  0  0  0  0  0  0  0  0  0  0  0
  195.9780  172.0890  145.3190 O   0  0  0  0  0  1  0  0  0  0  0  0
  195.4390  173.6410  143.7190 O   0  0  0  0  0  0  0  0  0  0  0  0
  1 16  1  6  0  0  0
  1 10  1  0  0  0  0
  2 12  1  0  0  0  0
  4  3  1  0  0  0  0
  5 25  1  6  0  0  0
  5 27  1  0  0  0  0
  6 18  1  6  0  0  0
  6  5  1  0  0  0  0
  6 28  1  0  0  0  0
  7 19  1  6  0  0  0
  7 24  1  0  0  0  0
  7 17  1  0  0  0  0
  9 28  1  0  0  0  0
  9 26  1  0  0  0  0
 10 17  1  0  0  0  0
 11  3  2  0  0  0  0
 12  8  1  0  0  0  0
 12 13  2  0  0  0  0
 13 11  1  0  0  0  0
 14 23  1  0  0  0  0
 14 22  2  0  0  0  0
 15  9  2  0  0  0  0
 17  8  1  0  0  0  0
 18 15  1  0  0  0  0
 19 16  1  0  0  0  0
 20  1  1  0  0  0  0
 20 29  1  0  0  0  0
 20 10  1  0  0  0  0
 21  4  2  0  0  0  0
 22 13  1  0  0  0  0
 22 21  1  0  0  0  0
 24  2  1  0  0  0  0
 27  2  2  0  0  0  0
 27 14  1  0  0  0  0
 28 23  1  0  0  0  0
 29 30  1  0  0  0  0
 30 31  1  0  0  0  0
 32 30  2  0  0  0  0
M  END
>  <MODEL>
8

>  <REMARK>
 VINA RESULT:      -7.7      4.010      8.485
  Name = 
  2 active torsions:
  status: ('A' for Active; 'I' for Inactive)
    1  A    between atoms: C_20  and  C_29
    2  A    between atoms: C_29  and  C_30
                            x       y       z     vdW  Elec       q    Type
                         _______ _______ _______ _____ _____    ______ ____

>  <TORSDO>
F 2

$$$$
=
 OpenBabel11112416353D

 32 38  0  0  1  0  0  0  0  0999 V2000
  186.5070  178.0890  144.8830 C   0  0  1  0  0  3  0  0  0  0  0  0
  190.6990  175.4610  142.9850 C   0  0  0  0  0  0  0  0  0  0  0  0
  193.9770  176.1880  146.5120 C   0  0  0  0  0  3  0  0  0  0  0  0
  194.8770  175.3890  145.8100 C   0  0  0  0  0  3  0  0  0  0  0  0
  191.2280  173.8000  141.2390 C   0  0  1  0  0  3  0  0  0  0  0  0
  192.2400  172.9120  140.6540 C   0  0  2  0  0  3  0  0  0  0  0  0
  188.3420  176.2000  143.4500 C   0  0  1  0  0  3  0  0  0  0  0  0
  190.1560  176.9250  144.9060 N   0  0  0  0  0  2  0  0  0  0  0  0
  194.2240  171.8480  140.5860 C   0  0  0  0  0  0  0  0  0  0  0  0
  187.9200  177.8250  145.4100 C   0  0  2  0  0  3  0  0  0  0  0  0
  192.7090  176.4110  145.9800 C   0  0  0  0  0  3  0  0  0  0  0  0
  191.0820  176.0790  144.2020 C   0  0  0  0  0  0  0  0  0  0  0  0
  192.3410  175.8350  144.7560 C   0  0  0  0  0  0  0  0  0  0  0  0
  192.9360  174.4420  142.8420 C   0  0  0  0  0  0  0  0  0  0  0  0
  193.3210  170.9780  140.2740 N   0  0  0  0  0  0  0  0  0  0  0  0
  186.3290  177.8050  143.3740 C   0  0  0  0  0  2  0  0  0  0  0  0
  188.8880  177.3320  144.3180 C   0  0  2  0  0  3  0  0  0  0  0  0
  192.0610  171.6330  140.3610 C   0  0  0  0  0  2  0  0  0  0  0  0
  186.9890  176.5310  142.8200 C   0  0  0  0  0  2  0  0  0  0  0  0
  186.7860  176.8520  145.7250 C   0  0  1  0  0  3  0  0  0  0  0  0
  194.5120  174.8380  144.6230 N   0  0  0  0  0  0  0  0  0  0  0  0
  193.2740  175.0300  144.0760 C   0  0  0  0  0  0  0  0  0  0  0  0
  193.8920  173.7430  142.1870 C   0  0  0  0  0  2  0  0  0  0  0  0
  189.3740  175.8720  142.3820 C   0  0  0  0  0  2  0  0  0  0  0  0
  189.5850  173.6070  140.6160 Cl  0  0  0  0  0  0  0  0  0  0  0  0
  195.6140  171.5430  140.5650 N   0  0  0  0  0  1  0  0  0  0  0  0
  191.6000  174.5780  142.3110 C   0  0  0  0  0  0  0  0  0  0  0  0
  193.6750  173.2130  140.8060 C   0  0  2  0  0  3  0  0  0  0  0  0
  186.3050  177.0910  147.1410 C   0  0  0  0  0  2  0  0  0  0  0  0
  185.2700  178.1590  147.1500 C   0  0  0  0  0  0  0  0  0  0  0  0
  185.5730  179.4170  147.6560 O   0  0  0  0  0  1  0  0  0  0  0  0
  184.1090  177.9150  146.7300 O   0  0  0  0  0  0  0  0  0  0  0  0
  1 16  1  6  0  0  0
  1 10  1  0  0  0  0
  1 20  1  0  0  0  0
  2 12  1  0  0  0  0
  4  3  1  0  0  0  0
  5 25  1  1  0  0  0
  5 27  1  0  0  0  0
  6 18  1  1  0  0  0
  6 28  1  0  0  0  0
  6  5  1  0  0  0  0
  7 24  1  6  0  0  0
  7 17  1  0  0  0  0
  9 28  1  0  0  0  0
 10 20  1  0  0  0  0
 11  3  2  0  0  0  0
 12 13  2  0  0  0  0
 12  8  1  0  0  0  0
 13 11  1  0  0  0  0
 14 22  2  0  0  0  0
 15 18  1  0  0  0  0
 15  9  2  0  0  0  0
 17  8  1  0  0  0  0
 17 10  1  0  0  0  0
 19 16  1  0  0  0  0
 19  7  1  0  0  0  0
 20 29  1  0  0  0  0
 21  4  2  0  0  0  0
 22 21  1  0  0  0  0
 22 13  1  0  0  0  0
 23 14  1  0  0  0  0
 24  2  1  0  0  0  0
 26  9  1  0  0  0  0
 27 14  1  0  0  0  0
 27  2  2  0  0  0  0
 28 23  1  0  0  0  0
 29 30  1  0  0  0  0
 30 31  1  0  0  0  0
 32 30  2  0  0  0  0
M  END
>  <MODEL>
9

>  <REMARK>
 VINA RESULT:      -7.7      2.820      4.858
  Name = 
  2 active torsions:
  status: ('A' for Active; 'I' for Inactive)
    1  A    between atoms: C_20  and  C_29
    2  A    between atoms: C_29  and  C_30
                            x       y       z     vdW  Elec       q    Type
                         _______ _______ _______ _____ _____    ______ ____

>  <TORSDO>
F 2

$$$$
