=
 OpenBabel11112417023D

 31 35  0  0  1  0  0  0  0  0999 V2000
  184.8530  178.0630  147.2390 C   0  0  1  0  0  3  0  0  0  0  0  0
  187.3700  175.8090  145.2600 C   0  0  2  0  0  3  0  0  0  0  0  0
  187.3750  176.3910  143.8500 C   0  0  0  0  0  0  0  0  0  0  0  0
  186.2250  177.5290  142.0290 C   0  0  0  0  0  0  0  0  0  0  0  0
  186.7900  176.7130  146.3700 C   0  0  2  0  0  3  0  0  0  0  0  0
  185.7800  179.2590  147.4000 C   0  0  0  0  0  2  0  0  0  0  0  0
  186.2550  177.0720  143.3480 C   0  0  0  0  0  3  0  0  0  0  0  0
  189.6580  176.5540  146.0990 C   0  0  2  0  0  3  0  0  0  0  0  0
  183.5770  178.5040  146.9460 F   0  0  0  0  0  0  0  0  0  0  0  0
  189.6730  175.3940  143.4440 C   0  0  0  0  0  2  0  0  0  0  0  0
  184.8250  178.3970  141.4380 Cl  0  0  0  0  0  0  0  0  0  0  0  0
  189.0180  177.3200  147.1680 N   0  0  0  0  0  2  0  0  0  0  0  0
  188.7780  175.3560  145.6840 C   0  0  2  0  0  3  0  0  0  0  0  0
  185.3510  177.1680  146.1130 C   0  0  0  0  0  2  0  0  0  0  0  0
  187.3060  177.2880  141.1820 C   0  0  0  0  0  3  0  0  0  0  0  0
  187.7520  177.8710  146.6880 C   0  0  2  0  0  3  0  0  0  0  0  0
  187.1750  178.7760  147.7740 C   0  0  0  0  0  2  0  0  0  0  0  0
  189.3990  174.5610  144.6170 N   0  0  0  0  0  2  0  0  0  0  0  0
  188.4460  176.1140  142.9700 C   0  0  0  0  0  0  0  0  0  0  0  0
  188.4150  176.5830  141.6530 C   0  0  0  0  0  3  0  0  0  0  0  0
  192.1520  177.1600  144.8620 O   0  0  0  0  0  0  0  0  0  0  0  0
  192.1720  176.4280  145.8900 C   0  0  0  0  0  0  0  0  0  0  0  0
  190.9580  176.0810  146.5540 N   0  0  0  0  0  2  0  0  0  0  0  0
  195.6310  176.1900  144.6030 C   0  0  1  0  0  3  0  0  0  0  0  0
  194.5560  176.9920  146.4260 C   0  0  0  0  0  2  0  0  0  0  0  0
  192.9740  173.7340  145.4680 O   0  0  0  0  0  1  0  0  0  0  0  0
  196.3090  176.5630  143.3010 C   0  0  0  0  0  1  0  0  0  0  0  0
  194.9430  177.3090  145.1090 O   0  0  0  0  0  0  0  0  0  0  0  0
  193.9910  174.6670  145.6780 C   0  0  2  0  0  3  0  0  0  0  0  0
  193.4730  175.9060  146.4280 C   0  0  2  0  0  3  0  0  0  0  0  0
  194.6520  175.0440  144.3550 C   0  0  0  0  0  2  0  0  0  0  0  0
  1  9  1  6  0  0  0
  1  6  1  0  0  0  0
  2  3  1  6  0  0  0
  2 13  1  0  0  0  0
  2  5  1  0  0  0  0
  4  7  2  0  0  0  0
  5 14  1  6  0  0  0
  5 16  1  0  0  0  0
  6 17  1  0  0  0  0
  7  3  1  0  0  0  0
  8 23  1  1  0  0  0
  8 12  1  0  0  0  0
 10 18  1  0  0  0  0
 11  4  1  0  0  0  0
 13 18  1  6  0  0  0
 13  8  1  0  0  0  0
 14  1  1  0  0  0  0
 15 20  2  0  0  0  0
 15  4  1  0  0  0  0
 16 12  1  0  0  0  0
 16 17  1  1  0  0  0
 19 10  1  0  0  0  0
 19  3  2  0  0  0  0
 20 19  1  0  0  0  0
 21 22  2  0  0  0  0
 22 23  1  0  0  0  0
 24 27  1  6  0  0  0
 24 28  1  0  0  0  0
 25 30  1  0  0  0  0
 28 25  1  0  0  0  0
 29 26  1  6  0  0  0
 29 30  1  0  0  0  0
 30 22  1  6  0  0  0
 31 24  1  0  0  0  0
 31 29  1  0  0  0  0
M  END
>  <MODEL>
1

>  <REMARK>
 VINA RESULT:      -8.7      0.000      0.000
  Name = 
  2 active torsions:
  status: ('A' for Active; 'I' for Inactive)
    1  A    between atoms: C_5  and  C_30
    2  A    between atoms: C_10  and  N_16
                            x       y       z     vdW  Elec       q    Type
                         _______ _______ _______ _____ _____    ______ ____

>  <TORSDO>
F 2

$$$$
=
 OpenBabel11112417023D

 31 35  0  0  1  0  0  0  0  0999 V2000
  194.4730  176.8500  145.2920 C   0  0  1  0  0  3  0  0  0  0  0  0
  191.0430  177.0840  143.4170 C   0  0  2  0  0  3  0  0  0  0  0  0
  190.9390  175.7710  142.6480 C   0  0  0  0  0  0  0  0  0  0  0  0
  192.0000  173.9230  141.4660 C   0  0  0  0  0  0  0  0  0  0  0  0
  192.0810  177.1260  144.5600 C   0  0  2  0  0  3  0  0  0  0  0  0
  194.0110  175.8890  146.3780 C   0  0  0  0  0  2  0  0  0  0  0  0
  192.0910  175.0790  142.2450 C   0  0  0  0  0  3  0  0  0  0  0  0
  189.3100  176.7100  145.2490 C   0  0  2  0  0  3  0  0  0  0  0  0
  195.7370  176.4930  144.8660 F   0  0  0  0  0  0  0  0  0  0  0  0
  188.4120  176.0040  142.5870 C   0  0  0  0  0  2  0  0  0  0  0  0
  193.4530  173.0680  141.0000 Cl  0  0  0  0  0  0  0  0  0  0  0  0
  190.3550  176.8430  146.2650 N   0  0  0  0  0  2  0  0  0  0  0  0
  189.6760  177.5120  143.9820 C   0  0  2  0  0  3  0  0  0  0  0  0
  193.5090  176.8020  144.1140 C   0  0  0  0  0  2  0  0  0  0  0  0
  190.7510  173.4570  141.0560 C   0  0  0  0  0  3  0  0  0  0  0  0
  191.6070  176.2850  145.7580 C   0  0  2  0  0  3  0  0  0  0  0  0
  192.6390  176.3120  146.8850 C   0  0  0  0  0  2  0  0  0  0  0  0
  188.6420  177.4060  142.9460 N   0  0  0  0  0  2  0  0  0  0  0  0
  189.6820  175.3130  142.1890 C   0  0  0  0  0  0  0  0  0  0  0  0
  189.5960  174.1500  141.4180 C   0  0  0  0  0  3  0  0  0  0  0  0
  187.8700  175.4890  147.3830 O   0  0  0  0  0  0  0  0  0  0  0  0
  187.3780  176.5290  146.8660 C   0  0  0  0  0  0  0  0  0  0  0  0
  188.0450  177.1860  145.7890 N   0  0  0  0  0  2  0  0  0  0  0  0
  184.8350  178.8580  145.5280 C   0  0  1  0  0  3  0  0  0  0  0  0
  184.9230  176.7760  146.4140 C   0  0  0  0  0  2  0  0  0  0  0  0
  187.2880  178.9670  148.3240 O   0  0  0  0  0  1  0  0  0  0  0  0
  184.6920  179.6540  144.2480 C   0  0  0  0  0  1  0  0  0  0  0  0
  185.0570  177.5040  145.2140 O   0  0  0  0  0  0  0  0  0  0  0  0
  186.1300  178.6060  147.6320 C   0  0  2  0  0  3  0  0  0  0  0  0
  186.0800  177.0910  147.3720 C   0  0  2  0  0  3  0  0  0  0  0  0
  186.0110  179.4050  146.3370 C   0  0  0  0  0  2  0  0  0  0  0  0
  1  9  1  6  0  0  0
  1  6  1  0  0  0  0
  2  3  1  1  0  0  0
  2 13  1  0  0  0  0
  2  5  1  0  0  0  0
  4  7  2  0  0  0  0
  5 14  1  6  0  0  0
  5 16  1  0  0  0  0
  6 17  1  0  0  0  0
  7  3  1  0  0  0  0
  8 23  1  1  0  0  0
  8 12  1  0  0  0  0
 10 18  1  0  0  0  0
 11  4  1  0  0  0  0
 13 18  1  6  0  0  0
 13  8  1  0  0  0  0
 14  1  1  0  0  0  0
 15 20  2  0  0  0  0
 15  4  1  0  0  0  0
 16 12  1  0  0  0  0
 16 17  1  1  0  0  0
 19 10  1  0  0  0  0
 19  3  2  0  0  0  0
 20 19  1  0  0  0  0
 22 21  2  0  0  0  0
 23 22  1  0  0  0  0
 24 27  1  6  0  0  0
 24 31  1  0  0  0  0
 25 30  1  0  0  0  0
 28 24  1  0  0  0  0
 28 25  1  0  0  0  0
 29 26  1  6  0  0  0
 30 22  1  6  0  0  0
 30 29  1  0  0  0  0
 31 29  1  0  0  0  0
M  END
>  <MODEL>
2

>  <REMARK>
 VINA RESULT:      -8.4      3.888      7.189
  Name = 
  2 active torsions:
  status: ('A' for Active; 'I' for Inactive)
    1  A    between atoms: C_5  and  C_30
    2  A    between atoms: C_10  and  N_16
                            x       y       z     vdW  Elec       q    Type
                         _______ _______ _______ _____ _____    ______ ____

>  <TORSDO>
F 2

$$$$
=
 OpenBabel11112417023D

 31 35  0  0  1  0  0  0  0  0999 V2000
  185.0120  177.6790  147.0830 C   0  0  1  0  0  3  0  0  0  0  0  0
  187.2890  175.8710  144.4610 C   0  0  2  0  0  3  0  0  0  0  0  0
  186.9800  176.5700  143.1410 C   0  0  0  0  0  0  0  0  0  0  0  0
  185.4170  177.7400  141.6840 C   0  0  0  0  0  0  0  0  0  0  0  0
  186.8570  176.6120  145.7440 C   0  0  2  0  0  3  0  0  0  0  0  0
  185.8500  178.9440  147.1970 C   0  0  0  0  0  2  0  0  0  0  0  0
  185.7330  177.1760  142.9210 C   0  0  0  0  0  3  0  0  0  0  0  0
  189.6250  176.7670  144.9480 C   0  0  2  0  0  3  0  0  0  0  0  0
  183.6720  178.0130  147.0700 F   0  0  0  0  0  0  0  0  0  0  0  0
  189.2360  175.8490  142.2270 C   0  0  0  0  0  2  0  0  0  0  0  0
  183.8640  178.5110  141.4470 Cl  0  0  0  0  0  0  0  0  0  0  0  0
  189.1360  177.3690  146.1890 N   0  0  0  0  0  2  0  0  0  0  0  0
  188.7860  175.5260  144.5760 C   0  0  2  0  0  3  0  0  0  0  0  0
  185.3620  176.9400  145.7990 C   0  0  0  0  0  2  0  0  0  0  0  0
  186.3360  177.6830  140.6370 C   0  0  0  0  0  3  0  0  0  0  0  0
  187.7610  177.8290  146.0030 C   0  0  2  0  0  3  0  0  0  0  0  0
  187.3260  178.5740  147.2630 C   0  0  0  0  0  2  0  0  0  0  0  0
  189.2570  174.8940  143.3380 N   0  0  0  0  0  2  0  0  0  0  0  0
  187.8860  176.4800  142.0590 C   0  0  0  0  0  0  0  0  0  0  0  0
  187.5680  177.0560  140.8250 C   0  0  0  0  0  3  0  0  0  0  0  0
  191.8380  178.1090  143.7580 O   0  0  0  0  0  0  0  0  0  0  0  0
  192.0850  177.1110  144.4890 C   0  0  0  0  0  0  0  0  0  0  0  0
  191.0220  176.3900  145.1100 N   0  0  0  0  0  2  0  0  0  0  0  0
  193.7630  173.8380  144.8770 C   0  0  1  0  0  3  0  0  0  0  0  0
  193.9660  175.7040  143.6110 C   0  0  0  0  0  2  0  0  0  0  0  0
  193.1220  176.7440  147.1100 O   0  0  0  0  0  1  0  0  0  0  0  0
  193.2940  172.3990  144.8940 C   0  0  0  0  0  1  0  0  0  0  0  0
  193.2960  174.4680  143.7080 O   0  0  0  0  0  0  0  0  0  0  0  0
  193.7220  176.0060  146.0880 C   0  0  2  0  0  3  0  0  0  0  0  0
  193.5000  176.6620  144.7150 C   0  0  2  0  0  3  0  0  0  0  0  0
  193.2250  174.5630  146.1100 C   0  0  0  0  0  2  0  0  0  0  0  0
  1  9  1  6  0  0  0
  1  6  1  0  0  0  0
  2  3  1  6  0  0  0
  2 13  1  0  0  0  0
  2  5  1  0  0  0  0
  4  7  2  0  0  0  0
  5 14  1  6  0  0  0
  5 16  1  0  0  0  0
  6 17  1  0  0  0  0
  7  3  1  0  0  0  0
  8 23  1  1  0  0  0
  8 12  1  0  0  0  0
 10 18  1  0  0  0  0
 11  4  1  0  0  0  0
 13 18  1  6  0  0  0
 13  8  1  0  0  0  0
 14  1  1  0  0  0  0
 15 20  2  0  0  0  0
 15  4  1  0  0  0  0
 16 12  1  0  0  0  0
 16 17  1  1  0  0  0
 19 10  1  0  0  0  0
 19  3  2  0  0  0  0
 20 19  1  0  0  0  0
 21 22  2  0  0  0  0
 22 23  1  0  0  0  0
 24 27  1  6  0  0  0
 24 31  1  0  0  0  0
 25 28  1  0  0  0  0
 25 30  1  0  0  0  0
 28 24  1  0  0  0  0
 29 31  1  0  0  0  0
 29 26  1  1  0  0  0
 30 22  1  6  0  0  0
 30 29  1  0  0  0  0
M  END
>  <MODEL>
3

>  <REMARK>
 VINA RESULT:      -8.3      1.237      1.861
  Name = 
  2 active torsions:
  status: ('A' for Active; 'I' for Inactive)
    1  A    between atoms: C_5  and  C_30
    2  A    between atoms: C_10  and  N_16
                            x       y       z     vdW  Elec       q    Type
                         _______ _______ _______ _____ _____    ______ ____

>  <TORSDO>
F 2

$$$$
=
 OpenBabel11112417023D

 31 35  0  0  1  0  0  0  0  0999 V2000
  187.4850  177.5940  140.7550 C   0  0  1  0  0  3  0  0  0  0  0  0
  188.9220  177.8090  144.3910 C   0  0  2  0  0  3  0  0  0  0  0  0
  187.6950  177.7220  145.2920 C   0  0  0  0  0  0  0  0  0  0  0  0
  185.3310  178.1540  145.6910 C   0  0  0  0  0  0  0  0  0  0  0  0
  188.7310  177.3530  142.9290 C   0  0  2  0  0  3  0  0  0  0  0  0
  187.2120  176.0960  140.7660 C   0  0  0  0  0  2  0  0  0  0  0  0
  186.4370  178.1520  144.8400 C   0  0  0  0  0  3  0  0  0  0  0  0
  189.9700  175.5180  144.7790 C   0  0  2  0  0  3  0  0  0  0  0  0
  186.4410  178.2490  140.1330 F   0  0  0  0  0  0  0  0  0  0  0  0
  189.1480  176.8860  147.1970 C   0  0  0  0  0  2  0  0  0  0  0  0
  183.7700  178.6720  145.0920 Cl  0  0  0  0  0  0  0  0  0  0  0  0
  189.8170  175.2070  143.3580 N   0  0  0  0  0  2  0  0  0  0  0  0
  190.1140  177.0400  144.9920 C   0  0  2  0  0  3  0  0  0  0  0  0
  187.6250  178.1050  142.1830 C   0  0  0  0  0  2  0  0  0  0  0  0
  185.4710  177.7510  147.0190 C   0  0  0  0  0  3  0  0  0  0  0  0
  188.5920  175.8220  142.8490 C   0  0  2  0  0  3  0  0  0  0  0  0
  188.3870  175.3680  141.4050 C   0  0  0  0  0  2  0  0  0  0  0  0
  190.2780  177.3850  146.4090 N   0  0  0  0  0  2  0  0  0  0  0  0
  187.8340  177.3580  146.6510 C   0  0  0  0  0  0  0  0  0  0  0  0
  186.7200  177.3530  147.4970 C   0  0  0  0  0  3  0  0  0  0  0  0
  192.6630  176.0550  144.0180 O   0  0  0  0  0  0  0  0  0  0  0  0
  192.4680  175.1560  144.8810 C   0  0  0  0  0  0  0  0  0  0  0  0
  191.1430  174.8320  145.3020 N   0  0  0  0  0  2  0  0  0  0  0  0
  196.1250  175.1170  144.3280 C   0  0  1  0  0  3  0  0  0  0  0  0
  194.6770  175.3660  146.0510 C   0  0  0  0  0  2  0  0  0  0  0  0
  193.3580  172.6900  143.7840 O   0  0  0  0  0  1  0  0  0  0  0  0
  197.0650  175.8400  143.3870 C   0  0  0  0  0  1  0  0  0  0  0  0
  195.3370  176.0590  145.0160 O   0  0  0  0  0  0  0  0  0  0  0  0
  194.3000  173.4400  144.4900 C   0  0  2  0  0  3  0  0  0  0  0  0
  193.6250  174.4070  145.4770 C   0  0  2  0  0  3  0  0  0  0  0  0
  195.2280  174.1750  143.5260 C   0  0  0  0  0  2  0  0  0  0  0  0
  1  9  1  1  0  0  0
  1  6  1  0  0  0  0
  1 14  1  0  0  0  0
  2 13  1  0  0  0  0
  2  3  1  1  0  0  0
  3 19  1  0  0  0  0
  4 15  2  0  0  0  0
  5 14  1  1  0  0  0
  5  2  1  0  0  0  0
  6 17  1  0  0  0  0
  7  3  2  0  0  0  0
  7  4  1  0  0  0  0
  8 13  1  0  0  0  0
  8 23  1  6  0  0  0
 11  4  1  0  0  0  0
 12  8  1  0  0  0  0
 13 18  1  1  0  0  0
 15 20  1  0  0  0  0
 16 17  1  6  0  0  0
 16  5  1  0  0  0  0
 16 12  1  0  0  0  0
 18 10  1  0  0  0  0
 19 10  1  0  0  0  0
 19 20  2  0  0  0  0
 21 22  2  0  0  0  0
 22 23  1  0  0  0  0
 24 27  1  6  0  0  0
 24 28  1  0  0  0  0
 28 25  1  0  0  0  0
 29 26  1  6  0  0  0
 29 30  1  0  0  0  0
 30 22  1  6  0  0  0
 30 25  1  0  0  0  0
 31 24  1  0  0  0  0
 31 29  1  0  0  0  0
M  END
>  <MODEL>
4

>  <REMARK>
 VINA RESULT:      -8.1      1.999      3.970
  Name = 
  2 active torsions:
  status: ('A' for Active; 'I' for Inactive)
    1  A    between atoms: C_5  and  C_30
    2  A    between atoms: C_10  and  N_16
                            x       y       z     vdW  Elec       q    Type
                         _______ _______ _______ _____ _____    ______ ____

>  <TORSDO>
F 2

$$$$
=
 OpenBabel11112417023D

 31 35  0  0  1  0  0  0  0  0999 V2000
  192.1280  172.9580  141.8470 C   0  0  1  0  0  3  0  0  0  0  0  0
  191.9350  174.2260  145.5470 C   0  0  2  0  0  3  0  0  0  0  0  0
  192.9190  175.3900  145.6030 C   0  0  0  0  0  0  0  0  0  0  0  0
  194.9700  176.4620  144.8410 C   0  0  0  0  0  0  0  0  0  0  0  0
  191.4870  173.7770  144.1390 C   0  0  2  0  0  3  0  0  0  0  0  0
  191.3110  174.0860  141.2340 C   0  0  0  0  0  2  0  0  0  0  0  0
  194.0200  175.4450  144.7330 C   0  0  0  0  0  3  0  0  0  0  0  0
  189.7110  175.4670  145.6590 C   0  0  2  0  0  3  0  0  0  0  0  0
  193.1970  172.6630  141.0250 F   0  0  0  0  0  0  0  0  0  0  0  0
  191.6770  176.3490  147.5970 C   0  0  0  0  0  2  0  0  0  0  0  0
  196.3180  176.5190  143.7260 Cl  0  0  0  0  0  0  0  0  0  0  0  0
  189.3430  174.9270  144.3510 N   0  0  0  0  0  2  0  0  0  0  0  0
  190.6790  174.5130  146.3910 C   0  0  2  0  0  3  0  0  0  0  0  0
  192.6430  173.3760  143.2180 C   0  0  0  0  0  2  0  0  0  0  0  0
  194.8460  177.4280  145.8390 C   0  0  0  0  0  3  0  0  0  0  0  0
  190.5350  174.8110  143.5140 C   0  0  2  0  0  3  0  0  0  0  0  0
  190.1020  174.3770  142.1140 C   0  0  0  0  0  2  0  0  0  0  0  0
  191.0620  175.0240  147.7130 N   0  0  0  0  0  2  0  0  0  0  0  0
  192.8290  176.3480  146.6380 C   0  0  0  0  0  0  0  0  0  0  0  0
  193.7780  177.3720  146.7340 C   0  0  0  0  0  3  0  0  0  0  0  0
  188.0240  177.7610  145.5550 O   0  0  0  0  0  0  0  0  0  0  0  0
  187.7050  176.8360  146.3530 C   0  0  0  0  0  0  0  0  0  0  0  0
  188.5110  175.6640  146.4590 N   0  0  0  0  0  2  0  0  0  0  0  0
  184.4150  178.4850  145.9880 C   0  0  1  0  0  3  0  0  0  0  0  0
  185.2330  176.4320  146.4770 C   0  0  0  0  0  2  0  0  0  0  0  0
  187.3780  178.9880  148.1800 O   0  0  0  0  0  1  0  0  0  0  0  0
  183.7650  179.3360  144.9170 C   0  0  0  0  0  1  0  0  0  0  0  0
  184.8800  177.2870  145.4130 O   0  0  0  0  0  0  0  0  0  0  0  0
  186.2120  178.3900  147.6990 C   0  0  2  0  0  3  0  0  0  0  0  0
  186.4760  176.9570  147.2070 C   0  0  2  0  0  3  0  0  0  0  0  0
  185.5800  179.2530  146.6090 C   0  0  0  0  0  2  0  0  0  0  0  0
  1  9  1  6  0  0  0
  1 14  1  0  0  0  0
  2  3  1  6  0  0  0
  2 13  1  0  0  0  0
  3 19  1  0  0  0  0
  4 15  2  0  0  0  0
  5 14  1  6  0  0  0
  5  2  1  0  0  0  0
  6  1  1  0  0  0  0
  6 17  1  0  0  0  0
  7  4  1  0  0  0  0
  7  3  2  0  0  0  0
  8 13  1  0  0  0  0
  8 23  1  1  0  0  0
 10 18  1  0  0  0  0
 11  4  1  0  0  0  0
 12  8  1  0  0  0  0
 13 18  1  1  0  0  0
 15 20  1  0  0  0  0
 16 17  1  6  0  0  0
 16  5  1  0  0  0  0
 16 12  1  0  0  0  0
 19 20  2  0  0  0  0
 19 10  1  0  0  0  0
 21 22  2  0  0  0  0
 22 23  1  0  0  0  0
 24 27  1  6  0  0  0
 24 31  1  0  0  0  0
 25 30  1  0  0  0  0
 28 24  1  0  0  0  0
 28 25  1  0  0  0  0
 29 26  1  6  0  0  0
 30 22  1  6  0  0  0
 30 29  1  0  0  0  0
 31 29  1  0  0  0  0
M  END
>  <MODEL>
5

>  <REMARK>
 VINA RESULT:      -8.0      4.031      7.969
  Name = 
  2 active torsions:
  status: ('A' for Active; 'I' for Inactive)
    1  A    between atoms: C_5  and  C_30
    2  A    between atoms: C_10  and  N_16
                            x       y       z     vdW  Elec       q    Type
                         _______ _______ _______ _____ _____    ______ ____

>  <TORSDO>
F 2

$$$$
=
 OpenBabel11112417023D

 31 35  0  0  1  0  0  0  0  0999 V2000
  186.9200  177.9570  140.7740 C   0  0  1  0  0  3  0  0  0  0  0  0
  189.0160  177.7810  144.0770 C   0  0  2  0  0  3  0  0  0  0  0  0
  187.9840  177.5190  145.1690 C   0  0  0  0  0  0  0  0  0  0  0  0
  185.7290  177.7790  146.0530 C   0  0  0  0  0  0  0  0  0  0  0  0
  188.5610  177.5040  142.6280 C   0  0  2  0  0  3  0  0  0  0  0  0
  186.6910  176.4590  140.6340 C   0  0  0  0  0  2  0  0  0  0  0  0
  186.6540  177.9390  145.0190 C   0  0  0  0  0  3  0  0  0  0  0  0
  190.1750  175.5140  143.9530 C   0  0  2  0  0  3  0  0  0  0  0  0
  185.7610  178.6330  140.4490 F   0  0  0  0  0  0  0  0  0  0  0  0
  189.7940  176.5220  146.6430 C   0  0  0  0  0  2  0  0  0  0  0  0
  184.0700  178.2900  145.8280 Cl  0  0  0  0  0  0  0  0  0  0  0  0
  189.7630  175.3780  142.5560 N   0  0  0  0  0  2  0  0  0  0  0  0
  190.3190  177.0020  144.3380 C   0  0  2  0  0  3  0  0  0  0  0  0
  187.3160  178.2890  142.2060 C   0  0  0  0  0  2  0  0  0  0  0  0
  186.1290  177.2180  147.2650 C   0  0  0  0  0  3  0  0  0  0  0  0
  188.4490  175.9910  142.3710 C   0  0  2  0  0  3  0  0  0  0  0  0
  187.9840  175.7140  140.9420 C   0  0  0  0  0  2  0  0  0  0  0  0
  190.7400  177.1720  145.7330 N   0  0  0  0  0  2  0  0  0  0  0  0
  188.3890  176.9930  146.4180 C   0  0  0  0  0  0  0  0  0  0  0  0
  187.4560  176.8250  147.4460 C   0  0  0  0  0  3  0  0  0  0  0  0
  190.4610  172.8010  144.7750 O   0  0  0  0  0  0  0  0  0  0  0  0
  191.5150  173.4610  144.5600 C   0  0  0  0  0  0  0  0  0  0  0  0
  191.4430  174.8270  144.1530 N   0  0  0  0  0  2  0  0  0  0  0  0
  195.0170  174.5950  144.1970 C   0  0  1  0  0  3  0  0  0  0  0  0
  193.7180  173.5880  145.7540 C   0  0  0  0  0  2  0  0  0  0  0  0
  192.8370  172.1770  142.3960 O   0  0  0  0  0  1  0  0  0  0  0  0
  195.6750  175.8960  143.7870 C   0  0  0  0  0  1  0  0  0  0  0  0
  194.1030  174.8420  145.2390 O   0  0  0  0  0  0  0  0  0  0  0  0
  193.6450  172.6760  143.4190 C   0  0  2  0  0  3  0  0  0  0  0  0
  192.8630  172.8220  144.7350 C   0  0  2  0  0  3  0  0  0  0  0  0
  194.2880  173.9950  142.9960 C   0  0  0  0  0  2  0  0  0  0  0  0
  1  9  1  1  0  0  0
  1 14  1  0  0  0  0
  2 13  1  0  0  0  0
  2  3  1  1  0  0  0
  3 19  1  0  0  0  0
  4 15  2  0  0  0  0
  5 14  1  1  0  0  0
  5  2  1  0  0  0  0
  6  1  1  0  0  0  0
  6 17  1  0  0  0  0
  7  3  2  0  0  0  0
  7  4  1  0  0  0  0
  8 23  1  6  0  0  0
  8 13  1  0  0  0  0
 11  4  1  0  0  0  0
 12  8  1  0  0  0  0
 13 18  1  1  0  0  0
 15 20  1  0  0  0  0
 16 17  1  6  0  0  0
 16 12  1  0  0  0  0
 16  5  1  0  0  0  0
 18 10  1  0  0  0  0
 19 10  1  0  0  0  0
 19 20  2  0  0  0  0
 22 21  2  0  0  0  0
 23 22  1  0  0  0  0
 24 27  1  6  0  0  0
 24 28  1  0  0  0  0
 28 25  1  0  0  0  0
 29 26  1  6  0  0  0
 29 30  1  0  0  0  0
 30 22  1  6  0  0  0
 30 25  1  0  0  0  0
 31 29  1  0  0  0  0
 31 24  1  0  0  0  0
M  END
>  <MODEL>
6

>  <REMARK>
 VINA RESULT:      -7.9      2.232      4.261
  Name = 
  2 active torsions:
  status: ('A' for Active; 'I' for Inactive)
    1  A    between atoms: C_5  and  C_30
    2  A    between atoms: C_10  and  N_16
                            x       y       z     vdW  Elec       q    Type
                         _______ _______ _______ _____ _____    ______ ____

>  <TORSDO>
F 2

$$$$
=
 OpenBabel11112417023D

 31 35  0  0  1  0  0  0  0  0999 V2000
  190.5070  171.3970  142.8190 C   0  0  1  0  0  3  0  0  0  0  0  0
  189.7330  174.3410  145.2820 C   0  0  2  0  0  3  0  0  0  0  0  0
  191.0920  174.9760  145.5570 C   0  0  0  0  0  0  0  0  0  0  0  0
  193.5070  174.7760  145.8030 C   0  0  0  0  0  0  0  0  0  0  0  0
  189.6470  173.4180  144.0480 C   0  0  2  0  0  3  0  0  0  0  0  0
  190.7060  172.2570  141.5790 C   0  0  0  0  0  2  0  0  0  0  0  0
  192.2710  174.2200  145.4680 C   0  0  0  0  0  3  0  0  0  0  0  0
  188.6590  176.1180  143.8040 C   0  0  2  0  0  3  0  0  0  0  0  0
  191.4580  170.3960  142.8440 F   0  0  0  0  0  0  0  0  0  0  0  0
  189.9510  177.1560  146.1810 C   0  0  0  0  0  2  0  0  0  0  0  0
  194.9640  173.8170  145.6580 Cl  0  0  0  0  0  0  0  0  0  0  0  0
  188.5490  175.1470  142.7150 N   0  0  0  0  0  2  0  0  0  0  0  0
  188.6270  175.4080  145.1740 C   0  0  2  0  0  3  0  0  0  0  0  0
  190.6410  172.2540  144.0710 C   0  0  0  0  0  2  0  0  0  0  0  0
  193.5790  176.0910  146.2600 C   0  0  0  0  0  3  0  0  0  0  0  0
  189.6950  174.2410  142.7480 C   0  0  2  0  0  3  0  0  0  0  0  0
  189.6260  173.3300  141.5240 C   0  0  0  0  0  2  0  0  0  0  0  0
  188.7270  176.3570  146.2890 N   0  0  0  0  0  2  0  0  0  0  0  0
  191.1720  176.2930  146.0640 C   0  0  0  0  0  0  0  0  0  0  0  0
  192.4140  176.8480  146.3880 C   0  0  0  0  0  3  0  0  0  0  0  0
  188.4350  178.1880  141.8590 O   0  0  0  0  0  0  0  0  0  0  0  0
  187.5090  178.0830  142.7100 C   0  0  0  0  0  0  0  0  0  0  0  0
  187.5630  177.0720  143.7150 N   0  0  0  0  0  2  0  0  0  0  0  0
  184.6390  178.7570  144.9430 C   0  0  1  0  0  3  0  0  0  0  0  0
  186.3030  179.9110  143.9310 C   0  0  0  0  0  2  0  0  0  0  0  0
  185.0350  177.3290  141.5300 O   0  0  0  0  0  1  0  0  0  0  0  0
  184.1550  178.1770  146.2550 C   0  0  0  0  0  1  0  0  0  0  0  0
  185.9840  179.1520  145.0750 O   0  0  0  0  0  0  0  0  0  0  0  0
  184.9850  178.3070  142.5250 C   0  0  2  0  0  3  0  0  0  0  0  0
  186.3380  179.0220  142.6810 C   0  0  2  0  0  3  0  0  0  0  0  0
  184.5110  177.7020  143.8440 C   0  0  0  0  0  2  0  0  0  0  0  0
  1  9  1  1  0  0  0
  1 14  1  0  0  0  0
  2  3  1  6  0  0  0
  3 19  1  0  0  0  0
  4 15  2  0  0  0  0
  5 14  1  6  0  0  0
  5  2  1  0  0  0  0
  6  1  1  0  0  0  0
  7  3  2  0  0  0  0
  7  4  1  0  0  0  0
  8 23  1  1  0  0  0
  8 13  1  0  0  0  0
 10 18  1  0  0  0  0
 11  4  1  0  0  0  0
 12 16  1  0  0  0  0
 12  8  1  0  0  0  0
 13  2  1  0  0  0  0
 13 18  1  1  0  0  0
 15 20  1  0  0  0  0
 16 17  1  6  0  0  0
 16  5  1  0  0  0  0
 17  6  1  0  0  0  0
 19 10  1  0  0  0  0
 19 20  2  0  0  0  0
 21 22  2  0  0  0  0
 22 23  1  0  0  0  0
 24 28  1  0  0  0  0
 24 27  1  1  0  0  0
 25 28  1  0  0  0  0
 29 26  1  6  0  0  0
 29 30  1  0  0  0  0
 29 31  1  0  0  0  0
 30 22  1  1  0  0  0
 30 25  1  0  0  0  0
 31 24  1  0  0  0  0
M  END
>  <MODEL>
7

>  <REMARK>
 VINA RESULT:      -7.4      4.116      7.851
  Name = 
  2 active torsions:
  status: ('A' for Active; 'I' for Inactive)
    1  A    between atoms: C_5  and  C_30
    2  A    between atoms: C_10  and  N_16
                            x       y       z     vdW  Elec       q    Type
                         _______ _______ _______ _____ _____    ______ ____

>  <TORSDO>
F 2

$$$$
=
 OpenBabel11112417023D

 31 35  0  0  1  0  0  0  0  0999 V2000
  186.3170  178.9080  142.4500 C   0  0  1  0  0  3  0  0  0  0  0  0
  189.4770  176.8230  143.4470 C   0  0  2  0  0  3  0  0  0  0  0  0
  189.1030  176.1760  144.7770 C   0  0  0  0  0  0  0  0  0  0  0  0
  187.8880  176.2330  146.8880 C   0  0  0  0  0  0  0  0  0  0  0  0
  188.3090  177.3780  142.6050 C   0  0  2  0  0  3  0  0  0  0  0  0
  185.4680  177.7290  141.9950 C   0  0  0  0  0  2  0  0  0  0  0  0
  188.1670  176.7770  145.6320 C   0  0  0  0  0  3  0  0  0  0  0  0
  189.4040  174.8060  141.8900 C   0  0  2  0  0  3  0  0  0  0  0  0
  185.5320  179.7950  143.1600 F   0  0  0  0  0  0  0  0  0  0  0  0
  190.8210  174.3510  144.3760 C   0  0  0  0  0  2  0  0  0  0  0  0
  186.6970  176.9910  147.9230 Cl  0  0  0  0  0  0  0  0  0  0  0  0
  188.3500  175.4490  141.1060 N   0  0  0  0  0  2  0  0  0  0  0  0
  190.3010  175.8630  142.5690 C   0  0  2  0  0  3  0  0  0  0  0  0
  187.4540  178.4170  143.3350 C   0  0  0  0  0  2  0  0  0  0  0  0
  188.5620  175.0900  147.3170 C   0  0  0  0  0  3  0  0  0  0  0  0
  187.4870  176.2310  141.9890 C   0  0  2  0  0  3  0  0  0  0  0  0
  186.3210  176.7760  141.1670 C   0  0  0  0  0  2  0  0  0  0  0  0
  191.3750  175.2480  143.3580 N   0  0  0  0  0  2  0  0  0  0  0  0
  189.8120  175.0440  145.2420 C   0  0  0  0  0  0  0  0  0  0  0  0
  189.5200  174.4970  146.4960 C   0  0  0  0  0  3  0  0  0  0  0  0
  189.4330  171.9580  141.9410 O   0  0  0  0  0  0  0  0  0  0  0  0
  190.1700  172.5350  141.0940 C   0  0  0  0  0  0  0  0  0  0  0  0
  190.2080  173.9590  141.0210 N   0  0  0  0  0  2  0  0  0  0  0  0
  192.3700  173.3320  138.2300 C   0  0  1  0  0  3  0  0  0  0  0  0
  192.4850  172.2000  140.1880 C   0  0  0  0  0  2  0  0  0  0  0  0
  189.1360  171.5390  138.6410 O   0  0  0  0  0  1  0  0  0  0  0  0
  192.7610  174.6060  137.5130 C   0  0  0  0  0  1  0  0  0  0  0  0
  192.6130  173.4790  139.6090 O   0  0  0  0  0  0  0  0  0  0  0  0
  190.5150  171.7500  138.7020 C   0  0  2  0  0  3  0  0  0  0  0  0
  191.0230  171.7330  140.1540 C   0  0  2  0  0  3  0  0  0  0  0  0
  190.8890  173.0470  137.9890 C   0  0  0  0  0  2  0  0  0  0  0  0
  1  9  1  1  0  0  0
  1 14  1  0  0  0  0
  2  3  1  1  0  0  0
  3 19  2  0  0  0  0
  3  7  1  0  0  0  0
  4 15  1  0  0  0  0
  4 11  1  0  0  0  0
  5 14  1  1  0  0  0
  5  2  1  0  0  0  0
  6  1  1  0  0  0  0
  7  4  2  0  0  0  0
  8 23  1  6  0  0  0
  8 13  1  0  0  0  0
 10 19  1  0  0  0  0
 12  8  1  0  0  0  0
 12 16  1  0  0  0  0
 13 18  1  1  0  0  0
 13  2  1  0  0  0  0
 16 17  1  6  0  0  0
 16  5  1  0  0  0  0
 17  6  1  0  0  0  0
 18 10  1  0  0  0  0
 19 20  1  0  0  0  0
 20 15  2  0  0  0  0
 22 21  2  0  0  0  0
 23 22  1  0  0  0  0
 24 27  1  6  0  0  0
 24 28  1  0  0  0  0
 28 25  1  0  0  0  0
 29 26  1  1  0  0  0
 29 30  1  0  0  0  0
 30 25  1  0  0  0  0
 30 22  1  1  0  0  0
 31 24  1  0  0  0  0
 31 29  1  0  0  0  0
M  END
>  <MODEL>
8

>  <REMARK>
 VINA RESULT:      -7.2      3.917      5.809
  Name = 
  2 active torsions:
  status: ('A' for Active; 'I' for Inactive)
    1  A    between atoms: C_5  and  C_30
    2  A    between atoms: C_10  and  N_16
                            x       y       z     vdW  Elec       q    Type
                         _______ _______ _______ _____ _____    ______ ____

>  <TORSDO>
F 2

$$$$
=
 OpenBabel11112417023D

 31 35  0  0  1  0  0  0  0  0999 V2000
  187.0000  177.9170  140.7810 C   0  0  1  0  0  3  0  0  0  0  0  0
  189.0850  177.8480  144.0950 C   0  0  2  0  0  3  0  0  0  0  0  0
  188.0600  177.5440  145.1830 C   0  0  0  0  0  0  0  0  0  0  0  0
  185.7910  177.7040  146.0540 C   0  0  0  0  0  0  0  0  0  0  0  0
  188.6510  177.5460  142.6440 C   0  0  2  0  0  3  0  0  0  0  0  0
  186.8400  176.4090  140.6450 C   0  0  0  0  0  2  0  0  0  0  0  0
  186.7130  177.9020  145.0250 C   0  0  0  0  0  3  0  0  0  0  0  0
  190.3460  175.6360  143.9850 C   0  0  2  0  0  3  0  0  0  0  0  0
  185.8130  178.5390  140.4480 F   0  0  0  0  0  0  0  0  0  0  0  0
  189.9060  176.6340  146.6700 C   0  0  0  0  0  2  0  0  0  0  0  0
  184.1120  178.1380  145.8190 Cl  0  0  0  0  0  0  0  0  0  0  0  0
  189.9480  175.4770  142.5870 N   0  0  0  0  0  2  0  0  0  0  0  0
  190.4200  177.1300  144.3650 C   0  0  2  0  0  3  0  0  0  0  0  0
  187.3730  178.2720  142.2140 C   0  0  0  0  0  2  0  0  0  0  0  0
  186.2100  177.1660  147.2710 C   0  0  0  0  0  3  0  0  0  0  0  0
  188.6080  176.0290  142.3920 C   0  0  2  0  0  3  0  0  0  0  0  0
  188.1640  175.7260  140.9620 C   0  0  0  0  0  2  0  0  0  0  0  0
  190.8270  177.3240  145.7620 N   0  0  0  0  0  2  0  0  0  0  0  0
  188.4820  177.0410  146.4360 C   0  0  0  0  0  0  0  0  0  0  0  0
  187.5520  176.8340  147.4600 C   0  0  0  0  0  3  0  0  0  0  0  0
  192.7950  176.4880  142.8040 O   0  0  0  0  0  0  0  0  0  0  0  0
  192.8350  175.4900  143.5750 C   0  0  0  0  0  0  0  0  0  0  0  0
  191.6430  175.0070  144.1940 N   0  0  0  0  0  2  0  0  0  0  0  0
  193.8400  171.9880  144.2080 C   0  0  1  0  0  3  0  0  0  0  0  0
  194.4050  173.6860  142.8210 C   0  0  0  0  0  2  0  0  0  0  0  0
  193.7780  175.1110  146.2300 O   0  0  0  0  0  1  0  0  0  0  0  0
  193.0990  170.6720  144.3160 C   0  0  0  0  0  1  0  0  0  0  0  0
  193.5060  172.6140  142.9920 O   0  0  0  0  0  0  0  0  0  0  0  0
  194.2220  174.2010  145.2690 C   0  0  2  0  0  3  0  0  0  0  0  0
  194.1350  174.7910  143.8510 C   0  0  2  0  0  3  0  0  0  0  0  0
  193.4530  172.8870  145.3810 C   0  0  0  0  0  2  0  0  0  0  0  0
  1  9  1  1  0  0  0
  1 14  1  0  0  0  0
  2 13  1  0  0  0  0
  2  3  1  1  0  0  0
  3 19  1  0  0  0  0
  4 15  2  0  0  0  0
  5 14  1  1  0  0  0
  5  2  1  0  0  0  0
  6  1  1  0  0  0  0
  6 17  1  0  0  0  0
  7  3  2  0  0  0  0
  7  4  1  0  0  0  0
  8 23  1  6  0  0  0
  8 13  1  0  0  0  0
 11  4  1  0  0  0  0
 12  8  1  0  0  0  0
 13 18  1  1  0  0  0
 15 20  1  0  0  0  0
 16 17  1  6  0  0  0
 16 12  1  0  0  0  0
 16  5  1  0  0  0  0
 18 10  1  0  0  0  0
 19 10  1  0  0  0  0
 19 20  2  0  0  0  0
 21 22  2  0  0  0  0
 22 23  1  0  0  0  0
 24 27  1  1  0  0  0
 24 31  1  0  0  0  0
 25 28  1  0  0  0  0
 25 30  1  0  0  0  0
 28 24  1  0  0  0  0
 29 31  1  0  0  0  0
 29 26  1  1  0  0  0
 30 22  1  6  0  0  0
 30 29  1  0  0  0  0
M  END
>  <MODEL>
9

>  <REMARK>
 VINA RESULT:      -7.2      2.303      4.483
  Name = 
  2 active torsions:
  status: ('A' for Active; 'I' for Inactive)
    1  A    between atoms: C_5  and  C_30
    2  A    between atoms: C_10  and  N_16
                            x       y       z     vdW  Elec       q    Type
                         _______ _______ _______ _____ _____    ______ ____

>  <TORSDO>
F 2

$$$$
