=
 OpenBabel11112416263D

 30 35  0  0  1  0  0  0  0  0999 V2000
  190.2960  175.3270  143.4390 C   0  0  0  0  0  0  0  0  0  0  0  0
  192.6480  175.1980  144.2610 C   0  0  2  0  0  3  0  0  0  0  0  0
  188.6950  177.2550  146.8620 C   0  0  0  0  0  2  0  0  0  0  0  0
  188.8720  175.7480  143.5560 C   0  0  0  0  0  0  0  0  0  0  0  0
  190.7120  174.6870  142.2260 N   0  0  0  0  0  0  0  0  0  0  0  0
  187.8330  173.0820  142.0410 C   0  0  0  0  0  1  0  0  0  0  0  0
  185.9490  176.8930  142.8650 C   0  0  1  0  0  3  0  0  0  0  0  0
  188.3850  174.3940  141.5110 C   0  0  2  0  0  3  0  0  0  0  0  0
  186.4900  177.7190  143.9990 C   0  0  1  0  0  3  0  0  0  0  0  0
  187.2450  177.4620  146.4150 C   0  0  2  0  0  3  0  0  0  0  0  0
  189.8750  174.2850  141.3120 C   0  0  0  0  0  0  0  0  0  0  0  0
  188.0240  175.4900  142.4160 N   0  0  0  0  0  0  0  0  0  0  0  0
  193.4480  175.3640  145.5270 C   0  0  0  0  0  3  0  0  0  0  0  0
  185.2790  178.4930  144.4890 C   0  0  0  0  0  2  0  0  0  0  0  0
  184.9040  177.7620  142.1920 C   0  0  0  0  0  2  0  0  0  0  0  0
  193.2160  175.9730  143.2660 F   0  0  0  0  0  0  0  0  0  0  0  0
  189.3590  176.6360  145.7350 N   0  0  0  0  0  0  0  0  0  0  0  0
  192.9510  175.9290  146.6310 C   0  0  0  0  0  3  0  0  0  0  0  0
  191.1890  175.5670  144.4220 C   0  0  0  0  0  0  0  0  0  0  0  0
  188.4540  176.3680  144.6830 C   0  0  0  0  0  0  0  0  0  0  0  0
  186.3060  176.8410  147.4280 C   0  0  0  0  0  1  0  0  0  0  0  0
  187.0680  176.7750  145.0480 C   0  0  2  0  0  3  0  0  0  0  0  0
  184.3990  178.7060  143.2690 C   0  0  0  0  0  2  0  0  0  0  0  0
  187.0660  176.8100  140.7480 O   0  0  0  0  0  0  0  0  0  0  0  0
  191.5590  176.3990  146.6950 C   0  0  0  0  0  3  0  0  0  0  0  0
  190.7280  176.2300  145.6630 C   0  0  0  0  0  0  0  0  0  0  0  0
  187.0410  176.4280  141.9510 C   0  0  0  0  0  0  0  0  0  0  0  0
  190.3440  173.6930  140.1350 O   0  0  0  0  0  0  0  0  0  0  0  0
  190.4760  171.2850  140.0760 C   0  0  0  0  0  1  0  0  0  0  0  0
  191.2450  172.5910  140.1310 C   0  0  0  0  0  2  0  0  0  0  0  0
  1  4  1  0  0  0  0
  1 19  2  0  0  0  0
  2 16  1  6  0  0  0
  2 19  1  0  0  0  0
  2 13  1  0  0  0  0
  4 20  2  0  0  0  0
  5  1  1  0  0  0  0
  7 15  1  6  0  0  0
  7  9  1  0  0  0  0
  8  6  1  1  0  0  0
  8 12  1  0  0  0  0
  9 14  1  1  0  0  0
  9 22  1  0  0  0  0
 10  3  1  0  0  0  0
 10 21  1  1  0  0  0
 11  8  1  0  0  0  0
 11  5  2  0  0  0  0
 12  4  1  0  0  0  0
 13 18  2  0  0  0  0
 15 23  1  0  0  0  0
 17  3  1  0  0  0  0
 18 25  1  0  0  0  0
 19 26  1  0  0  0  0
 20 17  1  0  0  0  0
 22 20  1  6  0  0  0
 22 10  1  0  0  0  0
 23 14  1  0  0  0  0
 24 27  2  0  0  0  0
 26 17  1  0  0  0  0
 26 25  2  0  0  0  0
 27 12  1  0  0  0  0
 27  7  1  0  0  0  0
 28 11  1  0  0  0  0
 29 30  1  0  0  0  0
 30 28  1  0  0  0  0
M  END
>  <MODEL>
1

>  <REMARK>
 VINA RESULT:      -8.7      0.000      0.000
  Name = 
  2 active torsions:
  status: ('A' for Active; 'I' for Inactive)
    1  A    between atoms: C_11  and  O_28
    2  A    between atoms: O_28  and  C_30
                            x       y       z     vdW  Elec       q    Type
                         _______ _______ _______ _____ _____    ______ ____

>  <TORSDO>
F 2

$$$$
=
 OpenBabel11112416263D

 30 35  0  0  1  0  0  0  0  0999 V2000
  189.9740  174.5710  143.1370 C   0  0  0  0  0  0  0  0  0  0  0  0
  190.5380  173.2230  141.1150 C   0  0  2  0  0  3  0  0  0  0  0  0
  186.6280  176.5720  141.4640 C   0  0  0  0  0  2  0  0  0  0  0  0
  189.1230  175.5280  143.8970 C   0  0  0  0  0  0  0  0  0  0  0  0
  191.0750  173.9590  143.8200 N   0  0  0  0  0  0  0  0  0  0  0  0
  191.6850  176.7720  145.4370 C   0  0  0  0  0  1  0  0  0  0  0  0
  187.4350  176.9280  146.2470 C   0  0  1  0  0  3  0  0  0  0  0  0
  190.8600  175.5240  145.6960 C   0  0  2  0  0  3  0  0  0  0  0  0
  186.4870  176.6910  145.1030 C   0  0  1  0  0  3  0  0  0  0  0  0
  186.1470  177.3750  142.6760 C   0  0  2  0  0  3  0  0  0  0  0  0
  191.4800  174.3400  144.9980 C   0  0  0  0  0  0  0  0  0  0  0  0
  189.4720  175.7470  145.2810 N   0  0  0  0  0  0  0  0  0  0  0  0
  190.2150  173.1410  139.6450 C   0  0  0  0  0  3  0  0  0  0  0  0
  185.2630  177.5090  145.4760 C   0  0  0  0  0  2  0  0  0  0  0  0
  186.5620  177.0250  147.4830 C   0  0  0  0  0  2  0  0  0  0  0  0
  190.3510  171.9770  141.6860 F   0  0  0  0  0  0  0  0  0  0  0  0
  187.7580  175.8020  141.9390 N   0  0  0  0  0  0  0  0  0  0  0  0
  189.1930  173.7960  139.0890 C   0  0  0  0  0  3  0  0  0  0  0  0
  189.7080  174.2510  141.8530 C   0  0  0  0  0  0  0  0  0  0  0  0
  188.0680  176.1100  143.2830 C   0  0  0  0  0  0  0  0  0  0  0  0
  186.0770  178.8450  142.3170 C   0  0  0  0  0  1  0  0  0  0  0  0
  187.1590  177.1630  143.8180 C   0  0  2  0  0  3  0  0  0  0  0  0
  185.2070  177.5070  146.9940 C   0  0  0  0  0  2  0  0  0  0  0  0
  188.5540  175.1080  147.3290 O   0  0  0  0  0  0  0  0  0  0  0  0
  188.3260  174.6830  139.8790 C   0  0  0  0  0  3  0  0  0  0  0  0
  188.5630  174.9010  141.1750 C   0  0  0  0  0  0  0  0  0  0  0  0
  188.4870  175.8650  146.3200 C   0  0  0  0  0  0  0  0  0  0  0  0
  192.5430  173.6830  145.6270 O   0  0  0  0  0  0  0  0  0  0  0  0
  194.7440  174.6700  145.6760 C   0  0  0  0  0  1  0  0  0  0  0  0
  193.8480  173.6100  145.0630 C   0  0  0  0  0  2  0  0  0  0  0  0
  1  5  1  0  0  0  0
  1  4  1  0  0  0  0
  2 16  1  1  0  0  0
  2 19  1  0  0  0  0
  3 17  1  0  0  0  0
  3 10  1  0  0  0  0
  4 12  1  0  0  0  0
  5 11  2  0  0  0  0
  7 27  1  0  0  0  0
  7 15  1  1  0  0  0
  8  6  1  6  0  0  0
  9 14  1  1  0  0  0
  9  7  1  0  0  0  0
 10 21  1  6  0  0  0
 10 22  1  0  0  0  0
 11 28  1  0  0  0  0
 11  8  1  0  0  0  0
 12  8  1  0  0  0  0
 12 27  1  0  0  0  0
 13  2  1  0  0  0  0
 14 23  1  0  0  0  0
 17 20  1  0  0  0  0
 18 13  2  0  0  0  0
 18 25  1  0  0  0  0
 19  1  2  0  0  0  0
 20  4  2  0  0  0  0
 22 20  1  6  0  0  0
 22  9  1  0  0  0  0
 23 15  1  0  0  0  0
 25 26  2  0  0  0  0
 26 19  1  0  0  0  0
 26 17  1  0  0  0  0
 27 24  2  0  0  0  0
 30 28  1  0  0  0  0
 30 29  1  0  0  0  0
M  END
>  <MODEL>
2

>  <REMARK>
 VINA RESULT:      -8.2      2.256      4.923
  Name = 
  2 active torsions:
  status: ('A' for Active; 'I' for Inactive)
    1  A    between atoms: C_11  and  O_28
    2  A    between atoms: O_28  and  C_30
                            x       y       z     vdW  Elec       q    Type
                         _______ _______ _______ _____ _____    ______ ____

>  <TORSDO>
F 2

$$$$
=
 OpenBabel11112416263D

 30 35  0  0  1  0  0  0  0  0999 V2000
  186.7470  177.3120  144.5270 C   0  0  0  0  0  0  0  0  0  0  0  0
  185.4900  178.6950  146.1810 C   0  0  2  0  0  3  0  0  0  0  0  0
  189.9300  176.2390  147.1190 C   0  0  0  0  0  2  0  0  0  0  0  0
  187.8600  176.4050  144.1320 C   0  0  0  0  0  0  0  0  0  0  0  0
  185.7300  177.5930  143.5580 N   0  0  0  0  0  0  0  0  0  0  0  0
  187.9890  177.6660  141.1530 C   0  0  0  0  0  1  0  0  0  0  0  0
  189.5210  173.9800  142.8320 C   0  0  1  0  0  3  0  0  0  0  0  0
  187.0830  176.6120  141.7640 C   0  0  2  0  0  3  0  0  0  0  0  0
  189.7370  173.9160  144.3190 C   0  0  1  0  0  3  0  0  0  0  0  0
  190.7280  175.3010  146.2090 C   0  0  2  0  0  3  0  0  0  0  0  0
  185.8320  177.2570  142.3040 C   0  0  0  0  0  0  0  0  0  0  0  0
  187.8100  175.8640  142.7940 N   0  0  0  0  0  0  0  0  0  0  0  0
  185.6670  179.3380  147.5320 C   0  0  0  0  0  3  0  0  0  0  0  0
  190.8860  172.9350  144.4720 C   0  0  0  0  0  2  0  0  0  0  0  0
  189.7920  172.5770  142.3220 C   0  0  0  0  0  2  0  0  0  0  0  0
  184.3360  177.9330  146.1940 F   0  0  0  0  0  0  0  0  0  0  0  0
  188.7760  176.6360  146.3410 N   0  0  0  0  0  0  0  0  0  0  0  0
  186.6840  179.0470  148.3470 C   0  0  0  0  0  3  0  0  0  0  0  0
  186.6640  177.8330  145.7700 C   0  0  0  0  0  0  0  0  0  0  0  0
  188.8260  176.1100  145.0300 C   0  0  0  0  0  0  0  0  0  0  0  0
  192.1590  175.7850  146.1080 C   0  0  0  0  0  1  0  0  0  0  0  0
  190.0700  175.3180  144.8160 C   0  0  2  0  0  3  0  0  0  0  0  0
  190.7560  171.9570  143.3170 C   0  0  0  0  0  2  0  0  0  0  0  0
  187.3310  173.7690  141.8860 O   0  0  0  0  0  0  0  0  0  0  0  0
  187.7350  178.0950  147.9570 C   0  0  0  0  0  3  0  0  0  0  0  0
  187.7310  177.5240  146.7490 C   0  0  0  0  0  0  0  0  0  0  0  0
  188.1580  174.5030  142.4940 C   0  0  0  0  0  0  0  0  0  0  0  0
  184.7910  177.5320  141.4110 O   0  0  0  0  0  0  0  0  0  0  0  0
  182.5850  178.1660  140.6690 C   0  0  0  0  0  1  0  0  0  0  0  0
  183.5940  178.1960  141.8010 C   0  0  0  0  0  2  0  0  0  0  0  0
  1 19  2  0  0  0  0
  2 16  1  1  0  0  0
  2 13  1  0  0  0  0
  4  1  1  0  0  0  0
  4 20  2  0  0  0  0
  5  1  1  0  0  0  0
  7 15  1  1  0  0  0
  7  9  1  0  0  0  0
  8  6  1  1  0  0  0
  8 11  1  0  0  0  0
  8 12  1  0  0  0  0
  9 14  1  6  0  0  0
  9 22  1  0  0  0  0
 10 21  1  6  0  0  0
 10  3  1  0  0  0  0
 11  5  2  0  0  0  0
 12  4  1  0  0  0  0
 13 18  2  0  0  0  0
 15 23  1  0  0  0  0
 17 26  1  0  0  0  0
 17  3  1  0  0  0  0
 19  2  1  0  0  0  0
 19 26  1  0  0  0  0
 20 17  1  0  0  0  0
 22 20  1  1  0  0  0
 22 10  1  0  0  0  0
 23 14  1  0  0  0  0
 24 27  2  0  0  0  0
 25 18  1  0  0  0  0
 26 25  2  0  0  0  0
 27 12  1  0  0  0  0
 27  7  1  0  0  0  0
 28 30  1  0  0  0  0
 28 11  1  0  0  0  0
 29 30  1  0  0  0  0
M  END
>  <MODEL>
3

>  <REMARK>
 VINA RESULT:      -8.1      2.507      5.884
  Name = 
  2 active torsions:
  status: ('A' for Active; 'I' for Inactive)
    1  A    between atoms: C_11  and  O_28
    2  A    between atoms: O_28  and  C_30
                            x       y       z     vdW  Elec       q    Type
                         _______ _______ _______ _____ _____    ______ ____

>  <TORSDO>
F 2

$$$$
=
 OpenBabel11112416263D

 30 35  0  0  1  0  0  0  0  0999 V2000
  187.3820  177.3470  144.0900 C   0  0  0  0  0  0  0  0  0  0  0  0
  186.0700  178.3610  142.2250 C   0  0  0  0  0  0  0  0  0  0  0  0
  189.5690  174.6050  141.7040 C   0  0  0  0  0  2  0  0  0  0  0  0
  188.4270  176.4360  144.6320 C   0  0  0  0  0  0  0  0  0  0  0  0
  186.7170  178.2300  145.0020 N   0  0  0  0  0  0  0  0  0  0  0  0
  186.7220  175.8880  147.3280 C   0  0  0  0  0  1  0  0  0  0  0  0
  190.8910  175.2710  146.3360 C   0  0  1  0  0  3  0  0  0  0  0  0
  187.6400  177.0290  146.9300 C   0  0  2  0  0  3  0  0  0  0  0  0
  191.2620  175.1490  144.8840 C   0  0  1  0  0  3  0  0  0  0  0  0
  190.4850  173.9820  142.7610 C   0  0  2  0  0  3  0  0  0  0  0  0
  186.8410  178.1390  146.2960 C   0  0  0  0  0  0  0  0  0  0  0  0
  188.7000  176.5330  146.0470 N   0  0  0  0  0  0  0  0  0  0  0  0
  185.7300  178.1190  140.7770 C   0  0  0  0  0  3  0  0  0  0  0  0
  192.4830  174.2470  144.9000 C   0  0  0  0  0  2  0  0  0  0  0  0
  192.2060  175.2810  147.0910 C   0  0  0  0  0  2  0  0  0  0  0  0
  186.5490  179.6510  142.3640 F   0  0  0  0  0  0  0  0  0  0  0  0
  188.7970  175.6060  142.4080 N   0  0  0  0  0  0  0  0  0  0  0  0
  186.3760  177.2300  140.0180 C   0  0  0  0  0  3  0  0  0  0  0  0
  187.0830  177.3790  142.7730 C   0  0  0  0  0  0  0  0  0  0  0  0
  189.0820  175.6030  143.7920 C   0  0  0  0  0  0  0  0  0  0  0  0
  190.3170  172.4770  142.7550 C   0  0  0  0  0  1  0  0  0  0  0  0
  190.0780  174.5480  144.1340 C   0  0  2  0  0  3  0  0  0  0  0  0
  193.1890  174.5240  146.2160 C   0  0  0  0  0  2  0  0  0  0  0  0
  190.4440  177.4040  147.3290 O   0  0  0  0  0  0  0  0  0  0  0  0
  187.4530  176.3910  140.5640 C   0  0  0  0  0  3  0  0  0  0  0  0
  187.7870  176.4550  141.8560 C   0  0  2  0  0  3  0  0  0  0  0  0
  190.0290  176.4700  146.5870 C   0  0  0  0  0  0  0  0  0  0  0  0
  186.1900  179.0490  147.1350 O   0  0  0  0  0  0  0  0  0  0  0  0
  183.9890  178.3770  146.4120 C   0  0  0  0  0  1  0  0  0  0  0  0
  184.8430  178.8790  147.5610 C   0  0  0  0  0  2  0  0  0  0  0  0
  1  4  1  0  0  0  0
  1  5  1  0  0  0  0
  2 16  1  0  0  0  0
  2 19  1  0  0  0  0
  3 17  1  0  0  0  0
  3 10  1  0  0  0  0
  4 12  1  0  0  0  0
  5 11  2  0  0  0  0
  7 27  1  0  0  0  0
  7 15  1  1  0  0  0
  8  6  1  6  0  0  0
  9 14  1  1  0  0  0
  9  7  1  0  0  0  0
 10 21  1  1  0  0  0
 10 22  1  0  0  0  0
 11  8  1  0  0  0  0
 11 28  1  0  0  0  0
 12 27  1  0  0  0  0
 12  8  1  0  0  0  0
 13  2  2  0  0  0  0
 14 23  1  0  0  0  0
 17 20  1  0  0  0  0
 18 25  2  0  0  0  0
 18 13  1  0  0  0  0
 19  1  2  0  0  0  0
 20  4  2  0  0  0  0
 22 20  1  6  0  0  0
 22  9  1  0  0  0  0
 23 15  1  0  0  0  0
 26 25  1  1  0  0  0
 26 17  1  0  0  0  0
 26 19  1  0  0  0  0
 27 24  2  0  0  0  0
 28 30  1  0  0  0  0
 29 30  1  0  0  0  0
M  END
>  <MODEL>
4

>  <REMARK>
 VINA RESULT:      -7.4      2.752      7.106
  Name = 
  2 active torsions:
  status: ('A' for Active; 'I' for Inactive)
    1  A    between atoms: C_11  and  O_28
    2  A    between atoms: O_28  and  C_30
                            x       y       z     vdW  Elec       q    Type
                         _______ _______ _______ _____ _____    ______ ____

>  <TORSDO>
F 2

$$$$
=
 OpenBabel11112416263D

 30 35  0  0  1  0  0  0  0  0999 V2000
  192.2030  174.9000  142.5980 C   0  0  0  0  0  0  0  0  0  0  0  0
  194.5730  174.9750  141.8220 C   0  0  2  0  0  3  0  0  0  0  0  0
  192.9340  176.3440  146.5200 C   0  0  0  0  0  2  0  0  0  0  0  0
  191.1280  175.1440  143.5990 C   0  0  0  0  0  0  0  0  0  0  0  0
  191.8230  174.4140  141.3050 N   0  0  0  0  0  0  0  0  0  0  0  0
  189.4950  172.5100  142.6650 C   0  0  0  0  0  1  0  0  0  0  0  0
  188.3420  175.9980  144.9560 C   0  0  1  0  0  3  0  0  0  0  0  0
  189.5560  173.9150  142.0930 C   0  0  2  0  0  3  0  0  0  0  0  0
  189.4260  176.7850  145.6400 C   0  0  1  0  0  3  0  0  0  0  0  0
  191.5040  176.4200  147.0610 C   0  0  2  0  0  3  0  0  0  0  0  0
  190.6210  173.9940  141.0290 C   0  0  0  0  0  0  0  0  0  0  0  0
  189.7740  174.8840  143.1710 N   0  0  0  0  0  0  0  0  0  0  0  0
  195.9710  175.1280  142.3660 C   0  0  0  0  0  3  0  0  0  0  0  0
  188.7310  177.3720  146.8560 C   0  0  0  0  0  2  0  0  0  0  0  0
  187.0680  176.7940  145.1670 C   0  0  0  0  0  2  0  0  0  0  0  0
  194.3880  175.8890  140.8010 F   0  0  0  0  0  0  0  0  0  0  0  0
  192.8010  175.9000  145.1480 N   0  0  0  0  0  0  0  0  0  0  0  0
  196.2240  175.5400  143.6110 C   0  0  0  0  0  3  0  0  0  0  0  0
  193.4990  175.1600  142.8730 C   0  0  0  0  0  0  0  0  0  0  0  0
  191.4550  175.6170  144.8230 C   0  0  0  0  0  0  0  0  0  0  0  0
  191.4010  175.6140  148.3400 C   0  0  0  0  0  1  0  0  0  0  0  0
  190.5610  175.8310  145.9950 C   0  0  2  0  0  3  0  0  0  0  0  0
  187.2830  177.5820  146.4470 C   0  0  0  0  0  2  0  0  0  0  0  0
  187.9450  176.2180  142.6040 O   0  0  0  0  0  0  0  0  0  0  0  0
  195.1400  175.8390  144.5580 C   0  0  0  0  0  3  0  0  0  0  0  0
  193.8610  175.6610  144.2180 C   0  0  0  0  0  0  0  0  0  0  0  0
  188.6720  175.7380  143.5180 C   0  0  0  0  0  0  0  0  0  0  0  0
  190.3020  173.5580  139.7390 O   0  0  0  0  0  0  0  0  0  0  0  0
  188.2230  172.6430  138.9280 C   0  0  0  0  0  1  0  0  0  0  0  0
  189.0760  173.8860  139.0940 C   0  0  0  0  0  2  0  0  0  0  0  0
  1 19  2  0  0  0  0
  1  4  1  0  0  0  0
  2 16  1  6  0  0  0
  2 13  1  0  0  0  0
  2 19  1  0  0  0  0
  3 10  1  0  0  0  0
  4 20  2  0  0  0  0
  5  1  1  0  0  0  0
  7 15  1  6  0  0  0
  7  9  1  0  0  0  0
  8  6  1  1  0  0  0
  8 12  1  0  0  0  0
  9 22  1  0  0  0  0
  9 14  1  1  0  0  0
 10 21  1  1  0  0  0
 11  5  2  0  0  0  0
 11  8  1  0  0  0  0
 12 27  1  0  0  0  0
 12  4  1  0  0  0  0
 13 18  2  0  0  0  0
 15 23  1  0  0  0  0
 17  3  1  0  0  0  0
 18 25  1  0  0  0  0
 19 26  1  0  0  0  0
 20 17  1  0  0  0  0
 22 20  1  6  0  0  0
 22 10  1  0  0  0  0
 23 14  1  0  0  0  0
 24 27  2  0  0  0  0
 26 25  2  0  0  0  0
 26 17  1  0  0  0  0
 27  7  1  0  0  0  0
 28 11  1  0  0  0  0
 29 30  1  0  0  0  0
 30 28  1  0  0  0  0
M  END
>  <MODEL>
5

>  <REMARK>
 VINA RESULT:      -7.3      1.858      3.260
  Name = 
  2 active torsions:
  status: ('A' for Active; 'I' for Inactive)
    1  A    between atoms: C_11  and  O_28
    2  A    between atoms: O_28  and  C_30
                            x       y       z     vdW  Elec       q    Type
                         _______ _______ _______ _____ _____    ______ ____

>  <TORSDO>
F 2

$$$$
=
 OpenBabel11112416263D

 30 35  0  0  1  0  0  0  0  0999 V2000
  190.9540  176.0340  144.3400 C   0  0  0  0  0  0  0  0  0  0  0  0
  192.3700  176.4270  146.3560 C   0  0  0  0  0  0  0  0  0  0  0  0
  193.8870  173.9490  142.0920 C   0  0  0  0  0  2  0  0  0  0  0  0
  190.7010  175.4560  142.9900 C   0  0  0  0  0  0  0  0  0  0  0  0
  189.8770  176.7130  144.9960 N   0  0  0  0  0  0  0  0  0  0  0  0
  188.8770  177.9850  142.1190 C   0  0  0  0  0  1  0  0  0  0  0  0
  189.2920  173.9900  140.5020 C   0  0  1  0  0  3  0  0  0  0  0  0
  188.5570  176.7420  142.9300 C   0  0  2  0  0  3  0  0  0  0  0  0
  190.5560  173.2320  140.8020 C   0  0  1  0  0  3  0  0  0  0  0  0
  193.0760  173.5790  140.8480 C   0  0  2  0  0  3  0  0  0  0  0  0
  188.7600  177.0170  144.3980 C   0  0  0  0  0  0  0  0  0  0  0  0
  189.3680  175.6150  142.4580 N   0  0  0  0  0  0  0  0  0  0  0  0
  193.8090  176.3550  146.7990 C   0  0  0  0  0  3  0  0  0  0  0  0
  190.7300  172.3300  139.5940 C   0  0  0  0  0  2  0  0  0  0  0  0
  188.3930  173.0070  139.7750 C   0  0  0  0  0  2  0  0  0  0  0  0
  191.5890  175.7180  147.2510 F   0  0  0  0  0  0  0  0  0  0  0  0
  192.9580  174.6350  142.9650 N   0  0  0  0  0  0  0  0  0  0  0  0
  194.7570  175.7410  146.0870 C   0  0  0  0  0  3  0  0  0  0  0  0
  192.1480  175.8980  144.9560 C   0  0  0  0  0  0  0  0  0  0  0  0
  191.6950  174.7970  142.3530 C   0  0  0  0  0  0  0  0  0  0  0  0
  193.7810  174.0940  139.6100 C   0  0  0  0  0  1  0  0  0  0  0  0
  191.6890  174.2380  140.9720 C   0  0  2  0  0  3  0  0  0  0  0  0
  189.3270  172.0160  139.1030 C   0  0  0  0  0  2  0  0  0  0  0  0
  187.5480  174.1920  142.1310 O   0  0  0  0  0  0  0  0  0  0  0  0
  194.4630  175.1190  144.7880 C   0  0  0  0  0  3  0  0  0  0  0  0
  193.2420  175.1910  144.2520 C   0  0  2  0  0  3  0  0  0  0  0  0
  188.6880  174.5720  141.7430 C   0  0  0  0  0  0  0  0  0  0  0  0
  187.7320  177.6540  145.1000 O   0  0  0  0  0  0  0  0  0  0  0  0
  185.7430  176.8630  146.2130 C   0  0  0  0  0  1  0  0  0  0  0  0
  187.2240  177.1660  146.3370 C   0  0  0  0  0  2  0  0  0  0  0  0
  1 19  2  0  0  0  0
  1  5  1  0  0  0  0
  2 13  2  0  0  0  0
  2 16  1  0  0  0  0
  3 17  1  0  0  0  0
  4  1  1  0  0  0  0
  7 15  1  1  0  0  0
  7  9  1  0  0  0  0
  7 27  1  0  0  0  0
  8  6  1  6  0  0  0
  8 11  1  0  0  0  0
  9 14  1  6  0  0  0
  9 22  1  0  0  0  0
 10 21  1  6  0  0  0
 10 22  1  0  0  0  0
 10  3  1  0  0  0  0
 11  5  2  0  0  0  0
 11 28  1  0  0  0  0
 12  8  1  0  0  0  0
 12  4  1  0  0  0  0
 17 26  1  0  0  0  0
 18 13  1  0  0  0  0
 19  2  1  0  0  0  0
 20 17  1  0  0  0  0
 20  4  2  0  0  0  0
 22 20  1  1  0  0  0
 23 14  1  0  0  0  0
 23 15  1  0  0  0  0
 25 18  2  0  0  0  0
 26 25  1  6  0  0  0
 26 19  1  0  0  0  0
 27 24  2  0  0  0  0
 27 12  1  0  0  0  0
 28 30  1  0  0  0  0
 29 30  1  0  0  0  0
M  END
>  <MODEL>
6

>  <REMARK>
 VINA RESULT:      -7.2      1.967      5.770
  Name = 
  2 active torsions:
  status: ('A' for Active; 'I' for Inactive)
    1  A    between atoms: C_11  and  O_28
    2  A    between atoms: O_28  and  C_30
                            x       y       z     vdW  Elec       q    Type
                         _______ _______ _______ _____ _____    ______ ____

>  <TORSDO>
F 2

$$$$
=
 OpenBabel11112416263D

 30 35  0  0  1  0  0  0  0  0999 V2000
  189.2200  175.9620  144.3250 C   0  0  0  0  0  0  0  0  0  0  0  0
  189.4710  176.6150  146.7200 C   0  0  0  0  0  0  0  0  0  0  0  0
  193.2600  174.8190  143.7120 C   0  0  0  0  0  2  0  0  0  0  0  0
  189.7330  175.4030  143.0430 C   0  0  0  0  0  0  0  0  0  0  0  0
  187.8320  176.3060  144.4030 N   0  0  0  0  0  0  0  0  0  0  0  0
  187.8910  177.4090  141.2920 C   0  0  0  0  0  1  0  0  0  0  0  0
  189.9650  173.7390  140.3030 C   0  0  1  0  0  3  0  0  0  0  0  0
  187.5780  176.0880  141.9740 C   0  0  2  0  0  3  0  0  0  0  0  0
  191.1200  173.3230  141.1710 C   0  0  1  0  0  3  0  0  0  0  0  0
  193.1920  174.3100  142.2700 C   0  0  2  0  0  3  0  0  0  0  0  0
  187.0480  176.3370  143.3630 C   0  0  0  0  0  0  0  0  0  0  0  0
  188.7700  175.2340  141.9800 N   0  0  0  0  0  0  0  0  0  0  0  0
  190.5420  176.8990  147.7420 C   0  0  0  0  0  3  0  0  0  0  0  0
  192.0240  172.5540  140.2230 C   0  0  0  0  0  2  0  0  0  0  0  0
  189.7530  172.5920  139.3340 C   0  0  0  0  0  2  0  0  0  0  0  0
  188.5890  175.6860  147.2410 F   0  0  0  0  0  0  0  0  0  0  0  0
  191.9050  175.1980  144.0500 N   0  0  0  0  0  0  0  0  0  0  0  0
  191.8260  176.5860  147.5530 C   0  0  0  0  0  3  0  0  0  0  0  0
  190.0210  176.1120  145.4020 C   0  0  0  0  0  0  0  0  0  0  0  0
  191.0350  175.0550  142.9440 C   0  0  0  0  0  0  0  0  0  0  0  0
  194.2070  175.0480  141.4220 C   0  0  0  0  0  1  0  0  0  0  0  0
  191.7710  174.5790  141.7390 C   0  0  2  0  0  3  0  0  0  0  0  0
  191.1030  171.9100  139.2010 C   0  0  0  0  0  2  0  0  0  0  0  0
  187.7000  173.4040  141.0060 O   0  0  0  0  0  0  0  0  0  0  0  0
  192.2930  175.9710  146.3020 C   0  0  0  0  0  3  0  0  0  0  0  0
  191.4510  175.7480  145.2890 C   0  0  2  0  0  3  0  0  0  0  0  0
  188.7580  174.0850  141.1190 C   0  0  0  0  0  0  0  0  0  0  0  0
  185.6930  176.6520  143.5080 O   0  0  0  0  0  0  0  0  0  0  0  0
  185.5510  179.0520  143.7000 C   0  0  0  0  0  1  0  0  0  0  0  0
  185.2310  177.7130  144.3370 C   0  0  0  0  0  2  0  0  0  0  0  0
  1  5  1  0  0  0  0
  1 19  2  0  0  0  0
  2 16  1  0  0  0  0
  2 13  2  0  0  0  0
  3 17  1  0  0  0  0
  4  1  1  0  0  0  0
  7 15  1  6  0  0  0
  7 27  1  0  0  0  0
  7  9  1  0  0  0  0
  8  6  1  1  0  0  0
  8 12  1  0  0  0  0
  8 11  1  0  0  0  0
  9 14  1  6  0  0  0
  9 22  1  0  0  0  0
 10 21  1  6  0  0  0
 10  3  1  0  0  0  0
 11 28  1  0  0  0  0
 11  5  2  0  0  0  0
 12  4  1  0  0  0  0
 17 26  1  0  0  0  0
 18 13  1  0  0  0  0
 19  2  1  0  0  0  0
 20  4  2  0  0  0  0
 20 17  1  0  0  0  0
 22 10  1  0  0  0  0
 22 20  1  1  0  0  0
 23 15  1  0  0  0  0
 23 14  1  0  0  0  0
 24 27  2  0  0  0  0
 25 18  2  0  0  0  0
 26 19  1  0  0  0  0
 26 25  1  6  0  0  0
 27 12  1  0  0  0  0
 28 30  1  0  0  0  0
 29 30  1  0  0  0  0
M  END
>  <MODEL>
7

>  <REMARK>
 VINA RESULT:      -7.1      1.909      5.734
  Name = 
  2 active torsions:
  status: ('A' for Active; 'I' for Inactive)
    1  A    between atoms: C_11  and  O_28
    2  A    between atoms: O_28  and  C_30
                            x       y       z     vdW  Elec       q    Type
                         _______ _______ _______ _____ _____    ______ ____

>  <TORSDO>
F 2

$$$$
=
 OpenBabel11112416263D

 30 35  0  0  1  0  0  0  0  0999 V2000
  190.4560  175.2380  143.3030 C   0  0  0  0  0  0  0  0  0  0  0  0
  191.6510  173.1860  142.5390 C   0  0  0  0  0  0  0  0  0  0  0  0
  187.6030  175.3300  140.1630 C   0  0  0  0  0  2  0  0  0  0  0  0
  189.3660  176.2500  143.2090 C   0  0  0  0  0  0  0  0  0  0  0  0
  191.3530  175.3150  144.4170 N   0  0  0  0  0  0  0  0  0  0  0  0
  191.3050  178.6130  144.2750 C   0  0  0  0  0  1  0  0  0  0  0  0
  186.9980  178.2820  143.9800 C   0  0  1  0  0  3  0  0  0  0  0  0
  190.5200  177.5430  145.0120 C   0  0  2  0  0  3  0  0  0  0  0  0
  186.4300  177.2930  142.9990 C   0  0  1  0  0  3  0  0  0  0  0  0
  186.7500  176.5250  140.5950 C   0  0  2  0  0  3  0  0  0  0  0  0
  191.3840  176.3280  145.2350 C   0  0  0  0  0  0  0  0  0  0  0  0
  189.2940  177.2240  144.2720 N   0  0  0  0  0  0  0  0  0  0  0  0
  191.7640  172.2860  141.3360 C   0  0  0  0  0  3  0  0  0  0  0  0
  185.1030  177.9110  142.5960 C   0  0  0  0  0  2  0  0  0  0  0  0
  185.8060  178.8250  144.7450 C   0  0  0  0  0  2  0  0  0  0  0  0
  191.3870  172.4120  143.6550 F   0  0  0  0  0  0  0  0  0  0  0  0
  188.5980  175.1730  141.2030 N   0  0  0  0  0  0  0  0  0  0  0  0
  190.9020  172.3260  140.3160 C   0  0  0  0  0  3  0  0  0  0  0  0
  190.5840  174.2490  142.3930 C   0  0  0  0  0  0  0  0  0  0  0  0
  188.4950  176.1930  142.1770 C   0  0  0  0  0  0  0  0  0  0  0  0
  186.6940  177.5410  139.4730 C   0  0  0  0  0  1  0  0  0  0  0  0
  187.4080  177.1540  141.8370 C   0  0  2  0  0  3  0  0  0  0  0  0
  184.6190  178.6880  143.8080 C   0  0  0  0  0  2  0  0  0  0  0  0
  187.8750  177.5700  146.0920 O   0  0  0  0  0  0  0  0  0  0  0  0
  189.7940  173.2920  140.2830 C   0  0  0  0  0  3  0  0  0  0  0  0
  189.6410  174.1970  141.2530 C   0  0  2  0  0  3  0  0  0  0  0  0
  188.0510  177.6580  144.8440 C   0  0  0  0  0  0  0  0  0  0  0  0
  192.2630  176.3320  146.3230 O   0  0  0  0  0  0  0  0  0  0  0  0
  194.4820  177.1540  145.8500 C   0  0  0  0  0  1  0  0  0  0  0  0
  193.6300  175.9510  146.2120 C   0  0  0  0  0  2  0  0  0  0  0  0
  1  5  1  0  0  0  0
  2 16  1  0  0  0  0
  3 10  1  0  0  0  0
  3 17  1  0  0  0  0
  4  1  1  0  0  0  0
  4 12  1  0  0  0  0
  5 11  2  0  0  0  0
  7 15  1  1  0  0  0
  7 27  1  0  0  0  0
  8  6  1  6  0  0  0
  8 11  1  0  0  0  0
  9 14  1  6  0  0  0
  9  7  1  0  0  0  0
 10 21  1  6  0  0  0
 10 22  1  0  0  0  0
 11 28  1  0  0  0  0
 12 27  1  0  0  0  0
 12  8  1  0  0  0  0
 13  2  2  0  0  0  0
 14 23  1  0  0  0  0
 17 26  1  0  0  0  0
 17 20  1  0  0  0  0
 18 13  1  0  0  0  0
 19  2  1  0  0  0  0
 19  1  2  0  0  0  0
 20  4  2  0  0  0  0
 22 20  1  1  0  0  0
 22  9  1  0  0  0  0
 23 15  1  0  0  0  0
 25 18  2  0  0  0  0
 26 25  1  6  0  0  0
 26 19  1  0  0  0  0
 27 24  2  0  0  0  0
 29 30  1  0  0  0  0
 30 28  1  0  0  0  0
M  END
>  <MODEL>
8

>  <REMARK>
 VINA RESULT:      -7.1      2.254      4.970
  Name = 
  2 active torsions:
  status: ('A' for Active; 'I' for Inactive)
    1  A    between atoms: C_11  and  O_28
    2  A    between atoms: O_28  and  C_30
                            x       y       z     vdW  Elec       q    Type
                         _______ _______ _______ _____ _____    ______ ____

>  <TORSDO>
F 2

$$$$
=
 OpenBabel11112416263D

 30 35  0  0  1  0  0  0  0  0999 V2000
  192.0980  173.9760  143.7120 C   0  0  0  0  0  0  0  0  0  0  0  0
  192.8630  172.0080  142.3830 C   0  0  0  0  0  0  0  0  0  0  0  0
  188.4210  174.5360  141.6700 C   0  0  0  0  0  2  0  0  0  0  0  0
  191.1010  175.0180  144.0830 C   0  0  0  0  0  0  0  0  0  0  0  0
  193.3010  173.8880  144.4850 N   0  0  0  0  0  0  0  0  0  0  0  0
  193.4220  177.1770  144.7370 C   0  0  0  0  0  1  0  0  0  0  0  0
  189.2260  176.9950  145.7880 C   0  0  1  0  0  3  0  0  0  0  0  0
  192.8390  176.0430  145.5600 C   0  0  2  0  0  3  0  0  0  0  0  0
  188.3180  176.1540  144.9330 C   0  0  1  0  0  3  0  0  0  0  0  0
  187.8230  175.6880  142.4810 C   0  0  2  0  0  3  0  0  0  0  0  0
  193.6500  174.7880  145.3600 C   0  0  0  0  0  0  0  0  0  0  0  0
  191.4260  175.8510  145.2160 N   0  0  0  0  0  0  0  0  0  0  0  0
  192.5370  171.2640  141.1130 C   0  0  0  0  0  3  0  0  0  0  0  0
  186.9740  176.8500  145.0440 C   0  0  0  0  0  2  0  0  0  0  0  0
  188.3690  177.4660  146.9480 C   0  0  0  0  0  2  0  0  0  0  0  0
  192.9110  171.1060  143.4310 F   0  0  0  0  0  0  0  0  0  0  0  0
  189.6780  174.2240  142.3170 N   0  0  0  0  0  0  0  0  0  0  0  0
  191.4050  171.4550  140.4310 C   0  0  0  0  0  3  0  0  0  0  0  0
  191.8730  173.1070  142.7030 C   0  0  0  0  0  0  0  0  0  0  0  0
  189.9490  175.1150  143.3810 C   0  0  0  0  0  0  0  0  0  0  0  0
  187.4850  176.8400  141.5570 C   0  0  0  0  0  1  0  0  0  0  0  0
  188.8740  176.1380  143.5140 C   0  0  2  0  0  3  0  0  0  0  0  0
  186.9430  177.4800  146.4260 C   0  0  0  0  0  2  0  0  0  0  0  0
  190.6700  175.9990  147.4190 O   0  0  0  0  0  0  0  0  0  0  0  0
  190.4050  172.4450  140.8590 C   0  0  0  0  0  3  0  0  0  0  0  0
  190.6200  173.2230  141.9230 C   0  0  2  0  0  3  0  0  0  0  0  0
  190.4530  176.2410  146.1980 C   0  0  0  0  0  0  0  0  0  0  0  0
  194.8230  174.6320  146.1060 O   0  0  0  0  0  0  0  0  0  0  0  0
  196.9410  173.4880  146.2610 C   0  0  0  0  0  1  0  0  0  0  0  0
  196.1080  174.5080  145.5070 C   0  0  0  0  0  2  0  0  0  0  0  0
  1  4  1  0  0  0  0
  1  5  1  0  0  0  0
  2 19  1  0  0  0  0
  2 16  1  0  0  0  0
  3 17  1  0  0  0  0
  3 10  1  0  0  0  0
  4 12  1  0  0  0  0
  5 11  2  0  0  0  0
  7 27  1  0  0  0  0
  7 15  1  1  0  0  0
  8  6  1  6  0  0  0
  9 14  1  6  0  0  0
  9  7  1  0  0  0  0
 10 21  1  6  0  0  0
 10 22  1  0  0  0  0
 11  8  1  0  0  0  0
 11 28  1  0  0  0  0
 12  8  1  0  0  0  0
 12 27  1  0  0  0  0
 13  2  2  0  0  0  0
 14 23  1  0  0  0  0
 17 20  1  0  0  0  0
 18 25  2  0  0  0  0
 18 13  1  0  0  0  0
 19  1  2  0  0  0  0
 20  4  2  0  0  0  0
 22 20  1  1  0  0  0
 22  9  1  0  0  0  0
 23 15  1  0  0  0  0
 26 25  1  6  0  0  0
 26 17  1  0  0  0  0
 26 19  1  0  0  0  0
 27 24  2  0  0  0  0
 30 28  1  0  0  0  0
 30 29  1  0  0  0  0
M  END
>  <MODEL>
9

>  <REMARK>
 VINA RESULT:      -6.9      2.694      5.402
  Name = 
  2 active torsions:
  status: ('A' for Active; 'I' for Inactive)
    1  A    between atoms: C_11  and  O_28
    2  A    between atoms: O_28  and  C_30
                            x       y       z     vdW  Elec       q    Type
                         _______ _______ _______ _____ _____    ______ ____

>  <TORSDO>
F 2

$$$$
