=
 OpenBabel11112417203D

 37 43  0  0  1  0  0  0  0  0999 V2000
  190.1300  173.9480  142.0060 C   0  0  0  0  0  2  0  0  0  0  0  0
  189.6350  175.1200  146.5520 C   0  0  0  0  0  0  0  0  0  0  0  0
  193.1430  174.0160  144.5480 C   0  0  0  0  0  0  0  0  0  0  0  0
  188.8510  173.9430  141.1870 C   0  0  2  0  0  3  0  0  0  0  0  0
  193.0070  171.9170  141.5010 C   0  0  0  0  0  2  0  0  0  0  0  0
  192.1700  175.3210  146.3270 C   0  0  0  0  0  0  0  0  0  0  0  0
  192.7410  172.9000  143.6210 C   0  0  2  0  0  3  0  0  0  0  0  0
  189.6450  172.0070  139.6730 C   0  0  0  0  0  0  0  0  0  0  0  0
  192.0800  174.3900  145.3040 C   0  0  0  0  0  0  0  0  0  0  0  0
  192.9940  173.2010  142.1980 N   0  0  1  0  0  0  0  0  0  0  0  0
  193.4180  175.9160  146.5670 C   0  0  0  0  0  3  0  0  0  0  0  0
  189.0460  173.2910  139.8950 N   0  0  0  0  0  2  0  0  0  0  0  0
  190.9000  173.7130  144.9700 N   0  0  0  0  0  0  0  0  0  0  0  0
  189.1950  176.1680  145.5420 C   0  0  0  0  0  1  0  0  0  0  0  0
  195.5640  174.3490  143.8090 C   0  0  0  0  0  2  0  0  0  0  0  0
  194.5270  175.5750  145.7590 C   0  0  0  0  0  3  0  0  0  0  0  0
  189.7400  173.7460  145.8550 C   0  0  0  0  0  2  0  0  0  0  0  0
  190.6620  171.4160  140.6030 C   0  0  1  0  0  3  0  0  0  0  0  0
  192.0510  172.0000  140.3240 C   0  0  0  0  0  2  0  0  0  0  0  0
  194.4010  174.6090  144.7400 C   0  0  0  0  0  0  0  0  0  0  0  0
  191.2240  172.6880  143.9810 C   0  0  1  0  0  3  0  0  0  0  0  0
  190.9700  175.5580  147.2050 C   0  0  0  0  0  2  0  0  0  0  0  0
  194.2930  173.8890  142.0070 C   0  0  1  0  0  3  0  0  0  0  0  0
  188.5800  175.0310  147.6320 C   0  0  0  0  0  1  0  0  0  0  0  0
  190.2000  171.3500  142.0680 C   0  0  0  0  0  2  0  0  0  0  0  0
  189.3870  171.3940  138.6040 O   0  0  0  0  0  0  0  0  0  0  0  0
  190.1960  172.6730  142.8430 C   0  0  2  0  0  3  0  0  0  0  0  0
  195.2960  173.3590  142.8410 O   0  0  0  0  0  0  0  0  0  0  0  0
  195.9170  173.4190  140.1590 C   0  0  0  0  0  3  0  0  0  0  0  0
  194.7230  174.0200  140.5720 C   0  0  0  0  0  0  0  0  0  0  0  0
  193.9720  174.7720  139.6570 C   0  0  0  0  0  3  0  0  0  0  0  0
  193.4690  175.8480  137.1980 Cl  0  0  0  0  0  0  0  0  0  0  0  0
  195.6000  174.3010  137.9270 C   0  0  0  0  0  3  0  0  0  0  0  0
  194.4090  174.9100  138.3370 C   0  0  0  0  0  0  0  0  0  0  0  0
  196.3530  173.5570  138.8390 C   0  0  0  0  0  3  0  0  0  0  0  0
  188.7340  176.1680  142.0420 O   0  0  0  0  0  1  0  0  0  0  0  0
  188.3760  175.3660  140.9590 C   0  0  0  0  0  2  0  0  0  0  0  0
  2 22  1  0  0  0  0
  2 24  1  0  0  0  0
  3 20  2  0  0  0  0
  3  9  1  0  0  0  0
  4 37  1  6  0  0  0
  4  1  1  0  0  0  0
  6 11  1  0  0  0  0
  6 22  1  0  0  0  0
  7 21  1  0  0  0  0
  7  3  1  1  0  0  0
  8 12  1  0  0  0  0
  8 18  1  0  0  0  0
  9  6  2  0  0  0  0
 10  5  1  6  0  0  0
 10  7  1  0  0  0  0
 12  4  1  0  0  0  0
 13  9  1  0  0  0  0
 13 17  1  0  0  0  0
 14  2  1  0  0  0  0
 15 20  1  0  0  0  0
 16 11  2  0  0  0  0
 17  2  1  0  0  0  0
 18 19  1  1  0  0  0
 18 25  1  0  0  0  0
 19  5  1  0  0  0  0
 20 16  1  0  0  0  0
 21 13  1  1  0  0  0
 23 30  1  6  0  0  0
 23 10  1  0  0  0  0
 23 28  1  0  0  0  0
 25 27  1  0  0  0  0
 26  8  2  0  0  0  0
 27  1  1  6  0  0  0
 27 21  1  0  0  0  0
 28 15  1  0  0  0  0
 29 30  1  0  0  0  0
 31 30  2  0  0  0  0
 32 34  1  0  0  0  0
 33 34  2  0  0  0  0
 33 35  1  0  0  0  0
 34 31  1  0  0  0  0
 35 29  2  0  0  0  0
 37 36  1  0  0  0  0
M  END
>  <MODEL>
1

>  <REMARK>
 VINA RESULT:      -7.4      0.000      0.000
  Name = 
  2 active torsions:
  status: ('A' for Active; 'I' for Inactive)
    1  A    between atoms: CA_4  and  C_37
    2  A    between atoms: C_23  and  C_30
                            x       y       z     vdW  Elec       q    Type
                         _______ _______ _______ _____ _____    ______ ____

>  <TORSDO>
F 2

$$$$
=
 OpenBabel11112417203D

 37 43  0  0  1  0  0  0  0  0999 V2000
  194.5390  174.5500  143.3270 C   0  0  0  0  0  2  0  0  0  0  0  0
  195.6250  170.1900  141.8830 C   0  0  0  0  0  0  0  0  0  0  0  0
  191.9520  171.5760  143.3370 C   0  0  0  0  0  0  0  0  0  0  0  0
  195.6750  175.5580  143.2860 C   0  0  2  0  0  3  0  0  0  0  0  0
  191.7870  174.5170  145.5800 C   0  0  0  0  0  2  0  0  0  0  0  0
  193.0780  170.0270  141.8740 C   0  0  0  0  0  0  0  0  0  0  0  0
  192.2940  172.5070  144.4700 C   0  0  2  0  0  3  0  0  0  0  0  0
  194.8140  176.8470  145.3510 C   0  0  0  0  0  0  0  0  0  0  0  0
  193.0850  171.0110  142.8490 C   0  0  0  0  0  0  0  0  0  0  0  0
  191.8050  173.8840  144.2640 N   0  0  1  0  0  0  0  0  0  0  0  0
  191.8380  169.6200  141.3570 C   0  0  0  0  0  3  0  0  0  0  0  0
  195.3380  176.7750  144.0180 N   0  0  0  0  0  2  0  0  0  0  0  0
  194.2490  171.4960  143.4580 N   0  0  0  0  0  0  0  0  0  0  0  0
  195.8240  171.2990  140.8610 C   0  0  0  0  0  1  0  0  0  0  0  0
  189.4270  171.9440  143.2160 C   0  0  0  0  0  2  0  0  0  0  0  0
  190.6500  170.2310  141.8170 C   0  0  0  0  0  3  0  0  0  0  0  0
  195.5240  170.8040  143.2960 C   0  0  0  0  0  2  0  0  0  0  0  0
  193.9990  175.7470  145.9620 C   0  0  1  0  0  3  0  0  0  0  0  0
  192.5430  175.8310  145.4930 C   0  0  0  0  0  2  0  0  0  0  0  0
  190.6940  171.2160  142.8250 C   0  0  0  0  0  0  0  0  0  0  0  0
  193.8590  172.3790  144.5540 C   0  0  1  0  0  3  0  0  0  0  0  0
  194.3760  169.3560  141.5060 C   0  0  0  0  0  2  0  0  0  0  0  0
  190.4420  173.9000  143.6800 C   0  0  1  0  0  3  0  0  0  0  0  0
  196.8370  169.2840  141.8390 C   0  0  0  0  0  1  0  0  0  0  0  0
  194.6820  174.3700  145.9160 C   0  0  0  0  0  2  0  0  0  0  0  0
  194.9540  177.9170  146.0000 O   0  0  0  0  0  0  0  0  0  0  0  0
  194.7010  173.6610  144.5570 C   0  0  2  0  0  3  0  0  0  0  0  0
  189.6210  172.8990  144.2350 O   0  0  0  0  0  0  0  0  0  0  0  0
  190.2430  176.2150  142.7440 C   0  0  0  0  0  3  0  0  0  0  0  0
  189.7900  175.2550  143.6570 C   0  0  0  0  0  0  0  0  0  0  0  0
  188.7730  175.5850  144.5630 C   0  0  0  0  0  3  0  0  0  0  0  0
  186.9340  177.2680  145.6780 Cl  0  0  0  0  0  0  0  0  0  0  0  0
  188.6560  177.8160  143.6280 C   0  0  0  0  0  3  0  0  0  0  0  0
  188.2050  176.8620  144.5470 C   0  0  0  0  0  0  0  0  0  0  0  0
  189.6750  177.4910  142.7280 C   0  0  0  0  0  3  0  0  0  0  0  0
  194.9750  176.6960  141.3070 O   0  0  0  0  0  1  0  0  0  0  0  0
  195.9980  175.9160  141.8470 C   0  0  0  0  0  2  0  0  0  0  0  0
  2 17  1  0  0  0  0
  4 37  1  6  0  0  0
  4  1  1  0  0  0  0
  4 12  1  0  0  0  0
  6  9  2  0  0  0  0
  7  3  1  6  0  0  0
  7 21  1  0  0  0  0
  8 18  1  0  0  0  0
  8 26  2  0  0  0  0
  9  3  1  0  0  0  0
  9 13  1  0  0  0  0
 10  7  1  0  0  0  0
 10  5  1  1  0  0  0
 11 16  2  0  0  0  0
 11  6  1  0  0  0  0
 12  8  1  0  0  0  0
 14  2  1  0  0  0  0
 15 28  1  0  0  0  0
 16 20  1  0  0  0  0
 17 13  1  0  0  0  0
 18 19  1  6  0  0  0
 19  5  1  0  0  0  0
 20 15  1  0  0  0  0
 20  3  2  0  0  0  0
 21 13  1  6  0  0  0
 21 27  1  0  0  0  0
 22  6  1  0  0  0  0
 22  2  1  0  0  0  0
 23 30  1  1  0  0  0
 23 28  1  0  0  0  0
 23 10  1  0  0  0  0
 24  2  1  0  0  0  0
 25 18  1  0  0  0  0
 27  1  1  6  0  0  0
 27 25  1  0  0  0  0
 29 30  1  0  0  0  0
 30 31  2  0  0  0  0
 33 34  2  0  0  0  0
 34 31  1  0  0  0  0
 34 32  1  0  0  0  0
 35 29  2  0  0  0  0
 35 33  1  0  0  0  0
 36 37  1  0  0  0  0
M  END
>  <MODEL>
2

>  <REMARK>
 VINA RESULT:      -7.3      3.116      7.252
  Name = 
  2 active torsions:
  status: ('A' for Active; 'I' for Inactive)
    1  A    between atoms: CA_4  and  C_37
    2  A    between atoms: C_23  and  C_30
                            x       y       z     vdW  Elec       q    Type
                         _______ _______ _______ _____ _____    ______ ____

>  <TORSDO>
F 2

$$$$
=
 OpenBabel11112417203D

 37 43  0  0  1  0  0  0  0  0999 V2000
  189.2560  175.5450  145.2080 C   0  0  0  0  0  2  0  0  0  0  0  0
  186.1690  178.5660  147.1110 C   0  0  0  0  0  0  0  0  0  0  0  0
  186.8210  177.7710  143.0510 C   0  0  0  0  0  0  0  0  0  0  0  0
  190.1380  174.7990  146.1950 C   0  0  2  0  0  3  0  0  0  0  0  0
  190.0790  176.4680  141.8730 C   0  0  0  0  0  2  0  0  0  0  0  0
  185.2290  178.4220  144.7420 C   0  0  0  0  0  0  0  0  0  0  0  0
  188.3120  177.6250  142.9050 C   0  0  2  0  0  3  0  0  0  0  0  0
  192.1470  174.7150  144.5740 C   0  0  0  0  0  0  0  0  0  0  0  0
  186.5150  178.1110  144.3290 C   0  0  0  0  0  0  0  0  0  0  0  0
  188.7230  176.3050  142.3910 N   0  0  1  0  0  0  0  0  0  0  0  0
  184.1990  178.3550  143.7910 C   0  0  0  0  0  3  0  0  0  0  0  0
  191.2450  174.1260  145.5210 N   0  0  0  0  0  2  0  0  0  0  0  0
  187.6340  178.1520  145.1710 N   0  0  0  0  0  0  0  0  0  0  0  0
  186.0300  177.1140  147.5400 C   0  0  0  0  0  1  0  0  0  0  0  0
  186.0850  177.1240  140.6930 C   0  0  0  0  0  2  0  0  0  0  0  0
  184.4890  177.9560  142.4670 C   0  0  0  0  0  3  0  0  0  0  0  0
  187.5620  178.7870  146.4840 C   0  0  0  0  0  2  0  0  0  0  0  0
  191.7650  175.8760  143.7050 C   0  0  1  0  0  3  0  0  0  0  0  0
  190.9630  175.3990  142.4910 C   0  0  0  0  0  2  0  0  0  0  0  0
  185.8130  177.6660  142.0790 C   0  0  0  0  0  0  0  0  0  0  0  0
  188.8280  177.9480  144.3560 C   0  0  1  0  0  3  0  0  0  0  0  0
  185.0160  178.9320  146.1430 C   0  0  0  0  0  2  0  0  0  0  0  0
  187.8250  175.8340  141.3100 C   0  0  1  0  0  3  0  0  0  0  0  0
  186.0540  179.4360  148.3430 C   0  0  0  0  0  1  0  0  0  0  0  0
  191.2230  177.0840  144.4860 C   0  0  0  0  0  2  0  0  0  0  0  0
  193.2690  174.1740  144.3890 O   0  0  0  0  0  0  0  0  0  0  0  0
  189.7940  176.9620  145.0270 C   0  0  2  0  0  3  0  0  0  0  0  0
  187.4510  176.8810  140.4450 O   0  0  0  0  0  0  0  0  0  0  0  0
  188.6780  173.4790  141.3200 C   0  0  0  0  0  3  0  0  0  0  0  0
  188.3130  174.6110  140.5830 C   0  0  0  0  0  0  0  0  0  0  0  0
  188.4510  174.6050  139.1880 C   0  0  0  0  0  3  0  0  0  0  0  0
  189.1080  173.4650  136.7950 Cl  0  0  0  0  0  0  0  0  0  0  0  0
  189.2960  172.3370  139.2770 C   0  0  0  0  0  3  0  0  0  0  0  0
  188.9390  173.4690  138.5360 C   0  0  0  0  0  0  0  0  0  0  0  0
  189.1660  172.3440  140.6680 C   0  0  0  0  0  3  0  0  0  0  0  0
  188.5630  174.3970  147.9430 O   0  0  0  0  0  1  0  0  0  0  0  0
  189.3160  173.7710  146.9500 C   0  0  0  0  0  2  0  0  0  0  0  0
  1  4  1  0  0  0  0
  2 14  1  0  0  0  0
  2 24  1  0  0  0  0
  3  9  1  0  0  0  0
  4 37  1  6  0  0  0
  5 19  1  0  0  0  0
  6 22  1  0  0  0  0
  7  3  1  1  0  0  0
  7 21  1  0  0  0  0
  8 12  1  0  0  0  0
  9  6  2  0  0  0  0
  9 13  1  0  0  0  0
 10  5  1  6  0  0  0
 10  7  1  0  0  0  0
 11  6  1  0  0  0  0
 12  4  1  0  0  0  0
 13 17  1  0  0  0  0
 15 20  1  0  0  0  0
 16 11  2  0  0  0  0
 17  2  1  0  0  0  0
 18 19  1  6  0  0  0
 18 25  1  0  0  0  0
 18  8  1  0  0  0  0
 20 16  1  0  0  0  0
 20  3  2  0  0  0  0
 21 27  1  0  0  0  0
 21 13  1  1  0  0  0
 22  2  1  0  0  0  0
 23 30  1  6  0  0  0
 23 10  1  0  0  0  0
 26  8  2  0  0  0  0
 27 25  1  6  0  0  0
 27  1  1  0  0  0  0
 28 15  1  0  0  0  0
 28 23  1  0  0  0  0
 30 29  2  0  0  0  0
 31 30  1  0  0  0  0
 32 34  1  0  0  0  0
 33 35  2  0  0  0  0
 34 31  2  0  0  0  0
 34 33  1  0  0  0  0
 35 29  1  0  0  0  0
 37 36  1  0  0  0  0
M  END
>  <MODEL>
3

>  <REMARK>
 VINA RESULT:      -7.1      3.297      6.687
  Name = 
  2 active torsions:
  status: ('A' for Active; 'I' for Inactive)
    1  A    between atoms: CA_4  and  C_37
    2  A    between atoms: C_23  and  C_30
                            x       y       z     vdW  Elec       q    Type
                         _______ _______ _______ _____ _____    ______ ____

>  <TORSDO>
F 2

$$$$
=
 OpenBabel11112417203D

 37 43  0  0  1  0  0  0  0  0999 V2000
  189.4680  173.8540  140.0260 C   0  0  0  0  0  2  0  0  0  0  0  0
  186.8910  176.9430  142.4950 C   0  0  0  0  0  0  0  0  0  0  0  0
  190.8590  175.7850  143.1680 C   0  0  0  0  0  0  0  0  0  0  0  0
  188.7520  173.1790  138.8680 C   0  0  2  0  0  3  0  0  0  0  0  0
  192.1010  172.5000  141.9970 C   0  0  0  0  0  2  0  0  0  0  0  0
  189.2210  177.5460  143.3450 C   0  0  0  0  0  0  0  0  0  0  0  0
  190.8950  174.3040  142.9040 C   0  0  2  0  0  3  0  0  0  0  0  0
  190.0680  170.9730  139.1370 C   0  0  0  0  0  0  0  0  0  0  0  0
  189.5860  176.2420  143.0510 C   0  0  0  0  0  0  0  0  0  0  0  0
  191.8260  173.9240  141.8230 N   0  0  1  0  0  0  0  0  0  0  0  0
  190.2270  178.4340  143.7580 C   0  0  0  0  0  3  0  0  0  0  0  0
  189.5130  172.0420  138.3580 N   0  0  0  0  0  2  0  0  0  0  0  0
  188.6810  175.2530  142.6430 N   0  0  0  0  0  0  0  0  0  0  0  0
  187.0610  177.2490  141.0150 C   0  0  0  0  0  1  0  0  0  0  0  0
  193.3490  176.2270  143.5250 C   0  0  0  0  0  2  0  0  0  0  0  0
  191.5660  177.9900  143.8390 C   0  0  0  0  0  3  0  0  0  0  0  0
  187.2410  175.4620  142.7570 C   0  0  0  0  0  2  0  0  0  0  0  0
  190.4660  171.1390  140.5730 C   0  0  1  0  0  3  0  0  0  0  0  0
  191.8470  171.7960  140.6760 C   0  0  0  0  0  2  0  0  0  0  0  0
  191.8970  176.6500  143.5510 C   0  0  0  0  0  0  0  0  0  0  0  0
  189.3860  173.9740  142.6070 C   0  0  1  0  0  3  0  0  0  0  0  0
  187.7620  177.9160  143.3280 C   0  0  0  0  0  2  0  0  0  0  0  0
  193.0910  174.6930  141.8960 C   0  0  1  0  0  3  0  0  0  0  0  0
  185.4400  177.1650  142.8610 C   0  0  0  0  0  1  0  0  0  0  0  0
  189.3470  171.6940  141.4680 C   0  0  0  0  0  2  0  0  0  0  0  0
  190.3280  169.8800  138.5680 O   0  0  0  0  0  0  0  0  0  0  0  0
  189.0430  173.1900  141.3330 C   0  0  2  0  0  3  0  0  0  0  0  0
  193.5290  174.8610  143.2240 O   0  0  0  0  0  0  0  0  0  0  0  0
  195.2720  173.5230  141.5110 C   0  0  0  0  0  3  0  0  0  0  0  0
  194.1720  174.2010  140.9740 C   0  0  0  0  0  0  0  0  0  0  0  0
  194.1190  174.4520  139.5950 C   0  0  0  0  0  3  0  0  0  0  0  0
  195.0800  174.3300  137.0420 Cl  0  0  0  0  0  0  0  0  0  0  0  0
  196.2460  173.3330  139.3030 C   0  0  0  0  0  3  0  0  0  0  0  0
  195.1520  174.0160  138.7620 C   0  0  0  0  0  0  0  0  0  0  0  0
  196.3050  173.0870  140.6770 C   0  0  0  0  0  3  0  0  0  0  0  0
  187.4450  174.9960  138.0410 O   0  0  0  0  0  1  0  0  0  0  0  0
  188.5320  174.1740  137.7440 C   0  0  0  0  0  2  0  0  0  0  0  0
  2 17  1  0  0  0  0
  2 24  1  0  0  0  0
  2 22  1  0  0  0  0
  3 20  1  0  0  0  0
  4 37  1  6  0  0  0
  4  1  1  0  0  0  0
  6 11  2  0  0  0  0
  7  3  1  6  0  0  0
  8 18  1  0  0  0  0
  9  3  2  0  0  0  0
  9  6  1  0  0  0  0
 10 23  1  0  0  0  0
 10  5  1  1  0  0  0
 10  7  1  0  0  0  0
 11 16  1  0  0  0  0
 12  4  1  0  0  0  0
 12  8  1  0  0  0  0
 13 17  1  0  0  0  0
 13  9  1  0  0  0  0
 14  2  1  0  0  0  0
 15 20  1  0  0  0  0
 18 19  1  6  0  0  0
 18 25  1  0  0  0  0
 19  5  1  0  0  0  0
 20 16  2  0  0  0  0
 21 13  1  6  0  0  0
 21  7  1  0  0  0  0
 22  6  1  0  0  0  0
 23 30  1  6  0  0  0
 23 28  1  0  0  0  0
 26  8  2  0  0  0  0
 27  1  1  6  0  0  0
 27 25  1  0  0  0  0
 27 21  1  0  0  0  0
 28 15  1  0  0  0  0
 30 29  1  0  0  0  0
 31 30  2  0  0  0  0
 32 34  1  0  0  0  0
 33 35  1  0  0  0  0
 34 33  2  0  0  0  0
 34 31  1  0  0  0  0
 35 29  2  0  0  0  0
 37 36  1  0  0  0  0
M  END
>  <MODEL>
4

>  <REMARK>
 VINA RESULT:      -7.1      2.288      3.116
  Name = 
  2 active torsions:
  status: ('A' for Active; 'I' for Inactive)
    1  A    between atoms: CA_4  and  C_37
    2  A    between atoms: C_23  and  C_30
                            x       y       z     vdW  Elec       q    Type
                         _______ _______ _______ _____ _____    ______ ____

>  <TORSDO>
F 2

$$$$
=
 OpenBabel11112417203D

 37 43  0  0  1  0  0  0  0  0999 V2000
  191.7640  172.6430  142.2120 C   0  0  0  0  0  2  0  0  0  0  0  0
  196.3270  172.7730  141.0150 C   0  0  0  0  0  0  0  0  0  0  0  0
  194.1490  175.6350  143.1580 C   0  0  0  0  0  0  0  0  0  0  0  0
  190.9930  171.4260  141.7300 C   0  0  2  0  0  3  0  0  0  0  0  0
  190.4790  175.9140  142.7620 C   0  0  0  0  0  2  0  0  0  0  0  0
  196.2950  174.5990  142.7970 C   0  0  0  0  0  0  0  0  0  0  0  0
  192.8040  175.7030  142.4850 C   0  0  2  0  0  3  0  0  0  0  0  0
  188.7900  172.7430  141.4430 C   0  0  0  0  0  0  0  0  0  0  0  0
  194.9600  174.7840  142.4800 C   0  0  0  0  0  0  0  0  0  0  0  0
  191.6820  175.3660  143.3830 N   0  0  1  0  0  0  0  0  0  0  0  0
  196.8180  175.3130  143.8880 C   0  0  0  0  0  3  0  0  0  0  0  0
  189.5520  171.6100  141.8820 N   0  0  0  0  0  2  0  0  0  0  0  0
  194.3180  174.1470  141.4110 N   0  0  0  0  0  0  0  0  0  0  0  0
  195.8920  171.5790  141.8500 C   0  0  0  0  0  1  0  0  0  0  0  0
  193.7160  177.1670  145.1550 C   0  0  0  0  0  2  0  0  0  0  0  0
  195.9780  176.1680  144.6360 C   0  0  0  0  0  3  0  0  0  0  0  0
  195.0860  173.4430  140.3880 C   0  0  0  0  0  2  0  0  0  0  0  0
  189.3800  174.1140  141.3100 C   0  0  1  0  0  3  0  0  0  0  0  0
  189.4390  174.8110  142.6740 C   0  0  0  0  0  2  0  0  0  0  0  0
  194.6270  176.3450  144.2720 C   0  0  0  0  0  0  0  0  0  0  0  0
  192.9820  174.7190  141.2710 C   0  0  1  0  0  3  0  0  0  0  0  0
  197.1480  173.7480  141.8940 C   0  0  0  0  0  2  0  0  0  0  0  0
  191.8640  175.9560  144.7310 C   0  0  1  0  0  3  0  0  0  0  0  0
  197.2160  172.2690  139.8990 C   0  0  0  0  0  1  0  0  0  0  0  0
  190.6390  174.1650  140.4310 C   0  0  0  0  0  2  0  0  0  0  0  0
  187.5510  172.6060  141.2610 O   0  0  0  0  0  0  0  0  0  0  0  0
  191.9300  173.6230  141.0540 C   0  0  2  0  0  3  0  0  0  0  0  0
  192.3960  177.2590  144.6670 O   0  0  0  0  0  0  0  0  0  0  0  0
  190.4480  174.6730  146.3500 C   0  0  0  0  0  3  0  0  0  0  0  0
  190.6600  175.8510  145.6250 C   0  0  0  0  0  0  0  0  0  0  0  0
  189.7240  176.8930  145.7050 C   0  0  0  0  0  3  0  0  0  0  0  0
  187.4300  178.0620  146.6140 Cl  0  0  0  0  0  0  0  0  0  0  0  0
  188.3900  175.5830  147.2440 C   0  0  0  0  0  3  0  0  0  0  0  0
  188.5930  176.7590  146.5150 C   0  0  0  0  0  0  0  0  0  0  0  0
  189.3170  174.5410  147.1600 C   0  0  0  0  0  3  0  0  0  0  0  0
  190.8180  169.0590  141.9770 O   0  0  0  0  0  1  0  0  0  0  0  0
  191.4220  170.1970  142.5100 C   0  0  0  0  0  2  0  0  0  0  0  0
  2 14  1  0  0  0  0
  2 22  1  0  0  0  0
  3 20  1  0  0  0  0
  4 12  1  0  0  0  0
  4  1  1  0  0  0  0
  4 37  1  1  0  0  0
  6 11  2  0  0  0  0
  7  3  1  1  0  0  0
  7 10  1  0  0  0  0
  8 12  1  0  0  0  0
  9  6  1  0  0  0  0
  9  3  2  0  0  0  0
 10  5  1  6  0  0  0
 10 23  1  0  0  0  0
 11 16  1  0  0  0  0
 13  9  1  0  0  0  0
 17  2  1  0  0  0  0
 17 13  1  0  0  0  0
 18 25  1  1  0  0  0
 18  8  1  0  0  0  0
 18 19  1  0  0  0  0
 19  5  1  0  0  0  0
 20 16  2  0  0  0  0
 20 15  1  0  0  0  0
 21 13  1  1  0  0  0
 21  7  1  0  0  0  0
 22  6  1  0  0  0  0
 23 30  1  6  0  0  0
 24  2  1  0  0  0  0
 26  8  2  0  0  0  0
 27 25  1  1  0  0  0
 27 21  1  0  0  0  0
 27  1  1  0  0  0  0
 28 23  1  0  0  0  0
 28 15  1  0  0  0  0
 29 35  1  0  0  0  0
 30 31  1  0  0  0  0
 30 29  2  0  0  0  0
 31 34  2  0  0  0  0
 34 32  1  0  0  0  0
 34 33  1  0  0  0  0
 35 33  2  0  0  0  0
 36 37  1  0  0  0  0
M  END
>  <MODEL>
5

>  <REMARK>
 VINA RESULT:      -6.9      2.737      6.357
  Name = 
  2 active torsions:
  status: ('A' for Active; 'I' for Inactive)
    1  A    between atoms: CA_4  and  C_37
    2  A    between atoms: C_23  and  C_30
                            x       y       z     vdW  Elec       q    Type
                         _______ _______ _______ _____ _____    ______ ____

>  <TORSDO>
F 2

$$$$
=
 OpenBabel11112417203D

 37 43  0  0  1  0  0  0  0  0999 V2000
  188.1090  176.3990  142.6110 C   0  0  0  0  0  2  0  0  0  0  0  0
  185.5270  178.2520  146.1010 C   0  0  0  0  0  0  0  0  0  0  0  0
  189.3100  176.4750  146.3650 C   0  0  0  0  0  0  0  0  0  0  0  0
  187.4680  176.4270  141.2350 C   0  0  2  0  0  3  0  0  0  0  0  0
  190.4220  173.9970  143.8500 C   0  0  0  0  0  2  0  0  0  0  0  0
  187.7960  178.1230  147.2630 C   0  0  0  0  0  0  0  0  0  0  0  0
  189.2640  175.2930  145.4330 C   0  0  2  0  0  3  0  0  0  0  0  0
  188.5840  174.2170  140.5000 C   0  0  0  0  0  0  0  0  0  0  0  0
  188.0930  177.0740  146.4080 C   0  0  0  0  0  0  0  0  0  0  0  0
  190.2700  175.3590  144.3560 N   0  0  1  0  0  0  0  0  0  0  0  0
  188.8170  178.5960  148.1020 C   0  0  0  0  0  3  0  0  0  0  0  0
  188.1920  175.5810  140.2900 N   0  0  0  0  0  2  0  0  0  0  0  0
  187.1640  176.4980  145.5310 N   0  0  0  0  0  0  0  0  0  0  0  0
  185.8690  179.1910  144.9550 C   0  0  0  0  0  1  0  0  0  0  0  0
  191.7760  176.4160  147.0260 C   0  0  0  0  0  2  0  0  0  0  0  0
  190.1050  178.0180  148.0380 C   0  0  0  0  0  3  0  0  0  0  0  0
  185.7390  176.7910  145.6500 C   0  0  0  0  0  2  0  0  0  0  0  0
  188.8460  173.6500  141.8620 C   0  0  1  0  0  3  0  0  0  0  0  0
  190.2530  174.0220  142.3410 C   0  0  0  0  0  2  0  0  0  0  0  0
  190.3640  176.9390  147.1690 C   0  0  0  0  0  0  0  0  0  0  0  0
  187.7730  175.3130  144.9330 C   0  0  1  0  0  3  0  0  0  0  0  0
  186.3770  178.6200  147.3430 C   0  0  0  0  0  2  0  0  0  0  0  0
  191.5740  175.8570  144.8540 C   0  0  1  0  0  3  0  0  0  0  0  0
  184.0660  178.4400  146.4470 C   0  0  0  0  0  1  0  0  0  0  0  0
  187.6840  173.8460  142.8500 C   0  0  0  0  0  2  0  0  0  0  0  0
  188.8210  173.4930  139.4970 O   0  0  0  0  0  0  0  0  0  0  0  0
  187.5060  175.2560  143.4230 C   0  0  2  0  0  3  0  0  0  0  0  0
  191.8850  175.3370  146.1250 O   0  0  0  0  0  0  0  0  0  0  0  0
  192.7080  176.5390  142.7270 C   0  0  0  0  0  3  0  0  0  0  0  0
  192.7050  175.7320  143.8700 C   0  0  0  0  0  0  0  0  0  0  0  0
  193.7280  174.7910  144.0580 C   0  0  0  0  0  3  0  0  0  0  0  0
  196.0250  173.4940  143.3520 Cl  0  0  0  0  0  0  0  0  0  0  0  0
  194.7530  175.4820  141.9750 C   0  0  0  0  0  3  0  0  0  0  0  0
  194.7510  174.6690  143.1130 C   0  0  0  0  0  0  0  0  0  0  0  0
  193.7310  176.4160  141.7830 C   0  0  0  0  0  3  0  0  0  0  0  0
  186.1610  178.1560  140.2350 O   0  0  0  0  0  1  0  0  0  0  0  0
  187.4370  177.8490  140.7050 C   0  0  0  0  0  2  0  0  0  0  0  0
  2 24  1  0  0  0  0
  2 22  1  0  0  0  0
  3  9  2  0  0  0  0
  3 20  1  0  0  0  0
  4 37  1  6  0  0  0
  4  1  1  0  0  0  0
  6 22  1  0  0  0  0
  6 11  2  0  0  0  0
  7  3  1  1  0  0  0
  8 18  1  0  0  0  0
  9  6  1  0  0  0  0
 10  5  1  1  0  0  0
 10 23  1  0  0  0  0
 10  7  1  0  0  0  0
 12  8  1  0  0  0  0
 12  4  1  0  0  0  0
 13 17  1  0  0  0  0
 13  9  1  0  0  0  0
 14  2  1  0  0  0  0
 15 20  1  0  0  0  0
 16 11  1  0  0  0  0
 17  2  1  0  0  0  0
 18 19  1  1  0  0  0
 18 25  1  0  0  0  0
 19  5  1  0  0  0  0
 20 16  2  0  0  0  0
 21  7  1  0  0  0  0
 21 13  1  6  0  0  0
 23 30  1  6  0  0  0
 23 28  1  0  0  0  0
 25 27  1  0  0  0  0
 26  8  2  0  0  0  0
 27  1  1  6  0  0  0
 27 21  1  0  0  0  0
 28 15  1  0  0  0  0
 29 30  1  0  0  0  0
 30 31  2  0  0  0  0
 33 34  2  0  0  0  0
 34 32  1  0  0  0  0
 34 31  1  0  0  0  0
 35 33  1  0  0  0  0
 35 29  2  0  0  0  0
 36 37  1  0  0  0  0
M  END
>  <MODEL>
6

>  <REMARK>
 VINA RESULT:      -6.9      2.955      4.527
  Name = 
  2 active torsions:
  status: ('A' for Active; 'I' for Inactive)
    1  A    between atoms: CA_4  and  C_37
    2  A    between atoms: C_23  and  C_30
                            x       y       z     vdW  Elec       q    Type
                         _______ _______ _______ _____ _____    ______ ____

>  <TORSDO>
F 2

$$$$
=
 OpenBabel11112417203D

 37 43  0  0  1  0  0  0  0  0999 V2000
  192.8020  172.4960  141.3610 C   0  0  0  0  0  2  0  0  0  0  0  0
  189.7000  172.4860  137.8030 C   0  0  0  0  0  0  0  0  0  0  0  0
  189.1340  173.8990  141.7040 C   0  0  0  0  0  0  0  0  0  0  0  0
  194.1560  171.8810  141.0530 C   0  0  2  0  0  3  0  0  0  0  0  0
  191.1530  172.5790  144.5120 C   0  0  0  0  0  2  0  0  0  0  0  0
  188.5480  174.1320  139.3770 C   0  0  0  0  0  0  0  0  0  0  0  0
  189.8310  172.9060  142.5960 C   0  0  2  0  0  3  0  0  0  0  0  0
  194.4750  170.9970  143.4590 C   0  0  0  0  0  0  0  0  0  0  0  0
  189.1960  173.4810  140.4150 C   0  0  0  0  0  0  0  0  0  0  0  0
  190.9080  173.5040  143.4090 N   0  0  1  0  0  0  0  0  0  0  0  0
  187.8170  175.2910  139.6820 C   0  0  0  0  0  3  0  0  0  0  0  0
  194.9320  171.6570  142.2700 N   0  0  0  0  0  2  0  0  0  0  0  0
  189.9450  172.3090  140.2510 N   0  0  0  0  0  0  0  0  0  0  0  0
  191.0020  173.2290  137.5500 C   0  0  0  0  0  1  0  0  0  0  0  0
  188.4880  175.6630  143.4350 C   0  0  0  0  0  2  0  0  0  0  0  0
  187.7800  175.7700  141.0110 C   0  0  0  0  0  3  0  0  0  0  0  0
  189.8740  171.5410  139.0120 C   0  0  0  0  0  2  0  0  0  0  0  0
  193.0330  170.9650  143.8650 C   0  0  1  0  0  3  0  0  0  0  0  0
  192.6400  172.2720  144.5620 C   0  0  0  0  0  2  0  0  0  0  0  0
  188.4360  175.0700  142.0440 C   0  0  0  0  0  0  0  0  0  0  0  0
  190.3170  171.8140  141.5740 C   0  0  1  0  0  3  0  0  0  0  0  0
  188.5530  173.5070  138.0080 C   0  0  0  0  0  2  0  0  0  0  0  0
  190.5180  174.8300  143.9430 C   0  0  1  0  0  3  0  0  0  0  0  0
  189.3860  171.6510  136.5810 C   0  0  0  0  0  1  0  0  0  0  0  0
  192.0920  170.4310  142.7720 C   0  0  0  0  0  2  0  0  0  0  0  0
  195.3280  170.5130  144.2480 O   0  0  0  0  0  0  0  0  0  0  0  0
  191.7890  171.3810  141.6080 C   0  0  2  0  0  3  0  0  0  0  0  0
  189.1740  174.8540  144.3640 O   0  0  0  0  0  0  0  0  0  0  0  0
  191.0890  175.4180  146.3100 C   0  0  0  0  0  3  0  0  0  0  0  0
  191.4680  175.3940  144.9630 C   0  0  0  0  0  0  0  0  0  0  0  0
  192.7030  175.9370  144.5810 C   0  0  0  0  0  3  0  0  0  0  0  0
  195.0960  177.1630  145.0610 Cl  0  0  0  0  0  0  0  0  0  0  0  0
  193.1750  176.5030  146.8880 C   0  0  0  0  0  3  0  0  0  0  0  0
  193.5550  176.4880  145.5420 C   0  0  0  0  0  0  0  0  0  0  0  0
  191.9420  175.9680  147.2700 C   0  0  0  0  0  3  0  0  0  0  0  0
  195.1720  174.0180  140.7420 O   0  0  0  0  0  1  0  0  0  0  0  0
  194.9390  172.7900  140.1240 C   0  0  0  0  0  2  0  0  0  0  0  0
  2 22  1  0  0  0  0
  2 17  1  0  0  0  0
  3 20  1  0  0  0  0
  4 37  1  6  0  0  0
  4  1  1  0  0  0  0
  4 12  1  0  0  0  0
  5 19  1  0  0  0  0
  6 11  2  0  0  0  0
  6  9  1  0  0  0  0
  7  3  1  6  0  0  0
  7 10  1  0  0  0  0
  8 18  1  0  0  0  0
  8 26  2  0  0  0  0
  9  3  2  0  0  0  0
 10 23  1  0  0  0  0
 10  5  1  1  0  0  0
 11 16  1  0  0  0  0
 12  8  1  0  0  0  0
 13  9  1  0  0  0  0
 14  2  1  0  0  0  0
 15 28  1  0  0  0  0
 16 20  2  0  0  0  0
 17 13  1  0  0  0  0
 18 25  1  6  0  0  0
 18 19  1  0  0  0  0
 20 15  1  0  0  0  0
 21 13  1  6  0  0  0
 21 27  1  0  0  0  0
 21  7  1  0  0  0  0
 22  6  1  0  0  0  0
 23 28  1  0  0  0  0
 23 30  1  1  0  0  0
 24  2  1  0  0  0  0
 27  1  1  1  0  0  0
 27 25  1  0  0  0  0
 29 35  1  0  0  0  0
 30 29  2  0  0  0  0
 31 30  1  0  0  0  0
 31 34  2  0  0  0  0
 32 34  1  0  0  0  0
 33 35  2  0  0  0  0
 34 33  1  0  0  0  0
 37 36  1  0  0  0  0
M  END
>  <MODEL>
7

>  <REMARK>
 VINA RESULT:      -6.8      2.437      6.762
  Name = 
  2 active torsions:
  status: ('A' for Active; 'I' for Inactive)
    1  A    between atoms: CA_4  and  C_37
    2  A    between atoms: C_23  and  C_30
                            x       y       z     vdW  Elec       q    Type
                         _______ _______ _______ _____ _____    ______ ____

>  <TORSDO>
F 2

$$$$
=
 OpenBabel11112417203D

 37 43  0  0  1  0  0  0  0  0999 V2000
  193.8250  174.2630  142.1950 C   0  0  0  0  0  2  0  0  0  0  0  0
  193.5520  171.4600  138.4070 C   0  0  0  0  0  0  0  0  0  0  0  0
  190.4890  172.4900  141.0700 C   0  0  0  0  0  0  0  0  0  0  0  0
  195.2020  174.8290  142.4950 C   0  0  2  0  0  3  0  0  0  0  0  0
  191.2580  173.5160  144.5420 C   0  0  0  0  0  2  0  0  0  0  0  0
  191.0680  171.8880  138.8080 C   0  0  0  0  0  0  0  0  0  0  0  0
  191.1240  172.4830  142.4350 C   0  0  2  0  0  3  0  0  0  0  0  0
  194.8210  174.8190  145.0490 C   0  0  0  0  0  0  0  0  0  0  0  0
  191.3920  172.0870  140.1400 C   0  0  0  0  0  0  0  0  0  0  0  0
  191.0480  173.7860  143.1220 N   0  0  1  0  0  0  0  0  0  0  0  0
  189.7470  172.1400  138.4070 C   0  0  0  0  0  3  0  0  0  0  0  0
  195.2570  175.4270  143.8250 N   0  0  0  0  0  2  0  0  0  0  0  0
  192.6670  171.8590  140.6740 N   0  0  0  0  0  0  0  0  0  0  0  0
  194.0290  172.8800  138.1510 C   0  0  0  0  0  1  0  0  0  0  0  0
  188.1770  173.3940  141.6680 C   0  0  0  0  0  2  0  0  0  0  0  0
  188.8030  172.6060  139.3500 C   0  0  0  0  0  3  0  0  0  0  0  0
  193.6810  171.1370  139.9120 C   0  0  0  0  0  2  0  0  0  0  0  0
  193.7440  173.7770  145.0970 C   0  0  1  0  0  3  0  0  0  0  0  0
  192.3590  174.4310  145.0480 C   0  0  0  0  0  2  0  0  0  0  0  0
  189.1640  172.7790  140.7020 C   0  0  0  0  0  0  0  0  0  0  0  0
  192.5870  171.9940  142.1260 C   0  0  1  0  0  3  0  0  0  0  0  0
  192.1030  171.2980  137.8870 C   0  0  0  0  0  2  0  0  0  0  0  0
  189.7300  174.4340  142.9240 C   0  0  1  0  0  3  0  0  0  0  0  0
  194.4470  170.5140  137.6360 C   0  0  0  0  0  1  0  0  0  0  0  0
  193.9970  172.5790  144.1680 C   0  0  0  0  0  2  0  0  0  0  0  0
  195.2870  175.2460  146.1380 O   0  0  0  0  0  0  0  0  0  0  0  0
  193.7640  172.8140  142.6710 C   0  0  2  0  0  3  0  0  0  0  0  0
  188.6730  173.5040  142.9830 O   0  0  0  0  0  0  0  0  0  0  0  0
  190.2840  176.7880  143.5750 C   0  0  0  0  0  3  0  0  0  0  0  0
  189.4980  175.6490  143.7790 C   0  0  0  0  0  0  0  0  0  0  0  0
  188.5420  175.6400  144.8050 C   0  0  0  0  0  3  0  0  0  0  0  0
  187.1720  176.7550  146.8880 Cl  0  0  0  0  0  0  0  0  0  0  0  0
  189.1510  177.9080  145.3980 C   0  0  0  0  0  3  0  0  0  0  0  0
  188.3670  176.7690  145.6110 C   0  0  0  0  0  0  0  0  0  0  0  0
  190.1090  177.9160  144.3810 C   0  0  0  0  0  3  0  0  0  0  0  0
  196.4720  176.7910  142.0060 O   0  0  0  0  0  1  0  0  0  0  0  0
  195.5660  175.8800  141.4620 C   0  0  0  0  0  2  0  0  0  0  0  0
  1  4  1  0  0  0  0
  2 17  1  0  0  0  0
  4 37  1  6  0  0  0
  4 12  1  0  0  0  0
  5 19  1  0  0  0  0
  6  9  1  0  0  0  0
  7  3  1  6  0  0  0
  7 10  1  0  0  0  0
  8 18  1  0  0  0  0
  8 26  2  0  0  0  0
  9 13  1  0  0  0  0
  9  3  2  0  0  0  0
 10  5  1  1  0  0  0
 11  6  2  0  0  0  0
 11 16  1  0  0  0  0
 12  8  1  0  0  0  0
 14  2  1  0  0  0  0
 15 28  1  0  0  0  0
 16 20  2  0  0  0  0
 17 13  1  0  0  0  0
 18 25  1  6  0  0  0
 19 18  1  0  0  0  0
 20  3  1  0  0  0  0
 20 15  1  0  0  0  0
 21 13  1  6  0  0  0
 21  7  1  0  0  0  0
 21 27  1  0  0  0  0
 22  2  1  0  0  0  0
 22  6  1  0  0  0  0
 23 28  1  0  0  0  0
 23 10  1  0  0  0  0
 23 30  1  1  0  0  0
 24  2  1  0  0  0  0
 27  1  1  1  0  0  0
 27 25  1  0  0  0  0
 29 30  2  0  0  0  0
 29 35  1  0  0  0  0
 30 31  1  0  0  0  0
 31 34  2  0  0  0  0
 33 34  1  0  0  0  0
 34 32  1  0  0  0  0
 35 33  2  0  0  0  0
 37 36  1  0  0  0  0
M  END
>  <MODEL>
8

>  <REMARK>
 VINA RESULT:      -6.8      2.794      7.540
  Name = 
  2 active torsions:
  status: ('A' for Active; 'I' for Inactive)
    1  A    between atoms: CA_4  and  C_37
    2  A    between atoms: C_23  and  C_30
                            x       y       z     vdW  Elec       q    Type
                         _______ _______ _______ _____ _____    ______ ____

>  <TORSDO>
F 2

$$$$
=
 OpenBabel11112417203D

 37 43  0  0  1  0  0  0  0  0999 V2000
  192.4050  172.0220  142.3770 C   0  0  0  0  0  2  0  0  0  0  0  0
  196.9800  170.8930  142.1160 C   0  0  0  0  0  0  0  0  0  0  0  0
  195.2440  174.1450  144.1020 C   0  0  0  0  0  0  0  0  0  0  0  0
  191.4580  171.1080  141.6190 C   0  0  2  0  0  3  0  0  0  0  0  0
  191.9660  175.4910  143.0320 C   0  0  0  0  0  2  0  0  0  0  0  0
  197.0540  172.5530  144.0530 C   0  0  0  0  0  0  0  0  0  0  0  0
  194.1490  174.6330  143.1920 C   0  0  2  0  0  3  0  0  0  0  0  0
  189.8130  173.0180  141.0580 C   0  0  0  0  0  0  0  0  0  0  0  0
  195.9220  173.1320  143.5040 C   0  0  0  0  0  0  0  0  0  0  0  0
  192.8100  174.5880  143.8100 N   0  0  1  0  0  0  0  0  0  0  0  0
  197.4980  173.0270  145.2980 C   0  0  0  0  0  3  0  0  0  0  0  0
  190.1250  171.6910  141.5070 N   0  0  0  0  0  2  0  0  0  0  0  0
  195.3820  172.7650  142.2650 N   0  0  0  0  0  0  0  0  0  0  0  0
  196.0650  169.8330  142.7100 C   0  0  0  0  0  1  0  0  0  0  0  0
  194.8140  175.6270  146.1370 C   0  0  0  0  0  2  0  0  0  0  0  0
  196.7780  174.0470  145.9600 C   0  0  0  0  0  3  0  0  0  0  0  0
  196.1350  171.9250  141.3390 C   0  0  0  0  0  2  0  0  0  0  0  0
  190.7670  174.1660  141.1990 C   0  0  1  0  0  3  0  0  0  0  0  0
  190.7120  174.7420  142.6180 C   0  0  0  0  0  2  0  0  0  0  0  0
  195.6400  174.6260  145.3610 C   0  0  0  0  0  0  0  0  0  0  0  0
  194.3160  173.7060  141.9320 C   0  0  1  0  0  3  0  0  0  0  0  0
  197.8210  171.5410  143.2440 C   0  0  0  0  0  2  0  0  0  0  0  0
  192.8440  175.0270  145.2250 C   0  0  1  0  0  3  0  0  0  0  0  0
  197.9220  170.2140  141.1460 C   0  0  0  0  0  1  0  0  0  0  0  0
  192.1540  173.8970  140.5940 C   0  0  0  0  0  2  0  0  0  0  0  0
  188.6550  173.2540  140.6230 O   0  0  0  0  0  0  0  0  0  0  0  0
  193.0810  172.9730  141.3920 C   0  0  2  0  0  3  0  0  0  0  0  0
  193.7090  176.1220  145.4140 O   0  0  0  0  0  0  0  0  0  0  0  0
  190.5920  174.1550  145.8890 C   0  0  0  0  0  3  0  0  0  0  0  0
  191.4910  175.2270  145.8490 C   0  0  0  0  0  0  0  0  0  0  0  0
  191.1000  176.4780  146.3460 C   0  0  0  0  0  3  0  0  0  0  0  0
  189.3420  178.2130  147.5100 Cl  0  0  0  0  0  0  0  0  0  0  0  0
  188.9320  175.5740  146.9330 C   0  0  0  0  0  3  0  0  0  0  0  0
  189.8240  176.6500  146.8890 C   0  0  0  0  0  0  0  0  0  0  0  0
  189.3160  174.3280  146.4320 C   0  0  0  0  0  3  0  0  0  0  0  0
  192.3470  169.6660  143.3010 O   0  0  0  0  0  1  0  0  0  0  0  0
  191.3570  169.7680  142.3230 C   0  0  0  0  0  2  0  0  0  0  0  0
  2 14  1  0  0  0  0
  2 22  1  0  0  0  0
  3 20  1  0  0  0  0
  4 37  1  1  0  0  0
  4  1  1  0  0  0  0
  6 11  2  0  0  0  0
  7 10  1  0  0  0  0
  7  3  1  1  0  0  0
  8 18  1  0  0  0  0
  8 12  1  0  0  0  0
  9  6  1  0  0  0  0
  9  3  2  0  0  0  0
 10  5  1  6  0  0  0
 10 23  1  0  0  0  0
 11 16  1  0  0  0  0
 12  4  1  0  0  0  0
 13  9  1  0  0  0  0
 17  2  1  0  0  0  0
 17 13  1  0  0  0  0
 18 25  1  1  0  0  0
 18 19  1  0  0  0  0
 19  5  1  0  0  0  0
 20 16  2  0  0  0  0
 20 15  1  0  0  0  0
 21 13  1  1  0  0  0
 21  7  1  0  0  0  0
 22  6  1  0  0  0  0
 23 28  1  0  0  0  0
 23 30  1  6  0  0  0
 24  2  1  0  0  0  0
 26  8  2  0  0  0  0
 27 25  1  1  0  0  0
 27 21  1  0  0  0  0
 27  1  1  0  0  0  0
 28 15  1  0  0  0  0
 29 35  1  0  0  0  0
 30 29  2  0  0  0  0
 30 31  1  0  0  0  0
 31 34  2  0  0  0  0
 34 33  1  0  0  0  0
 34 32  1  0  0  0  0
 35 33  2  0  0  0  0
 37 36  1  0  0  0  0
M  END
>  <MODEL>
9

>  <REMARK>
 VINA RESULT:      -6.7      2.882      6.348
  Name = 
  2 active torsions:
  status: ('A' for Active; 'I' for Inactive)
    1  A    between atoms: CA_4  and  C_37
    2  A    between atoms: C_23  and  C_30
                            x       y       z     vdW  Elec       q    Type
                         _______ _______ _______ _____ _____    ______ ____

>  <TORSDO>
F 2

$$$$
