=
 OpenBabel11112416113D

 30 35  0  0  1  0  0  0  0  0999 V2000
  188.7350  176.1700  143.9600 C   0  0  0  0  0  0  0  0  0  0  0  0
  186.3110  176.7630  144.2530 C   0  0  0  0  0  0  0  0  0  0  0  0
  189.6300  177.4490  147.7820 N   0  0  0  0  0  2  0  0  0  0  0  0
  190.0280  176.0490  144.5400 C   0  0  0  0  0  0  0  0  0  0  0  0
  188.5860  175.9480  142.4770 C   0  0  0  0  0  2  0  0  0  0  0  0
  191.7310  174.1970  141.8700 O   0  0  0  0  0  0  0  0  0  0  0  0
  193.2970  176.4620  144.8820 C   0  0  1  0  0  3  0  0  0  0  0  0
  190.8590  174.8790  142.4720 C   0  0  0  0  0  0  0  0  0  0  0  0
  192.7070  176.1230  146.2620 C   0  0  2  0  0  3  0  0  0  0  0  0
  190.9560  177.1770  147.7180 C   0  0  0  0  0  0  0  0  0  0  0  0
  189.5240  174.9580  141.9610 N   0  0  0  0  0  0  0  0  0  0  0  0
  191.2110  175.5350  143.7770 C   0  0  1  0  0  3  0  0  0  0  0  0
  185.2950  177.2820  145.0620 C   0  0  0  0  0  3  0  0  0  0  0  0
  192.7920  174.6230  146.4100 C   0  0  0  0  0  2  0  0  0  0  0  0
  194.2590  175.3150  144.5860 C   0  0  0  0  0  2  0  0  0  0  0  0
  185.9650  176.3390  142.9760 O   0  0  0  0  0  1  0  0  0  0  0  0
  189.1860  177.0260  146.5810 C   0  0  0  0  0  0  0  0  0  0  0  0
  185.5630  177.7090  146.3610 C   0  0  0  0  0  3  0  0  0  0  0  0
  187.6410  176.6680  144.7450 C   0  0  0  0  0  0  0  0  0  0  0  0
  190.2110  176.5130  145.8430 C   0  0  0  0  0  0  0  0  0  0  0  0
  191.7430  177.4110  148.6730 O   0  0  0  0  0  0  0  0  0  0  0  0
  191.3560  176.6270  146.5470 N   0  0  0  0  0  0  0  0  0  0  0  0
  194.0300  174.2310  145.6310 C   0  0  0  0  0  2  0  0  0  0  0  0
  192.9370  176.7070  142.4990 O   0  0  0  0  0  1  0  0  0  0  0  0
  186.8550  177.6210  146.8720 C   0  0  0  0  0  3  0  0  0  0  0  0
  187.8880  177.1030  146.0840 C   0  0  0  0  0  0  0  0  0  0  0  0
  192.2850  176.6280  143.7340 C   0  0  2  0  0  3  0  0  0  0  0  0
  189.1370  174.1790  140.7900 C   0  0  0  0  0  2  0  0  0  0  0  0
  188.6190  172.3330  142.3850 C   0  0  0  0  0  1  0  0  0  0  0  0
  188.1320  173.1030  141.1730 C   0  0  0  0  0  2  0  0  0  0  0  0
  1  4  2  0  0  0  0
  1 19  1  0  0  0  0
  2 19  2  0  0  0  0
  2 13  1  0  0  0  0
  4 20  1  0  0  0  0
  5  1  1  0  0  0  0
  6  8  2  0  0  0  0
  7 15  1  6  0  0  0
  7  9  1  0  0  0  0
  9 14  1  6  0  0  0
  9 22  1  0  0  0  0
 10  3  1  0  0  0  0
 10 21  2  0  0  0  0
 11  8  1  0  0  0  0
 11  5  1  0  0  0  0
 12  8  1  6  0  0  0
 12  4  1  0  0  0  0
 13 18  2  0  0  0  0
 15 23  1  0  0  0  0
 16  2  1  0  0  0  0
 17  3  1  0  0  0  0
 18 25  1  0  0  0  0
 19 26  1  0  0  0  0
 20 22  1  0  0  0  0
 20 17  2  0  0  0  0
 22 10  1  0  0  0  0
 23 14  1  0  0  0  0
 26 17  1  0  0  0  0
 26 25  2  0  0  0  0
 27 24  1  6  0  0  0
 27 12  1  0  0  0  0
 27  7  1  0  0  0  0
 28 30  1  0  0  0  0
 28 11  1  0  0  0  0
 30 29  1  0  0  0  0
M  END
>  <MODEL>
1

>  <REMARK>
 VINA RESULT:      -8.3      0.000      0.000
  Name = 
  2 active torsions:
  status: ('A' for Active; 'I' for Inactive)
    1  A    between atoms: N_11  and  C_28
    2  A    between atoms: C_28  and  C_30
                            x       y       z     vdW  Elec       q    Type
                         _______ _______ _______ _____ _____    ______ ____

>  <TORSDO>
F 2

$$$$
=
 OpenBabel11112416113D

 30 35  0  0  1  0  0  0  0  0999 V2000
  187.0630  176.9380  142.6360 C   0  0  0  0  0  0  0  0  0  0  0  0
  185.0740  177.6640  141.2840 C   0  0  0  0  0  0  0  0  0  0  0  0
  185.4480  178.5310  146.0850 N   0  0  0  0  0  2  0  0  0  0  0  0
  187.6760  176.8150  143.9130 C   0  0  0  0  0  0  0  0  0  0  0  0
  187.8690  176.5830  141.4130 C   0  0  0  0  0  2  0  0  0  0  0  0
  190.5010  174.6440  143.0370 O   0  0  0  0  0  0  0  0  0  0  0  0
  190.0070  177.1120  146.2490 C   0  0  1  0  0  3  0  0  0  0  0  0
  189.5150  175.4180  142.9100 C   0  0  0  0  0  0  0  0  0  0  0  0
  188.6470  176.9320  146.9450 C   0  0  2  0  0  3  0  0  0  0  0  0
  186.4810  178.1960  146.8970 C   0  0  0  0  0  0  0  0  0  0  0  0
  188.8220  175.5080  141.6600 N   0  0  0  0  0  0  0  0  0  0  0  0
  189.0200  176.1790  144.1080 C   0  0  1  0  0  3  0  0  0  0  0  0
  183.8310  178.3010  141.2330 C   0  0  0  0  0  3  0  0  0  0  0  0
  188.4770  175.4500  147.1800 C   0  0  0  0  0  2  0  0  0  0  0  0
  190.8250  175.9000  146.6870 C   0  0  0  0  0  2  0  0  0  0  0  0
  185.5780  177.1360  140.1020 O   0  0  0  0  0  1  0  0  0  0  0  0
  185.8290  178.0170  144.8980 C   0  0  0  0  0  0  0  0  0  0  0  0
  183.2530  178.8370  142.3820 C   0  0  0  0  0  3  0  0  0  0  0  0
  185.7730  177.5560  142.5170 C   0  0  0  0  0  0  0  0  0  0  0  0
  187.0350  177.3920  145.0100 C   0  0  0  0  0  0  0  0  0  0  0  0
  186.5010  178.4840  148.1220 O   0  0  0  0  0  0  0  0  0  0  0  0
  187.4780  177.5200  146.2780 N   0  0  0  0  0  0  0  0  0  0  0  0
  189.8840  174.9320  147.3920 C   0  0  0  0  0  2  0  0  0  0  0  0
  191.2660  177.1460  144.1790 O   0  0  0  0  0  1  0  0  0  0  0  0
  183.9120  178.7390  143.6040 C   0  0  0  0  0  3  0  0  0  0  0  0
  185.1550  178.1040  143.6830 C   0  0  0  0  0  0  0  0  0  0  0  0
  189.9740  177.2140  144.7130 C   0  0  2  0  0  3  0  0  0  0  0  0
  189.1940  174.6400  140.5490 C   0  0  0  0  0  2  0  0  0  0  0  0
  188.2530  172.7590  139.2070 C   0  0  0  0  0  1  0  0  0  0  0  0
  188.4060  173.3400  140.6000 C   0  0  0  0  0  2  0  0  0  0  0  0
  1  4  1  0  0  0  0
  2 19  1  0  0  0  0
  3 10  1  0  0  0  0
  4 12  1  0  0  0  0
  4 20  2  0  0  0  0
  5 11  1  0  0  0  0
  5  1  1  0  0  0  0
  7 15  1  6  0  0  0
  7  9  1  0  0  0  0
  8  6  2  0  0  0  0
  9 14  1  6  0  0  0
 10 21  2  0  0  0  0
 11  8  1  0  0  0  0
 12  8  1  6  0  0  0
 12 27  1  0  0  0  0
 13  2  2  0  0  0  0
 13 18  1  0  0  0  0
 14 23  1  0  0  0  0
 15 23  1  0  0  0  0
 16  2  1  0  0  0  0
 17 20  1  0  0  0  0
 17  3  1  0  0  0  0
 18 25  2  0  0  0  0
 19  1  2  0  0  0  0
 19 26  1  0  0  0  0
 20 22  1  0  0  0  0
 22 10  1  0  0  0  0
 22  9  1  0  0  0  0
 25 26  1  0  0  0  0
 26 17  2  0  0  0  0
 27 24  1  6  0  0  0
 27  7  1  0  0  0  0
 28 30  1  0  0  0  0
 28 11  1  0  0  0  0
 29 30  1  0  0  0  0
M  END
>  <MODEL>
2

>  <REMARK>
 VINA RESULT:      -8.2      2.295      3.445
  Name = 
  2 active torsions:
  status: ('A' for Active; 'I' for Inactive)
    1  A    between atoms: N_11  and  C_28
    2  A    between atoms: C_28  and  C_30
                            x       y       z     vdW  Elec       q    Type
                         _______ _______ _______ _____ _____    ______ ____

>  <TORSDO>
F 2

$$$$
=
 OpenBabel11112416113D

 30 35  0  0  1  0  0  0  0  0999 V2000
  188.5930  174.9560  141.4200 C   0  0  0  0  0  0  0  0  0  0  0  0
  188.1910  174.5410  138.9750 C   0  0  0  0  0  0  0  0  0  0  0  0
  186.1610  178.2910  141.3720 N   0  0  0  0  0  2  0  0  0  0  0  0
  188.2810  175.7100  142.5840 C   0  0  0  0  0  0  0  0  0  0  0  0
  189.7100  173.9470  141.4920 C   0  0  0  0  0  2  0  0  0  0  0  0
  189.9330  173.6390  145.1230 O   0  0  0  0  0  0  0  0  0  0  0  0
  188.8030  177.5570  145.2850 C   0  0  1  0  0  3  0  0  0  0  0  0
  189.6020  174.0990  143.9970 C   0  0  0  0  0  0  0  0  0  0  0  0
  187.3560  177.7880  144.8150 C   0  0  2  0  0  3  0  0  0  0  0  0
  186.3250  178.6090  142.6800 C   0  0  0  0  0  0  0  0  0  0  0  0
  189.8270  173.3310  142.8090 N   0  0  0  0  0  0  0  0  0  0  0  0
  188.8900  175.4200  143.9230 C   0  0  1  0  0  3  0  0  0  0  0  0
  187.5770  174.9280  137.7800 C   0  0  0  0  0  3  0  0  0  0  0  0
  186.4980  176.7910  145.5560 C   0  0  0  0  0  2  0  0  0  0  0  0
  188.6600  176.9510  146.6780 C   0  0  0  0  0  2  0  0  0  0  0  0
  188.9970  173.4080  138.9480 O   0  0  0  0  0  1  0  0  0  0  0  0
  186.8840  177.1600  141.2520 C   0  0  0  0  0  0  0  0  0  0  0  0
  186.7400  176.0410  137.7350 C   0  0  0  0  0  3  0  0  0  0  0  0
  187.9740  175.2830  140.1670 C   0  0  0  0  0  0  0  0  0  0  0  0
  187.4430  176.8170  142.4470 C   0  0  0  0  0  0  0  0  0  0  0  0
  185.7780  179.6130  143.2070 O   0  0  0  0  0  0  0  0  0  0  0  0
  187.1160  177.7490  143.3660 N   0  0  0  0  0  0  0  0  0  0  0  0
  187.1920  176.6060  146.8890 C   0  0  0  0  0  2  0  0  0  0  0  0
  190.8770  176.3320  145.0220 O   0  0  0  0  0  1  0  0  0  0  0  0
  186.5030  176.7830  138.8890 C   0  0  0  0  0  3  0  0  0  0  0  0
  187.1030  176.4140  140.0970 C   0  0  0  0  0  0  0  0  0  0  0  0
  189.6700  176.6540  144.3890 C   0  0  2  0  0  3  0  0  0  0  0  0
  190.3580  171.9760  142.8980 C   0  0  0  0  0  2  0  0  0  0  0  0
  190.8160  169.8670  141.6460 C   0  0  0  0  0  1  0  0  0  0  0  0
  190.2530  171.2730  141.5530 C   0  0  0  0  0  2  0  0  0  0  0  0
  1  5  1  0  0  0  0
  1  4  1  0  0  0  0
  2 19  1  0  0  0  0
  3 10  1  0  0  0  0
  5 11  1  0  0  0  0
  7 15  1  1  0  0  0
  8  6  2  0  0  0  0
  9  7  1  0  0  0  0
  9 14  1  1  0  0  0
 10 21  2  0  0  0  0
 10 22  1  0  0  0  0
 11 28  1  0  0  0  0
 11  8  1  0  0  0  0
 12  4  1  6  0  0  0
 12  8  1  0  0  0  0
 12 27  1  0  0  0  0
 13  2  2  0  0  0  0
 14 23  1  0  0  0  0
 15 23  1  0  0  0  0
 16  2  1  0  0  0  0
 17  3  1  0  0  0  0
 17 20  1  0  0  0  0
 18 13  1  0  0  0  0
 18 25  2  0  0  0  0
 19  1  2  0  0  0  0
 20  4  2  0  0  0  0
 20 22  1  0  0  0  0
 22  9  1  0  0  0  0
 25 26  1  0  0  0  0
 26 19  1  0  0  0  0
 26 17  2  0  0  0  0
 27 24  1  1  0  0  0
 27  7  1  0  0  0  0
 30 29  1  0  0  0  0
 30 28  1  0  0  0  0
M  END
>  <MODEL>
3

>  <REMARK>
 VINA RESULT:      -7.8      2.812      5.422
  Name = 
  2 active torsions:
  status: ('A' for Active; 'I' for Inactive)
    1  A    between atoms: N_11  and  C_28
    2  A    between atoms: C_28  and  C_30
                            x       y       z     vdW  Elec       q    Type
                         _______ _______ _______ _____ _____    ______ ____

>  <TORSDO>
F 2

$$$$
=
 OpenBabel11112416113D

 30 35  0  0  1  0  0  0  0  0999 V2000
  188.2530  176.2400  144.7640 C   0  0  0  0  0  0  0  0  0  0  0  0
  186.8340  178.1940  145.4600 C   0  0  0  0  0  0  0  0  0  0  0  0
  187.0970  176.6550  140.8230 N   0  0  0  0  0  2  0  0  0  0  0  0
  188.7740  175.4400  143.7100 C   0  0  0  0  0  0  0  0  0  0  0  0
  188.5140  175.8180  146.1870 C   0  0  0  0  0  2  0  0  0  0  0  0
  191.2890  173.5250  145.5740 O   0  0  0  0  0  0  0  0  0  0  0  0
  189.5010  172.6970  142.0010 C   0  0  1  0  0  3  0  0  0  0  0  0
  190.3050  174.2760  145.3350 C   0  0  0  0  0  0  0  0  0  0  0  0
  189.5140  173.8890  141.0280 C   0  0  2  0  0  3  0  0  0  0  0  0
  187.8170  175.6080  140.3500 C   0  0  0  0  0  0  0  0  0  0  0  0
  189.8030  175.1550  146.3480 N   0  0  0  0  0  0  0  0  0  0  0  0
  189.7210  174.3020  143.9510 C   0  0  1  0  0  3  0  0  0  0  0  0
  185.9390  179.2080  145.1070 C   0  0  0  0  0  3  0  0  0  0  0  0
  190.9360  174.3960  140.9880 C   0  0  0  0  0  2  0  0  0  0  0  0
  190.9290  172.1600  141.9670 C   0  0  0  0  0  2  0  0  0  0  0  0
  187.2020  178.0940  146.7960 O   0  0  0  0  0  1  0  0  0  0  0  0
  187.4230  176.6680  142.1310 C   0  0  0  0  0  0  0  0  0  0  0  0
  185.5400  179.3820  143.7840 C   0  0  0  0  0  3  0  0  0  0  0  0
  187.3510  177.3170  144.4670 C   0  0  0  0  0  0  0  0  0  0  0  0
  188.3110  175.6740  142.4150 C   0  0  0  0  0  0  0  0  0  0  0  0
  187.8040  175.2680  139.1370 O   0  0  0  0  0  0  0  0  0  0  0  0
  188.5540  174.9700  141.2900 N   0  0  0  0  0  0  0  0  0  0  0  0
  191.7880  173.1640  141.2090 C   0  0  0  0  0  2  0  0  0  0  0  0
  189.3170  171.9130  144.2860 O   0  0  0  0  0  1  0  0  0  0  0  0
  186.0360  178.5430  142.7900 C   0  0  0  0  0  3  0  0  0  0  0  0
  186.9350  177.5230  143.1160 C   0  0  0  0  0  0  0  0  0  0  0  0
  189.0750  173.0070  143.4470 C   0  0  2  0  0  3  0  0  0  0  0  0
  190.4800  175.2560  147.6360 C   0  0  0  0  0  2  0  0  0  0  0  0
  192.6190  176.4170  147.0880 C   0  0  0  0  0  1  0  0  0  0  0  0
  191.2530  176.5620  147.7320 C   0  0  0  0  0  2  0  0  0  0  0  0
  1  5  1  0  0  0  0
  2 16  1  0  0  0  0
  3 17  1  0  0  0  0
  4  1  2  0  0  0  0
  5 11  1  0  0  0  0
  7 15  1  1  0  0  0
  7 27  1  0  0  0  0
  8  6  2  0  0  0  0
  8 11  1  0  0  0  0
  9 14  1  1  0  0  0
  9 22  1  0  0  0  0
  9  7  1  0  0  0  0
 10  3  1  0  0  0  0
 10 22  1  0  0  0  0
 11 28  1  0  0  0  0
 12  4  1  1  0  0  0
 12  8  1  0  0  0  0
 13  2  1  0  0  0  0
 14 23  1  0  0  0  0
 17 20  2  0  0  0  0
 17 26  1  0  0  0  0
 18 13  2  0  0  0  0
 19  1  1  0  0  0  0
 19  2  2  0  0  0  0
 20  4  1  0  0  0  0
 21 10  2  0  0  0  0
 22 20  1  0  0  0  0
 23 15  1  0  0  0  0
 25 26  2  0  0  0  0
 25 18  1  0  0  0  0
 26 19  1  0  0  0  0
 27 12  1  0  0  0  0
 27 24  1  1  0  0  0
 28 30  1  0  0  0  0
 29 30  1  0  0  0  0
M  END
>  <MODEL>
4

>  <REMARK>
 VINA RESULT:      -7.8      2.352      5.283
  Name = 
  2 active torsions:
  status: ('A' for Active; 'I' for Inactive)
    1  A    between atoms: N_11  and  C_28
    2  A    between atoms: C_28  and  C_30
                            x       y       z     vdW  Elec       q    Type
                         _______ _______ _______ _____ _____    ______ ____

>  <TORSDO>
F 2

$$$$
=
 OpenBabel11112416113D

 30 35  0  0  1  0  0  0  0  0999 V2000
  187.6320  176.6810  142.6470 C   0  0  0  0  0  0  0  0  0  0  0  0
  185.9120  178.4980  142.8790 C   0  0  0  0  0  0  0  0  0  0  0  0
  188.3860  176.7160  146.7060 N   0  0  0  0  0  2  0  0  0  0  0  0
  188.5260  175.7750  143.2820 C   0  0  0  0  0  0  0  0  0  0  0  0
  187.6510  176.7780  141.1440 C   0  0  0  0  0  2  0  0  0  0  0  0
  189.3910  173.6510  140.4180 O   0  0  0  0  0  0  0  0  0  0  0  0
  191.3740  174.2160  143.9390 C   0  0  1  0  0  3  0  0  0  0  0  0
  188.9380  174.6220  141.0830 C   0  0  0  0  0  0  0  0  0  0  0  0
  190.4620  174.0940  145.1730 C   0  0  2  0  0  3  0  0  0  0  0  0
  189.3390  175.7530  146.6840 C   0  0  0  0  0  0  0  0  0  0  0  0
  187.9750  175.5080  140.5030 N   0  0  0  0  0  0  0  0  0  0  0  0
  189.3540  174.7860  142.5170 C   0  0  1  0  0  3  0  0  0  0  0  0
  185.2160  179.3890  143.7020 C   0  0  0  0  0  3  0  0  0  0  0  0
  189.6920  172.8050  145.0130 C   0  0  0  0  0  2  0  0  0  0  0  0
  191.5940  172.7760  143.4830 C   0  0  0  0  0  2  0  0  0  0  0  0
  185.6230  178.5140  141.5200 O   0  0  0  0  0  1  0  0  0  0  0  0
  188.0050  176.7800  145.4140 C   0  0  0  0  0  0  0  0  0  0  0  0
  185.4390  179.4160  145.0770 C   0  0  0  0  0  3  0  0  0  0  0  0
  186.8650  177.6030  143.4370 C   0  0  0  0  0  0  0  0  0  0  0  0
  188.6980  175.8790  144.6630 C   0  0  0  0  0  0  0  0  0  0  0  0
  189.9440  175.3730  147.7220 O   0  0  0  0  0  0  0  0  0  0  0  0
  189.5750  175.2310  145.4570 N   0  0  0  0  0  0  0  0  0  0  0  0
  190.6340  171.8870  144.2620 C   0  0  0  0  0  2  0  0  0  0  0  0
  191.6320  174.9300  141.6390 O   0  0  0  0  0  1  0  0  0  0  0  0
  186.3610  178.5460  145.6510 C   0  0  0  0  0  3  0  0  0  0  0  0
  187.0680  177.6420  144.8510 C   0  0  0  0  0  0  0  0  0  0  0  0
  190.8360  175.0740  142.7800 C   0  0  2  0  0  3  0  0  0  0  0  0
  187.4410  175.2460  139.1710 C   0  0  0  0  0  2  0  0  0  0  0  0
  186.3180  176.2650  137.1900 C   0  0  0  0  0  1  0  0  0  0  0  0
  186.6950  176.4630  138.6460 C   0  0  0  0  0  2  0  0  0  0  0  0
  1  4  2  0  0  0  0
  1 19  1  0  0  0  0
  2 19  2  0  0  0  0
  2 13  1  0  0  0  0
  4 20  1  0  0  0  0
  5  1  1  0  0  0  0
  6  8  2  0  0  0  0
  7 15  1  6  0  0  0
  7  9  1  0  0  0  0
  9 14  1  6  0  0  0
  9 22  1  0  0  0  0
 10  3  1  0  0  0  0
 10 21  2  0  0  0  0
 11  8  1  0  0  0  0
 11  5  1  0  0  0  0
 12  8  1  6  0  0  0
 12 27  1  0  0  0  0
 12  4  1  0  0  0  0
 13 18  2  0  0  0  0
 15 23  1  0  0  0  0
 16  2  1  0  0  0  0
 17  3  1  0  0  0  0
 18 25  1  0  0  0  0
 19 26  1  0  0  0  0
 20 17  2  0  0  0  0
 20 22  1  0  0  0  0
 22 10  1  0  0  0  0
 23 14  1  0  0  0  0
 26 17  1  0  0  0  0
 26 25  2  0  0  0  0
 27 24  1  6  0  0  0
 27  7  1  0  0  0  0
 28 11  1  0  0  0  0
 29 30  1  0  0  0  0
 30 28  1  0  0  0  0
M  END
>  <MODEL>
5

>  <REMARK>
 VINA RESULT:      -7.7      2.202      2.885
  Name = 
  2 active torsions:
  status: ('A' for Active; 'I' for Inactive)
    1  A    between atoms: N_11  and  C_28
    2  A    between atoms: C_28  and  C_30
                            x       y       z     vdW  Elec       q    Type
                         _______ _______ _______ _____ _____    ______ ____

>  <TORSDO>
F 2

$$$$
=
 OpenBabel11112416113D

 30 35  0  0  1  0  0  0  0  0999 V2000
  186.5410  177.4090  144.0530 C   0  0  0  0  0  0  0  0  0  0  0  0
  184.6820  178.6410  145.2100 C   0  0  0  0  0  0  0  0  0  0  0  0
  187.9230  175.8930  147.6360 N   0  0  0  0  0  2  0  0  0  0  0  0
  187.6230  176.4900  144.1460 C   0  0  0  0  0  0  0  0  0  0  0  0
  186.3100  178.1200  142.7450 C   0  0  0  0  0  2  0  0  0  0  0  0
  188.2600  175.9230  140.5770 O   0  0  0  0  0  0  0  0  0  0  0  0
  190.7000  175.3150  143.7910 C   0  0  1  0  0  3  0  0  0  0  0  0
  187.8100  176.4380  141.6360 C   0  0  0  0  0  0  0  0  0  0  0  0
  190.0160  174.5390  144.9310 C   0  0  2  0  0  3  0  0  0  0  0  0
  188.9660  175.2050  147.1100 C   0  0  0  0  0  0  0  0  0  0  0  0
  186.6710  177.3050  141.5910 N   0  0  0  0  0  0  0  0  0  0  0  0
  188.4270  176.0650  142.9540 C   0  0  1  0  0  3  0  0  0  0  0  0
  184.0290  178.9780  146.3990 C   0  0  0  0  0  3  0  0  0  0  0  0
  189.3840  173.3200  144.3030 C   0  0  0  0  0  2  0  0  0  0  0  0
  191.0090  174.2540  142.7380 C   0  0  0  0  0  2  0  0  0  0  0  0
  184.1800  179.1670  144.0260 O   0  0  0  0  0  1  0  0  0  0  0  0
  187.3360  176.4180  146.5420 C   0  0  0  0  0  0  0  0  0  0  0  0
  184.4630  178.4720  147.6220 C   0  0  0  0  0  3  0  0  0  0  0  0
  185.8090  177.7750  145.2330 C   0  0  0  0  0  0  0  0  0  0  0  0
  188.0000  176.0420  145.4130 C   0  0  0  0  0  0  0  0  0  0  0  0
  189.7670  174.5410  147.8180 O   0  0  0  0  0  0  0  0  0  0  0  0
  189.0620  175.2860  145.7610 N   0  0  0  0  0  0  0  0  0  0  0  0
  190.2940  172.9720  143.1430 C   0  0  0  0  0  2  0  0  0  0  0  0
  190.5050  176.9490  142.0130 O   0  0  0  0  0  1  0  0  0  0  0  0
  185.5590  177.6160  147.6740 C   0  0  0  0  0  3  0  0  0  0  0  0
  186.2280  177.2610  146.4980 C   0  0  0  0  0  0  0  0  0  0  0  0
  189.8890  176.4690  143.1740 C   0  0  2  0  0  3  0  0  0  0  0  0
  185.9670  177.5290  140.3340 C   0  0  0  0  0  2  0  0  0  0  0  0
  183.5040  177.9180  140.4200 C   0  0  0  0  0  1  0  0  0  0  0  0
  184.8710  178.5680  140.5140 C   0  0  0  0  0  2  0  0  0  0  0  0
  1  4  2  0  0  0  0
  1 19  1  0  0  0  0
  2 19  2  0  0  0  0
  2 13  1  0  0  0  0
  4 20  1  0  0  0  0
  5  1  1  0  0  0  0
  6  8  2  0  0  0  0
  7 15  1  6  0  0  0
  7  9  1  0  0  0  0
  9 14  1  6  0  0  0
  9 22  1  0  0  0  0
 10  3  1  0  0  0  0
 10 21  2  0  0  0  0
 11  8  1  0  0  0  0
 11  5  1  0  0  0  0
 12  8  1  6  0  0  0
 12 27  1  0  0  0  0
 12  4  1  0  0  0  0
 13 18  2  0  0  0  0
 15 23  1  0  0  0  0
 16  2  1  0  0  0  0
 17  3  1  0  0  0  0
 18 25  1  0  0  0  0
 19 26  1  0  0  0  0
 20 22  1  0  0  0  0
 20 17  2  0  0  0  0
 22 10  1  0  0  0  0
 23 14  1  0  0  0  0
 26 17  1  0  0  0  0
 26 25  2  0  0  0  0
 27 24  1  6  0  0  0
 27  7  1  0  0  0  0
 28 30  1  0  0  0  0
 28 11  1  0  0  0  0
 29 30  1  0  0  0  0
M  END
>  <MODEL>
6

>  <REMARK>
 VINA RESULT:      -7.5      2.402      3.501
  Name = 
  2 active torsions:
  status: ('A' for Active; 'I' for Inactive)
    1  A    between atoms: N_11  and  C_28
    2  A    between atoms: C_28  and  C_30
                            x       y       z     vdW  Elec       q    Type
                         _______ _______ _______ _____ _____    ______ ____

>  <TORSDO>
F 2

$$$$
=
 OpenBabel11112416113D

 30 35  0  0  1  0  0  0  0  0999 V2000
  189.4070  175.6100  144.5130 C   0  0  0  0  0  0  0  0  0  0  0  0
  187.8170  177.4020  145.2720 C   0  0  0  0  0  0  0  0  0  0  0  0
  187.7310  175.5600  140.7410 N   0  0  0  0  0  2  0  0  0  0  0  0
  189.9060  174.8090  143.4490 C   0  0  0  0  0  0  0  0  0  0  0  0
  189.8980  175.3380  145.9110 C   0  0  0  0  0  2  0  0  0  0  0  0
  192.8780  173.4020  145.0750 O   0  0  0  0  0  0  0  0  0  0  0  0
  190.8060  172.0660  141.8230 C   0  0  1  0  0  3  0  0  0  0  0  0
  191.7740  173.9910  144.9230 C   0  0  0  0  0  0  0  0  0  0  0  0
  190.5280  173.1710  140.7880 C   0  0  2  0  0  3  0  0  0  0  0  0
  188.5310  174.5860  140.2390 C   0  0  0  0  0  0  0  0  0  0  0  0
  191.2790  174.8690  145.9400 N   0  0  0  0  0  0  0  0  0  0  0  0
  191.0280  173.8320  143.6290 C   0  0  1  0  0  3  0  0  0  0  0  0
  186.7490  178.2550  144.9810 C   0  0  0  0  0  3  0  0  0  0  0  0
  191.8460  173.8610  140.5320 C   0  0  0  0  0  2  0  0  0  0  0  0
  192.2810  171.7260  141.6330 C   0  0  0  0  0  2  0  0  0  0  0  0
  188.3560  177.4550  146.5520 O   0  0  0  0  0  1  0  0  0  0  0  0
  188.2090  175.7170  141.9910 C   0  0  0  0  0  0  0  0  0  0  0  0
  186.1700  178.2710  143.7140 C   0  0  0  0  0  3  0  0  0  0  0  0
  188.3300  176.5290  144.2740 C   0  0  0  0  0  0  0  0  0  0  0  0
  189.2590  174.8780  142.2140 C   0  0  0  0  0  0  0  0  0  0  0  0
  188.4190  174.1560  139.0610 O   0  0  0  0  0  0  0  0  0  0  0  0
  189.4610  174.1280  141.1110 N   0  0  0  0  0  0  0  0  0  0  0  0
  192.8880  172.7760  140.7110 C   0  0  0  0  0  2  0  0  0  0  0  0
  191.0160  171.4430  144.1550 O   0  0  0  0  0  1  0  0  0  0  0  0
  186.6570  177.4330  142.7150 C   0  0  0  0  0  3  0  0  0  0  0  0
  187.7270  176.5720  142.9800 C   0  0  0  0  0  0  0  0  0  0  0  0
  190.5190  172.4260  143.2920 C   0  0  2  0  0  3  0  0  0  0  0  0
  192.0860  175.1600  147.1190 C   0  0  0  0  0  2  0  0  0  0  0  0
  194.2120  176.3240  146.5270 C   0  0  0  0  0  1  0  0  0  0  0  0
  192.7750  176.5080  146.9760 C   0  0  0  0  0  2  0  0  0  0  0  0
  1  5  1  0  0  0  0
  2 16  1  0  0  0  0
  3 17  1  0  0  0  0
  4  1  2  0  0  0  0
  5 11  1  0  0  0  0
  7 15  1  1  0  0  0
  7 27  1  0  0  0  0
  8  6  2  0  0  0  0
  8 11  1  0  0  0  0
  9 14  1  1  0  0  0
  9 22  1  0  0  0  0
  9  7  1  0  0  0  0
 10  3  1  0  0  0  0
 10 22  1  0  0  0  0
 11 28  1  0  0  0  0
 12  4  1  1  0  0  0
 12  8  1  0  0  0  0
 13  2  1  0  0  0  0
 14 23  1  0  0  0  0
 17 20  2  0  0  0  0
 17 26  1  0  0  0  0
 18 13  2  0  0  0  0
 19  1  1  0  0  0  0
 19  2  2  0  0  0  0
 20  4  1  0  0  0  0
 21 10  2  0  0  0  0
 22 20  1  0  0  0  0
 23 15  1  0  0  0  0
 25 26  2  0  0  0  0
 25 18  1  0  0  0  0
 26 19  1  0  0  0  0
 27 12  1  0  0  0  0
 27 24  1  1  0  0  0
 29 30  1  0  0  0  0
 30 28  1  0  0  0  0
M  END
>  <MODEL>
7

>  <REMARK>
 VINA RESULT:      -7.4      2.200      5.305
  Name = 
  2 active torsions:
  status: ('A' for Active; 'I' for Inactive)
    1  A    between atoms: N_11  and  C_28
    2  A    between atoms: C_28  and  C_30
                            x       y       z     vdW  Elec       q    Type
                         _______ _______ _______ _____ _____    ______ ____

>  <TORSDO>
F 2

$$$$
=
 OpenBabel11112416113D

 30 35  0  0  1  0  0  0  0  0999 V2000
  188.0070  177.2700  144.3330 C   0  0  0  0  0  0  0  0  0  0  0  0
  185.7500  178.1560  144.9910 C   0  0  0  0  0  0  0  0  0  0  0  0
  189.4220  177.6810  148.1900 N   0  0  0  0  0  2  0  0  0  0  0  0
  189.3060  176.8530  144.7360 C   0  0  0  0  0  0  0  0  0  0  0  0
  187.7000  177.3470  142.8600 C   0  0  0  0  0  2  0  0  0  0  0  0
  190.4450  175.2850  141.6210 O   0  0  0  0  0  0  0  0  0  0  0  0
  192.6150  176.7020  144.7730 C   0  0  1  0  0  3  0  0  0  0  0  0
  189.7530  175.9690  142.4220 C   0  0  0  0  0  0  0  0  0  0  0  0
  192.0950  176.2100  146.1350 C   0  0  2  0  0  3  0  0  0  0  0  0
  190.6740  177.2300  147.9340 C   0  0  0  0  0  0  0  0  0  0  0  0
  188.4120  176.3390  142.0840 N   0  0  0  0  0  0  0  0  0  0  0  0
  190.3190  176.3160  143.7700 C   0  0  1  0  0  3  0  0  0  0  0  0
  184.9070  178.6640  145.9840 C   0  0  0  0  0  3  0  0  0  0  0  0
  191.9400  174.7120  146.0210 C   0  0  0  0  0  2  0  0  0  0  0  0
  193.3430  175.4970  144.1840 C   0  0  0  0  0  2  0  0  0  0  0  0
  185.2320  178.0280  143.7080 O   0  0  0  0  0  1  0  0  0  0  0  0
  188.8140  177.5560  146.9930 C   0  0  0  0  0  0  0  0  0  0  0  0
  185.3510  178.8030  147.2980 C   0  0  0  0  0  3  0  0  0  0  0  0
  187.0820  177.7750  145.3090 C   0  0  0  0  0  0  0  0  0  0  0  0
  189.6730  177.0390  146.0700 C   0  0  0  0  0  0  0  0  0  0  0  0
  191.5660  177.1650  148.8200 O   0  0  0  0  0  0  0  0  0  0  0  0
  190.8760  176.8490  146.6500 N   0  0  0  0  0  0  0  0  0  0  0  0
  193.0260  174.2880  145.0530 C   0  0  0  0  0  2  0  0  0  0  0  0
  192.1020  177.4290  142.5200 O   0  0  0  0  0  1  0  0  0  0  0  0
  186.6480  178.4300  147.6380 C   0  0  0  0  0  3  0  0  0  0  0  0
  187.5100  177.9160  146.6640 C   0  0  0  0  0  0  0  0  0  0  0  0
  191.5520  177.2250  143.7900 C   0  0  2  0  0  3  0  0  0  0  0  0
  187.8030  175.8530  140.8510 C   0  0  0  0  0  2  0  0  0  0  0  0
  186.6910  176.6980  138.7840 C   0  0  0  0  0  1  0  0  0  0  0  0
  186.8520  176.8940  140.2800 C   0  0  0  0  0  2  0  0  0  0  0  0
  1  4  2  0  0  0  0
  1 19  1  0  0  0  0
  2 19  2  0  0  0  0
  2 13  1  0  0  0  0
  4 20  1  0  0  0  0
  5  1  1  0  0  0  0
  6  8  2  0  0  0  0
  7 15  1  6  0  0  0
  7  9  1  0  0  0  0
  9 14  1  6  0  0  0
  9 22  1  0  0  0  0
 10  3  1  0  0  0  0
 10 21  2  0  0  0  0
 11  8  1  0  0  0  0
 11  5  1  0  0  0  0
 12  8  1  6  0  0  0
 12 27  1  0  0  0  0
 12  4  1  0  0  0  0
 13 18  2  0  0  0  0
 15 23  1  0  0  0  0
 16  2  1  0  0  0  0
 17  3  1  0  0  0  0
 18 25  1  0  0  0  0
 19 26  1  0  0  0  0
 20 22  1  0  0  0  0
 20 17  2  0  0  0  0
 22 10  1  0  0  0  0
 23 14  1  0  0  0  0
 26 17  1  0  0  0  0
 26 25  2  0  0  0  0
 27 24  1  6  0  0  0
 27  7  1  0  0  0  0
 28 11  1  0  0  0  0
 29 30  1  0  0  0  0
 30 28  1  0  0  0  0
M  END
>  <MODEL>
8

>  <REMARK>
 VINA RESULT:      -7.3      1.432      1.801
  Name = 
  2 active torsions:
  status: ('A' for Active; 'I' for Inactive)
    1  A    between atoms: N_11  and  C_28
    2  A    between atoms: C_28  and  C_30
                            x       y       z     vdW  Elec       q    Type
                         _______ _______ _______ _____ _____    ______ ____

>  <TORSDO>
F 2

$$$$
=
 OpenBabel11112416113D

 30 35  0  0  1  0  0  0  0  0999 V2000
  187.1850  177.2200  143.8410 C   0  0  0  0  0  0  0  0  0  0  0  0
  185.6810  177.8260  141.9220 C   0  0  0  0  0  0  0  0  0  0  0  0
  189.8060  175.2640  141.3220 N   0  0  0  0  0  2  0  0  0  0  0  0
  188.4090  176.6470  144.2830 C   0  0  0  0  0  0  0  0  0  0  0  0
  186.1740  177.6450  144.8750 C   0  0  0  0  0  2  0  0  0  0  0  0
  188.3770  177.7400  147.7850 O   0  0  0  0  0  0  0  0  0  0  0  0
  190.4400  174.6910  146.0230 C   0  0  1  0  0  3  0  0  0  0  0  0
  187.9810  177.4950  146.6130 C   0  0  0  0  0  0  0  0  0  0  0  0
  191.1670  175.1180  144.7370 C   0  0  2  0  0  3  0  0  0  0  0  0
  190.6730  174.8750  142.2890 C   0  0  0  0  0  0  0  0  0  0  0  0
  186.7950  178.1180  146.1070 N   0  0  0  0  0  0  0  0  0  0  0  0
  188.8130  176.6130  145.7260 C   0  0  1  0  0  3  0  0  0  0  0  0
  185.4090  177.7700  140.5520 C   0  0  0  0  0  3  0  0  0  0  0  0
  191.9400  176.3700  145.0750 C   0  0  0  0  0  2  0  0  0  0  0  0
  191.2910  175.2660  147.1530 C   0  0  0  0  0  2  0  0  0  0  0  0
  184.7760  178.5000  142.7330 O   0  0  0  0  0  1  0  0  0  0  0  0
  188.8930  175.9740  142.0150 C   0  0  0  0  0  0  0  0  0  0  0  0
  186.2800  177.1290  139.6740 C   0  0  0  0  0  3  0  0  0  0  0  0
  186.8570  177.2220  142.4440 C   0  0  0  0  0  0  0  0  0  0  0  0
  189.2180  176.0130  143.3380 C   0  0  0  0  0  0  0  0  0  0  0  0
  191.7020  174.1930  142.0420 O   0  0  0  0  0  0  0  0  0  0  0  0
  190.3410  175.2920  143.5340 N   0  0  0  0  0  0  0  0  0  0  0  0
  192.3160  176.2060  146.5330 C   0  0  0  0  0  2  0  0  0  0  0  0
  188.4930  174.9070  147.4500 O   0  0  0  0  0  1  0  0  0  0  0  0
  187.4430  176.5350  140.1560 C   0  0  0  0  0  3  0  0  0  0  0  0
  187.7410  176.5800  141.5220 C   0  0  0  0  0  0  0  0  0  0  0  0
  188.9770  175.1530  146.1600 C   0  0  2  0  0  3  0  0  0  0  0  0
  186.0850  179.1090  146.9070 C   0  0  0  0  0  2  0  0  0  0  0  0
  183.7040  178.7120  146.2790 C   0  0  0  0  0  1  0  0  0  0  0  0
  184.7450  178.5590  147.3710 C   0  0  0  0  0  2  0  0  0  0  0  0
  1  4  1  0  0  0  0
  1  5  1  0  0  0  0
  2 19  1  0  0  0  0
  2 16  1  0  0  0  0
  3 17  1  0  0  0  0
  3 10  1  0  0  0  0
  5 11  1  0  0  0  0
  7 27  1  0  0  0  0
  7 15  1  1  0  0  0
  8  6  2  0  0  0  0
  9 14  1  1  0  0  0
  9  7  1  0  0  0  0
 10 22  1  0  0  0  0
 11  8  1  0  0  0  0
 11 28  1  0  0  0  0
 12  4  1  6  0  0  0
 12 27  1  0  0  0  0
 12  8  1  0  0  0  0
 13  2  2  0  0  0  0
 14 23  1  0  0  0  0
 17 20  1  0  0  0  0
 18 25  2  0  0  0  0
 18 13  1  0  0  0  0
 19  1  2  0  0  0  0
 20 22  1  0  0  0  0
 20  4  2  0  0  0  0
 21 10  2  0  0  0  0
 22  9  1  0  0  0  0
 23 15  1  0  0  0  0
 25 26  1  0  0  0  0
 26 17  2  0  0  0  0
 26 19  1  0  0  0  0
 27 24  1  1  0  0  0
 28 30  1  0  0  0  0
 29 30  1  0  0  0  0
M  END
>  <MODEL>
9

>  <REMARK>
 VINA RESULT:      -7.3      2.078      5.266
  Name = 
  2 active torsions:
  status: ('A' for Active; 'I' for Inactive)
    1  A    between atoms: N_11  and  C_28
    2  A    between atoms: C_28  and  C_30
                            x       y       z     vdW  Elec       q    Type
                         _______ _______ _______ _____ _____    ______ ____

>  <TORSDO>
F 2

$$$$
