=
 OpenBabel11112417163D

 37 44  0  0  1  0  0  0  0  0999 V2000
  189.7060  173.9130  140.6410 C   0  0  0  0  0  2  0  0  0  0  0  0
  187.2500  176.7920  142.7910 C   0  0  0  0  0  0  0  0  0  0  0  0
  190.5680  175.5890  144.9680 N   0  0  0  0  0  0  0  0  0  0  0  0
  190.0460  172.9780  139.5850 N   0  0  0  0  0  0  0  0  0  0  0  0
  193.3160  174.2210  142.9850 O   0  0  0  0  0  0  0  0  0  0  0  0
  188.5930  177.0350  144.8700 C   0  0  0  0  0  0  0  0  0  0  0  0
  191.0800  174.6630  144.1150 C   0  0  0  0  0  0  0  0  0  0  0  0
  192.3360  173.8000  139.4820 C   0  0  0  0  0  0  0  0  0  0  0  0
  189.3360  175.8510  144.5130 C   0  0  0  0  0  0  0  0  0  0  0  0
  192.5120  174.0850  144.1640 C   0  0  2  0  0  3  0  0  0  0  0  0
  189.0390  177.8000  145.8640 C   0  0  0  0  0  3  0  0  0  0  0  0
  191.0920  173.5470  138.8960 O   0  0  0  0  0  0  0  0  0  0  0  0
  189.0020  175.1020  143.4320 C   0  0  0  0  0  0  0  0  0  0  0  0
  187.9890  177.6200  141.7540 C   0  0  0  0  0  1  0  0  0  0  0  0
  192.0430  175.6990  147.0050 C   0  0  0  0  0  2  0  0  0  0  0  0
  190.2430  177.3820  146.6830 C   0  0  0  0  0  2  0  0  0  0  0  0
  187.7210  175.3170  142.6810 C   0  0  0  0  0  2  0  0  0  0  0  0
  192.7750  173.2510  140.8170 C   0  0  1  0  0  3  0  0  0  0  0  0
  192.4950  174.2240  141.8470 C   0  0  1  0  0  3  0  0  0  0  0  0
  191.2510  176.4700  145.9350 C   0  0  2  0  0  3  0  0  0  0  0  0
  190.1080  174.3200  143.1490 C   0  0  0  0  0  0  0  0  0  0  0  0
  187.4720  177.3650  144.0970 O   0  0  0  0  0  0  0  0  0  0  0  0
  193.3050  174.4990  145.4030 C   0  0  1  0  0  3  0  0  0  0  0  0
  185.7710  176.8510  142.4750 C   0  0  0  0  0  1  0  0  0  0  0  0
  191.7270  172.9530  141.8400 N   0  0  1  0  0  0  0  0  0  0  0  0
  193.1660  174.4890  138.8340 O   0  0  0  0  0  0  0  0  0  0  0  0
  190.3290  173.4220  141.9360 C   0  0  2  0  0  3  0  0  0  0  0  0
  192.4690  174.3690  146.5870 N   0  0  0  0  0  2  0  0  0  0  0  0
  195.7790  174.3150  145.7040 C   0  0  0  0  0  3  0  0  0  0  0  0
  194.5440  173.6730  145.5580 C   0  0  0  0  0  0  0  0  0  0  0  0
  194.4870  172.2700  145.5510 C   0  0  0  0  0  3  0  0  0  0  0  0
  195.5960  170.0990  145.6830 N   0  0  0  0  0  1  0  0  0  0  0  0
  196.8880  172.1650  145.8360 C   0  0  0  0  0  3  0  0  0  0  0  0
  195.6570  171.5200  145.6900 C   0  0  0  0  0  0  0  0  0  0  0  0
  196.9500  173.5630  145.8430 C   0  0  0  0  0  3  0  0  0  0  0  0
  188.2560  174.3050  138.6140 C   0  0  0  0  0  1  0  0  0  0  0  0
  188.9180  172.9410  138.6710 C   0  0  0  0  0  2  0  0  0  0  0  0
  1 27  1  0  0  0  0
  2 22  1  0  0  0  0
  3 20  1  0  0  0  0
  4  1  1  0  0  0  0
  6 11  2  0  0  0  0
  7 10  1  0  0  0  0
  7  3  1  0  0  0  0
  9  6  1  0  0  0  0
  9  3  1  0  0  0  0
 10  5  1  6  0  0  0
 10 23  1  0  0  0  0
 11 16  1  0  0  0  0
 12  8  1  0  0  0  0
 12  4  1  0  0  0  0
 13  9  2  0  0  0  0
 14  2  1  0  0  0  0
 17  2  1  0  0  0  0
 17 13  1  0  0  0  0
 18  8  1  6  0  0  0
 18 25  1  0  0  0  0
 18 19  1  0  0  0  0
 19  5  1  1  0  0  0
 20 16  1  1  0  0  0
 20 15  1  0  0  0  0
 21 13  1  0  0  0  0
 21  7  2  0  0  0  0
 22  6  1  0  0  0  0
 23 30  1  1  0  0  0
 23 28  1  0  0  0  0
 24  2  1  0  0  0  0
 25 19  1  0  0  0  0
 25 27  1  0  0  0  0
 26  8  2  0  0  0  0
 27 21  1  0  0  0  0
 28 15  1  0  0  0  0
 29 35  1  0  0  0  0
 30 29  2  0  0  0  0
 31 30  1  0  0  0  0
 31 34  2  0  0  0  0
 32 34  1  0  0  0  0
 33 35  2  0  0  0  0
 34 33  1  0  0  0  0
 36 37  1  0  0  0  0
 37  4  1  0  0  0  0
M  END
>  <MODEL>
1

>  <REMARK>
 VINA RESULT:      -8.4      0.000      0.000
  Name = 
  2 active torsions:
  status: ('A' for Active; 'I' for Inactive)
    1  A    between atoms: N_4  and  C_37
    2  A    between atoms: C_23  and  C_30
                            x       y       z     vdW  Elec       q    Type
                         _______ _______ _______ _____ _____    ______ ____

>  <TORSDO>
F 2

$$$$
=
 OpenBabel11112417163D

 37 44  0  0  1  0  0  0  0  0999 V2000
  189.8330  175.6250  145.2480 C   0  0  0  0  0  2  0  0  0  0  0  0
  186.6640  178.0960  146.9160 C   0  0  0  0  0  0  0  0  0  0  0  0
  186.3400  177.6530  142.8060 N   0  0  0  0  0  0  0  0  0  0  0  0
  191.0790  174.8830  145.2420 N   0  0  0  0  0  0  0  0  0  0  0  0
  188.0530  174.7390  141.4170 O   0  0  0  0  0  0  0  0  0  0  0  0
  185.3610  178.5770  144.8530 C   0  0  0  0  0  0  0  0  0  0  0  0
  187.4680  176.9330  142.5620 C   0  0  0  0  0  0  0  0  0  0  0  0
  190.0850  173.0640  143.9620 C   0  0  0  0  0  0  0  0  0  0  0  0
  186.4710  178.1090  144.0590 C   0  0  0  0  0  0  0  0  0  0  0  0
  187.7690  176.1360  141.2740 C   0  0  2  0  0  3  0  0  0  0  0  0
  184.1870  178.7840  144.2600 C   0  0  0  0  0  3  0  0  0  0  0  0
  190.7330  173.5590  145.0990 O   0  0  0  0  0  0  0  0  0  0  0  0
  187.6540  177.7600  144.6270 C   0  0  0  0  0  0  0  0  0  0  0  0
  186.2780  176.6770  147.2950 C   0  0  0  0  0  1  0  0  0  0  0  0
  185.1580  178.0470  140.6190 C   0  0  0  0  0  2  0  0  0  0  0  0
  184.0410  178.6390  142.7580 C   0  0  0  0  0  2  0  0  0  0  0  0
  187.9610  178.0540  146.0650 C   0  0  0  0  0  2  0  0  0  0  0  0
  189.9340  173.8270  142.6690 C   0  0  1  0  0  3  0  0  0  0  0  0
  188.6570  174.5020  142.6620 C   0  0  1  0  0  3  0  0  0  0  0  0
  185.0440  177.6540  142.1020 C   0  0  2  0  0  3  0  0  0  0  0  0
  188.3250  177.0010  143.6840 C   0  0  0  0  0  0  0  0  0  0  0  0
  185.5550  178.7200  146.2330 O   0  0  0  0  0  0  0  0  0  0  0  0
  186.7540  176.3630  140.1540 C   0  0  1  0  0  3  0  0  0  0  0  0
  186.9470  178.8640  148.1900 C   0  0  0  0  0  1  0  0  0  0  0  0
  189.8940  175.3200  142.7280 N   0  0  1  0  0  0  0  0  0  0  0  0
  189.6430  171.8870  143.9990 O   0  0  0  0  0  0  0  0  0  0  0  0
  189.6230  176.2220  143.8670 C   0  0  2  0  0  3  0  0  0  0  0  0
  186.4670  177.7850  140.0330 N   0  0  0  0  0  2  0  0  0  0  0  0
  186.8630  176.4540  137.6580 C   0  0  0  0  0  3  0  0  0  0  0  0
  187.2550  175.8300  138.8480 C   0  0  0  0  0  0  0  0  0  0  0  0
  188.1020  174.7110  138.7980 C   0  0  0  0  0  3  0  0  0  0  0  0
  189.4090  173.0930  137.5200 N   0  0  0  0  0  1  0  0  0  0  0  0
  188.1580  174.8540  136.3820 C   0  0  0  0  0  3  0  0  0  0  0  0
  188.5510  174.2260  137.5670 C   0  0  0  0  0  0  0  0  0  0  0  0
  187.3140  175.9680  136.4270 C   0  0  0  0  0  3  0  0  0  0  0  0
  190.5880  175.4090  147.5620 C   0  0  0  0  0  1  0  0  0  0  0  0
  191.6620  175.0180  146.5650 C   0  0  0  0  0  2  0  0  0  0  0  0
  2 14  1  0  0  0  0
  2 24  1  0  0  0  0
  3  9  1  0  0  0  0
  4  1  1  0  0  0  0
  4 37  1  0  0  0  0
  6 22  1  0  0  0  0
  7  3  1  0  0  0  0
  7 21  2  0  0  0  0
  8 26  2  0  0  0  0
  8 12  1  0  0  0  0
  9 13  2  0  0  0  0
  9  6  1  0  0  0  0
 10  5  1  1  0  0  0
 10  7  1  0  0  0  0
 11  6  2  0  0  0  0
 12  4  1  0  0  0  0
 13 17  1  0  0  0  0
 16 11  1  0  0  0  0
 17  2  1  0  0  0  0
 18 25  1  0  0  0  0
 18  8  1  1  0  0  0
 19  5  1  6  0  0  0
 19 18  1  0  0  0  0
 19 25  1  0  0  0  0
 20 15  1  6  0  0  0
 20 16  1  0  0  0  0
 20  3  1  0  0  0  0
 21 27  1  0  0  0  0
 21 13  1  0  0  0  0
 22  2  1  0  0  0  0
 23 30  1  6  0  0  0
 23 10  1  0  0  0  0
 25 27  1  0  0  0  0
 27  1  1  0  0  0  0
 28 23  1  0  0  0  0
 28 15  1  0  0  0  0
 29 30  1  0  0  0  0
 31 30  2  0  0  0  0
 32 34  1  0  0  0  0
 33 35  1  0  0  0  0
 33 34  2  0  0  0  0
 34 31  1  0  0  0  0
 35 29  2  0  0  0  0
 37 36  1  0  0  0  0
M  END
>  <MODEL>
2

>  <REMARK>
 VINA RESULT:      -8.3      3.083      7.351
  Name = 
  2 active torsions:
  status: ('A' for Active; 'I' for Inactive)
    1  A    between atoms: N_4  and  C_37
    2  A    between atoms: C_23  and  C_30
                            x       y       z     vdW  Elec       q    Type
                         _______ _______ _______ _____ _____    ______ ____

>  <TORSDO>
F 2

$$$$
=
 OpenBabel11112417163D

 37 44  0  0  1  0  0  0  0  0999 V2000
  190.5780  175.1800  142.6480 C   0  0  0  0  0  2  0  0  0  0  0  0
  191.3980  176.4030  146.7430 C   0  0  0  0  0  0  0  0  0  0  0  0
  187.7830  177.8690  145.3370 N   0  0  0  0  0  0  0  0  0  0  0  0
  190.8640  174.6050  141.3470 N   0  0  0  0  0  0  0  0  0  0  0  0
  186.3480  176.0310  142.5230 O   0  0  0  0  0  0  0  0  0  0  0  0
  189.3260  177.6890  147.2310 C   0  0  0  0  0  0  0  0  0  0  0  0
  187.8320  177.4150  144.0560 C   0  0  0  0  0  0  0  0  0  0  0  0
  188.6880  173.5130  141.2590 C   0  0  0  0  0  0  0  0  0  0  0  0
  189.0210  177.7080  145.8210 C   0  0  0  0  0  0  0  0  0  0  0  0
  186.6340  177.3170  143.0870 C   0  0  2  0  0  3  0  0  0  0  0  0
  188.3890  178.0680  148.0970 C   0  0  0  0  0  3  0  0  0  0  0  0
  190.0860  173.4740  141.2520 O   0  0  0  0  0  0  0  0  0  0  0  0
  189.8890  177.2160  144.9000 C   0  0  0  0  0  0  0  0  0  0  0  0
  190.9850  174.9470  146.8570 C   0  0  0  0  0  1  0  0  0  0  0  0
  185.6340  179.1420  145.6490 C   0  0  0  0  0  2  0  0  0  0  0  0
  187.0620  178.6160  147.6130 C   0  0  0  0  0  2  0  0  0  0  0  0
  191.2960  176.8390  145.2560 C   0  0  0  0  0  2  0  0  0  0  0  0
  187.8710  174.7710  141.0980 C   0  0  1  0  0  3  0  0  0  0  0  0
  187.5350  175.2900  142.4040 C   0  0  1  0  0  3  0  0  0  0  0  0
  186.6220  178.1080  146.2150 C   0  0  2  0  0  3  0  0  0  0  0  0
  189.1520  177.0180  143.7450 C   0  0  0  0  0  0  0  0  0  0  0  0
  190.5760  177.1970  147.6260 O   0  0  0  0  0  0  0  0  0  0  0  0
  185.3540  177.9650  143.6150 C   0  0  1  0  0  3  0  0  0  0  0  0
  192.8420  176.5200  147.1810 C   0  0  0  0  0  1  0  0  0  0  0  0
  188.4680  176.0660  141.5480 N   0  0  1  0  0  0  0  0  0  0  0  0
  188.0670  172.4230  141.3570 O   0  0  0  0  0  0  0  0  0  0  0  0
  189.6000  176.3270  142.4620 C   0  0  2  0  0  3  0  0  0  0  0  0
  185.6660  179.2620  144.1960 N   0  0  0  0  0  2  0  0  0  0  0  0
  184.7230  177.9520  141.1970 C   0  0  0  0  0  3  0  0  0  0  0  0
  184.3340  178.1210  142.5310 C   0  0  0  0  0  0  0  0  0  0  0  0
  183.0010  178.4430  142.8300 C   0  0  0  0  0  3  0  0  0  0  0  0
  180.7180  178.9170  142.1060 N   0  0  0  0  0  1  0  0  0  0  0  0
  182.4610  178.4200  140.4700 C   0  0  0  0  0  3  0  0  0  0  0  0
  182.0680  178.5920  141.8000 C   0  0  0  0  0  0  0  0  0  0  0  0
  183.7880  178.1000  140.1680 C   0  0  0  0  0  3  0  0  0  0  0  0
  192.7400  174.1010  142.8070 C   0  0  0  0  0  1  0  0  0  0  0  0
  192.2450  174.1580  141.3740 C   0  0  0  0  0  2  0  0  0  0  0  0
  2 14  1  0  0  0  0
  2 24  1  0  0  0  0
  2 22  1  0  0  0  0
  3  9  1  0  0  0  0
  3 20  1  0  0  0  0
  4 37  1  0  0  0  0
  4  1  1  0  0  0  0
  6 22  1  0  0  0  0
  6 11  2  0  0  0  0
  7  3  1  0  0  0  0
  8 26  2  0  0  0  0
  9  6  1  0  0  0  0
 10  5  1  1  0  0  0
 10 23  1  0  0  0  0
 10  7  1  0  0  0  0
 12  8  1  0  0  0  0
 12  4  1  0  0  0  0
 13 17  1  0  0  0  0
 13  9  2  0  0  0  0
 16 11  1  0  0  0  0
 17  2  1  0  0  0  0
 18  8  1  1  0  0  0
 18 25  1  0  0  0  0
 18 19  1  0  0  0  0
 19  5  1  6  0  0  0
 20 15  1  6  0  0  0
 20 16  1  0  0  0  0
 21  7  2  0  0  0  0
 21 13  1  0  0  0  0
 23 30  1  6  0  0  0
 23 28  1  0  0  0  0
 25 19  1  0  0  0  0
 25 27  1  0  0  0  0
 27  1  1  0  0  0  0
 27 21  1  0  0  0  0
 28 15  1  0  0  0  0
 29 30  1  0  0  0  0
 30 31  2  0  0  0  0
 33 34  2  0  0  0  0
 34 32  1  0  0  0  0
 34 31  1  0  0  0  0
 35 33  1  0  0  0  0
 35 29  2  0  0  0  0
 37 36  1  0  0  0  0
M  END
>  <MODEL>
3

>  <REMARK>
 VINA RESULT:      -8.3      3.108      7.956
  Name = 
  2 active torsions:
  status: ('A' for Active; 'I' for Inactive)
    1  A    between atoms: N_4  and  C_37
    2  A    between atoms: C_23  and  C_30
                            x       y       z     vdW  Elec       q    Type
                         _______ _______ _______ _____ _____    ______ ____

>  <TORSDO>
F 2

$$$$
=
 OpenBabel11112417163D

 37 44  0  0  1  0  0  0  0  0999 V2000
  194.5950  173.9960  144.5750 C   0  0  0  0  0  2  0  0  0  0  0  0
  194.2320  172.2260  140.6170 C   0  0  0  0  0  0  0  0  0  0  0  0
  190.6790  173.9020  141.9430 N   0  0  0  0  0  0  0  0  0  0  0  0
  195.2250  174.2970  145.8470 N   0  0  0  0  0  0  0  0  0  0  0  0
  191.0340  176.4340  144.5550 O   0  0  0  0  0  0  0  0  0  0  0  0
  191.8580  172.7720  140.1180 C   0  0  0  0  0  0  0  0  0  0  0  0
  191.0570  174.2870  143.1920 C   0  0  0  0  0  0  0  0  0  0  0  0
  194.4880  176.6170  145.7560 C   0  0  0  0  0  0  0  0  0  0  0  0
  191.6520  173.0900  141.5090 C   0  0  0  0  0  0  0  0  0  0  0  0
  190.3050  175.2900  144.0930 C   0  0  2  0  0  3  0  0  0  0  0  0
  190.9190  173.1070  139.2340 C   0  0  0  0  0  3  0  0  0  0  0  0
  195.4930  175.6470  145.8280 O   0  0  0  0  0  0  0  0  0  0  0  0
  192.6230  172.8880  142.4350 C   0  0  0  0  0  0  0  0  0  0  0  0
  194.9840  173.5250  140.3850 C   0  0  0  0  0  1  0  0  0  0  0  0
  188.2630  174.5260  141.6150 C   0  0  0  0  0  2  0  0  0  0  0  0
  189.6070  173.7120  139.6900 C   0  0  0  0  0  2  0  0  0  0  0  0
  193.8710  172.1170  142.1220 C   0  0  0  0  0  2  0  0  0  0  0  0
  193.0200  176.3380  145.9620 C   0  0  1  0  0  3  0  0  0  0  0  0
  192.3940  176.1110  144.6800 C   0  0  1  0  0  3  0  0  0  0  0  0
  189.6840  174.4930  141.0280 C   0  0  2  0  0  3  0  0  0  0  0  0
  192.2680  173.6460  143.5370 C   0  0  0  0  0  0  0  0  0  0  0  0
  193.0770  172.1890  139.7500 O   0  0  0  0  0  0  0  0  0  0  0  0
  188.9390  175.7090  143.5490 C   0  0  1  0  0  3  0  0  0  0  0  0
  195.1510  171.0780  140.2570 C   0  0  0  0  0  1  0  0  0  0  0  0
  192.5040  174.9750  145.6310 N   0  0  1  0  0  0  0  0  0  0  0  0
  194.8320  177.8110  145.5560 O   0  0  0  0  0  0  0  0  0  0  0  0
  193.0940  173.9110  144.7920 C   0  0  2  0  0  3  0  0  0  0  0  0
  188.2200  174.5370  143.0720 N   0  0  0  0  0  2  0  0  0  0  0  0
  188.1340  175.9330  145.9040 C   0  0  0  0  0  3  0  0  0  0  0  0
  188.1310  176.4170  144.5910 C   0  0  0  0  0  0  0  0  0  0  0  0
  187.3650  177.5500  144.2710 C   0  0  0  0  0  3  0  0  0  0  0  0
  185.8380  179.3360  144.9310 N   0  0  0  0  0  1  0  0  0  0  0  0
  186.6200  177.7020  146.5690 C   0  0  0  0  0  3  0  0  0  0  0  0
  186.6120  178.1890  145.2590 C   0  0  0  0  0  0  0  0  0  0  0  0
  187.3810  176.5740  146.8920 C   0  0  0  0  0  3  0  0  0  0  0  0
  196.3000  172.1190  145.8020 C   0  0  0  0  0  1  0  0  0  0  0  0
  196.5100  173.6200  145.8560 C   0  0  0  0  0  2  0  0  0  0  0  0
  1 27  1  0  0  0  0
  1  4  1  0  0  0  0
  2 17  1  0  0  0  0
  3  7  1  0  0  0  0
  4 37  1  0  0  0  0
  6  9  1  0  0  0  0
  7 21  2  0  0  0  0
  8 12  1  0  0  0  0
  9  3  1  0  0  0  0
  9 13  2  0  0  0  0
 10  7  1  6  0  0  0
 10  5  1  0  0  0  0
 11 16  1  0  0  0  0
 11  6  2  0  0  0  0
 12  4  1  0  0  0  0
 13 21  1  0  0  0  0
 14  2  1  0  0  0  0
 15 28  1  0  0  0  0
 17 13  1  0  0  0  0
 18  8  1  6  0  0  0
 19  5  1  1  0  0  0
 19 25  1  0  0  0  0
 19 18  1  0  0  0  0
 20 16  1  6  0  0  0
 20 15  1  0  0  0  0
 20  3  1  0  0  0  0
 21 27  1  0  0  0  0
 22  6  1  0  0  0  0
 22  2  1  0  0  0  0
 23 10  1  0  0  0  0
 23 30  1  1  0  0  0
 24  2  1  0  0  0  0
 25 18  1  0  0  0  0
 26  8  2  0  0  0  0
 27 25  1  0  0  0  0
 28 23  1  0  0  0  0
 29 35  1  0  0  0  0
 30 29  2  0  0  0  0
 31 30  1  0  0  0  0
 31 34  2  0  0  0  0
 32 34  1  0  0  0  0
 33 35  2  0  0  0  0
 34 33  1  0  0  0  0
 36 37  1  0  0  0  0
M  END
>  <MODEL>
4

>  <REMARK>
 VINA RESULT:      -8.0      2.250      7.579
  Name = 
  2 active torsions:
  status: ('A' for Active; 'I' for Inactive)
    1  A    between atoms: N_4  and  C_37
    2  A    between atoms: C_23  and  C_30
                            x       y       z     vdW  Elec       q    Type
                         _______ _______ _______ _____ _____    ______ ____

>  <TORSDO>
F 2

$$$$
=
 OpenBabel11112417163D

 37 44  0  0  1  0  0  0  0  0999 V2000
  190.8080  174.1460  140.9510 C   0  0  0  0  0  2  0  0  0  0  0  0
  194.5530  174.2430  143.1650 C   0  0  0  0  0  0  0  0  0  0  0  0
  191.4850  176.2110  145.1410 N   0  0  0  0  0  0  0  0  0  0  0  0
  189.9380  173.9070  139.8160 N   0  0  0  0  0  0  0  0  0  0  0  0
  188.1100  175.2280  144.1420 O   0  0  0  0  0  0  0  0  0  0  0  0
  193.8200  175.4720  145.1980 C   0  0  0  0  0  0  0  0  0  0  0  0
  190.5000  176.0950  144.2110 C   0  0  0  0  0  0  0  0  0  0  0  0
  188.1890  172.9920  141.2430 C   0  0  0  0  0  0  0  0  0  0  0  0
  192.6150  175.8660  144.5100 C   0  0  0  0  0  0  0  0  0  0  0  0
  188.9910  176.3110  144.4620 C   0  0  2  0  0  3  0  0  0  0  0  0
  193.9040  175.6680  146.5130 C   0  0  0  0  0  3  0  0  0  0  0  0
  189.1010  172.8800  140.1870 O   0  0  0  0  0  0  0  0  0  0  0  0
  192.4200  175.5780  143.1980 C   0  0  0  0  0  0  0  0  0  0  0  0
  194.0330  172.8290  143.3590 C   0  0  0  0  0  1  0  0  0  0  0  0
  190.5720  177.4760  147.1160 C   0  0  0  0  0  2  0  0  0  0  0  0
  192.8030  176.3920  147.2600 C   0  0  0  0  0  2  0  0  0  0  0  0
  193.5210  175.0470  142.3290 C   0  0  0  0  0  2  0  0  0  0  0  0
  187.8160  174.2920  141.9120 C   0  0  1  0  0  3  0  0  0  0  0  0
  188.6440  174.4790  143.0810 C   0  0  1  0  0  3  0  0  0  0  0  0
  191.3980  176.2800  146.6120 C   0  0  2  0  0  3  0  0  0  0  0  0
  191.0620  175.7190  142.9700 C   0  0  0  0  0  0  0  0  0  0  0  0
  194.8190  174.8290  144.4570 O   0  0  0  0  0  0  0  0  0  0  0  0
  188.6680  176.8720  145.8470 C   0  0  1  0  0  3  0  0  0  0  0  0
  195.8490  174.1660  142.3860 C   0  0  0  0  0  1  0  0  0  0  0  0
  188.8240  175.3960  141.9260 N   0  0  1  0  0  0  0  0  0  0  0  0
  187.6020  171.9480  141.6290 O   0  0  0  0  0  0  0  0  0  0  0  0
  190.2860  175.3550  141.7090 C   0  0  2  0  0  3  0  0  0  0  0  0
  189.5820  177.9600  146.1610 N   0  0  0  0  0  2  0  0  0  0  0  0
  186.3890  176.7910  146.8700 C   0  0  0  0  0  3  0  0  0  0  0  0
  187.2530  177.3540  145.9230 C   0  0  0  0  0  0  0  0  0  0  0  0
  186.7780  178.3510  145.0570 C   0  0  0  0  0  3  0  0  0  0  0  0
  184.9730  179.7910  144.2630 N   0  0  0  0  0  1  0  0  0  0  0  0
  184.5930  178.2150  146.0890 C   0  0  0  0  0  3  0  0  0  0  0  0
  185.4510  178.7800  145.1410 C   0  0  0  0  0  0  0  0  0  0  0  0
  185.0610  177.2210  146.9540 C   0  0  0  0  0  3  0  0  0  0  0  0
  192.2230  173.3720  139.1840 C   0  0  0  0  0  1  0  0  0  0  0  0
  190.7720  173.3930  138.7420 C   0  0  0  0  0  2  0  0  0  0  0  0
  1 27  1  0  0  0  0
  2 14  1  0  0  0  0
  2 22  1  0  0  0  0
  3 20  1  0  0  0  0
  4 12  1  0  0  0  0
  4  1  1  0  0  0  0
  6 11  2  0  0  0  0
  7 10  1  0  0  0  0
  7  3  1  0  0  0  0
  8 26  2  0  0  0  0
  9  3  1  0  0  0  0
  9  6  1  0  0  0  0
 10  5  1  1  0  0  0
 10 23  1  0  0  0  0
 11 16  1  0  0  0  0
 12  8  1  0  0  0  0
 13  9  2  0  0  0  0
 17  2  1  0  0  0  0
 17 13  1  0  0  0  0
 18  8  1  6  0  0  0
 18 25  1  0  0  0  0
 18 19  1  0  0  0  0
 19  5  1  1  0  0  0
 20 15  1  6  0  0  0
 20 16  1  0  0  0  0
 21 13  1  0  0  0  0
 21  7  2  0  0  0  0
 22  6  1  0  0  0  0
 23 30  1  6  0  0  0
 23 28  1  0  0  0  0
 24  2  1  0  0  0  0
 25 19  1  0  0  0  0
 27 25  1  0  0  0  0
 27 21  1  0  0  0  0
 28 15  1  0  0  0  0
 29 35  1  0  0  0  0
 30 29  2  0  0  0  0
 31 34  2  0  0  0  0
 31 30  1  0  0  0  0
 32 34  1  0  0  0  0
 33 35  2  0  0  0  0
 34 33  1  0  0  0  0
 37 36  1  0  0  0  0
 37  4  1  0  0  0  0
M  END
>  <MODEL>
5

>  <REMARK>
 VINA RESULT:      -7.9      2.468      6.674
  Name = 
  2 active torsions:
  status: ('A' for Active; 'I' for Inactive)
    1  A    between atoms: N_4  and  C_37
    2  A    between atoms: C_23  and  C_30
                            x       y       z     vdW  Elec       q    Type
                         _______ _______ _______ _____ _____    ______ ____

>  <TORSDO>
F 2

$$$$
=
 OpenBabel11112417163D

 37 44  0  0  1  0  0  0  0  0999 V2000
  193.4280  173.7630  144.4330 C   0  0  0  0  0  2  0  0  0  0  0  0
  192.8960  172.0210  140.4810 C   0  0  0  0  0  0  0  0  0  0  0  0
  189.6020  174.2210  141.7070 N   0  0  0  0  0  0  0  0  0  0  0  0
  194.0660  173.9820  145.7170 N   0  0  0  0  0  0  0  0  0  0  0  0
  190.2700  176.7030  144.3050 O   0  0  0  0  0  0  0  0  0  0  0  0
  190.6420  172.9070  139.9200 C   0  0  0  0  0  0  0  0  0  0  0  0
  190.0050  174.5600  142.9610 C   0  0  0  0  0  0  0  0  0  0  0  0
  193.6850  176.3850  145.5890 C   0  0  0  0  0  0  0  0  0  0  0  0
  190.4540  173.2690  141.3030 C   0  0  0  0  0  0  0  0  0  0  0  0
  189.3900  175.6740  143.8360 C   0  0  2  0  0  3  0  0  0  0  0  0
  189.7840  173.3670  139.0110 C   0  0  0  0  0  3  0  0  0  0  0  0
  194.5320  175.2770  145.6940 O   0  0  0  0  0  0  0  0  0  0  0  0
  191.3630  172.9360  142.2550 C   0  0  0  0  0  0  0  0  0  0  0  0
  193.8380  173.1900  140.2580 C   0  0  0  0  0  1  0  0  0  0  0  0
  187.3140  175.1930  141.3140 C   0  0  0  0  0  2  0  0  0  0  0  0
  188.5660  174.1660  139.4300 C   0  0  0  0  0  2  0  0  0  0  0  0
  192.4890  171.9840  141.9790 C   0  0  0  0  0  2  0  0  0  0  0  0
  192.1870  176.3300  145.7620 C   0  0  1  0  0  3  0  0  0  0  0  0
  191.5640  176.1830  144.4670 C   0  0  1  0  0  3  0  0  0  0  0  0
  188.7280  174.9430  140.7630 C   0  0  2  0  0  3  0  0  0  0  0  0
  191.0990  173.7510  143.3410 C   0  0  0  0  0  0  0  0  0  0  0  0
  191.7690  172.1450  139.5870 O   0  0  0  0  0  0  0  0  0  0  0  0
  188.1150  176.2850  143.2540 C   0  0  1  0  0  3  0  0  0  0  0  0
  193.6420  170.7450  140.1530 C   0  0  0  0  0  1  0  0  0  0  0  0
  191.4820  175.0550  145.4290 N   0  0  1  0  0  0  0  0  0  0  0  0
  194.2070  177.5120  145.3880 O   0  0  0  0  0  0  0  0  0  0  0  0
  191.9260  173.9050  144.6130 C   0  0  2  0  0  3  0  0  0  0  0  0
  187.2410  175.2280  142.7700 N   0  0  0  0  0  2  0  0  0  0  0  0
  187.4490  176.7450  145.6190 C   0  0  0  0  0  3  0  0  0  0  0  0
  187.3970  177.1170  144.2710 C   0  0  0  0  0  0  0  0  0  0  0  0
  186.6670  178.2560  143.8930 C   0  0  0  0  0  3  0  0  0  0  0  0
  185.2610  180.1660  144.4720 N   0  0  0  0  0  1  0  0  0  0  0  0
  186.0550  178.6380  146.2030 C   0  0  0  0  0  3  0  0  0  0  0  0
  185.9990  179.0130  144.8580 C   0  0  0  0  0  0  0  0  0  0  0  0
  186.7800  177.5040  146.5840 C   0  0  0  0  0  3  0  0  0  0  0  0
  196.4780  173.9550  146.0130 C   0  0  0  0  0  1  0  0  0  0  0  0
  195.2350  173.1220  145.7630 C   0  0  0  0  0  2  0  0  0  0  0  0
  1 27  1  0  0  0  0
  1  4  1  0  0  0  0
  2 17  1  0  0  0  0
  3  7  1  0  0  0  0
  4 37  1  0  0  0  0
  6  9  1  0  0  0  0
  7 21  2  0  0  0  0
  8 12  1  0  0  0  0
  9  3  1  0  0  0  0
  9 13  2  0  0  0  0
 10  7  1  6  0  0  0
 10  5  1  0  0  0  0
 11 16  1  0  0  0  0
 11  6  2  0  0  0  0
 12  4  1  0  0  0  0
 13 21  1  0  0  0  0
 14  2  1  0  0  0  0
 15 28  1  0  0  0  0
 17 13  1  0  0  0  0
 18  8  1  6  0  0  0
 19  5  1  1  0  0  0
 19 25  1  0  0  0  0
 19 18  1  0  0  0  0
 20 16  1  6  0  0  0
 20 15  1  0  0  0  0
 20  3  1  0  0  0  0
 21 27  1  0  0  0  0
 22  6  1  0  0  0  0
 22  2  1  0  0  0  0
 23 10  1  0  0  0  0
 23 30  1  1  0  0  0
 24  2  1  0  0  0  0
 25 18  1  0  0  0  0
 26  8  2  0  0  0  0
 27 25  1  0  0  0  0
 28 23  1  0  0  0  0
 29 35  1  0  0  0  0
 30 29  2  0  0  0  0
 31 30  1  0  0  0  0
 31 34  2  0  0  0  0
 32 34  1  0  0  0  0
 33 35  2  0  0  0  0
 34 33  1  0  0  0  0
 37 36  1  0  0  0  0
M  END
>  <MODEL>
6

>  <REMARK>
 VINA RESULT:      -7.9      2.235      7.625
  Name = 
  2 active torsions:
  status: ('A' for Active; 'I' for Inactive)
    1  A    between atoms: N_4  and  C_37
    2  A    between atoms: C_23  and  C_30
                            x       y       z     vdW  Elec       q    Type
                         _______ _______ _______ _____ _____    ______ ____

>  <TORSDO>
F 2

$$$$
=
 OpenBabel11112417163D

 37 44  0  0  1  0  0  0  0  0999 V2000
  193.3910  173.7940  144.4340 C   0  0  0  0  0  2  0  0  0  0  0  0
  192.9000  172.0820  140.4630 C   0  0  0  0  0  0  0  0  0  0  0  0
  189.5670  174.2160  141.7000 N   0  0  0  0  0  0  0  0  0  0  0  0
  194.0230  174.0110  145.7220 N   0  0  0  0  0  0  0  0  0  0  0  0
  190.1860  176.6820  144.3250 O   0  0  0  0  0  0  0  0  0  0  0  0
  190.6330  172.9360  139.9040 C   0  0  0  0  0  0  0  0  0  0  0  0
  189.9600  174.5490  142.9590 C   0  0  0  0  0  0  0  0  0  0  0  0
  193.6020  176.4080  145.6160 C   0  0  0  0  0  0  0  0  0  0  0  0
  190.4350  173.2820  141.2900 C   0  0  0  0  0  0  0  0  0  0  0  0
  189.3240  175.6440  143.8430 C   0  0  2  0  0  3  0  0  0  0  0  0
  189.7700  173.3910  138.9970 C   0  0  0  0  0  3  0  0  0  0  0  0
  194.4670  175.3130  145.7130 O   0  0  0  0  0  0  0  0  0  0  0  0
  191.3460  172.9540  142.2410 C   0  0  0  0  0  0  0  0  0  0  0  0
  193.8230  173.2690  140.2540 C   0  0  0  0  0  1  0  0  0  0  0  0
  187.2640  175.1540  141.3100 C   0  0  0  0  0  2  0  0  0  0  0  0
  188.5380  174.1660  139.4200 C   0  0  0  0  0  2  0  0  0  0  0  0
  192.4890  172.0240  141.9590 C   0  0  0  0  0  2  0  0  0  0  0  0
  192.1040  176.3260  145.7840 C   0  0  1  0  0  3  0  0  0  0  0  0
  191.4880  176.1830  144.4860 C   0  0  1  0  0  3  0  0  0  0  0  0
  188.6840  174.9320  140.7610 C   0  0  2  0  0  3  0  0  0  0  0  0
  191.0660  173.7540  143.3350 C   0  0  0  0  0  0  0  0  0  0  0  0
  191.7740  172.1970  139.5670 O   0  0  0  0  0  0  0  0  0  0  0  0
  188.0410  176.2400  143.2640 C   0  0  1  0  0  3  0  0  0  0  0  0
  193.6680  170.8220  140.1250 C   0  0  0  0  0  1  0  0  0  0  0  0
  191.4210  175.0430  145.4360 N   0  0  1  0  0  0  0  0  0  0  0  0
  194.1060  177.5450  145.4280 O   0  0  0  0  0  0  0  0  0  0  0  0
  191.8870  173.9090  144.6110 C   0  0  2  0  0  3  0  0  0  0  0  0
  187.1860  175.1730  142.7670 N   0  0  0  0  0  2  0  0  0  0  0  0
  186.7740  178.2920  143.9210 C   0  0  0  0  0  3  0  0  0  0  0  0
  187.3070  177.0500  144.2860 C   0  0  0  0  0  0  0  0  0  0  0  0
  187.1520  176.5890  145.6040 C   0  0  0  0  0  3  0  0  0  0  0  0
  186.3150  176.8960  147.8760 N   0  0  0  0  0  1  0  0  0  0  0  0
  185.9390  178.6050  146.1730 C   0  0  0  0  0  3  0  0  0  0  0  0
  186.4700  177.3660  146.5430 C   0  0  0  0  0  0  0  0  0  0  0  0
  186.0900  179.0680  144.8620 C   0  0  0  0  0  3  0  0  0  0  0  0
  196.4520  174.0340  145.7750 C   0  0  0  0  0  1  0  0  0  0  0  0
  195.2060  173.1690  145.7630 C   0  0  0  0  0  2  0  0  0  0  0  0
  1 27  1  0  0  0  0
  1  4  1  0  0  0  0
  2 17  1  0  0  0  0
  3  7  1  0  0  0  0
  4 37  1  0  0  0  0
  6  9  1  0  0  0  0
  7 21  2  0  0  0  0
  8 12  1  0  0  0  0
  9  3  1  0  0  0  0
  9 13  2  0  0  0  0
 10  7  1  6  0  0  0
 10  5  1  0  0  0  0
 11 16  1  0  0  0  0
 11  6  2  0  0  0  0
 12  4  1  0  0  0  0
 13 21  1  0  0  0  0
 14  2  1  0  0  0  0
 15 28  1  0  0  0  0
 17 13  1  0  0  0  0
 18  8  1  6  0  0  0
 19  5  1  1  0  0  0
 19 25  1  0  0  0  0
 19 18  1  0  0  0  0
 20 16  1  6  0  0  0
 20 15  1  0  0  0  0
 20  3  1  0  0  0  0
 21 27  1  0  0  0  0
 22  6  1  0  0  0  0
 22  2  1  0  0  0  0
 23 10  1  0  0  0  0
 23 30  1  1  0  0  0
 24  2  1  0  0  0  0
 25 18  1  0  0  0  0
 26  8  2  0  0  0  0
 27 25  1  0  0  0  0
 28 23  1  0  0  0  0
 29 30  2  0  0  0  0
 29 35  1  0  0  0  0
 30 31  1  0  0  0  0
 31 34  2  0  0  0  0
 33 34  1  0  0  0  0
 34 32  1  0  0  0  0
 35 33  2  0  0  0  0
 37 36  1  0  0  0  0
M  END
>  <MODEL>
7

>  <REMARK>
 VINA RESULT:      -7.8      2.118      7.489
  Name = 
  2 active torsions:
  status: ('A' for Active; 'I' for Inactive)
    1  A    between atoms: N_4  and  C_37
    2  A    between atoms: C_23  and  C_30
                            x       y       z     vdW  Elec       q    Type
                         _______ _______ _______ _____ _____    ______ ____

>  <TORSDO>
F 2

$$$$
=
 OpenBabel11112417163D

 37 44  0  0  1  0  0  0  0  0999 V2000
  190.8340  172.7590  142.9910 C   0  0  0  0  0  2  0  0  0  0  0  0
  189.9710  172.7840  138.7270 C   0  0  0  0  0  0  0  0  0  0  0  0
  187.6200  175.4660  140.8420 N   0  0  0  0  0  0  0  0  0  0  0  0
  191.4230  172.2820  144.2280 N   0  0  0  0  0  0  0  0  0  0  0  0
  188.9660  176.4940  144.0810 O   0  0  0  0  0  0  0  0  0  0  0  0
  188.2300  174.5580  138.6500 C   0  0  0  0  0  0  0  0  0  0  0  0
  188.0350  175.1880  142.1070 C   0  0  0  0  0  0  0  0  0  0  0  0
  191.9440  174.5490  144.9520 C   0  0  0  0  0  0  0  0  0  0  0  0
  188.0950  174.4700  140.0840 C   0  0  0  0  0  0  0  0  0  0  0  0
  187.8070  176.0790  143.3480 C   0  0  2  0  0  3  0  0  0  0  0  0
  187.6580  175.5770  138.0110 C   0  0  0  0  0  3  0  0  0  0  0  0
  192.3250  173.2460  144.6170 O   0  0  0  0  0  0  0  0  0  0  0  0
  188.7580  173.5280  140.8030 C   0  0  0  0  0  0  0  0  0  0  0  0
  191.2840  173.5360  138.8530 C   0  0  0  0  0  1  0  0  0  0  0  0
  185.8680  177.2690  140.9560 C   0  0  0  0  0  2  0  0  0  0  0  0
  186.7860  176.5670  138.7560 C   0  0  0  0  0  2  0  0  0  0  0  0
  189.4800  172.3890  140.1450 C   0  0  0  0  0  2  0  0  0  0  0  0
  190.5190  174.9830  145.1940 C   0  0  1  0  0  3  0  0  0  0  0  0
  189.9720  175.5220  143.9700 C   0  0  1  0  0  3  0  0  0  0  0  0
  187.1290  176.7300  140.2600 C   0  0  2  0  0  3  0  0  0  0  0  0
  188.7350  173.9610  142.1170 C   0  0  0  0  0  0  0  0  0  0  0  0
  189.0260  173.6030  138.0050 O   0  0  0  0  0  0  0  0  0  0  0  0
  186.8800  177.2680  143.0950 C   0  0  1  0  0  3  0  0  0  0  0  0
  190.2260  171.5190  137.9350 C   0  0  0  0  0  1  0  0  0  0  0  0
  189.4250  174.2440  144.4930 N   0  0  1  0  0  0  0  0  0  0  0  0
  192.8500  175.4070  145.1130 O   0  0  0  0  0  0  0  0  0  0  0  0
  189.4770  173.3630  143.3080 C   0  0  2  0  0  3  0  0  0  0  0  0
  185.7160  176.8300  142.3380 N   0  0  0  0  0  2  0  0  0  0  0  0
  185.9960  179.2280  144.3680 C   0  0  0  0  0  3  0  0  0  0  0  0
  186.4450  177.9030  144.3790 C   0  0  0  0  0  0  0  0  0  0  0  0
  186.4900  177.1950  145.5910 C   0  0  0  0  0  3  0  0  0  0  0  0
  186.1340  177.0920  148.0040 N   0  0  0  0  0  1  0  0  0  0  0  0
  185.6380  179.1350  146.7620 C   0  0  0  0  0  3  0  0  0  0  0  0
  186.0870  177.8110  146.7780 C   0  0  0  0  0  0  0  0  0  0  0  0
  185.5920  179.8430  145.5570 C   0  0  0  0  0  3  0  0  0  0  0  0
  193.5750  171.1940  144.5270 C   0  0  0  0  0  1  0  0  0  0  0  0
  192.1970  171.0970  143.9010 C   0  0  0  0  0  2  0  0  0  0  0  0
  1 27  1  0  0  0  0
  1  4  1  0  0  0  0
  2 14  1  0  0  0  0
  2 17  1  0  0  0  0
  3  7  1  0  0  0  0
  4 12  1  0  0  0  0
  6  9  1  0  0  0  0
  7 21  2  0  0  0  0
  8 26  2  0  0  0  0
  9 13  2  0  0  0  0
  9  3  1  0  0  0  0
 10  7  1  6  0  0  0
 10  5  1  0  0  0  0
 11  6  2  0  0  0  0
 11 16  1  0  0  0  0
 12  8  1  0  0  0  0
 13 21  1  0  0  0  0
 15 28  1  0  0  0  0
 17 13  1  0  0  0  0
 18  8  1  6  0  0  0
 19  5  1  1  0  0  0
 19 25  1  0  0  0  0
 19 18  1  0  0  0  0
 20 16  1  6  0  0  0
 20  3  1  0  0  0  0
 20 15  1  0  0  0  0
 21 27  1  0  0  0  0
 22  6  1  0  0  0  0
 22  2  1  0  0  0  0
 23 10  1  0  0  0  0
 23 30  1  1  0  0  0
 24  2  1  0  0  0  0
 25 18  1  0  0  0  0
 27 25  1  0  0  0  0
 28 23  1  0  0  0  0
 29 30  2  0  0  0  0
 29 35  1  0  0  0  0
 30 31  1  0  0  0  0
 31 34  2  0  0  0  0
 33 34  1  0  0  0  0
 34 32  1  0  0  0  0
 35 33  2  0  0  0  0
 37  4  1  0  0  0  0
 37 36  1  0  0  0  0
M  END
>  <MODEL>
8

>  <REMARK>
 VINA RESULT:      -7.7      2.417      7.364
  Name = 
  2 active torsions:
  status: ('A' for Active; 'I' for Inactive)
    1  A    between atoms: N_4  and  C_37
    2  A    between atoms: C_23  and  C_30
                            x       y       z     vdW  Elec       q    Type
                         _______ _______ _______ _____ _____    ______ ____

>  <TORSDO>
F 2

$$$$
=
 OpenBabel11112417163D

 37 44  0  0  1  0  0  0  0  0999 V2000
  192.9850  173.2420  141.4000 C   0  0  0  0  0  2  0  0  0  0  0  0
  194.4340  173.8900  145.4520 C   0  0  0  0  0  0  0  0  0  0  0  0
  190.9680  176.0170  144.6410 N   0  0  0  0  0  0  0  0  0  0  0  0
  193.0310  172.7720  140.0290 N   0  0  0  0  0  0  0  0  0  0  0  0
  188.9590  174.7210  141.8780 O   0  0  0  0  0  0  0  0  0  0  0  0
  192.6610  175.4100  146.3050 C   0  0  0  0  0  0  0  0  0  0  0  0
  190.8040  175.6990  143.3290 C   0  0  0  0  0  0  0  0  0  0  0  0
  190.7130  172.0310  140.1170 C   0  0  0  0  0  0  0  0  0  0  0  0
  192.2100  175.6240  144.9510 C   0  0  0  0  0  0  0  0  0  0  0  0
  189.5060  175.8830  142.5120 C   0  0  2  0  0  3  0  0  0  0  0  0
  191.8970  175.8310  147.3110 C   0  0  0  0  0  3  0  0  0  0  0  0
  192.0770  171.7850  139.9320 O   0  0  0  0  0  0  0  0  0  0  0  0
  192.8820  175.1090  143.8900 C   0  0  0  0  0  0  0  0  0  0  0  0
  193.8080  172.5070  145.4880 C   0  0  0  0  0  1  0  0  0  0  0  0
  189.0980  177.5550  145.3290 C   0  0  0  0  0  2  0  0  0  0  0  0
  190.6300  176.6190  147.0460 C   0  0  0  0  0  2  0  0  0  0  0  0
  194.2410  174.4910  144.0340 C   0  0  0  0  0  2  0  0  0  0  0  0
  190.0950  173.4070  140.1700 C   0  0  1  0  0  3  0  0  0  0  0  0
  189.9910  173.8290  141.5470 C   0  0  1  0  0  3  0  0  0  0  0  0
  189.9640  176.3320  145.6750 C   0  0  2  0  0  3  0  0  0  0  0  0
  192.0010  175.1450  142.8230 C   0  0  0  0  0  0  0  0  0  0  0  0
  193.8520  174.6990  146.4970 O   0  0  0  0  0  0  0  0  0  0  0  0
  188.4130  176.6550  143.2500 C   0  0  1  0  0  3  0  0  0  0  0  0
  195.9180  173.7440  145.7160 C   0  0  0  0  0  1  0  0  0  0  0  0
  190.9370  174.5430  140.6530 N   0  0  1  0  0  0  0  0  0  0  0  0
  189.9390  171.0410  140.1950 O   0  0  0  0  0  0  0  0  0  0  0  0
  192.1900  174.5350  141.4380 C   0  0  2  0  0  3  0  0  0  0  0  0
  188.9900  177.8230  143.8990 N   0  0  0  0  0  2  0  0  0  0  0  0
  187.5760  177.1340  140.9450 C   0  0  0  0  0  3  0  0  0  0  0  0
  187.3190  177.0750  142.3190 C   0  0  0  0  0  0  0  0  0  0  0  0
  186.0460  177.4180  142.8030 C   0  0  0  0  0  3  0  0  0  0  0  0
  183.7540  178.1620  142.4090 N   0  0  0  0  0  1  0  0  0  0  0  0
  185.3030  177.8710  140.5440 C   0  0  0  0  0  3  0  0  0  0  0  0
  185.0420  177.8150  141.9160 C   0  0  0  0  0  0  0  0  0  0  0  0
  186.5700  177.5300  140.0580 C   0  0  0  0  0  3  0  0  0  0  0  0
  195.1390  172.2410  141.1140 C   0  0  0  0  0  1  0  0  0  0  0  0
  194.3180  172.1240  139.8440 C   0  0  0  0  0  2  0  0  0  0  0  0
  1 27  1  0  0  0  0
  2 14  1  0  0  0  0
  2 24  1  0  0  0  0
  2 22  1  0  0  0  0
  3  9  1  0  0  0  0
  3 20  1  0  0  0  0
  4  1  1  0  0  0  0
  6 22  1  0  0  0  0
  6 11  2  0  0  0  0
  7  3  1  0  0  0  0
  8 26  2  0  0  0  0
  9  6  1  0  0  0  0
 10  5  1  1  0  0  0
 10 23  1  0  0  0  0
 10  7  1  0  0  0  0
 12  4  1  0  0  0  0
 12  8  1  0  0  0  0
 13 17  1  0  0  0  0
 13  9  2  0  0  0  0
 16 11  1  0  0  0  0
 17  2  1  0  0  0  0
 18  8  1  1  0  0  0
 18 25  1  0  0  0  0
 18 19  1  0  0  0  0
 19  5  1  6  0  0  0
 20 15  1  6  0  0  0
 20 16  1  0  0  0  0
 21  7  2  0  0  0  0
 21 13  1  0  0  0  0
 23 30  1  6  0  0  0
 23 28  1  0  0  0  0
 25 27  1  0  0  0  0
 25 19  1  0  0  0  0
 27 21  1  0  0  0  0
 28 15  1  0  0  0  0
 29 30  1  0  0  0  0
 30 31  2  0  0  0  0
 33 34  2  0  0  0  0
 34 32  1  0  0  0  0
 34 31  1  0  0  0  0
 35 33  1  0  0  0  0
 35 29  2  0  0  0  0
 37  4  1  0  0  0  0
 37 36  1  0  0  0  0
M  END
>  <MODEL>
9

>  <REMARK>
 VINA RESULT:      -7.6      2.141      6.832
  Name = 
  2 active torsions:
  status: ('A' for Active; 'I' for Inactive)
    1  A    between atoms: N_4  and  C_37
    2  A    between atoms: C_23  and  C_30
                            x       y       z     vdW  Elec       q    Type
                         _______ _______ _______ _____ _____    ______ ____

>  <TORSDO>
F 2

$$$$
