=
 OpenBabel11112416143D

 30 35  0  0  1  0  0  0  0  0999 V2000
  187.1710  176.9460  143.9630 C   0  0  1  0  0  3  0  0  0  0  0  0
  185.4340  178.4090  145.1700 C   0  0  2  0  0  3  0  0  0  0  0  0
  189.8720  177.0900  147.3410 C   0  0  0  0  0  2  0  0  0  0  0  0
  188.3840  175.9970  144.1290 C   0  0  1  0  0  3  0  0  0  0  0  0
  186.2130  176.3400  143.1250 O   0  0  0  0  0  0  0  0  0  0  0  0
  188.4310  175.3450  140.5230 O   0  0  0  0  0  0  0  0  0  0  0  0
  191.3650  175.6910  142.8650 C   0  0  1  0  0  3  0  0  0  0  0  0
  188.0480  175.7460  141.6550 C   0  0  0  0  0  0  0  0  0  0  0  0
  191.7690  175.9720  144.3110 C   0  0  2  0  0  3  0  0  0  0  0  0
  190.9440  176.3350  146.6510 C   0  0  0  0  0  0  0  0  0  0  0  0
  186.6910  176.3840  141.7930 C   0  0  2  0  0  3  0  0  0  0  0  0
  188.9010  175.6170  142.8070 N   0  0  0  0  0  0  0  0  0  0  0  0
  184.8540  178.7650  146.5390 C   0  0  0  0  0  2  0  0  0  0  0  0
  192.7730  174.8910  144.6580 C   0  0  0  0  0  2  0  0  0  0  0  0
  192.5650  174.9990  142.2350 C   0  0  0  0  0  2  0  0  0  0  0  0
  184.4030  177.9160  144.3690 O   0  0  0  0  0  1  0  0  0  0  0  0
  188.7420  176.8770  146.3610 C   0  0  2  0  0  3  0  0  0  0  0  0
  185.9410  179.2650  147.4850 C   0  0  0  0  0  2  0  0  0  0  0  0
  186.5520  177.3620  145.3220 C   0  0  2  0  0  3  0  0  0  0  0  0
  189.4050  176.7300  145.0020 C   0  0  1  0  0  3  0  0  0  0  0  0
  192.0290  176.0340  147.2130 O   0  0  0  0  0  0  0  0  0  0  0  0
  190.6650  176.0430  145.2780 N   0  0  0  0  0  0  0  0  0  0  0  0
  193.5070  174.6110  143.3640 C   0  0  0  0  0  2  0  0  0  0  0  0
  190.0700  173.5460  143.5060 C   0  0  0  0  0  1  0  0  0  0  0  0
  187.0280  178.2080  147.6380 C   0  0  0  0  0  2  0  0  0  0  0  0
  187.6390  177.9160  146.2720 C   0  0  1  0  0  3  0  0  0  0  0  0
  190.1190  174.8250  142.6730 C   0  0  2  0  0  3  0  0  0  0  0  0
  186.6790  177.7980  141.2160 C   0  0  0  0  0  2  0  0  0  0  0  0
  184.2950  178.2910  140.7760 C   0  0  0  0  0  1  0  0  0  0  0  0
  185.6170  177.9160  140.1410 C   0  0  0  0  0  2  0  0  0  0  0  0
  1  5  1  6  0  0  0
  1  4  1  0  0  0  0
  1 19  1  0  0  0  0
  2 16  1  6  0  0  0
  2 19  1  0  0  0  0
  2 13  1  0  0  0  0
  4 12  1  6  0  0  0
  4 20  1  0  0  0  0
  6  8  2  0  0  0  0
  7 15  1  1  0  0  0
  7  9  1  0  0  0  0
  8 11  1  0  0  0  0
  8 12  1  0  0  0  0
  9 14  1  1  0  0  0
  9 22  1  0  0  0  0
 10 21  2  0  0  0  0
 10  3  1  0  0  0  0
 11 28  1  1  0  0  0
 11  5  1  0  0  0  0
 13 18  1  0  0  0  0
 15 23  1  0  0  0  0
 17  3  1  1  0  0  0
 18 25  1  0  0  0  0
 19 26  1  0  0  0  0
 20 22  1  0  0  0  0
 20 17  1  0  0  0  0
 22 10  1  0  0  0  0
 23 14  1  0  0  0  0
 26 17  1  0  0  0  0
 26 25  1  0  0  0  0
 27 12  1  0  0  0  0
 27  7  1  0  0  0  0
 27 24  1  0  0  0  0
 30 29  1  0  0  0  0
 30 28  1  0  0  0  0
M  END
>  <MODEL>
1

>  <REMARK>
 VINA RESULT:      -8.5      0.000      0.000
  Name = 
  2 active torsions:
  status: ('A' for Active; 'I' for Inactive)
    1  A    between atoms: C_11  and  C_28
    2  A    between atoms: C_28  and  C_30
                            x       y       z     vdW  Elec       q    Type
                         _______ _______ _______ _____ _____    ______ ____

>  <TORSDO>
F 2

$$$$
=
 OpenBabel11112416143D

 30 35  0  0  1  0  0  0  0  0999 V2000
  189.4610  175.8440  143.9520 C   0  0  1  0  0  3  0  0  0  0  0  0
  191.3030  174.7690  145.3890 C   0  0  2  0  0  3  0  0  0  0  0  0
  187.6910  177.7830  147.3930 C   0  0  0  0  0  2  0  0  0  0  0  0
  188.4210  176.9870  143.8480 C   0  0  1  0  0  3  0  0  0  0  0  0
  190.2300  175.8020  142.7720 O   0  0  0  0  0  0  0  0  0  0  0  0
  187.5330  175.9370  140.4510 O   0  0  0  0  0  0  0  0  0  0  0  0
  185.2590  177.2800  143.1430 C   0  0  1  0  0  3  0  0  0  0  0  0
  188.1480  176.0230  141.5480 C   0  0  0  0  0  0  0  0  0  0  0  0
  185.2060  177.7690  144.5890 C   0  0  2  0  0  3  0  0  0  0  0  0
  186.5540  178.3430  146.6250 C   0  0  0  0  0  0  0  0  0  0  0  0
  189.4320  175.2590  141.7360 C   0  0  2  0  0  3  0  0  0  0  0  0
  187.6260  176.8250  142.6230 N   0  0  0  0  0  0  0  0  0  0  0  0
  192.1720  174.9600  146.6320 C   0  0  0  0  0  2  0  0  0  0  0  0
  184.4250  179.0660  144.5400 C   0  0  0  0  0  2  0  0  0  0  0  0
  184.0090  177.8380  142.4790 C   0  0  0  0  0  2  0  0  0  0  0  0
  192.1410  174.6300  144.2820 O   0  0  0  0  0  1  0  0  0  0  0  0
  188.5530  177.3010  146.2500 C   0  0  2  0  0  3  0  0  0  0  0  0
  191.3150  175.1690  147.8770 C   0  0  0  0  0  2  0  0  0  0  0  0
  190.3600  175.9710  145.2090 C   0  0  2  0  0  3  0  0  0  0  0  0
  187.5880  176.9480  145.1310 C   0  0  1  0  0  3  0  0  0  0  0  0
  185.6760  179.0760  147.1510 O   0  0  0  0  0  0  0  0  0  0  0  0
  186.5050  177.9220  145.2570 N   0  0  0  0  0  0  0  0  0  0  0  0
  183.4190  178.8730  143.4240 C   0  0  0  0  0  2  0  0  0  0  0  0
  186.8650  179.1760  142.4240 C   0  0  0  0  0  1  0  0  0  0  0  0
  190.4020  176.3750  147.6870 C   0  0  0  0  0  2  0  0  0  0  0  0
  189.4990  176.1350  146.4820 C   0  0  1  0  0  3  0  0  0  0  0  0
  186.4920  177.6970  142.3380 C   0  0  2  0  0  3  0  0  0  0  0  0
  189.1690  173.7660  141.9250 C   0  0  0  0  0  2  0  0  0  0  0  0
  188.6330  172.6740  139.7720 C   0  0  0  0  0  1  0  0  0  0  0  0
  189.7380  172.9820  140.7580 C   0  0  0  0  0  2  0  0  0  0  0  0
  1  5  1  6  0  0  0
  1 19  1  0  0  0  0
  2 16  1  6  0  0  0
  2 13  1  0  0  0  0
  4 12  1  6  0  0  0
  4  1  1  0  0  0  0
  4 20  1  0  0  0  0
  6  8  2  0  0  0  0
  7 15  1  6  0  0  0
  7  9  1  0  0  0  0
  8 11  1  0  0  0  0
  8 12  1  0  0  0  0
  9 14  1  6  0  0  0
  9 22  1  0  0  0  0
 10 21  2  0  0  0  0
 10  3  1  0  0  0  0
 11 28  1  1  0  0  0
 11  5  1  0  0  0  0
 13 18  1  0  0  0  0
 15 23  1  0  0  0  0
 17 26  1  0  0  0  0
 17  3  1  1  0  0  0
 19  2  1  0  0  0  0
 19 26  1  0  0  0  0
 20 22  1  0  0  0  0
 20 17  1  0  0  0  0
 22 10  1  0  0  0  0
 23 14  1  0  0  0  0
 25 18  1  0  0  0  0
 26 25  1  0  0  0  0
 27 24  1  0  0  0  0
 27 12  1  0  0  0  0
 27  7  1  0  0  0  0
 29 30  1  0  0  0  0
 30 28  1  0  0  0  0
M  END
>  <MODEL>
2

>  <REMARK>
 VINA RESULT:      -8.0      1.971      5.672
  Name = 
  2 active torsions:
  status: ('A' for Active; 'I' for Inactive)
    1  A    between atoms: C_11  and  C_28
    2  A    between atoms: C_28  and  C_30
                            x       y       z     vdW  Elec       q    Type
                         _______ _______ _______ _____ _____    ______ ____

>  <TORSDO>
F 2

$$$$
=
 OpenBabel11112416143D

 30 35  0  0  1  0  0  0  0  0999 V2000
  187.8320  176.8040  144.2210 C   0  0  1  0  0  3  0  0  0  0  0  0
  185.8790  178.2920  143.4570 C   0  0  2  0  0  3  0  0  0  0  0  0
  188.1910  174.9940  140.3070 C   0  0  0  0  0  2  0  0  0  0  0  0
  189.0590  175.9710  143.7740 C   0  0  1  0  0  3  0  0  0  0  0  0
  188.2140  177.6800  145.2570 O   0  0  0  0  0  0  0  0  0  0  0  0
  189.9410  175.3030  147.2680 O   0  0  0  0  0  0  0  0  0  0  0  0
  190.2400  172.9870  144.3070 C   0  0  1  0  0  3  0  0  0  0  0  0
  189.3770  175.8020  146.2570 C   0  0  0  0  0  0  0  0  0  0  0  0
  189.9810  172.8540  142.8080 C   0  0  2  0  0  3  0  0  0  0  0  0
  189.2510  174.0470  140.7250 C   0  0  0  0  0  0  0  0  0  0  0  0
  188.3910  176.9240  146.4410 C   0  0  2  0  0  3  0  0  0  0  0  0
  189.6530  175.2970  144.9370 N   0  0  0  0  0  0  0  0  0  0  0  0
  185.2880  179.0410  142.2620 C   0  0  0  0  0  2  0  0  0  0  0  0
  191.2650  172.2930  142.2320 C   0  0  0  0  0  2  0  0  0  0  0  0
  191.2690  171.9170  144.6380 C   0  0  0  0  0  2  0  0  0  0  0  0
  186.1300  179.2130  144.4740 O   0  0  0  0  0  1  0  0  0  0  0  0
  188.1600  175.8900  141.5220 C   0  0  2  0  0  3  0  0  0  0  0  0
  185.0360  178.0970  141.0890 C   0  0  0  0  0  2  0  0  0  0  0  0
  187.1740  177.5710  143.0450 C   0  0  2  0  0  3  0  0  0  0  0  0
  188.5700  175.0080  142.6890 C   0  0  1  0  0  3  0  0  0  0  0  0
  189.7950  173.2410  139.9250 O   0  0  0  0  0  0  0  0  0  0  0  0
  189.5510  174.0820  142.1250 N   0  0  0  0  0  0  0  0  0  0  0  0
  191.8190  171.3960  143.3190 C   0  0  0  0  0  2  0  0  0  0  0  0
  191.9090  174.9340  143.9790 C   0  0  0  0  0  1  0  0  0  0  0  0
  186.3330  177.4080  140.6840 C   0  0  0  0  0  2  0  0  0  0  0  0
  186.8710  176.6140  141.8700 C   0  0  1  0  0  3  0  0  0  0  0  0
  190.7500  174.3490  144.7820 C   0  0  2  0  0  3  0  0  0  0  0  0
  187.0680  176.4160  147.0090 C   0  0  0  0  0  2  0  0  0  0  0  0
  184.8280  177.4580  146.8880 C   0  0  0  0  0  1  0  0  0  0  0  0
  186.2160  177.5800  147.4770 C   0  0  0  0  0  2  0  0  0  0  0  0
  1  5  1  1  0  0  0
  2 16  1  1  0  0  0
  3 10  1  0  0  0  0
  4  1  1  0  0  0  0
  4 12  1  1  0  0  0
  5 11  1  0  0  0  0
  7 15  1  6  0  0  0
  7 27  1  0  0  0  0
  8 11  1  0  0  0  0
  8  6  2  0  0  0  0
  9 14  1  6  0  0  0
  9  7  1  0  0  0  0
 10 22  1  0  0  0  0
 11 28  1  6  0  0  0
 12  8  1  0  0  0  0
 13  2  1  0  0  0  0
 14 23  1  0  0  0  0
 17  3  1  6  0  0  0
 17 26  1  0  0  0  0
 17 20  1  0  0  0  0
 18 13  1  0  0  0  0
 19  2  1  0  0  0  0
 19  1  1  0  0  0  0
 20  4  1  0  0  0  0
 21 10  2  0  0  0  0
 22 20  1  0  0  0  0
 22  9  1  0  0  0  0
 23 15  1  0  0  0  0
 24 27  1  0  0  0  0
 25 18  1  0  0  0  0
 25 26  1  0  0  0  0
 26 19  1  0  0  0  0
 27 12  1  0  0  0  0
 28 30  1  0  0  0  0
 29 30  1  0  0  0  0
M  END
>  <MODEL>
3

>  <REMARK>
 VINA RESULT:      -7.7      1.662      4.771
  Name = 
  2 active torsions:
  status: ('A' for Active; 'I' for Inactive)
    1  A    between atoms: C_11  and  C_28
    2  A    between atoms: C_28  and  C_30
                            x       y       z     vdW  Elec       q    Type
                         _______ _______ _______ _____ _____    ______ ____

>  <TORSDO>
F 2

$$$$
=
 OpenBabel11112416143D

 30 35  0  0  1  0  0  0  0  0999 V2000
  190.6390  174.9870  143.8380 C   0  0  1  0  0  3  0  0  0  0  0  0
  193.0190  174.0150  143.8940 C   0  0  2  0  0  3  0  0  0  0  0  0
  191.2770  177.1720  147.5200 C   0  0  0  0  0  2  0  0  0  0  0  0
  189.7070  176.1220  144.3310 C   0  0  1  0  0  3  0  0  0  0  0  0
  190.5210  174.8600  142.4400 O   0  0  0  0  0  0  0  0  0  0  0  0
  186.9640  174.8330  142.2710 O   0  0  0  0  0  0  0  0  0  0  0  0
  186.7710  176.3700  145.7090 C   0  0  1  0  0  3  0  0  0  0  0  0
  188.1200  174.9960  142.7480 C   0  0  0  0  0  0  0  0  0  0  0  0
  187.5970  176.9610  146.8490 C   0  0  2  0  0  3  0  0  0  0  0  0
  189.8860  177.6780  147.5840 C   0  0  0  0  0  0  0  0  0  0  0  0
  189.2790  174.2450  142.1500 C   0  0  2  0  0  3  0  0  0  0  0  0
  188.3350  175.8740  143.8680 N   0  0  0  0  0  0  0  0  0  0  0  0
  194.4600  174.2930  144.3240 C   0  0  0  0  0  2  0  0  0  0  0  0
  186.8960  178.2530  147.2170 C   0  0  0  0  0  2  0  0  0  0  0  0
  185.3540  176.8810  145.9260 C   0  0  0  0  0  2  0  0  0  0  0  0
  193.0050  173.7960  142.5160 O   0  0  0  0  0  1  0  0  0  0  0  0
  191.2750  176.6080  146.1190 C   0  0  2  0  0  3  0  0  0  0  0  0
  194.5410  174.5940  145.8180 C   0  0  0  0  0  2  0  0  0  0  0  0
  192.1140  175.2030  144.2640 C   0  0  2  0  0  3  0  0  0  0  0  0
  189.8420  176.1770  145.8550 C   0  0  1  0  0  3  0  0  0  0  0  0
  189.4870  178.4480  148.4970 O   0  0  0  0  0  0  0  0  0  0  0  0
  189.0240  177.1600  146.5650 N   0  0  0  0  0  0  0  0  0  0  0  0
  185.4270  177.9820  146.9710 C   0  0  0  0  0  2  0  0  0  0  0  0
  187.5120  178.2050  144.0450 C   0  0  0  0  0  1  0  0  0  0  0  0
  193.6540  175.7840  146.1610 C   0  0  0  0  0  2  0  0  0  0  0  0
  192.2120  175.4600  145.7850 C   0  0  1  0  0  3  0  0  0  0  0  0
  187.2300  176.7260  144.2930 C   0  0  2  0  0  3  0  0  0  0  0  0
  189.2530  172.7700  142.5460 C   0  0  0  0  0  2  0  0  0  0  0  0
  189.4790  172.2410  140.1400 C   0  0  0  0  0  1  0  0  0  0  0  0
  190.0070  171.9400  141.5260 C   0  0  0  0  0  2  0  0  0  0  0  0
  1  5  1  6  0  0  0
  1 19  1  0  0  0  0
  1  4  1  0  0  0  0
  2 16  1  6  0  0  0
  2 19  1  0  0  0  0
  2 13  1  0  0  0  0
  3 10  1  0  0  0  0
  4 12  1  1  0  0  0
  4 20  1  0  0  0  0
  6  8  2  0  0  0  0
  7 15  1  1  0  0  0
  7  9  1  0  0  0  0
  8 12  1  0  0  0  0
  9 14  1  6  0  0  0
 10 21  2  0  0  0  0
 11  5  1  0  0  0  0
 11 28  1  1  0  0  0
 11  8  1  0  0  0  0
 12 27  1  0  0  0  0
 13 18  1  0  0  0  0
 15 23  1  0  0  0  0
 17  3  1  1  0  0  0
 18 25  1  0  0  0  0
 19 26  1  0  0  0  0
 20 17  1  0  0  0  0
 20 22  1  0  0  0  0
 22  9  1  0  0  0  0
 22 10  1  0  0  0  0
 23 14  1  0  0  0  0
 24 27  1  0  0  0  0
 26 17  1  0  0  0  0
 26 25  1  0  0  0  0
 27  7  1  0  0  0  0
 29 30  1  0  0  0  0
 30 28  1  0  0  0  0
M  END
>  <MODEL>
4

>  <REMARK>
 VINA RESULT:      -7.4      2.095      5.944
  Name = 
  2 active torsions:
  status: ('A' for Active; 'I' for Inactive)
    1  A    between atoms: C_11  and  C_28
    2  A    between atoms: C_28  and  C_30
                            x       y       z     vdW  Elec       q    Type
                         _______ _______ _______ _____ _____    ______ ____

>  <TORSDO>
F 2

$$$$
=
 OpenBabel11112416143D

 30 35  0  0  1  0  0  0  0  0999 V2000
  189.4490  175.0560  143.8150 C   0  0  1  0  0  3  0  0  0  0  0  0
  191.0490  173.6210  142.4030 C   0  0  2  0  0  3  0  0  0  0  0  0
  187.1960  176.2630  140.3220 C   0  0  0  0  0  2  0  0  0  0  0  0
  188.0550  175.7270  143.8870 C   0  0  1  0  0  3  0  0  0  0  0  0
  189.6700  174.3110  144.9900 O   0  0  0  0  0  0  0  0  0  0  0  0
  188.7000  176.8180  147.3250 O   0  0  0  0  0  0  0  0  0  0  0  0
  186.8520  178.6630  144.6060 C   0  0  1  0  0  3  0  0  0  0  0  0
  188.8280  176.2230  146.2210 C   0  0  0  0  0  0  0  0  0  0  0  0
  186.4140  178.6000  143.1430 C   0  0  2  0  0  3  0  0  0  0  0  0
  186.3120  177.1800  141.0790 C   0  0  0  0  0  0  0  0  0  0  0  0
  189.9310  175.2130  146.0500 C   0  0  2  0  0  3  0  0  0  0  0  0
  187.9450  176.5140  145.1230 N   0  0  0  0  0  0  0  0  0  0  0  0
  191.1520  172.7550  141.1470 C   0  0  0  0  0  2  0  0  0  0  0  0
  184.9470  178.9790  143.1530 C   0  0  0  0  0  2  0  0  0  0  0  0
  185.9410  179.6910  145.2580 C   0  0  0  0  0  2  0  0  0  0  0  0
  191.3850  172.8380  143.5070 O   0  0  0  0  0  1  0  0  0  0  0  0
  187.8670  175.5530  141.4740 C   0  0  2  0  0  3  0  0  0  0  0  0
  190.7470  173.5390  139.9020 C   0  0  0  0  0  2  0  0  0  0  0  0
  189.6220  174.1810  142.5470 C   0  0  2  0  0  3  0  0  0  0  0  0
  187.8960  176.5590  142.6120 C   0  0  1  0  0  3  0  0  0  0  0  0
  185.3760  177.8220  140.5330 O   0  0  0  0  0  0  0  0  0  0  0  0
  186.6580  177.3220  142.4600 N   0  0  0  0  0  0  0  0  0  0  0  0
  184.8110  179.9790  144.2820 C   0  0  0  0  0  2  0  0  0  0  0  0
  185.4700  176.5730  145.2450 C   0  0  0  0  0  1  0  0  0  0  0  0
  189.3260  174.0680  140.0560 C   0  0  0  0  0  2  0  0  0  0  0  0
  189.2600  174.9810  141.2760 C   0  0  1  0  0  3  0  0  0  0  0  0
  186.7780  177.3480  145.3850 C   0  0  2  0  0  3  0  0  0  0  0  0
  191.2930  175.8910  145.9160 C   0  0  0  0  0  2  0  0  0  0  0  0
  193.4460  174.6990  146.1540 C   0  0  0  0  0  1  0  0  0  0  0  0
  192.2750  175.2940  146.9050 C   0  0  0  0  0  2  0  0  0  0  0  0
  1  4  1  0  0  0  0
  1  5  1  1  0  0  0
  2 19  1  0  0  0  0
  2 16  1  1  0  0  0
  3 10  1  0  0  0  0
  4 12  1  1  0  0  0
  5 11  1  0  0  0  0
  7 15  1  1  0  0  0
  7 27  1  0  0  0  0
  8  6  2  0  0  0  0
  9 14  1  1  0  0  0
  9  7  1  0  0  0  0
 10 22  1  0  0  0  0
 11 28  1  6  0  0  0
 11  8  1  0  0  0  0
 12 27  1  0  0  0  0
 12  8  1  0  0  0  0
 13  2  1  0  0  0  0
 14 23  1  0  0  0  0
 17  3  1  6  0  0  0
 17 20  1  0  0  0  0
 18 25  1  0  0  0  0
 18 13  1  0  0  0  0
 19  1  1  0  0  0  0
 20  4  1  0  0  0  0
 21 10  2  0  0  0  0
 22 20  1  0  0  0  0
 22  9  1  0  0  0  0
 23 15  1  0  0  0  0
 24 27  1  0  0  0  0
 25 26  1  0  0  0  0
 26 17  1  0  0  0  0
 26 19  1  0  0  0  0
 28 30  1  0  0  0  0
 29 30  1  0  0  0  0
M  END
>  <MODEL>
5

>  <REMARK>
 VINA RESULT:      -7.2      2.142      7.199
  Name = 
  2 active torsions:
  status: ('A' for Active; 'I' for Inactive)
    1  A    between atoms: C_11  and  C_28
    2  A    between atoms: C_28  and  C_30
                            x       y       z     vdW  Elec       q    Type
                         _______ _______ _______ _____ _____    ______ ____

>  <TORSDO>
F 2

$$$$
=
 OpenBabel11112416143D

 30 35  0  0  1  0  0  0  0  0999 V2000
  192.2270  174.7890  143.8720 C   0  0  1  0  0  3  0  0  0  0  0  0
  193.5030  173.9180  141.8170 C   0  0  2  0  0  3  0  0  0  0  0  0
  188.4750  174.8470  141.7160 C   0  0  0  0  0  2  0  0  0  0  0  0
  190.8470  174.9210  144.5620 C   0  0  1  0  0  3  0  0  0  0  0  0
  193.1590  174.2610  144.7880 O   0  0  0  0  0  0  0  0  0  0  0  0
  192.4100  176.4240  147.5160 O   0  0  0  0  0  0  0  0  0  0  0  0
  189.0880  177.2780  145.9520 C   0  0  1  0  0  3  0  0  0  0  0  0
  192.2770  175.8330  146.4110 C   0  0  0  0  0  0  0  0  0  0  0  0
  188.1440  176.9550  144.7950 C   0  0  2  0  0  3  0  0  0  0  0  0
  187.7170  175.4410  142.8410 C   0  0  0  0  0  0  0  0  0  0  0  0
  193.4930  175.2730  145.7220 C   0  0  2  0  0  3  0  0  0  0  0  0
  190.9810  175.7060  145.7970 N   0  0  0  0  0  0  0  0  0  0  0  0
  193.3830  173.0550  140.5600 C   0  0  0  0  0  2  0  0  0  0  0  0
  186.7800  176.7840  145.4340 C   0  0  0  0  0  2  0  0  0  0  0  0
  188.2250  177.9600  147.0020 C   0  0  0  0  0  2  0  0  0  0  0  0
  194.5160  173.3910  142.6180 O   0  0  0  0  0  1  0  0  0  0  0  0
  189.7630  174.5110  142.4300 C   0  0  2  0  0  3  0  0  0  0  0  0
  192.2540  173.5470  139.6590 C   0  0  0  0  0  2  0  0  0  0  0  0
  192.1650  173.9400  142.5760 C   0  0  2  0  0  3  0  0  0  0  0  0
  189.8960  175.5440  143.5380 C   0  0  1  0  0  3  0  0  0  0  0  0
  186.4790  175.6650  142.7800 O   0  0  0  0  0  0  0  0  0  0  0  0
  188.5220  175.8010  143.9680 N   0  0  0  0  0  0  0  0  0  0  0  0
  186.7730  177.7510  146.5990 C   0  0  0  0  0  2  0  0  0  0  0  0
  188.9310  174.8870  146.9220 C   0  0  0  0  0  1  0  0  0  0  0  0
  190.9360  173.5440  140.4230 C   0  0  0  0  0  2  0  0  0  0  0  0
  191.0550  174.4620  141.6340 C   0  0  1  0  0  3  0  0  0  0  0  0
  189.8110  176.0860  146.5810 C   0  0  2  0  0  3  0  0  0  0  0  0
  194.3410  176.3810  145.1010 C   0  0  0  0  0  2  0  0  0  0  0  0
  196.1160  176.4560  143.3800 C   0  0  0  0  0  1  0  0  0  0  0  0
  195.6970  175.8380  144.6960 C   0  0  0  0  0  2  0  0  0  0  0  0
  1  4  1  0  0  0  0
  1  5  1  1  0  0  0
  2 19  1  0  0  0  0
  2 16  1  1  0  0  0
  3 10  1  0  0  0  0
  4 12  1  1  0  0  0
  5 11  1  0  0  0  0
  7 27  1  0  0  0  0
  7 15  1  1  0  0  0
  8  6  2  0  0  0  0
  9 14  1  1  0  0  0
  9  7  1  0  0  0  0
 10 22  1  0  0  0  0
 11 28  1  6  0  0  0
 11  8  1  0  0  0  0
 12  8  1  0  0  0  0
 12 27  1  0  0  0  0
 13  2  1  0  0  0  0
 14 23  1  0  0  0  0
 17  3  1  6  0  0  0
 17 20  1  0  0  0  0
 18 25  1  0  0  0  0
 18 13  1  0  0  0  0
 19  1  1  0  0  0  0
 20 22  1  0  0  0  0
 20  4  1  0  0  0  0
 21 10  2  0  0  0  0
 22  9  1  0  0  0  0
 23 15  1  0  0  0  0
 25 26  1  0  0  0  0
 26 17  1  0  0  0  0
 26 19  1  0  0  0  0
 27 24  1  0  0  0  0
 29 30  1  0  0  0  0
 30 28  1  0  0  0  0
M  END
>  <MODEL>
6

>  <REMARK>
 VINA RESULT:      -7.2      2.006      7.476
  Name = 
  2 active torsions:
  status: ('A' for Active; 'I' for Inactive)
    1  A    between atoms: C_11  and  C_28
    2  A    between atoms: C_28  and  C_30
                            x       y       z     vdW  Elec       q    Type
                         _______ _______ _______ _____ _____    ______ ____

>  <TORSDO>
F 2

$$$$
=
 OpenBabel11112416143D

 30 35  0  0  1  0  0  0  0  0999 V2000
  191.0390  174.0400  142.5650 C   0  0  1  0  0  3  0  0  0  0  0  0
  193.0240  172.5500  143.2370 C   0  0  2  0  0  3  0  0  0  0  0  0
  190.9200  175.9120  146.4650 C   0  0  0  0  0  2  0  0  0  0  0  0
  190.2550  175.3420  142.8650 C   0  0  1  0  0  3  0  0  0  0  0  0
  191.3440  173.9840  141.1900 O   0  0  0  0  0  0  0  0  0  0  0  0
  188.0980  174.7710  139.9570 O   0  0  0  0  0  0  0  0  0  0  0  0
  187.1520  176.2100  143.3120 C   0  0  1  0  0  3  0  0  0  0  0  0
  189.0510  174.6530  140.7740 C   0  0  0  0  0  0  0  0  0  0  0  0
  187.6790  176.5640  144.7010 C   0  0  2  0  0  3  0  0  0  0  0  0
  189.7160  176.7180  146.1580 C   0  0  0  0  0  0  0  0  0  0  0  0
  190.1580  173.6770  140.4800 C   0  0  2  0  0  3  0  0  0  0  0  0
  189.0790  175.4260  141.9870 N   0  0  0  0  0  0  0  0  0  0  0  0
  194.2800  172.4810  144.1060 C   0  0  0  0  0  2  0  0  0  0  0  0
  187.1820  177.9700  144.9670 C   0  0  0  0  0  2  0  0  0  0  0  0
  185.8770  177.0230  143.1420 C   0  0  0  0  0  2  0  0  0  0  0  0
  193.4010  172.3810  141.9050 O   0  0  0  0  0  1  0  0  0  0  0  0
  191.2430  175.4050  145.0790 C   0  0  2  0  0  3  0  0  0  0  0  0
  193.9460  172.7100  145.5780 C   0  0  0  0  0  2  0  0  0  0  0  0
  192.3150  173.9020  143.4340 C   0  0  2  0  0  3  0  0  0  0  0  0
  189.9100  175.3190  144.3550 C   0  0  1  0  0  3  0  0  0  0  0  0
  189.2170  177.5320  146.9800 O   0  0  0  0  0  0  0  0  0  0  0  0
  189.1330  176.4410  144.8800 N   0  0  0  0  0  0  0  0  0  0  0  0
  185.8420  178.0480  144.2650 C   0  0  0  0  0  2  0  0  0  0  0  0
  188.7430  177.8770  142.1390 C   0  0  0  0  0  1  0  0  0  0  0  0
  193.2630  174.0600  145.7540 C   0  0  0  0  0  2  0  0  0  0  0  0
  191.9790  174.0840  144.9320 C   0  0  1  0  0  3  0  0  0  0  0  0
  188.0970  176.4940  142.1430 C   0  0  2  0  0  3  0  0  0  0  0  0
  189.7040  172.2360  140.7020 C   0  0  0  0  0  2  0  0  0  0  0  0
  190.9390  170.0970  140.8360 C   0  0  0  0  0  1  0  0  0  0  0  0
  190.6100  171.2790  139.9510 C   0  0  0  0  0  2  0  0  0  0  0  0
  1  5  1  6  0  0  0
  1  4  1  0  0  0  0
  1 19  1  0  0  0  0
  2 16  1  6  0  0  0
  2 19  1  0  0  0  0
  2 13  1  0  0  0  0
  4 12  1  6  0  0  0
  4 20  1  0  0  0  0
  6  8  2  0  0  0  0
  7 15  1  6  0  0  0
  7  9  1  0  0  0  0
  8 12  1  0  0  0  0
  9 22  1  0  0  0  0
  9 14  1  6  0  0  0
 10  3  1  0  0  0  0
 10 21  2  0  0  0  0
 11 28  1  1  0  0  0
 11  8  1  0  0  0  0
 11  5  1  0  0  0  0
 12 27  1  0  0  0  0
 13 18  1  0  0  0  0
 15 23  1  0  0  0  0
 17  3  1  1  0  0  0
 18 25  1  0  0  0  0
 19 26  1  0  0  0  0
 20 22  1  0  0  0  0
 20 17  1  0  0  0  0
 22 10  1  0  0  0  0
 23 14  1  0  0  0  0
 24 27  1  0  0  0  0
 26 17  1  0  0  0  0
 26 25  1  0  0  0  0
 27  7  1  0  0  0  0
 30 28  1  0  0  0  0
 30 29  1  0  0  0  0
M  END
>  <MODEL>
7

>  <REMARK>
 VINA RESULT:      -7.2      2.301      6.251
  Name = 
  2 active torsions:
  status: ('A' for Active; 'I' for Inactive)
    1  A    between atoms: C_11  and  C_28
    2  A    between atoms: C_28  and  C_30
                            x       y       z     vdW  Elec       q    Type
                         _______ _______ _______ _____ _____    ______ ____

>  <TORSDO>
F 2

$$$$
=
 OpenBabel11112416143D

 30 35  0  0  1  0  0  0  0  0999 V2000
  189.0050  176.0590  144.8020 C   0  0  1  0  0  3  0  0  0  0  0  0
  190.1600  177.0590  146.8690 C   0  0  2  0  0  3  0  0  0  0  0  0
  192.5020  173.7230  143.7810 C   0  0  0  0  0  2  0  0  0  0  0  0
  188.9860  174.8920  143.7830 C   0  0  1  0  0  3  0  0  0  0  0  0
  187.7090  176.2470  145.3210 O   0  0  0  0  0  0  0  0  0  0  0  0
  185.9550  176.2360  142.2230 O   0  0  0  0  0  0  0  0  0  0  0  0
  188.8810  174.5460  140.5500 C   0  0  1  0  0  3  0  0  0  0  0  0
  186.8960  176.0670  143.0440 C   0  0  0  0  0  0  0  0  0  0  0  0
  190.2510  173.9160  140.7920 C   0  0  2  0  0  3  0  0  0  0  0  0
  191.9150  173.1970  142.5270 C   0  0  0  0  0  0  0  0  0  0  0  0
  186.9100  176.8580  144.3240 C   0  0  2  0  0  3  0  0  0  0  0  0
  187.9620  175.1420  142.7590 N   0  0  0  0  0  0  0  0  0  0  0  0
  191.1850  176.7800  147.9700 C   0  0  0  0  0  2  0  0  0  0  0  0
  190.2190  172.6000  140.0430 C   0  0  0  0  0  2  0  0  0  0  0  0
  188.4190  174.0080  139.2050 C   0  0  0  0  0  2  0  0  0  0  0  0
  188.9330  177.3380  147.4700 O   0  0  0  0  0  1  0  0  0  0  0  0
  191.2710  174.3480  144.3920 C   0  0  2  0  0  3  0  0  0  0  0  0
  192.5440  176.4160  147.3790 C   0  0  0  0  0  2  0  0  0  0  0  0
  190.0430  175.8440  145.9330 C   0  0  2  0  0  3  0  0  0  0  0  0
  190.4040  174.7720  143.2190 C   0  0  1  0  0  3  0  0  0  0  0  0
  192.5230  172.3820  141.7840 O   0  0  0  0  0  0  0  0  0  0  0  0
  190.6350  173.7480  142.2010 N   0  0  0  0  0  0  0  0  0  0  0  0
  189.3470  172.8620  138.8330 C   0  0  0  0  0  2  0  0  0  0  0  0
  187.6710  172.7950  142.0190 C   0  0  0  0  0  1  0  0  0  0  0  0
  192.4100  175.2000  146.4710 C   0  0  0  0  0  2  0  0  0  0  0  0
  191.4350  175.5210  145.3430 C   0  0  1  0  0  3  0  0  0  0  0  0
  187.8140  174.2590  141.6080 C   0  0  2  0  0  3  0  0  0  0  0  0
  187.3010  178.3130  144.0760 C   0  0  0  0  0  2  0  0  0  0  0  0
  185.4400  179.0100  145.5490 C   0  0  0  0  0  1  0  0  0  0  0  0
  186.0840  179.2100  144.1950 C   0  0  0  0  0  2  0  0  0  0  0  0
  1  5  1  1  0  0  0
  1 19  1  0  0  0  0
  2 16  1  1  0  0  0
  2 13  1  0  0  0  0
  4 12  1  6  0  0  0
  4  1  1  0  0  0  0
  6  8  2  0  0  0  0
  7 15  1  6  0  0  0
  7  9  1  0  0  0  0
  7 27  1  0  0  0  0
  8 11  1  0  0  0  0
  9 14  1  1  0  0  0
  9 22  1  0  0  0  0
 10  3  1  0  0  0  0
 11 28  1  6  0  0  0
 11  5  1  0  0  0  0
 12  8  1  0  0  0  0
 17  3  1  6  0  0  0
 17 26  1  0  0  0  0
 18 13  1  0  0  0  0
 19  2  1  0  0  0  0
 20  4  1  0  0  0  0
 20 17  1  0  0  0  0
 21 10  2  0  0  0  0
 22 10  1  0  0  0  0
 22 20  1  0  0  0  0
 23 15  1  0  0  0  0
 23 14  1  0  0  0  0
 25 18  1  0  0  0  0
 26 19  1  0  0  0  0
 26 25  1  0  0  0  0
 27 24  1  0  0  0  0
 27 12  1  0  0  0  0
 28 30  1  0  0  0  0
 30 29  1  0  0  0  0
M  END
>  <MODEL>
8

>  <REMARK>
 VINA RESULT:      -7.1      2.169      4.496
  Name = 
  2 active torsions:
  status: ('A' for Active; 'I' for Inactive)
    1  A    between atoms: C_11  and  C_28
    2  A    between atoms: C_28  and  C_30
                            x       y       z     vdW  Elec       q    Type
                         _______ _______ _______ _____ _____    ______ ____

>  <TORSDO>
F 2

$$$$
=
 OpenBabel11112416143D

 30 35  0  0  1  0  0  0  0  0999 V2000
  189.1960  175.4430  143.5440 C   0  0  1  0  0  3  0  0  0  0  0  0
  187.3850  177.0960  144.3170 C   0  0  2  0  0  3  0  0  0  0  0  0
  187.5030  175.2030  139.5680 C   0  0  0  0  0  2  0  0  0  0  0  0
  189.9460  174.8400  142.3300 C   0  0  1  0  0  3  0  0  0  0  0  0
  190.1330  175.8790  144.5030 O   0  0  0  0  0  0  0  0  0  0  0  0
  192.1400  172.9380  144.5670 O   0  0  0  0  0  0  0  0  0  0  0  0
  190.7240  171.8760  141.2370 C   0  0  1  0  0  3  0  0  0  0  0  0
  191.2830  173.7710  144.1650 C   0  0  0  0  0  0  0  0  0  0  0  0
  189.8190  172.3030  140.0840 C   0  0  2  0  0  3  0  0  0  0  0  0
  188.4650  174.1750  139.1060 C   0  0  0  0  0  0  0  0  0  0  0  0
  190.6790  174.7410  145.1450 C   0  0  2  0  0  3  0  0  0  0  0  0
  190.8670  173.7890  142.7870 N   0  0  0  0  0  0  0  0  0  0  0  0
  186.4660  178.2290  143.8580 C   0  0  0  0  0  2  0  0  0  0  0  0
  190.6100  172.0010  138.8280 C   0  0  0  0  0  2  0  0  0  0  0  0
  191.6000  170.7660  140.6770 C   0  0  0  0  0  2  0  0  0  0  0  0
  188.2040  177.5800  145.3370 O   0  0  0  0  0  1  0  0  0  0  0  0
  188.1550  175.5880  140.8750 C   0  0  2  0  0  3  0  0  0  0  0  0
  185.5730  177.7810  142.7040 C   0  0  0  0  0  2  0  0  0  0  0  0
  188.2300  176.5850  143.1370 C   0  0  2  0  0  3  0  0  0  0  0  0
  188.8800  174.3410  141.3520 C   0  0  1  0  0  3  0  0  0  0  0  0
  188.4610  173.7240  137.9310 O   0  0  0  0  0  0  0  0  0  0  0  0
  189.3460  173.6940  140.1270 N   0  0  0  0  0  0  0  0  0  0  0  0
  191.4240  170.7700  139.1670 C   0  0  0  0  0  2  0  0  0  0  0  0
  192.3830  173.8180  140.8270 C   0  0  0  0  0  1  0  0  0  0  0  0
  186.4290  177.2970  141.5390 C   0  0  0  0  0  2  0  0  0  0  0  0
  187.2880  176.1260  142.0000 C   0  0  1  0  0  3  0  0  0  0  0  0
  191.6100  172.9710  141.8360 C   0  0  2  0  0  3  0  0  0  0  0  0
  189.6720  174.0510  146.0630 C   0  0  0  0  0  2  0  0  0  0  0  0
  190.8030  175.3450  147.8420 C   0  0  0  0  0  1  0  0  0  0  0  0
  189.4640  174.8700  147.3220 C   0  0  0  0  0  2  0  0  0  0  0  0
  1  5  1  1  0  0  0
  2 16  1  1  0  0  0
  4 12  1  1  0  0  0
  4  1  1  0  0  0  0
  5 11  1  0  0  0  0
  7 15  1  6  0  0  0
  7 27  1  0  0  0  0
  8  6  2  0  0  0  0
  8 11  1  0  0  0  0
  9 14  1  6  0  0  0
  9 22  1  0  0  0  0
  9  7  1  0  0  0  0
 10  3  1  0  0  0  0
 10 22  1  0  0  0  0
 11 28  1  6  0  0  0
 12  8  1  0  0  0  0
 13  2  1  0  0  0  0
 14 23  1  0  0  0  0
 17  3  1  6  0  0  0
 17 20  1  0  0  0  0
 17 26  1  0  0  0  0
 18 13  1  0  0  0  0
 19  1  1  0  0  0  0
 19  2  1  0  0  0  0
 20  4  1  0  0  0  0
 21 10  2  0  0  0  0
 22 20  1  0  0  0  0
 23 15  1  0  0  0  0
 24 27  1  0  0  0  0
 25 26  1  0  0  0  0
 25 18  1  0  0  0  0
 26 19  1  0  0  0  0
 27 12  1  0  0  0  0
 28 30  1  0  0  0  0
 30 29  1  0  0  0  0
M  END
>  <MODEL>
9

>  <REMARK>
 VINA RESULT:      -7.0      2.656      5.705
  Name = 
  2 active torsions:
  status: ('A' for Active; 'I' for Inactive)
    1  A    between atoms: C_11  and  C_28
    2  A    between atoms: C_28  and  C_30
                            x       y       z     vdW  Elec       q    Type
                         _______ _______ _______ _____ _____    ______ ____

>  <TORSDO>
F 2

$$$$
