=
 OpenBabel11112417433D

 28 32  0  0  1  0  0  0  0  0999 V2000
  186.1670  178.1420  144.2940 C   0  0  0  0  0  0  0  0  0  0  0  0
  189.4000  178.0550  145.1470 O   0  0  0  0  0  1  0  0  0  0  0  0
  187.5000  172.8400  141.7290 C   0  0  0  0  0  2  0  0  0  0  0  0
  184.5470  177.6160  146.5230 C   0  0  0  0  0  3  0  0  0  0  0  0
  189.3560  173.7630  143.0730 C   0  0  2  0  0  3  0  0  0  0  0  0
  186.9010  178.4320  143.0290 C   0  0  0  0  0  2  0  0  0  0  0  0
  188.3670  177.9820  147.2780 C   0  0  0  0  0  1  0  0  0  0  0  0
  189.2400  177.2480  146.2790 C   0  0  1  0  0  0  0  0  0  0  0  0
  191.5280  176.2550  146.0320 C   0  0  1  0  0  3  0  0  0  0  0  0
  188.5820  175.8790  145.9160 C   0  0  2  0  0  3  0  0  0  0  0  0
  187.2940  177.7920  139.8050 O   0  0  0  0  0  0  0  0  0  0  0  0
  188.2430  175.9210  143.5000 C   0  0  1  0  0  3  0  0  0  0  0  0
  190.9650  174.8560  145.8650 C   0  0  0  0  0  2  0  0  0  0  0  0
  190.6030  177.0520  146.9380 C   0  0  0  0  0  2  0  0  0  0  0  0
  187.0250  177.2060  140.8860 C   0  0  0  0  0  0  0  0  0  0  0  0
  186.3930  176.9740  145.0690 C   0  0  0  0  0  0  0  0  0  0  0  0
  188.0980  173.8860  142.2980 C   0  0  0  0  0  0  0  0  0  0  0  0
  192.8450  176.1760  146.6370 N   0  0  0  0  0  1  0  0  0  0  0  0
  187.6030  175.9260  141.1560 N   0  0  0  0  0  2  0  0  0  0  0  0
  185.5650  176.7280  146.1730 C   0  0  0  0  0  3  0  0  0  0  0  0
  185.1410  179.0260  144.6570 C   0  0  0  0  0  3  0  0  0  0  0  0
  184.3400  178.7700  145.7680 C   0  0  0  0  0  3  0  0  0  0  0  0
  186.1110  177.8650  141.8620 C   0  0  0  0  0  2  0  0  0  0  0  0
  189.5140  175.1050  143.7710 C   0  0  1  0  0  3  0  0  0  0  0  0
  187.4420  175.2100  142.4160 C   0  0  2  0  0  3  0  0  0  0  0  0
  189.5530  174.8810  145.2770 C   0  0  2  0  0  3  0  0  0  0  0  0
  190.4300  173.5610  142.2050 O   0  0  0  0  0  1  0  0  0  0  0  0
  187.5010  175.9620  144.8340 C   0  0  2  0  0  3  0  0  0  0  0  0
  1 21  2  0  0  0  0
  1 16  1  0  0  0  0
  2  8  1  0  0  0  0
  3 17  2  0  0  0  0
  5 27  1  6  0  0  0
  5 24  1  0  0  0  0
  6  1  1  0  0  0  0
  8 14  1  0  0  0  0
  8  7  1  1  0  0  0
  9 18  1  1  0  0  0
  9 14  1  0  0  0  0
 10  8  1  0  0  0  0
 11 15  2  0  0  0  0
 12 24  1  0  0  0  0
 12 28  1  0  0  0  0
 13  9  1  0  0  0  0
 15 19  1  0  0  0  0
 15 23  1  0  0  0  0
 16 20  2  0  0  0  0
 17 25  1  0  0  0  0
 17  5  1  0  0  0  0
 19 25  1  0  0  0  0
 20  4  1  0  0  0  0
 21 22  1  0  0  0  0
 22  4  2  0  0  0  0
 23  6  1  0  0  0  0
 24 26  1  0  0  0  0
 25 12  1  0  0  0  0
 26 13  1  0  0  0  0
 26 10  1  0  0  0  0
 28 16  1  0  0  0  0
 28 10  1  0  0  0  0
M  END
>  <MODEL>
1

>  <REMARK>
 VINA RESULT:      -9.7      0.000      0.000
  Name = 
  0 active torsions:
  status: ('A' for Active; 'I' for Inactive)
                            x       y       z     vdW  Elec       q    Type
                         _______ _______ _______ _____ _____    ______ ____

>  <TORSDO>
F 0

$$$$
=
 OpenBabel11112417433D

 28 32  0  0  1  0  0  0  0  0999 V2000
  190.4740  175.2320  144.2190 C   0  0  0  0  0  0  0  0  0  0  0  0
  187.8810  175.9480  146.2060 O   0  0  0  0  0  1  0  0  0  0  0  0
  186.8580  177.5410  139.9690 C   0  0  0  0  0  2  0  0  0  0  0  0
  192.5630  177.0580  144.6310 C   0  0  0  0  0  3  0  0  0  0  0  0
  185.9530  177.7880  142.2530 C   0  0  2  0  0  3  0  0  0  0  0  0
  189.4510  174.1960  143.8950 C   0  0  0  0  0  2  0  0  0  0  0  0
  189.5410  177.3850  147.0930 C   0  0  0  0  0  1  0  0  0  0  0  0
  188.1980  177.2970  146.3950 C   0  0  1  0  0  0  0  0  0  0  0  0
  185.7930  177.9380  146.6850 C   0  0  1  0  0  3  0  0  0  0  0  0
  188.2640  178.0650  145.0370 C   0  0  2  0  0  3  0  0  0  0  0  0
  187.7630  172.5530  141.5680 O   0  0  0  0  0  0  0  0  0  0  0  0
  187.7110  176.4250  143.3160 C   0  0  1  0  0  3  0  0  0  0  0  0
  185.8350  178.8600  145.4810 C   0  0  0  0  0  2  0  0  0  0  0  0
  187.1670  177.9160  147.3350 C   0  0  0  0  0  2  0  0  0  0  0  0
  188.2230  173.6990  141.8070 C   0  0  0  0  0  0  0  0  0  0  0  0
  190.2180  176.6260  144.1330 C   0  0  0  0  0  0  0  0  0  0  0  0
  186.8290  177.1500  141.2410 C   0  0  0  0  0  0  0  0  0  0  0  0
  184.8160  178.4330  147.6370 N   0  0  0  0  0  1  0  0  0  0  0  0
  187.4410  174.8520  141.4830 N   0  0  0  0  0  2  0  0  0  0  0  0
  191.2800  177.5180  144.3340 C   0  0  0  0  0  3  0  0  0  0  0  0
  191.7680  174.7820  144.5160 C   0  0  0  0  0  3  0  0  0  0  0  0
  192.8060  175.6890  144.7280 C   0  0  0  0  0  3  0  0  0  0  0  0
  189.5730  173.8280  142.4250 C   0  0  0  0  0  2  0  0  0  0  0  0
  186.4450  177.2490  143.5880 C   0  0  1  0  0  3  0  0  0  0  0  0
  187.8320  176.2190  141.8110 C   0  0  2  0  0  3  0  0  0  0  0  0
  186.8860  178.4150  144.4630 C   0  0  2  0  0  3  0  0  0  0  0  0
  184.6290  177.3940  142.0520 O   0  0  0  0  0  1  0  0  0  0  0  0
  188.8600  177.2580  143.8800 C   0  0  2  0  0  3  0  0  0  0  0  0
  1 21  1  0  0  0  0
  2  8  1  0  0  0  0
  3 17  2  0  0  0  0
  4 22  1  0  0  0  0
  5 27  1  6  0  0  0
  5 24  1  0  0  0  0
  6  1  1  0  0  0  0
  8  7  1  1  0  0  0
  8 14  1  0  0  0  0
  9 14  1  0  0  0  0
  9 18  1  1  0  0  0
 10  8  1  0  0  0  0
 11 15  2  0  0  0  0
 12 24  1  0  0  0  0
 12 28  1  0  0  0  0
 13  9  1  0  0  0  0
 15 23  1  0  0  0  0
 16  1  2  0  0  0  0
 16 20  1  0  0  0  0
 17 25  1  0  0  0  0
 17  5  1  0  0  0  0
 19 15  1  0  0  0  0
 19 25  1  0  0  0  0
 20  4  2  0  0  0  0
 21 22  2  0  0  0  0
 23  6  1  0  0  0  0
 24 26  1  0  0  0  0
 25 12  1  0  0  0  0
 26 10  1  0  0  0  0
 26 13  1  0  0  0  0
 28 16  1  0  0  0  0
 28 10  1  0  0  0  0
M  END
>  <MODEL>
2

>  <REMARK>
 VINA RESULT:      -8.9      2.097      5.096
  Name = 
  0 active torsions:
  status: ('A' for Active; 'I' for Inactive)
                            x       y       z     vdW  Elec       q    Type
                         _______ _______ _______ _____ _____    ______ ____

>  <TORSDO>
F 0

$$$$
=
 OpenBabel11112417433D

 28 32  0  0  1  0  0  0  0  0999 V2000
  187.8170  177.3150  144.7200 C   0  0  0  0  0  0  0  0  0  0  0  0
  191.0860  177.5810  144.0620 O   0  0  0  0  0  1  0  0  0  0  0  0
  188.1810  172.7690  140.7630 C   0  0  0  0  0  2  0  0  0  0  0  0
  187.4130  176.1920  147.2590 C   0  0  0  0  0  3  0  0  0  0  0  0
  190.3810  173.7300  141.3420 C   0  0  2  0  0  3  0  0  0  0  0  0
  187.8820  177.9160  143.3570 C   0  0  0  0  0  2  0  0  0  0  0  0
  191.1320  177.0050  146.3600 C   0  0  0  0  0  1  0  0  0  0  0  0
  191.5040  176.5850  144.9510 C   0  0  1  0  0  0  0  0  0  0  0  0
  193.4920  176.0050  143.5410 C   0  0  1  0  0  3  0  0  0  0  0  0
  190.8410  175.2100  144.6230 C   0  0  2  0  0  3  0  0  0  0  0  0
  186.8180  177.8790  140.2230 O   0  0  0  0  0  0  0  0  0  0  0  0
  189.4470  175.5950  142.6570 C   0  0  1  0  0  3  0  0  0  0  0  0
  193.0040  174.5830  143.3360 C   0  0  0  0  0  2  0  0  0  0  0  0
  193.0270  176.4930  144.9030 C   0  0  0  0  0  2  0  0  0  0  0  0
  187.1030  177.0900  141.1610 C   0  0  0  0  0  0  0  0  0  0  0  0
  188.4410  176.0840  145.0530 C   0  0  0  0  0  0  0  0  0  0  0  0
  188.9030  173.7850  141.2290 C   0  0  0  0  0  0  0  0  0  0  0  0
  194.9420  176.0280  143.4880 N   0  0  0  0  0  1  0  0  0  0  0  0
  187.8190  175.8860  140.8760 N   0  0  0  0  0  2  0  0  0  0  0  0
  188.2170  175.5380  146.3250 C   0  0  0  0  0  3  0  0  0  0  0  0
  187.0120  177.9620  145.6680 C   0  0  0  0  0  3  0  0  0  0  0  0
  186.8150  177.4090  146.9320 C   0  0  0  0  0  3  0  0  0  0  0  0
  186.6880  177.4340  142.5510 C   0  0  0  0  0  2  0  0  0  0  0  0
  190.7520  174.9480  142.1750 C   0  0  1  0  0  3  0  0  0  0  0  0
  188.2900  174.9570  141.8980 C   0  0  2  0  0  3  0  0  0  0  0  0
  191.4800  174.4890  143.4310 C   0  0  2  0  0  3  0  0  0  0  0  0
  190.9590  173.8370  140.0770 O   0  0  0  0  0  1  0  0  0  0  0  0
  189.3850  175.3040  144.1550 C   0  0  2  0  0  3  0  0  0  0  0  0
  1 16  2  0  0  0  0
  1 21  1  0  0  0  0
  2  8  1  0  0  0  0
  3 17  2  0  0  0  0
  5 27  1  6  0  0  0
  5 24  1  0  0  0  0
  6  1  1  0  0  0  0
  8  7  1  1  0  0  0
  9 18  1  1  0  0  0
  9 14  1  0  0  0  0
 10  8  1  0  0  0  0
 11 15  2  0  0  0  0
 12 28  1  0  0  0  0
 13 26  1  0  0  0  0
 13  9  1  0  0  0  0
 14  8  1  0  0  0  0
 15 23  1  0  0  0  0
 16 20  1  0  0  0  0
 17  5  1  0  0  0  0
 17 25  1  0  0  0  0
 19 15  1  0  0  0  0
 19 25  1  0  0  0  0
 20  4  2  0  0  0  0
 21 22  2  0  0  0  0
 22  4  1  0  0  0  0
 23  6  1  0  0  0  0
 24 12  1  0  0  0  0
 24 26  1  0  0  0  0
 25 12  1  0  0  0  0
 26 10  1  0  0  0  0
 28 10  1  0  0  0  0
 28 16  1  0  0  0  0
M  END
>  <MODEL>
3

>  <REMARK>
 VINA RESULT:      -8.2      1.727      2.320
  Name = 
  0 active torsions:
  status: ('A' for Active; 'I' for Inactive)
                            x       y       z     vdW  Elec       q    Type
                         _______ _______ _______ _____ _____    ______ ____

>  <TORSDO>
F 0

$$$$
=
 OpenBabel11112417433D

 28 32  0  0  1  0  0  0  0  0999 V2000
  191.2730  174.6060  142.1090 C   0  0  0  0  0  0  0  0  0  0  0  0
  189.2260  177.2500  142.1500 O   0  0  0  0  0  1  0  0  0  0  0  0
  191.0120  175.2910  148.1040 C   0  0  0  0  0  2  0  0  0  0  0  0
  189.8550  172.2730  141.4650 C   0  0  0  0  0  3  0  0  0  0  0  0
  189.4630  176.7810  146.8880 C   0  0  2  0  0  3  0  0  0  0  0  0
  192.1500  175.7590  142.4640 C   0  0  0  0  0  2  0  0  0  0  0  0
  187.8160  175.6000  141.1990 C   0  0  0  0  0  1  0  0  0  0  0  0
  188.0470  176.5310  142.3740 C   0  0  1  0  0  0  0  0  0  0  0  0
  186.9830  178.4380  143.6020 C   0  0  1  0  0  3  0  0  0  0  0  0
  188.1290  175.6970  143.6930 C   0  0  2  0  0  3  0  0  0  0  0  0
  194.4840  176.9980  144.4580 O   0  0  0  0  0  0  0  0  0  0  0  0
  190.3190  176.1830  144.6540 C   0  0  1  0  0  3  0  0  0  0  0  0
  186.8520  177.6210  144.8740 C   0  0  0  0  0  2  0  0  0  0  0  0
  186.8750  177.5070  142.4050 C   0  0  0  0  0  2  0  0  0  0  0  0
  193.4710  176.2520  144.4950 C   0  0  0  0  0  0  0  0  0  0  0  0
  190.1120  174.2610  142.8510 C   0  0  0  0  0  0  0  0  0  0  0  0
  190.6650  175.9190  146.9820 C   0  0  0  0  0  0  0  0  0  0  0  0
  185.9170  179.4210  143.5480 N   0  0  0  0  0  1  0  0  0  0  0  0
  192.5550  176.3620  145.5880 N   0  0  0  0  0  2  0  0  0  0  0  0
  189.4260  173.0850  142.5160 C   0  0  0  0  0  3  0  0  0  0  0  0
  191.6940  173.7810  141.0580 C   0  0  0  0  0  3  0  0  0  0  0  0
  190.9870  172.6250  140.7310 C   0  0  0  0  0  3  0  0  0  0  0  0
  193.2490  175.2720  143.3940 C   0  0  0  0  0  2  0  0  0  0  0  0
  189.2890  177.0430  145.3990 C   0  0  1  0  0  3  0  0  0  0  0  0
  191.3000  175.6230  145.6750 C   0  0  2  0  0  3  0  0  0  0  0  0
  187.9230  176.5330  144.9600 C   0  0  2  0  0  3  0  0  0  0  0  0
  189.6910  177.9890  147.5490 O   0  0  0  0  0  1  0  0  0  0  0  0
  189.5050  175.0850  143.9720 C   0  0  2  0  0  3  0  0  0  0  0  0
  1  6  1  0  0  0  0
  1 16  1  0  0  0  0
  2  8  1  0  0  0  0
  4 20  1  0  0  0  0
  5 17  1  0  0  0  0
  5 27  1  1  0  0  0
  6 23  1  0  0  0  0
  8  7  1  6  0  0  0
  8 14  1  0  0  0  0
  8 10  1  0  0  0  0
  9 18  1  6  0  0  0
  9 13  1  0  0  0  0
 10 28  1  0  0  0  0
 10 26  1  0  0  0  0
 11 15  2  0  0  0  0
 12 24  1  0  0  0  0
 12 25  1  0  0  0  0
 13 26  1  0  0  0  0
 14  9  1  0  0  0  0
 15 19  1  0  0  0  0
 16 28  1  0  0  0  0
 17  3  2  0  0  0  0
 19 25  1  0  0  0  0
 20 16  2  0  0  0  0
 21  1  2  0  0  0  0
 22 21  1  0  0  0  0
 22  4  2  0  0  0  0
 23 15  1  0  0  0  0
 24  5  1  0  0  0  0
 25 17  1  0  0  0  0
 26 24  1  0  0  0  0
 28 12  1  0  0  0  0
M  END
>  <MODEL>
4

>  <REMARK>
 VINA RESULT:      -8.0      2.224      6.269
  Name = 
  0 active torsions:
  status: ('A' for Active; 'I' for Inactive)
                            x       y       z     vdW  Elec       q    Type
                         _______ _______ _______ _____ _____    ______ ____

>  <TORSDO>
F 0

$$$$
=
 OpenBabel11112417433D

 28 32  0  0  1  0  0  0  0  0999 V2000
  188.9410  175.8430  144.7810 C   0  0  0  0  0  0  0  0  0  0  0  0
  192.1420  176.6130  144.1910 O   0  0  0  0  0  1  0  0  0  0  0  0
  190.4410  170.7560  141.8920 C   0  0  0  0  0  2  0  0  0  0  0  0
  188.5660  175.1970  147.4850 C   0  0  0  0  0  3  0  0  0  0  0  0
  192.3740  172.2310  142.3280 C   0  0  2  0  0  3  0  0  0  0  0  0
  188.9930  176.1570  143.3240 C   0  0  0  0  0  2  0  0  0  0  0  0
  192.1240  176.5330  146.5590 C   0  0  0  0  0  1  0  0  0  0  0  0
  192.6720  175.9200  145.2840 C   0  0  1  0  0  0  0  0  0  0  0  0
  194.8330  175.4740  144.0970 C   0  0  1  0  0  3  0  0  0  0  0  0
  192.3040  174.4030  145.2340 C   0  0  2  0  0  3  0  0  0  0  0  0
  188.1910  175.2780  140.2350 O   0  0  0  0  0  0  0  0  0  0  0  0
  191.0120  174.1000  143.1850 C   0  0  1  0  0  3  0  0  0  0  0  0
  194.6350  173.9720  144.1820 C   0  0  0  0  0  2  0  0  0  0  0  0
  194.1850  176.1250  145.3080 C   0  0  0  0  0  2  0  0  0  0  0  0
  188.5470  174.7680  141.3290 C   0  0  0  0  0  0  0  0  0  0  0  0
  189.7580  174.8520  145.3880 C   0  0  0  0  0  0  0  0  0  0  0  0
  190.9250  171.9690  142.1560 C   0  0  0  0  0  0  0  0  0  0  0  0
  196.2530  175.7740  144.0890 N   0  0  0  0  0  1  0  0  0  0  0  0
  189.4960  173.6970  141.3290 N   0  0  0  0  0  2  0  0  0  0  0  0
  189.5460  174.5400  146.7380 C   0  0  0  0  0  3  0  0  0  0  0  0
  187.9610  176.4930  145.5420 C   0  0  0  0  0  3  0  0  0  0  0  0
  187.7780  176.1790  146.8880 C   0  0  0  0  0  3  0  0  0  0  0  0
  187.9740  175.2950  142.5990 C   0  0  0  0  0  2  0  0  0  0  0  0
  192.4480  173.6410  142.8950 C   0  0  1  0  0  3  0  0  0  0  0  0
  190.0550  173.1060  142.5400 C   0  0  2  0  0  3  0  0  0  0  0  0
  193.1530  173.5990  144.2440 C   0  0  2  0  0  3  0  0  0  0  0  0
  193.0140  172.1940  141.0890 O   0  0  0  0  0  1  0  0  0  0  0  0
  190.8950  174.1100  144.7080 C   0  0  2  0  0  3  0  0  0  0  0  0
  1 16  2  0  0  0  0
  1 21  1  0  0  0  0
  2  8  1  0  0  0  0
  3 17  2  0  0  0  0
  5 27  1  6  0  0  0
  5 24  1  0  0  0  0
  6  1  1  0  0  0  0
  8 14  1  0  0  0  0
  8  7  1  1  0  0  0
  9 18  1  1  0  0  0
  9 13  1  0  0  0  0
  9 14  1  0  0  0  0
 10  8  1  0  0  0  0
 11 15  2  0  0  0  0
 12 28  1  0  0  0  0
 13 26  1  0  0  0  0
 15 23  1  0  0  0  0
 16 20  1  0  0  0  0
 17  5  1  0  0  0  0
 17 25  1  0  0  0  0
 19 15  1  0  0  0  0
 19 25  1  0  0  0  0
 20  4  2  0  0  0  0
 21 22  2  0  0  0  0
 22  4  1  0  0  0  0
 23  6  1  0  0  0  0
 24 12  1  0  0  0  0
 24 26  1  0  0  0  0
 25 12  1  0  0  0  0
 26 10  1  0  0  0  0
 28 10  1  0  0  0  0
 28 16  1  0  0  0  0
M  END
>  <MODEL>
5

>  <REMARK>
 VINA RESULT:      -7.7      2.454      3.726
  Name = 
  0 active torsions:
  status: ('A' for Active; 'I' for Inactive)
                            x       y       z     vdW  Elec       q    Type
                         _______ _______ _______ _____ _____    ______ ____

>  <TORSDO>
F 0

$$$$
=
 OpenBabel11112417433D

 28 32  0  0  1  0  0  0  0  0999 V2000
  188.4970  176.3220  145.6950 C   0  0  0  0  0  0  0  0  0  0  0  0
  189.3100  173.7450  143.7240 O   0  0  0  0  0  1  0  0  0  0  0  0
  194.3930  177.5410  145.2220 C   0  0  0  0  0  2  0  0  0  0  0  0
  187.1130  178.2780  144.2350 C   0  0  0  0  0  3  0  0  0  0  0  0
  193.6650  175.6840  143.7650 C   0  0  2  0  0  3  0  0  0  0  0  0
  189.2200  175.3740  146.5900 C   0  0  0  0  0  2  0  0  0  0  0  0
  187.8510  174.9570  142.3050 C   0  0  0  0  0  1  0  0  0  0  0  0
  189.2650  174.4510  142.5180 C   0  0  1  0  0  0  0  0  0  0  0  0
  191.0010  172.9840  141.4630 C   0  0  1  0  0  3  0  0  0  0  0  0
  190.2560  175.6590  142.5240 C   0  0  2  0  0  3  0  0  0  0  0  0
  191.5660  174.9160  148.8800 O   0  0  0  0  0  0  0  0  0  0  0  0
  191.3810  175.5850  144.6890 C   0  0  1  0  0  3  0  0  0  0  0  0
  191.9470  174.1520  141.2590 C   0  0  0  0  0  2  0  0  0  0  0  0
  189.5690  173.4880  141.3740 C   0  0  0  0  0  2  0  0  0  0  0  0
  191.3380  175.5950  147.8460 C   0  0  0  0  0  0  0  0  0  0  0  0
  189.0600  176.8360  144.4960 C   0  0  0  0  0  0  0  0  0  0  0  0
  193.5160  176.5800  144.9380 C   0  0  0  0  0  0  0  0  0  0  0  0
  191.2290  171.9920  140.4290 N   0  0  0  0  0  1  0  0  0  0  0  0
  192.3850  175.7970  146.8920 N   0  0  0  0  0  2  0  0  0  0  0  0
  188.3530  177.8190  143.7890 C   0  0  0  0  0  3  0  0  0  0  0  0
  187.2510  176.7920  146.1310 C   0  0  0  0  0  3  0  0  0  0  0  0
  186.5580  177.7590  145.4040 C   0  0  0  0  0  3  0  0  0  0  0  0
  189.9790  176.1710  147.6380 C   0  0  0  0  0  2  0  0  0  0  0  0
  192.3300  174.9620  143.6570 C   0  0  1  0  0  3  0  0  0  0  0  0
  192.2010  176.4750  145.6140 C   0  0  2  0  0  3  0  0  0  0  0  0
  191.7160  175.2540  142.2940 C   0  0  2  0  0  3  0  0  0  0  0  0
  194.6790  174.7540  144.0030 O   0  0  0  0  0  1  0  0  0  0  0  0
  190.3660  176.3810  143.8710 C   0  0  2  0  0  3  0  0  0  0  0  0
  1 21  1  0  0  0  0
  1  6  1  0  0  0  0
  4 22  1  0  0  0  0
  5 27  1  1  0  0  0
  5 17  1  0  0  0  0
  6 23  1  0  0  0  0
  8  7  1  6  0  0  0
  8 10  1  0  0  0  0
  8  2  1  0  0  0  0
  9 18  1  6  0  0  0
 10 28  1  0  0  0  0
 12 25  1  0  0  0  0
 13  9  1  0  0  0  0
 13 26  1  0  0  0  0
 14  9  1  0  0  0  0
 14  8  1  0  0  0  0
 15 11  2  0  0  0  0
 16  1  2  0  0  0  0
 17  3  2  0  0  0  0
 17 25  1  0  0  0  0
 19 15  1  0  0  0  0
 20  4  2  0  0  0  0
 20 16  1  0  0  0  0
 22 21  2  0  0  0  0
 23 15  1  0  0  0  0
 24  5  1  0  0  0  0
 24 12  1  0  0  0  0
 25 19  1  0  0  0  0
 26 10  1  0  0  0  0
 26 24  1  0  0  0  0
 28 16  1  0  0  0  0
 28 12  1  0  0  0  0
M  END
>  <MODEL>
6

>  <REMARK>
 VINA RESULT:      -7.5      2.444      5.582
  Name = 
  0 active torsions:
  status: ('A' for Active; 'I' for Inactive)
                            x       y       z     vdW  Elec       q    Type
                         _______ _______ _______ _____ _____    ______ ____

>  <TORSDO>
F 0

$$$$
=
 OpenBabel11112417433D

 28 32  0  0  1  0  0  0  0  0999 V2000
  190.1180  176.9470  145.6330 C   0  0  0  0  0  0  0  0  0  0  0  0
  192.3950  177.1690  143.1930 O   0  0  0  0  0  1  0  0  0  0  0  0
  187.7870  172.7120  142.0130 C   0  0  0  0  0  2  0  0  0  0  0  0
  191.1960  175.6430  147.8700 C   0  0  0  0  0  3  0  0  0  0  0  0
  189.9710  173.5620  141.2330 C   0  0  2  0  0  3  0  0  0  0  0  0
  189.4150  177.6500  144.5210 C   0  0  0  0  0  2  0  0  0  0  0  0
  193.7350  176.4150  144.9960 C   0  0  0  0  0  1  0  0  0  0  0  0
  193.1840  176.0950  143.6190 C   0  0  1  0  0  0  0  0  0  0  0  0
  193.9290  175.5690  141.2860 C   0  0  1  0  0  3  0  0  0  0  0  0
  192.3610  174.7690  143.6810 C   0  0  2  0  0  3  0  0  0  0  0  0
  186.7220  177.8860  142.6110 O   0  0  0  0  0  0  0  0  0  0  0  0
  190.1120  175.3460  142.9290 C   0  0  1  0  0  3  0  0  0  0  0  0
  193.3160  174.1820  141.3420 C   0  0  0  0  0  2  0  0  0  0  0  0
  194.3810  175.9640  142.6820 C   0  0  0  0  0  2  0  0  0  0  0  0
  187.4460  177.0190  143.1660 C   0  0  0  0  0  0  0  0  0  0  0  0
  190.7320  175.6760  145.4780 C   0  0  0  0  0  0  0  0  0  0  0  0
  188.7140  173.6680  142.0120 C   0  0  0  0  0  0  0  0  0  0  0  0
  195.0720  175.5540  140.3930 N   0  0  0  0  0  1  0  0  0  0  0  0
  187.7760  175.8210  142.4590 N   0  0  0  0  0  2  0  0  0  0  0  0
  191.2560  175.0400  146.6130 C   0  0  0  0  0  3  0  0  0  0  0  0
  190.0640  177.5410  146.9010 C   0  0  0  0  0  3  0  0  0  0  0  0
  190.6060  176.8970  148.0130 C   0  0  0  0  0  3  0  0  0  0  0  0
  187.9460  177.2660  144.5490 C   0  0  0  0  0  2  0  0  0  0  0  0
  190.8420  174.7010  141.7430 C   0  0  1  0  0  3  0  0  0  0  0  0
  188.6890  174.8020  142.9660 C   0  0  2  0  0  3  0  0  0  0  0  0
  192.1330  174.1250  142.3090 C   0  0  2  0  0  3  0  0  0  0  0  0
  189.7070  173.7500  139.8760 O   0  0  0  0  0  1  0  0  0  0  0  0
  190.9170  174.9410  144.1620 C   0  0  2  0  0  3  0  0  0  0  0  0
  1 21  1  0  0  0  0
  2  8  1  0  0  0  0
  4 22  1  0  0  0  0
  5 27  1  6  0  0  0
  5 24  1  0  0  0  0
  5 17  1  0  0  0  0
  6 23  1  0  0  0  0
  6  1  1  0  0  0  0
  8 10  1  0  0  0  0
  8  7  1  1  0  0  0
  9 18  1  6  0  0  0
  9 13  1  0  0  0  0
  9 14  1  0  0  0  0
 10 28  1  0  0  0  0
 11 15  2  0  0  0  0
 12 25  1  0  0  0  0
 12 28  1  0  0  0  0
 13 26  1  0  0  0  0
 14  8  1  0  0  0  0
 15 23  1  0  0  0  0
 16  1  2  0  0  0  0
 16 20  1  0  0  0  0
 17  3  2  0  0  0  0
 17 25  1  0  0  0  0
 19 25  1  0  0  0  0
 19 15  1  0  0  0  0
 20  4  2  0  0  0  0
 21 22  2  0  0  0  0
 24 26  1  0  0  0  0
 24 12  1  0  0  0  0
 26 10  1  0  0  0  0
 28 16  1  0  0  0  0
M  END
>  <MODEL>
7

>  <REMARK>
 VINA RESULT:      -7.5      2.651      4.306
  Name = 
  0 active torsions:
  status: ('A' for Active; 'I' for Inactive)
                            x       y       z     vdW  Elec       q    Type
                         _______ _______ _______ _____ _____    ______ ____

>  <TORSDO>
F 0

$$$$
=
 OpenBabel11112417433D

 28 32  0  0  1  0  0  0  0  0999 V2000
  191.1030  174.5130  145.1550 C   0  0  0  0  0  0  0  0  0  0  0  0
  193.7820  175.6110  143.4810 O   0  0  0  0  0  1  0  0  0  0  0  0
  194.5690  169.6330  145.9560 C   0  0  0  0  0  2  0  0  0  0  0  0
  190.8900  175.8110  147.6330 C   0  0  0  0  0  3  0  0  0  0  0  0
  195.7640  171.5060  144.8760 C   0  0  2  0  0  3  0  0  0  0  0  0
  191.0920  173.7450  143.8770 C   0  0  0  0  0  2  0  0  0  0  0  0
  193.6950  177.1660  145.2670 C   0  0  0  0  0  1  0  0  0  0  0  0
  194.4910  176.0600  144.6000 C   0  0  1  0  0  0  0  0  0  0  0  0
  196.7050  175.6220  143.5130 C   0  0  1  0  0  3  0  0  0  0  0  0
  194.7380  174.9050  145.6220 C   0  0  2  0  0  3  0  0  0  0  0  0
  190.8240  170.8090  142.3720 O   0  0  0  0  0  0  0  0  0  0  0  0
  193.7520  172.9090  144.6220 C   0  0  1  0  0  3  0  0  0  0  0  0
  197.0980  174.6230  144.5850 C   0  0  0  0  0  2  0  0  0  0  0  0
  195.8050  176.6790  144.1320 C   0  0  0  0  0  2  0  0  0  0  0  0
  191.3020  171.3250  143.4150 C   0  0  0  0  0  0  0  0  0  0  0  0
  192.2120  174.5220  146.0430 C   0  0  0  0  0  0  0  0  0  0  0  0
  194.5360  170.7670  145.2580 C   0  0  0  0  0  0  0  0  0  0  0  0
  197.8990  176.2550  142.9830 N   0  0  0  0  0  1  0  0  0  0  0  0
  192.5890  170.9090  143.8800 N   0  0  0  0  0  2  0  0  0  0  0  0
  192.0780  175.1690  147.2790 C   0  0  0  0  0  3  0  0  0  0  0  0
  189.9160  175.1600  145.5230 C   0  0  0  0  0  3  0  0  0  0  0  0
  189.8100  175.8120  146.7510 C   0  0  0  0  0  3  0  0  0  0  0  0
  190.5160  172.3640  144.1390 C   0  0  0  0  0  2  0  0  0  0  0  0
  195.2640  172.8500  144.3690 C   0  0  1  0  0  3  0  0  0  0  0  0
  193.2800  171.5140  145.0130 C   0  0  2  0  0  3  0  0  0  0  0  0
  195.8730  173.9600  145.2160 C   0  0  2  0  0  3  0  0  0  0  0  0
  196.4210  170.8340  143.8450 O   0  0  0  0  0  1  0  0  0  0  0  0
  193.5740  173.9170  145.7560 C   0  0  2  0  0  3  0  0  0  0  0  0
  1 21  2  0  0  0  0
  1 16  1  0  0  0  0
  2  8  1  0  0  0  0
  5 27  1  6  0  0  0
  5 17  1  0  0  0  0
  6 23  1  0  0  0  0
  6  1  1  0  0  0  0
  8  7  1  1  0  0  0
  8 10  1  0  0  0  0
  9 18  1  1  0  0  0
  9 14  1  0  0  0  0
  9 13  1  0  0  0  0
 10 28  1  0  0  0  0
 11 15  2  0  0  0  0
 12 25  1  0  0  0  0
 12 28  1  0  0  0  0
 13 26  1  0  0  0  0
 14  8  1  0  0  0  0
 15 19  1  0  0  0  0
 15 23  1  0  0  0  0
 16 20  2  0  0  0  0
 17  3  2  0  0  0  0
 19 25  1  0  0  0  0
 20  4  1  0  0  0  0
 21 22  1  0  0  0  0
 22  4  2  0  0  0  0
 24 12  1  0  0  0  0
 24  5  1  0  0  0  0
 24 26  1  0  0  0  0
 25 17  1  0  0  0  0
 26 10  1  0  0  0  0
 28 16  1  0  0  0  0
M  END
>  <MODEL>
8

>  <REMARK>
 VINA RESULT:      -7.4      4.361      6.698
  Name = 
  0 active torsions:
  status: ('A' for Active; 'I' for Inactive)
                            x       y       z     vdW  Elec       q    Type
                         _______ _______ _______ _____ _____    ______ ____

>  <TORSDO>
F 0

$$$$
=
 OpenBabel11112417433D

 28 32  0  0  1  0  0  0  0  0999 V2000
  192.7490  174.8470  145.5320 C   0  0  0  0  0  0  0  0  0  0  0  0
  189.6540  175.2430  146.7360 O   0  0  0  0  0  1  0  0  0  0  0  0
  189.7940  174.1650  140.3090 C   0  0  0  0  0  2  0  0  0  0  0  0
  194.0870  177.3110  145.4280 C   0  0  0  0  0  3  0  0  0  0  0  0
  188.3240  174.8400  142.1760 C   0  0  2  0  0  3  0  0  0  0  0  0
  192.1630  173.4760  145.5280 C   0  0  0  0  0  2  0  0  0  0  0  0
  190.5840  177.3780  147.1670 C   0  0  0  0  0  1  0  0  0  0  0  0
  189.5310  176.5960  146.4070 C   0  0  1  0  0  0  0  0  0  0  0  0
  187.0480  176.4170  146.1220 C   0  0  1  0  0  3  0  0  0  0  0  0
  189.7130  176.8300  144.8730 C   0  0  2  0  0  3  0  0  0  0  0  0
  191.6170  170.6630  143.8700 O   0  0  0  0  0  0  0  0  0  0  0  0
  190.0730  174.6210  143.9000 C   0  0  1  0  0  3  0  0  0  0  0  0
  187.1280  176.8300  144.6640 C   0  0  0  0  0  2  0  0  0  0  0  0
  188.1720  177.0970  146.8880 C   0  0  0  0  0  2  0  0  0  0  0  0
  191.6700  171.9070  143.6820 C   0  0  0  0  0  0  0  0  0  0  0  0
  192.1470  175.9470  144.8650 C   0  0  0  0  0  0  0  0  0  0  0  0
  189.5620  174.2450  141.6180 C   0  0  0  0  0  0  0  0  0  0  0  0
  185.7700  176.8320  146.6710 N   0  0  0  0  0  1  0  0  0  0  0  0
  190.7050  172.5320  142.8320 N   0  0  0  0  0  2  0  0  0  0  0  0
  192.8400  177.1660  144.8180 C   0  0  0  0  0  3  0  0  0  0  0  0
  194.0020  175.0060  146.1390 C   0  0  0  0  0  3  0  0  0  0  0  0
  194.6650  176.2320  146.0940 C   0  0  0  0  0  3  0  0  0  0  0  0
  192.7380  172.6990  144.3560 C   0  0  0  0  0  2  0  0  0  0  0  0
  188.6030  174.9930  143.6640 C   0  0  1  0  0  3  0  0  0  0  0  0
  190.6110  173.9740  142.6300 C   0  0  2  0  0  3  0  0  0  0  0  0
  188.4770  176.4620  144.0450 C   0  0  2  0  0  3  0  0  0  0  0  0
  187.2520  173.9670  141.9910 O   0  0  0  0  0  1  0  0  0  0  0  0
  190.7740  175.9410  144.2170 C   0  0  2  0  0  3  0  0  0  0  0  0
  1 21  1  0  0  0  0
  3 17  2  0  0  0  0
  4 22  1  0  0  0  0
  5 27  1  1  0  0  0
  5 24  1  0  0  0  0
  6  1  1  0  0  0  0
  8  2  1  0  0  0  0
  8 14  1  0  0  0  0
  8  7  1  1  0  0  0
  9 18  1  1  0  0  0
  9 14  1  0  0  0  0
 10  8  1  0  0  0  0
 12 28  1  0  0  0  0
 13  9  1  0  0  0  0
 15 11  2  0  0  0  0
 15 23  1  0  0  0  0
 16  1  2  0  0  0  0
 17  5  1  0  0  0  0
 17 25  1  0  0  0  0
 19 15  1  0  0  0  0
 20 16  1  0  0  0  0
 20  4  2  0  0  0  0
 22 21  2  0  0  0  0
 23  6  1  0  0  0  0
 24 12  1  0  0  0  0
 24 26  1  0  0  0  0
 25 19  1  0  0  0  0
 25 12  1  0  0  0  0
 26 13  1  0  0  0  0
 26 10  1  0  0  0  0
 28 16  1  0  0  0  0
 28 10  1  0  0  0  0
M  END
>  <MODEL>
9

>  <REMARK>
 VINA RESULT:      -7.2      2.517      5.748
  Name = 
  0 active torsions:
  status: ('A' for Active; 'I' for Inactive)
                            x       y       z     vdW  Elec       q    Type
                         _______ _______ _______ _____ _____    ______ ____

>  <TORSDO>
F 0

$$$$
