=
 OpenBabel11112416393D

 32 37  0  0  1  0  0  0  0  0999 V2000
  187.1220  177.7770  142.8700 C   0  0  2  0  0  3  0  0  0  0  0  0
  184.5020  178.4540  147.0010 C   0  0  0  0  0  3  0  0  0  0  0  0
  185.5640  177.9690  147.7610 C   0  0  0  0  0  3  0  0  0  0  0  0
  189.4440  176.8550  143.2120 C   0  0  0  0  0  0  0  0  0  0  0  0
  190.5210  176.3040  144.1080 C   0  0  1  0  0  3  0  0  0  0  0  0
  185.7830  177.5880  140.8400 N   0  0  0  0  0  0  0  0  0  0  0  0
  184.6860  178.5130  142.7760 C   0  0  0  0  0  3  0  0  0  0  0  0
  191.1500  175.8620  146.2640 N   0  0  0  0  0  0  0  0  0  0  0  0
  184.6060  178.5010  145.6120 C   0  0  0  0  0  3  0  0  0  0  0  0
  185.8470  178.1190  143.6060 C   0  0  0  0  0  0  0  0  0  0  0  0
  185.7740  178.0730  144.9540 C   0  0  0  0  0  0  0  0  0  0  0  0
  187.9650  177.0880  145.1460 C   0  0  0  0  0  0  0  0  0  0  0  0
  192.0810  176.7930  145.7420 N   0  0  0  0  0  2  0  0  0  0  0  0
  184.6810  178.2960  141.4520 C   0  0  0  0  0  0  0  0  0  0  0  0
  191.5560  177.2960  144.4840 C   0  0  0  0  0  2  0  0  0  0  0  0
  186.7250  177.5250  147.1290 C   0  0  0  0  0  3  0  0  0  0  0  0
  186.8490  177.5650  145.7300 C   0  0  0  0  0  0  0  0  0  0  0  0
  189.0330  176.5530  145.9340 N   0  0  0  0  0  2  0  0  0  0  0  0
  186.7690  176.8990  141.6710 C   0  0  0  0  0  2  0  0  0  0  0  0
  189.7180  177.0740  142.0010 O   0  0  0  0  0  0  0  0  0  0  0  0
  191.8080  174.5650  146.3050 C   0  0  0  0  0  1  0  0  0  0  0  0
  188.1350  177.1500  143.7270 N   0  0  0  0  0  0  0  0  0  0  0  0
  190.0540  175.7560  145.3780 N   0  0  1  0  0  0  0  0  0  0  0  0
  182.7910  177.5430  140.1900 O   0  0  0  0  0  0  0  0  0  0  0  0
  183.4750  178.6900  140.6460 C   0  0  1  0  0  3  0  0  0  0  0  0
  182.2320  178.2080  141.2950 C   0  0  1  0  0  3  0  0  0  0  0  0
  181.0510  179.0360  140.8250 C   0  0  0  0  0  2  0  0  0  0  0  0
  179.8250  178.1930  140.7770 C   0  0  0  0  0  0  0  0  0  0  0  0
  179.2040  178.0450  139.6920 O   0  0  0  0  0  0  0  0  0  0  0  0
  179.3860  177.5420  141.9210 O   0  0  0  0  0  1  0  0  0  0  0  0
  186.9300  176.5650  139.0870 O   0  0  0  0  0  1  0  0  0  0  0  0
  185.9140  177.4700  139.3960 C   0  0  0  0  0  2  0  0  0  0  0  0
  1 19  1  6  0  0  0
  1 10  1  0  0  0  0
  1 22  1  0  0  0  0
  2  3  1  0  0  0  0
  4 22  1  0  0  0  0
  4  5  1  0  0  0  0
  5 15  1  1  0  0  0
  5 23  1  0  0  0  0
  6 14  1  0  0  0  0
  6 19  1  0  0  0  0
  7 10  1  0  0  0  0
  8 21  1  0  0  0  0
  9  2  2  0  0  0  0
 10 11  2  0  0  0  0
 11  9  1  0  0  0  0
 11 17  1  0  0  0  0
 12 17  2  0  0  0  0
 12 18  1  0  0  0  0
 13  8  1  0  0  0  0
 14  7  2  0  0  0  0
 15 13  1  0  0  0  0
 16  3  2  0  0  0  0
 17 16  1  0  0  0  0
 20  4  2  0  0  0  0
 22 12  1  0  0  0  0
 23 18  1  1  0  0  0
 23  8  1  0  0  0  0
 24 25  1  0  0  0  0
 24 26  1  0  0  0  0
 25 26  1  0  0  0  0
 25 14  1  1  0  0  0
 26 27  1  6  0  0  0
 28 27  1  0  0  0  0
 28 30  1  0  0  0  0
 29 28  2  0  0  0  0
 31 32  1  0  0  0  0
 32  6  1  0  0  0  0
M  END
>  <MODEL>
1

>  <REMARK>
 VINA RESULT:      -8.6      0.000      0.000
  Name = 
  4 active torsions:
  status: ('A' for Active; 'I' for Inactive)
    1  A    between atoms: N_7  and  C_19
    2  A    between atoms: C_10  and  C_17
    3  A    between atoms: C_20  and  C_29
    4  A    between atoms: C_29  and  C_30
                            x       y       z     vdW  Elec       q    Type
                         _______ _______ _______ _____ _____    ______ ____

>  <TORSDO>
F 4

$$$$
=
 OpenBabel11112416393D

 32 37  0  0  1  0  0  0  0  0999 V2000
  190.3240  176.1130  144.2660 C   0  0  2  0  0  3  0  0  0  0  0  0
  190.2130  178.1610  148.7590 C   0  0  0  0  0  3  0  0  0  0  0  0
  191.5170  177.7330  148.9930 C   0  0  0  0  0  3  0  0  0  0  0  0
  192.4940  174.9810  143.6580 C   0  0  0  0  0  0  0  0  0  0  0  0
  193.8820  174.5200  144.0150 C   0  0  1  0  0  3  0  0  0  0  0  0
  188.1300  175.6220  143.3210 N   0  0  0  0  0  0  0  0  0  0  0  0
  188.1870  177.1450  145.1870 C   0  0  0  0  0  3  0  0  0  0  0  0
  195.5370  174.5410  145.5970 N   0  0  0  0  0  0  0  0  0  0  0  0
  189.5830  177.8470  147.5550 C   0  0  0  0  0  3  0  0  0  0  0  0
  189.6120  176.8060  145.4040 C   0  0  0  0  0  0  0  0  0  0  0  0
  190.2460  177.1060  146.5580 C   0  0  0  0  0  0  0  0  0  0  0  0
  192.2260  175.8960  145.9110 C   0  0  0  0  0  0  0  0  0  0  0  0
  196.0600  175.1700  144.4400 N   0  0  0  0  0  2  0  0  0  0  0  0
  187.4990  176.6090  144.1680 C   0  0  0  0  0  0  0  0  0  0  0  0
  194.9580  175.4160  143.5260 C   0  0  0  0  0  2  0  0  0  0  0  0
  192.1870  176.9840  148.0260 C   0  0  0  0  0  3  0  0  0  0  0  0
  191.5700  176.6580  146.8060 C   0  0  0  0  0  0  0  0  0  0  0  0
  193.5500  175.4260  146.1790 N   0  0  0  0  0  2  0  0  0  0  0  0
  189.4080  175.0260  143.7110 C   0  0  0  0  0  2  0  0  0  0  0  0
  192.1020  174.8510  142.4670 O   0  0  0  0  0  0  0  0  0  0  0  0
  196.1290  173.2140  145.6750 C   0  0  0  0  0  1  0  0  0  0  0  0
  191.6390  175.5790  144.6450 N   0  0  0  0  0  0  0  0  0  0  0  0
  194.1420  174.3770  145.4450 N   0  0  1  0  0  0  0  0  0  0  0  0
  185.7910  178.2540  144.4940 O   0  0  0  0  0  0  0  0  0  0  0  0
  186.0480  176.9600  143.9930 C   0  0  1  0  0  3  0  0  0  0  0  0
  185.8980  178.1330  143.0980 C   0  0  1  0  0  3  0  0  0  0  0  0
  184.5070  178.1460  142.4950 C   0  0  0  0  0  2  0  0  0  0  0  0
  184.5950  178.2430  141.0120 C   0  0  0  0  0  0  0  0  0  0  0  0
  185.7200  178.2970  140.4500 O   0  0  0  0  0  1  0  0  0  0  0  0
  183.4370  178.2380  140.2470 O   0  0  0  0  0  0  0  0  0  0  0  0
  187.9690  175.8470  141.0060 O   0  0  0  0  0  1  0  0  0  0  0  0
  187.4970  175.1310  142.1060 C   0  0  0  0  0  2  0  0  0  0  0  0
  1 19  1  1  0  0  0
  1 22  1  0  0  0  0
  1 10  1  0  0  0  0
  2  3  1  0  0  0  0
  4  5  1  0  0  0  0
  4 22  1  0  0  0  0
  5 15  1  1  0  0  0
  5 23  1  0  0  0  0
  6 19  1  0  0  0  0
  6 14  1  0  0  0  0
  7 10  1  0  0  0  0
  8 21  1  0  0  0  0
  9  2  2  0  0  0  0
 10 11  2  0  0  0  0
 11 17  1  0  0  0  0
 11  9  1  0  0  0  0
 12 18  1  0  0  0  0
 12 17  2  0  0  0  0
 13  8  1  0  0  0  0
 14  7  2  0  0  0  0
 15 13  1  0  0  0  0
 16  3  2  0  0  0  0
 17 16  1  0  0  0  0
 20  4  2  0  0  0  0
 22 12  1  0  0  0  0
 23  8  1  0  0  0  0
 23 18  1  1  0  0  0
 25 14  1  1  0  0  0
 25 24  1  0  0  0  0
 26 27  1  6  0  0  0
 26 25  1  0  0  0  0
 26 24  1  0  0  0  0
 28 27  1  0  0  0  0
 29 28  1  0  0  0  0
 30 28  2  0  0  0  0
 31 32  1  0  0  0  0
 32  6  1  0  0  0  0
M  END
>  <MODEL>
2

>  <REMARK>
 VINA RESULT:      -7.7      2.692      4.552
  Name = 
  4 active torsions:
  status: ('A' for Active; 'I' for Inactive)
    1  A    between atoms: N_7  and  C_19
    2  A    between atoms: C_10  and  C_17
    3  A    between atoms: C_20  and  C_29
    4  A    between atoms: C_29  and  C_30
                            x       y       z     vdW  Elec       q    Type
                         _______ _______ _______ _____ _____    ______ ____

>  <TORSDO>
F 4

$$$$
=
 OpenBabel11112416393D

 32 37  0  0  1  0  0  0  0  0999 V2000
  190.9980  175.9450  143.2270 C   0  0  2  0  0  3  0  0  0  0  0  0
  190.5710  177.1680  147.9920 C   0  0  0  0  0  3  0  0  0  0  0  0
  191.9310  176.9330  148.1810 C   0  0  0  0  0  3  0  0  0  0  0  0
  193.3250  175.3120  142.4870 C   0  0  0  0  0  0  0  0  0  0  0  0
  194.7730  175.0390  142.7930 C   0  0  1  0  0  3  0  0  0  0  0  0
  188.9130  175.2550  142.1660 N   0  0  0  0  0  0  0  0  0  0  0  0
  188.7230  176.4330  144.2590 C   0  0  0  0  0  3  0  0  0  0  0  0
  196.4110  175.0750  144.3920 N   0  0  0  0  0  0  0  0  0  0  0  0
  189.9960  176.9570  146.7400 C   0  0  0  0  0  3  0  0  0  0  0  0
  190.1860  176.3080  144.4480 C   0  0  0  0  0  0  0  0  0  0  0  0
  190.7680  176.5150  145.6490 C   0  0  0  0  0  0  0  0  0  0  0  0
  192.9200  175.7810  144.8540 C   0  0  0  0  0  0  0  0  0  0  0  0
  196.8110  175.9670  143.3670 N   0  0  0  0  0  2  0  0  0  0  0  0
  188.1290  175.9670  143.1500 C   0  0  0  0  0  0  0  0  0  0  0  0
  195.6780  176.1720  142.4820 C   0  0  0  0  0  2  0  0  0  0  0  0
  192.7120  176.4790  147.1180 C   0  0  0  0  0  3  0  0  0  0  0  0
  192.1510  176.2620  145.8480 C   0  0  0  0  0  0  0  0  0  0  0  0
  194.3070  175.5030  145.0690 N   0  0  0  0  0  2  0  0  0  0  0  0
  190.2760  174.8260  142.4790 C   0  0  0  0  0  2  0  0  0  0  0  0
  192.9520  175.3180  141.2820 O   0  0  0  0  0  0  0  0  0  0  0  0
  197.2210  173.8730  144.2630 C   0  0  0  0  0  1  0  0  0  0  0  0
  192.3870  175.5850  143.5410 N   0  0  0  0  0  0  0  0  0  0  0  0
  195.0630  174.7060  144.1850 N   0  0  1  0  0  0  0  0  0  0  0  0
  186.1050  176.8670  144.0560 O   0  0  0  0  0  0  0  0  0  0  0  0
  186.6380  176.0920  143.0040 C   0  0  1  0  0  3  0  0  0  0  0  0
  186.2490  177.5100  142.8150 C   0  0  1  0  0  3  0  0  0  0  0  0
  184.8940  177.5860  142.1390 C   0  0  0  0  0  2  0  0  0  0  0  0
  185.0420  178.1250  140.7600 C   0  0  0  0  0  0  0  0  0  0  0  0
  184.0940  178.7560  140.2240 O   0  0  0  0  0  1  0  0  0  0  0  0
  186.2390  177.9620  140.0760 O   0  0  0  0  0  0  0  0  0  0  0  0
  188.3800  173.4850  140.7450 O   0  0  0  0  0  1  0  0  0  0  0  0
  188.3640  174.8740  140.8740 C   0  0  0  0  0  2  0  0  0  0  0  0
  1 19  1  1  0  0  0
  1 22  1  0  0  0  0
  1 10  1  0  0  0  0
  2  3  1  0  0  0  0
  4  5  1  0  0  0  0
  4 22  1  0  0  0  0
  5 15  1  1  0  0  0
  5 23  1  0  0  0  0
  6 19  1  0  0  0  0
  6 14  1  0  0  0  0
  7 10  1  0  0  0  0
  9  2  2  0  0  0  0
 10 11  2  0  0  0  0
 11 17  1  0  0  0  0
 11  9  1  0  0  0  0
 12 18  1  0  0  0  0
 12 17  2  0  0  0  0
 13  8  1  0  0  0  0
 14  7  2  0  0  0  0
 15 13  1  0  0  0  0
 16  3  2  0  0  0  0
 17 16  1  0  0  0  0
 20  4  2  0  0  0  0
 21  8  1  0  0  0  0
 22 12  1  0  0  0  0
 23  8  1  0  0  0  0
 23 18  1  1  0  0  0
 25 14  1  1  0  0  0
 25 24  1  0  0  0  0
 26 27  1  6  0  0  0
 26 25  1  0  0  0  0
 26 24  1  0  0  0  0
 28 27  1  0  0  0  0
 29 28  1  0  0  0  0
 30 28  2  0  0  0  0
 31 32  1  0  0  0  0
 32  6  1  0  0  0  0
M  END
>  <MODEL>
3

>  <REMARK>
 VINA RESULT:      -7.5      3.014      5.060
  Name = 
  4 active torsions:
  status: ('A' for Active; 'I' for Inactive)
    1  A    between atoms: N_7  and  C_19
    2  A    between atoms: C_10  and  C_17
    3  A    between atoms: C_20  and  C_29
    4  A    between atoms: C_29  and  C_30
                            x       y       z     vdW  Elec       q    Type
                         _______ _______ _______ _____ _____    ______ ____

>  <TORSDO>
F 4

$$$$
=
 OpenBabel11112416393D

 32 37  0  0  1  0  0  0  0  0999 V2000
  188.9460  176.1080  144.5770 C   0  0  2  0  0  3  0  0  0  0  0  0
  188.6520  174.0950  140.0770 C   0  0  0  0  0  3  0  0  0  0  0  0
  190.0120  173.7930  140.1170 C   0  0  0  0  0  3  0  0  0  0  0  0
  191.2340  176.0350  145.6370 C   0  0  0  0  0  0  0  0  0  0  0  0
  192.7020  175.7110  145.5740 C   0  0  1  0  0  3  0  0  0  0  0  0
  187.1710  177.6980  145.0950 N   0  0  0  0  0  0  0  0  0  0  0  0
  186.7950  176.2310  143.2210 C   0  0  0  0  0  3  0  0  0  0  0  0
  194.3800  174.7540  144.3450 N   0  0  0  0  0  0  0  0  0  0  0  0
  188.0570  174.7630  141.1460 C   0  0  0  0  0  3  0  0  0  0  0  0
  188.2080  175.7920  143.2970 C   0  0  0  0  0  0  0  0  0  0  0  0
  188.8050  175.1370  142.2790 C   0  0  0  0  0  0  0  0  0  0  0  0
  190.9640  175.2290  143.3430 C   0  0  0  0  0  0  0  0  0  0  0  0
  194.2870  174.0270  145.5570 N   0  0  0  0  0  2  0  0  0  0  0  0
  186.2970  177.1070  144.1060 C   0  0  0  0  0  0  0  0  0  0  0  0
  193.0650  174.4310  146.2300 C   0  0  0  0  0  2  0  0  0  0  0  0
  190.7750  174.1670  141.2220 C   0  0  0  0  0  3  0  0  0  0  0  0
  190.1930  174.8410  142.3100 C   0  0  0  0  0  0  0  0  0  0  0  0
  192.3670  174.9510  143.3550 N   0  0  0  0  0  2  0  0  0  0  0  0
  188.6210  177.5440  144.9830 C   0  0  0  0  0  2  0  0  0  0  0  0
  190.7470  176.4250  146.7330 O   0  0  0  0  0  0  0  0  0  0  0  0
  195.5640  175.5950  144.4320 C   0  0  0  0  0  1  0  0  0  0  0  0
  190.3940  175.8820  144.4810 N   0  0  0  0  0  0  0  0  0  0  0  0
  193.2590  175.6070  144.2280 N   0  0  1  0  0  0  0  0  0  0  0  0
  184.7790  178.9540  143.9910 O   0  0  0  0  0  0  0  0  0  0  0  0
  184.8650  177.5450  143.9820 C   0  0  1  0  0  3  0  0  0  0  0  0
  184.6620  178.3270  142.7390 C   0  0  1  0  0  3  0  0  0  0  0  0
  183.2000  178.2910  142.3400 C   0  0  0  0  0  2  0  0  0  0  0  0
  183.0770  178.2880  140.8560 C   0  0  0  0  0  0  0  0  0  0  0  0
  184.0890  178.5000  140.1380 O   0  0  0  0  0  0  0  0  0  0  0  0
  181.8510  178.0150  140.2630 O   0  0  0  0  0  1  0  0  0  0  0  0
  186.4500  177.7330  147.3110 O   0  0  0  0  0  1  0  0  0  0  0  0
  186.6590  178.5210  146.1790 C   0  0  0  0  0  2  0  0  0  0  0  0
  1 19  1  6  0  0  0
  2  3  1  0  0  0  0
  2  9  2  0  0  0  0
  3 16  2  0  0  0  0
  4 20  2  0  0  0  0
  5  4  1  0  0  0  0
  5 15  1  6  0  0  0
  6 32  1  0  0  0  0
  7 10  1  0  0  0  0
  7 14  2  0  0  0  0
  8 21  1  0  0  0  0
  8 13  1  0  0  0  0
  9 11  1  0  0  0  0
 10  1  1  0  0  0  0
 11 17  1  0  0  0  0
 11 10  2  0  0  0  0
 12 18  1  0  0  0  0
 12 22  1  0  0  0  0
 13 15  1  0  0  0  0
 14  6  1  0  0  0  0
 16 17  1  0  0  0  0
 17 12  2  0  0  0  0
 19  6  1  0  0  0  0
 22  1  1  0  0  0  0
 22  4  1  0  0  0  0
 23 18  1  6  0  0  0
 23  8  1  0  0  0  0
 23  5  1  0  0  0  0
 25 24  1  0  0  0  0
 25 14  1  6  0  0  0
 26 27  1  1  0  0  0
 26 25  1  0  0  0  0
 26 24  1  0  0  0  0
 28 27  1  0  0  0  0
 29 28  2  0  0  0  0
 30 28  1  0  0  0  0
 32 31  1  0  0  0  0
M  END
>  <MODEL>
4

>  <REMARK>
 VINA RESULT:      -7.3      2.706      4.957
  Name = 
  4 active torsions:
  status: ('A' for Active; 'I' for Inactive)
    1  A    between atoms: N_7  and  C_19
    2  A    between atoms: C_10  and  C_17
    3  A    between atoms: C_20  and  C_29
    4  A    between atoms: C_29  and  C_30
                            x       y       z     vdW  Elec       q    Type
                         _______ _______ _______ _____ _____    ______ ____

>  <TORSDO>
F 4

$$$$
=
 OpenBabel11112416393D

 32 37  0  0  1  0  0  0  0  0999 V2000
  191.6380  175.3970  144.0590 C   0  0  2  0  0  3  0  0  0  0  0  0
  191.5640  177.3270  148.6050 C   0  0  0  0  0  3  0  0  0  0  0  0
  190.2960  177.8510  148.3680 C   0  0  0  0  0  3  0  0  0  0  0  0
  189.5660  175.8160  142.6840 C   0  0  0  0  0  0  0  0  0  0  0  0
  188.2170  176.4560  142.5010 C   0  0  1  0  0  3  0  0  0  0  0  0
  193.8690  174.9240  143.1940 N   0  0  0  0  0  0  0  0  0  0  0  0
  193.6840  175.2790  145.5700 C   0  0  0  0  0  3  0  0  0  0  0  0
  186.5560  177.6900  143.4820 N   0  0  0  0  0  0  0  0  0  0  0  0
  192.2230  176.6200  147.6000 C   0  0  0  0  0  3  0  0  0  0  0  0
  192.2880  175.7360  145.3810 C   0  0  0  0  0  0  0  0  0  0  0  0
  191.6260  176.4160  146.3410 C   0  0  0  0  0  0  0  0  0  0  0  0
  189.7500  176.8490  144.8930 C   0  0  0  0  0  0  0  0  0  0  0  0
  185.9930  176.4380  143.1320 N   0  0  0  0  0  2  0  0  0  0  0  0
  194.4170  174.8540  144.5310 C   0  0  0  0  0  0  0  0  0  0  0  0
  187.0770  175.5450  142.7630 C   0  0  0  0  0  2  0  0  0  0  0  0
  189.6920  177.6750  147.1230 C   0  0  0  0  0  3  0  0  0  0  0  0
  190.3390  176.9640  146.0980 C   0  0  0  0  0  0  0  0  0  0  0  0
  188.4650  177.4270  144.6470 N   0  0  0  0  0  2  0  0  0  0  0  0
  192.6400  175.6750  142.9410 C   0  0  0  0  0  2  0  0  0  0  0  0
  189.9750  175.0050  141.8080 O   0  0  0  0  0  0  0  0  0  0  0  0
  186.0690  178.6690  142.5230 C   0  0  0  0  0  1  0  0  0  0  0  0
  190.3670  176.1000  143.8420 N   0  0  0  0  0  0  0  0  0  0  0  0
  187.9610  177.6200  143.3450 N   0  0  1  0  0  0  0  0  0  0  0  0
  196.0790  174.2350  146.1380 O   0  0  0  0  0  0  0  0  0  0  0  0
  195.8370  174.4180  144.7600 C   0  0  1  0  0  3  0  0  0  0  0  0
  195.8780  173.0710  145.3770 C   0  0  1  0  0  3  0  0  0  0  0  0
  197.2210  172.4210  145.1060 C   0  0  0  0  0  2  0  0  0  0  0  0
  197.1910  170.9940  145.5310 C   0  0  0  0  0  0  0  0  0  0  0  0
  196.4630  170.6380  146.4940 O   0  0  0  0  0  1  0  0  0  0  0  0
  197.9410  170.0500  144.8430 O   0  0  0  0  0  0  0  0  0  0  0  0
  195.2250  175.3150  141.3390 O   0  0  0  0  0  1  0  0  0  0  0  0
  194.5460  174.3280  142.0530 C   0  0  0  0  0  2  0  0  0  0  0  0
  1 19  1  6  0  0  0
  1 10  1  0  0  0  0
  3  2  1  0  0  0  0
  4 22  1  0  0  0  0
  5  4  1  0  0  0  0
  5 15  1  1  0  0  0
  5 23  1  0  0  0  0
  6 14  1  0  0  0  0
  9  2  2  0  0  0  0
 10  7  1  0  0  0  0
 10 11  2  0  0  0  0
 11  9  1  0  0  0  0
 12 17  2  0  0  0  0
 13  8  1  0  0  0  0
 14  7  2  0  0  0  0
 15 13  1  0  0  0  0
 16  3  2  0  0  0  0
 17 11  1  0  0  0  0
 17 16  1  0  0  0  0
 18 12  1  0  0  0  0
 19  6  1  0  0  0  0
 20  4  2  0  0  0  0
 21  8  1  0  0  0  0
 22  1  1  0  0  0  0
 22 12  1  0  0  0  0
 23  8  1  0  0  0  0
 23 18  1  1  0  0  0
 25 14  1  1  0  0  0
 25 26  1  0  0  0  0
 25 24  1  0  0  0  0
 26 27  1  6  0  0  0
 26 24  1  0  0  0  0
 27 28  1  0  0  0  0
 28 29  1  0  0  0  0
 30 28  2  0  0  0  0
 31 32  1  0  0  0  0
 32  6  1  0  0  0  0
M  END
>  <MODEL>
5

>  <REMARK>
 VINA RESULT:      -7.2      4.274      9.890
  Name = 
  4 active torsions:
  status: ('A' for Active; 'I' for Inactive)
    1  A    between atoms: N_7  and  C_19
    2  A    between atoms: C_10  and  C_17
    3  A    between atoms: C_20  and  C_29
    4  A    between atoms: C_29  and  C_30
                            x       y       z     vdW  Elec       q    Type
                         _______ _______ _______ _____ _____    ______ ____

>  <TORSDO>
F 4

$$$$
=
 OpenBabel11112416393D

 32 37  0  0  1  0  0  0  0  0999 V2000
  190.9370  174.9550  143.1640 C   0  0  2  0  0  3  0  0  0  0  0  0
  190.3700  177.1710  147.5410 C   0  0  0  0  0  3  0  0  0  0  0  0
  191.4480  176.4510  148.0510 C   0  0  0  0  0  3  0  0  0  0  0  0
  192.8400  173.3050  143.0360 C   0  0  0  0  0  0  0  0  0  0  0  0
  193.9610  172.5380  143.6850 C   0  0  1  0  0  3  0  0  0  0  0  0
  188.9450  174.9660  141.7560 N   0  0  0  0  0  0  0  0  0  0  0  0
  188.9730  176.5140  143.6030 C   0  0  0  0  0  3  0  0  0  0  0  0
  195.1910  172.2290  145.5910 N   0  0  0  0  0  0  0  0  0  0  0  0
  189.9570  176.9640  146.2250 C   0  0  0  0  0  3  0  0  0  0  0  0
  190.1900  175.8500  144.1240 C   0  0  0  0  0  0  0  0  0  0  0  0
  190.6150  176.0400  145.3920 C   0  0  0  0  0  0  0  0  0  0  0  0
  192.3280  174.3580  145.1840 C   0  0  0  0  0  0  0  0  0  0  0  0
  196.0880  172.6600  144.5830 N   0  0  0  0  0  2  0  0  0  0  0  0
  188.4100  176.1150  142.4520 C   0  0  0  0  0  0  0  0  0  0  0  0
  195.3040  173.1230  143.4520 C   0  0  0  0  0  2  0  0  0  0  0  0
  192.1040  175.5180  147.2490 C   0  0  0  0  0  3  0  0  0  0  0  0
  191.7030  175.2970  145.9200 C   0  0  0  0  0  0  0  0  0  0  0  0
  193.4050  173.5950  145.7310 N   0  0  0  0  0  2  0  0  0  0  0  0
  189.9220  174.0970  142.4110 C   0  0  0  0  0  2  0  0  0  0  0  0
  192.6930  173.2200  141.7870 O   0  0  0  0  0  0  0  0  0  0  0  0
  195.4070  170.8040  145.7860 C   0  0  0  0  0  1  0  0  0  0  0  0
  191.9660  174.1360  143.8170 N   0  0  0  0  0  0  0  0  0  0  0  0
  193.8650  172.4020  145.1360 N   0  0  1  0  0  0  0  0  0  0  0  0
  186.0300  176.2910  142.6390 O   0  0  0  0  0  0  0  0  0  0  0  0
  187.1630  176.7980  141.9670 C   0  0  1  0  0  3  0  0  0  0  0  0
  186.5090  177.5400  143.0710 C   0  0  1  0  0  3  0  0  0  0  0  0
  185.6210  178.6310  142.5040 C   0  0  0  0  0  2  0  0  0  0  0  0
  184.2470  178.5130  143.0660 C   0  0  0  0  0  0  0  0  0  0  0  0
  183.2750  178.2580  142.3080 O   0  0  0  0  0  0  0  0  0  0  0  0
  184.0430  178.6490  144.4320 O   0  0  0  0  0  1  0  0  0  0  0  0
  188.2680  173.2130  140.3780 O   0  0  0  0  0  1  0  0  0  0  0  0
  188.4870  174.5890  140.4280 C   0  0  0  0  0  2  0  0  0  0  0  0
  1 19  1  1  0  0  0
  1 22  1  0  0  0  0
  1 10  1  0  0  0  0
  2  3  1  0  0  0  0
  4  5  1  0  0  0  0
  4 22  1  0  0  0  0
  5 15  1  1  0  0  0
  5 23  1  0  0  0  0
  6 19  1  0  0  0  0
  6 14  1  0  0  0  0
  7 10  1  0  0  0  0
  8 21  1  0  0  0  0
  9  2  2  0  0  0  0
 10 11  2  0  0  0  0
 11 17  1  0  0  0  0
 11  9  1  0  0  0  0
 12 18  1  0  0  0  0
 12 17  2  0  0  0  0
 13  8  1  0  0  0  0
 14  7  2  0  0  0  0
 15 13  1  0  0  0  0
 16  3  2  0  0  0  0
 17 16  1  0  0  0  0
 20  4  2  0  0  0  0
 22 12  1  0  0  0  0
 23  8  1  0  0  0  0
 23 18  1  1  0  0  0
 24 26  1  0  0  0  0
 25 14  1  1  0  0  0
 25 24  1  0  0  0  0
 25 26  1  0  0  0  0
 26 27  1  6  0  0  0
 27 28  1  0  0  0  0
 28 30  1  0  0  0  0
 29 28  2  0  0  0  0
 31 32  1  0  0  0  0
 32  6  1  0  0  0  0
M  END
>  <MODEL>
6

>  <REMARK>
 VINA RESULT:      -7.2      3.183      5.041
  Name = 
  4 active torsions:
  status: ('A' for Active; 'I' for Inactive)
    1  A    between atoms: N_7  and  C_19
    2  A    between atoms: C_10  and  C_17
    3  A    between atoms: C_20  and  C_29
    4  A    between atoms: C_29  and  C_30
                            x       y       z     vdW  Elec       q    Type
                         _______ _______ _______ _____ _____    ______ ____

>  <TORSDO>
F 4

$$$$
=
 OpenBabel11112416393D

 32 37  0  0  1  0  0  0  0  0999 V2000
  191.8870  175.4220  145.3610 C   0  0  2  0  0  3  0  0  0  0  0  0
  189.7430  173.6090  141.2990 C   0  0  0  0  0  3  0  0  0  0  0  0
  190.9910  173.4600  140.6990 C   0  0  0  0  0  3  0  0  0  0  0  0
  194.4040  175.5560  145.2760 C   0  0  0  0  0  0  0  0  0  0  0  0
  195.7040  175.4030  144.5330 C   0  0  1  0  0  3  0  0  0  0  0  0
  190.4200  176.7750  146.7640 N   0  0  0  0  0  0  0  0  0  0  0  0
  189.3520  175.3670  145.1260 C   0  0  0  0  0  3  0  0  0  0  0  0
  196.7120  174.7030  142.6000 N   0  0  0  0  0  0  0  0  0  0  0  0
  189.6470  174.1530  142.5780 C   0  0  0  0  0  3  0  0  0  0  0  0
  190.6760  175.0870  144.5220 C   0  0  0  0  0  0  0  0  0  0  0  0
  190.7950  174.5530  143.2880 C   0  0  0  0  0  0  0  0  0  0  0  0
  193.1880  174.8370  143.2790 C   0  0  0  0  0  0  0  0  0  0  0  0
  197.2360  173.9120  143.6520 N   0  0  0  0  0  2  0  0  0  0  0  0
  189.2430  176.1370  146.2180 C   0  0  0  0  0  0  0  0  0  0  0  0
  196.4250  174.1430  144.8350 C   0  0  0  0  0  2  0  0  0  0  0  0
  192.1410  173.8650  141.3770 C   0  0  0  0  0  3  0  0  0  0  0  0
  192.0650  174.4150  142.6680 C   0  0  0  0  0  0  0  0  0  0  0  0
  194.4600  174.7190  142.6370 N   0  0  0  0  0  2  0  0  0  0  0  0
  191.6690  176.7910  146.0030 C   0  0  0  0  0  2  0  0  0  0  0  0
  194.4390  175.8350  146.5050 O   0  0  0  0  0  0  0  0  0  0  0  0
  197.7360  175.6670  142.2280 C   0  0  0  0  0  1  0  0  0  0  0  0
  193.1460  175.3660  144.6080 N   0  0  0  0  0  0  0  0  0  0  0  0
  195.5970  175.4280  143.0770 N   0  0  1  0  0  0  0  0  0  0  0  0
  187.6080  177.8010  146.7560 O   0  0  0  0  0  0  0  0  0  0  0  0
  187.8810  176.4160  146.7890 C   0  0  1  0  0  3  0  0  0  0  0  0
  186.9970  177.0170  145.7620 C   0  0  1  0  0  3  0  0  0  0  0  0
  185.5450  176.7920  146.1370 C   0  0  0  0  0  2  0  0  0  0  0  0
  184.7090  177.9190  145.6400 C   0  0  0  0  0  0  0  0  0  0  0  0
  184.1050  178.6640  146.4560 O   0  0  0  0  0  1  0  0  0  0  0  0
  184.6240  178.1710  144.2780 O   0  0  0  0  0  0  0  0  0  0  0  0
  191.5660  177.2210  148.7450 O   0  0  0  0  0  1  0  0  0  0  0  0
  190.3940  177.4810  148.0350 C   0  0  0  0  0  2  0  0  0  0  0  0
  1 19  1  6  0  0  0
  2  9  2  0  0  0  0
  3  2  1  0  0  0  0
  3 16  2  0  0  0  0
  4 20  2  0  0  0  0
  5 15  1  6  0  0  0
  5  4  1  0  0  0  0
  6 32  1  0  0  0  0
  7 14  2  0  0  0  0
  8 23  1  0  0  0  0
  8 13  1  0  0  0  0
  9 11  1  0  0  0  0
 10  7  1  0  0  0  0
 10  1  1  0  0  0  0
 11 10  2  0  0  0  0
 12 22  1  0  0  0  0
 13 15  1  0  0  0  0
 14  6  1  0  0  0  0
 16 17  1  0  0  0  0
 17 12  2  0  0  0  0
 17 11  1  0  0  0  0
 18 12  1  0  0  0  0
 19  6  1  0  0  0  0
 21  8  1  0  0  0  0
 22  4  1  0  0  0  0
 22  1  1  0  0  0  0
 23 18  1  1  0  0  0
 23  5  1  0  0  0  0
 24 25  1  0  0  0  0
 25 14  1  6  0  0  0
 26 27  1  1  0  0  0
 26 24  1  0  0  0  0
 26 25  1  0  0  0  0
 28 27  1  0  0  0  0
 28 29  1  0  0  0  0
 30 28  2  0  0  0  0
 32 31  1  0  0  0  0
M  END
>  <MODEL>
7

>  <REMARK>
 VINA RESULT:      -7.1      4.010      7.200
  Name = 
  4 active torsions:
  status: ('A' for Active; 'I' for Inactive)
    1  A    between atoms: N_7  and  C_19
    2  A    between atoms: C_10  and  C_17
    3  A    between atoms: C_20  and  C_29
    4  A    between atoms: C_29  and  C_30
                            x       y       z     vdW  Elec       q    Type
                         _______ _______ _______ _____ _____    ______ ____

>  <TORSDO>
F 4

$$$$
=
 OpenBabel11112416393D

 32 37  0  0  1  0  0  0  0  0999 V2000
  188.7140  175.0820  143.4170 C   0  0  2  0  0  3  0  0  0  0  0  0
  192.6000  174.8120  146.4540 C   0  0  0  0  0  3  0  0  0  0  0  0
  191.9420  175.6210  147.3770 C   0  0  0  0  0  3  0  0  0  0  0  0
  186.7770  176.4500  144.2740 C   0  0  0  0  0  0  0  0  0  0  0  0
  186.1620  177.3550  145.3080 C   0  0  1  0  0  3  0  0  0  0  0  0
  189.2210  174.6110  141.0780 N   0  0  0  0  0  0  0  0  0  0  0  0
  190.8650  173.9230  142.7000 C   0  0  0  0  0  3  0  0  0  0  0  0
  186.4160  178.3330  147.3630 N   0  0  0  0  0  0  0  0  0  0  0  0
  191.9870  174.5010  145.2410 C   0  0  0  0  0  3  0  0  0  0  0  0
  190.1330  174.6780  143.7430 C   0  0  0  0  0  0  0  0  0  0  0  0
  190.7020  174.9850  144.9290 C   0  0  0  0  0  0  0  0  0  0  0  0
  188.8380  176.3600  145.5900 C   0  0  0  0  0  0  0  0  0  0  0  0
  185.2770  177.4940  147.4400 N   0  0  0  0  0  2  0  0  0  0  0  0
  190.4020  173.8610  141.4430 C   0  0  0  0  0  0  0  0  0  0  0  0
  185.2530  176.6600  146.2510 C   0  0  0  0  0  2  0  0  0  0  0  0
  190.6760  176.1260  147.0820 C   0  0  0  0  0  3  0  0  0  0  0  0
  190.0410  175.8220  145.8650 C   0  0  0  0  0  0  0  0  0  0  0  0
  188.1900  177.2250  146.5270 N   0  0  0  0  0  2  0  0  0  0  0  0
  188.6790  175.6200  141.9890 C   0  0  0  0  0  2  0  0  0  0  0  0
  186.0570  176.0410  143.3240 O   0  0  0  0  0  0  0  0  0  0  0  0
  185.9420  179.7060  147.2920 C   0  0  0  0  0  1  0  0  0  0  0  0
  188.1510  176.0400  144.3760 N   0  0  0  0  0  0  0  0  0  0  0  0
  187.1130  178.0590  146.1640 N   0  0  1  0  0  0  0  0  0  0  0  0
  192.0620  172.1870  141.0250 O   0  0  0  0  0  0  0  0  0  0  0  0
  191.1840  173.1030  140.4060 C   0  0  1  0  0  3  0  0  0  0  0  0
  190.8820  171.6540  140.4800 C   0  0  1  0  0  3  0  0  0  0  0  0
  191.2060  170.9920  139.1550 C   0  0  0  0  0  2  0  0  0  0  0  0
  190.4080  169.7450  138.9980 C   0  0  0  0  0  0  0  0  0  0  0  0
  189.6920  169.5790  137.9770 O   0  0  0  0  0  0  0  0  0  0  0  0
  190.4820  168.7500  139.9630 O   0  0  0  0  0  1  0  0  0  0  0  0
  187.9260  173.2220  139.7270 O   0  0  0  0  0  1  0  0  0  0  0  0
  188.5780  174.4530  139.7830 C   0  0  0  0  0  2  0  0  0  0  0  0
  1 19  1  6  0  0  0
  1 10  1  0  0  0  0
  1 22  1  0  0  0  0
  2  3  1  0  0  0  0
  4 22  1  0  0  0  0
  4  5  1  0  0  0  0
  5 23  1  0  0  0  0
  5 15  1  1  0  0  0
  6 14  1  0  0  0  0
  6 19  1  0  0  0  0
  7 10  1  0  0  0  0
  8 13  1  0  0  0  0
  9  2  2  0  0  0  0
 10 11  2  0  0  0  0
 11  9  1  0  0  0  0
 11 17  1  0  0  0  0
 12 17  2  0  0  0  0
 12 18  1  0  0  0  0
 14  7  2  0  0  0  0
 15 13  1  0  0  0  0
 16  3  2  0  0  0  0
 17 16  1  0  0  0  0
 20  4  2  0  0  0  0
 21  8  1  0  0  0  0
 22 12  1  0  0  0  0
 23 18  1  1  0  0  0
 23  8  1  0  0  0  0
 25 26  1  0  0  0  0
 25 24  1  0  0  0  0
 25 14  1  1  0  0  0
 26 27  1  6  0  0  0
 26 24  1  0  0  0  0
 28 27  1  0  0  0  0
 28 30  1  0  0  0  0
 29 28  2  0  0  0  0
 31 32  1  0  0  0  0
 32  6  1  0  0  0  0
M  END
>  <MODEL>
8

>  <REMARK>
 VINA RESULT:      -7.1      3.936      7.475
  Name = 
  4 active torsions:
  status: ('A' for Active; 'I' for Inactive)
    1  A    between atoms: N_7  and  C_19
    2  A    between atoms: C_10  and  C_17
    3  A    between atoms: C_20  and  C_29
    4  A    between atoms: C_29  and  C_30
                            x       y       z     vdW  Elec       q    Type
                         _______ _______ _______ _____ _____    ______ ____

>  <TORSDO>
F 4

$$$$
=
 OpenBabel11112416393D

 32 37  0  0  1  0  0  0  0  0999 V2000
  189.5240  174.7350  143.9520 C   0  0  2  0  0  3  0  0  0  0  0  0
  191.8110  176.3290  148.0280 C   0  0  0  0  0  3  0  0  0  0  0  0
  190.8680  177.3440  148.1680 C   0  0  0  0  0  3  0  0  0  0  0  0
  187.4640  176.0370  143.3000 C   0  0  0  0  0  0  0  0  0  0  0  0
  186.5180  177.1900  143.5050 C   0  0  1  0  0  3  0  0  0  0  0  0
  190.9230  173.4120  142.4550 N   0  0  0  0  0  0  0  0  0  0  0  0
  191.7300  173.7110  144.7060 C   0  0  0  0  0  3  0  0  0  0  0  0
  185.9500  178.9610  144.8390 N   0  0  0  0  0  0  0  0  0  0  0  0
  191.7360  175.4540  146.9450 C   0  0  0  0  0  3  0  0  0  0  0  0
  190.6670  174.7170  144.9390 C   0  0  0  0  0  0  0  0  0  0  0  0
  190.7130  175.5700  145.9850 C   0  0  0  0  0  0  0  0  0  0  0  0
  188.8010  176.8070  145.1990 C   0  0  0  0  0  0  0  0  0  0  0  0
  184.8450  178.0740  144.8330 N   0  0  0  0  0  2  0  0  0  0  0  0
  191.8190  173.0640  143.5350 C   0  0  0  0  0  0  0  0  0  0  0  0
  185.2750  176.8260  144.2260 C   0  0  0  0  0  2  0  0  0  0  0  0
  189.8550  177.4880  147.2200 C   0  0  0  0  0  3  0  0  0  0  0  0
  189.7620  176.6150  146.1220 C   0  0  0  0  0  0  0  0  0  0  0  0
  187.8620  177.8780  145.3300 N   0  0  0  0  0  2  0  0  0  0  0  0
  190.0990  174.6170  142.5420 C   0  0  0  0  0  2  0  0  0  0  0  0
  187.1800  175.1680  142.4320 O   0  0  0  0  0  0  0  0  0  0  0  0
  185.6030  180.0940  143.9950 C   0  0  0  0  0  1  0  0  0  0  0  0
  188.6580  175.9130  144.0910 N   0  0  0  0  0  0  0  0  0  0  0  0
  187.0640  178.3180  144.2540 N   0  0  1  0  0  0  0  0  0  0  0  0
  193.4890  171.6930  144.5670 O   0  0  0  0  0  0  0  0  0  0  0  0
  192.9240  172.0660  143.3280 C   0  0  1  0  0  3  0  0  0  0  0  0
  192.5960  170.7780  143.9840 C   0  0  1  0  0  3  0  0  0  0  0  0
  193.3890  169.6560  143.3430 C   0  0  0  0  0  2  0  0  0  0  0  0
  193.7710  168.6490  144.3710 C   0  0  0  0  0  0  0  0  0  0  0  0
  192.8980  168.1760  145.1440 O   0  0  0  0  0  1  0  0  0  0  0  0
  195.0830  168.2060  144.4530 O   0  0  0  0  0  0  0  0  0  0  0  0
  189.8670  171.6630  141.3330 O   0  0  0  0  0  1  0  0  0  0  0  0
  190.8610  172.6360  141.2260 C   0  0  0  0  0  2  0  0  0  0  0  0
  1 19  1  6  0  0  0
  1 22  1  0  0  0  0
  1 10  1  0  0  0  0
  2  3  1  0  0  0  0
  4  5  1  0  0  0  0
  4 22  1  0  0  0  0
  5 15  1  1  0  0  0
  5 23  1  0  0  0  0
  6 19  1  0  0  0  0
  6 14  1  0  0  0  0
  7 10  1  0  0  0  0
  9  2  2  0  0  0  0
 10 11  2  0  0  0  0
 11 17  1  0  0  0  0
 11  9  1  0  0  0  0
 12 18  1  0  0  0  0
 12 17  2  0  0  0  0
 13  8  1  0  0  0  0
 14  7  2  0  0  0  0
 15 13  1  0  0  0  0
 16  3  2  0  0  0  0
 17 16  1  0  0  0  0
 20  4  2  0  0  0  0
 21  8  1  0  0  0  0
 22 12  1  0  0  0  0
 23  8  1  0  0  0  0
 23 18  1  1  0  0  0
 25 14  1  1  0  0  0
 25 26  1  0  0  0  0
 25 24  1  0  0  0  0
 26 27  1  6  0  0  0
 26 24  1  0  0  0  0
 27 28  1  0  0  0  0
 28 30  2  0  0  0  0
 28 29  1  0  0  0  0
 32 31  1  0  0  0  0
 32  6  1  0  0  0  0
M  END
>  <MODEL>
9

>  <REMARK>
 VINA RESULT:      -7.0      4.164      8.848
  Name = 
  4 active torsions:
  status: ('A' for Active; 'I' for Inactive)
    1  A    between atoms: N_7  and  C_19
    2  A    between atoms: C_10  and  C_17
    3  A    between atoms: C_20  and  C_29
    4  A    between atoms: C_29  and  C_30
                            x       y       z     vdW  Elec       q    Type
                         _______ _______ _______ _____ _____    ______ ____

>  <TORSDO>
F 4

$$$$
