=
 OpenBabel11112416403D

 32 37  0  0  1  0  0  0  0  0999 V2000
  190.8360  175.0430  144.9390 C   0  0  1  0  0  3  0  0  0  0  0  0
  188.9320  173.0110  141.5110 C   0  0  0  0  0  2  0  0  0  0  0  0
  187.8180  173.9460  141.6350 N   0  0  0  0  0  2  0  0  0  0  0  0
  188.8430  175.8010  146.2170 C   0  0  0  0  0  0  0  0  0  0  0  0
  187.5150  176.4160  146.2640 C   0  0  0  0  0  0  0  0  0  0  0  0
  193.2310  175.5080  145.5200 N   0  0  0  0  0  0  0  0  0  0  0  0
  192.6430  174.3350  143.4410 O   0  0  0  0  0  0  0  0  0  0  0  0
  185.5840  177.3650  145.3620 C   0  0  1  0  0  3  0  0  0  0  0  0
  189.9740  173.2950  142.5870 C   0  0  0  0  0  2  0  0  0  0  0  0
  191.4630  175.1090  143.5460 C   0  0  1  0  0  3  0  0  0  0  0  0
  190.4830  174.7340  142.4420 C   0  0  2  0  0  3  0  0  0  0  0  0
  188.7090  176.0090  143.7450 C   0  0  0  0  0  0  0  0  0  0  0  0
  185.4590  177.2180  146.8870 C   0  0  0  0  0  2  0  0  0  0  0  0
  193.4420  174.3510  144.6220 C   0  0  2  0  0  3  0  0  0  0  0  0
  186.7500  176.5790  147.3220 C   0  0  0  0  0  3  0  0  0  0  0  0
  188.3070  175.2920  141.3350 C   0  0  0  0  0  2  0  0  0  0  0  0
  189.3310  175.7470  142.3880 C   0  0  2  0  0  3  0  0  0  0  0  0
  187.5080  176.6130  143.8080 C   0  0  0  0  0  3  0  0  0  0  0  0
  191.8220  175.7350  145.8820 C   0  0  0  0  0  2  0  0  0  0  0  0
  189.4340  175.3860  147.3670 F   0  0  0  0  0  0  0  0  0  0  0  0
  185.4830  178.8300  144.9820 C   0  0  0  0  0  1  0  0  0  0  0  0
  189.4530  175.6620  145.0150 C   0  0  0  0  0  0  0  0  0  0  0  0
  186.9140  176.8700  145.0810 N   0  0  0  0  0  0  0  0  0  0  0  0
  192.9860  171.9170  144.4120 C   0  0  0  0  0  2  0  0  0  0  0  0
  193.3060  173.0380  145.3800 C   0  0  1  0  0  3  0  0  0  0  0  0
  194.3990  172.0890  144.9300 C   0  0  1  0  0  3  0  0  0  0  0  0
  194.6630  171.0860  146.0340 C   0  0  0  0  0  2  0  0  0  0  0  0
  196.1240  170.8180  146.1380 C   0  0  0  0  0  0  0  0  0  0  0  0
  196.5760  169.6570  146.7500 O   0  0  0  0  0  1  0  0  0  0  0  0
  196.9500  171.6600  145.7020 O   0  0  0  0  0  0  0  0  0  0  0  0
  195.4230  176.4160  144.2630 S   0  0  0  0  0  1  0  0  0  0  0  0
  193.7390  176.7110  144.8760 C   0  0  0  0  0  2  0  0  0  0  0  0
  1 22  1  0  0  0  0
  1 19  1  1  0  0  0
  2  3  1  0  0  0  0
  2  9  1  0  0  0  0
  4  5  1  0  0  0  0
  4 20  1  0  0  0  0
  5 15  2  0  0  0  0
  6 19  1  0  0  0  0
  8 21  1  1  0  0  0
  8 13  1  0  0  0  0
 10  7  1  1  0  0  0
 10  1  1  0  0  0  0
 11  9  1  1  0  0  0
 11 10  1  0  0  0  0
 12 18  2  0  0  0  0
 12 22  1  0  0  0  0
 13 15  1  0  0  0  0
 14  7  1  6  0  0  0
 14 25  1  0  0  0  0
 14  6  1  0  0  0  0
 16  3  1  0  0  0  0
 17 16  1  6  0  0  0
 17 11  1  0  0  0  0
 17 12  1  0  0  0  0
 18 23  1  0  0  0  0
 22  4  2  0  0  0  0
 23  8  1  0  0  0  0
 23  5  1  0  0  0  0
 24 26  1  0  0  0  0
 25 24  1  6  0  0  0
 26 25  1  0  0  0  0
 26 27  1  1  0  0  0
 27 28  1  0  0  0  0
 28 29  1  0  0  0  0
 30 28  2  0  0  0  0
 31 32  1  0  0  0  0
 32  6  1  0  0  0  0
M  END
>  <MODEL>
1

>  <REMARK>
 VINA RESULT:      -7.6      0.000      0.000
  Name = 
  4 active torsions:
  status: ('A' for Active; 'I' for Inactive)
    1  A    between atoms: N_7  and  C_19
    2  A    between atoms: C_10  and  C_17
    3  A    between atoms: C_20  and  C_29
    4  A    between atoms: C_29  and  C_30
                            x       y       z     vdW  Elec       q    Type
                         _______ _______ _______ _____ _____    ______ ____

>  <TORSDO>
F 4

$$$$
=
 OpenBabel11112416403D

 32 37  0  0  1  0  0  0  0  0999 V2000
  190.1680  175.4420  143.2220 C   0  0  1  0  0  3  0  0  0  0  0  0
  192.2260  175.9230  147.1010 C   0  0  0  0  0  2  0  0  0  0  0  0
  190.9420  176.3040  147.6810 N   0  0  0  0  0  2  0  0  0  0  0  0
  188.3560  177.1320  143.4260 C   0  0  0  0  0  0  0  0  0  0  0  0
  187.2920  177.7760  144.1990 C   0  0  0  0  0  0  0  0  0  0  0  0
  190.5140  173.8680  141.3020 N   0  0  0  0  0  0  0  0  0  0  0  0
  191.9290  173.7380  143.3070 O   0  0  0  0  0  0  0  0  0  0  0  0
  185.9860  178.1700  146.0910 C   0  0  1  0  0  3  0  0  0  0  0  0
  192.0600  175.6380  145.6120 C   0  0  0  0  0  2  0  0  0  0  0  0
  190.7660  174.2330  143.9440 C   0  0  1  0  0  3  0  0  0  0  0  0
  191.0430  174.5070  145.4170 C   0  0  2  0  0  3  0  0  0  0  0  0
  188.8580  175.8070  145.4660 C   0  0  0  0  0  0  0  0  0  0  0  0
  185.6120  179.1400  144.9590 C   0  0  0  0  0  2  0  0  0  0  0  0
  191.8730  173.8070  141.8840 C   0  0  2  0  0  3  0  0  0  0  0  0
  186.5390  178.7900  143.8270 C   0  0  0  0  0  3  0  0  0  0  0  0
  190.0450  175.1510  147.6210 C   0  0  0  0  0  2  0  0  0  0  0  0
  189.7300  174.7810  146.1620 C   0  0  2  0  0  3  0  0  0  0  0  0
  187.8480  176.3770  146.1490 C   0  0  0  0  0  3  0  0  0  0  0  0
  189.6640  174.9240  141.8740 C   0  0  0  0  0  2  0  0  0  0  0  0
  188.6050  177.5380  142.1540 F   0  0  0  0  0  0  0  0  0  0  0  0
  184.7810  177.3230  146.4540 C   0  0  0  0  0  1  0  0  0  0  0  0
  189.0700  176.1380  144.0060 C   0  0  0  0  0  0  0  0  0  0  0  0
  187.0150  177.3400  145.5030 N   0  0  0  0  0  0  0  0  0  0  0  0
  194.0060  175.0440  142.1960 C   0  0  0  0  0  2  0  0  0  0  0  0
  192.7410  174.9450  141.3670 C   0  0  1  0  0  3  0  0  0  0  0  0
  194.0420  174.3750  140.8370 C   0  0  1  0  0  3  0  0  0  0  0  0
  194.6160  175.3330  139.8130 C   0  0  0  0  0  2  0  0  0  0  0  0
  196.0930  175.1660  139.7340 C   0  0  0  0  0  0  0  0  0  0  0  0
  196.9280  176.0110  140.4540 O   0  0  0  0  0  1  0  0  0  0  0  0
  196.5880  174.2810  138.9890 O   0  0  0  0  0  0  0  0  0  0  0  0
  188.0570  172.8370  141.6390 S   0  0  0  0  0  1  0  0  0  0  0  0
  189.8510  172.5870  141.5010 C   0  0  0  0  0  2  0  0  0  0  0  0
  1 19  1  6  0  0  0
  1 10  1  0  0  0  0
  1 22  1  0  0  0  0
  2  3  1  0  0  0  0
  4 22  2  0  0  0  0
  4  5  1  0  0  0  0
  5 23  1  0  0  0  0
  6 32  1  0  0  0  0
  6 19  1  0  0  0  0
  6 14  1  0  0  0  0
  8 21  1  6  0  0  0
  9  2  1  0  0  0  0
 10  7  1  6  0  0  0
 10 11  1  0  0  0  0
 11  9  1  6  0  0  0
 11 17  1  0  0  0  0
 12 18  2  0  0  0  0
 12 17  1  0  0  0  0
 13  8  1  0  0  0  0
 14  7  1  1  0  0  0
 15  5  2  0  0  0  0
 15 13  1  0  0  0  0
 16  3  1  0  0  0  0
 17 16  1  1  0  0  0
 20  4  1  0  0  0  0
 22 12  1  0  0  0  0
 23  8  1  0  0  0  0
 23 18  1  0  0  0  0
 25 14  1  0  0  0  0
 25 24  1  1  0  0  0
 26 27  1  6  0  0  0
 26 25  1  0  0  0  0
 26 24  1  0  0  0  0
 28 27  1  0  0  0  0
 28 29  1  0  0  0  0
 30 28  2  0  0  0  0
 32 31  1  0  0  0  0
M  END
>  <MODEL>
2

>  <REMARK>
 VINA RESULT:      -7.4      3.230      4.899
  Name = 
  4 active torsions:
  status: ('A' for Active; 'I' for Inactive)
    1  A    between atoms: N_7  and  C_19
    2  A    between atoms: C_10  and  C_17
    3  A    between atoms: C_20  and  C_29
    4  A    between atoms: C_29  and  C_30
                            x       y       z     vdW  Elec       q    Type
                         _______ _______ _______ _____ _____    ______ ____

>  <TORSDO>
F 4

$$$$
=
 OpenBabel11112416403D

 32 37  0  0  1  0  0  0  0  0999 V2000
  190.7950  174.7280  144.3880 C   0  0  1  0  0  3  0  0  0  0  0  0
  194.0150  176.7080  146.6730 C   0  0  0  0  0  2  0  0  0  0  0  0
  194.9480  175.7340  146.1120 N   0  0  0  0  0  2  0  0  0  0  0  0
  191.6220  172.3850  144.3230 C   0  0  0  0  0  0  0  0  0  0  0  0
  192.7040  171.4180  144.1250 C   0  0  0  0  0  0  0  0  0  0  0  0
  188.7190  175.5970  143.2830 N   0  0  0  0  0  0  0  0  0  0  0  0
  190.2580  177.1200  144.4460 O   0  0  0  0  0  0  0  0  0  0  0  0
  194.9020  170.7470  143.7270 C   0  0  1  0  0  3  0  0  0  0  0  0
  192.6050  176.4310  146.1650 C   0  0  0  0  0  2  0  0  0  0  0  0
  191.2220  176.1600  144.0570 C   0  0  1  0  0  3  0  0  0  0  0  0
  192.5870  176.5140  144.6340 C   0  0  2  0  0  3  0  0  0  0  0  0
  193.3290  174.1620  144.0120 C   0  0  0  0  0  0  0  0  0  0  0  0
  194.0010  169.5310  143.9960 C   0  0  0  0  0  2  0  0  0  0  0  0
  188.9130  176.6810  144.2710 C   0  0  2  0  0  3  0  0  0  0  0  0
  192.6370  170.1100  144.2560 C   0  0  0  0  0  3  0  0  0  0  0  0
  195.0250  175.9460  144.6670 C   0  0  0  0  0  2  0  0  0  0  0  0
  193.6750  175.6380  143.9980 C   0  0  2  0  0  3  0  0  0  0  0  0
  194.3040  173.2610  143.7890 C   0  0  0  0  0  3  0  0  0  0  0  0
  189.5880  174.4290  143.4980 C   0  0  0  0  0  2  0  0  0  0  0  0
  190.3710  171.9450  144.6170 F   0  0  0  0  0  0  0  0  0  0  0  0
  195.4950  170.6420  142.3340 C   0  0  0  0  0  1  0  0  0  0  0  0
  191.9000  173.7050  144.2040 C   0  0  0  0  0  0  0  0  0  0  0  0
  193.9900  171.8680  143.7940 N   0  0  0  0  0  0  0  0  0  0  0  0
  188.8940  177.1690  146.7080 C   0  0  0  0  0  2  0  0  0  0  0  0
  188.2870  176.3180  145.6100 C   0  0  1  0  0  3  0  0  0  0  0  0
  187.5310  177.5180  146.1460 C   0  0  1  0  0  3  0  0  0  0  0  0
  186.4510  177.0340  147.0920 C   0  0  0  0  0  2  0  0  0  0  0  0
  185.3580  178.0430  147.1720 C   0  0  0  0  0  0  0  0  0  0  0  0
  184.1000  177.7460  146.6640 O   0  0  0  0  0  0  0  0  0  0  0  0
  185.5830  179.1760  147.6680 O   0  0  0  0  0  1  0  0  0  0  0  0
  187.9470  177.5880  141.6550 S   0  0  0  0  0  1  0  0  0  0  0  0
  188.9720  176.1170  141.9470 C   0  0  0  0  0  2  0  0  0  0  0  0
  1 19  1  6  0  0  0
  3  2  1  0  0  0  0
  4 20  1  0  0  0  0
  5 15  2  0  0  0  0
  5  4  1  0  0  0  0
  6 19  1  0  0  0  0
  6 14  1  0  0  0  0
  8 21  1  6  0  0  0
  8 23  1  0  0  0  0
  8 13  1  0  0  0  0
  9  2  1  0  0  0  0
 10  1  1  0  0  0  0
 10  7  1  1  0  0  0
 10 11  1  0  0  0  0
 11  9  1  1  0  0  0
 12 22  1  0  0  0  0
 13 15  1  0  0  0  0
 14  7  1  1  0  0  0
 14 25  1  0  0  0  0
 16  3  1  0  0  0  0
 17 12  1  0  0  0  0
 17 11  1  0  0  0  0
 17 16  1  1  0  0  0
 18 23  1  0  0  0  0
 18 12  2  0  0  0  0
 22  4  2  0  0  0  0
 22  1  1  0  0  0  0
 23  5  1  0  0  0  0
 25 26  1  0  0  0  0
 25 24  1  1  0  0  0
 26 24  1  0  0  0  0
 26 27  1  1  0  0  0
 27 28  1  0  0  0  0
 28 30  1  0  0  0  0
 29 28  2  0  0  0  0
 31 32  1  0  0  0  0
 32  6  1  0  0  0  0
M  END
>  <MODEL>
3

>  <REMARK>
 VINA RESULT:      -7.4      3.372      8.075
  Name = 
  4 active torsions:
  status: ('A' for Active; 'I' for Inactive)
    1  A    between atoms: N_7  and  C_19
    2  A    between atoms: C_10  and  C_17
    3  A    between atoms: C_20  and  C_29
    4  A    between atoms: C_29  and  C_30
                            x       y       z     vdW  Elec       q    Type
                         _______ _______ _______ _____ _____    ______ ____

>  <TORSDO>
F 4

$$$$
=
 OpenBabel11112416403D

 32 37  0  0  1  0  0  0  0  0999 V2000
  188.5460  176.3610  144.8840 C   0  0  1  0  0  3  0  0  0  0  0  0
  186.7280  178.9360  147.9790 C   0  0  0  0  0  2  0  0  0  0  0  0
  185.5670  179.0830  147.1060 N   0  0  0  0  0  2  0  0  0  0  0  0
  187.5620  177.3270  142.8160 C   0  0  0  0  0  0  0  0  0  0  0  0
  186.4140  177.8460  142.0700 C   0  0  0  0  0  0  0  0  0  0  0  0
  190.0560  174.3640  145.0120 N   0  0  0  0  0  0  0  0  0  0  0  0
  189.2680  175.4790  147.0550 O   0  0  0  0  0  0  0  0  0  0  0  0
  184.1950  178.5060  141.7810 C   0  0  1  0  0  3  0  0  0  0  0  0
  187.7780  178.0590  147.3040 C   0  0  0  0  0  2  0  0  0  0  0  0
  188.1490  175.7850  146.2450 C   0  0  1  0  0  3  0  0  0  0  0  0
  187.1760  176.6810  147.0000 C   0  0  2  0  0  3  0  0  0  0  0  0
  186.0410  177.1310  144.7690 C   0  0  0  0  0  0  0  0  0  0  0  0
  185.0180  178.7880  140.5130 C   0  0  0  0  0  2  0  0  0  0  0  0
  190.3790  174.9690  146.3230 C   0  0  2  0  0  3  0  0  0  0  0  0
  186.4140  178.3400  140.8500 C   0  0  0  0  0  3  0  0  0  0  0  0
  184.9240  177.7770  146.9650 C   0  0  0  0  0  2  0  0  0  0  0  0
  185.8500  176.7910  146.2340 C   0  0  2  0  0  3  0  0  0  0  0  0
  184.9850  177.5690  144.0580 C   0  0  0  0  0  3  0  0  0  0  0  0
  189.2520  175.2300  144.1350 C   0  0  0  0  0  2  0  0  0  0  0  0
  188.7810  177.2640  142.2180 F   0  0  0  0  0  0  0  0  0  0  0  0
  183.0790  177.5320  141.4580 C   0  0  0  0  0  1  0  0  0  0  0  0
  187.3770  176.9180  144.0940 C   0  0  0  0  0  0  0  0  0  0  0  0
  185.1500  177.8870  142.6760 N   0  0  0  0  0  0  0  0  0  0  0  0
  191.8290  176.5710  147.5510 C   0  0  0  0  0  2  0  0  0  0  0  0
  191.4640  176.0280  146.1840 C   0  0  1  0  0  3  0  0  0  0  0  0
  192.7210  175.5460  146.8810 C   0  0  1  0  0  3  0  0  0  0  0  0
  193.9190  176.2390  146.2650 C   0  0  0  0  0  2  0  0  0  0  0  0
  194.7640  175.2460  145.5450 C   0  0  0  0  0  0  0  0  0  0  0  0
  194.4680  174.9050  144.2320 O   0  0  0  0  0  0  0  0  0  0  0  0
  195.7240  174.6900  146.1370 O   0  0  0  0  0  1  0  0  0  0  0  0
  189.3380  172.1310  143.7040 S   0  0  0  0  0  1  0  0  0  0  0  0
  189.3260  173.1220  145.2260 C   0  0  0  0  0  2  0  0  0  0  0  0
  1 19  1  6  0  0  0
  1 10  1  0  0  0  0
  3  2  1  0  0  0  0
  4 22  2  0  0  0  0
  5 23  1  0  0  0  0
  5  4  1  0  0  0  0
  6 32  1  0  0  0  0
  6 14  1  0  0  0  0
  8 21  1  6  0  0  0
  8 23  1  0  0  0  0
  9  2  1  0  0  0  0
 10 11  1  0  0  0  0
 10  7  1  1  0  0  0
 11  9  1  6  0  0  0
 12 17  1  0  0  0  0
 13 15  1  0  0  0  0
 13  8  1  0  0  0  0
 14  7  1  6  0  0  0
 15  5  2  0  0  0  0
 16  3  1  0  0  0  0
 17 16  1  1  0  0  0
 17 11  1  0  0  0  0
 18 12  2  0  0  0  0
 19  6  1  0  0  0  0
 20  4  1  0  0  0  0
 22 12  1  0  0  0  0
 22  1  1  0  0  0  0
 23 18  1  0  0  0  0
 25 14  1  0  0  0  0
 25 26  1  0  0  0  0
 25 24  1  1  0  0  0
 26 27  1  6  0  0  0
 26 24  1  0  0  0  0
 28 30  1  0  0  0  0
 28 27  1  0  0  0  0
 29 28  2  0  0  0  0
 31 32  1  0  0  0  0
M  END
>  <MODEL>
4

>  <REMARK>
 VINA RESULT:      -7.3      3.024      5.205
  Name = 
  4 active torsions:
  status: ('A' for Active; 'I' for Inactive)
    1  A    between atoms: N_7  and  C_19
    2  A    between atoms: C_10  and  C_17
    3  A    between atoms: C_20  and  C_29
    4  A    between atoms: C_29  and  C_30
                            x       y       z     vdW  Elec       q    Type
                         _______ _______ _______ _____ _____    ______ ____

>  <TORSDO>
F 4

$$$$
=
 OpenBabel11112416403D

 32 37  0  0  1  0  0  0  0  0999 V2000
  189.3730  174.9860  142.9160 C   0  0  1  0  0  3  0  0  0  0  0  0
  192.9150  176.3810  145.1570 C   0  0  0  0  0  2  0  0  0  0  0  0
  193.7180  175.4390  144.3820 N   0  0  0  0  0  2  0  0  0  0  0  0
  190.0000  172.6270  142.4470 C   0  0  0  0  0  0  0  0  0  0  0  0
  190.9810  171.6270  142.0170 C   0  0  0  0  0  0  0  0  0  0  0  0
  187.2930  176.1480  142.1370 N   0  0  0  0  0  0  0  0  0  0  0  0
  189.0370  177.3740  143.3590 O   0  0  0  0  0  0  0  0  0  0  0  0
  193.0790  170.8730  141.3310 C   0  0  1  0  0  3  0  0  0  0  0  0
  191.4500  176.2800  144.7440 C   0  0  0  0  0  2  0  0  0  0  0  0
  189.8860  176.4180  142.7530 C   0  0  1  0  0  3  0  0  0  0  0  0
  191.3170  176.5890  143.2480 C   0  0  2  0  0  3  0  0  0  0  0  0
  191.8150  174.3090  142.2370 C   0  0  0  0  0  0  0  0  0  0  0  0
  192.1060  169.6950  141.5070 C   0  0  0  0  0  2  0  0  0  0  0  0
  187.6520  177.0580  143.2460 C   0  0  2  0  0  3  0  0  0  0  0  0
  190.8190  170.3220  141.9690 C   0  0  0  0  0  3  0  0  0  0  0  0
  193.6960  175.8560  142.9800 C   0  0  0  0  0  2  0  0  0  0  0  0
  192.2770  175.7430  142.4000 C   0  0  2  0  0  3  0  0  0  0  0  0
  192.6930  173.3860  141.8020 C   0  0  0  0  0  3  0  0  0  0  0  0
  188.0790  174.9040  142.1060 C   0  0  0  0  0  2  0  0  0  0  0  0
  188.7450  172.2350  142.7880 F   0  0  0  0  0  0  0  0  0  0  0  0
  193.5480  170.9340  139.8900 C   0  0  0  0  0  1  0  0  0  0  0  0
  190.3740  173.9280  142.4910 C   0  0  0  0  0  0  0  0  0  0  0  0
  192.2690  172.0320  141.6380 N   0  0  0  0  0  0  0  0  0  0  0  0
  187.8600  177.1890  145.7190 C   0  0  0  0  0  2  0  0  0  0  0  0
  187.1070  176.5460  144.5720 C   0  0  1  0  0  3  0  0  0  0  0  0
  186.4880  177.7010  145.3340 C   0  0  1  0  0  3  0  0  0  0  0  0
  185.4520  177.1550  146.2960 C   0  0  0  0  0  2  0  0  0  0  0  0
  184.6350  178.2710  146.8480 C   0  0  0  0  0  0  0  0  0  0  0  0
  183.6760  178.8880  146.0560 O   0  0  0  0  0  0  0  0  0  0  0  0
  184.8380  178.6780  148.0210 O   0  0  0  0  0  1  0  0  0  0  0  0
  186.0310  177.8770  140.5160 S   0  0  0  0  0  1  0  0  0  0  0  0
  187.4800  176.8410  140.8700 C   0  0  0  0  0  2  0  0  0  0  0  0
  1 19  1  6  0  0  0
  3  2  1  0  0  0  0
  4 22  2  0  0  0  0
  4 20  1  0  0  0  0
  5  4  1  0  0  0  0
  6 14  1  0  0  0  0
  8 21  1  6  0  0  0
  8 13  1  0  0  0  0
  8 23  1  0  0  0  0
  9  2  1  0  0  0  0
 10  1  1  0  0  0  0
 10 11  1  0  0  0  0
 10  7  1  1  0  0  0
 11  9  1  1  0  0  0
 12 17  1  0  0  0  0
 12 22  1  0  0  0  0
 13 15  1  0  0  0  0
 14  7  1  1  0  0  0
 14 25  1  0  0  0  0
 15  5  2  0  0  0  0
 16  3  1  0  0  0  0
 17 16  1  1  0  0  0
 17 11  1  0  0  0  0
 18 12  2  0  0  0  0
 19  6  1  0  0  0  0
 22  1  1  0  0  0  0
 23 18  1  0  0  0  0
 23  5  1  0  0  0  0
 25 26  1  0  0  0  0
 25 24  1  1  0  0  0
 26 24  1  0  0  0  0
 26 27  1  1  0  0  0
 27 28  1  0  0  0  0
 28 30  1  0  0  0  0
 29 28  2  0  0  0  0
 31 32  1  0  0  0  0
 32  6  1  0  0  0  0
M  END
>  <MODEL>
5

>  <REMARK>
 VINA RESULT:      -7.1      4.067      8.187
  Name = 
  4 active torsions:
  status: ('A' for Active; 'I' for Inactive)
    1  A    between atoms: N_7  and  C_19
    2  A    between atoms: C_10  and  C_17
    3  A    between atoms: C_20  and  C_29
    4  A    between atoms: C_29  and  C_30
                            x       y       z     vdW  Elec       q    Type
                         _______ _______ _______ _____ _____    ______ ____

>  <TORSDO>
F 4

$$$$
=
 OpenBabel11112416403D

 32 37  0  0  1  0  0  0  0  0999 V2000
  190.6600  175.9130  144.2130 C   0  0  1  0  0  3  0  0  0  0  0  0
  188.8930  172.2980  142.3920 C   0  0  0  0  0  2  0  0  0  0  0  0
  190.2410  171.8890  142.0080 N   0  0  0  0  0  2  0  0  0  0  0  0
  192.6430  176.2650  142.7560 C   0  0  0  0  0  0  0  0  0  0  0  0
  193.8110  175.7460  142.0410 C   0  0  0  0  0  0  0  0  0  0  0  0
  190.0430  177.2730  146.2270 N   0  0  0  0  0  0  0  0  0  0  0  0
  188.7420  175.2820  145.6040 O   0  0  0  0  0  0  0  0  0  0  0  0
  195.2590  174.0890  141.2670 C   0  0  1  0  0  3  0  0  0  0  0  0
  188.9410  173.6390  143.1150 C   0  0  0  0  0  2  0  0  0  0  0  0
  189.9850  174.8510  145.0820 C   0  0  1  0  0  3  0  0  0  0  0  0
  189.8240  173.5180  144.3620 C   0  0  2  0  0  3  0  0  0  0  0  0
  192.1300  173.9120  143.3640 C   0  0  0  0  0  0  0  0  0  0  0  0
  195.6630  175.4670  140.7170 C   0  0  0  0  0  2  0  0  0  0  0  0
  188.7220  176.6630  145.9590 C   0  0  2  0  0  3  0  0  0  0  0  0
  194.6400  176.4200  141.2730 C   0  0  0  0  0  3  0  0  0  0  0  0
  191.0110  171.6290  143.2240 C   0  0  0  0  0  2  0  0  0  0  0  0
  191.2000  172.9210  144.0360 C   0  0  2  0  0  3  0  0  0  0  0  0
  193.2310  173.4550  142.7400 C   0  0  0  0  0  3  0  0  0  0  0  0
  191.0280  177.0610  145.1540 C   0  0  0  0  0  2  0  0  0  0  0  0
  192.3630  177.5940  142.7110 F   0  0  0  0  0  0  0  0  0  0  0  0
  196.3910  173.5240  142.1040 C   0  0  0  0  0  1  0  0  0  0  0  0
  191.8670  175.3990  143.4500 C   0  0  0  0  0  0  0  0  0  0  0  0
  194.1180  174.3790  142.1080 N   0  0  0  0  0  0  0  0  0  0  0  0
  186.7930  176.6450  144.3910 C   0  0  0  0  0  2  0  0  0  0  0  0
  187.9440  177.4710  144.9290 C   0  0  1  0  0  3  0  0  0  0  0  0
  186.5370  177.7060  145.4410 C   0  0  1  0  0  3  0  0  0  0  0  0
  185.9770  178.9500  144.7830 C   0  0  0  0  0  2  0  0  0  0  0  0
  184.4930  178.8610  144.7100 C   0  0  0  0  0  0  0  0  0  0  0  0
  183.8690  178.6550  143.4870 O   0  0  0  0  0  0  0  0  0  0  0  0
  183.8020  179.0070  145.7510 O   0  0  0  0  0  1  0  0  0  0  0  0
  192.3680  176.4420  147.2820 S   0  0  0  0  0  1  0  0  0  0  0  0
  190.5820  176.7210  147.4610 C   0  0  0  0  0  2  0  0  0  0  0  0
  1 10  1  0  0  0  0
  1 19  1  1  0  0  0
  2  9  1  0  0  0  0
  3  2  1  0  0  0  0
  3 16  1  0  0  0  0
  4 22  2  0  0  0  0
  5 23  1  0  0  0  0
  5  4  1  0  0  0  0
  6 32  1  0  0  0  0
  8 21  1  1  0  0  0
  8 23  1  0  0  0  0
 10  7  1  6  0  0  0
 11  9  1  6  0  0  0
 11 10  1  0  0  0  0
 12 22  1  0  0  0  0
 12 17  1  0  0  0  0
 13  8  1  0  0  0  0
 13 15  1  0  0  0  0
 14  7  1  6  0  0  0
 14  6  1  0  0  0  0
 15  5  2  0  0  0  0
 17 16  1  6  0  0  0
 17 11  1  0  0  0  0
 18 12  2  0  0  0  0
 19  6  1  0  0  0  0
 20  4  1  0  0  0  0
 22  1  1  0  0  0  0
 23 18  1  0  0  0  0
 24 26  1  0  0  0  0
 25 24  1  6  0  0  0
 25 26  1  0  0  0  0
 25 14  1  0  0  0  0
 26 27  1  6  0  0  0
 28 27  1  0  0  0  0
 28 30  1  0  0  0  0
 29 28  2  0  0  0  0
 31 32  1  0  0  0  0
M  END
>  <MODEL>
6

>  <REMARK>
 VINA RESULT:      -7.0      3.635      7.835
  Name = 
  4 active torsions:
  status: ('A' for Active; 'I' for Inactive)
    1  A    between atoms: N_7  and  C_19
    2  A    between atoms: C_10  and  C_17
    3  A    between atoms: C_20  and  C_29
    4  A    between atoms: C_29  and  C_30
                            x       y       z     vdW  Elec       q    Type
                         _______ _______ _______ _____ _____    ______ ____

>  <TORSDO>
F 4

$$$$
=
 OpenBabel11112416403D

 32 37  0  0  1  0  0  0  0  0999 V2000
  190.4670  175.9680  144.2300 C   0  0  1  0  0  3  0  0  0  0  0  0
  189.9150  171.9980  142.3720 C   0  0  0  0  0  2  0  0  0  0  0  0
  191.2680  171.6610  142.8030 N   0  0  0  0  0  2  0  0  0  0  0  0
  192.9160  176.2900  143.9560 C   0  0  0  0  0  0  0  0  0  0  0  0
  194.2880  175.7820  144.0340 C   0  0  0  0  0  0  0  0  0  0  0  0
  188.8890  177.5290  145.3960 N   0  0  0  0  0  0  0  0  0  0  0  0
  188.1090  175.3670  144.5260 O   0  0  0  0  0  0  0  0  0  0  0  0
  195.9350  174.1680  144.3870 C   0  0  1  0  0  3  0  0  0  0  0  0
  189.5750  173.4250  142.7910 C   0  0  0  0  0  2  0  0  0  0  0  0
  189.4430  174.9780  144.7910 C   0  0  1  0  0  3  0  0  0  0  0  0
  189.6850  173.5510  144.3150 C   0  0  2  0  0  3  0  0  0  0  0  0
  192.1720  174.0060  144.5870 C   0  0  0  0  0  0  0  0  0  0  0  0
  196.5590  175.4880  143.9070 C   0  0  0  0  0  2  0  0  0  0  0  0
  187.9010  176.7760  144.5930 C   0  0  2  0  0  3  0  0  0  0  0  0
  195.3920  176.4150  143.7000 C   0  0  0  0  0  3  0  0  0  0  0  0
  191.2970  171.6360  144.2650 C   0  0  0  0  0  2  0  0  0  0  0  0
  191.0330  173.0380  144.8390 C   0  0  2  0  0  3  0  0  0  0  0  0
  193.4390  173.5650  144.6960 C   0  0  0  0  0  3  0  0  0  0  0  0
  190.2890  177.2600  145.0280 C   0  0  0  0  0  2  0  0  0  0  0  0
  192.6940  177.5710  143.5610 F   0  0  0  0  0  0  0  0  0  0  0  0
  196.4710  173.8220  145.7630 C   0  0  0  0  0  1  0  0  0  0  0  0
  191.8960  175.4620  144.2850 C   0  0  0  0  0  0  0  0  0  0  0  0
  194.5210  174.4690  144.4670 N   0  0  0  0  0  0  0  0  0  0  0  0
  187.1390  176.3470  142.2670 C   0  0  0  0  0  2  0  0  0  0  0  0
  187.7670  177.3660  143.1960 C   0  0  1  0  0  3  0  0  0  0  0  0
  186.2970  177.4680  142.8390 C   0  0  1  0  0  3  0  0  0  0  0  0
  186.1200  178.5550  141.7980 C   0  0  0  0  0  2  0  0  0  0  0  0
  185.1440  178.1130  140.7650 C   0  0  0  0  0  0  0  0  0  0  0  0
  185.5960  177.5400  139.5830 O   0  0  0  0  0  0  0  0  0  0  0  0
  183.9120  178.2900  140.9460 O   0  0  0  0  0  1  0  0  0  0  0  0
  186.9620  177.3620  147.2580 S   0  0  0  0  0  1  0  0  0  0  0  0
  188.7130  177.1990  146.8030 C   0  0  0  0  0  2  0  0  0  0  0  0
  1 22  1  0  0  0  0
  1 10  1  0  0  0  0
  1 19  1  1  0  0  0
  2  9  1  0  0  0  0
  2  3  1  0  0  0  0
  3 16  1  0  0  0  0
  4  5  1  0  0  0  0
  4 22  2  0  0  0  0
  5 23  1  0  0  0  0
  6 32  1  0  0  0  0
  8 23  1  0  0  0  0
  8 21  1  1  0  0  0
 10  7  1  6  0  0  0
 11  9  1  6  0  0  0
 11 10  1  0  0  0  0
 11 17  1  0  0  0  0
 12 18  2  0  0  0  0
 12 17  1  0  0  0  0
 13  8  1  0  0  0  0
 14  7  1  6  0  0  0
 14  6  1  0  0  0  0
 15 13  1  0  0  0  0
 15  5  2  0  0  0  0
 17 16  1  6  0  0  0
 19  6  1  0  0  0  0
 20  4  1  0  0  0  0
 22 12  1  0  0  0  0
 23 18  1  0  0  0  0
 24 26  1  0  0  0  0
 25 24  1  6  0  0  0
 25 14  1  0  0  0  0
 26 27  1  6  0  0  0
 26 25  1  0  0  0  0
 28 30  1  0  0  0  0
 28 27  1  0  0  0  0
 29 28  2  0  0  0  0
 32 31  1  0  0  0  0
M  END
>  <MODEL>
7

>  <REMARK>
 VINA RESULT:      -7.0      3.733      7.974
  Name = 
  4 active torsions:
  status: ('A' for Active; 'I' for Inactive)
    1  A    between atoms: N_7  and  C_19
    2  A    between atoms: C_10  and  C_17
    3  A    between atoms: C_20  and  C_29
    4  A    between atoms: C_29  and  C_30
                            x       y       z     vdW  Elec       q    Type
                         _______ _______ _______ _____ _____    ______ ____

>  <TORSDO>
F 4

$$$$
=
 OpenBabel11112416403D

 32 37  0  0  1  0  0  0  0  0999 V2000
  191.2030  175.6260  144.2640 C   0  0  1  0  0  3  0  0  0  0  0  0
  190.6860  172.8070  140.9030 C   0  0  0  0  0  2  0  0  0  0  0  0
  192.0770  172.4040  141.0890 N   0  0  0  0  0  2  0  0  0  0  0  0
  193.6150  176.1890  144.0530 C   0  0  0  0  0  0  0  0  0  0  0  0
  195.0070  175.7850  143.8460 C   0  0  0  0  0  0  0  0  0  0  0  0
  189.6460  176.4360  146.0540 N   0  0  0  0  0  0  0  0  0  0  0  0
  188.8950  174.8090  144.3720 O   0  0  0  0  0  0  0  0  0  0  0  0
  196.7360  174.2820  143.3990 C   0  0  1  0  0  3  0  0  0  0  0  0
  190.3190  173.8930  141.9090 C   0  0  0  0  0  2  0  0  0  0  0  0
  190.2580  174.4300  144.3870 C   0  0  1  0  0  3  0  0  0  0  0  0
  190.5230  173.3620  143.3330 C   0  0  2  0  0  3  0  0  0  0  0  0
  193.0030  173.8130  143.6690 C   0  0  0  0  0  0  0  0  0  0  0  0
  197.2750  175.7180  143.5090 C   0  0  0  0  0  2  0  0  0  0  0  0
  188.6370  176.0370  145.0480 C   0  0  2  0  0  3  0  0  0  0  0  0
  196.0620  176.5680  143.7710 C   0  0  0  0  0  3  0  0  0  0  0  0
  192.2020  171.7580  142.3950 C   0  0  0  0  0  2  0  0  0  0  0  0
  191.9220  172.7600  143.5270 C   0  0  2  0  0  3  0  0  0  0  0  0
  194.2910  173.4490  143.5240 C   0  0  0  0  0  3  0  0  0  0  0  0
  191.0280  176.4390  145.5470 C   0  0  0  0  0  2  0  0  0  0  0  0
  193.3180  177.4990  144.2580 F   0  0  0  0  0  0  0  0  0  0  0  0
  197.3740  173.4160  144.4680 C   0  0  0  0  0  1  0  0  0  0  0  0
  192.6520  175.2370  144.0360 C   0  0  0  0  0  0  0  0  0  0  0  0
  195.3200  174.4300  143.6610 N   0  0  0  0  0  0  0  0  0  0  0  0
  187.8330  176.5850  142.7610 C   0  0  0  0  0  2  0  0  0  0  0  0
  188.3890  177.1590  144.0480 C   0  0  1  0  0  3  0  0  0  0  0  0
  186.9040  177.2460  143.7580 C   0  0  1  0  0  3  0  0  0  0  0  0
  186.5760  178.6510  143.2960 C   0  0  0  0  0  2  0  0  0  0  0  0
  185.1400  178.9470  143.5520 C   0  0  0  0  0  0  0  0  0  0  0  0
  184.1560  178.3180  142.8010 O   0  0  0  0  0  0  0  0  0  0  0  0
  184.8180  179.7930  144.4260 O   0  0  0  0  0  1  0  0  0  0  0  0
  191.1910  175.4410  148.0120 S   0  0  0  0  0  1  0  0  0  0  0  0
  189.5750  175.5250  147.1880 C   0  0  0  0  0  2  0  0  0  0  0  0
  1 10  1  0  0  0  0
  1 19  1  1  0  0  0
  2  3  1  0  0  0  0
  2  9  1  0  0  0  0
  3 16  1  0  0  0  0
  4 20  1  0  0  0  0
  5  4  1  0  0  0  0
  6 32  1  0  0  0  0
  8 13  1  0  0  0  0
  8 23  1  0  0  0  0
  8 21  1  1  0  0  0
 10  7  1  6  0  0  0
 11  9  1  6  0  0  0
 11 17  1  0  0  0  0
 11 10  1  0  0  0  0
 12 22  1  0  0  0  0
 13 15  1  0  0  0  0
 14  7  1  6  0  0  0
 14  6  1  0  0  0  0
 15  5  2  0  0  0  0
 17 16  1  6  0  0  0
 17 12  1  0  0  0  0
 18 23  1  0  0  0  0
 18 12  2  0  0  0  0
 19  6  1  0  0  0  0
 22  4  2  0  0  0  0
 22  1  1  0  0  0  0
 23  5  1  0  0  0  0
 24 26  1  0  0  0  0
 25 24  1  6  0  0  0
 25 14  1  0  0  0  0
 26 27  1  6  0  0  0
 26 25  1  0  0  0  0
 27 28  1  0  0  0  0
 28 30  1  0  0  0  0
 29 28  2  0  0  0  0
 32 31  1  0  0  0  0
M  END
>  <MODEL>
8

>  <REMARK>
 VINA RESULT:      -6.6      3.441      7.910
  Name = 
  4 active torsions:
  status: ('A' for Active; 'I' for Inactive)
    1  A    between atoms: N_7  and  C_19
    2  A    between atoms: C_10  and  C_17
    3  A    between atoms: C_20  and  C_29
    4  A    between atoms: C_29  and  C_30
                            x       y       z     vdW  Elec       q    Type
                         _______ _______ _______ _____ _____    ______ ____

>  <TORSDO>
F 4

$$$$
=
 OpenBabel11112416403D

 32 37  0  0  1  0  0  0  0  0999 V2000
  189.8410  175.6640  144.4740 C   0  0  1  0  0  3  0  0  0  0  0  0
  189.3160  178.2370  148.0260 C   0  0  0  0  0  2  0  0  0  0  0  0
  188.0030  178.6070  147.5050 N   0  0  0  0  0  2  0  0  0  0  0  0
  188.5100  176.9040  142.7810 C   0  0  0  0  0  0  0  0  0  0  0  0
  187.3000  177.6310  142.3900 C   0  0  0  0  0  0  0  0  0  0  0  0
  191.0070  173.4720  144.1250 N   0  0  0  0  0  0  0  0  0  0  0  0
  190.9630  174.5360  146.3400 O   0  0  0  0  0  0  0  0  0  0  0  0
  185.2120  178.6120  142.7330 C   0  0  1  0  0  3  0  0  0  0  0  0
  190.0050  177.2730  147.0650 C   0  0  0  0  0  2  0  0  0  0  0  0
  189.7310  175.0530  145.8720 C   0  0  1  0  0  3  0  0  0  0  0  0
  189.1400  176.0190  146.8910 C   0  0  2  0  0  3  0  0  0  0  0  0
  187.5420  176.7820  145.0650 C   0  0  0  0  0  0  0  0  0  0  0  0
  185.7060  178.8670  141.2990 C   0  0  0  0  0  2  0  0  0  0  0  0
  191.7520  173.9300  145.3190 C   0  0  2  0  0  3  0  0  0  0  0  0
  187.0560  178.2060  141.2310 C   0  0  0  0  0  3  0  0  0  0  0  0
  187.1540  177.4170  147.5000 C   0  0  0  0  0  2  0  0  0  0  0  0
  187.6930  176.3670  146.5150 C   0  0  2  0  0  3  0  0  0  0  0  0
  186.4170  177.4120  144.6800 C   0  0  0  0  0  3  0  0  0  0  0  0
  190.1440  174.5030  143.5260 C   0  0  0  0  0  2  0  0  0  0  0  0
  189.5040  176.7150  141.8740 F   0  0  0  0  0  0  0  0  0  0  0  0
  183.9130  177.8290  142.6910 C   0  0  0  0  0  1  0  0  0  0  0  0
  188.6060  176.4340  144.0470 C   0  0  0  0  0  0  0  0  0  0  0  0
  186.2610  177.8030  143.3150 N   0  0  0  0  0  0  0  0  0  0  0  0
  193.5410  175.4310  146.1700 C   0  0  0  0  0  2  0  0  0  0  0  0
  192.9110  174.8350  144.9260 C   0  0  1  0  0  3  0  0  0  0  0  0
  194.2000  174.2570  145.4750 C   0  0  1  0  0  3  0  0  0  0  0  0
  195.3570  174.7500  144.6300 C   0  0  0  0  0  2  0  0  0  0  0  0
  196.6390  174.2130  145.1630 C   0  0  0  0  0  0  0  0  0  0  0  0
  197.8090  174.3490  144.4270 O   0  0  0  0  0  0  0  0  0  0  0  0
  196.6580  173.6060  146.2650 O   0  0  0  0  0  1  0  0  0  0  0  0
  189.0170  171.9620  143.1410 S   0  0  0  0  0  1  0  0  0  0  0  0
  190.1770  172.3320  144.4880 C   0  0  0  0  0  2  0  0  0  0  0  0
  1 19  1  6  0  0  0
  1 10  1  0  0  0  0
  3  2  1  0  0  0  0
  4 22  2  0  0  0  0
  5  4  1  0  0  0  0
  5 23  1  0  0  0  0
  6 32  1  0  0  0  0
  6 14  1  0  0  0  0
  8 21  1  6  0  0  0
  8 23  1  0  0  0  0
  9  2  1  0  0  0  0
 10  7  1  1  0  0  0
 10 11  1  0  0  0  0
 11  9  1  6  0  0  0
 12 17  1  0  0  0  0
 13  8  1  0  0  0  0
 14  7  1  1  0  0  0
 15 13  1  0  0  0  0
 15  5  2  0  0  0  0
 16  3  1  0  0  0  0
 17 11  1  0  0  0  0
 17 16  1  1  0  0  0
 18 12  2  0  0  0  0
 19  6  1  0  0  0  0
 20  4  1  0  0  0  0
 22  1  1  0  0  0  0
 22 12  1  0  0  0  0
 23 18  1  0  0  0  0
 25 14  1  0  0  0  0
 25 26  1  0  0  0  0
 25 24  1  1  0  0  0
 26 27  1  6  0  0  0
 26 24  1  0  0  0  0
 27 28  1  0  0  0  0
 28 30  1  0  0  0  0
 29 28  2  0  0  0  0
 31 32  1  0  0  0  0
M  END
>  <MODEL>
9

>  <REMARK>
 VINA RESULT:      -6.3      2.707      4.475
  Name = 
  4 active torsions:
  status: ('A' for Active; 'I' for Inactive)
    1  A    between atoms: N_7  and  C_19
    2  A    between atoms: C_10  and  C_17
    3  A    between atoms: C_20  and  C_29
    4  A    between atoms: C_29  and  C_30
                            x       y       z     vdW  Elec       q    Type
                         _______ _______ _______ _____ _____    ______ ____

>  <TORSDO>
F 4

$$$$
