=
 OpenBabel11112418013D

 34 41  0  0  1  0  0  0  0  0999 V2000
  192.1220  175.7330  145.5540 C   0  0  1  0  0  3  0  0  0  0  0  0
  190.2100  177.4470  145.2650 C   0  0  0  0  0  2  0  0  0  0  0  0
  194.8520  170.4720  143.0320 C   0  0  0  0  0  0  0  0  0  0  0  0
  193.8410  173.8720  145.5840 C   0  0  2  0  0  3  0  0  0  0  0  0
  193.1920  171.7180  144.4650 C   0  0  2  0  0  3  0  0  0  0  0  0
  192.6580  169.7010  142.6820 S   0  0  0  0  0  0  0  0  0  0  0  0
  194.2530  169.9650  141.9410 N   0  0  0  0  0  0  0  0  0  0  0  0
  196.6010  171.4510  144.6150 C   0  0  0  0  0  2  0  0  0  0  0  0
  189.9410  175.2740  144.5860 C   0  0  2  0  0  3  0  0  0  0  0  0
  187.6110  174.7230  142.4460 C   0  0  0  0  0  2  0  0  0  0  0  0
  192.2150  172.4150  143.6240 N   0  0  0  0  0  2  0  0  0  0  0  0
  195.4720  171.9260  145.5480 C   0  0  0  0  0  2  0  0  0  0  0  0
  190.4420  174.1380  143.6940 C   0  0  1  0  0  3  0  0  0  0  0  0
  188.9480  177.4280  144.6310 O   0  0  0  0  0  0  0  0  0  0  0  0
  194.3680  172.6680  144.7980 C   0  0  2  0  0  3  0  0  0  0  0  0
  196.1510  171.0060  143.2910 N   0  0  0  0  0  2  0  0  0  0  0  0
  188.3590  176.0220  142.7270 C   0  0  2  0  0  3  0  0  0  0  0  0
  192.6980  174.5200  144.7960 C   0  0  1  0  0  3  0  0  0  0  0  0
  193.6380  170.3460  143.8930 C   0  0  1  0  0  3  0  0  0  0  0  0
  191.6150  173.4730  144.4360 C   0  0  2  0  0  3  0  0  0  0  0  0
  194.3860  176.1290  146.5470 C   0  0  0  0  0  2  0  0  0  0  0  0
  188.5590  173.5600  142.1720 C   0  0  0  0  0  2  0  0  0  0  0  0
  194.9410  174.9140  145.8020 C   0  0  0  0  0  2  0  0  0  0  0  0
  189.3290  173.1390  143.4170 C   0  0  0  0  0  2  0  0  0  0  0  0
  188.7140  176.0920  144.2170 C   0  0  1  0  0  3  0  0  0  0  0  0
  193.2340  176.7590  145.7650 C   0  0  0  0  0  2  0  0  0  0  0  0
  191.0000  176.3030  144.6960 C   0  0  2  0  0  3  0  0  0  0  0  0
  187.5350  177.0960  142.3790 O   0  0  0  0  0  0  0  0  0  0  0  0
  186.2350  176.6090  142.5260 C   0  0  0  0  0  2  0  0  0  0  0  0
  185.6790  178.8100  145.3290 C   0  0  0  0  0  2  0  0  0  0  0  0
  185.9020  179.0420  142.9480 C   0  0  0  0  0  2  0  0  0  0  0  0
  185.3660  177.6490  143.2060 C   0  0  0  0  0  3  0  0  0  0  0  0
  185.5980  179.8200  144.2050 C   0  0  0  0  0  2  0  0  0  0  0  0
  185.3990  177.4520  144.7100 C   0  0  0  0  0  2  0  0  0  0  0  0
  1 26  1  6  0  0  0
  3 16  1  0  0  0  0
  3 19  1  0  0  0  0
  4 23  1  6  0  0  0
  5 11  1  6  0  0  0
  5 15  1  0  0  0  0
  6 19  1  0  0  0  0
  7  6  1  0  0  0  0
  7  3  2  0  0  0  0
  8 12  1  0  0  0  0
  9 27  1  0  0  0  0
 10 17  1  0  0  0  0
 11 20  1  0  0  0  0
 13 20  1  0  0  0  0
 13  9  1  0  0  0  0
 14  2  1  0  0  0  0
 15 12  1  0  0  0  0
 15  4  1  0  0  0  0
 16  8  1  0  0  0  0
 17 25  1  0  0  0  0
 18  1  1  0  0  0  0
 18  4  1  0  0  0  0
 19  5  1  0  0  0  0
 20 18  1  0  0  0  0
 22 10  1  0  0  0  0
 22 24  1  0  0  0  0
 23 21  1  0  0  0  0
 24 13  1  0  0  0  0
 25  9  1  0  0  0  0
 25 14  1  0  0  0  0
 26 21  1  0  0  0  0
 27  2  1  0  0  0  0
 27  1  1  0  0  0  0
 28 29  1  0  0  0  0
 28 17  1  0  0  0  0
 29 32  1  0  0  0  0
 31 32  1  0  0  0  0
 31 33  1  0  0  0  0
 32 34  1  0  0  0  0
 33 30  1  0  0  0  0
 34 30  1  0  0  0  0
M  END
>  <MODEL>
1

>  <REMARK>
 VINA RESULT:      -8.4      0.000      0.000
  Name = 
  3 active torsions:
  status: ('A' for Active; 'I' for Inactive)
    1  A    between atoms: C_17  and  O_28
    2  A    between atoms: O_28  and  C_29
    3  A    between atoms: C_29  and  C_32
                            x       y       z     vdW  Elec       q    Type
                         _______ _______ _______ _____ _____    ______ ____

>  <TORSDO>
F 3

$$$$
=
 OpenBabel11112418013D

 34 41  0  0  1  0  0  0  0  0999 V2000
  188.1890  176.6950  146.4440 C   0  0  1  0  0  3  0  0  0  0  0  0
  190.1430  175.2550  147.3290 C   0  0  0  0  0  2  0  0  0  0  0  0
  184.6010  178.0220  141.2610 C   0  0  0  0  0  0  0  0  0  0  0  0
  186.3600  177.9900  145.2610 C   0  0  2  0  0  3  0  0  0  0  0  0
  186.6030  178.2700  142.7750 C   0  0  2  0  0  3  0  0  0  0  0  0
  186.6160  177.9480  140.0500 S   0  0  0  0  0  0  0  0  0  0  0  0
  184.9360  177.3720  140.1330 N   0  0  0  0  0  0  0  0  0  0  0  0
  183.2770  178.9210  143.2510 C   0  0  0  0  0  2  0  0  0  0  0  0
  190.0980  175.9430  145.1420 C   0  0  2  0  0  3  0  0  0  0  0  0
  191.9190  174.2830  143.0830 C   0  0  0  0  0  2  0  0  0  0  0  0
  187.4540  177.0800  142.6950 N   0  0  0  0  0  2  0  0  0  0  0  0
  184.5990  179.2720  143.9570 C   0  0  0  0  0  2  0  0  0  0  0  0
  189.3430  175.9400  143.8130 C   0  0  1  0  0  3  0  0  0  0  0  0
  191.2540  174.6170  146.7330 O   0  0  0  0  0  0  0  0  0  0  0  0
  185.5950  178.1150  143.9410 C   0  0  2  0  0  3  0  0  0  0  0  0
  183.4250  178.0630  142.0700 N   0  0  0  0  0  2  0  0  0  0  0  0
  191.3480  173.8350  144.4250 C   0  0  2  0  0  3  0  0  0  0  0  0
  187.3800  176.8530  145.1410 C   0  0  1  0  0  3  0  0  0  0  0  0
  185.9440  178.6560  141.4240 C   0  0  1  0  0  3  0  0  0  0  0  0
  188.2840  177.0530  143.8990 C   0  0  2  0  0  3  0  0  0  0  0  0
  186.1980  177.5130  147.7240 C   0  0  0  0  0  2  0  0  0  0  0  0
  190.8430  174.8420  142.1580 C   0  0  0  0  0  2  0  0  0  0  0  0
  185.4120  177.6810  146.4220 C   0  0  0  0  0  2  0  0  0  0  0  0
  190.2960  176.1750  142.6510 C   0  0  0  0  0  2  0  0  0  0  0  0
  191.2930  175.0350  145.3790 C   0  0  1  0  0  3  0  0  0  0  0  0
  187.2260  176.3900  147.5910 C   0  0  0  0  0  2  0  0  0  0  0  0
  189.1680  175.5490  146.2260 C   0  0  2  0  0  3  0  0  0  0  0  0
  192.1750  172.8400  144.9520 O   0  0  0  0  0  0  0  0  0  0  0  0
  193.4540  173.1600  144.4930 C   0  0  0  0  0  2  0  0  0  0  0  0
  196.7350  172.2160  145.6590 C   0  0  0  0  0  2  0  0  0  0  0  0
  195.4260  174.2290  145.5780 C   0  0  0  0  0  2  0  0  0  0  0  0
  194.4510  173.0720  145.6340 C   0  0  0  0  0  3  0  0  0  0  0  0
  196.7320  173.6680  146.0850 C   0  0  0  0  0  2  0  0  0  0  0  0
  195.2800  171.8100  145.5040 C   0  0  0  0  0  2  0  0  0  0  0  0
  1 26  1  1  0  0  0
  3 19  1  0  0  0  0
  3 16  1  0  0  0  0
  4 23  1  1  0  0  0
  5 11  1  6  0  0  0
  5 15  1  0  0  0  0
  6  7  1  0  0  0  0
  6 19  1  0  0  0  0
  7  3  2  0  0  0  0
  8 12  1  0  0  0  0
  9 25  1  0  0  0  0
  9 27  1  0  0  0  0
 10 17  1  0  0  0  0
 11 20  1  0  0  0  0
 13 20  1  0  0  0  0
 13  9  1  0  0  0  0
 14  2  1  0  0  0  0
 15 12  1  0  0  0  0
 15  4  1  0  0  0  0
 16  8  1  0  0  0  0
 17 28  1  0  0  0  0
 17 25  1  0  0  0  0
 18  4  1  0  0  0  0
 18  1  1  0  0  0  0
 19  5  1  0  0  0  0
 20 18  1  0  0  0  0
 22 24  1  0  0  0  0
 22 10  1  0  0  0  0
 23 21  1  0  0  0  0
 24 13  1  0  0  0  0
 25 14  1  0  0  0  0
 26 21  1  0  0  0  0
 27  1  1  0  0  0  0
 27  2  1  0  0  0  0
 29 28  1  0  0  0  0
 29 32  1  0  0  0  0
 30 33  1  0  0  0  0
 31 32  1  0  0  0  0
 31 33  1  0  0  0  0
 34 32  1  0  0  0  0
 34 30  1  0  0  0  0
M  END
>  <MODEL>
2

>  <REMARK>
 VINA RESULT:      -8.4      3.826      8.885
  Name = 
  3 active torsions:
  status: ('A' for Active; 'I' for Inactive)
    1  A    between atoms: C_17  and  O_28
    2  A    between atoms: O_28  and  C_29
    3  A    between atoms: C_29  and  C_32
                            x       y       z     vdW  Elec       q    Type
                         _______ _______ _______ _____ _____    ______ ____

>  <TORSDO>
F 3

$$$$
=
 OpenBabel11112418013D

 34 41  0  0  1  0  0  0  0  0999 V2000
  192.2670  175.5420  145.4550 C   0  0  1  0  0  3  0  0  0  0  0  0
  189.9760  176.0420  146.5400 C   0  0  0  0  0  2  0  0  0  0  0  0
  195.4400  175.2100  139.8580 C   0  0  0  0  0  0  0  0  0  0  0  0
  194.3450  175.0620  144.0870 C   0  0  2  0  0  3  0  0  0  0  0  0
  193.9860  174.3130  141.7140 C   0  0  2  0  0  3  0  0  0  0  0  0
  193.5120  174.1580  139.0160 S   0  0  0  0  0  0  0  0  0  0  0  0
  194.7110  175.4460  138.7550 N   0  0  0  0  0  0  0  0  0  0  0  0
  197.2480  175.3480  141.6560 C   0  0  0  0  0  2  0  0  0  0  0  0
  190.0970  175.1160  144.4460 C   0  0  2  0  0  3  0  0  0  0  0  0
  187.4840  175.4040  142.6010 C   0  0  0  0  0  2  0  0  0  0  0  0
  192.6670  174.9500  141.6820 N   0  0  0  0  0  2  0  0  0  0  0  0
  196.3440  174.5450  142.6100 C   0  0  0  0  0  2  0  0  0  0  0  0
  190.6030  175.2550  143.0100 C   0  0  1  0  0  3  0  0  0  0  0  0
  188.6350  175.9950  146.0950 O   0  0  0  0  0  0  0  0  0  0  0  0
  194.9220  175.0960  142.6680 C   0  0  2  0  0  3  0  0  0  0  0  0
  196.5750  175.8420  140.4500 N   0  0  0  0  0  2  0  0  0  0  0  0
  187.9190  176.2700  143.7790 C   0  0  2  0  0  3  0  0  0  0  0  0
  192.8990  175.5690  144.0480 C   0  0  1  0  0  3  0  0  0  0  0  0
  194.5930  174.0650  140.3070 C   0  0  1  0  0  3  0  0  0  0  0  0
  192.0680  174.7830  143.0060 C   0  0  2  0  0  3  0  0  0  0  0  0
  194.5360  175.9440  146.4330 C   0  0  0  0  0  2  0  0  0  0  0  0
  188.5840  175.2630  141.5540 C   0  0  0  0  0  2  0  0  0  0  0  0
  195.1540  175.9520  145.0330 C   0  0  0  0  0  2  0  0  0  0  0  0
  189.7540  174.4280  142.0570 C   0  0  0  0  0  2  0  0  0  0  0  0
  188.6480  175.3980  144.8080 C   0  0  1  0  0  3  0  0  0  0  0  0
  193.0890  176.4320  146.3850 C   0  0  0  0  0  2  0  0  0  0  0  0
  190.8410  176.0590  145.3120 C   0  0  2  0  0  3  0  0  0  0  0  0
  186.7820  176.8430  144.3550 O   0  0  0  0  0  0  0  0  0  0  0  0
  186.8490  178.1930  144.0060 C   0  0  0  0  0  2  0  0  0  0  0  0
  183.8610  178.7270  145.9570 C   0  0  0  0  0  2  0  0  0  0  0  0
  186.2010  178.4120  146.4030 C   0  0  0  0  0  2  0  0  0  0  0  0
  186.0950  179.0290  145.0240 C   0  0  0  0  0  3  0  0  0  0  0  0
  184.8830  178.7170  147.0730 C   0  0  0  0  0  2  0  0  0  0  0  0
  184.6180  179.0560  144.6820 C   0  0  0  0  0  2  0  0  0  0  0  0
  1 26  1  1  0  0  0
  3 19  1  0  0  0  0
  3 16  1  0  0  0  0
  4 23  1  1  0  0  0
  5 11  1  6  0  0  0
  5 15  1  0  0  0  0
  6 19  1  0  0  0  0
  7  6  1  0  0  0  0
  7  3  2  0  0  0  0
  8 12  1  0  0  0  0
  9 25  1  0  0  0  0
  9 27  1  0  0  0  0
 10 17  1  0  0  0  0
 11 20  1  0  0  0  0
 12 15  1  0  0  0  0
 13  9  1  0  0  0  0
 14  2  1  0  0  0  0
 15  4  1  0  0  0  0
 16  8  1  0  0  0  0
 17 28  1  0  0  0  0
 17 25  1  0  0  0  0
 18  4  1  0  0  0  0
 18  1  1  0  0  0  0
 19  5  1  0  0  0  0
 20 13  1  0  0  0  0
 20 18  1  0  0  0  0
 22 24  1  0  0  0  0
 22 10  1  0  0  0  0
 23 21  1  0  0  0  0
 24 13  1  0  0  0  0
 25 14  1  0  0  0  0
 26 21  1  0  0  0  0
 27  1  1  0  0  0  0
 27  2  1  0  0  0  0
 29 28  1  0  0  0  0
 29 32  1  0  0  0  0
 30 33  1  0  0  0  0
 31 33  1  0  0  0  0
 32 31  1  0  0  0  0
 34 32  1  0  0  0  0
 34 30  1  0  0  0  0
M  END
>  <MODEL>
3

>  <REMARK>
 VINA RESULT:      -8.3      2.814      3.066
  Name = 
  3 active torsions:
  status: ('A' for Active; 'I' for Inactive)
    1  A    between atoms: C_17  and  O_28
    2  A    between atoms: O_28  and  C_29
    3  A    between atoms: C_29  and  C_32
                            x       y       z     vdW  Elec       q    Type
                         _______ _______ _______ _____ _____    ______ ____

>  <TORSDO>
F 3

$$$$
=
 OpenBabel11112418013D

 34 41  0  0  1  0  0  0  0  0999 V2000
  189.4900  175.0610  144.9990 C   0  0  1  0  0  3  0  0  0  0  0  0
  190.9420  172.9910  144.4670 C   0  0  0  0  0  2  0  0  0  0  0  0
  184.3540  178.4660  143.1210 C   0  0  0  0  0  0  0  0  0  0  0  0
  187.9140  177.0330  145.2120 C   0  0  2  0  0  3  0  0  0  0  0  0
  186.7910  177.8140  143.1040 C   0  0  2  0  0  3  0  0  0  0  0  0
  185.1500  178.1490  140.9300 S   0  0  0  0  0  0  0  0  0  0  0  0
  183.7390  178.0350  142.0070 N   0  0  0  0  0  0  0  0  0  0  0  0
  184.8040  179.1890  145.5280 C   0  0  0  0  0  2  0  0  0  0  0  0
  189.9160  174.1590  142.7820 C   0  0  2  0  0  3  0  0  0  0  0  0
  189.5300  172.6090  139.9970 C   0  0  0  0  0  2  0  0  0  0  0  0
  186.9620  176.4950  142.4900 N   0  0  0  0  0  2  0  0  0  0  0  0
  186.3140  179.0040  145.2890 C   0  0  0  0  0  2  0  0  0  0  0  0
  188.6010  174.6680  142.1910 C   0  0  1  0  0  3  0  0  0  0  0  0
  191.2110  172.2400  143.3010 O   0  0  0  0  0  0  0  0  0  0  0  0
  186.6410  177.6620  144.6380 C   0  0  2  0  0  3  0  0  0  0  0  0
  183.9470  178.6250  144.4800 N   0  0  0  0  0  2  0  0  0  0  0  0
  189.7030  172.0260  141.3960 C   0  0  2  0  0  3  0  0  0  0  0  0
  188.2070  175.7290  144.4640 C   0  0  1  0  0  3  0  0  0  0  0  0
  185.6720  178.6670  142.4470 C   0  0  1  0  0  3  0  0  0  0  0  0
  188.2510  175.9680  142.9350 C   0  0  2  0  0  3  0  0  0  0  0  0
  189.0140  176.0510  147.2480 C   0  0  0  0  0  2  0  0  0  0  0  0
  188.4020  173.6330  139.9360 C   0  0  0  0  0  2  0  0  0  0  0  0
  187.7520  176.7220  146.7020 C   0  0  0  0  0  2  0  0  0  0  0  0
  188.7400  174.9090  140.6960 C   0  0  0  0  0  2  0  0  0  0  0  0
  190.6230  172.9390  142.2160 C   0  0  1  0  0  3  0  0  0  0  0  0
  189.3110  174.7610  146.4860 C   0  0  0  0  0  2  0  0  0  0  0  0
  189.6940  173.7820  144.1970 C   0  0  2  0  0  3  0  0  0  0  0  0
  190.2680  170.7530  141.2820 O   0  0  0  0  0  0  0  0  0  0  0  0
  190.9440  170.7710  140.0610 C   0  0  0  0  0  2  0  0  0  0  0  0
  190.8570  168.6600  137.1370 C   0  0  0  0  0  2  0  0  0  0  0  0
  192.3670  169.0420  138.9670 C   0  0  0  0  0  2  0  0  0  0  0  0
  190.9760  169.3760  139.4660 C   0  0  0  0  0  3  0  0  0  0  0  0
  192.1510  168.1720  137.7530 C   0  0  0  0  0  2  0  0  0  0  0  0
  190.0620  169.3040  138.2580 C   0  0  0  0  0  2  0  0  0  0  0  0
  1 26  1  1  0  0  0
  3 16  1  0  0  0  0
  4 23  1  1  0  0  0
  5 11  1  6  0  0  0
  5 15  1  0  0  0  0
  6  7  1  0  0  0  0
  6 19  1  0  0  0  0
  7  3  2  0  0  0  0
  9 27  1  0  0  0  0
 10 17  1  0  0  0  0
 11 20  1  0  0  0  0
 12  8  1  0  0  0  0
 13  9  1  0  0  0  0
 13 20  1  0  0  0  0
 14  2  1  0  0  0  0
 15  4  1  0  0  0  0
 15 12  1  0  0  0  0
 16  8  1  0  0  0  0
 17 25  1  0  0  0  0
 18  1  1  0  0  0  0
 18  4  1  0  0  0  0
 19  5  1  0  0  0  0
 19  3  1  0  0  0  0
 20 18  1  0  0  0  0
 22 10  1  0  0  0  0
 22 24  1  0  0  0  0
 23 21  1  0  0  0  0
 24 13  1  0  0  0  0
 25  9  1  0  0  0  0
 25 14  1  0  0  0  0
 26 21  1  0  0  0  0
 27  2  1  0  0  0  0
 27  1  1  0  0  0  0
 28 17  1  0  0  0  0
 29 28  1  0  0  0  0
 30 33  1  0  0  0  0
 30 34  1  0  0  0  0
 31 32  1  0  0  0  0
 32 29  1  0  0  0  0
 33 31  1  0  0  0  0
 34 32  1  0  0  0  0
M  END
>  <MODEL>
4

>  <REMARK>
 VINA RESULT:      -8.2      4.633      8.808
  Name = 
  3 active torsions:
  status: ('A' for Active; 'I' for Inactive)
    1  A    between atoms: C_17  and  O_28
    2  A    between atoms: O_28  and  C_29
    3  A    between atoms: C_29  and  C_32
                            x       y       z     vdW  Elec       q    Type
                         _______ _______ _______ _____ _____    ______ ____

>  <TORSDO>
F 3

$$$$
=
 OpenBabel11112418013D

 34 41  0  0  1  0  0  0  0  0999 V2000
  189.5220  174.9000  141.9680 C   0  0  1  0  0  3  0  0  0  0  0  0
  187.1990  175.7000  142.7700 C   0  0  0  0  0  2  0  0  0  0  0  0
  195.4640  173.3330  143.8970 C   0  0  0  0  0  0  0  0  0  0  0  0
  191.9070  174.1830  141.5050 C   0  0  2  0  0  3  0  0  0  0  0  0
  193.6490  174.9210  143.1600 C   0  0  2  0  0  3  0  0  0  0  0  0
  195.3180  175.2000  145.3210 S   0  0  0  0  0  0  0  0  0  0  0  0
  195.7100  173.4690  145.2110 N   0  0  0  0  0  0  0  0  0  0  0  0
  195.2290  172.3450  141.5540 C   0  0  0  0  0  2  0  0  0  0  0  0
  189.1010  176.3510  143.8720 C   0  0  2  0  0  3  0  0  0  0  0  0
  188.7230  177.3900  146.8870 C   0  0  0  0  0  2  0  0  0  0  0  0
  192.6350  175.0590  144.2090 N   0  0  0  0  0  2  0  0  0  0  0  0
  194.3370  173.5350  141.1550 C   0  0  0  0  0  2  0  0  0  0  0  0
  190.3550  175.9170  144.6320 C   0  0  1  0  0  3  0  0  0  0  0  0
  186.7300  176.4180  143.8930 O   0  0  0  0  0  0  0  0  0  0  0  0
  193.2320  173.8030  142.1730 C   0  0  2  0  0  3  0  0  0  0  0  0
  195.4790  172.2260  142.9950 N   0  0  0  0  0  2  0  0  0  0  0  0
  187.8170  176.4690  146.0750 C   0  0  2  0  0  3  0  0  0  0  0  0
  190.8730  174.4980  142.5910 C   0  0  1  0  0  3  0  0  0  0  0  0
  195.0940  174.7670  143.7070 C   0  0  1  0  0  3  0  0  0  0  0  0
  191.4160  175.5620  143.5760 C   0  0  2  0  0  3  0  0  0  0  0  0
  190.0320  173.4170  140.0160 C   0  0  0  0  0  2  0  0  0  0  0  0
  190.1670  176.9020  146.9100 C   0  0  0  0  0  2  0  0  0  0  0  0
  191.3780  173.0380  140.6370 C   0  0  0  0  0  2  0  0  0  0  0  0
  190.8400  177.0280  145.5500 C   0  0  0  0  0  2  0  0  0  0  0  0
  187.8730  176.8740  144.5980 C   0  0  1  0  0  3  0  0  0  0  0  0
  189.0110  173.7480  141.1040 C   0  0  0  0  0  2  0  0  0  0  0  0
  188.5680  175.1920  143.1190 C   0  0  2  0  0  3  0  0  0  0  0  0
  186.5110  176.5890  146.5570 O   0  0  0  0  0  0  0  0  0  0  0  0
  186.5180  177.7610  147.3160 C   0  0  0  0  0  2  0  0  0  0  0  0
  184.8950  179.4390  144.5650 C   0  0  0  0  0  2  0  0  0  0  0  0
  184.2440  177.9170  146.3070 C   0  0  0  0  0  2  0  0  0  0  0  0
  185.4310  178.7000  146.8280 C   0  0  0  0  0  3  0  0  0  0  0  0
  183.6950  178.7440  145.1710 C   0  0  0  0  0  2  0  0  0  0  0  0
  185.9410  179.5250  145.6620 C   0  0  0  0  0  2  0  0  0  0  0  0
  1 26  1  1  0  0  0
  1 18  1  0  0  0  0
  1 27  1  0  0  0  0
  2 27  1  0  0  0  0
  2 14  1  0  0  0  0
  3  7  2  0  0  0  0
  4 23  1  1  0  0  0
  4 15  1  0  0  0  0
  4 18  1  0  0  0  0
  5 19  1  0  0  0  0
  5 11  1  1  0  0  0
  7  6  1  0  0  0  0
  8 16  1  0  0  0  0
  9 25  1  0  0  0  0
  9 13  1  0  0  0  0
 10 22  1  0  0  0  0
 12  8  1  0  0  0  0
 12 15  1  0  0  0  0
 13 24  1  0  0  0  0
 14 25  1  0  0  0  0
 15  5  1  0  0  0  0
 16  3  1  0  0  0  0
 17 28  1  0  0  0  0
 17 10  1  0  0  0  0
 18 20  1  0  0  0  0
 19  3  1  0  0  0  0
 19  6  1  0  0  0  0
 20 11  1  0  0  0  0
 20 13  1  0  0  0  0
 21 23  1  0  0  0  0
 21 26  1  0  0  0  0
 24 22  1  0  0  0  0
 25 17  1  0  0  0  0
 27  9  1  0  0  0  0
 28 29  1  0  0  0  0
 30 33  1  0  0  0  0
 30 34  1  0  0  0  0
 31 32  1  0  0  0  0
 32 29  1  0  0  0  0
 33 31  1  0  0  0  0
 34 32  1  0  0  0  0
M  END
>  <MODEL>
5

>  <REMARK>
 VINA RESULT:      -8.2      2.311      4.226
  Name = 
  3 active torsions:
  status: ('A' for Active; 'I' for Inactive)
    1  A    between atoms: C_17  and  O_28
    2  A    between atoms: O_28  and  C_29
    3  A    between atoms: C_29  and  C_32
                            x       y       z     vdW  Elec       q    Type
                         _______ _______ _______ _____ _____    ______ ____

>  <TORSDO>
F 3

$$$$
=
 OpenBabel11112418013D

 34 41  0  0  1  0  0  0  0  0999 V2000
  192.1560  175.8410  145.5490 C   0  0  1  0  0  3  0  0  0  0  0  0
  190.1070  177.1860  146.3680 C   0  0  0  0  0  2  0  0  0  0  0  0
  194.9460  173.1950  140.3800 C   0  0  0  0  0  0  0  0  0  0  0  0
  193.9940  174.4920  144.4430 C   0  0  2  0  0  3  0  0  0  0  0  0
  193.3750  173.2410  142.3530 C   0  0  2  0  0  3  0  0  0  0  0  0
  192.7850  172.4810  139.7830 S   0  0  0  0  0  0  0  0  0  0  0  0
  194.2640  173.2990  139.2270 N   0  0  0  0  0  0  0  0  0  0  0  0
  196.7890  173.3520  142.1410 C   0  0  0  0  0  2  0  0  0  0  0  0
  189.9160  175.7250  144.6110 C   0  0  2  0  0  3  0  0  0  0  0  0
  187.4030  176.1560  142.6590 C   0  0  0  0  0  2  0  0  0  0  0  0
  192.2620  174.1600  142.0980 N   0  0  0  0  0  2  0  0  0  0  0  0
  195.7430  173.0980  143.2420 C   0  0  0  0  0  2  0  0  0  0  0  0
  190.3920  175.3330  143.2120 C   0  0  1  0  0  3  0  0  0  0  0  0
  188.7850  177.3640  145.9010 O   0  0  0  0  0  0  0  0  0  0  0  0
  194.5120  173.9880  143.0930 C   0  0  2  0  0  3  0  0  0  0  0  0
  196.2250  173.6530  140.8200 N   0  0  0  0  0  2  0  0  0  0  0  0
  188.0850  177.1690  143.5730 C   0  0  2  0  0  3  0  0  0  0  0  0
  192.7250  175.3200  144.2130 C   0  0  1  0  0  3  0  0  0  0  0  0
  193.8490  172.4720  141.0910 C   0  0  1  0  0  3  0  0  0  0  0  0
  191.6850  174.5190  143.3930 C   0  0  2  0  0  3  0  0  0  0  0  0
  194.4840  175.9010  146.4670 C   0  0  0  0  0  2  0  0  0  0  0  0
  188.3940  175.4580  141.7330 C   0  0  0  0  0  2  0  0  0  0  0  0
  195.0360  175.3680  145.1430 C   0  0  0  0  0  2  0  0  0  0  0  0
  189.3280  174.5220  142.4890 C   0  0  0  0  0  2  0  0  0  0  0  0
  188.6010  176.4550  144.8280 C   0  0  1  0  0  3  0  0  0  0  0  0
  193.2090  176.7100  146.2320 C   0  0  0  0  0  2  0  0  0  0  0  0
  190.9060  176.6460  145.2160 C   0  0  2  0  0  3  0  0  0  0  0  0
  187.1530  178.1490  143.9270 O   0  0  0  0  0  0  0  0  0  0  0  0
  185.9300  177.4780  143.9670 C   0  0  0  0  0  2  0  0  0  0  0  0
  185.7190  177.5060  147.5680 C   0  0  0  0  0  2  0  0  0  0  0  0
  185.7270  179.1440  145.8100 C   0  0  0  0  0  2  0  0  0  0  0  0
  185.1670  177.8660  145.2200 C   0  0  0  0  0  3  0  0  0  0  0  0
  185.5710  178.9880  147.3030 C   0  0  0  0  0  2  0  0  0  0  0  0
  185.3330  176.7970  146.2820 C   0  0  0  0  0  2  0  0  0  0  0  0
  1 26  1  6  0  0  0
  3 16  1  0  0  0  0
  3 19  1  0  0  0  0
  4 23  1  6  0  0  0
  5 11  1  6  0  0  0
  5 15  1  0  0  0  0
  6 19  1  0  0  0  0
  7  6  1  0  0  0  0
  7  3  2  0  0  0  0
  8 12  1  0  0  0  0
  9 25  1  0  0  0  0
  9 27  1  0  0  0  0
 10 17  1  0  0  0  0
 11 20  1  0  0  0  0
 13 20  1  0  0  0  0
 13  9  1  0  0  0  0
 14  2  1  0  0  0  0
 15 12  1  0  0  0  0
 15  4  1  0  0  0  0
 16  8  1  0  0  0  0
 17 28  1  0  0  0  0
 17 25  1  0  0  0  0
 18  4  1  0  0  0  0
 18  1  1  0  0  0  0
 19  5  1  0  0  0  0
 20 18  1  0  0  0  0
 22 24  1  0  0  0  0
 22 10  1  0  0  0  0
 23 21  1  0  0  0  0
 24 13  1  0  0  0  0
 25 14  1  0  0  0  0
 26 21  1  0  0  0  0
 27  1  1  0  0  0  0
 27  2  1  0  0  0  0
 28 29  1  0  0  0  0
 29 32  1  0  0  0  0
 31 33  1  0  0  0  0
 32 31  1  0  0  0  0
 32 34  1  0  0  0  0
 33 30  1  0  0  0  0
 34 30  1  0  0  0  0
M  END
>  <MODEL>
6

>  <REMARK>
 VINA RESULT:      -8.2      2.014      2.231
  Name = 
  3 active torsions:
  status: ('A' for Active; 'I' for Inactive)
    1  A    between atoms: C_17  and  O_28
    2  A    between atoms: O_28  and  C_29
    3  A    between atoms: C_29  and  C_32
                            x       y       z     vdW  Elec       q    Type
                         _______ _______ _______ _____ _____    ______ ____

>  <TORSDO>
F 3

$$$$
=
 OpenBabel11112418013D

 34 41  0  0  1  0  0  0  0  0999 V2000
  189.2640  175.3690  145.0800 C   0  0  1  0  0  3  0  0  0  0  0  0
  190.7490  173.2610  144.9280 C   0  0  0  0  0  2  0  0  0  0  0  0
  184.2840  178.4590  142.4060 C   0  0  0  0  0  0  0  0  0  0  0  0
  187.6780  177.3390  144.9210 C   0  0  2  0  0  3  0  0  0  0  0  0
  186.7150  177.8330  142.6530 C   0  0  2  0  0  3  0  0  0  0  0  0
  185.2400  177.8700  140.3390 S   0  0  0  0  0  0  0  0  0  0  0  0
  183.7530  177.8830  141.3150 N   0  0  0  0  0  0  0  0  0  0  0  0
  184.5560  179.4900  144.7270 C   0  0  0  0  0  2  0  0  0  0  0  0
  189.8520  174.1940  143.0360 C   0  0  2  0  0  3  0  0  0  0  0  0
  189.6720  172.2950  140.4520 C   0  0  0  0  0  2  0  0  0  0  0  0
  186.9300  176.4470  142.2280 N   0  0  0  0  0  2  0  0  0  0  0  0
  186.0790  179.2890  144.6250 C   0  0  0  0  0  2  0  0  0  0  0  0
  188.5850  174.6110  142.2890 C   0  0  1  0  0  3  0  0  0  0  0  0
  191.1030  172.3680  143.8910 O   0  0  0  0  0  0  0  0  0  0  0  0
  186.4520  177.8770  144.1780 C   0  0  2  0  0  3  0  0  0  0  0  0
  183.7770  178.7890  143.7000 N   0  0  0  0  0  2  0  0  0  0  0  0
  189.7410  171.8980  141.9240 C   0  0  2  0  0  3  0  0  0  0  0  0
  188.0240  175.9510  144.3710 C   0  0  1  0  0  3  0  0  0  0  0  0
  185.6490  178.5840  141.8110 C   0  0  1  0  0  3  0  0  0  0  0  0
  188.1820  175.9930  142.8320 C   0  0  2  0  0  3  0  0  0  0  0  0
  188.6230  176.6370  147.1420 C   0  0  0  0  0  2  0  0  0  0  0  0
  188.5530  173.2930  140.1770 C   0  0  0  0  0  2  0  0  0  0  0  0
  187.4060  177.2200  146.4230 C   0  0  0  0  0  2  0  0  0  0  0  0
  188.8350  174.6590  140.7890 C   0  0  0  0  0  2  0  0  0  0  0  0
  190.5980  172.9170  142.6850 C   0  0  1  0  0  3  0  0  0  0  0  0
  188.9750  175.2610  146.5760 C   0  0  0  0  0  2  0  0  0  0  0  0
  189.5260  174.0000  144.4670 C   0  0  2  0  0  3  0  0  0  0  0  0
  190.3110  170.6260  142.0170 O   0  0  0  0  0  0  0  0  0  0  0  0
  191.0810  170.4960  140.8600 C   0  0  0  0  0  2  0  0  0  0  0  0
  194.2360  170.9680  142.5460 C   0  0  0  0  0  2  0  0  0  0  0  0
  192.4560  169.3550  142.5980 C   0  0  0  0  0  2  0  0  0  0  0  0
  192.4580  169.9630  141.2110 C   0  0  0  0  0  3  0  0  0  0  0  0
  193.8270  169.6450  143.1570 C   0  0  0  0  0  2  0  0  0  0  0  0
  193.4620  171.0990  141.2460 C   0  0  0  0  0  2  0  0  0  0  0  0
  1 26  1  1  0  0  0
  3 16  1  0  0  0  0
  4 23  1  1  0  0  0
  5 11  1  6  0  0  0
  5 15  1  0  0  0  0
  6  7  1  0  0  0  0
  6 19  1  0  0  0  0
  7  3  2  0  0  0  0
  9 27  1  0  0  0  0
 10 17  1  0  0  0  0
 11 20  1  0  0  0  0
 12  8  1  0  0  0  0
 13 20  1  0  0  0  0
 13  9  1  0  0  0  0
 14  2  1  0  0  0  0
 15 12  1  0  0  0  0
 15  4  1  0  0  0  0
 16  8  1  0  0  0  0
 17 28  1  0  0  0  0
 17 25  1  0  0  0  0
 18  4  1  0  0  0  0
 18  1  1  0  0  0  0
 19  3  1  0  0  0  0
 19  5  1  0  0  0  0
 20 18  1  0  0  0  0
 22 10  1  0  0  0  0
 22 24  1  0  0  0  0
 23 21  1  0  0  0  0
 24 13  1  0  0  0  0
 25  9  1  0  0  0  0
 25 14  1  0  0  0  0
 26 21  1  0  0  0  0
 27  2  1  0  0  0  0
 27  1  1  0  0  0  0
 29 32  1  0  0  0  0
 29 28  1  0  0  0  0
 30 33  1  0  0  0  0
 31 33  1  0  0  0  0
 32 34  1  0  0  0  0
 32 31  1  0  0  0  0
 34 30  1  0  0  0  0
M  END
>  <MODEL>
7

>  <REMARK>
 VINA RESULT:      -8.2      4.208      8.650
  Name = 
  3 active torsions:
  status: ('A' for Active; 'I' for Inactive)
    1  A    between atoms: C_17  and  O_28
    2  A    between atoms: O_28  and  C_29
    3  A    between atoms: C_29  and  C_32
                            x       y       z     vdW  Elec       q    Type
                         _______ _______ _______ _____ _____    ______ ____

>  <TORSDO>
F 3

$$$$
=
 OpenBabel11112418013D

 34 41  0  0  1  0  0  0  0  0999 V2000
  189.2080  174.9290  142.8930 C   0  0  1  0  0  3  0  0  0  0  0  0
  191.5420  173.8400  143.1010 C   0  0  0  0  0  2  0  0  0  0  0  0
  185.1650  179.1790  145.5560 C   0  0  0  0  0  0  0  0  0  0  0  0
  186.9800  176.1310  143.0040 C   0  0  2  0  0  3  0  0  0  0  0  0
  186.2300  176.9100  145.2720 C   0  0  2  0  0  3  0  0  0  0  0  0
  185.8330  178.2730  147.6210 S   0  0  0  0  0  0  0  0  0  0  0  0
  185.5920  179.7660  146.6870 N   0  0  0  0  0  0  0  0  0  0  0  0
  184.2950  178.8100  143.1840 C   0  0  0  0  0  2  0  0  0  0  0  0
  190.3860  174.4890  144.9720 C   0  0  2  0  0  3  0  0  0  0  0  0
  192.1160  174.9150  147.6440 C   0  0  0  0  0  2  0  0  0  0  0  0
  187.6130  176.9320  145.7550 N   0  0  0  0  0  2  0  0  0  0  0  0
  184.7630  177.3440  143.2530 C   0  0  0  0  0  2  0  0  0  0  0  0
  189.7180  175.6340  145.7330 C   0  0  1  0  0  3  0  0  0  0  0  0
  192.4400  173.6160  144.1680 O   0  0  0  0  0  0  0  0  0  0  0  0
  186.2000  177.2140  143.7540 C   0  0  2  0  0  3  0  0  0  0  0  0
  184.8030  179.6640  144.2630 N   0  0  0  0  0  2  0  0  0  0  0  0
  192.5770  174.9700  146.1910 C   0  0  2  0  0  3  0  0  0  0  0  0
  188.3840  176.0190  143.6080 C   0  0  1  0  0  3  0  0  0  0  0  0
  185.2650  177.7940  146.1070 C   0  0  1  0  0  3  0  0  0  0  0  0
  188.3090  175.8020  145.1390 C   0  0  2  0  0  3  0  0  0  0  0  0
  187.9300  175.4050  140.7930 C   0  0  0  0  0  2  0  0  0  0  0  0
  190.9220  175.8280  147.9030 C   0  0  0  0  0  2  0  0  0  0  0  0
  187.1080  176.4730  141.5170 C   0  0  0  0  0  2  0  0  0  0  0  0
  189.6560  175.3280  147.2220 C   0  0  0  0  0  2  0  0  0  0  0  0
  191.7620  173.9720  145.3610 C   0  0  1  0  0  3  0  0  0  0  0  0
  189.3220  175.2850  141.4120 C   0  0  0  0  0  2  0  0  0  0  0  0
  190.5760  174.8950  143.5600 C   0  0  2  0  0  3  0  0  0  0  0  0
  193.9340  174.6400  146.1410 O   0  0  0  0  0  0  0  0  0  0  0  0
  194.5990  175.8680  146.1360 C   0  0  0  0  0  2  0  0  0  0  0  0
  195.6120  174.5160  142.9480 C   0  0  0  0  0  2  0  0  0  0  0  0
  194.3570  176.4150  143.7170 C   0  0  0  0  0  2  0  0  0  0  0  0
  195.3300  176.0550  144.8190 C   0  0  0  0  0  3  0  0  0  0  0  0
  194.9190  175.7740  142.4720 C   0  0  0  0  0  2  0  0  0  0  0  0
  195.9880  174.7550  144.4000 C   0  0  0  0  0  2  0  0  0  0  0  0
  1 26  1  6  0  0  0
  1 27  1  0  0  0  0
  1 18  1  0  0  0  0
  2 27  1  0  0  0  0
  2 14  1  0  0  0  0
  3 19  1  0  0  0  0
  3  7  2  0  0  0  0
  4 23  1  6  0  0  0
  4 18  1  0  0  0  0
  4 15  1  0  0  0  0
  5 11  1  1  0  0  0
  5 19  1  0  0  0  0
  7  6  1  0  0  0  0
  8 12  1  0  0  0  0
  8 16  1  0  0  0  0
  9 25  1  0  0  0  0
  9 13  1  0  0  0  0
 10 22  1  0  0  0  0
 12 15  1  0  0  0  0
 13 24  1  0  0  0  0
 14 25  1  0  0  0  0
 15  5  1  0  0  0  0
 16  3  1  0  0  0  0
 17 10  1  0  0  0  0
 18 20  1  0  0  0  0
 19  6  1  0  0  0  0
 20 13  1  0  0  0  0
 20 11  1  0  0  0  0
 21 26  1  0  0  0  0
 21 23  1  0  0  0  0
 24 22  1  0  0  0  0
 25 17  1  0  0  0  0
 27  9  1  0  0  0  0
 28 17  1  0  0  0  0
 29 28  1  0  0  0  0
 30 34  1  0  0  0  0
 31 32  1  0  0  0  0
 32 29  1  0  0  0  0
 33 30  1  0  0  0  0
 33 31  1  0  0  0  0
 34 32  1  0  0  0  0
M  END
>  <MODEL>
8

>  <REMARK>
 VINA RESULT:      -8.0      4.154      8.771
  Name = 
  3 active torsions:
  status: ('A' for Active; 'I' for Inactive)
    1  A    between atoms: C_17  and  O_28
    2  A    between atoms: O_28  and  C_29
    3  A    between atoms: C_29  and  C_32
                            x       y       z     vdW  Elec       q    Type
                         _______ _______ _______ _____ _____    ______ ____

>  <TORSDO>
F 3

$$$$
=
 OpenBabel11112418013D

 34 41  0  0  1  0  0  0  0  0999 V2000
  190.5270  173.7280  141.1790 C   0  0  1  0  0  3  0  0  0  0  0  0
  188.1020  174.2750  141.8830 C   0  0  0  0  0  2  0  0  0  0  0  0
  196.7160  174.2870  142.8750 C   0  0  0  0  0  0  0  0  0  0  0  0
  193.0020  173.3980  140.7500 C   0  0  2  0  0  3  0  0  0  0  0  0
  194.5630  175.0580  141.8120 C   0  0  2  0  0  3  0  0  0  0  0  0
  196.1710  176.4830  143.5180 S   0  0  0  0  0  0  0  0  0  0  0  0
  196.9550  174.9640  144.0100 N   0  0  0  0  0  0  0  0  0  0  0  0
  196.6620  172.4500  141.1020 C   0  0  0  0  0  2  0  0  0  0  0  0
  189.8250  175.6770  142.4490 C   0  0  2  0  0  3  0  0  0  0  0  0
  189.2870  177.6920  144.8910 C   0  0  0  0  0  2  0  0  0  0  0  0
  193.5700  175.3750  142.8420 N   0  0  0  0  0  2  0  0  0  0  0  0
  195.5070  173.1830  140.3950 C   0  0  0  0  0  2  0  0  0  0  0  0
  191.1630  175.8380  143.1710 C   0  0  1  0  0  3  0  0  0  0  0  0
  187.5050  175.2550  142.7080 O   0  0  0  0  0  0  0  0  0  0  0  0
  194.3950  173.5870  141.3590 C   0  0  2  0  0  3  0  0  0  0  0  0
  196.9670  172.9480  142.4480 N   0  0  0  0  0  2  0  0  0  0  0  0
  188.6030  176.3640  144.5830 C   0  0  2  0  0  3  0  0  0  0  0  0
  191.9500  173.8850  141.7520 C   0  0  1  0  0  3  0  0  0  0  0  0
  196.0160  175.4280  142.2120 C   0  0  1  0  0  3  0  0  0  0  0  0
  192.2530  175.3330  142.2090 C   0  0  2  0  0  3  0  0  0  0  0  0
  191.3230  171.7500  139.8660 C   0  0  0  0  0  2  0  0  0  0  0  0
  190.8060  177.5600  144.9320 C   0  0  0  0  0  2  0  0  0  0  0  0
  192.7340  171.9260  140.4290 C   0  0  0  0  0  2  0  0  0  0  0  0
  191.3980  177.2910  143.5550 C   0  0  0  0  0  2  0  0  0  0  0  0
  188.5260  176.1730  143.0630 C   0  0  1  0  0  3  0  0  0  0  0  0
  190.2790  172.2540  140.8620 C   0  0  0  0  0  2  0  0  0  0  0  0
  189.5600  174.2350  142.2410 C   0  0  2  0  0  3  0  0  0  0  0  0
  187.3160  176.3870  145.1290 O   0  0  0  0  0  0  0  0  0  0  0  0
  187.5140  176.3020  146.5080 C   0  0  0  0  0  2  0  0  0  0  0  0
  185.4890  179.2000  147.2300 C   0  0  0  0  0  2  0  0  0  0  0  0
  185.1300  177.0050  146.3210 C   0  0  0  0  0  2  0  0  0  0  0  0
  186.3310  176.9100  147.2390 C   0  0  0  0  0  3  0  0  0  0  0  0
  184.4070  178.2590  146.7480 C   0  0  0  0  0  2  0  0  0  0  0  0
  186.6550  178.3290  147.6640 C   0  0  0  0  0  2  0  0  0  0  0  0
  1 26  1  1  0  0  0
  1 18  1  0  0  0  0
  1 27  1  0  0  0  0
  2 27  1  0  0  0  0
  2 14  1  0  0  0  0
  3  7  2  0  0  0  0
  4 23  1  1  0  0  0
  4 15  1  0  0  0  0
  4 18  1  0  0  0  0
  5 19  1  0  0  0  0
  5 11  1  1  0  0  0
  6  7  1  0  0  0  0
  8 16  1  0  0  0  0
  9 25  1  0  0  0  0
  9 13  1  0  0  0  0
 10 22  1  0  0  0  0
 12  8  1  0  0  0  0
 12 15  1  0  0  0  0
 13 24  1  0  0  0  0
 14 25  1  0  0  0  0
 15  5  1  0  0  0  0
 16  3  1  0  0  0  0
 17 10  1  0  0  0  0
 17 28  1  0  0  0  0
 18 20  1  0  0  0  0
 19  3  1  0  0  0  0
 19  6  1  0  0  0  0
 20 11  1  0  0  0  0
 20 13  1  0  0  0  0
 21 23  1  0  0  0  0
 21 26  1  0  0  0  0
 24 22  1  0  0  0  0
 25 17  1  0  0  0  0
 27  9  1  0  0  0  0
 28 29  1  0  0  0  0
 29 32  1  0  0  0  0
 30 34  1  0  0  0  0
 31 33  1  0  0  0  0
 31 32  1  0  0  0  0
 32 34  1  0  0  0  0
 33 30  1  0  0  0  0
M  END
>  <MODEL>
9

>  <REMARK>
 VINA RESULT:      -7.9      3.012      4.509
  Name = 
  3 active torsions:
  status: ('A' for Active; 'I' for Inactive)
    1  A    between atoms: C_17  and  O_28
    2  A    between atoms: O_28  and  C_29
    3  A    between atoms: C_29  and  C_32
                            x       y       z     vdW  Elec       q    Type
                         _______ _______ _______ _____ _____    ______ ____

>  <TORSDO>
F 3

$$$$
