=
 OpenBabel11112417453D

 34 41  0  0  1  0  0  0  0  0999 V2000
  189.5000  174.6840  143.5450 C   0  0  0  0  0  0  0  0  0  0  0  0
  191.7460  173.5080  143.7910 C   0  0  0  0  0  2  0  0  0  0  0  0
  184.8340  178.9220  145.8200 C   0  0  2  0  0  3  0  0  0  0  0  0
  187.5360  176.0580  143.3030 C   0  0  0  0  0  0  0  0  0  0  0  0
  187.0910  178.0130  144.9170 C   0  0  1  0  0  3  0  0  0  0  0  0
  185.3320  177.1130  146.5310 C   0  0  0  0  0  2  0  0  0  0  0  0
  184.1300  177.7610  146.1830 O   0  0  0  0  0  0  0  0  0  0  0  0
  184.3790  178.1970  143.3890 C   0  0  0  0  0  2  0  0  0  0  0  0
  190.7870  174.6350  145.7040 C   0  0  2  0  0  3  0  0  0  0  0  0
  192.8070  176.7020  146.9060 O   0  0  0  0  0  0  0  0  0  0  0  0
  188.5300  177.7490  145.3780 C   0  0  0  0  0  2  0  0  0  0  0  0
  185.7170  177.7380  142.8310 C   0  0  0  0  0  2  0  0  0  0  0  0
  190.3120  176.0790  145.9240 C   0  0  1  0  0  3  0  0  0  0  0  0
  192.7250  173.3720  144.9520 C   0  0  0  0  0  2  0  0  0  0  0  0
  186.5140  177.0000  143.8950 C   0  0  1  0  0  3  0  0  0  0  0  0
  184.5530  179.3550  144.3690 C   0  0  0  0  0  2  0  0  0  0  0  0
  193.1910  175.6230  146.0580 C   0  0  1  0  0  3  0  0  0  0  0  0
  188.6390  175.6610  144.0700 C   0  0  0  0  0  0  0  0  0  0  0  0
  186.1810  178.2960  146.1270 C   0  0  2  0  0  3  0  0  0  0  0  0
  188.8630  176.2590  145.4420 C   0  0  2  0  0  3  0  0  0  0  0  0
  188.1970  174.5750  141.5770 C   0  0  0  0  0  3  0  0  0  0  0  0
  191.8940  176.2890  147.8920 C   0  0  0  0  0  2  0  0  0  0  0  0
  187.3330  175.4950  142.0800 N   0  0  0  0  0  0  0  0  0  0  0  0
  190.4600  176.4900  147.3940 C   0  0  0  0  0  2  0  0  0  0  0  0
  192.2640  174.3650  146.0210 C   0  0  1  0  0  3  0  0  0  0  0  0
  189.2700  174.1750  142.3060 N   0  0  0  0  0  0  0  0  0  0  0  0
  190.6160  174.2430  144.3220 N   0  0  0  0  0  0  0  0  0  0  0  0
  193.4010  176.1180  144.7670 O   0  0  0  0  0  0  0  0  0  0  0  0
  194.7160  176.5890  144.7720 C   0  0  0  0  0  2  0  0  0  0  0  0
  195.0860  176.4540  141.4780 N   0  0  0  0  0  2  0  0  0  0  0  0
  196.6030  176.7480  143.1770 C   0  0  0  0  0  2  0  0  0  0  0  0
  195.5340  175.8450  143.7310 C   0  0  0  0  0  3  0  0  0  0  0  0
  196.4300  176.7820  141.7320 N   0  0  0  0  0  2  0  0  0  0  0  0
  194.6720  175.5460  142.5360 C   0  0  0  0  0  2  0  0  0  0  0  0
  1 18  1  0  0  0  0
  1 27  1  0  0  0  0
  2 27  1  0  0  0  0
  2 14  1  0  0  0  0
  3 16  1  6  0  0  0
  3 19  1  0  0  0  0
  3  7  1  0  0  0  0
  4 15  1  0  0  0  0
  4 18  2  0  0  0  0
  5 11  1  1  0  0  0
  5 19  1  0  0  0  0
  7  6  1  0  0  0  0
  8 16  1  0  0  0  0
  9 27  1  6  0  0  0
  9 13  1  0  0  0  0
  9 25  1  0  0  0  0
 10 22  1  0  0  0  0
 12  8  1  0  0  0  0
 13 24  1  1  0  0  0
 15 12  1  6  0  0  0
 15  5  1  0  0  0  0
 17 28  1  6  0  0  0
 17 10  1  0  0  0  0
 18 20  1  0  0  0  0
 19  6  1  6  0  0  0
 20 11  1  6  0  0  0
 20 13  1  0  0  0  0
 21 23  2  0  0  0  0
 21 26  1  0  0  0  0
 23  4  1  0  0  0  0
 24 22  1  0  0  0  0
 25 14  1  6  0  0  0
 25 17  1  0  0  0  0
 26  1  2  0  0  0  0
 28 29  1  0  0  0  0
 30 33  1  0  0  0  0
 30 34  1  0  0  0  0
 31 32  1  0  0  0  0
 32 29  1  0  0  0  0
 33 31  1  0  0  0  0
 34 32  1  0  0  0  0
M  END
>  <MODEL>
1

>  <REMARK>
 VINA RESULT:      -9.5      0.000      0.000
  Name = 
  3 active torsions:
  status: ('A' for Active; 'I' for Inactive)
    1  A    between atoms: C_17  and  O_28
    2  A    between atoms: O_28  and  C_29
    3  A    between atoms: C_29  and  C_32
                            x       y       z     vdW  Elec       q    Type
                         _______ _______ _______ _____ _____    ______ ____

>  <TORSDO>
F 3

$$$$
=
 OpenBabel11112417453D

 34 41  0  0  1  0  0  0  0  0999 V2000
  190.3590  176.1660  144.8200 C   0  0  0  0  0  0  0  0  0  0  0  0
  192.2270  174.7780  143.7830 C   0  0  0  0  0  2  0  0  0  0  0  0
  184.2050  178.8060  144.5770 C   0  0  2  0  0  3  0  0  0  0  0  0
  188.4280  177.2200  145.8000 C   0  0  0  0  0  0  0  0  0  0  0  0
  186.1240  177.0600  144.6630 C   0  0  1  0  0  3  0  0  0  0  0  0
  185.8270  179.3180  143.5130 C   0  0  0  0  0  2  0  0  0  0  0  0
  184.8650  180.0090  144.2750 O   0  0  0  0  0  0  0  0  0  0  0  0
  185.2670  179.0410  146.9140 C   0  0  0  0  0  2  0  0  0  0  0  0
  190.3790  175.4940  142.3980 C   0  0  2  0  0  3  0  0  0  0  0  0
  189.0510  173.0500  140.9620 O   0  0  0  0  0  0  0  0  0  0  0  0
  186.8130  176.0130  143.7780 C   0  0  0  0  0  2  0  0  0  0  0  0
  186.3390  177.9660  146.9970 C   0  0  0  0  0  2  0  0  0  0  0  0
  188.8590  175.3100  142.5220 C   0  0  1  0  0  3  0  0  0  0  0  0
  192.4470  174.2150  142.3840 C   0  0  0  0  0  2  0  0  0  0  0  0
  187.0450  177.8110  145.6590 C   0  0  1  0  0  3  0  0  0  0  0  0
  184.0690  178.5690  146.0930 C   0  0  0  0  0  2  0  0  0  0  0  0
  190.3670  173.0260  141.5080 C   0  0  1  0  0  3  0  0  0  0  0  0
  189.0260  176.5860  144.7020 C   0  0  0  0  0  0  0  0  0  0  0  0
  185.2160  177.9690  143.8150 C   0  0  2  0  0  3  0  0  0  0  0  0
  188.2460  176.3980  143.4190 C   0  0  2  0  0  3  0  0  0  0  0  0
  190.4270  176.9590  147.0450 C   0  0  0  0  0  3  0  0  0  0  0  0
  188.8130  174.2280  140.2310 C   0  0  0  0  0  2  0  0  0  0  0  0
  189.1470  177.4040  146.9410 N   0  0  0  0  0  0  0  0  0  0  0  0
  188.1910  175.2910  141.1420 C   0  0  0  0  0  2  0  0  0  0  0  0
  191.1230  174.3880  141.6380 C   0  0  1  0  0  3  0  0  0  0  0  0
  191.0250  176.3460  145.9920 N   0  0  0  0  0  0  0  0  0  0  0  0
  190.9990  175.5420  143.7040 N   0  0  0  0  0  0  0  0  0  0  0  0
  190.3300  172.3650  142.7400 O   0  0  0  0  0  0  0  0  0  0  0  0
  190.4040  171.0070  142.4220 C   0  0  0  0  0  2  0  0  0  0  0  0
  192.6920  169.4620  144.2630 N   0  0  0  0  0  2  0  0  0  0  0  0
  191.9410  169.0890  142.1250 C   0  0  0  0  0  2  0  0  0  0  0  0
  191.8580  170.5760  142.3370 C   0  0  0  0  0  3  0  0  0  0  0  0
  192.7630  168.5480  143.1970 N   0  0  0  0  0  2  0  0  0  0  0  0
  192.5210  170.7790  143.6710 C   0  0  0  0  0  2  0  0  0  0  0  0
  1 26  1  0  0  0  0
  3 16  1  1  0  0  0
  4 23  2  0  0  0  0
  5 11  1  6  0  0  0
  5 15  1  0  0  0  0
  6  7  1  0  0  0  0
  7  3  1  0  0  0  0
  8 12  1  0  0  0  0
  9 13  1  0  0  0  0
  9 27  1  1  0  0  0
 10 17  1  0  0  0  0
 13 24  1  6  0  0  0
 13 20  1  0  0  0  0
 14  2  1  0  0  0  0
 15  4  1  0  0  0  0
 15 12  1  1  0  0  0
 16  8  1  0  0  0  0
 17 25  1  0  0  0  0
 17 28  1  1  0  0  0
 18  1  2  0  0  0  0
 18  4  1  0  0  0  0
 19  6  1  1  0  0  0
 19  3  1  0  0  0  0
 19  5  1  0  0  0  0
 20 11  1  1  0  0  0
 20 18  1  0  0  0  0
 22 10  1  0  0  0  0
 22 24  1  0  0  0  0
 23 21  1  0  0  0  0
 25 14  1  1  0  0  0
 25  9  1  0  0  0  0
 26 21  2  0  0  0  0
 27  2  1  0  0  0  0
 27  1  1  0  0  0  0
 29 28  1  0  0  0  0
 31 32  1  0  0  0  0
 31 33  1  0  0  0  0
 32 29  1  0  0  0  0
 32 34  1  0  0  0  0
 33 30  1  0  0  0  0
 34 30  1  0  0  0  0
M  END
>  <MODEL>
2

>  <REMARK>
 VINA RESULT:      -8.7      2.778      4.999
  Name = 
  3 active torsions:
  status: ('A' for Active; 'I' for Inactive)
    1  A    between atoms: C_17  and  O_28
    2  A    between atoms: O_28  and  C_29
    3  A    between atoms: C_29  and  C_32
                            x       y       z     vdW  Elec       q    Type
                         _______ _______ _______ _____ _____    ______ ____

>  <TORSDO>
F 3

$$$$
=
 OpenBabel11112417453D

 34 41  0  0  1  0  0  0  0  0999 V2000
  191.0470  174.4080  142.9670 C   0  0  0  0  0  0  0  0  0  0  0  0
  193.4030  173.4880  142.6620 C   0  0  0  0  0  2  0  0  0  0  0  0
  186.5800  178.0350  146.4030 C   0  0  2  0  0  3  0  0  0  0  0  0
  188.9440  175.5550  143.2240 C   0  0  0  0  0  0  0  0  0  0  0  0
  188.6640  177.4090  144.9880 C   0  0  1  0  0  3  0  0  0  0  0  0
  187.4120  176.2780  146.9020 C   0  0  0  0  0  2  0  0  0  0  0  0
  186.1010  176.7930  146.8550 O   0  0  0  0  0  0  0  0  0  0  0  0
  185.6770  177.3190  144.0980 C   0  0  0  0  0  2  0  0  0  0  0  0
  192.7790  174.4550  144.7890 C   0  0  2  0  0  3  0  0  0  0  0  0
  194.7850  176.7100  145.6190 O   0  0  0  0  0  0  0  0  0  0  0  0
  190.1900  177.2990  145.1110 C   0  0  0  0  0  2  0  0  0  0  0  0
  186.8990  177.0280  143.2400 C   0  0  0  0  0  2  0  0  0  0  0  0
  192.2140  175.8300  145.1760 C   0  0  1  0  0  3  0  0  0  0  0  0
  194.6230  173.4380  143.5740 C   0  0  0  0  0  2  0  0  0  0  0  0
  187.9850  176.3610  144.0690 C   0  0  1  0  0  3  0  0  0  0  0  0
  185.9400  178.4660  145.0700 C   0  0  0  0  0  2  0  0  0  0  0  0
  195.0830  175.7010  144.6580 C   0  0  1  0  0  3  0  0  0  0  0  0
  190.2260  175.2680  143.7130 C   0  0  0  0  0  0  0  0  0  0  0  0
  188.0210  177.5590  146.3790 C   0  0  2  0  0  3  0  0  0  0  0  0
  190.6830  175.8560  145.0300 C   0  0  2  0  0  3  0  0  0  0  0  0
  189.3590  174.1970  141.3270 C   0  0  0  0  0  3  0  0  0  0  0  0
  194.1620  176.1730  146.7600 C   0  0  0  0  0  2  0  0  0  0  0  0
  188.5360  175.0010  142.0490 N   0  0  0  0  0  0  0  0  0  0  0  0
  192.6400  176.2210  146.5960 C   0  0  0  0  0  2  0  0  0  0  0  0
  194.3090  174.3470  144.7630 C   0  0  1  0  0  3  0  0  0  0  0  0
  190.6030  173.9050  141.7850 N   0  0  0  0  0  0  0  0  0  0  0  0
  192.3480  174.0790  143.4600 N   0  0  0  0  0  0  0  0  0  0  0  0
  194.9480  176.2460  143.3770 O   0  0  0  0  0  0  0  0  0  0  0  0
  196.2390  176.6390  143.0150 C   0  0  0  0  0  2  0  0  0  0  0  0
  196.2160  174.5180  140.4640 N   0  0  0  0  0  2  0  0  0  0  0  0
  195.0200  176.4360  140.8690 C   0  0  0  0  0  2  0  0  0  0  0  0
  196.3680  176.6500  141.5020 C   0  0  0  0  0  3  0  0  0  0  0  0
  195.1370  175.2840  139.9880 N   0  0  0  0  0  2  0  0  0  0  0  0
  197.1600  175.4520  141.0570 C   0  0  0  0  0  2  0  0  0  0  0  0
  1 27  1  0  0  0  0
  1 18  1  0  0  0  0
  2 27  1  0  0  0  0
  2 14  1  0  0  0  0
  3 16  1  6  0  0  0
  3  7  1  0  0  0  0
  4 18  2  0  0  0  0
  4 15  1  0  0  0  0
  5 11  1  1  0  0  0
  5 19  1  0  0  0  0
  7  6  1  0  0  0  0
  8 16  1  0  0  0  0
  9 27  1  6  0  0  0
  9 13  1  0  0  0  0
 10 22  1  0  0  0  0
 12  8  1  0  0  0  0
 13 24  1  1  0  0  0
 15 12  1  6  0  0  0
 15  5  1  0  0  0  0
 17 28  1  6  0  0  0
 17 25  1  0  0  0  0
 17 10  1  0  0  0  0
 18 20  1  0  0  0  0
 19  3  1  0  0  0  0
 19  6  1  6  0  0  0
 20 11  1  6  0  0  0
 20 13  1  0  0  0  0
 21 26  1  0  0  0  0
 21 23  2  0  0  0  0
 23  4  1  0  0  0  0
 24 22  1  0  0  0  0
 25 14  1  6  0  0  0
 25  9  1  0  0  0  0
 26  1  2  0  0  0  0
 29 28  1  0  0  0  0
 30 34  1  0  0  0  0
 31 32  1  0  0  0  0
 32 29  1  0  0  0  0
 33 30  1  0  0  0  0
 33 31  1  0  0  0  0
 34 32  1  0  0  0  0
M  END
>  <MODEL>
3

>  <REMARK>
 VINA RESULT:      -8.6      1.537      2.091
  Name = 
  3 active torsions:
  status: ('A' for Active; 'I' for Inactive)
    1  A    between atoms: C_17  and  O_28
    2  A    between atoms: O_28  and  C_29
    3  A    between atoms: C_29  and  C_32
                            x       y       z     vdW  Elec       q    Type
                         _______ _______ _______ _____ _____    ______ ____

>  <TORSDO>
F 3

$$$$
=
 OpenBabel11112417453D

 34 41  0  0  1  0  0  0  0  0999 V2000
  190.6930  173.3830  143.1190 C   0  0  0  0  0  0  0  0  0  0  0  0
  188.4340  174.3490  142.4460 C   0  0  0  0  0  2  0  0  0  0  0  0
  196.9500  174.1650  145.3880 C   0  0  2  0  0  3  0  0  0  0  0  0
  192.7680  172.5750  144.0370 C   0  0  0  0  0  0  0  0  0  0  0  0
  194.3560  174.1610  145.2970 C   0  0  1  0  0  3  0  0  0  0  0  0
  196.1920  174.6930  143.6070 C   0  0  0  0  0  2  0  0  0  0  0  0
  197.3290  173.9870  144.0470 O   0  0  0  0  0  0  0  0  0  0  0  0
  196.2510  171.6850  145.3120 C   0  0  0  0  0  2  0  0  0  0  0  0
  190.3170  175.8390  142.7350 C   0  0  2  0  0  3  0  0  0  0  0  0
  189.6270  178.1240  144.7610 O   0  0  0  0  0  0  0  0  0  0  0  0
  193.1720  175.1350  145.2350 C   0  0  0  0  0  2  0  0  0  0  0  0
  194.7310  171.6770  145.3390 C   0  0  0  0  0  2  0  0  0  0  0  0
  191.2710  176.0850  143.9130 C   0  0  1  0  0  3  0  0  0  0  0  0
  187.9450  175.7720  142.2010 C   0  0  0  0  0  2  0  0  0  0  0  0
  194.1760  172.8310  144.5200 C   0  0  1  0  0  3  0  0  0  0  0  0
  196.8160  172.8310  146.1470 C   0  0  0  0  0  2  0  0  0  0  0  0
  188.6450  177.3450  144.0830 C   0  0  1  0  0  3  0  0  0  0  0  0
  191.9460  173.6550  143.6890 C   0  0  0  0  0  0  0  0  0  0  0  0
  195.6770  174.9000  145.0130 C   0  0  2  0  0  3  0  0  0  0  0  0
  192.4300  175.0730  143.9020 C   0  0  2  0  0  3  0  0  0  0  0  0
  191.1000  171.0620  143.2970 C   0  0  0  0  0  3  0  0  0  0  0  0
  190.6510  178.5410  143.8910 C   0  0  0  0  0  2  0  0  0  0  0  0
  192.3310  171.3030  143.8200 N   0  0  0  0  0  0  0  0  0  0  0  0
  191.7960  177.5260  143.9070 C   0  0  0  0  0  2  0  0  0  0  0  0
  189.0460  176.7000  142.7180 C   0  0  1  0  0  3  0  0  0  0  0  0
  190.2910  172.0950  142.9510 N   0  0  0  0  0  0  0  0  0  0  0  0
  189.8490  174.4700  142.7310 N   0  0  0  0  0  0  0  0  0  0  0  0
  188.1570  176.3730  144.9630 O   0  0  0  0  0  0  0  0  0  0  0  0
  188.0890  177.0110  146.2030 C   0  0  0  0  0  2  0  0  0  0  0  0
  185.3470  178.7420  146.9010 N   0  0  0  0  0  2  0  0  0  0  0  0
  185.6680  176.7900  145.7360 C   0  0  0  0  0  2  0  0  0  0  0  0
  186.7160  176.8020  146.8160 C   0  0  0  0  0  3  0  0  0  0  0  0
  184.6900  177.8130  146.0750 N   0  0  0  0  0  2  0  0  0  0  0  0
  186.3500  178.0000  147.6470 C   0  0  0  0  0  2  0  0  0  0  0  0
  1 18  1  0  0  0  0
  2 27  1  0  0  0  0
  3 16  1  6  0  0  0
  4 15  1  0  0  0  0
  5 11  1  6  0  0  0
  6  7  1  0  0  0  0
  7  3  1  0  0  0  0
  8 12  1  0  0  0  0
  8 16  1  0  0  0  0
  9 27  1  1  0  0  0
  9 13  1  0  0  0  0
 13 24  1  6  0  0  0
 14  2  1  0  0  0  0
 15  5  1  0  0  0  0
 15 12  1  1  0  0  0
 17 10  1  0  0  0  0
 17 28  1  1  0  0  0
 18 20  1  0  0  0  0
 18  4  2  0  0  0  0
 19  6  1  6  0  0  0
 19  5  1  0  0  0  0
 19  3  1  0  0  0  0
 20 13  1  0  0  0  0
 20 11  1  1  0  0  0
 21 23  2  0  0  0  0
 22 24  1  0  0  0  0
 22 10  1  0  0  0  0
 23  4  1  0  0  0  0
 25 14  1  1  0  0  0
 25  9  1  0  0  0  0
 25 17  1  0  0  0  0
 26  1  2  0  0  0  0
 26 21  1  0  0  0  0
 27  1  1  0  0  0  0
 28 29  1  0  0  0  0
 29 32  1  0  0  0  0
 30 34  1  0  0  0  0
 31 33  1  0  0  0  0
 31 32  1  0  0  0  0
 32 34  1  0  0  0  0
 33 30  1  0  0  0  0
M  END
>  <MODEL>
4

>  <REMARK>
 VINA RESULT:      -8.0      2.715      8.192
  Name = 
  3 active torsions:
  status: ('A' for Active; 'I' for Inactive)
    1  A    between atoms: C_17  and  O_28
    2  A    between atoms: O_28  and  C_29
    3  A    between atoms: C_29  and  C_32
                            x       y       z     vdW  Elec       q    Type
                         _______ _______ _______ _____ _____    ______ ____

>  <TORSDO>
F 3

$$$$
=
 OpenBabel11112417453D

 34 41  0  0  1  0  0  0  0  0999 V2000
  192.3220  176.1270  145.7190 C   0  0  0  0  0  0  0  0  0  0  0  0
  189.9620  176.2710  146.6690 C   0  0  0  0  0  2  0  0  0  0  0  0
  196.5640  174.4230  140.8210 C   0  0  2  0  0  3  0  0  0  0  0  0
  194.4550  176.1800  144.6020 C   0  0  0  0  0  0  0  0  0  0  0  0
  194.6430  175.6110  142.0990 C   0  0  1  0  0  3  0  0  0  0  0  0
  195.5390  173.2220  142.0590 C   0  0  0  0  0  2  0  0  0  0  0  0
  196.8800  173.3260  141.6410 O   0  0  0  0  0  0  0  0  0  0  0  0
  197.7060  175.8540  142.6340 C   0  0  0  0  0  2  0  0  0  0  0  0
  190.3730  174.8840  144.7310 C   0  0  2  0  0  3  0  0  0  0  0  0
  188.4570  175.6600  142.3800 O   0  0  0  0  0  0  0  0  0  0  0  0
  193.1110  175.6860  142.1320 C   0  0  0  0  0  2  0  0  0  0  0  0
  196.5890  176.6140  143.3330 C   0  0  0  0  0  2  0  0  0  0  0  0
  190.9870  175.1830  143.3550 C   0  0  1  0  0  3  0  0  0  0  0  0
  188.6310  175.6650  146.2370 C   0  0  0  0  0  2  0  0  0  0  0  0
  195.3540  175.7380  143.4720 C   0  0  1  0  0  3  0  0  0  0  0  0
  197.4070  175.6690  141.1480 C   0  0  0  0  0  2  0  0  0  0  0  0
  188.2110  175.9940  143.7430 C   0  0  1  0  0  3  0  0  0  0  0  0
  193.1010  175.8180  144.5950 C   0  0  0  0  0  0  0  0  0  0  0  0
  195.1070  174.4180  141.2420 C   0  0  2  0  0  3  0  0  0  0  0  0
  192.5210  175.0840  143.4050 C   0  0  2  0  0  3  0  0  0  0  0  0
  194.1900  177.1390  146.7530 C   0  0  0  0  0  3  0  0  0  0  0  0
  188.8800  174.3260  142.2390 C   0  0  0  0  0  2  0  0  0  0  0  0
  194.9710  176.8200  145.6880 N   0  0  0  0  0  0  0  0  0  0  0  0
  190.4090  174.2550  142.2800 C   0  0  0  0  0  2  0  0  0  0  0  0
  188.8560  175.0860  144.8400 C   0  0  1  0  0  3  0  0  0  0  0  0
  192.8770  176.7940  146.7660 N   0  0  0  0  0  0  0  0  0  0  0  0
  190.9450  175.7420  145.7460 N   0  0  0  0  0  0  0  0  0  0  0  0
  188.5560  177.3330  143.9480 O   0  0  0  0  0  0  0  0  0  0  0  0
  187.5280  178.0660  143.3510 C   0  0  0  0  0  2  0  0  0  0  0  0
  184.8090  179.7310  144.2680 N   0  0  0  0  0  2  0  0  0  0  0  0
  185.0820  177.7580  143.1260 C   0  0  0  0  0  2  0  0  0  0  0  0
  186.2280  177.8320  144.0990 C   0  0  0  0  0  3  0  0  0  0  0  0
  184.1080  178.7600  143.5320 N   0  0  0  0  0  2  0  0  0  0  0  0
  185.9030  179.0410  144.9320 C   0  0  0  0  0  2  0  0  0  0  0  0
  1 27  1  0  0  0  0
  1 26  1  0  0  0  0
  3 16  1  1  0  0  0
  3 19  1  0  0  0  0
  3  7  1  0  0  0  0
  4 23  2  0  0  0  0
  5 11  1  1  0  0  0
  5 15  1  0  0  0  0
  7  6  1  0  0  0  0
  8 12  1  0  0  0  0
  9 25  1  0  0  0  0
  9 27  1  1  0  0  0
 10 17  1  0  0  0  0
 13 24  1  6  0  0  0
 13 20  1  0  0  0  0
 13  9  1  0  0  0  0
 14  2  1  0  0  0  0
 15 12  1  6  0  0  0
 15  4  1  0  0  0  0
 16  8  1  0  0  0  0
 17 28  1  1  0  0  0
 17 25  1  0  0  0  0
 18  4  1  0  0  0  0
 18  1  2  0  0  0  0
 19  6  1  1  0  0  0
 19  5  1  0  0  0  0
 20 11  1  6  0  0  0
 20 18  1  0  0  0  0
 21 26  2  0  0  0  0
 22 24  1  0  0  0  0
 22 10  1  0  0  0  0
 23 21  1  0  0  0  0
 25 14  1  1  0  0  0
 27  2  1  0  0  0  0
 29 28  1  0  0  0  0
 29 32  1  0  0  0  0
 30 34  1  0  0  0  0
 31 33  1  0  0  0  0
 31 32  1  0  0  0  0
 32 34  1  0  0  0  0
 33 30  1  0  0  0  0
M  END
>  <MODEL>
5

>  <REMARK>
 VINA RESULT:      -7.8      2.612      8.590
  Name = 
  3 active torsions:
  status: ('A' for Active; 'I' for Inactive)
    1  A    between atoms: C_17  and  O_28
    2  A    between atoms: O_28  and  C_29
    3  A    between atoms: C_29  and  C_32
                            x       y       z     vdW  Elec       q    Type
                         _______ _______ _______ _____ _____    ______ ____

>  <TORSDO>
F 3

$$$$
=
 OpenBabel11112417453D

 34 41  0  0  1  0  0  0  0  0999 V2000
  192.1830  176.3890  145.8930 C   0  0  0  0  0  0  0  0  0  0  0  0
  194.5930  175.6200  146.1920 C   0  0  0  0  0  2  0  0  0  0  0  0
  186.7630  177.2940  142.0580 C   0  0  2  0  0  3  0  0  0  0  0  0
  189.8400  176.8230  145.5440 C   0  0  0  0  0  0  0  0  0  0  0  0
  188.6850  176.1250  143.3520 C   0  0  1  0  0  3  0  0  0  0  0  0
  188.5060  178.2890  142.0130 C   0  0  0  0  0  2  0  0  0  0  0  0
  187.1430  178.6470  142.0510 O   0  0  0  0  0  0  0  0  0  0  0  0
  186.2510  177.6570  144.5570 C   0  0  0  0  0  2  0  0  0  0  0  0
  193.7120  175.9020  143.9580 C   0  0  2  0  0  3  0  0  0  0  0  0
  194.0830  173.2870  142.2770 O   0  0  0  0  0  0  0  0  0  0  0  0
  189.9890  175.3580  143.0980 C   0  0  0  0  0  2  0  0  0  0  0  0
  187.3300  176.9050  145.3200 C   0  0  0  0  0  2  0  0  0  0  0  0
  192.4860  175.3100  143.2450 C   0  0  1  0  0  3  0  0  0  0  0  0
  195.6870  175.2270  145.2060 C   0  0  0  0  0  2  0  0  0  0  0  0
  188.6700  177.0300  144.6110 C   0  0  1  0  0  3  0  0  0  0  0  0
  185.8770  176.9340  143.2650 C   0  0  0  0  0  2  0  0  0  0  0  0
  194.8290  173.5820  143.4550 C   0  0  1  0  0  3  0  0  0  0  0  0
  191.0840  176.4440  145.0230 C   0  0  0  0  0  0  0  0  0  0  0  0
  188.2010  176.8090  142.0610 C   0  0  2  0  0  3  0  0  0  0  0  0
  191.2240  176.1350  143.5480 C   0  0  2  0  0  3  0  0  0  0  0  0
  190.8010  177.0290  147.7000 C   0  0  0  0  0  3  0  0  0  0  0  0
  193.9950  174.4020  141.4240 C   0  0  0  0  0  2  0  0  0  0  0  0
  189.7310  177.1210  146.8680 N   0  0  0  0  0  0  0  0  0  0  0  0
  192.7260  175.2000  141.7350 C   0  0  0  0  0  2  0  0  0  0  0  0
  195.0060  175.0860  143.8430 C   0  0  1  0  0  3  0  0  0  0  0  0
  192.0160  176.6660  147.2130 N   0  0  0  0  0  0  0  0  0  0  0  0
  193.4680  176.0310  145.3780 N   0  0  0  0  0  0  0  0  0  0  0  0
  194.2880  172.8590  144.5220 O   0  0  0  0  0  0  0  0  0  0  0  0
  194.8510  171.5850  144.4160 C   0  0  0  0  0  2  0  0  0  0  0  0
  196.1110  168.8820  145.8690 N   0  0  0  0  0  2  0  0  0  0  0  0
  196.8760  171.0420  145.7330 C   0  0  0  0  0  2  0  0  0  0  0  0
  195.3750  171.1390  145.7700 C   0  0  0  0  0  3  0  0  0  0  0  0
  197.2300  169.6900  146.1380 N   0  0  0  0  0  2  0  0  0  0  0  0
  194.9390  169.7250  146.0360 C   0  0  0  0  0  2  0  0  0  0  0  0
  1 26  1  0  0  0  0
  3 19  1  0  0  0  0
  3 16  1  1  0  0  0
  4 23  2  0  0  0  0
  5 11  1  6  0  0  0
  5 15  1  0  0  0  0
  6  7  1  0  0  0  0
  7  3  1  0  0  0  0
  8 12  1  0  0  0  0
  9 27  1  1  0  0  0
 10 17  1  0  0  0  0
 13 24  1  6  0  0  0
 13 20  1  0  0  0  0
 13  9  1  0  0  0  0
 14  2  1  0  0  0  0
 15 12  1  1  0  0  0
 15  4  1  0  0  0  0
 16  8  1  0  0  0  0
 17 25  1  0  0  0  0
 17 28  1  1  0  0  0
 18  4  1  0  0  0  0
 18  1  2  0  0  0  0
 19  6  1  1  0  0  0
 19  5  1  0  0  0  0
 20 11  1  1  0  0  0
 20 18  1  0  0  0  0
 22 24  1  0  0  0  0
 22 10  1  0  0  0  0
 23 21  1  0  0  0  0
 25  9  1  0  0  0  0
 25 14  1  1  0  0  0
 26 21  2  0  0  0  0
 27  1  1  0  0  0  0
 27  2  1  0  0  0  0
 29 28  1  0  0  0  0
 29 32  1  0  0  0  0
 30 34  1  0  0  0  0
 30 33  1  0  0  0  0
 31 32  1  0  0  0  0
 31 33  1  0  0  0  0
 32 34  1  0  0  0  0
M  END
>  <MODEL>
6

>  <REMARK>
 VINA RESULT:      -7.8      3.168      4.941
  Name = 
  3 active torsions:
  status: ('A' for Active; 'I' for Inactive)
    1  A    between atoms: C_17  and  O_28
    2  A    between atoms: O_28  and  C_29
    3  A    between atoms: C_29  and  C_32
                            x       y       z     vdW  Elec       q    Type
                         _______ _______ _______ _____ _____    ______ ____

>  <TORSDO>
F 3

$$$$
=
 OpenBabel11112417453D

 34 41  0  0  1  0  0  0  0  0999 V2000
  192.3760  176.2230  146.3010 C   0  0  0  0  0  0  0  0  0  0  0  0
  194.7640  175.3510  146.1310 C   0  0  0  0  0  2  0  0  0  0  0  0
  186.2360  177.0050  143.7350 C   0  0  2  0  0  3  0  0  0  0  0  0
  190.0320  176.7550  146.4490 C   0  0  0  0  0  0  0  0  0  0  0  0
  188.3710  175.8790  144.6880 C   0  0  1  0  0  3  0  0  0  0  0  0
  187.9490  177.8810  143.1650 C   0  0  0  0  0  2  0  0  0  0  0  0
  186.6460  178.3230  143.4700 O   0  0  0  0  0  0  0  0  0  0  0  0
  186.3390  177.6830  146.2190 C   0  0  0  0  0  2  0  0  0  0  0  0
  193.3890  175.4250  144.1430 C   0  0  2  0  0  3  0  0  0  0  0  0
  193.2710  172.6170  142.7660 O   0  0  0  0  0  0  0  0  0  0  0  0
  189.5530  175.0110  144.2390 C   0  0  0  0  0  2  0  0  0  0  0  0
  187.5440  176.9610  146.8010 C   0  0  0  0  0  2  0  0  0  0  0  0
  192.0120  174.8300  143.8130 C   0  0  1  0  0  3  0  0  0  0  0  0
  195.5810  174.7810  144.9770 C   0  0  0  0  0  2  0  0  0  0  0  0
  188.6820  176.9220  145.7930 C   0  0  1  0  0  3  0  0  0  0  0  0
  185.6490  176.8400  145.1490 C   0  0  0  0  0  2  0  0  0  0  0  0
  194.2830  173.0000  143.6930 C   0  0  1  0  0  3  0  0  0  0  0  0
  191.1050  176.2430  145.7080 C   0  0  0  0  0  0  0  0  0  0  0  0
  187.6170  176.4370  143.4670 C   0  0  2  0  0  3  0  0  0  0  0  0
  190.8840  175.7590  144.2910 C   0  0  2  0  0  3  0  0  0  0  0  0
  191.4810  177.1490  148.2820 C   0  0  0  0  0  3  0  0  0  0  0  0
  193.0200  173.6290  141.8220 C   0  0  0  0  0  2  0  0  0  0  0  0
  190.2480  177.2090  147.7140 N   0  0  0  0  0  0  0  0  0  0  0  0
  191.8850  174.5320  142.3140 C   0  0  0  0  0  2  0  0  0  0  0  0
  194.5940  174.5250  143.8370 C   0  0  1  0  0  3  0  0  0  0  0  0
  192.5340  176.6600  147.5790 N   0  0  0  0  0  0  0  0  0  0  0  0
  193.4910  175.7320  145.5530 N   0  0  0  0  0  0  0  0  0  0  0  0
  193.9860  172.4380  144.9390 O   0  0  0  0  0  0  0  0  0  0  0  0
  194.3170  171.0870  144.8130 C   0  0  0  0  0  2  0  0  0  0  0  0
  196.3540  168.6530  145.7770 N   0  0  0  0  0  2  0  0  0  0  0  0
  196.5110  170.9370  145.9490 C   0  0  0  0  0  2  0  0  0  0  0  0
  195.0450  170.6160  146.0590 C   0  0  0  0  0  3  0  0  0  0  0  0
  197.2390  169.6890  146.1240 N   0  0  0  0  0  2  0  0  0  0  0  0
  195.0180  169.1140  146.1190 C   0  0  0  0  0  2  0  0  0  0  0  0
  1 26  1  0  0  0  0
  3 16  1  1  0  0  0
  4 23  2  0  0  0  0
  5 11  1  6  0  0  0
  5 15  1  0  0  0  0
  6  7  1  0  0  0  0
  7  3  1  0  0  0  0
  8 12  1  0  0  0  0
  9 27  1  1  0  0  0
 10 17  1  0  0  0  0
 13 24  1  6  0  0  0
 13  9  1  0  0  0  0
 13 20  1  0  0  0  0
 14  2  1  0  0  0  0
 15  4  1  0  0  0  0
 15 12  1  1  0  0  0
 16  8  1  0  0  0  0
 17 25  1  0  0  0  0
 17 28  1  1  0  0  0
 18  1  2  0  0  0  0
 18  4  1  0  0  0  0
 19  6  1  1  0  0  0
 19  3  1  0  0  0  0
 19  5  1  0  0  0  0
 20 11  1  1  0  0  0
 20 18  1  0  0  0  0
 22 24  1  0  0  0  0
 22 10  1  0  0  0  0
 23 21  1  0  0  0  0
 25  9  1  0  0  0  0
 25 14  1  1  0  0  0
 26 21  2  0  0  0  0
 27  2  1  0  0  0  0
 27  1  1  0  0  0  0
 29 28  1  0  0  0  0
 29 32  1  0  0  0  0
 30 34  1  0  0  0  0
 30 33  1  0  0  0  0
 31 32  1  0  0  0  0
 31 33  1  0  0  0  0
 32 34  1  0  0  0  0
M  END
>  <MODEL>
7

>  <REMARK>
 VINA RESULT:      -7.7      3.177      4.963
  Name = 
  3 active torsions:
  status: ('A' for Active; 'I' for Inactive)
    1  A    between atoms: C_17  and  O_28
    2  A    between atoms: O_28  and  C_29
    3  A    between atoms: C_29  and  C_32
                            x       y       z     vdW  Elec       q    Type
                         _______ _______ _______ _____ _____    ______ ____

>  <TORSDO>
F 3

$$$$
=
 OpenBabel11112417453D

 34 41  0  0  1  0  0  0  0  0999 V2000
  192.1850  176.2670  145.8450 C   0  0  0  0  0  0  0  0  0  0  0  0
  194.6050  175.5260  146.1380 C   0  0  0  0  0  2  0  0  0  0  0  0
  186.7980  177.2650  141.9870 C   0  0  2  0  0  3  0  0  0  0  0  0
  189.8390  176.6780  145.4860 C   0  0  0  0  0  0  0  0  0  0  0  0
  188.7240  176.0670  143.2480 C   0  0  1  0  0  3  0  0  0  0  0  0
  188.5230  178.2910  142.0130 C   0  0  0  0  0  2  0  0  0  0  0  0
  187.1540  178.6240  142.0500 O   0  0  0  0  0  0  0  0  0  0  0  0
  186.2480  177.4970  144.4930 C   0  0  0  0  0  2  0  0  0  0  0  0
  193.7460  175.9010  143.9090 C   0  0  2  0  0  3  0  0  0  0  0  0
  194.1840  173.3770  142.1080 O   0  0  0  0  0  0  0  0  0  0  0  0
  190.0440  175.3360  142.9740 C   0  0  0  0  0  2  0  0  0  0  0  0
  187.3310  176.7280  145.2330 C   0  0  0  0  0  2  0  0  0  0  0  0
  192.5400  175.3230  143.1520 C   0  0  1  0  0  3  0  0  0  0  0  0
  195.7170  175.1990  145.1480 C   0  0  0  0  0  2  0  0  0  0  0  0
  188.6770  176.9100  144.5490 C   0  0  1  0  0  3  0  0  0  0  0  0
  185.9030  176.8330  143.1630 C   0  0  0  0  0  2  0  0  0  0  0  0
  194.9100  173.6270  143.3090 C   0  0  1  0  0  3  0  0  0  0  0  0
  191.0960  176.3460  144.9640 C   0  0  0  0  0  0  0  0  0  0  0  0
  188.2430  176.8050  141.9850 C   0  0  2  0  0  3  0  0  0  0  0  0
  191.2600  176.1120  143.4770 C   0  0  2  0  0  3  0  0  0  0  0  0
  190.7700  176.7950  147.6620 C   0  0  0  0  0  3  0  0  0  0  0  0
  194.0870  174.5310  141.3090 C   0  0  0  0  0  2  0  0  0  0  0  0
  189.7090  176.9090  146.8220 N   0  0  0  0  0  0  0  0  0  0  0  0
  192.8000  175.2910  141.6420 C   0  0  0  0  0  2  0  0  0  0  0  0
  195.0560  175.1130  143.7720 C   0  0  1  0  0  3  0  0  0  0  0  0
  191.9970  176.4770  147.1750 N   0  0  0  0  0  0  0  0  0  0  0  0
  193.4820  175.9570  145.3300 N   0  0  0  0  0  0  0  0  0  0  0  0
  194.3690  172.8440  144.3330 O   0  0  0  0  0  0  0  0  0  0  0  0
  194.3890  171.5380  143.8370 C   0  0  0  0  0  2  0  0  0  0  0  0
  191.1830  171.8660  143.0520 N   0  0  0  0  0  2  0  0  0  0  0  0
  192.6200  170.0810  142.9020 C   0  0  0  0  0  2  0  0  0  0  0  0
  193.0580  170.8620  144.1110 C   0  0  0  0  0  3  0  0  0  0  0  0
  191.2960  170.5630  142.5360 N   0  0  0  0  0  2  0  0  0  0  0  0
  191.9860  171.9060  144.2630 C   0  0  0  0  0  2  0  0  0  0  0  0
  1 26  1  0  0  0  0
  3  7  1  0  0  0  0
  3 16  1  1  0  0  0
  4 23  2  0  0  0  0
  5 11  1  6  0  0  0
  5 15  1  0  0  0  0
  6  7  1  0  0  0  0
  8 12  1  0  0  0  0
  9 27  1  1  0  0  0
 10 17  1  0  0  0  0
 13 24  1  6  0  0  0
 13 20  1  0  0  0  0
 13  9  1  0  0  0  0
 14  2  1  0  0  0  0
 15 12  1  1  0  0  0
 15  4  1  0  0  0  0
 16  8  1  0  0  0  0
 17 25  1  0  0  0  0
 17 28  1  1  0  0  0
 18  4  1  0  0  0  0
 18  1  2  0  0  0  0
 19  3  1  0  0  0  0
 19  6  1  1  0  0  0
 19  5  1  0  0  0  0
 20 11  1  1  0  0  0
 20 18  1  0  0  0  0
 22 24  1  0  0  0  0
 22 10  1  0  0  0  0
 23 21  1  0  0  0  0
 25  9  1  0  0  0  0
 25 14  1  1  0  0  0
 26 21  2  0  0  0  0
 27  1  1  0  0  0  0
 27  2  1  0  0  0  0
 29 32  1  0  0  0  0
 29 28  1  0  0  0  0
 30 34  1  0  0  0  0
 31 32  1  0  0  0  0
 32 34  1  0  0  0  0
 33 31  1  0  0  0  0
 33 30  1  0  0  0  0
M  END
>  <MODEL>
8

>  <REMARK>
 VINA RESULT:      -7.7      2.514      4.838
  Name = 
  3 active torsions:
  status: ('A' for Active; 'I' for Inactive)
    1  A    between atoms: C_17  and  O_28
    2  A    between atoms: O_28  and  C_29
    3  A    between atoms: C_29  and  C_32
                            x       y       z     vdW  Elec       q    Type
                         _______ _______ _______ _____ _____    ______ ____

>  <TORSDO>
F 3

$$$$
=
 OpenBabel11112417453D

 34 41  0  0  1  0  0  0  0  0999 V2000
  189.2620  174.7150  142.0230 C   0  0  0  0  0  0  0  0  0  0  0  0
  188.1220  176.9590  142.4200 C   0  0  0  0  0  2  0  0  0  0  0  0
  193.5630  169.9260  143.8840 C   0  0  2  0  0  3  0  0  0  0  0  0
  190.2030  172.5010  141.9050 C   0  0  0  0  0  0  0  0  0  0  0  0
  191.5170  171.5240  143.8900 C   0  0  1  0  0  3  0  0  0  0  0  0
  193.9650  171.7750  143.2140 C   0  0  0  0  0  2  0  0  0  0  0  0
  194.4090  170.4740  142.9040 O   0  0  0  0  0  0  0  0  0  0  0  0
  192.0840  169.1830  141.9100 C   0  0  0  0  0  2  0  0  0  0  0  0
  190.0760  176.3800  143.7210 C   0  0  2  0  0  3  0  0  0  0  0  0
  189.4810  176.6050  146.7860 O   0  0  0  0  0  0  0  0  0  0  0  0
  190.9670  172.7410  144.6460 C   0  0  0  0  0  2  0  0  0  0  0  0
  190.8460  170.0640  141.9580 C   0  0  0  0  0  2  0  0  0  0  0  0
  190.4040  175.1780  144.6200 C   0  0  1  0  0  3  0  0  0  0  0  0
  188.3860  178.0980  143.3970 C   0  0  0  0  0  2  0  0  0  0  0  0
  191.2150  171.4810  142.3700 C   0  0  1  0  0  3  0  0  0  0  0  0
  192.5990  168.8700  143.3120 C   0  0  0  0  0  2  0  0  0  0  0  0
  188.6990  177.2430  145.7800 C   0  0  1  0  0  3  0  0  0  0  0  0
  190.1150  173.7380  142.5570 C   0  0  0  0  0  0  0  0  0  0  0  0
  192.9920  171.2810  144.2610 C   0  0  2  0  0  3  0  0  0  0  0  0
  190.9520  174.0050  143.7900 C   0  0  2  0  0  3  0  0  0  0  0  0
  188.6170  173.2290  140.3020 C   0  0  0  0  0  3  0  0  0  0  0  0
  190.8580  176.7570  146.5480 C   0  0  0  0  0  2  0  0  0  0  0  0
  189.4620  172.2810  140.7840 N   0  0  0  0  0  0  0  0  0  0  0  0
  191.3830  175.5720  145.7320 C   0  0  0  0  0  2  0  0  0  0  0  0
  189.3940  177.5650  144.4170 C   0  0  1  0  0  3  0  0  0  0  0  0
  188.5200  174.4350  140.9180 N   0  0  0  0  0  0  0  0  0  0  0  0
  189.1770  175.9940  142.6550 N   0  0  0  0  0  0  0  0  0  0  0  0
  187.5340  176.4970  145.5740 O   0  0  0  0  0  0  0  0  0  0  0  0
  186.7840  176.6730  146.7390 C   0  0  0  0  0  2  0  0  0  0  0  0
  185.5280  179.4140  145.3560 N   0  0  0  0  0  2  0  0  0  0  0  0
  185.1910  177.1860  144.9140 C   0  0  0  0  0  2  0  0  0  0  0  0
  185.4350  177.2800  146.3960 C   0  0  0  0  0  3  0  0  0  0  0  0
  184.9300  178.5360  144.4350 N   0  0  0  0  0  2  0  0  0  0  0  0
  185.4710  178.7600  146.6530 C   0  0  0  0  0  2  0  0  0  0  0  0
  1 18  1  0  0  0  0
  1 27  1  0  0  0  0
  2 27  1  0  0  0  0
  2 14  1  0  0  0  0
  3 16  1  6  0  0  0
  3 19  1  0  0  0  0
  4 15  1  0  0  0  0
  4 18  2  0  0  0  0
  5 19  1  0  0  0  0
  5 11  1  6  0  0  0
  7  6  1  0  0  0  0
  7  3  1  0  0  0  0
  8 12  1  0  0  0  0
  8 16  1  0  0  0  0
  9 27  1  6  0  0  0
  9 25  1  0  0  0  0
  9 13  1  0  0  0  0
 13 24  1  1  0  0  0
 15 12  1  1  0  0  0
 15  5  1  0  0  0  0
 17 28  1  6  0  0  0
 17 10  1  0  0  0  0
 18 20  1  0  0  0  0
 19  6  1  6  0  0  0
 20 13  1  0  0  0  0
 20 11  1  1  0  0  0
 21 23  2  0  0  0  0
 21 26  1  0  0  0  0
 22 10  1  0  0  0  0
 23  4  1  0  0  0  0
 24 22  1  0  0  0  0
 25 14  1  6  0  0  0
 25 17  1  0  0  0  0
 26  1  2  0  0  0  0
 28 29  1  0  0  0  0
 30 34  1  0  0  0  0
 31 32  1  0  0  0  0
 32 34  1  0  0  0  0
 32 29  1  0  0  0  0
 33 31  1  0  0  0  0
 33 30  1  0  0  0  0
M  END
>  <MODEL>
9

>  <REMARK>
 VINA RESULT:      -7.6      2.860      7.730
  Name = 
  3 active torsions:
  status: ('A' for Active; 'I' for Inactive)
    1  A    between atoms: C_17  and  O_28
    2  A    between atoms: O_28  and  C_29
    3  A    between atoms: C_29  and  C_32
                            x       y       z     vdW  Elec       q    Type
                         _______ _______ _______ _____ _____    ______ ____

>  <TORSDO>
F 3

$$$$
