=
 OpenBabel11112416133D

 30 35  0  0  1  0  0  0  0  0999 V2000
  187.3890  176.9650  143.8410 C   0  0  1  0  0  3  0  0  0  0  0  0
  185.3830  177.8000  145.2050 C   0  0  0  0  0  0  0  0  0  0  0  0
  189.6640  177.0930  147.3560 N   0  0  0  0  0  2  0  0  0  0  0  0
  188.5570  176.0260  144.1650 C   0  0  1  0  0  3  0  0  0  0  0  0
  186.4610  176.2880  143.0230 O   0  0  0  0  0  0  0  0  0  0  0  0
  188.7580  174.9700  140.6520 O   0  0  0  0  0  0  0  0  0  0  0  0
  191.5940  175.2950  143.2550 C   0  0  1  0  0  3  0  0  0  0  0  0
  188.3300  175.4920  141.7170 C   0  0  0  0  0  0  0  0  0  0  0  0
  191.8410  175.6700  144.7250 C   0  0  2  0  0  3  0  0  0  0  0  0
  190.8430  176.3390  146.9610 C   0  0  1  0  0  3  0  0  0  0  0  0
  186.9970  176.1840  141.7180 C   0  0  2  0  0  3  0  0  0  0  0  0
  189.1110  175.4420  142.9250 N   0  0  0  0  0  0  0  0  0  0  0  0
  184.8600  178.3320  146.3850 C   0  0  0  0  0  3  0  0  0  0  0  0
  192.7920  174.6180  145.2530 C   0  0  0  0  0  2  0  0  0  0  0  0
  192.7790  174.4400  142.8330 C   0  0  0  0  0  2  0  0  0  0  0  0
  184.5190  177.5970  144.1350 O   0  0  0  0  0  1  0  0  0  0  0  0
  189.1060  177.6290  146.1180 C   0  0  1  0  0  3  0  0  0  0  0  0
  185.6930  178.6000  147.4700 C   0  0  0  0  0  3  0  0  0  0  0  0
  186.7620  177.4930  145.1120 C   0  0  0  0  0  0  0  0  0  0  0  0
  189.6290  176.7860  144.9470 C   0  0  1  0  0  3  0  0  0  0  0  0
  191.0630  175.2020  147.9390 C   0  0  0  0  0  1  0  0  0  0  0  0
  190.5760  175.7950  145.5740 C   0  0  1  0  0  3  0  0  0  0  0  0
  193.6470  174.2420  144.0640 C   0  0  0  0  0  2  0  0  0  0  0  0
  190.0290  173.3060  143.7920 C   0  0  0  0  0  1  0  0  0  0  0  0
  187.0590  178.3430  147.3750 C   0  0  0  0  0  3  0  0  0  0  0  0
  187.6040  177.7880  146.2100 C   0  0  0  0  0  0  0  0  0  0  0  0
  190.2780  174.5510  142.9460 C   0  0  2  0  0  3  0  0  0  0  0  0
  187.0630  177.5360  141.0030 C   0  0  0  0  0  2  0  0  0  0  0  0
  184.7130  178.2670  140.5960 C   0  0  0  0  0  1  0  0  0  0  0  0
  185.9560  177.6640  139.9700 C   0  0  0  0  0  2  0  0  0  0  0  0
  1  5  1  1  0  0  0
  1  4  1  0  0  0  0
  1 19  1  0  0  0  0
  2 13  1  0  0  0  0
  4 12  1  6  0  0  0
  4 20  1  0  0  0  0
  6  8  2  0  0  0  0
  7 15  1  1  0  0  0
  7  9  1  0  0  0  0
  8 11  1  0  0  0  0
  8 12  1  0  0  0  0
  9 14  1  1  0  0  0
  9 22  1  0  0  0  0
 10  3  1  0  0  0  0
 10 21  1  1  0  0  0
 11 28  1  1  0  0  0
 11  5  1  0  0  0  0
 12 27  1  0  0  0  0
 13 18  2  0  0  0  0
 15 23  1  0  0  0  0
 16  2  1  0  0  0  0
 17 26  1  1  0  0  0
 17  3  1  0  0  0  0
 19  2  2  0  0  0  0
 19 26  1  0  0  0  0
 20 22  1  0  0  0  0
 20 17  1  0  0  0  0
 22 10  1  0  0  0  0
 23 14  1  0  0  0  0
 25 18  1  0  0  0  0
 26 25  2  0  0  0  0
 27  7  1  0  0  0  0
 27 24  1  0  0  0  0
 30 29  1  0  0  0  0
 30 28  1  0  0  0  0
M  END
>  <MODEL>
1

>  <REMARK>
 VINA RESULT:      -8.5      0.000      0.000
  Name = 
  2 active torsions:
  status: ('A' for Active; 'I' for Inactive)
    1  A    between atoms: C_11  and  C_28
    2  A    between atoms: C_28  and  C_30
                            x       y       z     vdW  Elec       q    Type
                         _______ _______ _______ _____ _____    ______ ____

>  <TORSDO>
F 2

$$$$
=
 OpenBabel11112416133D

 30 35  0  0  1  0  0  0  0  0999 V2000
  189.2410  175.4310  143.9300 C   0  0  1  0  0  3  0  0  0  0  0  0
  191.3600  174.9910  145.3080 C   0  0  0  0  0  0  0  0  0  0  0  0
  187.5550  177.2010  147.3310 N   0  0  0  0  0  2  0  0  0  0  0  0
  188.2250  176.5790  143.9090 C   0  0  1  0  0  3  0  0  0  0  0  0
  190.0820  175.5330  142.8020 O   0  0  0  0  0  0  0  0  0  0  0  0
  187.5580  176.0010  140.3430 O   0  0  0  0  0  0  0  0  0  0  0  0
  185.1570  177.2790  143.0860 C   0  0  1  0  0  3  0  0  0  0  0  0
  188.1040  175.9430  141.4780 C   0  0  0  0  0  0  0  0  0  0  0  0
  185.1160  177.6290  144.5820 C   0  0  2  0  0  3  0  0  0  0  0  0
  186.3970  177.8710  146.7610 C   0  0  1  0  0  3  0  0  0  0  0  0
  189.3560  175.1320  141.6560 C   0  0  2  0  0  3  0  0  0  0  0  0
  187.5330  176.6330  142.6040 N   0  0  0  0  0  0  0  0  0  0  0  0
  192.0170  174.9610  146.5400 C   0  0  0  0  0  3  0  0  0  0  0  0
  184.3560  178.9350  144.6680 C   0  0  0  0  0  2  0  0  0  0  0  0
  183.9980  178.0280  142.4460 C   0  0  0  0  0  2  0  0  0  0  0  0
  192.0560  174.5730  144.1800 O   0  0  0  0  0  1  0  0  0  0  0  0
  187.8590  176.0990  146.4230 C   0  0  1  0  0  3  0  0  0  0  0  0
  191.3480  175.3240  147.7070 C   0  0  0  0  0  3  0  0  0  0  0  0
  190.0160  175.4280  145.2290 C   0  0  0  0  0  0  0  0  0  0  0  0
  187.2310  176.4090  145.0580 C   0  0  1  0  0  3  0  0  0  0  0  0
  186.4350  179.3400  147.1300 C   0  0  0  0  0  1  0  0  0  0  0  0
  186.4850  177.7040  145.2580 C   0  0  1  0  0  3  0  0  0  0  0  0
  183.3570  178.8730  143.5340 C   0  0  0  0  0  2  0  0  0  0  0  0
  186.9530  179.0430  142.4910 C   0  0  0  0  0  1  0  0  0  0  0  0
  190.0120  175.7130  147.6470 C   0  0  0  0  0  3  0  0  0  0  0  0
  189.3370  175.7750  146.4210 C   0  0  0  0  0  0  0  0  0  0  0  0
  186.4660  177.6060  142.3370 C   0  0  2  0  0  3  0  0  0  0  0  0
  189.0600  173.6300  141.6470 C   0  0  0  0  0  2  0  0  0  0  0  0
  190.3270  171.8080  142.7870 C   0  0  0  0  0  1  0  0  0  0  0  0
  190.3450  172.8180  141.6560 C   0  0  0  0  0  2  0  0  0  0  0  0
  1  5  1  6  0  0  0
  1 19  1  0  0  0  0
  2 13  1  0  0  0  0
  4 12  1  6  0  0  0
  4  1  1  0  0  0  0
  4 20  1  0  0  0  0
  6  8  2  0  0  0  0
  7 15  1  6  0  0  0
  7  9  1  0  0  0  0
  8 11  1  0  0  0  0
  8 12  1  0  0  0  0
  9 14  1  6  0  0  0
  9 22  1  0  0  0  0
 10 21  1  6  0  0  0
 10  3  1  0  0  0  0
 11 28  1  1  0  0  0
 11  5  1  0  0  0  0
 13 18  2  0  0  0  0
 15 23  1  0  0  0  0
 16  2  1  0  0  0  0
 17 26  1  6  0  0  0
 17  3  1  0  0  0  0
 19  2  2  0  0  0  0
 19 26  1  0  0  0  0
 20 22  1  0  0  0  0
 20 17  1  0  0  0  0
 22 10  1  0  0  0  0
 23 14  1  0  0  0  0
 25 18  1  0  0  0  0
 26 25  2  0  0  0  0
 27 24  1  0  0  0  0
 27 12  1  0  0  0  0
 27  7  1  0  0  0  0
 28 30  1  0  0  0  0
 30 29  1  0  0  0  0
M  END
>  <MODEL>
2

>  <REMARK>
 VINA RESULT:      -8.2      1.875      5.763
  Name = 
  2 active torsions:
  status: ('A' for Active; 'I' for Inactive)
    1  A    between atoms: C_11  and  C_28
    2  A    between atoms: C_28  and  C_30
                            x       y       z     vdW  Elec       q    Type
                         _______ _______ _______ _____ _____    ______ ____

>  <TORSDO>
F 2

$$$$
=
 OpenBabel11112416133D

 30 35  0  0  1  0  0  0  0  0999 V2000
  187.2690  176.3110  141.1820 C   0  0  1  0  0  3  0  0  0  0  0  0
  187.3840  175.7150  138.6890 C   0  0  0  0  0  0  0  0  0  0  0  0
  189.9640  173.1900  141.9180 N   0  0  0  0  0  2  0  0  0  0  0  0
  188.3070  176.2960  142.3110 C   0  0  1  0  0  3  0  0  0  0  0  0
  187.0400  177.6440  140.7800 O   0  0  0  0  0  0  0  0  0  0  0  0
  186.5880  179.0640  144.0070 O   0  0  0  0  0  0  0  0  0  0  0  0
  188.5780  176.1340  145.5490 C   0  0  1  0  0  3  0  0  0  0  0  0
  186.9200  178.2330  143.1190 C   0  0  0  0  0  0  0  0  0  0  0  0
  189.3870  174.8890  145.1530 C   0  0  2  0  0  3  0  0  0  0  0  0
  190.3670  173.4770  143.2850 C   0  0  1  0  0  3  0  0  0  0  0  0
  186.2620  178.2890  141.7700 C   0  0  2  0  0  3  0  0  0  0  0  0
  187.9110  177.2250  143.3900 N   0  0  0  0  0  0  0  0  0  0  0  0
  187.7770  174.8450  137.6700 C   0  0  0  0  0  3  0  0  0  0  0  0
  190.6180  174.9140  146.0330 C   0  0  0  0  0  2  0  0  0  0  0  0
  189.0320  176.5030  146.9520 C   0  0  0  0  0  2  0  0  0  0  0  0
  186.6550  176.8470  138.3430 O   0  0  0  0  0  1  0  0  0  0  0  0
  188.6430  173.7910  141.7620 C   0  0  1  0  0  3  0  0  0  0  0  0
  188.4680  173.6720  137.9700 C   0  0  0  0  0  3  0  0  0  0  0  0
  187.7150  175.4310  140.0350 C   0  0  0  0  0  0  0  0  0  0  0  0
  188.4730  174.8710  142.8390 C   0  0  1  0  0  3  0  0  0  0  0  0
  191.8780  173.5810  143.3520 C   0  0  0  0  0  1  0  0  0  0  0  0
  189.7310  174.7960  143.6670 C   0  0  1  0  0  3  0  0  0  0  0  0
  190.1540  175.5500  147.3240 C   0  0  0  0  0  2  0  0  0  0  0  0
  190.1310  177.8070  144.3330 C   0  0  0  0  0  1  0  0  0  0  0  0
  188.7610  173.3600  139.2960 C   0  0  0  0  0  3  0  0  0  0  0  0
  188.3980  174.2280  140.3340 C   0  0  0  0  0  0  0  0  0  0  0  0
  188.7010  177.3600  144.6200 C   0  0  2  0  0  3  0  0  0  0  0  0
  184.8250  177.7620  141.8220 C   0  0  0  0  0  2  0  0  0  0  0  0
  182.5300  178.1390  140.9210 C   0  0  0  0  0  1  0  0  0  0  0  0
  184.0150  178.2630  140.6380 C   0  0  0  0  0  2  0  0  0  0  0  0
  1 19  1  6  0  0  0
  1  4  1  0  0  0  0
  2 19  1  0  0  0  0
  3 10  1  0  0  0  0
  4 20  1  0  0  0  0
  4 12  1  1  0  0  0
  5  1  1  0  0  0  0
  5 11  1  0  0  0  0
  7 15  1  1  0  0  0
  8 12  1  0  0  0  0
  8  6  2  0  0  0  0
  9  7  1  0  0  0  0
  9 14  1  1  0  0  0
 10 21  1  6  0  0  0
 10 22  1  0  0  0  0
 11 28  1  1  0  0  0
 11  8  1  0  0  0  0
 12 27  1  0  0  0  0
 13 18  1  0  0  0  0
 13  2  2  0  0  0  0
 14 23  1  0  0  0  0
 15 23  1  0  0  0  0
 16  2  1  0  0  0  0
 17 26  1  6  0  0  0
 17  3  1  0  0  0  0
 17 20  1  0  0  0  0
 18 25  2  0  0  0  0
 19 26  2  0  0  0  0
 20 22  1  0  0  0  0
 22  9  1  0  0  0  0
 24 27  1  0  0  0  0
 25 26  1  0  0  0  0
 27  7  1  0  0  0  0
 30 29  1  0  0  0  0
 30 28  1  0  0  0  0
M  END
>  <MODEL>
3

>  <REMARK>
 VINA RESULT:      -7.7      2.146      5.255
  Name = 
  2 active torsions:
  status: ('A' for Active; 'I' for Inactive)
    1  A    between atoms: C_11  and  C_28
    2  A    between atoms: C_28  and  C_30
                            x       y       z     vdW  Elec       q    Type
                         _______ _______ _______ _____ _____    ______ ____

>  <TORSDO>
F 2

$$$$
=
 OpenBabel11112416133D

 30 35  0  0  1  0  0  0  0  0999 V2000
  188.5620  176.5680  144.1810 C   0  0  1  0  0  3  0  0  0  0  0  0
  186.9500  177.7940  142.6060 C   0  0  0  0  0  0  0  0  0  0  0  0
  190.0100  174.4730  140.8550 N   0  0  0  0  0  2  0  0  0  0  0  0
  190.0010  176.0630  144.0200 C   0  0  1  0  0  3  0  0  0  0  0  0
  188.5650  177.7360  144.9720 O   0  0  0  0  0  0  0  0  0  0  0  0
  190.6320  176.5450  147.6070 O   0  0  0  0  0  0  0  0  0  0  0  0
  192.1110  173.8950  145.2160 C   0  0  1  0  0  3  0  0  0  0  0  0
  190.0780  176.6040  146.4760 C   0  0  0  0  0  0  0  0  0  0  0  0
  192.0760  173.4470  143.7470 C   0  0  2  0  0  3  0  0  0  0  0  0
  191.2220  173.8810  141.3960 C   0  0  1  0  0  3  0  0  0  0  0  0
  188.7970  177.3710  146.3190 C   0  0  2  0  0  3  0  0  0  0  0  0
  190.6540  175.9340  145.3400 N   0  0  0  0  0  0  0  0  0  0  0  0
  186.3500  177.9260  141.3520 C   0  0  0  0  0  3  0  0  0  0  0  0
  193.5180  173.1800  143.3750 C   0  0  0  0  0  2  0  0  0  0  0  0
  193.4090  173.3510  145.7920 C   0  0  0  0  0  2  0  0  0  0  0  0
  186.5590  178.6640  143.6170 O   0  0  0  0  0  1  0  0  0  0  0  0
  189.1350  174.6980  142.0020 C   0  0  1  0  0  3  0  0  0  0  0  0
  186.6720  177.0480  140.3190 C   0  0  0  0  0  3  0  0  0  0  0  0
  187.9200  176.7880  142.8290 C   0  0  0  0  0  0  0  0  0  0  0  0
  190.0000  174.7310  143.2700 C   0  0  1  0  0  3  0  0  0  0  0  0
  192.4010  174.2670  140.5250 C   0  0  0  0  0  1  0  0  0  0  0  0
  191.3980  174.4320  142.7940 C   0  0  1  0  0  3  0  0  0  0  0  0
  194.1590  172.6840  144.6520 C   0  0  0  0  0  2  0  0  0  0  0  0
  193.0320  176.2580  144.7090 C   0  0  0  0  0  1  0  0  0  0  0  0
  187.5930  176.0260  140.5390 C   0  0  0  0  0  3  0  0  0  0  0  0
  188.2260  175.8870  141.7810 C   0  0  0  0  0  0  0  0  0  0  0  0
  192.0200  175.4130  145.4770 C   0  0  2  0  0  3  0  0  0  0  0  0
  187.6120  176.6210  146.9340 C   0  0  0  0  0  2  0  0  0  0  0  0
  185.2040  176.8490  146.3220 C   0  0  0  0  0  1  0  0  0  0  0  0
  186.3820  177.5100  147.0130 C   0  0  0  0  0  2  0  0  0  0  0  0
  1 19  1  6  0  0  0
  1  5  1  0  0  0  0
  2 19  1  0  0  0  0
  2 16  1  0  0  0  0
  3 10  1  0  0  0  0
  4  1  1  0  0  0  0
  4 12  1  1  0  0  0
  5 11  1  0  0  0  0
  7 27  1  0  0  0  0
  7 15  1  6  0  0  0
  8  6  2  0  0  0  0
  9 14  1  6  0  0  0
  9  7  1  0  0  0  0
 10 21  1  6  0  0  0
 10 22  1  0  0  0  0
 11  8  1  0  0  0  0
 11 28  1  6  0  0  0
 12 27  1  0  0  0  0
 12  8  1  0  0  0  0
 13  2  2  0  0  0  0
 14 23  1  0  0  0  0
 17  3  1  6  0  0  0
 17 20  1  0  0  0  0
 18 25  2  0  0  0  0
 18 13  1  0  0  0  0
 20  4  1  0  0  0  0
 22 20  1  0  0  0  0
 22  9  1  0  0  0  0
 23 15  1  0  0  0  0
 24 27  1  0  0  0  0
 25 26  1  0  0  0  0
 26 17  1  0  0  0  0
 26 19  2  0  0  0  0
 28 30  1  0  0  0  0
 29 30  1  0  0  0  0
M  END
>  <MODEL>
4

>  <REMARK>
 VINA RESULT:      -7.7      1.887      4.755
  Name = 
  2 active torsions:
  status: ('A' for Active; 'I' for Inactive)
    1  A    between atoms: C_11  and  C_28
    2  A    between atoms: C_28  and  C_30
                            x       y       z     vdW  Elec       q    Type
                         _______ _______ _______ _____ _____    ______ ____

>  <TORSDO>
F 2

$$$$
=
 OpenBabel11112416133D

 30 35  0  0  1  0  0  0  0  0999 V2000
  190.5720  174.9270  143.8370 C   0  0  1  0  0  3  0  0  0  0  0  0
  193.1230  174.6950  143.6890 C   0  0  0  0  0  0  0  0  0  0  0  0
  191.0770  176.6030  147.6430 N   0  0  0  0  0  2  0  0  0  0  0  0
  189.6520  175.9830  144.4600 C   0  0  1  0  0  3  0  0  0  0  0  0
  190.5770  175.0830  142.4350 O   0  0  0  0  0  0  0  0  0  0  0  0
  187.0610  175.2890  141.9490 O   0  0  0  0  0  0  0  0  0  0  0  0
  186.6430  176.4020  145.6250 C   0  0  1  0  0  3  0  0  0  0  0  0
  188.1730  175.2980  142.5440 C   0  0  0  0  0  0  0  0  0  0  0  0
  187.4630  176.7730  146.8700 C   0  0  2  0  0  3  0  0  0  0  0  0
  189.7570  177.1610  147.8870 C   0  0  1  0  0  3  0  0  0  0  0  0
  189.3490  174.6010  141.9210 C   0  0  2  0  0  3  0  0  0  0  0  0
  188.3220  175.9560  143.8140 N   0  0  0  0  0  0  0  0  0  0  0  0
  194.3800  174.7430  144.2970 C   0  0  0  0  0  3  0  0  0  0  0  0
  186.7980  178.0100  147.4350 C   0  0  0  0  0  2  0  0  0  0  0  0
  185.2740  177.0370  145.8170 C   0  0  0  0  0  2  0  0  0  0  0  0
  193.0530  174.3190  142.3530 O   0  0  0  0  0  1  0  0  0  0  0  0
  190.8760  175.5160  146.6900 C   0  0  1  0  0  3  0  0  0  0  0  0
  194.5000  175.0670  145.6470 C   0  0  0  0  0  3  0  0  0  0  0  0
  191.9610  175.0130  144.4310 C   0  0  0  0  0  0  0  0  0  0  0  0
  189.5420  175.7480  145.9670 C   0  0  1  0  0  3  0  0  0  0  0  0
  189.8880  178.6340  148.2170 C   0  0  0  0  0  1  0  0  0  0  0  0
  188.9570  176.9760  146.6150 C   0  0  1  0  0  3  0  0  0  0  0  0
  185.3320  177.8420  147.1030 C   0  0  0  0  0  2  0  0  0  0  0  0
  187.5980  178.3040  144.1540 C   0  0  0  0  0  1  0  0  0  0  0  0
  193.3580  175.3380  146.3990 C   0  0  0  0  0  3  0  0  0  0  0  0
  192.0890  175.3210  145.8070 C   0  0  0  0  0  0  0  0  0  0  0  0
  187.2290  176.8280  144.2620 C   0  0  2  0  0  3  0  0  0  0  0  0
  189.2260  173.0790  142.0330 C   0  0  0  0  0  2  0  0  0  0  0  0
  188.3490  172.8160  139.7120 C   0  0  0  0  0  1  0  0  0  0  0  0
  189.4420  172.4110  140.6840 C   0  0  0  0  0  2  0  0  0  0  0  0
  1  5  1  6  0  0  0
  1 19  1  0  0  0  0
  1  4  1  0  0  0  0
  2 13  2  0  0  0  0
  2 19  1  0  0  0  0
  3 10  1  0  0  0  0
  4 12  1  6  0  0  0
  4 20  1  0  0  0  0
  6  8  2  0  0  0  0
  7 15  1  1  0  0  0
  7  9  1  0  0  0  0
  8 12  1  0  0  0  0
  9 14  1  6  0  0  0
 10 21  1  6  0  0  0
 11 28  1  1  0  0  0
 11  5  1  0  0  0  0
 11  8  1  0  0  0  0
 12 27  1  0  0  0  0
 13 18  1  0  0  0  0
 15 23  1  0  0  0  0
 16  2  1  0  0  0  0
 17 26  1  6  0  0  0
 17  3  1  0  0  0  0
 18 25  2  0  0  0  0
 19 26  2  0  0  0  0
 20 22  1  0  0  0  0
 20 17  1  0  0  0  0
 22  9  1  0  0  0  0
 22 10  1  0  0  0  0
 23 14  1  0  0  0  0
 24 27  1  0  0  0  0
 26 25  1  0  0  0  0
 27  7  1  0  0  0  0
 29 30  1  0  0  0  0
 30 28  1  0  0  0  0
M  END
>  <MODEL>
5

>  <REMARK>
 VINA RESULT:      -7.5      1.821      5.719
  Name = 
  2 active torsions:
  status: ('A' for Active; 'I' for Inactive)
    1  A    between atoms: C_11  and  C_28
    2  A    between atoms: C_28  and  C_30
                            x       y       z     vdW  Elec       q    Type
                         _______ _______ _______ _____ _____    ______ ____

>  <TORSDO>
F 2

$$$$
=
 OpenBabel11112416133D

 30 35  0  0  1  0  0  0  0  0999 V2000
  189.9520  176.0760  144.4140 C   0  0  1  0  0  3  0  0  0  0  0  0
  191.3610  176.4950  146.5170 C   0  0  0  0  0  0  0  0  0  0  0  0
  193.2590  174.1160  142.7490 N   0  0  0  0  0  2  0  0  0  0  0  0
  189.8730  174.9090  143.4220 C   0  0  1  0  0  3  0  0  0  0  0  0
  188.8250  176.0430  145.2620 O   0  0  0  0  0  0  0  0  0  0  0  0
  186.3340  175.6380  142.7580 O   0  0  0  0  0  0  0  0  0  0  0  0
  189.0030  174.1850  140.3730 C   0  0  1  0  0  3  0  0  0  0  0  0
  187.4740  175.6550  143.2980 C   0  0  0  0  0  0  0  0  0  0  0  0
  190.4800  173.7650  140.3330 C   0  0  2  0  0  3  0  0  0  0  0  0
  192.6520  173.4490  141.6090 C   0  0  1  0  0  3  0  0  0  0  0  0
  187.6960  176.4820  144.5310 C   0  0  2  0  0  3  0  0  0  0  0  0
  188.5630  174.9010  142.7370 N   0  0  0  0  0  0  0  0  0  0  0  0
  192.5960  176.4820  147.1680 C   0  0  0  0  0  3  0  0  0  0  0  0
  190.5010  172.4410  139.5990 C   0  0  0  0  0  2  0  0  0  0  0  0
  188.3230  173.4430  139.2320 C   0  0  0  0  0  2  0  0  0  0  0  0
  190.2570  176.9790  147.2090 O   0  0  0  0  0  1  0  0  0  0  0  0
  192.4050  175.2640  143.0350 C   0  0  1  0  0  3  0  0  0  0  0  0
  193.7420  176.0500  146.5020 C   0  0  0  0  0  3  0  0  0  0  0  0
  191.2550  176.0350  145.1830 C   0  0  0  0  0  0  0  0  0  0  0  0
  191.0240  175.0050  142.4190 C   0  0  1  0  0  3  0  0  0  0  0  0
  192.9530  171.9650  141.6760 C   0  0  0  0  0  1  0  0  0  0  0  0
  191.1600  173.6870  141.7000 C   0  0  1  0  0  3  0  0  0  0  0  0
  189.3660  172.5350  138.6050 C   0  0  0  0  0  2  0  0  0  0  0  0
  188.3360  172.4870  142.2080 C   0  0  0  0  0  1  0  0  0  0  0  0
  193.6570  175.6370  145.1740 C   0  0  0  0  0  3  0  0  0  0  0  0
  192.4260  175.6180  144.5060 C   0  0  0  0  0  0  0  0  0  0  0  0
  188.2460  173.9200  141.6910 C   0  0  2  0  0  3  0  0  0  0  0  0
  187.7550  177.9770  144.2040 C   0  0  0  0  0  2  0  0  0  0  0  0
  185.7810  179.2950  143.4370 C   0  0  0  0  0  1  0  0  0  0  0  0
  186.4810  178.6830  144.6360 C   0  0  0  0  0  2  0  0  0  0  0  0
  1 19  1  1  0  0  0
  1  5  1  0  0  0  0
  2 13  1  0  0  0  0
  2 16  1  0  0  0  0
  4 12  1  6  0  0  0
  4  1  1  0  0  0  0
  6  8  2  0  0  0  0
  7 15  1  6  0  0  0
  7 27  1  0  0  0  0
  8 11  1  0  0  0  0
  9 14  1  1  0  0  0
  9  7  1  0  0  0  0
  9 22  1  0  0  0  0
 10 21  1  1  0  0  0
 10 22  1  0  0  0  0
 10  3  1  0  0  0  0
 11 28  1  6  0  0  0
 11  5  1  0  0  0  0
 12  8  1  0  0  0  0
 17  3  1  1  0  0  0
 17 26  1  0  0  0  0
 18 13  2  0  0  0  0
 19  2  2  0  0  0  0
 20 17  1  0  0  0  0
 20  4  1  0  0  0  0
 22 20  1  0  0  0  0
 23 15  1  0  0  0  0
 23 14  1  0  0  0  0
 25 18  1  0  0  0  0
 26 25  2  0  0  0  0
 26 19  1  0  0  0  0
 27 24  1  0  0  0  0
 27 12  1  0  0  0  0
 28 30  1  0  0  0  0
 29 30  1  0  0  0  0
M  END
>  <MODEL>
6

>  <REMARK>
 VINA RESULT:      -7.4      2.362      5.132
  Name = 
  2 active torsions:
  status: ('A' for Active; 'I' for Inactive)
    1  A    between atoms: C_11  and  C_28
    2  A    between atoms: C_28  and  C_30
                            x       y       z     vdW  Elec       q    Type
                         _______ _______ _______ _____ _____    ______ ____

>  <TORSDO>
F 2

$$$$
=
 OpenBabel11112416133D

 30 35  0  0  1  0  0  0  0  0999 V2000
  190.7360  174.0370  142.8480 C   0  0  1  0  0  3  0  0  0  0  0  0
  193.1490  173.2820  143.2820 C   0  0  0  0  0  0  0  0  0  0  0  0
  190.6380  175.5280  146.7620 N   0  0  0  0  0  2  0  0  0  0  0  0
  189.9230  175.2550  143.3030 C   0  0  1  0  0  3  0  0  0  0  0  0
  191.1070  174.2050  141.4970 O   0  0  0  0  0  0  0  0  0  0  0  0
  187.9250  175.1440  140.2220 O   0  0  0  0  0  0  0  0  0  0  0  0
  186.8690  176.2780  143.7610 C   0  0  1  0  0  3  0  0  0  0  0  0
  188.8410  174.9140  141.0580 C   0  0  0  0  0  0  0  0  0  0  0  0
  187.4230  176.4550  145.1830 C   0  0  2  0  0  3  0  0  0  0  0  0
  189.4360  176.3450  146.7260 C   0  0  1  0  0  3  0  0  0  0  0  0
  189.9680  173.9940  140.6850 C   0  0  2  0  0  3  0  0  0  0  0  0
  188.8090  175.5120  142.3660 N   0  0  0  0  0  0  0  0  0  0  0  0
  194.2070  173.0590  144.1670 C   0  0  0  0  0  3  0  0  0  0  0  0
  186.9020  177.7970  145.6520 C   0  0  0  0  0  2  0  0  0  0  0  0
  185.6490  177.1810  143.6680 C   0  0  0  0  0  2  0  0  0  0  0  0
  193.3280  172.9440  141.9460 O   0  0  0  0  0  1  0  0  0  0  0  0
  190.4580  174.5180  145.7230 C   0  0  1  0  0  3  0  0  0  0  0  0
  194.0620  173.3360  145.5250 C   0  0  0  0  0  3  0  0  0  0  0  0
  191.9300  173.8260  143.7530 C   0  0  0  0  0  0  0  0  0  0  0  0
  189.4100  175.0300  144.7260 C   0  0  1  0  0  3  0  0  0  0  0  0
  189.7750  177.7560  147.1670 C   0  0  0  0  0  1  0  0  0  0  0  0
  188.9440  176.3460  145.2940 C   0  0  1  0  0  3  0  0  0  0  0  0
  185.5560  177.9420  144.9790 C   0  0  0  0  0  2  0  0  0  0  0  0
  188.5070  177.9560  142.6700 C   0  0  0  0  0  1  0  0  0  0  0  0
  192.8510  173.8310  146.0070 C   0  0  0  0  0  3  0  0  0  0  0  0
  191.7840  174.0840  145.1360 C   0  0  0  0  0  0  0  0  0  0  0  0
  187.8360  176.5870  142.6000 C   0  0  2  0  0  3  0  0  0  0  0  0
  189.5210  172.5300  140.6720 C   0  0  0  0  0  2  0  0  0  0  0  0
  190.9010  170.4900  141.0660 C   0  0  0  0  0  1  0  0  0  0  0  0
  190.6090  171.6300  140.1090 C   0  0  0  0  0  2  0  0  0  0  0  0
  1  5  1  6  0  0  0
  1  4  1  0  0  0  0
  1 19  1  0  0  0  0
  2 19  2  0  0  0  0
  2 13  1  0  0  0  0
  4 12  1  6  0  0  0
  4 20  1  0  0  0  0
  6  8  2  0  0  0  0
  7 15  1  1  0  0  0
  7  9  1  0  0  0  0
  8 12  1  0  0  0  0
  9 22  1  0  0  0  0
  9 14  1  6  0  0  0
 10  3  1  0  0  0  0
 10 21  1  6  0  0  0
 11 28  1  1  0  0  0
 11  8  1  0  0  0  0
 11  5  1  0  0  0  0
 12 27  1  0  0  0  0
 13 18  2  0  0  0  0
 15 23  1  0  0  0  0
 16  2  1  0  0  0  0
 17 26  1  6  0  0  0
 17  3  1  0  0  0  0
 18 25  1  0  0  0  0
 19 26  1  0  0  0  0
 20 22  1  0  0  0  0
 20 17  1  0  0  0  0
 22 10  1  0  0  0  0
 23 14  1  0  0  0  0
 26 25  2  0  0  0  0
 27 24  1  0  0  0  0
 27  7  1  0  0  0  0
 30 28  1  0  0  0  0
 30 29  1  0  0  0  0
M  END
>  <MODEL>
7

>  <REMARK>
 VINA RESULT:      -7.2      1.990      6.037
  Name = 
  2 active torsions:
  status: ('A' for Active; 'I' for Inactive)
    1  A    between atoms: C_11  and  C_28
    2  A    between atoms: C_28  and  C_30
                            x       y       z     vdW  Elec       q    Type
                         _______ _______ _______ _____ _____    ______ ____

>  <TORSDO>
F 2

$$$$
=
 OpenBabel11112416133D

 30 35  0  0  1  0  0  0  0  0999 V2000
  188.5660  176.3080  143.3720 C   0  0  1  0  0  3  0  0  0  0  0  0
  187.2380  177.1460  145.4010 C   0  0  0  0  0  0  0  0  0  0  0  0
  191.9000  175.9240  145.8790 N   0  0  0  0  0  2  0  0  0  0  0  0
  189.6730  175.2600  143.2050 C   0  0  1  0  0  3  0  0  0  0  0  0
  187.3510  175.7830  142.8830 O   0  0  0  0  0  0  0  0  0  0  0  0
  188.5610  174.5450  139.7780 O   0  0  0  0  0  0  0  0  0  0  0  0
  192.1290  174.4070  141.2510 C   0  0  1  0  0  3  0  0  0  0  0  0
  188.5750  174.9890  140.9580 C   0  0  0  0  0  0  0  0  0  0  0  0
  192.8970  174.6160  142.5650 C   0  0  2  0  0  3  0  0  0  0  0  0
  192.7910  175.1300  145.0490 C   0  0  1  0  0  3  0  0  0  0  0  0
  187.3990  175.7710  141.4690 C   0  0  2  0  0  3  0  0  0  0  0  0
  189.7100  174.7640  141.8140 N   0  0  0  0  0  0  0  0  0  0  0  0
  187.2040  177.5950  146.7230 C   0  0  0  0  0  3  0  0  0  0  0  0
  193.8600  173.4510  142.6570 C   0  0  0  0  0  2  0  0  0  0  0  0
  193.0070  173.5150  140.3860 C   0  0  0  0  0  2  0  0  0  0  0  0
  186.0460  177.1120  144.6860 O   0  0  0  0  0  1  0  0  0  0  0  0
  191.0120  176.6180  144.9510 C   0  0  1  0  0  3  0  0  0  0  0  0
  188.3780  177.6930  147.4660 C   0  0  0  0  0  3  0  0  0  0  0  0
  188.4640  176.7520  144.8150 C   0  0  0  0  0  0  0  0  0  0  0  0
  191.0180  175.8600  143.6170 C   0  0  1  0  0  3  0  0  0  0  0  0
  193.2140  173.8890  145.8100 C   0  0  0  0  0  1  0  0  0  0  0  0
  192.0160  174.7460  143.8070 C   0  0  1  0  0  3  0  0  0  0  0  0
  194.2170  173.1340  141.2220 C   0  0  0  0  0  2  0  0  0  0  0  0
  190.6460  172.4920  142.1600 C   0  0  0  0  0  1  0  0  0  0  0  0
  189.5970  177.3490  146.8860 C   0  0  0  0  0  3  0  0  0  0  0  0
  189.6550  176.8740  145.5690 C   0  0  0  0  0  0  0  0  0  0  0  0
  190.7180  173.7940  141.3670 C   0  0  2  0  0  3  0  0  0  0  0  0
  187.3550  177.1790  140.8700 C   0  0  0  0  0  2  0  0  0  0  0  0
  185.2190  178.2910  141.5190 C   0  0  0  0  0  1  0  0  0  0  0  0
  185.9490  177.5400  140.4210 C   0  0  0  0  0  2  0  0  0  0  0  0
  1  5  1  1  0  0  0
  1 19  1  0  0  0  0
  2 13  1  0  0  0  0
  4 12  1  6  0  0  0
  4  1  1  0  0  0  0
  4 20  1  0  0  0  0
  6  8  2  0  0  0  0
  7 15  1  6  0  0  0
  7 27  1  0  0  0  0
  7  9  1  0  0  0  0
  8 11  1  0  0  0  0
  8 12  1  0  0  0  0
  9 14  1  1  0  0  0
  9 22  1  0  0  0  0
 10 21  1  1  0  0  0
 10  3  1  0  0  0  0
 11 28  1  1  0  0  0
 11  5  1  0  0  0  0
 13 18  2  0  0  0  0
 15 23  1  0  0  0  0
 16  2  1  0  0  0  0
 17 26  1  1  0  0  0
 17  3  1  0  0  0  0
 19  2  2  0  0  0  0
 19 26  1  0  0  0  0
 20 22  1  0  0  0  0
 20 17  1  0  0  0  0
 22 10  1  0  0  0  0
 23 14  1  0  0  0  0
 25 18  1  0  0  0  0
 26 25  2  0  0  0  0
 27 12  1  0  0  0  0
 27 24  1  0  0  0  0
 30 28  1  0  0  0  0
 30 29  1  0  0  0  0
M  END
>  <MODEL>
8

>  <REMARK>
 VINA RESULT:      -7.1      1.409      2.155
  Name = 
  2 active torsions:
  status: ('A' for Active; 'I' for Inactive)
    1  A    between atoms: C_11  and  C_28
    2  A    between atoms: C_28  and  C_30
                            x       y       z     vdW  Elec       q    Type
                         _______ _______ _______ _____ _____    ______ ____

>  <TORSDO>
F 2

$$$$
=
 OpenBabel11112416133D

 30 35  0  0  1  0  0  0  0  0999 V2000
  189.4160  175.1390  143.2270 C   0  0  1  0  0  3  0  0  0  0  0  0
  188.2000  177.3970  143.1490 C   0  0  0  0  0  0  0  0  0  0  0  0
  188.2940  174.5460  139.2350 N   0  0  0  0  0  2  0  0  0  0  0  0
  190.2320  174.3530  142.1940 C   0  0  1  0  0  3  0  0  0  0  0  0
  190.2920  175.7240  144.1650 O   0  0  0  0  0  0  0  0  0  0  0  0
  192.2650  172.8490  144.8580 O   0  0  0  0  0  0  0  0  0  0  0  0
  191.2260  171.3450  141.4550 C   0  0  1  0  0  3  0  0  0  0  0  0
  191.4520  173.6070  144.2630 C   0  0  0  0  0  0  0  0  0  0  0  0
  190.4420  171.6850  140.1780 C   0  0  2  0  0  3  0  0  0  0  0  0
  189.1410  173.4250  138.8630 C   0  0  1  0  0  3  0  0  0  0  0  0
  190.7770  174.7110  145.0260 C   0  0  2  0  0  3  0  0  0  0  0  0
  191.1560  173.4170  142.8680 N   0  0  0  0  0  0  0  0  0  0  0  0
  187.3430  178.2880  142.4990 C   0  0  0  0  0  3  0  0  0  0  0  0
  191.3040  171.1950  139.0350 C   0  0  0  0  0  2  0  0  0  0  0  0
  192.1780  170.2200  141.0780 C   0  0  0  0  0  2  0  0  0  0  0  0
  188.6970  177.7540  144.3970 O   0  0  0  0  0  1  0  0  0  0  0  0
  188.1350  174.4570  140.6830 C   0  0  1  0  0  3  0  0  0  0  0  0
  186.7800  177.9560  141.2680 C   0  0  0  0  0  3  0  0  0  0  0  0
  188.5340  176.1620  142.5440 C   0  0  0  0  0  0  0  0  0  0  0  0
  189.2880  173.6140  141.2450 C   0  0  1  0  0  3  0  0  0  0  0  0
  189.9470  173.7910  137.6320 C   0  0  0  0  0  1  0  0  0  0  0  0
  190.0630  173.1590  140.0350 C   0  0  1  0  0  3  0  0  0  0  0  0
  192.0180  169.9810  139.5870 C   0  0  0  0  0  2  0  0  0  0  0  0
  192.9570  173.2460  141.1700 C   0  0  0  0  0  1  0  0  0  0  0  0
  187.0670  176.7240  140.6840 C   0  0  0  0  0  3  0  0  0  0  0  0
  187.9420  175.8230  141.3050 C   0  0  0  0  0  0  0  0  0  0  0  0
  192.0140  172.4990  142.1090 C   0  0  2  0  0  3  0  0  0  0  0  0
  189.6910  174.1690  145.9600 C   0  0  0  0  0  2  0  0  0  0  0  0
  191.0430  175.4070  147.6530 C   0  0  0  0  0  1  0  0  0  0  0  0
  189.6490  174.9500  147.2630 C   0  0  0  0  0  2  0  0  0  0  0  0
  1 19  1  6  0  0  0
  1  5  1  0  0  0  0
  2 16  1  0  0  0  0
  4 12  1  1  0  0  0
  4  1  1  0  0  0  0
  5 11  1  0  0  0  0
  7 15  1  6  0  0  0
  7 27  1  0  0  0  0
  8  6  2  0  0  0  0
  8 11  1  0  0  0  0
  9 14  1  6  0  0  0
  9  7  1  0  0  0  0
 10 21  1  6  0  0  0
 10  3  1  0  0  0  0
 10 22  1  0  0  0  0
 11 28  1  6  0  0  0
 12  8  1  0  0  0  0
 13  2  2  0  0  0  0
 14 23  1  0  0  0  0
 17  3  1  6  0  0  0
 17 20  1  0  0  0  0
 17 26  1  0  0  0  0
 18 13  1  0  0  0  0
 19  2  1  0  0  0  0
 20  4  1  0  0  0  0
 22  9  1  0  0  0  0
 22 20  1  0  0  0  0
 23 15  1  0  0  0  0
 24 27  1  0  0  0  0
 25 18  2  0  0  0  0
 25 26  1  0  0  0  0
 26 19  2  0  0  0  0
 27 12  1  0  0  0  0
 28 30  1  0  0  0  0
 30 29  1  0  0  0  0
M  END
>  <MODEL>
9

>  <REMARK>
 VINA RESULT:      -6.9      2.992      5.987
  Name = 
  2 active torsions:
  status: ('A' for Active; 'I' for Inactive)
    1  A    between atoms: C_11  and  C_28
    2  A    between atoms: C_28  and  C_30
                            x       y       z     vdW  Elec       q    Type
                         _______ _______ _______ _____ _____    ______ ____

>  <TORSDO>
F 2

$$$$
