=
 OpenBabel11112417433D

 28 32  0  0  1  0  0  0  0  0999 V2000
  186.1770  178.3750  144.6180 C   0  0  0  0  0  0  0  0  0  0  0  0
  189.2720  178.1880  145.5000 F   0  0  0  0  0  0  0  0  0  0  0  0
  188.0200  173.2670  141.4860 C   0  0  0  0  0  1  0  0  0  0  0  0
  184.4130  177.6520  146.6810 C   0  0  0  0  0  3  0  0  0  0  0  0
  189.5660  174.5330  142.8830 N   0  0  0  0  0  0  0  0  0  0  0  0
  187.0580  178.8410  143.4960 C   0  0  0  0  0  2  0  0  0  0  0  0
  188.3170  177.8250  147.6280 C   0  0  0  0  0  1  0  0  0  0  0  0
  189.1750  177.2520  146.5170 C   0  0  1  0  0  0  0  0  0  0  0  0
  191.4820  176.4060  146.0470 C   0  0  1  0  0  3  0  0  0  0  0  0
  188.5520  175.9190  146.0050 C   0  0  2  0  0  3  0  0  0  0  0  0
  187.8180  177.7090  140.5130 O   0  0  0  0  0  0  0  0  0  0  0  0
  188.1040  176.1690  143.6470 C   0  0  1  0  0  3  0  0  0  0  0  0
  190.9540  175.0300  145.6770 C   0  0  0  0  0  2  0  0  0  0  0  0
  190.5690  177.0210  147.0940 C   0  0  0  0  0  2  0  0  0  0  0  0
  186.9450  177.5160  141.3990 C   0  0  0  0  0  0  0  0  0  0  0  0
  186.3460  177.1320  145.2940 C   0  0  0  0  0  0  0  0  0  0  0  0
  188.4750  174.6480  141.9200 C   0  0  2  0  0  3  0  0  0  0  0  0
  192.8210  176.2790  146.5870 N   0  0  0  0  0  1  0  0  0  0  0  0
  186.5650  176.1830  141.7510 N   0  0  0  0  0  2  0  0  0  0  0  0
  185.4480  176.7910  146.3150 C   0  0  0  0  0  3  0  0  0  0  0  0
  185.1350  179.2290  145.0010 C   0  0  0  0  0  3  0  0  0  0  0  0
  184.2580  178.8720  146.0250 C   0  0  0  0  0  3  0  0  0  0  0  0
  186.3680  178.6740  142.1440 C   0  0  0  0  0  2  0  0  0  0  0  0
  189.4550  175.6200  143.7790 N   0  0  1  0  0  0  0  0  0  0  0  0
  187.3600  175.3410  142.6420 C   0  0  2  0  0  3  0  0  0  0  0  0
  189.5210  175.0980  145.1450 C   0  0  2  0  0  3  0  0  0  0  0  0
  190.8050  174.7250  142.1440 C   0  0  0  0  0  1  0  0  0  0  0  0
  187.4260  176.1100  144.9980 C   0  0  2  0  0  3  0  0  0  0  0  0
  1 21  2  0  0  0  0
  1 16  1  0  0  0  0
  2  8  1  0  0  0  0
  3 17  1  0  0  0  0
  5 24  1  0  0  0  0
  6  1  1  0  0  0  0
  8 14  1  0  0  0  0
  8  7  1  1  0  0  0
  9 18  1  1  0  0  0
  9 14  1  0  0  0  0
 10  8  1  0  0  0  0
 11 15  2  0  0  0  0
 12 24  1  0  0  0  0
 12 28  1  0  0  0  0
 13  9  1  0  0  0  0
 15 19  1  0  0  0  0
 15 23  1  0  0  0  0
 16 20  2  0  0  0  0
 17 25  1  0  0  0  0
 17  5  1  0  0  0  0
 19 25  1  0  0  0  0
 20  4  1  0  0  0  0
 21 22  1  0  0  0  0
 22  4  2  0  0  0  0
 23  6  1  0  0  0  0
 24 26  1  0  0  0  0
 25 12  1  0  0  0  0
 26 13  1  0  0  0  0
 26 10  1  0  0  0  0
 27  5  1  0  0  0  0
 28 16  1  0  0  0  0
 28 10  1  0  0  0  0
M  END
>  <MODEL>
1

>  <REMARK>
 VINA RESULT:      -9.1      0.000      0.000
  Name = 
  0 active torsions:
  status: ('A' for Active; 'I' for Inactive)
                            x       y       z     vdW  Elec       q    Type
                         _______ _______ _______ _____ _____    ______ ____

>  <TORSDO>
F 0

$$$$
=
 OpenBabel11112417433D

 28 32  0  0  1  0  0  0  0  0999 V2000
  190.6220  174.7210  144.5500 C   0  0  0  0  0  0  0  0  0  0  0  0
  188.1330  175.7790  146.3030 F   0  0  0  0  0  0  0  0  0  0  0  0
  187.1670  177.5580  140.1550 C   0  0  0  0  0  1  0  0  0  0  0  0
  192.9760  176.1830  145.0120 C   0  0  0  0  0  3  0  0  0  0  0  0
  186.4440  177.4650  142.4820 N   0  0  0  0  0  0  0  0  0  0  0  0
  189.4220  173.8550  144.3070 C   0  0  0  0  0  2  0  0  0  0  0  0
  189.8120  177.0880  147.3220 C   0  0  0  0  0  1  0  0  0  0  0  0
  188.5280  177.0900  146.5160 C   0  0  1  0  0  0  0  0  0  0  0  0
  186.1510  177.8630  146.5980 C   0  0  1  0  0  3  0  0  0  0  0  0
  188.7550  177.8400  145.1690 C   0  0  2  0  0  3  0  0  0  0  0  0
  187.4240  173.3070  141.7650 O   0  0  0  0  0  0  0  0  0  0  0  0
  188.2510  176.3080  143.3750 C   0  0  1  0  0  3  0  0  0  0  0  0
  186.3420  178.7380  145.3720 C   0  0  0  0  0  2  0  0  0  0  0  0
  187.4640  177.7850  147.3600 C   0  0  0  0  0  2  0  0  0  0  0  0
  188.5520  173.8210  141.9820 C   0  0  0  0  0  0  0  0  0  0  0  0
  190.6080  176.1420  144.4440 C   0  0  0  0  0  0  0  0  0  0  0  0
  187.0670  176.7030  141.4050 C   0  0  2  0  0  3  0  0  0  0  0  0
  185.1320  178.4440  147.4510 N   0  0  0  0  0  1  0  0  0  0  0  0
  188.9010  175.0670  141.3730 N   0  0  0  0  0  2  0  0  0  0  0  0
  191.7980  176.8480  144.6720 C   0  0  0  0  0  3  0  0  0  0  0  0
  191.8140  174.0700  144.8960 C   0  0  0  0  0  3  0  0  0  0  0  0
  192.9830  174.7940  145.1260 C   0  0  0  0  0  3  0  0  0  0  0  0
  189.4950  173.1760  142.9430 C   0  0  0  0  0  2  0  0  0  0  0  0
  187.0150  177.0230  143.6970 N   0  0  1  0  0  0  0  0  0  0  0  0
  188.4430  176.3570  141.8880 C   0  0  2  0  0  3  0  0  0  0  0  0
  187.4440  178.1980  144.4570 C   0  0  2  0  0  3  0  0  0  0  0  0
  185.0410  177.0810  142.5150 C   0  0  0  0  0  1  0  0  0  0  0  0
  189.4000  176.9860  144.0860 C   0  0  2  0  0  3  0  0  0  0  0  0
  1 21  1  0  0  0  0
  2  8  1  0  0  0  0
  3 17  1  0  0  0  0
  4 22  1  0  0  0  0
  5 27  1  0  0  0  0
  5 24  1  0  0  0  0
  6  1  1  0  0  0  0
  8  7  1  1  0  0  0
  8 14  1  0  0  0  0
  9 14  1  0  0  0  0
  9 18  1  1  0  0  0
 10  8  1  0  0  0  0
 11 15  2  0  0  0  0
 12 24  1  0  0  0  0
 12 28  1  0  0  0  0
 13  9  1  0  0  0  0
 15 23  1  0  0  0  0
 16  1  2  0  0  0  0
 16 20  1  0  0  0  0
 17 25  1  0  0  0  0
 17  5  1  0  0  0  0
 19 25  1  0  0  0  0
 19 15  1  0  0  0  0
 20  4  2  0  0  0  0
 21 22  2  0  0  0  0
 23  6  1  0  0  0  0
 24 26  1  0  0  0  0
 25 12  1  0  0  0  0
 26 10  1  0  0  0  0
 26 13  1  0  0  0  0
 28 16  1  0  0  0  0
 28 10  1  0  0  0  0
M  END
>  <MODEL>
2

>  <REMARK>
 VINA RESULT:      -8.1      2.113      5.096
  Name = 
  0 active torsions:
  status: ('A' for Active; 'I' for Inactive)
                            x       y       z     vdW  Elec       q    Type
                         _______ _______ _______ _____ _____    ______ ____

>  <TORSDO>
F 0

$$$$
=
 OpenBabel11112417433D

 28 32  0  0  1  0  0  0  0  0999 V2000
  188.8380  175.8840  144.8340 C   0  0  0  0  0  0  0  0  0  0  0  0
  191.9510  176.4630  144.2310 F   0  0  0  0  0  0  0  0  0  0  0  0
  190.4890  170.6270  141.8430 C   0  0  0  0  0  1  0  0  0  0  0  0
  188.3400  175.3310  147.5420 C   0  0  0  0  0  3  0  0  0  0  0  0
  192.0840  172.4330  142.2230 N   0  0  0  0  0  0  0  0  0  0  0  0
  189.0210  176.2390  143.3880 C   0  0  0  0  0  2  0  0  0  0  0  0
  192.0920  176.4160  146.5870 C   0  0  0  0  0  1  0  0  0  0  0  0
  192.5320  175.7760  145.2850 C   0  0  1  0  0  0  0  0  0  0  0  0
  194.5710  175.2790  143.9250 C   0  0  1  0  0  3  0  0  0  0  0  0
  192.1250  174.2720  145.2760 C   0  0  2  0  0  3  0  0  0  0  0  0
  188.7500  174.6290  140.5440 O   0  0  0  0  0  0  0  0  0  0  0  0
  190.6960  173.9040  143.3660 C   0  0  1  0  0  3  0  0  0  0  0  0
  194.3180  173.7840  144.0020 C   0  0  0  0  0  2  0  0  0  0  0  0
  194.0460  175.9360  145.1910 C   0  0  0  0  0  2  0  0  0  0  0  0
  188.4040  174.4830  141.7450 C   0  0  0  0  0  0  0  0  0  0  0  0
  189.5900  174.8740  145.5030 C   0  0  0  0  0  0  0  0  0  0  0  0
  190.7050  172.1290  141.8550 C   0  0  2  0  0  3  0  0  0  0  0  0
  195.9960  175.5220  143.8100 N   0  0  0  0  0  1  0  0  0  0  0  0
  188.5670  173.2150  142.3880 N   0  0  0  0  0  2  0  0  0  0  0  0
  189.3160  174.6120  146.8530 C   0  0  0  0  0  3  0  0  0  0  0  0
  187.8630  176.5980  145.5430 C   0  0  0  0  0  3  0  0  0  0  0  0
  187.6150  176.3250  146.8880 C   0  0  0  0  0  3  0  0  0  0  0  0
  187.9060  175.6520  142.5270 C   0  0  0  0  0  2  0  0  0  0  0  0
  192.0720  173.6530  142.9350 N   0  0  1  0  0  0  0  0  0  0  0  0
  189.8490  172.7520  142.9150 C   0  0  2  0  0  3  0  0  0  0  0  0
  192.8300  173.4700  144.1740 C   0  0  2  0  0  3  0  0  0  0  0  0
  192.8090  172.6760  140.9860 C   0  0  0  0  0  1  0  0  0  0  0  0
  190.6770  174.0260  144.8740 C   0  0  2  0  0  3  0  0  0  0  0  0
  1 16  2  0  0  0  0
  1 21  1  0  0  0  0
  2  8  1  0  0  0  0
  3 17  1  0  0  0  0
  5 24  1  0  0  0  0
  6  1  1  0  0  0  0
  8  7  1  1  0  0  0
  9 18  1  1  0  0  0
  9 13  1  0  0  0  0
  9 14  1  0  0  0  0
 10  8  1  0  0  0  0
 11 15  2  0  0  0  0
 12 28  1  0  0  0  0
 13 26  1  0  0  0  0
 14  8  1  0  0  0  0
 15 19  1  0  0  0  0
 15 23  1  0  0  0  0
 16 20  1  0  0  0  0
 17  5  1  0  0  0  0
 17 25  1  0  0  0  0
 19 25  1  0  0  0  0
 20  4  2  0  0  0  0
 21 22  2  0  0  0  0
 22  4  1  0  0  0  0
 23  6  1  0  0  0  0
 24 12  1  0  0  0  0
 24 26  1  0  0  0  0
 25 12  1  0  0  0  0
 26 10  1  0  0  0  0
 27  5  1  0  0  0  0
 28 10  1  0  0  0  0
 28 16  1  0  0  0  0
M  END
>  <MODEL>
3

>  <REMARK>
 VINA RESULT:      -7.7      2.473      3.772
  Name = 
  0 active torsions:
  status: ('A' for Active; 'I' for Inactive)
                            x       y       z     vdW  Elec       q    Type
                         _______ _______ _______ _____ _____    ______ ____

>  <TORSDO>
F 0

$$$$
=
 OpenBabel11112417433D

 28 32  0  0  1  0  0  0  0  0999 V2000
  188.3640  176.2870  145.5570 C   0  0  0  0  0  0  0  0  0  0  0  0
  188.9410  173.6600  143.7820 F   0  0  0  0  0  0  0  0  0  0  0  0
  194.5430  176.7910  144.6300 C   0  0  0  0  0  1  0  0  0  0  0  0
  187.0120  178.2910  144.1260 C   0  0  0  0  0  3  0  0  0  0  0  0
  193.2680  174.9130  143.7380 N   0  0  0  0  0  0  0  0  0  0  0  0
  189.0220  175.2350  146.4000 C   0  0  0  0  0  2  0  0  0  0  0  0
  187.5550  174.7830  142.2370 C   0  0  0  0  0  1  0  0  0  0  0  0
  188.9350  174.2200  142.5150 C   0  0  1  0  0  0  0  0  0  0  0  0
  190.5740  172.5240  141.6840 C   0  0  1  0  0  3  0  0  0  0  0  0
  189.9990  175.3520  142.3880 C   0  0  2  0  0  3  0  0  0  0  0  0
  191.9410  174.9160  147.8600 O   0  0  0  0  0  0  0  0  0  0  0  0
  191.1580  175.5170  144.4980 C   0  0  1  0  0  3  0  0  0  0  0  0
  191.6110  173.5960  141.3930 C   0  0  0  0  0  2  0  0  0  0  0  0
  189.1860  173.1130  141.4950 C   0  0  0  0  0  2  0  0  0  0  0  0
  191.2400  175.8260  147.3470 C   0  0  0  0  0  0  0  0  0  0  0  0
  188.8740  176.7330  144.3040 C   0  0  0  0  0  0  0  0  0  0  0  0
  193.4390  175.7840  144.8960 C   0  0  2  0  0  3  0  0  0  0  0  0
  190.7570  171.4150  140.7670 N   0  0  0  0  0  1  0  0  0  0  0  0
  191.8410  176.7840  146.4710 N   0  0  0  0  0  2  0  0  0  0  0  0
  188.1850  177.7390  143.6130 C   0  0  0  0  0  3  0  0  0  0  0  0
  187.1810  176.8500  146.0560 C   0  0  0  0  0  3  0  0  0  0  0  0
  186.5090  177.8450  145.3470 C   0  0  0  0  0  3  0  0  0  0  0  0
  189.7660  175.8560  147.5800 C   0  0  0  0  0  2  0  0  0  0  0  0
  191.9000  174.5680  143.6670 N   0  0  1  0  0  0  0  0  0  0  0  0
  192.1350  176.5020  145.0670 C   0  0  2  0  0  3  0  0  0  0  0  0
  191.4340  174.8150  142.3010 C   0  0  2  0  0  3  0  0  0  0  0  0
  193.9960  173.6860  144.0200 C   0  0  0  0  0  1  0  0  0  0  0  0
  190.1330  176.2170  143.6340 C   0  0  2  0  0  3  0  0  0  0  0  0
  1 21  1  0  0  0  0
  1  6  1  0  0  0  0
  3 17  1  0  0  0  0
  4 22  1  0  0  0  0
  5 27  1  0  0  0  0
  5 17  1  0  0  0  0
  6 23  1  0  0  0  0
  8  7  1  6  0  0  0
  8  2  1  0  0  0  0
  9 18  1  6  0  0  0
 10  8  1  0  0  0  0
 10 28  1  0  0  0  0
 12 25  1  0  0  0  0
 13  9  1  0  0  0  0
 13 26  1  0  0  0  0
 14  9  1  0  0  0  0
 14  8  1  0  0  0  0
 15 23  1  0  0  0  0
 15 11  2  0  0  0  0
 16  1  2  0  0  0  0
 17 25  1  0  0  0  0
 19 15  1  0  0  0  0
 20  4  2  0  0  0  0
 20 16  1  0  0  0  0
 22 21  2  0  0  0  0
 24  5  1  0  0  0  0
 24 12  1  0  0  0  0
 25 19  1  0  0  0  0
 26 10  1  0  0  0  0
 26 24  1  0  0  0  0
 28 16  1  0  0  0  0
 28 12  1  0  0  0  0
M  END
>  <MODEL>
4

>  <REMARK>
 VINA RESULT:      -7.7      2.703      5.317
  Name = 
  0 active torsions:
  status: ('A' for Active; 'I' for Inactive)
                            x       y       z     vdW  Elec       q    Type
                         _______ _______ _______ _____ _____    ______ ____

>  <TORSDO>
F 0

$$$$
=
 OpenBabel11112417433D

 28 32  0  0  1  0  0  0  0  0999 V2000
  188.3700  176.5200  144.5090 C   0  0  0  0  0  0  0  0  0  0  0  0
  188.9250  173.5060  143.5090 F   0  0  0  0  0  0  0  0  0  0  0  0
  194.5490  176.0510  145.4570 C   0  0  0  0  0  1  0  0  0  0  0  0
  187.8560  178.2910  142.3890 C   0  0  0  0  0  3  0  0  0  0  0  0
  193.2490  174.1860  144.5740 N   0  0  0  0  0  0  0  0  0  0  0  0
  188.5660  175.6180  145.6910 C   0  0  0  0  0  2  0  0  0  0  0  0
  188.2490  174.4050  141.4340 C   0  0  0  0  0  1  0  0  0  0  0  0
  189.3720  173.7580  142.2220 C   0  0  1  0  0  0  0  0  0  0  0  0
  190.8370  171.7320  142.2620 C   0  0  1  0  0  3  0  0  0  0  0  0
  190.6180  174.6940  142.2250 C   0  0  2  0  0  3  0  0  0  0  0  0
  190.8590  175.2910  148.0130 O   0  0  0  0  0  0  0  0  0  0  0  0
  191.1580  175.1970  144.5230 C   0  0  1  0  0  3  0  0  0  0  0  0
  192.0910  172.5760  142.1150 C   0  0  0  0  0  2  0  0  0  0  0  0
  189.6870  172.4260  141.5500 C   0  0  0  0  0  2  0  0  0  0  0  0
  190.5060  176.1380  147.1510 C   0  0  0  0  0  0  0  0  0  0  0  0
  189.2800  176.6020  143.4140 C   0  0  0  0  0  0  0  0  0  0  0  0
  193.2500  175.2720  145.5490 C   0  0  2  0  0  3  0  0  0  0  0  0
  191.0600  170.4290  141.6650 N   0  0  0  0  0  1  0  0  0  0  0  0
  191.4900  176.7910  146.3440 N   0  0  0  0  0  2  0  0  0  0  0  0
  189.0050  177.4990  142.3730 C   0  0  0  0  0  3  0  0  0  0  0  0
  187.2200  177.3200  144.5060 C   0  0  0  0  0  3  0  0  0  0  0  0
  186.9630  178.1990  143.4550 C   0  0  0  0  0  3  0  0  0  0  0  0
  189.0570  176.3970  146.9080 C   0  0  0  0  0  2  0  0  0  0  0  0
  191.9150  174.0010  144.1490 N   0  0  1  0  0  0  0  0  0  0  0  0
  192.1040  176.1610  145.1760 C   0  0  2  0  0  3  0  0  0  0  0  0
  191.8970  173.9830  142.6850 C   0  0  2  0  0  3  0  0  0  0  0  0
  193.6340  172.9770  145.2870 C   0  0  0  0  0  1  0  0  0  0  0  0
  190.5580  175.7990  143.2720 C   0  0  2  0  0  3  0  0  0  0  0  0
  1  6  1  0  0  0  0
  3 17  1  0  0  0  0
  4 22  1  0  0  0  0
  5 27  1  0  0  0  0
  5 17  1  0  0  0  0
  6 23  1  0  0  0  0
  8  7  1  6  0  0  0
  8 10  1  0  0  0  0
  8  2  1  0  0  0  0
  9 18  1  6  0  0  0
 10 26  1  0  0  0  0
 10 28  1  0  0  0  0
 12 25  1  0  0  0  0
 13  9  1  0  0  0  0
 13 26  1  0  0  0  0
 14  8  1  0  0  0  0
 14  9  1  0  0  0  0
 15 11  2  0  0  0  0
 16  1  2  0  0  0  0
 19 15  1  0  0  0  0
 20  4  2  0  0  0  0
 20 16  1  0  0  0  0
 21  1  1  0  0  0  0
 22 21  2  0  0  0  0
 23 15  1  0  0  0  0
 24 12  1  0  0  0  0
 24  5  1  0  0  0  0
 25 17  1  0  0  0  0
 25 19  1  0  0  0  0
 26 24  1  0  0  0  0
 28 16  1  0  0  0  0
 28 12  1  0  0  0  0
M  END
>  <MODEL>
5

>  <REMARK>
 VINA RESULT:      -7.6      2.798      5.454
  Name = 
  0 active torsions:
  status: ('A' for Active; 'I' for Inactive)
                            x       y       z     vdW  Elec       q    Type
                         _______ _______ _______ _____ _____    ______ ____

>  <TORSDO>
F 0

$$$$
=
 OpenBabel11112417433D

 28 32  0  0  1  0  0  0  0  0999 V2000
  192.1570  174.5920  145.0890 C   0  0  0  0  0  0  0  0  0  0  0  0
  189.0190  175.2840  144.8380 F   0  0  0  0  0  0  0  0  0  0  0  0
  191.1560  173.4690  139.0040 C   0  0  0  0  0  1  0  0  0  0  0  0
  193.7540  176.8830  145.3930 C   0  0  0  0  0  3  0  0  0  0  0  0
  189.3550  174.1970  140.4790 N   0  0  0  0  0  0  0  0  0  0  0  0
  191.3590  173.3240  145.0020 C   0  0  0  0  0  2  0  0  0  0  0  0
  189.7730  177.4510  145.3930 C   0  0  0  0  0  1  0  0  0  0  0  0
  189.0970  176.5800  144.3530 C   0  0  1  0  0  0  0  0  0  0  0  0
  186.9450  176.3130  143.1050 C   0  0  1  0  0  3  0  0  0  0  0  0
  189.8960  176.6400  143.0170 C   0  0  2  0  0  3  0  0  0  0  0  0
  191.0310  170.9330  142.7820 O   0  0  0  0  0  0  0  0  0  0  0  0
  190.5640  174.3900  142.4540 C   0  0  1  0  0  3  0  0  0  0  0  0
  187.6390  176.5140  141.7690 C   0  0  0  0  0  2  0  0  0  0  0  0
  187.6790  177.1130  144.1690 C   0  0  0  0  0  2  0  0  0  0  0  0
  191.8200  171.8800  143.0350 C   0  0  0  0  0  0  0  0  0  0  0  0
  192.0380  175.6690  144.1640 C   0  0  0  0  0  0  0  0  0  0  0  0
  190.5260  173.3310  140.3780 C   0  0  2  0  0  3  0  0  0  0  0  0
  185.5740  176.7760  143.0120 N   0  0  0  0  0  1  0  0  0  0  0  0
  192.2870  172.7250  141.9800 N   0  0  0  0  0  2  0  0  0  0  0  0
  192.8520  176.7980  144.3330 C   0  0  0  0  0  3  0  0  0  0  0  0
  193.0660  174.6970  146.1510 C   0  0  0  0  0  3  0  0  0  0  0  0
  193.8590  175.8330  146.3030 C   0  0  0  0  0  3  0  0  0  0  0  0
  192.2000  172.1780  144.4470 C   0  0  0  0  0  2  0  0  0  0  0  0
  189.2660  174.6300  141.8210 N   0  0  1  0  0  0  0  0  0  0  0  0
  191.4870  173.8130  141.4210 C   0  0  2  0  0  3  0  0  0  0  0  0
  189.1070  176.0860  141.8240 C   0  0  2  0  0  3  0  0  0  0  0  0
  188.1890  173.3630  140.2300 C   0  0  0  0  0  1  0  0  0  0  0  0
  191.0990  175.7060  142.9740 C   0  0  2  0  0  3  0  0  0  0  0  0
  1 21  1  0  0  0  0
  3 17  1  0  0  0  0
  4 22  1  0  0  0  0
  5 24  1  0  0  0  0
  6  1  1  0  0  0  0
  8  2  1  0  0  0  0
  8  7  1  1  0  0  0
  9 18  1  6  0  0  0
  9 14  1  0  0  0  0
 10  8  1  0  0  0  0
 11 15  2  0  0  0  0
 12 28  1  0  0  0  0
 13 26  1  0  0  0  0
 13  9  1  0  0  0  0
 14  8  1  0  0  0  0
 15 23  1  0  0  0  0
 16 20  1  0  0  0  0
 16  1  2  0  0  0  0
 17  5  1  0  0  0  0
 17 25  1  0  0  0  0
 19 15  1  0  0  0  0
 20  4  2  0  0  0  0
 21 22  2  0  0  0  0
 23  6  1  0  0  0  0
 24 26  1  0  0  0  0
 24 12  1  0  0  0  0
 25 19  1  0  0  0  0
 25 12  1  0  0  0  0
 26 10  1  0  0  0  0
 27  5  1  0  0  0  0
 28 10  1  0  0  0  0
 28 16  1  0  0  0  0
M  END
>  <MODEL>
6

>  <REMARK>
 VINA RESULT:      -7.4      2.825      5.974
  Name = 
  0 active torsions:
  status: ('A' for Active; 'I' for Inactive)
                            x       y       z     vdW  Elec       q    Type
                         _______ _______ _______ _____ _____    ______ ____

>  <TORSDO>
F 0

$$$$
=
 OpenBabel11112417433D

 28 32  0  0  1  0  0  0  0  0999 V2000
  186.0260  177.6170  144.9930 C   0  0  0  0  0  0  0  0  0  0  0  0
  186.6980  175.3900  142.7620 F   0  0  0  0  0  0  0  0  0  0  0  0
  192.1650  176.7720  145.9410 C   0  0  0  0  0  1  0  0  0  0  0  0
  185.5660  180.1580  143.8880 C   0  0  0  0  0  3  0  0  0  0  0  0
  190.9520  175.5130  144.2410 N   0  0  0  0  0  0  0  0  0  0  0  0
  186.1900  176.2760  145.6440 C   0  0  0  0  0  2  0  0  0  0  0  0
  186.0960  177.1350  141.2910 C   0  0  0  0  0  1  0  0  0  0  0  0
  187.1970  176.2010  141.7560 C   0  0  1  0  0  0  0  0  0  0  0  0
  188.7080  174.3800  140.9450 C   0  0  1  0  0  3  0  0  0  0  0  0
  188.4180  177.0340  142.2480 C   0  0  2  0  0  3  0  0  0  0  0  0
  188.3820  174.9290  147.6780 O   0  0  0  0  0  0  0  0  0  0  0  0
  188.8420  176.4350  144.5470 C   0  0  1  0  0  3  0  0  0  0  0  0
  189.9460  175.1990  141.2630 C   0  0  0  0  0  2  0  0  0  0  0  0
  187.5750  175.3210  140.5680 C   0  0  0  0  0  2  0  0  0  0  0  0
  188.0480  176.0750  147.2780 C   0  0  0  0  0  0  0  0  0  0  0  0
  186.9820  178.1890  144.1040 C   0  0  0  0  0  0  0  0  0  0  0  0
  190.8820  176.0360  145.6020 C   0  0  2  0  0  3  0  0  0  0  0  0
  188.9890  173.4920  139.8330 N   0  0  0  0  0  1  0  0  0  0  0  0
  189.0520  177.0250  146.9080 N   0  0  0  0  0  2  0  0  0  0  0  0
  186.7330  179.4620  143.5720 C   0  0  0  0  0  3  0  0  0  0  0  0
  184.8580  178.3300  145.2960 C   0  0  0  0  0  3  0  0  0  0  0  0
  184.6280  179.5910  144.7480 C   0  0  0  0  0  3  0  0  0  0  0  0
  186.6050  176.4160  147.1060 C   0  0  0  0  0  2  0  0  0  0  0  0
  189.6430  175.5410  143.7100 N   0  0  1  0  0  0  0  0  0  0  0  0
  189.7330  176.9970  145.6150 C   0  0  2  0  0  3  0  0  0  0  0  0
  189.6920  176.1920  142.4000 C   0  0  2  0  0  3  0  0  0  0  0  0
  191.3330  174.1130  144.3440 C   0  0  0  0  0  1  0  0  0  0  0  0
  188.2840  177.5400  143.6780 C   0  0  2  0  0  3  0  0  0  0  0  0
  1 21  1  0  0  0  0
  1  6  1  0  0  0  0
  4 22  1  0  0  0  0
  5 27  1  0  0  0  0
  5 17  1  0  0  0  0
  6 23  1  0  0  0  0
  8  7  1  6  0  0  0
  8 10  1  0  0  0  0
  8  2  1  0  0  0  0
  9 18  1  6  0  0  0
  9 13  1  0  0  0  0
 10 26  1  0  0  0  0
 10 28  1  0  0  0  0
 12 25  1  0  0  0  0
 13 26  1  0  0  0  0
 14  9  1  0  0  0  0
 14  8  1  0  0  0  0
 15 11  2  0  0  0  0
 16  1  2  0  0  0  0
 17 25  1  0  0  0  0
 17  3  1  0  0  0  0
 19 15  1  0  0  0  0
 20  4  2  0  0  0  0
 20 16  1  0  0  0  0
 22 21  2  0  0  0  0
 23 15  1  0  0  0  0
 24  5  1  0  0  0  0
 24 12  1  0  0  0  0
 25 19  1  0  0  0  0
 26 24  1  0  0  0  0
 28 16  1  0  0  0  0
 28 12  1  0  0  0  0
M  END
>  <MODEL>
7

>  <REMARK>
 VINA RESULT:      -7.2      2.240      4.688
  Name = 
  0 active torsions:
  status: ('A' for Active; 'I' for Inactive)
                            x       y       z     vdW  Elec       q    Type
                         _______ _______ _______ _____ _____    ______ ____

>  <TORSDO>
F 0

$$$$
=
 OpenBabel11112417433D

 28 32  0  0  1  0  0  0  0  0999 V2000
  190.6530  175.1140  143.8110 C   0  0  0  0  0  0  0  0  0  0  0  0
  188.8290  177.0440  141.9840 F   0  0  0  0  0  0  0  0  0  0  0  0
  186.0220  176.5250  147.7930 C   0  0  0  0  0  1  0  0  0  0  0  0
  190.4780  172.4150  143.0520 C   0  0  0  0  0  3  0  0  0  0  0  0
  186.0830  177.4390  145.5330 N   0  0  0  0  0  0  0  0  0  0  0  0
  190.8480  176.5430  144.2240 C   0  0  0  0  0  2  0  0  0  0  0  0
  188.5580  175.0690  140.7200 C   0  0  0  0  0  1  0  0  0  0  0  0
  187.8750  176.1360  141.5530 C   0  0  1  0  0  0  0  0  0  0  0  0
  186.1350  177.9270  141.4170 C   0  0  1  0  0  3  0  0  0  0  0  0
  187.1380  175.4720  142.7550 C   0  0  2  0  0  3  0  0  0  0  0  0
  190.1050  178.3190  146.8790 O   0  0  0  0  0  0  0  0  0  0  0  0
  188.0320  176.4200  144.7860 C   0  0  1  0  0  3  0  0  0  0  0  0
  185.2870  177.2520  142.4820 C   0  0  0  0  0  2  0  0  0  0  0  0
  186.8930  176.8630  140.6400 C   0  0  0  0  0  2  0  0  0  0  0  0
  190.1850  177.1070  146.5490 C   0  0  0  0  0  0  0  0  0  0  0  0
  189.3770  174.4920  143.6880 C   0  0  0  0  0  0  0  0  0  0  0  0
  186.8960  177.1110  146.7000 C   0  0  2  0  0  3  0  0  0  0  0  0
  185.2750  178.6660  140.5130 N   0  0  0  0  0  1  0  0  0  0  0  0
  189.1600  176.1890  146.9400 N   0  0  0  0  0  2  0  0  0  0  0  0
  189.3160  173.1410  143.3150 C   0  0  0  0  0  3  0  0  0  0  0  0
  191.8080  174.3690  143.5390 C   0  0  0  0  0  3  0  0  0  0  0  0
  191.7230  173.0300  143.1620 C   0  0  0  0  0  3  0  0  0  0  0  0
  191.3040  176.6420  145.6770 C   0  0  0  0  0  2  0  0  0  0  0  0
  186.8880  177.2410  144.3890 N   0  0  1  0  0  0  0  0  0  0  0  0
  187.8820  176.0820  146.2390 C   0  0  2  0  0  3  0  0  0  0  0  0
  186.1400  176.4160  143.4380 C   0  0  2  0  0  3  0  0  0  0  0  0
  185.7960  178.8630  145.6040 C   0  0  0  0  0  1  0  0  0  0  0  0
  188.0420  175.1650  143.9410 C   0  0  2  0  0  3  0  0  0  0  0  0
  1  6  1  0  0  0  0
  4 22  2  0  0  0  0
  4 20  1  0  0  0  0
  5 27  1  0  0  0  0
  5 17  1  0  0  0  0
  6 23  1  0  0  0  0
  8  7  1  6  0  0  0
  8  2  1  0  0  0  0
  8 10  1  0  0  0  0
  9 18  1  6  0  0  0
  9 13  1  0  0  0  0
 10 26  1  0  0  0  0
 10 28  1  0  0  0  0
 12 25  1  0  0  0  0
 13 26  1  0  0  0  0
 14  9  1  0  0  0  0
 14  8  1  0  0  0  0
 15 11  2  0  0  0  0
 15 19  1  0  0  0  0
 16  1  1  0  0  0  0
 16 28  1  0  0  0  0
 17  3  1  0  0  0  0
 20 16  2  0  0  0  0
 21  1  2  0  0  0  0
 22 21  1  0  0  0  0
 23 15  1  0  0  0  0
 24 12  1  0  0  0  0
 24  5  1  0  0  0  0
 25 17  1  0  0  0  0
 25 19  1  0  0  0  0
 26 24  1  0  0  0  0
 28 12  1  0  0  0  0
M  END
>  <MODEL>
8

>  <REMARK>
 VINA RESULT:      -7.0      2.338      6.227
  Name = 
  0 active torsions:
  status: ('A' for Active; 'I' for Inactive)
                            x       y       z     vdW  Elec       q    Type
                         _______ _______ _______ _____ _____    ______ ____

>  <TORSDO>
F 0

$$$$
=
 OpenBabel11112417433D

 28 32  0  0  1  0  0  0  0  0999 V2000
  190.9710  175.9080  145.2350 C   0  0  0  0  0  0  0  0  0  0  0  0
  193.7380  176.4160  143.6620 F   0  0  0  0  0  0  0  0  0  0  0  0
  192.6920  170.0320  143.8880 C   0  0  0  0  0  1  0  0  0  0  0  0
  191.1910  176.3630  147.9980 C   0  0  0  0  0  3  0  0  0  0  0  0
  194.0330  171.9450  143.1890 N   0  0  0  0  0  0  0  0  0  0  0  0
  190.7640  175.7160  143.7610 C   0  0  0  0  0  2  0  0  0  0  0  0
  194.4150  177.2500  145.7640 C   0  0  0  0  0  1  0  0  0  0  0  0
  194.6420  176.2030  144.6910 C   0  0  1  0  0  0  0  0  0  0  0  0
  196.3710  175.3670  143.0890 C   0  0  1  0  0  3  0  0  0  0  0  0
  194.4810  174.7790  145.3030 C   0  0  2  0  0  3  0  0  0  0  0  0
  190.1070  173.1560  141.8190 O   0  0  0  0  0  0  0  0  0  0  0  0
  192.7300  173.6460  144.0900 C   0  0  1  0  0  3  0  0  0  0  0  0
  196.3760  173.9920  143.7350 C   0  0  0  0  0  2  0  0  0  0  0  0
  196.0520  176.4110  144.1470 C   0  0  0  0  0  2  0  0  0  0  0  0
  190.0690  173.4420  143.0440 C   0  0  0  0  0  0  0  0  0  0  0  0
  192.0010  175.2650  145.9810 C   0  0  0  0  0  0  0  0  0  0  0  0
  192.6690  171.4430  143.3290 C   0  0  2  0  0  3  0  0  0  0  0  0
  197.6780  175.6370  142.5210 N   0  0  0  0  0  1  0  0  0  0  0  0
  190.5670  172.5140  144.0120 N   0  0  0  0  0  2  0  0  0  0  0  0
  192.0850  175.5030  147.3600 C   0  0  0  0  0  3  0  0  0  0  0  0
  190.0840  176.7710  145.8920 C   0  0  0  0  0  3  0  0  0  0  0  0
  190.1930  176.9990  147.2630 C   0  0  0  0  0  3  0  0  0  0  0  0
  189.5870  174.7850  143.4830 C   0  0  0  0  0  2  0  0  0  0  0  0
  193.9940  173.3390  143.4190 N   0  0  1  0  0  0  0  0  0  0  0  0
  191.9910  172.3580  144.3020 C   0  0  2  0  0  3  0  0  0  0  0  0
  195.0330  173.6730  144.3950 C   0  0  2  0  0  3  0  0  0  0  0  0
  194.4120  171.7600  141.7970 C   0  0  0  0  0  1  0  0  0  0  0  0
  193.0350  174.3130  145.4120 C   0  0  2  0  0  3  0  0  0  0  0  0
  1 21  2  0  0  0  0
  1 16  1  0  0  0  0
  2  8  1  0  0  0  0
  5 17  1  0  0  0  0
  5 24  1  0  0  0  0
  6  1  1  0  0  0  0
  8 10  1  0  0  0  0
  8  7  1  1  0  0  0
  9 18  1  1  0  0  0
  9 13  1  0  0  0  0
  9 14  1  0  0  0  0
 10 28  1  0  0  0  0
 11 15  2  0  0  0  0
 12 25  1  0  0  0  0
 12 28  1  0  0  0  0
 13 26  1  0  0  0  0
 14  8  1  0  0  0  0
 15 23  1  0  0  0  0
 15 19  1  0  0  0  0
 16 20  2  0  0  0  0
 17  3  1  0  0  0  0
 17 25  1  0  0  0  0
 19 25  1  0  0  0  0
 20  4  1  0  0  0  0
 21 22  1  0  0  0  0
 22  4  2  0  0  0  0
 23  6  1  0  0  0  0
 24 12  1  0  0  0  0
 24 26  1  0  0  0  0
 26 10  1  0  0  0  0
 27  5  1  0  0  0  0
 28 16  1  0  0  0  0
M  END
>  <MODEL>
9

>  <REMARK>
 VINA RESULT:      -7.0      3.775      5.773
  Name = 
  0 active torsions:
  status: ('A' for Active; 'I' for Inactive)
                            x       y       z     vdW  Elec       q    Type
                         _______ _______ _______ _____ _____    ______ ____

>  <TORSDO>
F 0

$$$$
