=
 OpenBabel11112417083D

 37 43  0  0  1  0  0  0  0  0999 V2000
  189.1900  174.0600  140.8950 C   0  0  0  0  0  2  0  0  0  0  0  0
  186.8000  177.4670  143.0680 C   0  0  0  0  0  0  0  0  0  0  0  0
  190.3060  176.1520  145.0110 C   0  0  0  0  0  0  0  0  0  0  0  0
  189.2670  172.6820  140.2680 C   0  0  2  0  0  3  0  0  0  0  0  0
  193.1320  174.7370  143.1100 O   0  0  0  0  0  0  0  0  0  0  0  0
  188.1640  177.2610  145.1430 C   0  0  0  0  0  0  0  0  0  0  0  0
  190.9480  175.4500  144.0880 C   0  0  0  0  0  0  0  0  0  0  0  0
  191.7640  172.6980  140.2700 C   0  0  0  0  0  0  0  0  0  0  0  0
  189.0920  176.6280  144.4590 C   0  0  0  0  0  0  0  0  0  0  0  0
  192.3260  174.9050  144.2510 C   0  0  0  0  0  0  0  0  0  0  0  0
  188.4300  177.5630  146.5680 C   0  0  0  0  0  3  0  0  0  0  0  0
  190.5280  172.5180  139.6330 O   0  0  0  0  0  0  0  0  0  0  0  0
  188.9460  176.2460  143.1220 N   0  0  0  0  0  0  0  0  0  0  0  0
  187.2220  178.7680  142.4110 C   0  0  0  0  0  1  0  0  0  0  0  0
  191.1610  175.3510  147.1170 N   0  0  0  0  0  0  0  0  0  0  0  0
  189.6080  177.2230  147.1400 C   0  0  0  0  0  3  0  0  0  0  0  0
  187.6380  176.3090  142.4710 C   0  0  0  0  0  2  0  0  0  0  0  0
  191.9090  173.2220  141.6760 C   0  0  1  0  0  3  0  0  0  0  0  0
  192.6310  174.5660  141.7880 C   0  0  0  0  0  2  0  0  0  0  0  0
  190.7440  176.5340  146.3860 C   0  0  2  0  0  3  0  0  0  0  0  0
  190.1370  175.4540  142.7880 C   0  0  2  0  0  3  0  0  0  0  0  0
  186.9610  177.5850  144.4980 O   0  0  0  0  0  0  0  0  0  0  0  0
  192.8450  174.5460  145.4580 C   0  0  0  0  0  0  0  0  0  0  0  0
  185.3390  177.2250  142.7540 C   0  0  0  0  0  1  0  0  0  0  0  0
  190.7770  173.0580  142.5190 O   0  0  0  0  0  0  0  0  0  0  0  0
  192.8110  172.4280  139.6280 O   0  0  0  0  0  0  0  0  0  0  0  0
  189.7660  174.0400  142.3120 C   0  0  2  0  0  3  0  0  0  0  0  0
  192.0810  174.5150  146.7370 C   0  0  0  0  0  3  0  0  0  0  0  0
  195.3120  174.7790  145.7650 C   0  0  0  0  0  3  0  0  0  0  0  0
  194.2020  173.9500  145.5460 C   0  0  0  0  0  0  0  0  0  0  0  0
  194.3950  172.5600  145.4710 C   0  0  0  0  0  3  0  0  0  0  0  0
  195.8580  170.6070  145.5020 N   0  0  0  0  0  1  0  0  0  0  0  0
  196.7750  172.8510  145.7920 C   0  0  0  0  0  3  0  0  0  0  0  0
  195.6750  172.0150  145.5880 C   0  0  0  0  0  0  0  0  0  0  0  0
  196.5930  174.2330  145.8830 C   0  0  0  0  0  3  0  0  0  0  0  0
  188.1470  173.6300  138.3850 O   0  0  0  0  0  1  0  0  0  0  0  0
  188.1680  172.5220  139.2330 C   0  0  0  0  0  2  0  0  0  0  0  0
  2 22  1  0  0  0  0
  3 20  1  0  0  0  0
  4 37  1  6  0  0  0
  4  1  1  0  0  0  0
  5 10  1  0  0  0  0
  6 11  1  0  0  0  0
  7 10  1  0  0  0  0
  7  3  2  0  0  0  0
  8 18  1  0  0  0  0
  9  3  1  0  0  0  0
  9  6  2  0  0  0  0
 10 23  2  0  0  0  0
 11 16  2  0  0  0  0
 12  4  1  0  0  0  0
 12  8  1  0  0  0  0
 13  9  1  0  0  0  0
 14  2  1  0  0  0  0
 17  2  1  0  0  0  0
 17 13  1  0  0  0  0
 18 19  1  6  0  0  0
 18 25  1  0  0  0  0
 19  5  1  0  0  0  0
 20 15  1  0  0  0  0
 20 16  1  1  0  0  0
 21 13  1  0  0  0  0
 21  7  1  1  0  0  0
 22  6  1  0  0  0  0
 23 30  1  0  0  0  0
 23 28  1  0  0  0  0
 24  2  1  0  0  0  0
 26  8  2  0  0  0  0
 27  1  1  6  0  0  0
 27 25  1  0  0  0  0
 27 21  1  0  0  0  0
 28 15  2  0  0  0  0
 29 35  1  0  0  0  0
 30 29  2  0  0  0  0
 31 30  1  0  0  0  0
 31 34  2  0  0  0  0
 32 34  1  0  0  0  0
 33 35  2  0  0  0  0
 34 33  1  0  0  0  0
 36 37  1  0  0  0  0
M  END
>  <MODEL>
1

>  <REMARK>
 VINA RESULT:      -8.6      0.000      0.000
  Name = 
  2 active torsions:
  status: ('A' for Active; 'I' for Inactive)
    1  A    between atoms: C_4  and  C_37
    2  A    between atoms: C_23  and  C_30
                            x       y       z     vdW  Elec       q    Type
                         _______ _______ _______ _____ _____    ______ ____

>  <TORSDO>
F 2

$$$$
=
 OpenBabel11112417083D

 37 43  0  0  1  0  0  0  0  0999 V2000
  190.4880  176.2800  146.4120 C   0  0  0  0  0  2  0  0  0  0  0  0
  186.4030  178.3940  147.3520 C   0  0  0  0  0  0  0  0  0  0  0  0
  186.7950  176.7930  143.4680 C   0  0  0  0  0  0  0  0  0  0  0  0
  192.0030  176.2850  146.3410 C   0  0  2  0  0  3  0  0  0  0  0  0
  188.9930  173.9080  142.8000 O   0  0  0  0  0  0  0  0  0  0  0  0
  185.6880  178.3320  144.9650 C   0  0  0  0  0  0  0  0  0  0  0  0
  187.8560  176.0020  143.5460 C   0  0  0  0  0  0  0  0  0  0  0  0
  192.0550  174.2110  144.9520 C   0  0  0  0  0  0  0  0  0  0  0  0
  186.5870  177.4010  144.7310 C   0  0  2  0  0  3  0  0  0  0  0  0
  188.3060  175.0870  142.4590 C   0  0  0  0  0  0  0  0  0  0  0  0
  184.7830  178.7250  143.8610 C   0  0  0  0  0  3  0  0  0  0  0  0
  192.4700  174.9740  146.0520 O   0  0  0  0  0  0  0  0  0  0  0  0
  187.5260  176.9730  145.6730 N   0  0  2  0  0  0  0  0  0  0  0  0
  185.5500  177.3690  148.0760 C   0  0  0  0  0  1  0  0  0  0  0  0
  186.5840  177.3300  141.1290 N   0  0  0  0  0  0  0  0  0  0  0  0
  184.8610  178.1200  142.6540 C   0  0  0  0  0  3  0  0  0  0  0  0
  187.7290  177.7230  146.9120 C   0  0  0  0  0  2  0  0  0  0  0  0
  190.9580  174.6350  144.0080 C   0  0  1  0  0  3  0  0  0  0  0  0
  189.7280  173.7240  144.0060 C   0  0  0  0  0  2  0  0  0  0  0  0
  185.8470  176.9980  142.3340 C   0  0  0  0  0  0  0  0  0  0  0  0
  188.4170  176.0390  144.9720 C   0  0  2  0  0  3  0  0  0  0  0  0
  185.6570  178.9270  146.2360 O   0  0  0  0  0  0  0  0  0  0  0  0
  188.0970  175.3440  141.1380 C   0  0  0  0  0  0  0  0  0  0  0  0
  186.7210  179.5180  148.3150 C   0  0  0  0  0  1  0  0  0  0  0  0
  190.6920  176.0290  143.9520 O   0  0  0  0  0  0  0  0  0  0  0  0
  192.6150  173.1020  144.7490 O   0  0  0  0  0  0  0  0  0  0  0  0
  189.8830  176.4990  145.0250 C   0  0  2  0  0  3  0  0  0  0  0  0
  187.5260  176.6100  140.5970 C   0  0  0  0  0  3  0  0  0  0  0  0
  187.9770  174.3300  138.8580 C   0  0  0  0  0  3  0  0  0  0  0  0
  188.6260  174.4240  140.0990 C   0  0  0  0  0  0  0  0  0  0  0  0
  189.8000  173.6830  140.3110 C   0  0  0  0  0  3  0  0  0  0  0  0
  191.4860  172.0950  139.5410 N   0  0  0  0  0  1  0  0  0  0  0  0
  189.6400  172.7510  138.0840 C   0  0  0  0  0  3  0  0  0  0  0  0
  190.3010  172.8470  139.3100 C   0  0  0  0  0  0  0  0  0  0  0  0
  188.4790  173.4940  137.8580 C   0  0  0  0  0  3  0  0  0  0  0  0
  191.5540  177.1190  148.5320 O   0  0  0  0  0  1  0  0  0  0  0  0
  192.5810  176.7340  147.6700 C   0  0  0  0  0  2  0  0  0  0  0  0
  2 14  1  0  0  0  0
  2 24  1  0  0  0  0
  3  7  2  0  0  0  0
  4  1  1  0  0  0  0
  4 37  1  1  0  0  0
  5 19  1  0  0  0  0
  6 22  1  0  0  0  0
  8 12  1  0  0  0  0
  9  3  1  6  0  0  0
  9  6  1  0  0  0  0
  9 13  1  0  0  0  0
 10  5  1  0  0  0  0
 10  7  1  0  0  0  0
 11  6  2  0  0  0  0
 12  4  1  0  0  0  0
 13 17  1  6  0  0  0
 15 20  1  0  0  0  0
 16 11  1  0  0  0  0
 17  2  1  0  0  0  0
 18 19  1  1  0  0  0
 18  8  1  0  0  0  0
 20 16  2  0  0  0  0
 20  3  1  0  0  0  0
 21  7  1  6  0  0  0
 21 27  1  0  0  0  0
 21 13  1  0  0  0  0
 22  2  1  0  0  0  0
 23 10  2  0  0  0  0
 25 18  1  0  0  0  0
 25 27  1  0  0  0  0
 26  8  2  0  0  0  0
 27  1  1  1  0  0  0
 28 15  2  0  0  0  0
 28 23  1  0  0  0  0
 29 30  1  0  0  0  0
 30 31  2  0  0  0  0
 30 23  1  0  0  0  0
 33 34  2  0  0  0  0
 34 32  1  0  0  0  0
 34 31  1  0  0  0  0
 35 33  1  0  0  0  0
 35 29  2  0  0  0  0
 37 36  1  0  0  0  0
M  END
>  <MODEL>
2

>  <REMARK>
 VINA RESULT:      -8.6      2.840      6.462
  Name = 
  2 active torsions:
  status: ('A' for Active; 'I' for Inactive)
    1  A    between atoms: C_4  and  C_37
    2  A    between atoms: C_23  and  C_30
                            x       y       z     vdW  Elec       q    Type
                         _______ _______ _______ _____ _____    ______ ____

>  <TORSDO>
F 2

$$$$
=
 OpenBabel11112417083D

 37 43  0  0  1  0  0  0  0  0999 V2000
  191.7870  171.9840  141.2090 C   0  0  0  0  0  2  0  0  0  0  0  0
  195.0680  171.9440  144.5670 C   0  0  0  0  0  0  0  0  0  0  0  0
  192.3200  175.1420  144.7170 C   0  0  0  0  0  0  0  0  0  0  0  0
  191.3790  171.9710  139.7490 C   0  0  2  0  0  3  0  0  0  0  0  0
  188.9030  174.7930  143.3750 O   0  0  0  0  0  0  0  0  0  0  0  0
  194.4720  174.2370  145.3390 C   0  0  0  0  0  0  0  0  0  0  0  0
  191.3440  174.7730  143.9000 C   0  0  0  0  0  0  0  0  0  0  0  0
  189.0410  172.6690  140.2820 C   0  0  0  0  0  0  0  0  0  0  0  0
  193.3150  174.1330  144.7230 C   0  0  0  0  0  0  0  0  0  0  0  0
  190.0580  175.5090  143.7370 C   0  0  0  0  0  0  0  0  0  0  0  0
  194.7310  175.4560  146.1390 C   0  0  0  0  0  3  0  0  0  0  0  0
  189.9680  171.8270  139.6510 O   0  0  0  0  0  0  0  0  0  0  0  0
  192.9650  173.0560  143.9040 N   0  0  0  0  0  0  0  0  0  0  0  0
  194.5690  170.9930  145.6390 C   0  0  0  0  0  1  0  0  0  0  0  0
  192.1580  177.5430  144.8450 N   0  0  0  0  0  0  0  0  0  0  0  0
  193.7900  176.4200  146.2570 C   0  0  0  0  0  3  0  0  0  0  0  0
  193.9770  172.0900  143.4770 C   0  0  0  0  0  2  0  0  0  0  0  0
  189.4280  173.7540  141.2550 C   0  0  1  0  0  3  0  0  0  0  0  0
  188.9100  173.5500  142.6810 C   0  0  0  0  0  2  0  0  0  0  0  0
  192.4090  176.3350  145.6100 C   0  0  2  0  0  3  0  0  0  0  0  0
  191.6660  173.3950  143.3100 C   0  0  2  0  0  3  0  0  0  0  0  0
  195.4110  173.2070  145.1770 O   0  0  0  0  0  0  0  0  0  0  0  0
  189.9470  176.8560  143.9080 C   0  0  0  0  0  0  0  0  0  0  0  0
  196.3090  171.3470  143.9380 C   0  0  0  0  0  1  0  0  0  0  0  0
  190.7580  174.2410  141.1460 O   0  0  0  0  0  0  0  0  0  0  0  0
  187.8190  172.4990  140.0400 O   0  0  0  0  0  0  0  0  0  0  0  0
  191.7240  173.4030  141.7740 C   0  0  2  0  0  3  0  0  0  0  0  0
  191.0920  177.7820  144.1410 C   0  0  0  0  0  3  0  0  0  0  0  0
  188.2900  177.9060  142.3620 C   0  0  0  0  0  3  0  0  0  0  0  0
  188.6520  177.5410  143.6680 C   0  0  0  0  0  0  0  0  0  0  0  0
  187.7490  177.7820  144.7170 C   0  0  0  0  0  3  0  0  0  0  0  0
  185.6190  178.6460  145.5390 N   0  0  0  0  0  1  0  0  0  0  0  0
  186.1770  178.7700  143.1650 C   0  0  0  0  0  3  0  0  0  0  0  0
  186.5200  178.3990  144.4670 C   0  0  0  0  0  0  0  0  0  0  0  0
  187.0610  178.5210  142.1130 C   0  0  0  0  0  3  0  0  0  0  0  0
  191.3620  169.6240  139.3150 O   0  0  0  0  0  1  0  0  0  0  0  0
  192.0450  170.8090  139.0360 C   0  0  0  0  0  2  0  0  0  0  0  0
  2 22  1  0  0  0  0
  2 14  1  0  0  0  0
  3  9  1  0  0  0  0
  3 20  1  0  0  0  0
  4 37  1  6  0  0  0
  4  1  1  0  0  0  0
  5 10  1  0  0  0  0
  6 11  1  0  0  0  0
  7  3  2  0  0  0  0
  8 18  1  0  0  0  0
  9  6  2  0  0  0  0
 10  7  1  0  0  0  0
 10 23  2  0  0  0  0
 11 16  2  0  0  0  0
 12  4  1  0  0  0  0
 12  8  1  0  0  0  0
 13  9  1  0  0  0  0
 15 20  1  0  0  0  0
 17 13  1  0  0  0  0
 17  2  1  0  0  0  0
 18 19  1  1  0  0  0
 19  5  1  0  0  0  0
 20 16  1  6  0  0  0
 21  7  1  1  0  0  0
 21 13  1  0  0  0  0
 22  6  1  0  0  0  0
 23 28  1  0  0  0  0
 24  2  1  0  0  0  0
 25 18  1  0  0  0  0
 25 27  1  0  0  0  0
 26  8  2  0  0  0  0
 27  1  1  6  0  0  0
 27 21  1  0  0  0  0
 28 15  2  0  0  0  0
 29 30  1  0  0  0  0
 30 23  1  0  0  0  0
 30 31  2  0  0  0  0
 33 34  2  0  0  0  0
 34 31  1  0  0  0  0
 34 32  1  0  0  0  0
 35 29  2  0  0  0  0
 35 33  1  0  0  0  0
 37 36  1  0  0  0  0
M  END
>  <MODEL>
3

>  <REMARK>
 VINA RESULT:      -8.4      1.939      6.716
  Name = 
  2 active torsions:
  status: ('A' for Active; 'I' for Inactive)
    1  A    between atoms: C_4  and  C_37
    2  A    between atoms: C_23  and  C_30
                            x       y       z     vdW  Elec       q    Type
                         _______ _______ _______ _____ _____    ______ ____

>  <TORSDO>
F 2

$$$$
=
 OpenBabel11112417083D

 37 43  0  0  1  0  0  0  0  0999 V2000
  191.7270  172.4980  140.8740 C   0  0  0  0  0  2  0  0  0  0  0  0
  194.5290  172.5520  144.6400 C   0  0  0  0  0  0  0  0  0  0  0  0
  191.2140  175.1580  144.7760 C   0  0  0  0  0  0  0  0  0  0  0  0
  191.5050  172.6250  139.3800 C   0  0  2  0  0  3  0  0  0  0  0  0
  188.1140  174.4100  142.9240 O   0  0  0  0  0  0  0  0  0  0  0  0
  193.4110  174.5680  145.5880 C   0  0  0  0  0  0  0  0  0  0  0  0
  190.4330  174.7450  143.7880 C   0  0  0  0  0  0  0  0  0  0  0  0
  189.0300  172.8150  139.6510 C   0  0  0  0  0  0  0  0  0  0  0  0
  192.3780  174.3510  144.8040 C   0  0  0  0  0  0  0  0  0  0  0  0
  189.0570  175.2590  143.5310 C   0  0  0  0  0  0  0  0  0  0  0  0
  193.3310  175.6840  146.5580 C   0  0  0  0  0  3  0  0  0  0  0  0
  190.1700  172.2500  139.0630 O   0  0  0  0  0  0  0  0  0  0  0  0
  192.3440  173.3600  143.8200 N   0  0  0  0  0  0  0  0  0  0  0  0
  194.1000  171.3830  145.5070 C   0  0  0  0  0  1  0  0  0  0  0  0
  190.5740  177.4480  145.1660 N   0  0  0  0  0  0  0  0  0  0  0  0
  192.2130  176.4390  146.6540 C   0  0  0  0  0  3  0  0  0  0  0  0
  193.5670  172.6600  143.4300 C   0  0  0  0  0  2  0  0  0  0  0  0
  189.0800  173.7980  140.7920 C   0  0  1  0  0  3  0  0  0  0  0  0
  188.4460  173.3010  142.0940 C   0  0  0  0  0  2  0  0  0  0  0  0
  190.9620  176.2060  145.8090 C   0  0  2  0  0  3  0  0  0  0  0  0
  191.0840  173.5460  143.0900 C   0  0  2  0  0  3  0  0  0  0  0  0
  194.5450  173.7540  145.4410 O   0  0  0  0  0  0  0  0  0  0  0  0
  188.6670  176.5250  143.8450 C   0  0  0  0  0  0  0  0  0  0  0  0
  195.9280  172.2810  144.1300 C   0  0  0  0  0  1  0  0  0  0  0  0
  190.2930  174.5230  140.9350 O   0  0  0  0  0  0  0  0  0  0  0  0
  187.9010  172.4690  139.2160 O   0  0  0  0  0  0  0  0  0  0  0  0
  191.3220  173.7870  141.5900 C   0  0  2  0  0  3  0  0  0  0  0  0
  189.5730  177.5950  144.3500 C   0  0  0  0  0  3  0  0  0  0  0  0
  186.3320  177.1060  144.5150 C   0  0  0  0  0  3  0  0  0  0  0  0
  187.3010  176.9980  143.5060 C   0  0  0  0  0  0  0  0  0  0  0  0
  186.9700  177.3940  142.2000 C   0  0  0  0  0  3  0  0  0  0  0  0
  185.3640  178.2570  140.5760 N   0  0  0  0  0  1  0  0  0  0  0  0
  184.7280  177.9570  142.9150 C   0  0  0  0  0  3  0  0  0  0  0  0
  185.6880  177.8660  141.9050 C   0  0  0  0  0  0  0  0  0  0  0  0
  185.0510  177.5790  144.2200 C   0  0  0  0  0  3  0  0  0  0  0  0
  191.8430  170.4970  138.3510 O   0  0  0  0  0  1  0  0  0  0  0  0
  192.4640  171.7140  138.6350 C   0  0  0  0  0  2  0  0  0  0  0  0
  2 22  1  0  0  0  0
  2 14  1  0  0  0  0
  3  9  1  0  0  0  0
  3 20  1  0  0  0  0
  4 37  1  6  0  0  0
  4  1  1  0  0  0  0
  5 10  1  0  0  0  0
  6 11  1  0  0  0  0
  7  3  2  0  0  0  0
  8 18  1  0  0  0  0
  9  6  2  0  0  0  0
 10  7  1  0  0  0  0
 10 23  2  0  0  0  0
 11 16  2  0  0  0  0
 12  4  1  0  0  0  0
 12  8  1  0  0  0  0
 13  9  1  0  0  0  0
 15 20  1  0  0  0  0
 17 13  1  0  0  0  0
 17  2  1  0  0  0  0
 18 25  1  0  0  0  0
 18 19  1  1  0  0  0
 19  5  1  0  0  0  0
 20 16  1  6  0  0  0
 21  7  1  1  0  0  0
 21 13  1  0  0  0  0
 22  6  1  0  0  0  0
 23 28  1  0  0  0  0
 24  2  1  0  0  0  0
 25 27  1  0  0  0  0
 26  8  2  0  0  0  0
 27  1  1  6  0  0  0
 27 21  1  0  0  0  0
 28 15  2  0  0  0  0
 30 23  1  0  0  0  0
 30 29  2  0  0  0  0
 31 30  1  0  0  0  0
 32 34  1  0  0  0  0
 33 35  2  0  0  0  0
 34 31  2  0  0  0  0
 34 33  1  0  0  0  0
 35 29  1  0  0  0  0
 36 37  1  0  0  0  0
M  END
>  <MODEL>
4

>  <REMARK>
 VINA RESULT:      -8.3      1.865      6.769
  Name = 
  2 active torsions:
  status: ('A' for Active; 'I' for Inactive)
    1  A    between atoms: C_4  and  C_37
    2  A    between atoms: C_23  and  C_30
                            x       y       z     vdW  Elec       q    Type
                         _______ _______ _______ _____ _____    ______ ____

>  <TORSDO>
F 2

$$$$
=
 OpenBabel11112417083D

 37 43  0  0  1  0  0  0  0  0999 V2000
  194.7590  174.5820  144.2310 C   0  0  0  0  0  2  0  0  0  0  0  0
  194.4540  173.1990  139.7540 C   0  0  0  0  0  0  0  0  0  0  0  0
  190.8610  174.5390  141.5150 C   0  0  0  0  0  0  0  0  0  0  0  0
  195.1340  174.3290  145.6770 C   0  0  2  0  0  3  0  0  0  0  0  0
  190.8780  176.9990  144.2630 O   0  0  0  0  0  0  0  0  0  0  0  0
  191.9630  173.2680  139.7810 C   0  0  0  0  0  0  0  0  0  0  0  0
  191.2500  175.1510  142.6250 C   0  0  0  0  0  0  0  0  0  0  0  0
  193.8300  176.3030  146.4770 C   0  0  0  0  0  0  0  0  0  0  0  0
  192.0050  174.0300  140.8520 C   0  0  2  0  0  3  0  0  0  0  0  0
  190.3460  175.9320  143.5170 C   0  0  0  0  0  0  0  0  0  0  0  0
  190.6400  172.9780  139.1820 C   0  0  0  0  0  3  0  0  0  0  0  0
  195.0000  175.5330  146.4210 O   0  0  0  0  0  0  0  0  0  0  0  0
  193.1830  174.3430  141.5370 N   0  0  2  0  0  0  0  0  0  0  0  0
  194.9010  174.3800  138.9130 C   0  0  0  0  0  1  0  0  0  0  0  0
  188.5600  173.9380  141.9030 N   0  0  0  0  0  0  0  0  0  0  0  0
  189.5110  173.5070  139.7050 C   0  0  0  0  0  3  0  0  0  0  0  0
  194.4230  173.6270  141.2430 C   0  0  0  0  0  2  0  0  0  0  0  0
  192.6050  176.0190  145.6440 C   0  0  1  0  0  3  0  0  0  0  0  0
  192.2470  177.1160  144.6380 C   0  0  0  0  0  2  0  0  0  0  0  0
  189.4980  174.4400  140.9150 C   0  0  0  0  0  0  0  0  0  0  0  0
  192.7770  175.0890  142.7350 C   0  0  2  0  0  3  0  0  0  0  0  0
  193.1660  172.7440  139.2850 O   0  0  0  0  0  0  0  0  0  0  0  0
  189.0200  175.6530  143.6590 C   0  0  0  0  0  0  0  0  0  0  0  0
  195.4620  172.0830  139.5870 C   0  0  0  0  0  1  0  0  0  0  0  0
  192.4670  174.6850  145.1760 O   0  0  0  0  0  0  0  0  0  0  0  0
  193.8050  177.2960  147.2480 O   0  0  0  0  0  0  0  0  0  0  0  0
  193.2550  174.4010  144.0240 C   0  0  2  0  0  3  0  0  0  0  0  0
  188.3310  174.4730  143.0650 C   0  0  0  0  0  3  0  0  0  0  0  0
  188.1750  176.0760  145.9710 C   0  0  0  0  0  3  0  0  0  0  0  0
  188.1860  176.4270  144.6120 C   0  0  0  0  0  0  0  0  0  0  0  0
  187.4470  177.5460  144.1930 C   0  0  0  0  0  3  0  0  0  0  0  0
  185.9410  179.4070  144.6710 N   0  0  0  0  0  1  0  0  0  0  0  0
  186.6790  177.9150  146.4570 C   0  0  0  0  0  3  0  0  0  0  0  0
  186.6930  178.2820  145.1100 C   0  0  0  0  0  0  0  0  0  0  0  0
  187.4220  176.8130  146.8880 C   0  0  0  0  0  3  0  0  0  0  0  0
  197.3540  174.5230  144.8220 O   0  0  0  0  0  1  0  0  0  0  0  0
  196.5720  173.8520  145.7640 C   0  0  0  0  0  2  0  0  0  0  0  0
  1  4  1  0  0  0  0
  2 17  1  0  0  0  0
  3  7  2  0  0  0  0
  4 37  1  6  0  0  0
  4 12  1  0  0  0  0
  5 19  1  0  0  0  0
  7 10  1  0  0  0  0
  8 26  2  0  0  0  0
  9  6  1  1  0  0  0
  9  3  1  0  0  0  0
  9 13  1  0  0  0  0
 10 23  2  0  0  0  0
 10  5  1  0  0  0  0
 11 16  1  0  0  0  0
 11  6  2  0  0  0  0
 12  8  1  0  0  0  0
 13 17  1  1  0  0  0
 13 21  1  0  0  0  0
 14  2  1  0  0  0  0
 15 28  2  0  0  0  0
 16 20  2  0  0  0  0
 18 19  1  6  0  0  0
 18  8  1  0  0  0  0
 20  3  1  0  0  0  0
 20 15  1  0  0  0  0
 21  7  1  1  0  0  0
 21 27  1  0  0  0  0
 22  2  1  0  0  0  0
 22  6  1  0  0  0  0
 23 30  1  0  0  0  0
 24  2  1  0  0  0  0
 25 18  1  0  0  0  0
 27  1  1  1  0  0  0
 27 25  1  0  0  0  0
 28 23  1  0  0  0  0
 29 35  1  0  0  0  0
 30 29  2  0  0  0  0
 31 30  1  0  0  0  0
 31 34  2  0  0  0  0
 32 34  1  0  0  0  0
 33 35  2  0  0  0  0
 34 33  1  0  0  0  0
 36 37  1  0  0  0  0
M  END
>  <MODEL>
5

>  <REMARK>
 VINA RESULT:      -8.1      2.402      7.712
  Name = 
  2 active torsions:
  status: ('A' for Active; 'I' for Inactive)
    1  A    between atoms: C_4  and  C_37
    2  A    between atoms: C_23  and  C_30
                            x       y       z     vdW  Elec       q    Type
                         _______ _______ _______ _____ _____    ______ ____

>  <TORSDO>
F 2

$$$$
=
 OpenBabel11112417083D

 37 43  0  0  1  0  0  0  0  0999 V2000
  195.4610  174.9620  142.1020 C   0  0  0  0  0  2  0  0  0  0  0  0
  194.0110  173.3040  137.9560 C   0  0  0  0  0  0  0  0  0  0  0  0
  191.0380  173.6920  140.9240 C   0  0  0  0  0  0  0  0  0  0  0  0
  196.3720  174.9030  143.3120 C   0  0  2  0  0  3  0  0  0  0  0  0
  191.3270  176.2080  143.6050 O   0  0  0  0  0  0  0  0  0  0  0  0
  191.7720  172.6820  138.8560 C   0  0  0  0  0  0  0  0  0  0  0  0
  191.6020  174.4480  141.8550 C   0  0  0  0  0  0  0  0  0  0  0  0
  194.9340  176.4790  144.6090 C   0  0  0  0  0  0  0  0  0  0  0  0
  191.9710  173.4840  139.8790 C   0  0  2  0  0  3  0  0  0  0  0  0
  190.8870  174.9960  143.0430 C   0  0  0  0  0  0  0  0  0  0  0  0
  190.4600  172.0040  138.7440 C   0  0  0  0  0  3  0  0  0  0  0  0
  196.1760  176.0620  144.1120 O   0  0  0  0  0  0  0  0  0  0  0  0
  193.1770  174.1480  140.1220 N   0  0  2  0  0  0  0  0  0  0  0  0
  193.7890  174.5140  137.0670 C   0  0  0  0  0  1  0  0  0  0  0  0
  189.2810  172.5000  142.0630 N   0  0  0  0  0  0  0  0  0  0  0  0
  189.4840  172.2290  139.6540 C   0  0  0  0  0  3  0  0  0  0  0  0
  194.3840  173.7880  139.3790 C   0  0  0  0  0  2  0  0  0  0  0  0
  193.6270  175.8230  144.2460 C   0  0  1  0  0  3  0  0  0  0  0  0
  192.6500  176.7200  143.4820 C   0  0  0  0  0  2  0  0  0  0  0  0
  189.6360  173.1870  140.8340 C   0  0  0  0  0  0  0  0  0  0  0  0
  193.0250  174.8170  141.4200 C   0  0  2  0  0  3  0  0  0  0  0  0
  192.8210  172.4850  137.9450 O   0  0  0  0  0  0  0  0  0  0  0  0
  189.8270  174.3690  143.6260 C   0  0  0  0  0  0  0  0  0  0  0  0
  195.1660  172.5030  137.3930 C   0  0  0  0  0  1  0  0  0  0  0  0
  193.7120  174.4780  143.7940 O   0  0  0  0  0  0  0  0  0  0  0  0
  194.9050  177.4680  145.3870 O   0  0  0  0  0  0  0  0  0  0  0  0
  194.0930  174.3600  142.4260 C   0  0  2  0  0  3  0  0  0  0  0  0
  189.3320  173.0140  143.2560 C   0  0  0  0  0  3  0  0  0  0  0  0
  189.5220  174.4030  146.1040 C   0  0  0  0  0  3  0  0  0  0  0  0
  189.1980  174.9340  144.8460 C   0  0  0  0  0  0  0  0  0  0  0  0
  188.3240  176.0310  144.7760 C   0  0  0  0  0  3  0  0  0  0  0  0
  186.8740  177.6740  145.8510 N   0  0  0  0  0  1  0  0  0  0  0  0
  188.0850  176.0240  147.1830 C   0  0  0  0  0  3  0  0  0  0  0  0
  187.7660  176.5690  145.9380 C   0  0  0  0  0  0  0  0  0  0  0  0
  188.9650  174.9430  147.2670 C   0  0  0  0  0  3  0  0  0  0  0  0
  197.8900  174.7430  141.4770 O   0  0  0  0  0  1  0  0  0  0  0  0
  197.8220  174.8480  142.8670 C   0  0  0  0  0  2  0  0  0  0  0  0
  1  4  1  0  0  0  0
  2 17  1  0  0  0  0
  3  7  2  0  0  0  0
  4 37  1  6  0  0  0
  4 12  1  0  0  0  0
  7 10  1  0  0  0  0
  8 26  2  0  0  0  0
  9  6  1  1  0  0  0
  9 13  1  0  0  0  0
  9  3  1  0  0  0  0
 10  5  1  0  0  0  0
 10 23  2  0  0  0  0
 11  6  2  0  0  0  0
 11 16  1  0  0  0  0
 12  8  1  0  0  0  0
 13 17  1  1  0  0  0
 13 21  1  0  0  0  0
 14  2  1  0  0  0  0
 15 28  2  0  0  0  0
 16 20  2  0  0  0  0
 18 19  1  6  0  0  0
 18  8  1  0  0  0  0
 19  5  1  0  0  0  0
 20  3  1  0  0  0  0
 20 15  1  0  0  0  0
 21  7  1  1  0  0  0
 21 27  1  0  0  0  0
 22  2  1  0  0  0  0
 22  6  1  0  0  0  0
 23 30  1  0  0  0  0
 24  2  1  0  0  0  0
 25 18  1  0  0  0  0
 27  1  1  1  0  0  0
 27 25  1  0  0  0  0
 28 23  1  0  0  0  0
 29 35  1  0  0  0  0
 30 29  2  0  0  0  0
 31 30  1  0  0  0  0
 31 34  2  0  0  0  0
 32 34  1  0  0  0  0
 33 35  2  0  0  0  0
 34 33  1  0  0  0  0
 36 37  1  0  0  0  0
M  END
>  <MODEL>
6

>  <REMARK>
 VINA RESULT:      -7.5      2.811      7.360
  Name = 
  2 active torsions:
  status: ('A' for Active; 'I' for Inactive)
    1  A    between atoms: C_4  and  C_37
    2  A    between atoms: C_23  and  C_30
                            x       y       z     vdW  Elec       q    Type
                         _______ _______ _______ _____ _____    ______ ____

>  <TORSDO>
F 2

$$$$
=
 OpenBabel11112417083D

 37 43  0  0  1  0  0  0  0  0999 V2000
  193.6580  174.1950  144.3970 C   0  0  0  0  0  2  0  0  0  0  0  0
  189.8410  175.9920  146.4580 C   0  0  0  0  0  0  0  0  0  0  0  0
  189.2560  174.3480  142.6160 C   0  0  0  0  0  0  0  0  0  0  0  0
  195.0850  174.3210  143.9010 C   0  0  2  0  0  3  0  0  0  0  0  0
  191.4090  171.6360  141.3470 O   0  0  0  0  0  0  0  0  0  0  0  0
  188.4910  175.8230  144.3700 C   0  0  0  0  0  0  0  0  0  0  0  0
  190.3580  173.6470  142.3900 C   0  0  0  0  0  0  0  0  0  0  0  0
  194.9170  172.2300  142.5480 C   0  0  0  0  0  0  0  0  0  0  0  0
  189.3620  174.9630  143.8880 C   0  0  2  0  0  3  0  0  0  0  0  0
  190.5590  172.7490  141.2170 C   0  0  0  0  0  0  0  0  0  0  0  0
  187.2830  176.1190  143.5660 C   0  0  0  0  0  3  0  0  0  0  0  0
  195.5600  173.0460  143.4880 O   0  0  0  0  0  0  0  0  0  0  0  0
  190.5610  174.6320  144.5260 N   0  0  2  0  0  0  0  0  0  0  0  0
  189.3150  174.9170  147.3900 C   0  0  0  0  0  1  0  0  0  0  0  0
  188.3510  174.8180  140.4330 N   0  0  0  0  0  0  0  0  0  0  0  0
  187.0670  175.4970  142.3850 C   0  0  0  0  0  3  0  0  0  0  0  0
  191.0400  175.4210  145.6590 C   0  0  0  0  0  2  0  0  0  0  0  0
  193.5670  172.5440  141.9540 C   0  0  1  0  0  3  0  0  0  0  0  0
  192.4670  171.5370  142.2960 C   0  0  0  0  0  2  0  0  0  0  0  0
  188.0130  174.4520  141.7970 C   0  0  0  0  0  0  0  0  0  0  0  0
  191.2930  173.7580  143.6000 C   0  0  2  0  0  3  0  0  0  0  0  0
  188.7700  176.4400  145.5990 O   0  0  0  0  0  0  0  0  0  0  0  0
  189.9650  172.9600  140.0090 C   0  0  0  0  0  0  0  0  0  0  0  0
  190.3220  177.1580  147.2950 C   0  0  0  0  0  1  0  0  0  0  0  0
  193.1810  173.9110  141.9780 O   0  0  0  0  0  0  0  0  0  0  0  0
  195.4870  171.1660  142.1920 O   0  0  0  0  0  0  0  0  0  0  0  0
  192.6700  174.3360  143.2380 C   0  0  2  0  0  3  0  0  0  0  0  0
  189.1620  174.1650  139.6550 C   0  0  0  0  0  3  0  0  0  0  0  0
  189.4540  170.9340  138.6420 C   0  0  0  0  0  3  0  0  0  0  0  0
  190.2560  172.0650  138.8610 C   0  0  0  0  0  0  0  0  0  0  0  0
  191.2850  172.3560  137.9510 C   0  0  0  0  0  3  0  0  0  0  0  0
  192.5750  171.8200  135.9490 N   0  0  0  0  0  1  0  0  0  0  0  0
  190.7280  170.3890  136.6580 C   0  0  0  0  0  3  0  0  0  0  0  0
  191.5230  171.5190  136.8580 C   0  0  0  0  0  0  0  0  0  0  0  0
  189.6920  170.0980  137.5480 C   0  0  0  0  0  3  0  0  0  0  0  0
  195.1930  175.2860  146.0820 O   0  0  0  0  0  1  0  0  0  0  0  0
  195.9750  174.8440  145.0140 C   0  0  0  0  0  2  0  0  0  0  0  0
  2 24  1  0  0  0  0
  2 14  1  0  0  0  0
  4  1  1  0  0  0  0
  4 37  1  1  0  0  0
  5 19  1  0  0  0  0
  6 22  1  0  0  0  0
  7  3  2  0  0  0  0
  8 12  1  0  0  0  0
  9  3  1  6  0  0  0
  9  6  1  0  0  0  0
  9 13  1  0  0  0  0
 10  5  1  0  0  0  0
 10  7  1  0  0  0  0
 11  6  2  0  0  0  0
 12  4  1  0  0  0  0
 13 17  1  6  0  0  0
 15 20  1  0  0  0  0
 16 11  1  0  0  0  0
 17  2  1  0  0  0  0
 18 25  1  0  0  0  0
 18 19  1  1  0  0  0
 18  8  1  0  0  0  0
 20 16  2  0  0  0  0
 20  3  1  0  0  0  0
 21  7  1  6  0  0  0
 21 13  1  0  0  0  0
 22  2  1  0  0  0  0
 23 10  2  0  0  0  0
 25 27  1  0  0  0  0
 26  8  2  0  0  0  0
 27 21  1  0  0  0  0
 27  1  1  1  0  0  0
 28 23  1  0  0  0  0
 28 15  2  0  0  0  0
 29 30  1  0  0  0  0
 30 23  1  0  0  0  0
 31 30  2  0  0  0  0
 32 34  1  0  0  0  0
 33 34  2  0  0  0  0
 33 35  1  0  0  0  0
 34 31  1  0  0  0  0
 35 29  2  0  0  0  0
 37 36  1  0  0  0  0
M  END
>  <MODEL>
7

>  <REMARK>
 VINA RESULT:      -7.3      2.619      6.406
  Name = 
  2 active torsions:
  status: ('A' for Active; 'I' for Inactive)
    1  A    between atoms: C_4  and  C_37
    2  A    between atoms: C_23  and  C_30
                            x       y       z     vdW  Elec       q    Type
                         _______ _______ _______ _____ _____    ______ ____

>  <TORSDO>
F 2

$$$$
=
 OpenBabel11112417083D

 37 43  0  0  1  0  0  0  0  0999 V2000
  190.1670  175.2100  143.9830 C   0  0  0  0  0  2  0  0  0  0  0  0
  186.6500  177.7650  142.2100 C   0  0  0  0  0  0  0  0  0  0  0  0
  188.1640  174.7290  139.7020 C   0  0  0  0  0  0  0  0  0  0  0  0
  191.5430  175.0950  144.6090 C   0  0  2  0  0  3  0  0  0  0  0  0
  189.7170  171.6900  141.0990 O   0  0  0  0  0  0  0  0  0  0  0  0
  186.9420  176.8010  139.9310 C   0  0  0  0  0  0  0  0  0  0  0  0
  188.8940  173.9720  140.5090 C   0  0  0  0  0  0  0  0  0  0  0  0
  191.6600  172.6400  144.1680 C   0  0  0  0  0  0  0  0  0  0  0  0
  187.6200  175.8010  140.4520 C   0  0  2  0  0  3  0  0  0  0  0  0
  189.5130  172.6740  140.1160 C   0  0  0  0  0  0  0  0  0  0  0  0
  186.6640  176.7740  138.4770 C   0  0  0  0  0  3  0  0  0  0  0  0
  191.7700  173.7520  145.0150 O   0  0  0  0  0  0  0  0  0  0  0  0
  187.9840  175.7280  141.7990 N   0  0  2  0  0  0  0  0  0  0  0  0
  185.3690  177.1670  142.7620 C   0  0  0  0  0  1  0  0  0  0  0  0
  189.0240  174.3010  137.4920 N   0  0  0  0  0  0  0  0  0  0  0  0
  187.0700  175.7350  137.7120 C   0  0  0  0  0  3  0  0  0  0  0  0
  187.8480  176.8960  142.6680 C   0  0  0  0  0  2  0  0  0  0  0  0
  191.1550  172.7180  142.7500 C   0  0  1  0  0  3  0  0  0  0  0  0
  189.8520  171.9580  142.4920 C   0  0  0  0  0  2  0  0  0  0  0  0
  187.8150  174.5210  138.2660 C   0  0  0  0  0  0  0  0  0  0  0  0
  188.8380  174.5400  141.9320 C   0  0  2  0  0  3  0  0  0  0  0  0
  186.5500  177.8530  140.7720 O   0  0  0  0  0  0  0  0  0  0  0  0
  189.9070  172.3960  138.8420 C   0  0  0  0  0  0  0  0  0  0  0  0
  186.8110  179.1590  142.7790 C   0  0  0  0  0  1  0  0  0  0  0  0
  191.2620  173.9880  142.1210 O   0  0  0  0  0  0  0  0  0  0  0  0
  191.9830  171.5110  144.6200 O   0  0  0  0  0  0  0  0  0  0  0  0
  190.2260  174.8940  142.4880 C   0  0  2  0  0  3  0  0  0  0  0  0
  189.9050  173.3730  137.7170 C   0  0  0  0  0  3  0  0  0  0  0  0
  189.8220  170.0410  138.0140 C   0  0  0  0  0  3  0  0  0  0  0  0
  190.5760  171.1080  138.5270 C   0  0  0  0  0  0  0  0  0  0  0  0
  191.9640  170.9510  138.6770 C   0  0  0  0  0  3  0  0  0  0  0  0
  193.9850  169.5930  138.5100 N   0  0  0  0  0  1  0  0  0  0  0  0
  191.8190  168.6820  137.8480 C   0  0  0  0  0  3  0  0  0  0  0  0
  192.5810  169.7420  138.3450 C   0  0  0  0  0  0  0  0  0  0  0  0
  190.4400  168.8330  137.6810 C   0  0  0  0  0  3  0  0  0  0  0  0
  190.7460  177.0680  145.6910 O   0  0  0  0  0  1  0  0  0  0  0  0
  191.6360  176.0010  145.8220 C   0  0  0  0  0  2  0  0  0  0  0  0
  1  4  1  0  0  0  0
  2 17  1  0  0  0  0
  2 14  1  0  0  0  0
  2 24  1  0  0  0  0
  3  7  2  0  0  0  0
  4 12  1  0  0  0  0
  4 37  1  1  0  0  0
  5 19  1  0  0  0  0
  6  9  1  0  0  0  0
  6 22  1  0  0  0  0
  8 26  2  0  0  0  0
  8 12  1  0  0  0  0
  9  3  1  6  0  0  0
  9 13  1  0  0  0  0
 10  7  1  0  0  0  0
 10  5  1  0  0  0  0
 11  6  2  0  0  0  0
 13 21  1  0  0  0  0
 13 17  1  6  0  0  0
 15 28  2  0  0  0  0
 15 20  1  0  0  0  0
 16 20  2  0  0  0  0
 16 11  1  0  0  0  0
 18 19  1  1  0  0  0
 18  8  1  0  0  0  0
 20  3  1  0  0  0  0
 21  7  1  6  0  0  0
 21 27  1  0  0  0  0
 22  2  1  0  0  0  0
 23 10  2  0  0  0  0
 25 27  1  0  0  0  0
 25 18  1  0  0  0  0
 27  1  1  1  0  0  0
 28 23  1  0  0  0  0
 29 30  1  0  0  0  0
 30 31  2  0  0  0  0
 30 23  1  0  0  0  0
 33 34  2  0  0  0  0
 34 32  1  0  0  0  0
 34 31  1  0  0  0  0
 35 33  1  0  0  0  0
 35 29  2  0  0  0  0
 36 37  1  0  0  0  0
M  END
>  <MODEL>
8

>  <REMARK>
 VINA RESULT:      -7.1      2.907      6.473
  Name = 
  2 active torsions:
  status: ('A' for Active; 'I' for Inactive)
    1  A    between atoms: C_4  and  C_37
    2  A    between atoms: C_23  and  C_30
                            x       y       z     vdW  Elec       q    Type
                         _______ _______ _______ _____ _____    ______ ____

>  <TORSDO>
F 2

$$$$
=
 OpenBabel11112417083D

 37 43  0  0  1  0  0  0  0  0999 V2000
  185.1440  177.8980  142.5500 C   0  0  0  0  0  2  0  0  0  0  0  0
  185.6090  178.1820  147.2130 C   0  0  0  0  0  0  0  0  0  0  0  0
  188.5230  175.8800  145.2100 C   0  0  0  0  0  0  0  0  0  0  0  0
  184.3310  177.5720  141.3120 C   0  0  2  0  0  3  0  0  0  0  0  0
  189.4410  176.5810  141.7080 O   0  0  0  0  0  0  0  0  0  0  0  0
  187.3660  176.4160  147.2630 C   0  0  0  0  0  0  0  0  0  0  0  0
  188.3730  176.2030  143.9340 C   0  0  0  0  0  0  0  0  0  0  0  0
  186.3500  177.6100  139.8420 C   0  0  0  0  0  0  0  0  0  0  0  0
  187.5670  176.5930  145.9750 C   0  0  0  0  0  0  0  0  0  0  0  0
  189.2860  175.7620  142.8410 C   0  0  0  0  0  0  0  0  0  0  0  0
  188.2410  175.4620  147.9810 C   0  0  0  0  0  3  0  0  0  0  0  0
  185.0390  177.9960  140.1540 O   0  0  0  0  0  0  0  0  0  0  0  0
  186.7840  177.4300  145.1750 N   0  0  0  0  0  0  0  0  0  0  0  0
  186.3200  179.4940  147.4910 C   0  0  0  0  0  1  0  0  0  0  0  0
  189.6020  173.7260  145.1910 N   0  0  0  0  0  0  0  0  0  0  0  0
  189.2380  174.8140  147.3360 C   0  0  0  0  0  3  0  0  0  0  0  0
  185.5240  177.9720  145.6800 C   0  0  0  0  0  2  0  0  0  0  0  0
  187.2240  176.8020  140.7680 C   0  0  1  0  0  3  0  0  0  0  0  0
  188.4760  177.5300  141.2630 C   0  0  0  0  0  2  0  0  0  0  0  0
  189.5550  175.0160  145.8550 C   0  0  2  0  0  3  0  0  0  0  0  0
  187.2490  177.2350  143.7960 C   0  0  2  0  0  3  0  0  0  0  0  0
  186.3150  177.1120  147.8780 O   0  0  0  0  0  0  0  0  0  0  0  0
  189.9760  174.5870  142.8770 C   0  0  0  0  0  0  0  0  0  0  0  0
  184.2060  178.2700  147.7730 C   0  0  0  0  0  1  0  0  0  0  0  0
  186.5430  176.0170  141.7370 O   0  0  0  0  0  0  0  0  0  0  0  0
  186.8320  177.9730  138.7380 O   0  0  0  0  0  0  0  0  0  0  0  0
  186.1140  176.7610  142.8730 C   0  0  2  0  0  3  0  0  0  0  0  0
  189.8130  173.5370  143.9220 C   0  0  0  0  0  3  0  0  0  0  0  0
  192.1740  174.5410  141.6940 C   0  0  0  0  0  3  0  0  0  0  0  0
  190.8200  174.1740  141.7280 C   0  0  0  0  0  0  0  0  0  0  0  0
  190.3060  173.3730  140.6950 C   0  0  0  0  0  3  0  0  0  0  0  0
  190.5890  172.1640  138.5940 N   0  0  0  0  0  1  0  0  0  0  0  0
  192.4670  173.3490  139.6080 C   0  0  0  0  0  3  0  0  0  0  0  0
  191.1240  172.9680  139.6380 C   0  0  0  0  0  0  0  0  0  0  0  0
  192.9930  174.1340  140.6370 C   0  0  0  0  0  3  0  0  0  0  0  0
  182.2100  177.9190  140.2740 O   0  0  0  0  0  1  0  0  0  0  0  0
  182.9960  178.2900  141.3660 C   0  0  0  0  0  2  0  0  0  0  0  0
  2 14  1  0  0  0  0
  2 24  1  0  0  0  0
  2 22  1  0  0  0  0
  3 20  1  0  0  0  0
  3  9  1  0  0  0  0
  4 37  1  1  0  0  0
  4  1  1  0  0  0  0
  5 10  1  0  0  0  0
  6 22  1  0  0  0  0
  6 11  1  0  0  0  0
  7  3  2  0  0  0  0
  8 12  1  0  0  0  0
  8 18  1  0  0  0  0
  9  6  2  0  0  0  0
 10 23  2  0  0  0  0
 10  7  1  0  0  0  0
 12  4  1  0  0  0  0
 13 17  1  0  0  0  0
 13  9  1  0  0  0  0
 15 20  1  0  0  0  0
 16 11  2  0  0  0  0
 17  2  1  0  0  0  0
 18 19  1  1  0  0  0
 18 25  1  0  0  0  0
 19  5  1  0  0  0  0
 20 16  1  1  0  0  0
 21  7  1  1  0  0  0
 21 13  1  0  0  0  0
 23 28  1  0  0  0  0
 25 27  1  0  0  0  0
 26  8  2  0  0  0  0
 27  1  1  6  0  0  0
 27 21  1  0  0  0  0
 28 15  2  0  0  0  0
 29 30  1  0  0  0  0
 30 23  1  0  0  0  0
 31 30  2  0  0  0  0
 32 34  1  0  0  0  0
 33 34  2  0  0  0  0
 33 35  1  0  0  0  0
 34 31  1  0  0  0  0
 35 29  2  0  0  0  0
 36 37  1  0  0  0  0
M  END
>  <MODEL>
9

>  <REMARK>
 VINA RESULT:      -7.0      3.433      5.337
  Name = 
  2 active torsions:
  status: ('A' for Active; 'I' for Inactive)
    1  A    between atoms: C_4  and  C_37
    2  A    between atoms: C_23  and  C_30
                            x       y       z     vdW  Elec       q    Type
                         _______ _______ _______ _____ _____    ______ ____

>  <TORSDO>
F 2

$$$$
