=
 OpenBabel11112417503D

 34 41  0  0  1  0  0  0  0  0999 V2000
  189.6680  173.8420  143.7400 C   0  0  0  0  0  0  0  0  0  0  0  0
  191.6730  172.3530  143.8640 C   0  0  0  0  0  2  0  0  0  0  0  0
  186.3450  178.2840  145.1500 C   0  0  2  0  0  0  0  0  0  0  0  0
  188.4890  175.8120  142.9250 C   0  0  0  0  0  0  0  0  0  0  0  0
  188.6540  177.9860  144.1880 N   0  0  1  0  0  0  0  0  0  0  0  0
  186.5800  176.7860  145.0960 C   0  0  0  0  0  2  0  0  0  0  0  0
  185.6840  178.7560  146.4270 C   0  0  0  0  0  1  0  0  0  0  0  0
  185.9430  178.0660  142.6300 C   0  0  0  0  0  2  0  0  0  0  0  0
  191.5520  174.0940  145.4830 C   0  0  2  0  0  3  0  0  0  0  0  0
  194.5300  175.3700  145.9740 C   0  0  0  0  0  2  0  0  0  0  0  0
  190.0060  177.5730  144.5790 C   0  0  0  0  0  2  0  0  0  0  0  0
  187.3250  177.9900  142.0100 C   0  0  0  0  0  2  0  0  0  0  0  0
  191.5170  175.5850  145.1040 C   0  0  1  0  0  3  0  0  0  0  0  0
  192.8760  172.2870  144.5860 O   0  0  0  0  0  0  0  0  0  0  0  0
  188.3630  177.3120  142.9070 C   0  0  2  0  0  3  0  0  0  0  0  0
  185.9580  178.9890  143.8430 C   0  0  0  0  0  2  0  0  0  0  0  0
  194.1060  174.3620  144.9030 C   0  0  1  0  0  3  0  0  0  0  0  0
  189.4220  175.2260  143.8040 C   0  0  0  0  0  0  0  0  0  0  0  0
  187.7560  177.7390  145.3460 C   0  0  2  0  0  3  0  0  0  0  0  0
  190.0830  176.0560  144.8800 C   0  0  2  0  0  3  0  0  0  0  0  0
  188.0200  173.6390  141.9640 C   0  0  0  0  0  3  0  0  0  0  0  0
  193.4730  176.2940  146.5390 C   0  0  0  0  0  3  0  0  0  0  0  0
  187.8040  175.0160  141.9990 C   0  0  0  0  0  3  0  0  0  0  0  0
  192.1820  176.3940  146.1810 C   0  0  0  0  0  3  0  0  0  0  0  0
  192.9430  173.4570  145.3630 C   0  0  1  0  0  3  0  0  0  0  0  0
  188.9460  173.0560  142.8310 C   0  0  0  0  0  3  0  0  0  0  0  0
  190.6770  173.1770  144.6470 C   0  0  1  0  0  3  0  0  0  0  0  0
  193.9130  175.0340  143.5450 C   0  0  0  0  0  2  0  0  0  0  0  0
  194.6210  174.2650  142.4360 C   0  0  0  0  0  2  0  0  0  0  0  0
  197.6940  175.3000  143.6020 N   0  0  0  0  0  2  0  0  0  0  0  0
  195.9520  176.3930  142.3800 C   0  0  0  0  0  2  0  0  0  0  0  0
  195.9310  174.9300  142.0070 C   0  0  1  0  0  3  0  0  0  0  0  0
  197.2690  176.5940  143.0920 C   0  0  0  0  0  2  0  0  0  0  0  0
  197.1390  174.3120  142.6870 C   0  0  0  0  0  2  0  0  0  0  0  0
  1 18  1  0  0  0  0
  1 27  1  0  0  0  0
  2 14  1  0  0  0  0
  2 27  1  0  0  0  0
  3 19  1  0  0  0  0
  3  7  1  1  0  0  0
  4 18  2  0  0  0  0
  5 11  1  1  0  0  0
  5 19  1  0  0  0  0
  6  3  1  0  0  0  0
  6 19  1  0  0  0  0
  8 16  1  0  0  0  0
 10 22  1  0  0  0  0
 11 20  1  0  0  0  0
 12  8  1  0  0  0  0
 12 15  1  0  0  0  0
 13  9  1  0  0  0  0
 13 24  1  0  0  0  0
 14 25  1  0  0  0  0
 15  4  1  0  0  0  0
 15  5  1  0  0  0  0
 16  3  1  0  0  0  0
 17 25  1  0  0  0  0
 17 10  1  0  0  0  0
 18 20  1  0  0  0  0
 20 13  1  0  0  0  0
 21 23  2  0  0  0  0
 21 26  1  0  0  0  0
 23  4  1  0  0  0  0
 24 22  2  0  0  0  0
 25  9  1  0  0  0  0
 26  1  2  0  0  0  0
 27  9  1  0  0  0  0
 28 17  1  0  0  0  0
 29 28  1  0  0  0  0
 31 33  1  0  0  0  0
 32 31  1  0  0  0  0
 32 29  1  0  0  0  0
 32 34  1  0  0  0  0
 33 30  1  0  0  0  0
 34 30  1  0  0  0  0
M  END
>  <MODEL>
1

>  <REMARK>
 VINA RESULT:      -9.1      0.000      0.000
  Name = 
  3 active torsions:
  status: ('A' for Active; 'I' for Inactive)
    1  A    between atoms: C_17  and  C_28
    2  A    between atoms: C_28  and  C_29
    3  A    between atoms: C_29  and  C_32
                            x       y       z     vdW  Elec       q    Type
                         _______ _______ _______ _____ _____    ______ ____

>  <TORSDO>
F 3

$$$$
=
 OpenBabel11112417503D

 34 41  0  0  1  0  0  0  0  0999 V2000
  189.2700  174.3080  143.5320 C   0  0  0  0  0  0  0  0  0  0  0  0
  191.3930  172.9870  143.5280 C   0  0  0  0  0  2  0  0  0  0  0  0
  185.4510  178.0830  145.5150 C   0  0  2  0  0  0  0  0  0  0  0  0
  187.9700  176.3070  143.0330 C   0  0  0  0  0  0  0  0  0  0  0  0
  187.8400  178.1740  144.7190 N   0  0  1  0  0  0  0  0  0  0  0  0
  185.8310  176.6520  145.1800 C   0  0  0  0  0  2  0  0  0  0  0  0
  184.6620  178.2240  146.7990 C   0  0  0  0  0  1  0  0  0  0  0  0
  185.2480  178.3670  142.9790 C   0  0  0  0  0  2  0  0  0  0  0  0
  190.9950  174.3360  145.4490 C   0  0  2  0  0  3  0  0  0  0  0  0
  193.7980  175.7090  146.4470 C   0  0  0  0  0  2  0  0  0  0  0  0
  189.1940  177.7950  145.1360 C   0  0  0  0  0  2  0  0  0  0  0  0
  186.6710  178.5300  142.4800 C   0  0  0  0  0  2  0  0  0  0  0  0
  190.8470  175.8660  145.3770 C   0  0  1  0  0  3  0  0  0  0  0  0
  192.5430  172.8660  144.3230 O   0  0  0  0  0  0  0  0  0  0  0  0
  187.7040  177.7630  143.3080 C   0  0  2  0  0  3  0  0  0  0  0  0
  185.0920  179.0130  144.3490 C   0  0  0  0  0  2  0  0  0  0  0  0
  193.5470  174.9180  145.1610 C   0  0  1  0  0  3  0  0  0  0  0  0
  188.8910  175.6250  143.8530 C   0  0  0  0  0  0  0  0  0  0  0  0
  186.8900  177.6200  145.7200 C   0  0  2  0  0  3  0  0  0  0  0  0
  189.3930  176.2590  145.1290 C   0  0  2  0  0  3  0  0  0  0  0  0
  187.7760  174.3530  141.6140 C   0  0  0  0  0  3  0  0  0  0  0  0
  192.6210  176.4090  147.0920 C   0  0  0  0  0  3  0  0  0  0  0  0
  187.4290  175.6710  141.9090 C   0  0  0  0  0  3  0  0  0  0  0  0
  191.3550  176.4810  146.6500 C   0  0  0  0  0  3  0  0  0  0  0  0
  192.4460  173.8490  145.3250 C   0  0  1  0  0  3  0  0  0  0  0  0
  188.6900  173.6760  142.4220 C   0  0  0  0  0  3  0  0  0  0  0  0
  190.2710  173.5490  144.3710 C   0  0  1  0  0  3  0  0  0  0  0  0
  193.3860  175.8420  143.9550 C   0  0  0  0  0  2  0  0  0  0  0  0
  194.3170  175.4410  142.8170 C   0  0  0  0  0  2  0  0  0  0  0  0
  197.3260  175.8060  141.1780 N   0  0  0  0  0  2  0  0  0  0  0  0
  196.7410  175.4680  143.4730 C   0  0  0  0  0  2  0  0  0  0  0  0
  195.6210  176.2420  142.8180 C   0  0  1  0  0  3  0  0  0  0  0  0
  197.8880  175.5410  142.4940 C   0  0  0  0  0  2  0  0  0  0  0  0
  196.1020  176.5590  141.4140 C   0  0  0  0  0  2  0  0  0  0  0  0
  1 18  1  0  0  0  0
  1 27  1  0  0  0  0
  2 14  1  0  0  0  0
  2 27  1  0  0  0  0
  3 19  1  0  0  0  0
  3  7  1  1  0  0  0
  4 15  1  0  0  0  0
  4 18  2  0  0  0  0
  5 11  1  1  0  0  0
  5 19  1  0  0  0  0
  6  3  1  0  0  0  0
  6 19  1  0  0  0  0
  8 16  1  0  0  0  0
 10 22  1  0  0  0  0
 12  8  1  0  0  0  0
 12 15  1  0  0  0  0
 13  9  1  0  0  0  0
 13 24  1  0  0  0  0
 14 25  1  0  0  0  0
 15  5  1  0  0  0  0
 16  3  1  0  0  0  0
 17 25  1  0  0  0  0
 17 10  1  0  0  0  0
 18 20  1  0  0  0  0
 20 11  1  0  0  0  0
 20 13  1  0  0  0  0
 21 23  2  0  0  0  0
 21 26  1  0  0  0  0
 23  4  1  0  0  0  0
 24 22  2  0  0  0  0
 25  9  1  0  0  0  0
 26  1  2  0  0  0  0
 27  9  1  0  0  0  0
 28 17  1  0  0  0  0
 29 32  1  0  0  0  0
 29 28  1  0  0  0  0
 30 34  1  0  0  0  0
 30 33  1  0  0  0  0
 32 31  1  0  0  0  0
 33 31  1  0  0  0  0
 34 32  1  0  0  0  0
M  END
>  <MODEL>
2

>  <REMARK>
 VINA RESULT:      -9.1      1.003      1.129
  Name = 
  3 active torsions:
  status: ('A' for Active; 'I' for Inactive)
    1  A    between atoms: C_17  and  C_28
    2  A    between atoms: C_28  and  C_29
    3  A    between atoms: C_29  and  C_32
                            x       y       z     vdW  Elec       q    Type
                         _______ _______ _______ _____ _____    ______ ____

>  <TORSDO>
F 3

$$$$
=
 OpenBabel11112417503D

 34 41  0  0  1  0  0  0  0  0999 V2000
  190.1210  173.7660  144.0990 C   0  0  0  0  0  0  0  0  0  0  0  0
  192.1980  172.3750  144.1720 C   0  0  0  0  0  2  0  0  0  0  0  0
  186.6600  178.0930  145.5330 C   0  0  2  0  0  0  0  0  0  0  0  0
  188.8140  175.6530  143.2830 C   0  0  0  0  0  0  0  0  0  0  0  0
  188.9340  177.8700  144.4720 N   0  0  1  0  0  0  0  0  0  0  0  0
  186.9630  176.6060  145.5130 C   0  0  0  0  0  2  0  0  0  0  0  0
  186.0370  178.5740  146.8260 C   0  0  0  0  0  1  0  0  0  0  0  0
  186.1530  177.7770  143.0430 C   0  0  0  0  0  2  0  0  0  0  0  0
  192.0690  174.1580  145.7430 C   0  0  2  0  0  3  0  0  0  0  0  0
  195.0030  175.5840  146.0550 C   0  0  0  0  0  2  0  0  0  0  0  0
  190.3200  177.5320  144.8120 C   0  0  0  0  0  2  0  0  0  0  0  0
  187.5080  177.7460  142.3610 C   0  0  0  0  0  2  0  0  0  0  0  0
  191.9460  175.6340  145.3220 C   0  0  1  0  0  3  0  0  0  0  0  0
  193.4340  172.3870  144.8370 O   0  0  0  0  0  0  0  0  0  0  0  0
  188.6160  177.1440  143.2270 C   0  0  2  0  0  3  0  0  0  0  0  0
  186.1810  178.7370  144.2260 C   0  0  0  0  0  2  0  0  0  0  0  0
  194.5780  174.5250  145.0350 C   0  0  1  0  0  3  0  0  0  0  0  0
  189.8130  175.1380  144.1330 C   0  0  0  0  0  0  0  0  0  0  0  0
  188.1020  177.6190  145.6780 C   0  0  2  0  0  3  0  0  0  0  0  0
  190.4820  176.0310  145.1530 C   0  0  2  0  0  3  0  0  0  0  0  0
  188.4050  173.4310  142.4090 C   0  0  0  0  0  3  0  0  0  0  0  0
  193.9300  176.4760  146.6420 C   0  0  0  0  0  3  0  0  0  0  0  0
  188.1260  174.7980  142.4140 C   0  0  0  0  0  3  0  0  0  0  0  0
  192.6210  176.5060  146.3420 C   0  0  0  0  0  3  0  0  0  0  0  0
  193.4820  173.5830  145.5760 C   0  0  1  0  0  3  0  0  0  0  0  0
  189.3960  172.9190  143.2480 C   0  0  0  0  0  3  0  0  0  0  0  0
  191.2000  173.1770  144.9760 C   0  0  1  0  0  3  0  0  0  0  0  0
  194.2920  175.1440  143.6680 C   0  0  0  0  0  2  0  0  0  0  0  0
  195.3480  176.1750  143.2890 C   0  0  0  0  0  2  0  0  0  0  0  0
  194.8310  174.6850  140.2260 N   0  0  0  0  0  2  0  0  0  0  0  0
  196.6740  175.8780  141.1780 C   0  0  0  0  0  2  0  0  0  0  0  0
  195.4040  176.4280  141.7810 C   0  0  1  0  0  3  0  0  0  0  0  0
  196.2180  175.0590  139.9930 C   0  0  0  0  0  2  0  0  0  0  0  0
  194.2650  175.7500  141.0420 C   0  0  0  0  0  2  0  0  0  0  0  0
  1 18  1  0  0  0  0
  1 27  1  0  0  0  0
  2 14  1  0  0  0  0
  2 27  1  0  0  0  0
  3 19  1  0  0  0  0
  3  7  1  1  0  0  0
  4 18  2  0  0  0  0
  5 11  1  1  0  0  0
  5 19  1  0  0  0  0
  6  3  1  0  0  0  0
  6 19  1  0  0  0  0
  8 16  1  0  0  0  0
 10 22  1  0  0  0  0
 11 20  1  0  0  0  0
 12  8  1  0  0  0  0
 12 15  1  0  0  0  0
 13  9  1  0  0  0  0
 13 24  1  0  0  0  0
 14 25  1  0  0  0  0
 15  4  1  0  0  0  0
 15  5  1  0  0  0  0
 16  3  1  0  0  0  0
 17 25  1  0  0  0  0
 17 10  1  0  0  0  0
 18 20  1  0  0  0  0
 20 13  1  0  0  0  0
 21 23  2  0  0  0  0
 21 26  1  0  0  0  0
 23  4  1  0  0  0  0
 24 22  2  0  0  0  0
 25  9  1  0  0  0  0
 26  1  2  0  0  0  0
 27  9  1  0  0  0  0
 28 17  1  0  0  0  0
 29 28  1  0  0  0  0
 30 34  1  0  0  0  0
 31 32  1  0  0  0  0
 32 29  1  0  0  0  0
 33 30  1  0  0  0  0
 33 31  1  0  0  0  0
 34 32  1  0  0  0  0
M  END
>  <MODEL>
3

>  <REMARK>
 VINA RESULT:      -8.7      1.111      1.369
  Name = 
  3 active torsions:
  status: ('A' for Active; 'I' for Inactive)
    1  A    between atoms: C_17  and  C_28
    2  A    between atoms: C_28  and  C_29
    3  A    between atoms: C_29  and  C_32
                            x       y       z     vdW  Elec       q    Type
                         _______ _______ _______ _____ _____    ______ ____

>  <TORSDO>
F 3

$$$$
=
 OpenBabel11112417503D

 34 41  0  0  1  0  0  0  0  0999 V2000
  192.4320  175.4010  145.4070 C   0  0  0  0  0  0  0  0  0  0  0  0
  190.0290  175.7090  146.0240 C   0  0  0  0  0  2  0  0  0  0  0  0
  196.8380  173.5490  142.2560 C   0  0  2  0  0  0  0  0  0  0  0  0
  194.4490  176.0370  144.1970 C   0  0  0  0  0  0  0  0  0  0  0  0
  194.8830  175.0970  141.8990 N   0  0  1  0  0  0  0  0  0  0  0  0
  196.0440  173.5170  143.5490 C   0  0  0  0  0  2  0  0  0  0  0  0
  197.3240  172.1900  141.8020 C   0  0  0  0  0  1  0  0  0  0  0  0
  197.6770  175.8120  143.1090 C   0  0  0  0  0  2  0  0  0  0  0  0
  190.4640  174.3050  144.1510 C   0  0  2  0  0  3  0  0  0  0  0  0
  188.2130  174.8180  141.8260 C   0  0  0  0  0  2  0  0  0  0  0  0
  193.4280  175.0700  141.7140 C   0  0  0  0  0  2  0  0  0  0  0  0
  196.5580  176.7920  142.8110 C   0  0  0  0  0  2  0  0  0  0  0  0
  191.1740  174.8060  142.8810 C   0  0  1  0  0  3  0  0  0  0  0  0
  188.7710  175.3600  145.5090 O   0  0  0  0  0  0  0  0  0  0  0  0
  195.1630  176.1670  142.8770 C   0  0  2  0  0  3  0  0  0  0  0  0
  197.7570  174.7530  142.0170 C   0  0  0  0  0  2  0  0  0  0  0  0
  188.4310  175.6170  143.1130 C   0  0  1  0  0  3  0  0  0  0  0  0
  193.1880  175.4080  144.2190 C   0  0  0  0  0  0  0  0  0  0  0  0
  195.3220  173.7120  142.2110 C   0  0  2  0  0  3  0  0  0  0  0  0
  192.6880  174.6540  143.0090 C   0  0  2  0  0  3  0  0  0  0  0  0
  194.2180  176.6010  146.5400 C   0  0  0  0  0  3  0  0  0  0  0  0
  189.3940  174.0690  141.2460 C   0  0  0  0  0  3  0  0  0  0  0  0
  194.9500  176.6430  145.3550 C   0  0  0  0  0  3  0  0  0  0  0  0
  190.6620  174.0510  141.6870 C   0  0  0  0  0  3  0  0  0  0  0  0
  189.0010  174.7550  144.2600 C   0  0  1  0  0  3  0  0  0  0  0  0
  192.9670  175.9820  146.5660 C   0  0  0  0  0  3  0  0  0  0  0  0
  191.0660  174.7600  145.4690 C   0  0  1  0  0  3  0  0  0  0  0  0
  189.1770  176.9230  142.8450 C   0  0  0  0  0  2  0  0  0  0  0  0
  188.5400  178.0920  143.5870 C   0  0  0  0  0  2  0  0  0  0  0  0
  185.5660  179.8060  143.8820 N   0  0  0  0  0  2  0  0  0  0  0  0
  186.6420  178.1480  145.2300 C   0  0  0  0  0  2  0  0  0  0  0  0
  187.0350  177.9030  143.7920 C   0  0  1  0  0  3  0  0  0  0  0  0
  185.4790  179.1090  145.1560 C   0  0  0  0  0  2  0  0  0  0  0  0
  186.2150  178.8780  142.9670 C   0  0  0  0  0  2  0  0  0  0  0  0
  1 27  1  0  0  0  0
  1 26  1  0  0  0  0
  3  7  1  6  0  0  0
  3  6  1  0  0  0  0
  4 18  1  0  0  0  0
  4 23  2  0  0  0  0
  5 11  1  1  0  0  0
  5 19  1  0  0  0  0
  5 15  1  0  0  0  0
  9 25  1  0  0  0  0
  9 27  1  0  0  0  0
 10 17  1  0  0  0  0
 11 20  1  0  0  0  0
 12 15  1  0  0  0  0
 12  8  1  0  0  0  0
 13 20  1  0  0  0  0
 13  9  1  0  0  0  0
 14  2  1  0  0  0  0
 15  4  1  0  0  0  0
 16  3  1  0  0  0  0
 16  8  1  0  0  0  0
 17 25  1  0  0  0  0
 18  1  2  0  0  0  0
 19  3  1  0  0  0  0
 19  6  1  0  0  0  0
 20 18  1  0  0  0  0
 21 26  2  0  0  0  0
 22 24  2  0  0  0  0
 22 10  1  0  0  0  0
 23 21  1  0  0  0  0
 24 13  1  0  0  0  0
 25 14  1  0  0  0  0
 27  2  1  0  0  0  0
 28 17  1  0  0  0  0
 28 29  1  0  0  0  0
 29 32  1  0  0  0  0
 30 33  1  0  0  0  0
 32 31  1  0  0  0  0
 33 31  1  0  0  0  0
 34 32  1  0  0  0  0
 34 30  1  0  0  0  0
M  END
>  <MODEL>
4

>  <REMARK>
 VINA RESULT:      -8.1      1.696      8.164
  Name = 
  3 active torsions:
  status: ('A' for Active; 'I' for Inactive)
    1  A    between atoms: C_17  and  C_28
    2  A    between atoms: C_28  and  C_29
    3  A    between atoms: C_29  and  C_32
                            x       y       z     vdW  Elec       q    Type
                         _______ _______ _______ _____ _____    ______ ____

>  <TORSDO>
F 3

$$$$
=
 OpenBabel11112417503D

 34 41  0  0  1  0  0  0  0  0999 V2000
  193.2540  174.7650  143.2250 C   0  0  0  0  0  0  0  0  0  0  0  0
  193.6210  176.4880  145.0000 C   0  0  0  0  0  2  0  0  0  0  0  0
  190.9150  170.1180  140.8380 C   0  0  2  0  0  0  0  0  0  0  0  0
  192.0670  173.8760  141.2920 C   0  0  0  0  0  0  0  0  0  0  0  0
  190.0820  172.3620  141.6250 N   0  0  1  0  0  0  0  0  0  0  0  0
  192.1240  170.8290  141.4170 C   0  0  0  0  0  2  0  0  0  0  0  0
  190.8200  168.6570  141.2230 C   0  0  0  0  0  1  0  0  0  0  0  0
  191.2790  171.6550  138.8230 C   0  0  0  0  0  2  0  0  0  0  0  0
  192.1550  174.6970  145.5580 C   0  0  2  0  0  3  0  0  0  0  0  0
  189.6290  175.8300  147.3110 C   0  0  0  0  0  2  0  0  0  0  0  0
  189.8110  173.1070  142.8590 C   0  0  0  0  0  2  0  0  0  0  0  0
  190.6900  172.9920  139.2290 C   0  0  0  0  0  2  0  0  0  0  0  0
  190.8540  174.4130  144.7860 C   0  0  1  0  0  3  0  0  0  0  0  0
  193.1170  176.7910  146.2750 O   0  0  0  0  0  0  0  0  0  0  0  0
  190.8040  173.2840  140.7260 C   0  0  2  0  0  3  0  0  0  0  0  0
  190.4670  170.5160  139.4260 C   0  0  0  0  0  2  0  0  0  0  0  0
  190.7100  176.6400  146.5910 C   0  0  1  0  0  3  0  0  0  0  0  0
  192.1500  174.0810  142.6840 C   0  0  0  0  0  0  0  0  0  0  0  0
  190.7320  171.0810  142.0070 C   0  0  2  0  0  3  0  0  0  0  0  0
  191.1140  173.4800  143.6060 C   0  0  2  0  0  3  0  0  0  0  0  0
  194.1980  174.9900  140.9960 C   0  0  0  0  0  3  0  0  0  0  0  0
  189.3170  174.4420  146.7910 C   0  0  0  0  0  3  0  0  0  0  0  0
  193.0860  174.3460  140.4540 C   0  0  0  0  0  3  0  0  0  0  0  0
  189.8350  173.8230  145.7180 C   0  0  0  0  0  3  0  0  0  0  0  0
  192.0590  175.8950  146.5130 C   0  0  1  0  0  3  0  0  0  0  0  0
  194.2810  175.1960  142.3730 C   0  0  0  0  0  3  0  0  0  0  0  0
  193.3700  175.0260  144.7090 C   0  0  1  0  0  3  0  0  0  0  0  0
  190.1990  177.2090  145.2690 C   0  0  0  0  0  2  0  0  0  0  0  0
  188.7200  177.5670  145.3490 C   0  0  0  0  0  2  0  0  0  0  0  0
  185.6610  177.2090  143.8040 N   0  0  0  0  0  2  0  0  0  0  0  0
  187.7760  176.1260  143.5220 C   0  0  0  0  0  2  0  0  0  0  0  0
  188.0370  177.5420  143.9790 C   0  0  1  0  0  3  0  0  0  0  0  0
  186.3220  176.1130  143.1120 C   0  0  0  0  0  2  0  0  0  0  0  0
  186.6840  178.2280  143.9990 C   0  0  0  0  0  2  0  0  0  0  0  0
  1 27  1  0  0  0  0
  2 14  1  0  0  0  0
  3  7  1  1  0  0  0
  3  6  1  0  0  0  0
  3 19  1  0  0  0  0
  4 18  2  0  0  0  0
  5 19  1  0  0  0  0
  5 11  1  1  0  0  0
  6 19  1  0  0  0  0
  8 12  1  0  0  0  0
  8 16  1  0  0  0  0
  9 25  1  0  0  0  0
 11 20  1  0  0  0  0
 12 15  1  0  0  0  0
 13  9  1  0  0  0  0
 13 24  1  0  0  0  0
 14 25  1  0  0  0  0
 15  4  1  0  0  0  0
 15  5  1  0  0  0  0
 16  3  1  0  0  0  0
 17 10  1  0  0  0  0
 18  1  1  0  0  0  0
 18 20  1  0  0  0  0
 20 13  1  0  0  0  0
 21 26  1  0  0  0  0
 22 10  1  0  0  0  0
 23 21  2  0  0  0  0
 23  4  1  0  0  0  0
 24 22  2  0  0  0  0
 25 17  1  0  0  0  0
 26  1  2  0  0  0  0
 27  2  1  0  0  0  0
 27  9  1  0  0  0  0
 28 29  1  0  0  0  0
 28 17  1  0  0  0  0
 30 34  1  0  0  0  0
 31 32  1  0  0  0  0
 32 34  1  0  0  0  0
 32 29  1  0  0  0  0
 33 31  1  0  0  0  0
 33 30  1  0  0  0  0
M  END
>  <MODEL>
5

>  <REMARK>
 VINA RESULT:      -7.9      2.703      6.967
  Name = 
  3 active torsions:
  status: ('A' for Active; 'I' for Inactive)
    1  A    between atoms: C_17  and  C_28
    2  A    between atoms: C_28  and  C_29
    3  A    between atoms: C_29  and  C_32
                            x       y       z     vdW  Elec       q    Type
                         _______ _______ _______ _____ _____    ______ ____

>  <TORSDO>
F 3

$$$$
=
 OpenBabel11112417503D

 34 41  0  0  1  0  0  0  0  0999 V2000
  190.7130  173.2910  142.8780 C   0  0  0  0  0  0  0  0  0  0  0  0
  188.2520  173.1800  142.4500 C   0  0  0  0  0  2  0  0  0  0  0  0
  195.8900  175.7230  143.0890 C   0  0  2  0  0  0  0  0  0  0  0  0
  192.6400  173.8040  144.2770 C   0  0  0  0  0  0  0  0  0  0  0  0
  193.6650  176.1050  144.2070 N   0  0  1  0  0  0  0  0  0  0  0  0
  194.9450  174.6990  142.4900 C   0  0  0  0  0  2  0  0  0  0  0  0
  196.7950  176.3890  142.0750 C   0  0  0  0  0  1  0  0  0  0  0  0
  195.9330  174.1480  145.1060 C   0  0  0  0  0  2  0  0  0  0  0  0
  189.3400  175.2010  141.8200 C   0  0  2  0  0  3  0  0  0  0  0  0
  187.4230  177.7650  142.5200 C   0  0  0  0  0  2  0  0  0  0  0  0
  192.3200  176.6170  143.9230 C   0  0  0  0  0  2  0  0  0  0  0  0
  194.6490  174.4300  145.8620 C   0  0  0  0  0  2  0  0  0  0  0  0
  190.0730  176.1030  142.8280 C   0  0  1  0  0  3  0  0  0  0  0  0
  187.2330  174.0400  142.0110 O   0  0  0  0  0  0  0  0  0  0  0  0
  193.4850  174.8470  144.9590 C   0  0  2  0  0  3  0  0  0  0  0  0
  196.4690  175.4280  144.4780 C   0  0  0  0  0  2  0  0  0  0  0  0
  187.2120  176.3010  142.9120 C   0  0  1  0  0  3  0  0  0  0  0  0
  191.6110  174.2320  143.4140 C   0  0  0  0  0  0  0  0  0  0  0  0
  194.4130  176.0700  142.9240 C   0  0  2  0  0  3  0  0  0  0  0  0
  191.5320  175.6770  142.9780 C   0  0  2  0  0  3  0  0  0  0  0  0
  191.9020  171.5110  144.0300 C   0  0  0  0  0  3  0  0  0  0  0  0
  188.8390  178.2330  142.2610 C   0  0  0  0  0  3  0  0  0  0  0  0
  192.7700  172.4470  144.5920 C   0  0  0  0  0  3  0  0  0  0  0  0
  189.9790  177.5350  142.3840 C   0  0  0  0  0  3  0  0  0  0  0  0
  187.8110  175.3170  141.8850 C   0  0  1  0  0  3  0  0  0  0  0  0
  190.8810  171.9310  143.1770 C   0  0  0  0  0  3  0  0  0  0  0  0
  189.5820  173.7090  141.9670 C   0  0  1  0  0  3  0  0  0  0  0  0
  187.6020  176.0460  144.3660 C   0  0  0  0  0  2  0  0  0  0  0  0
  187.2630  177.2380  145.2520 C   0  0  0  0  0  2  0  0  0  0  0  0
  184.4420  178.9670  146.2110 N   0  0  0  0  0  2  0  0  0  0  0  0
  185.9760  177.5560  147.3850 C   0  0  0  0  0  2  0  0  0  0  0  0
  185.9120  177.0810  145.9530 C   0  0  1  0  0  3  0  0  0  0  0  0
  184.7980  178.4880  147.5380 C   0  0  0  0  0  2  0  0  0  0  0  0
  184.8220  177.9040  145.2910 C   0  0  0  0  0  2  0  0  0  0  0  0
  1 26  2  0  0  0  0
  1 18  1  0  0  0  0
  3  7  1  6  0  0  0
  3 16  1  0  0  0  0
  4 23  1  0  0  0  0
  4 15  1  0  0  0  0
  5 11  1  6  0  0  0
  5 15  1  0  0  0  0
  6 19  1  0  0  0  0
  6  3  1  0  0  0  0
  8 12  1  0  0  0  0
  9 25  1  0  0  0  0
  9 27  1  0  0  0  0
  9 13  1  0  0  0  0
 10 17  1  0  0  0  0
 13 20  1  0  0  0  0
 14  2  1  0  0  0  0
 15 12  1  0  0  0  0
 16  8  1  0  0  0  0
 17 28  1  0  0  0  0
 18  4  2  0  0  0  0
 19  3  1  0  0  0  0
 19  5  1  0  0  0  0
 20 18  1  0  0  0  0
 20 11  1  0  0  0  0
 21 23  2  0  0  0  0
 22 24  2  0  0  0  0
 22 10  1  0  0  0  0
 24 13  1  0  0  0  0
 25 14  1  0  0  0  0
 25 17  1  0  0  0  0
 26 21  1  0  0  0  0
 27  2  1  0  0  0  0
 27  1  1  0  0  0  0
 28 29  1  0  0  0  0
 29 32  1  0  0  0  0
 30 33  1  0  0  0  0
 31 33  1  0  0  0  0
 32 31  1  0  0  0  0
 34 32  1  0  0  0  0
 34 30  1  0  0  0  0
M  END
>  <MODEL>
6

>  <REMARK>
 VINA RESULT:      -7.9      2.052      7.882
  Name = 
  3 active torsions:
  status: ('A' for Active; 'I' for Inactive)
    1  A    between atoms: C_17  and  C_28
    2  A    between atoms: C_28  and  C_29
    3  A    between atoms: C_29  and  C_32
                            x       y       z     vdW  Elec       q    Type
                         _______ _______ _______ _____ _____    ______ ____

>  <TORSDO>
F 3

$$$$
=
 OpenBabel11112417503D

 34 41  0  0  1  0  0  0  0  0999 V2000
  194.1050  176.3260  144.4970 C   0  0  0  0  0  0  0  0  0  0  0  0
  196.3350  175.7770  143.5100 C   0  0  0  0  0  2  0  0  0  0  0  0
  188.4270  177.0490  144.5380 C   0  0  2  0  0  0  0  0  0  0  0  0
  192.0040  175.7040  145.5640 C   0  0  0  0  0  0  0  0  0  0  0  0
  190.0030  175.1220  144.1490 N   0  0  1  0  0  0  0  0  0  0  0  0
  189.8250  177.6300  144.6430 C   0  0  0  0  0  2  0  0  0  0  0  0
  187.4590  177.9160  143.7620 C   0  0  0  0  0  1  0  0  0  0  0  0
  188.8890  176.1440  146.8880 C   0  0  0  0  0  2  0  0  0  0  0  0
  194.4930  175.7970  142.0030 C   0  0  2  0  0  3  0  0  0  0  0  0
  194.7890  173.3470  139.8470 C   0  0  0  0  0  2  0  0  0  0  0  0
  190.9470  174.6070  143.1520 C   0  0  0  0  0  2  0  0  0  0  0  0
  189.7530  174.9150  146.6800 C   0  0  0  0  0  2  0  0  0  0  0  0
  193.2810  174.8590  142.1540 C   0  0  1  0  0  3  0  0  0  0  0  0
  196.8500  175.3560  142.2730 O   0  0  0  0  0  0  0  0  0  0  0  0
  190.6720  175.0110  145.4600 C   0  0  2  0  0  3  0  0  0  0  0  0
  187.8850  176.2810  145.7500 C   0  0  0  0  0  2  0  0  0  0  0  0
  195.6360  173.6070  141.0950 C   0  0  1  0  0  3  0  0  0  0  0  0
  192.7970  175.8150  144.4040 C   0  0  0  0  0  0  0  0  0  0  0  0
  189.5500  176.4610  143.6900 C   0  0  2  0  0  3  0  0  0  0  0  0
  192.2150  175.4880  143.0480 C   0  0  2  0  0  3  0  0  0  0  0  0
  193.7990  176.6500  146.8880 C   0  0  0  0  0  3  0  0  0  0  0  0
  193.3750  173.8890  139.8230 C   0  0  0  0  0  3  0  0  0  0  0  0
  192.5160  176.1090  146.8020 C   0  0  0  0  0  3  0  0  0  0  0  0
  192.7200  174.5400  140.7980 C   0  0  0  0  0  3  0  0  0  0  0  0
  195.7430  175.1070  141.4410 C   0  0  1  0  0  3  0  0  0  0  0  0
  194.5870  176.7590  145.7410 C   0  0  0  0  0  3  0  0  0  0  0  0
  194.9960  176.4400  143.2830 C   0  0  1  0  0  3  0  0  0  0  0  0
  195.2280  172.6960  142.2510 C   0  0  0  0  0  2  0  0  0  0  0  0
  196.4420  172.1900  143.0200 C   0  0  0  0  0  2  0  0  0  0  0  0
  194.8110  170.3840  145.4580 N   0  0  0  0  0  2  0  0  0  0  0  0
  194.8500  172.7080  144.8910 C   0  0  0  0  0  2  0  0  0  0  0  0
  196.1920  172.1200  144.5280 C   0  0  1  0  0  3  0  0  0  0  0  0
  194.1920  171.6650  145.7630 C   0  0  0  0  0  2  0  0  0  0  0  0
  196.1720  170.6910  145.0410 C   0  0  0  0  0  2  0  0  0  0  0  0
  1 26  1  0  0  0  0
  3  7  1  6  0  0  0
  3  6  1  0  0  0  0
  3 16  1  0  0  0  0
  4 23  2  0  0  0  0
  5 11  1  6  0  0  0
  5 15  1  0  0  0  0
  9 13  1  0  0  0  0
  9 27  1  0  0  0  0
 10 17  1  0  0  0  0
 12  8  1  0  0  0  0
 13 20  1  0  0  0  0
 14  2  1  0  0  0  0
 15  4  1  0  0  0  0
 15 12  1  0  0  0  0
 16  8  1  0  0  0  0
 17 25  1  0  0  0  0
 17 28  1  0  0  0  0
 18  1  2  0  0  0  0
 18  4  1  0  0  0  0
 19  5  1  0  0  0  0
 19  3  1  0  0  0  0
 19  6  1  0  0  0  0
 20 11  1  0  0  0  0
 20 18  1  0  0  0  0
 22 10  1  0  0  0  0
 22 24  2  0  0  0  0
 23 21  1  0  0  0  0
 24 13  1  0  0  0  0
 25  9  1  0  0  0  0
 25 14  1  0  0  0  0
 26 21  2  0  0  0  0
 27  2  1  0  0  0  0
 27  1  1  0  0  0  0
 28 29  1  0  0  0  0
 29 32  1  0  0  0  0
 30 33  1  0  0  0  0
 31 33  1  0  0  0  0
 32 31  1  0  0  0  0
 32 34  1  0  0  0  0
 34 30  1  0  0  0  0
M  END
>  <MODEL>
7

>  <REMARK>
 VINA RESULT:      -7.9      2.339      4.968
  Name = 
  3 active torsions:
  status: ('A' for Active; 'I' for Inactive)
    1  A    between atoms: C_17  and  C_28
    2  A    between atoms: C_28  and  C_29
    3  A    between atoms: C_29  and  C_32
                            x       y       z     vdW  Elec       q    Type
                         _______ _______ _______ _____ _____    ______ ____

>  <TORSDO>
F 3

$$$$
=
 OpenBabel11112417503D

 34 41  0  0  1  0  0  0  0  0999 V2000
  193.2940  176.3120  145.3430 C   0  0  0  0  0  0  0  0  0  0  0  0
  195.6040  175.5640  144.7450 C   0  0  0  0  0  2  0  0  0  0  0  0
  187.7460  177.4070  144.4560 C   0  0  2  0  0  0  0  0  0  0  0  0
  191.0150  175.8910  146.0930 C   0  0  0  0  0  0  0  0  0  0  0  0
  189.2170  175.3620  144.4090 N   0  0  1  0  0  0  0  0  0  0  0  0
  189.1500  177.9010  144.7530 C   0  0  0  0  0  2  0  0  0  0  0  0
  186.9760  178.2910  143.4980 C   0  0  0  0  0  1  0  0  0  0  0  0
  187.7730  176.6080  146.8880 C   0  0  0  0  0  2  0  0  0  0  0  0
  194.0210  175.6190  142.9680 C   0  0  2  0  0  3  0  0  0  0  0  0
  194.4640  173.0370  140.9990 C   0  0  0  0  0  2  0  0  0  0  0  0
  190.2630  174.7310  143.5970 C   0  0  0  0  0  2  0  0  0  0  0  0
  188.5670  175.3150  146.8750 C   0  0  0  0  0  2  0  0  0  0  0  0
  192.7350  174.7730  142.9690 C   0  0  1  0  0  3  0  0  0  0  0  0
  196.2690  175.0400  143.6260 O   0  0  0  0  0  0  0  0  0  0  0  0
  189.6670  175.2820  145.8120 C   0  0  2  0  0  3  0  0  0  0  0  0
  186.9690  176.7470  145.6010 C   0  0  0  0  0  2  0  0  0  0  0  0
  195.1260  173.3100  142.3520 C   0  0  1  0  0  3  0  0  0  0  0  0
  191.9820  175.8840  145.0680 C   0  0  0  0  0  0  0  0  0  0  0  0
  188.9400  176.7000  143.8230 C   0  0  2  0  0  3  0  0  0  0  0  0
  191.5940  175.5200  143.6540 C   0  0  2  0  0  3  0  0  0  0  0  0
  192.6490  176.7910  147.6380 C   0  0  0  0  0  3  0  0  0  0  0  0
  193.1150  173.6680  140.7290 C   0  0  0  0  0  3  0  0  0  0  0  0
  191.3580  176.3310  147.3770 C   0  0  0  0  0  3  0  0  0  0  0  0
  192.3670  174.4140  141.5570 C   0  0  0  0  0  3  0  0  0  0  0  0
  195.2890  174.8180  142.6420 C   0  0  1  0  0  3  0  0  0  0  0  0
  193.6100  176.7830  146.6260 C   0  0  0  0  0  3  0  0  0  0  0  0
  194.3680  176.2990  144.2800 C   0  0  1  0  0  3  0  0  0  0  0  0
  194.4790  172.4960  143.4700 C   0  0  0  0  0  2  0  0  0  0  0  0
  194.5150  171.0030  143.1660 C   0  0  0  0  0  2  0  0  0  0  0  0
  191.4910  170.5780  141.5710 N   0  0  0  0  0  2  0  0  0  0  0  0
  192.0980  171.3390  143.7560 C   0  0  0  0  0  2  0  0  0  0  0  0
  193.1410  170.3440  143.3060 C   0  0  1  0  0  3  0  0  0  0  0  0
  190.9520  171.1660  142.7880 C   0  0  0  0  0  2  0  0  0  0  0  0
  192.6370  169.7820  141.9890 C   0  0  0  0  0  2  0  0  0  0  0  0
  1 26  1  0  0  0  0
  3  7  1  6  0  0  0
  3  6  1  0  0  0  0
  3 16  1  0  0  0  0
  4 23  2  0  0  0  0
  5 11  1  6  0  0  0
  5 15  1  0  0  0  0
  9 13  1  0  0  0  0
  9 27  1  0  0  0  0
 10 17  1  0  0  0  0
 11 20  1  0  0  0  0
 12  8  1  0  0  0  0
 13 20  1  0  0  0  0
 14  2  1  0  0  0  0
 15  4  1  0  0  0  0
 15 12  1  0  0  0  0
 16  8  1  0  0  0  0
 17 25  1  0  0  0  0
 17 28  1  0  0  0  0
 18  1  2  0  0  0  0
 18  4  1  0  0  0  0
 19  5  1  0  0  0  0
 19  3  1  0  0  0  0
 19  6  1  0  0  0  0
 20 18  1  0  0  0  0
 22 10  1  0  0  0  0
 22 24  2  0  0  0  0
 23 21  1  0  0  0  0
 24 13  1  0  0  0  0
 25  9  1  0  0  0  0
 25 14  1  0  0  0  0
 26 21  2  0  0  0  0
 27  2  1  0  0  0  0
 27  1  1  0  0  0  0
 29 32  1  0  0  0  0
 29 28  1  0  0  0  0
 30 34  1  0  0  0  0
 30 33  1  0  0  0  0
 32 31  1  0  0  0  0
 33 31  1  0  0  0  0
 34 32  1  0  0  0  0
M  END
>  <MODEL>
8

>  <REMARK>
 VINA RESULT:      -7.9      2.309      4.874
  Name = 
  3 active torsions:
  status: ('A' for Active; 'I' for Inactive)
    1  A    between atoms: C_17  and  C_28
    2  A    between atoms: C_28  and  C_29
    3  A    between atoms: C_29  and  C_32
                            x       y       z     vdW  Elec       q    Type
                         _______ _______ _______ _____ _____    ______ ____

>  <TORSDO>
F 3

$$$$
=
 OpenBabel11112417503D

 34 41  0  0  1  0  0  0  0  0999 V2000
  190.9500  173.1000  142.6990 C   0  0  0  0  0  0  0  0  0  0  0  0
  188.4830  173.1190  142.2860 C   0  0  0  0  0  2  0  0  0  0  0  0
  196.2010  175.3280  143.1670 C   0  0  2  0  0  0  0  0  0  0  0  0
  192.9000  173.3710  144.1330 C   0  0  0  0  0  0  0  0  0  0  0  0
  193.9960  175.6290  144.3480 N   0  0  1  0  0  0  0  0  0  0  0  0
  195.2210  174.4170  142.4510 C   0  0  0  0  0  2  0  0  0  0  0  0
  197.1200  176.0910  142.2380 C   0  0  0  0  0  1  0  0  0  0  0  0
  196.2080  173.5050  144.9650 C   0  0  0  0  0  2  0  0  0  0  0  0
  189.6300  175.1700  141.9080 C   0  0  2  0  0  3  0  0  0  0  0  0
  187.7990  177.6800  142.9510 C   0  0  0  0  0  2  0  0  0  0  0  0
  192.6660  176.2140  144.1450 C   0  0  0  0  0  2  0  0  0  0  0  0
  194.9370  173.7270  145.7640 C   0  0  0  0  0  2  0  0  0  0  0  0
  190.3980  175.9130  143.0170 C   0  0  1  0  0  3  0  0  0  0  0  0
  187.4900  174.0590  141.9710 O   0  0  0  0  0  0  0  0  0  0  0  0
  193.7820  174.2910  144.9340 C   0  0  2  0  0  3  0  0  0  0  0  0
  196.7790  174.8390  144.5010 C   0  0  0  0  0  2  0  0  0  0  0  0
  187.5440  176.1850  143.1540 C   0  0  1  0  0  3  0  0  0  0  0  0
  191.8800  173.9370  143.3420 C   0  0  0  0  0  0  0  0  0  0  0  0
  194.7350  175.7370  143.0630 C   0  0  2  0  0  3  0  0  0  0  0  0
  191.8430  175.4280  143.0960 C   0  0  2  0  0  3  0  0  0  0  0  0
  192.0900  171.1510  143.6010 C   0  0  0  0  0  3  0  0  0  0  0  0
  189.2270  178.1350  142.7400 C   0  0  0  0  0  3  0  0  0  0  0  0
  192.9900  171.9810  144.2700 C   0  0  0  0  0  3  0  0  0  0  0  0
  190.3460  177.3920  142.7610 C   0  0  0  0  0  3  0  0  0  0  0  0
  188.1060  175.3230  142.0030 C   0  0  1  0  0  3  0  0  0  0  0  0
  191.0770  171.7080  142.8190 C   0  0  0  0  0  3  0  0  0  0  0  0
  189.8270  173.6660  141.8610 C   0  0  1  0  0  3  0  0  0  0  0  0
  187.9360  175.7330  144.5590 C   0  0  0  0  0  2  0  0  0  0  0  0
  187.6100  176.7990  145.5990 C   0  0  0  0  0  2  0  0  0  0  0  0
  190.7980  176.7280  146.9030 N   0  0  0  0  0  2  0  0  0  0  0  0
  188.9530  175.2080  147.0020 C   0  0  0  0  0  2  0  0  0  0  0  0
  188.3960  176.6080  146.8980 C   0  0  1  0  0  3  0  0  0  0  0  0
  190.4130  175.3950  147.3430 C   0  0  0  0  0  2  0  0  0  0  0  0
  189.5920  177.5380  146.9890 C   0  0  0  0  0  2  0  0  0  0  0  0
  1 26  2  0  0  0  0
  1 18  1  0  0  0  0
  3  7  1  6  0  0  0
  3 16  1  0  0  0  0
  4 23  1  0  0  0  0
  4 15  1  0  0  0  0
  5 11  1  6  0  0  0
  5 15  1  0  0  0  0
  6 19  1  0  0  0  0
  6  3  1  0  0  0  0
  8 12  1  0  0  0  0
  9 25  1  0  0  0  0
  9 13  1  0  0  0  0
 10 17  1  0  0  0  0
 13 20  1  0  0  0  0
 14 25  1  0  0  0  0
 14  2  1  0  0  0  0
 15 12  1  0  0  0  0
 16  8  1  0  0  0  0
 17 28  1  0  0  0  0
 18  4  2  0  0  0  0
 19  3  1  0  0  0  0
 19  5  1  0  0  0  0
 20 18  1  0  0  0  0
 20 11  1  0  0  0  0
 21 23  2  0  0  0  0
 22 24  2  0  0  0  0
 22 10  1  0  0  0  0
 24 13  1  0  0  0  0
 25 17  1  0  0  0  0
 26 21  1  0  0  0  0
 27  9  1  0  0  0  0
 27  2  1  0  0  0  0
 27  1  1  0  0  0  0
 28 29  1  0  0  0  0
 29 32  1  0  0  0  0
 30 34  1  0  0  0  0
 30 33  1  0  0  0  0
 31 33  1  0  0  0  0
 32 34  1  0  0  0  0
 32 31  1  0  0  0  0
M  END
>  <MODEL>
9

>  <REMARK>
 VINA RESULT:      -7.8      2.045      7.123
  Name = 
  3 active torsions:
  status: ('A' for Active; 'I' for Inactive)
    1  A    between atoms: C_17  and  C_28
    2  A    between atoms: C_28  and  C_29
    3  A    between atoms: C_29  and  C_32
                            x       y       z     vdW  Elec       q    Type
                         _______ _______ _______ _____ _____    ______ ____

>  <TORSDO>
F 3

$$$$
