=
 OpenBabel11112416573D

 31 35  0  0  0  0  0  0  0  0999 V2000
  184.9400  178.0200  146.4750 C   0  0  0  0  0  0  0  0  0  0  0  0
  187.4320  176.9830  143.8500 C   0  0  0  0  0  0  0  0  0  0  0  0
  186.8200  177.2010  142.5760 C   0  0  0  0  0  0  0  0  0  0  0  0
  191.0920  175.5980  147.3750 O   0  0  0  0  0  0  0  0  0  0  0  0
  191.5490  175.3940  146.2170 C   0  0  0  0  0  0  0  0  0  0  0  0
  184.9510  177.9160  141.1720 C   0  0  0  0  0  0  0  0  0  0  0  0
  186.8120  177.2520  145.1070 C   0  0  0  0  0  0  0  0  0  0  0  0
  185.6620  177.7550  147.6370 C   0  0  0  0  0  3  0  0  0  0  0  0
  185.5180  177.7150  142.4320 C   0  0  0  0  0  3  0  0  0  0  0  0
  189.4150  176.2190  145.0730 C   0  0  0  0  0  0  0  0  0  0  0  0
  183.3160  178.6660  146.5800 Cl  0  0  0  0  0  0  0  0  0  0  0  0
  188.8280  176.3840  141.4830 C   0  0  0  0  0  3  0  0  0  0  0  0
  183.6330  178.4370  141.0610 N   0  0  0  0  0  1  0  0  0  0  0  0
  188.7900  176.4890  146.2460 N   0  0  0  0  0  0  0  0  0  0  0  0
  188.7550  176.4580  143.8600 C   0  0  0  0  0  0  0  0  0  0  0  0
  190.7490  175.6900  145.0630 N   0  0  0  0  0  2  0  0  0  0  0  0
  185.5110  177.7700  145.2250 C   0  0  0  0  0  3  0  0  0  0  0  0
  185.6780  177.6060  140.0220 C   0  0  0  0  0  3  0  0  0  0  0  0
  187.5320  176.9890  146.3000 C   0  0  0  0  0  0  0  0  0  0  0  0
  186.9560  177.2400  147.5480 C   0  0  0  0  0  3  0  0  0  0  0  0
  189.3990  176.1810  142.6930 N   0  0  0  0  0  0  0  0  0  0  0  0
  187.5400  176.8940  141.3950 C   0  0  0  0  0  0  0  0  0  0  0  0
  186.9710  177.0950  140.1340 C   0  0  0  0  0  3  0  0  0  0  0  0
  195.4730  173.7450  145.6720 C   0  0  0  0  0  0  0  0  0  0  0  0
  193.0660  173.5360  145.5700 C   0  0  0  0  0  3  0  0  0  0  0  0
  193.9800  176.8860  146.7770 F   0  0  0  0  0  0  0  0  0  0  0  0
  196.7360  173.1990  145.4910 O   0  0  0  0  0  1  0  0  0  0  0  0
  194.3370  172.9850  145.3880 C   0  0  0  0  0  3  0  0  0  0  0  0
  194.0690  175.6110  146.3230 C   0  0  0  0  0  0  0  0  0  0  0  0
  192.9130  174.8500  146.0380 C   0  0  0  0  0  0  0  0  0  0  0  0
  195.3380  175.0540  146.1380 C   0  0  0  0  0  3  0  0  0  0  0  0
  1 11  1  0  0  0  0
  1  8  1  0  0  0  0
  2 15  1  0  0  0  0
  2  7  1  0  0  0  0
  3  2  2  0  0  0  0
  5  4  2  0  0  0  0
  6  9  2  0  0  0  0
  7 17  1  0  0  0  0
  7 19  2  0  0  0  0
  9  3  1  0  0  0  0
 10 14  2  0  0  0  0
 12 21  1  0  0  0  0
 13  6  1  0  0  0  0
 14 19  1  0  0  0  0
 15 10  1  0  0  0  0
 16 10  1  0  0  0  0
 16  5  1  0  0  0  0
 17  1  2  0  0  0  0
 18 23  2  0  0  0  0
 18  6  1  0  0  0  0
 19 20  1  0  0  0  0
 20  8  2  0  0  0  0
 21 15  2  0  0  0  0
 22 12  2  0  0  0  0
 22  3  1  0  0  0  0
 23 22  1  0  0  0  0
 24 31  1  0  0  0  0
 25 30  2  0  0  0  0
 27 24  1  0  0  0  0
 28 25  1  0  0  0  0
 28 24  2  0  0  0  0
 29 26  1  0  0  0  0
 30  5  1  0  0  0  0
 30 29  1  0  0  0  0
 31 29  2  0  0  0  0
M  END
>  <MODEL>
1

>  <REMARK>
 VINA RESULT:      -9.1      0.000      0.000
  Name = 
  1 active torsions:
  status: ('A' for Active; 'I' for Inactive)
    1  A    between atoms: C_5  and  C_30
                            x       y       z     vdW  Elec       q    Type
                         _______ _______ _______ _____ _____    ______ ____

>  <TORSDO>
F 1

$$$$
=
 OpenBabel11112416573D

 31 35  0  0  0  0  0  0  0  0999 V2000
  190.9930  176.7830  147.4100 C   0  0  0  0  0  0  0  0  0  0  0  0
  188.4090  176.3620  144.7040 C   0  0  0  0  0  0  0  0  0  0  0  0
  187.2550  177.1070  145.1020 C   0  0  0  0  0  0  0  0  0  0  0  0
  191.4960  173.2780  141.7540 O   0  0  0  0  0  0  0  0  0  0  0  0
  190.3920  173.4270  141.1640 C   0  0  0  0  0  0  0  0  0  0  0  0
  186.0480  178.5490  146.6640 C   0  0  0  0  0  0  0  0  0  0  0  0
  189.6160  176.2650  145.4610 C   0  0  0  0  0  0  0  0  0  0  0  0
  192.0370  176.0180  146.8930 C   0  0  0  0  0  3  0  0  0  0  0  0
  187.1920  177.8330  146.3060 C   0  0  0  0  0  3  0  0  0  0  0  0
  189.4410  174.9210  143.0110 C   0  0  0  0  0  0  0  0  0  0  0  0
  191.1800  177.5940  148.9510 Cl  0  0  0  0  0  0  0  0  0  0  0  0
  186.1260  176.4250  143.0630 C   0  0  0  0  0  3  0  0  0  0  0  0
  186.0170  179.2730  147.8870 N   0  0  0  0  0  1  0  0  0  0  0  0
  190.5700  174.8540  143.7610 N   0  0  0  0  0  0  0  0  0  0  0  0
  188.3460  175.6700  143.4620 C   0  0  0  0  0  0  0  0  0  0  0  0
  189.3590  174.2290  141.7560 N   0  0  0  0  0  2  0  0  0  0  0  0
  189.7970  176.9030  146.7000 C   0  0  0  0  0  3  0  0  0  0  0  0
  184.9360  178.5550  145.8210 C   0  0  0  0  0  3  0  0  0  0  0  0
  190.6880  175.4920  144.9500 C   0  0  0  0  0  0  0  0  0  0  0  0
  191.8840  175.3740  145.6650 C   0  0  0  0  0  3  0  0  0  0  0  0
  187.2240  175.7250  142.6960 N   0  0  0  0  0  0  0  0  0  0  0  0
  186.1150  177.1260  144.2620 C   0  0  0  0  0  0  0  0  0  0  0  0
  184.9700  177.8440  144.6210 C   0  0  0  0  0  3  0  0  0  0  0  0
  189.6780  171.6140  137.3400 C   0  0  0  0  0  0  0  0  0  0  0  0
  189.8480  173.5760  138.7440 C   0  0  0  0  0  3  0  0  0  0  0  0
  190.5010  170.5550  140.7340 F   0  0  0  0  0  0  0  0  0  0  0  0
  189.4450  171.0410  136.0980 O   0  0  0  0  0  1  0  0  0  0  0  0
  189.6130  173.0000  137.4930 C   0  0  0  0  0  3  0  0  0  0  0  0
  190.2140  171.3750  139.6930 C   0  0  0  0  0  0  0  0  0  0  0  0
  190.1500  172.7760  139.8580 C   0  0  0  0  0  0  0  0  0  0  0  0
  189.9770  170.8050  138.4380 C   0  0  0  0  0  3  0  0  0  0  0  0
  1 11  1  0  0  0  0
  2  3  1  0  0  0  0
  2  7  1  0  0  0  0
  3  9  1  0  0  0  0
  5  4  2  0  0  0  0
  5 16  1  0  0  0  0
  6 13  1  0  0  0  0
  7 17  1  0  0  0  0
  8  1  1  0  0  0  0
  9  6  2  0  0  0  0
 10 15  1  0  0  0  0
 10 14  2  0  0  0  0
 12 22  1  0  0  0  0
 14 19  1  0  0  0  0
 15  2  2  0  0  0  0
 16 10  1  0  0  0  0
 17  1  2  0  0  0  0
 18  6  1  0  0  0  0
 19  7  2  0  0  0  0
 19 20  1  0  0  0  0
 20  8  2  0  0  0  0
 21 12  2  0  0  0  0
 21 15  1  0  0  0  0
 22 23  1  0  0  0  0
 22  3  2  0  0  0  0
 23 18  2  0  0  0  0
 24 28  2  0  0  0  0
 24 31  1  0  0  0  0
 25 30  2  0  0  0  0
 27 24  1  0  0  0  0
 28 25  1  0  0  0  0
 29 30  1  0  0  0  0
 29 26  1  0  0  0  0
 30  5  1  0  0  0  0
 31 29  2  0  0  0  0
M  END
>  <MODEL>
2

>  <REMARK>
 VINA RESULT:      -8.8      4.322      6.330
  Name = 
  1 active torsions:
  status: ('A' for Active; 'I' for Inactive)
    1  A    between atoms: C_5  and  C_30
                            x       y       z     vdW  Elec       q    Type
                         _______ _______ _______ _____ _____    ______ ____

>  <TORSDO>
F 1

$$$$
=
 OpenBabel11112416573D

 31 35  0  0  0  0  0  0  0  0999 V2000
  185.2710  177.9800  146.8550 C   0  0  0  0  0  0  0  0  0  0  0  0
  187.0640  177.6490  143.5610 C   0  0  0  0  0  0  0  0  0  0  0  0
  186.0920  177.8430  142.5300 C   0  0  0  0  0  0  0  0  0  0  0  0
  191.7400  176.7280  145.8030 O   0  0  0  0  0  0  0  0  0  0  0  0
  191.8820  176.7060  144.5500 C   0  0  0  0  0  0  0  0  0  0  0  0
  183.8140  178.2890  141.7650 C   0  0  0  0  0  0  0  0  0  0  0  0
  186.7850  177.6950  144.9610 C   0  0  0  0  0  0  0  0  0  0  0  0
  186.3230  177.7700  147.7450 C   0  0  0  0  0  3  0  0  0  0  0  0
  184.7360  178.1050  142.7970 C   0  0  0  0  0  3  0  0  0  0  0  0
  189.4070  177.1900  144.1170 C   0  0  0  0  0  0  0  0  0  0  0  0
  183.6580  178.2910  147.4620 Cl  0  0  0  0  0  0  0  0  0  0  0  0
  187.8200  177.5140  140.8560 C   0  0  0  0  0  3  0  0  0  0  0  0
  182.4500  178.5530  142.0690 N   0  0  0  0  0  1  0  0  0  0  0  0
  189.1000  177.2430  145.4370 N   0  0  0  0  0  0  0  0  0  0  0  0
  188.4040  177.3890  143.1580 C   0  0  0  0  0  0  0  0  0  0  0  0
  190.7530  176.9300  143.6920 N   0  0  0  0  0  2  0  0  0  0  0  0
  185.5020  177.9420  145.4790 C   0  0  0  0  0  3  0  0  0  0  0  0
  184.2300  178.2150  140.4360 C   0  0  0  0  0  3  0  0  0  0  0  0
  187.8430  177.4850  145.8810 C   0  0  0  0  0  0  0  0  0  0  0  0
  187.6060  177.5240  147.2570 C   0  0  0  0  0  3  0  0  0  0  0  0
  188.7310  177.3330  141.8390 N   0  0  0  0  0  0  0  0  0  0  0  0
  186.4930  177.7720  141.1730 C   0  0  0  0  0  0  0  0  0  0  0  0
  185.5690  177.9560  140.1400 C   0  0  0  0  0  3  0  0  0  0  0  0
  195.7010  175.9410  142.7490 C   0  0  0  0  0  0  0  0  0  0  0  0
  193.2860  175.9710  142.6360 C   0  0  0  0  0  3  0  0  0  0  0  0
  194.3960  177.1370  145.9410 F   0  0  0  0  0  0  0  0  0  0  0  0
  196.9290  175.6900  142.1550 O   0  0  0  0  0  1  0  0  0  0  0  0
  194.5220  175.7180  142.0370 C   0  0  0  0  0  3  0  0  0  0  0  0
  194.4100  176.6750  144.6670 C   0  0  0  0  0  0  0  0  0  0  0  0
  193.2110  176.4510  143.9530 C   0  0  0  0  0  0  0  0  0  0  0  0
  195.6440  176.4180  144.0600 C   0  0  0  0  0  3  0  0  0  0  0  0
  1 11  1  0  0  0  0
  1  8  1  0  0  0  0
  2  7  1  0  0  0  0
  3  9  1  0  0  0  0
  3  2  2  0  0  0  0
  5  4  2  0  0  0  0
  6 13  1  0  0  0  0
  6  9  2  0  0  0  0
  7 17  1  0  0  0  0
  7 19  2  0  0  0  0
 10 14  2  0  0  0  0
 12 22  2  0  0  0  0
 12 21  1  0  0  0  0
 14 19  1  0  0  0  0
 15  2  1  0  0  0  0
 15 10  1  0  0  0  0
 16 10  1  0  0  0  0
 16  5  1  0  0  0  0
 17  1  2  0  0  0  0
 18  6  1  0  0  0  0
 19 20  1  0  0  0  0
 20  8  2  0  0  0  0
 21 15  2  0  0  0  0
 22  3  1  0  0  0  0
 23 18  2  0  0  0  0
 23 22  1  0  0  0  0
 24 31  1  0  0  0  0
 25 30  2  0  0  0  0
 27 24  1  0  0  0  0
 28 25  1  0  0  0  0
 28 24  2  0  0  0  0
 29 26  1  0  0  0  0
 30  5  1  0  0  0  0
 30 29  1  0  0  0  0
 31 29  2  0  0  0  0
M  END
>  <MODEL>
3

>  <REMARK>
 VINA RESULT:      -8.7      1.888      1.980
  Name = 
  1 active torsions:
  status: ('A' for Active; 'I' for Inactive)
    1  A    between atoms: C_5  and  C_30
                            x       y       z     vdW  Elec       q    Type
                         _______ _______ _______ _____ _____    ______ ____

>  <TORSDO>
F 1

$$$$
=
 OpenBabel11112416573D

 31 35  0  0  0  0  0  0  0  0999 V2000
  185.7250  177.7660  141.1430 C   0  0  0  0  0  0  0  0  0  0  0  0
  187.5590  177.3700  144.4070 C   0  0  0  0  0  0  0  0  0  0  0  0
  186.6620  177.7660  145.4470 C   0  0  0  0  0  0  0  0  0  0  0  0
  191.9740  175.6370  142.1160 O   0  0  0  0  0  0  0  0  0  0  0  0
  192.1530  175.6700  143.3640 C   0  0  0  0  0  0  0  0  0  0  0  0
  184.5000  178.5900  146.2370 C   0  0  0  0  0  0  0  0  0  0  0  0
  187.2440  177.3740  143.0150 C   0  0  0  0  0  0  0  0  0  0  0  0
  186.7050  177.3520  140.2430 C   0  0  0  0  0  3  0  0  0  0  0  0
  185.3500  178.2100  145.1970 C   0  0  0  0  0  3  0  0  0  0  0  0
  189.7910  176.5380  143.8250 C   0  0  0  0  0  0  0  0  0  0  0  0
  184.1560  178.2750  140.5570 Cl  0  0  0  0  0  0  0  0  0  0  0  0
  188.3790  177.2880  147.0960 C   0  0  0  0  0  3  0  0  0  0  0  0
  183.1800  179.0330  145.9500 N   0  0  0  0  0  1  0  0  0  0  0  0
  189.4500  176.5570  142.5120 N   0  0  0  0  0  0  0  0  0  0  0  0
  188.8600  176.9410  144.7930 C   0  0  0  0  0  0  0  0  0  0  0  0
  191.0980  176.1080  144.2320 N   0  0  0  0  0  2  0  0  0  0  0  0
  185.9940  177.7770  142.5130 C   0  0  0  0  0  3  0  0  0  0  0  0
  184.9450  178.5340  147.5580 C   0  0  0  0  0  3  0  0  0  0  0  0
  188.2280  176.9550  142.0850 C   0  0  0  0  0  0  0  0  0  0  0  0
  187.9540  176.9470  140.7140 C   0  0  0  0  0  3  0  0  0  0  0  0
  189.2200  176.9140  146.1050 N   0  0  0  0  0  0  0  0  0  0  0  0
  187.0930  177.7170  146.7960 C   0  0  0  0  0  0  0  0  0  0  0  0
  186.2410  178.0990  147.8370 C   0  0  0  0  0  3  0  0  0  0  0  0
  195.9510  174.5370  145.0100 C   0  0  0  0  0  0  0  0  0  0  0  0
  194.5840  176.0480  143.7060 C   0  0  0  0  0  3  0  0  0  0  0  0
  192.5210  173.2880  144.9880 F   0  0  0  0  0  0  0  0  0  0  0  0
  197.1840  174.1830  145.5360 O   0  0  0  0  0  1  0  0  0  0  0  0
  195.8270  175.6920  144.2350 C   0  0  0  0  0  3  0  0  0  0  0  0
  193.5840  174.0890  144.7280 C   0  0  0  0  0  0  0  0  0  0  0  0
  193.4490  175.2560  143.9430 C   0  0  0  0  0  0  0  0  0  0  0  0
  194.8310  173.7390  145.2540 C   0  0  0  0  0  3  0  0  0  0  0  0
  1 17  1  0  0  0  0
  2 15  2  0  0  0  0
  2  3  1  0  0  0  0
  3 22  1  0  0  0  0
  4  5  2  0  0  0  0
  5 30  1  0  0  0  0
  5 16  1  0  0  0  0
  6 18  2  0  0  0  0
  7  2  1  0  0  0  0
  8 20  1  0  0  0  0
  8  1  2  0  0  0  0
  9  3  2  0  0  0  0
  9  6  1  0  0  0  0
 10 16  1  0  0  0  0
 10 15  1  0  0  0  0
 11  1  1  0  0  0  0
 13  6  1  0  0  0  0
 14 10  2  0  0  0  0
 15 21  1  0  0  0  0
 17  7  2  0  0  0  0
 18 23  1  0  0  0  0
 19 14  1  0  0  0  0
 19  7  1  0  0  0  0
 20 19  2  0  0  0  0
 21 12  2  0  0  0  0
 22 12  1  0  0  0  0
 22 23  2  0  0  0  0
 24 31  1  0  0  0  0
 24 27  1  0  0  0  0
 25 30  2  0  0  0  0
 25 28  1  0  0  0  0
 28 24  2  0  0  0  0
 29 26  1  0  0  0  0
 29 31  2  0  0  0  0
 30 29  1  0  0  0  0
M  END
>  <MODEL>
4

>  <REMARK>
 VINA RESULT:      -8.7      2.196      4.302
  Name = 
  1 active torsions:
  status: ('A' for Active; 'I' for Inactive)
    1  A    between atoms: C_5  and  C_30
                            x       y       z     vdW  Elec       q    Type
                         _______ _______ _______ _____ _____    ______ ____

>  <TORSDO>
F 1

$$$$
=
 OpenBabel11112416573D

 31 35  0  0  0  0  0  0  0  0999 V2000
  186.1480  177.3830  141.0780 C   0  0  0  0  0  0  0  0  0  0  0  0
  187.5870  176.4300  144.4250 C   0  0  0  0  0  0  0  0  0  0  0  0
  186.7350  176.9910  145.4260 C   0  0  0  0  0  0  0  0  0  0  0  0
  191.6200  173.7730  142.3240 O   0  0  0  0  0  0  0  0  0  0  0  0
  191.7080  173.7140  143.5810 C   0  0  0  0  0  0  0  0  0  0  0  0
  184.7780  178.2820  146.1220 C   0  0  0  0  0  0  0  0  0  0  0  0
  187.3870  176.5650  143.0180 C   0  0  0  0  0  0  0  0  0  0  0  0
  187.0660  176.7800  140.2200 C   0  0  0  0  0  3  0  0  0  0  0  0
  185.5890  177.7480  145.1180 C   0  0  0  0  0  3  0  0  0  0  0  0
  189.5940  175.1080  143.9400 C   0  0  0  0  0  0  0  0  0  0  0  0
  184.7940  178.2780  140.4230 Cl  0  0  0  0  0  0  0  0  0  0  0  0
  188.1600  176.0500  147.1510 C   0  0  0  0  0  3  0  0  0  0  0  0
  183.6270  179.0410  145.7780 N   0  0  0  0  0  1  0  0  0  0  0  0
  189.3660  175.2590  142.6100 N   0  0  0  0  0  0  0  0  0  0  0  0
  188.7160  175.6860  144.8680 C   0  0  0  0  0  0  0  0  0  0  0  0
  190.7270  174.3600  144.4040 N   0  0  0  0  0  2  0  0  0  0  0  0
  186.3100  177.2760  142.4610 C   0  0  0  0  0  3  0  0  0  0  0  0
  185.0980  178.0690  147.4640 C   0  0  0  0  0  3  0  0  0  0  0  0
  188.3100  175.9570  142.1300 C   0  0  0  0  0  0  0  0  0  0  0  0
  188.1450  176.0680  140.7460 C   0  0  0  0  0  3  0  0  0  0  0  0
  188.9600  175.5230  146.1960 N   0  0  0  0  0  0  0  0  0  0  0  0
  187.0400  176.7880  146.7950 C   0  0  0  0  0  0  0  0  0  0  0  0
  186.2280  177.3230  147.7990 C   0  0  0  0  0  3  0  0  0  0  0  0
  194.9030  171.5080  145.4090 C   0  0  0  0  0  0  0  0  0  0  0  0
  192.7840  171.5750  144.2460 C   0  0  0  0  0  3  0  0  0  0  0  0
  194.0160  174.9940  144.7980 F   0  0  0  0  0  0  0  0  0  0  0  0
  195.9300  170.7820  145.9970 O   0  0  0  0  0  1  0  0  0  0  0  0
  193.8160  170.8430  144.8380 C   0  0  0  0  0  3  0  0  0  0  0  0
  193.9270  173.6410  144.7970 C   0  0  0  0  0  0  0  0  0  0  0  0
  192.8230  172.9780  144.2170 C   0  0  0  0  0  0  0  0  0  0  0  0
  194.9570  172.9020  145.3880 C   0  0  0  0  0  3  0  0  0  0  0  0
  1 17  1  0  0  0  0
  2 15  2  0  0  0  0
  2  3  1  0  0  0  0
  3 22  1  0  0  0  0
  4  5  2  0  0  0  0
  5 30  1  0  0  0  0
  5 16  1  0  0  0  0
  6 18  2  0  0  0  0
  7  2  1  0  0  0  0
  8 20  1  0  0  0  0
  8  1  2  0  0  0  0
  9  3  2  0  0  0  0
  9  6  1  0  0  0  0
 10 16  1  0  0  0  0
 10 15  1  0  0  0  0
 11  1  1  0  0  0  0
 13  6  1  0  0  0  0
 14 10  2  0  0  0  0
 15 21  1  0  0  0  0
 17  7  2  0  0  0  0
 18 23  1  0  0  0  0
 19 14  1  0  0  0  0
 19  7  1  0  0  0  0
 20 19  2  0  0  0  0
 21 12  2  0  0  0  0
 22 12  1  0  0  0  0
 22 23  2  0  0  0  0
 24 27  1  0  0  0  0
 25 28  1  0  0  0  0
 28 24  2  0  0  0  0
 29 26  1  0  0  0  0
 29 31  2  0  0  0  0
 30 25  2  0  0  0  0
 30 29  1  0  0  0  0
 31 24  1  0  0  0  0
M  END
>  <MODEL>
5

>  <REMARK>
 VINA RESULT:      -8.6      2.196      4.302
  Name = 
  1 active torsions:
  status: ('A' for Active; 'I' for Inactive)
    1  A    between atoms: C_5  and  C_30
                            x       y       z     vdW  Elec       q    Type
                         _______ _______ _______ _____ _____    ______ ____

>  <TORSDO>
F 1

$$$$
=
 OpenBabel11112416573D

 31 35  0  0  0  0  0  0  0  0999 V2000
  195.1670  174.0300  145.4570 C   0  0  0  0  0  0  0  0  0  0  0  0
  191.7290  173.3000  144.1070 C   0  0  0  0  0  0  0  0  0  0  0  0
  191.8150  172.0780  143.3690 C   0  0  0  0  0  0  0  0  0  0  0  0
  189.5950  177.6170  146.2400 O   0  0  0  0  0  0  0  0  0  0  0  0
  188.6970  176.9890  145.6150 C   0  0  0  0  0  0  0  0  0  0  0  0
  193.0620  170.1630  142.5000 C   0  0  0  0  0  0  0  0  0  0  0  0
  192.8230  173.9230  144.7800 C   0  0  0  0  0  0  0  0  0  0  0  0
  194.9300  175.2230  146.1380 C   0  0  0  0  0  3  0  0  0  0  0  0
  193.0130  171.3530  143.2290 C   0  0  0  0  0  3  0  0  0  0  0  0
  190.3010  175.1370  144.8790 C   0  0  0  0  0  0  0  0  0  0  0  0
  196.7730  173.3340  145.4420 Cl  0  0  0  0  0  0  0  0  0  0  0  0
  189.4490  172.2370  142.8500 C   0  0  0  0  0  3  0  0  0  0  0  0
  194.2880  169.4540  142.3790 N   0  0  0  0  0  1  0  0  0  0  0  0
  191.3680  175.6960  145.5060 N   0  0  0  0  0  0  0  0  0  0  0  0
  190.4580  173.9370  144.1730 C   0  0  0  0  0  0  0  0  0  0  0  0
  189.0120  175.7660  144.9350 N   0  0  0  0  0  2  0  0  0  0  0  0
  194.1230  173.3900  144.7860 C   0  0  0  0  0  3  0  0  0  0  0  0
  191.9070  169.6690  141.8920 C   0  0  0  0  0  3  0  0  0  0  0  0
  192.6010  175.1370  145.4780 C   0  0  0  0  0  0  0  0  0  0  0  0
  193.6490  175.7740  146.1480 C   0  0  0  0  0  3  0  0  0  0  0  0
  189.3770  173.3920  143.5520 N   0  0  0  0  0  0  0  0  0  0  0  0
  190.6550  171.5590  142.7430 C   0  0  0  0  0  0  0  0  0  0  0  0
  190.7050  170.3670  142.0130 C   0  0  0  0  0  3  0  0  0  0  0  0
  184.6970  178.5330  145.4350 C   0  0  0  0  0  0  0  0  0  0  0  0
  186.9210  178.3290  144.5080 C   0  0  0  0  0  3  0  0  0  0  0  0
  186.6920  176.4150  147.6390 F   0  0  0  0  0  0  0  0  0  0  0  0
  183.4070  179.0390  145.3650 O   0  0  0  0  0  1  0  0  0  0  0  0
  185.6230  178.8390  144.4360 C   0  0  0  0  0  3  0  0  0  0  0  0
  186.3690  177.2030  146.5840 C   0  0  0  0  0  0  0  0  0  0  0  0
  187.3120  177.5080  145.5770 C   0  0  0  0  0  0  0  0  0  0  0  0
  185.0700  177.7170  146.5050 C   0  0  0  0  0  3  0  0  0  0  0  0
  1  8  1  0  0  0  0
  2 15  1  0  0  0  0
  2  7  1  0  0  0  0
  3  2  2  0  0  0  0
  5  4  2  0  0  0  0
  6  9  2  0  0  0  0
  7 17  1  0  0  0  0
  7 19  2  0  0  0  0
  8 20  2  0  0  0  0
  9  3  1  0  0  0  0
 10 16  1  0  0  0  0
 10 14  2  0  0  0  0
 11  1  1  0  0  0  0
 12 21  1  0  0  0  0
 13  6  1  0  0  0  0
 15 10  1  0  0  0  0
 16  5  1  0  0  0  0
 17  1  2  0  0  0  0
 18 23  2  0  0  0  0
 18  6  1  0  0  0  0
 19 14  1  0  0  0  0
 19 20  1  0  0  0  0
 21 15  2  0  0  0  0
 22 12  2  0  0  0  0
 22  3  1  0  0  0  0
 23 22  1  0  0  0  0
 24 31  1  0  0  0  0
 25 30  2  0  0  0  0
 27 24  1  0  0  0  0
 28 25  1  0  0  0  0
 28 24  2  0  0  0  0
 29 26  1  0  0  0  0
 30  5  1  0  0  0  0
 30 29  1  0  0  0  0
 31 29  2  0  0  0  0
M  END
>  <MODEL>
6

>  <REMARK>
 VINA RESULT:      -8.6      4.292      8.461
  Name = 
  1 active torsions:
  status: ('A' for Active; 'I' for Inactive)
    1  A    between atoms: C_5  and  C_30
                            x       y       z     vdW  Elec       q    Type
                         _______ _______ _______ _____ _____    ______ ____

>  <TORSDO>
F 1

$$$$
=
 OpenBabel11112416573D

 31 35  0  0  0  0  0  0  0  0999 V2000
  186.2350  178.7290  143.2490 C   0  0  0  0  0  0  0  0  0  0  0  0
  188.9010  176.0740  143.3810 C   0  0  0  0  0  0  0  0  0  0  0  0
  189.5240  176.1640  144.6650 C   0  0  0  0  0  0  0  0  0  0  0  0
  187.9040  174.3380  138.5090 O   0  0  0  0  0  0  0  0  0  0  0  0
  188.8430  173.6530  138.9980 C   0  0  0  0  0  0  0  0  0  0  0  0
  189.7700  177.1670  146.8810 C   0  0  0  0  0  0  0  0  0  0  0  0
  187.8360  176.9120  142.9330 C   0  0  0  0  0  0  0  0  0  0  0  0
  185.7280  178.5240  141.9660 C   0  0  0  0  0  3  0  0  0  0  0  0
  189.1400  177.1070  145.6360 C   0  0  0  0  0  3  0  0  0  0  0  0
  188.8180  174.9320  141.2130 C   0  0  0  0  0  0  0  0  0  0  0  0
  185.5660  179.9890  144.2640 Cl  0  0  0  0  0  0  0  0  0  0  0  0
  190.9920  174.3240  144.0700 C   0  0  0  0  0  3  0  0  0  0  0  0
  189.3570  178.1320  147.8400 N   0  0  0  0  0  1  0  0  0  0  0  0
  187.8060  175.7490  140.8260 N   0  0  0  0  0  0  0  0  0  0  0  0
  189.3830  175.0760  142.4880 C   0  0  0  0  0  0  0  0  0  0  0  0
  189.3160  173.9200  140.3260 N   0  0  0  0  0  2  0  0  0  0  0  0
  187.2770  177.9310  143.7230 C   0  0  0  0  0  3  0  0  0  0  0  0
  190.8030  176.2800  147.1830 C   0  0  0  0  0  3  0  0  0  0  0  0
  187.3070  176.7170  141.6320 C   0  0  0  0  0  0  0  0  0  0  0  0
  186.2640  177.5190  141.1610 C   0  0  0  0  0  3  0  0  0  0  0  0
  190.3960  174.2470  142.8570 N   0  0  0  0  0  0  0  0  0  0  0  0
  190.5760  175.2730  144.9930 C   0  0  0  0  0  0  0  0  0  0  0  0
  191.2060  175.3340  146.2400 C   0  0  0  0  0  3  0  0  0  0  0  0
  190.6180  170.4510  136.7580 C   0  0  0  0  0  0  0  0  0  0  0  0
  189.3160  171.2400  138.6380 C   0  0  0  0  0  3  0  0  0  0  0  0
  190.3800  174.0880  136.5700 F   0  0  0  0  0  0  0  0  0  0  0  0
  191.1860  169.4060  136.0440 O   0  0  0  0  0  1  0  0  0  0  0  0
  189.8880  170.1880  137.9190 C   0  0  0  0  0  3  0  0  0  0  0  0
  190.2050  172.8250  137.0310 C   0  0  0  0  0  0  0  0  0  0  0  0
  189.4650  172.5680  138.2070 C   0  0  0  0  0  0  0  0  0  0  0  0
  190.7750  171.7660  136.3170 C   0  0  0  0  0  3  0  0  0  0  0  0
  1 17  1  0  0  0  0
  1 11  1  0  0  0  0
  2  3  1  0  0  0  0
  3 22  2  0  0  0  0
  3  9  1  0  0  0  0
  4  5  2  0  0  0  0
  5 16  1  0  0  0  0
  6 18  1  0  0  0  0
  6 13  1  0  0  0  0
  7  2  1  0  0  0  0
  7 17  2  0  0  0  0
  8  1  2  0  0  0  0
  9  6  2  0  0  0  0
 10 15  1  0  0  0  0
 12 22  1  0  0  0  0
 14 10  2  0  0  0  0
 14 19  1  0  0  0  0
 15 21  1  0  0  0  0
 15  2  2  0  0  0  0
 16 10  1  0  0  0  0
 19  7  1  0  0  0  0
 20 19  2  0  0  0  0
 20  8  1  0  0  0  0
 21 12  2  0  0  0  0
 22 23  1  0  0  0  0
 23 18  2  0  0  0  0
 24 28  1  0  0  0  0
 26 29  1  0  0  0  0
 27 24  1  0  0  0  0
 28 25  2  0  0  0  0
 29 30  2  0  0  0  0
 30 25  1  0  0  0  0
 30  5  1  0  0  0  0
 31 24  2  0  0  0  0
 31 29  1  0  0  0  0
M  END
>  <MODEL>
7

>  <REMARK>
 VINA RESULT:      -8.2      4.722      7.098
  Name = 
  1 active torsions:
  status: ('A' for Active; 'I' for Inactive)
    1  A    between atoms: C_5  and  C_30
                            x       y       z     vdW  Elec       q    Type
                         _______ _______ _______ _____ _____    ______ ____

>  <TORSDO>
F 1

$$$$
=
 OpenBabel11112416573D

 31 35  0  0  0  0  0  0  0  0999 V2000
  185.2030  177.6600  146.5640 C   0  0  0  0  0  0  0  0  0  0  0  0
  187.3410  176.7930  143.5890 C   0  0  0  0  0  0  0  0  0  0  0  0
  186.5970  177.1390  142.4180 C   0  0  0  0  0  0  0  0  0  0  0  0
  191.3270  175.0110  146.5340 O   0  0  0  0  0  0  0  0  0  0  0  0
  191.6420  174.8980  145.3180 C   0  0  0  0  0  0  0  0  0  0  0  0
  184.6060  178.0210  141.3060 C   0  0  0  0  0  0  0  0  0  0  0  0
  186.8780  176.9670  144.9280 C   0  0  0  0  0  0  0  0  0  0  0  0
  186.0430  177.2750  147.6080 C   0  0  0  0  0  3  0  0  0  0  0  0
  185.3060  177.6960  142.4700 C   0  0  0  0  0  3  0  0  0  0  0  0
  189.4220  175.8750  144.5040 C   0  0  0  0  0  0  0  0  0  0  0  0
  183.6260  178.3350  146.9120 Cl  0  0  0  0  0  0  0  0  0  0  0  0
  188.4370  176.3690  141.0340 C   0  0  0  0  0  3  0  0  0  0  0  0
  183.3030  178.5840  141.3940 N   0  0  0  0  0  1  0  0  0  0  0  0
  188.9440  176.0570  145.7610 N   0  0  0  0  0  0  0  0  0  0  0  0
  188.6370  176.2360  143.4000 C   0  0  0  0  0  0  0  0  0  0  0  0
  190.7270  175.3150  144.2950 N   0  0  0  0  0  2  0  0  0  0  0  0
  185.6180  177.5060  145.2400 C   0  0  0  0  0  3  0  0  0  0  0  0
  185.1860  177.7950  140.0580 C   0  0  0  0  0  3  0  0  0  0  0  0
  187.7200  176.5820  146.0020 C   0  0  0  0  0  0  0  0  0  0  0  0
  187.2990  176.7380  147.3260 C   0  0  0  0  0  3  0  0  0  0  0  0
  189.1330  176.0460  142.1480 N   0  0  0  0  0  0  0  0  0  0  0  0
  187.1660  176.9170  141.1390 C   0  0  0  0  0  0  0  0  0  0  0  0
  186.4650  177.2430  139.9750 C   0  0  0  0  0  3  0  0  0  0  0  0
  195.4490  173.2160  144.2720 C   0  0  0  0  0  0  0  0  0  0  0  0
  193.4800  173.2640  145.6750 C   0  0  0  0  0  3  0  0  0  0  0  0
  193.2470  175.8820  143.1040 F   0  0  0  0  0  0  0  0  0  0  0  0
  196.6780  172.6630  143.9450 O   0  0  0  0  0  1  0  0  0  0  0  0
  194.7170  172.7060  145.3460 C   0  0  0  0  0  3  0  0  0  0  0  0
  193.7040  174.8470  143.8510 C   0  0  0  0  0  0  0  0  0  0  0  0
  192.9560  174.3370  144.9360 C   0  0  0  0  0  0  0  0  0  0  0  0
  194.9420  174.2830  143.5280 C   0  0  0  0  0  3  0  0  0  0  0  0
  1 11  1  0  0  0  0
  1  8  1  0  0  0  0
  2  7  1  0  0  0  0
  3  9  1  0  0  0  0
  3  2  2  0  0  0  0
  5  4  2  0  0  0  0
  6 13  1  0  0  0  0
  6  9  2  0  0  0  0
  7 17  1  0  0  0  0
  7 19  2  0  0  0  0
 10 14  2  0  0  0  0
 12 22  2  0  0  0  0
 12 21  1  0  0  0  0
 14 19  1  0  0  0  0
 15  2  1  0  0  0  0
 15 10  1  0  0  0  0
 16 10  1  0  0  0  0
 16  5  1  0  0  0  0
 17  1  2  0  0  0  0
 18  6  1  0  0  0  0
 19 20  1  0  0  0  0
 20  8  2  0  0  0  0
 21 15  2  0  0  0  0
 22  3  1  0  0  0  0
 23 18  2  0  0  0  0
 23 22  1  0  0  0  0
 24 28  1  0  0  0  0
 26 29  1  0  0  0  0
 27 24  1  0  0  0  0
 28 25  2  0  0  0  0
 29 30  2  0  0  0  0
 30  5  1  0  0  0  0
 30 25  1  0  0  0  0
 31 29  1  0  0  0  0
 31 24  2  0  0  0  0
M  END
>  <MODEL>
8

>  <REMARK>
 VINA RESULT:      -8.1      1.147      1.196
  Name = 
  1 active torsions:
  status: ('A' for Active; 'I' for Inactive)
    1  A    between atoms: C_5  and  C_30
                            x       y       z     vdW  Elec       q    Type
                         _______ _______ _______ _____ _____    ______ ____

>  <TORSDO>
F 1

$$$$
=
 OpenBabel11112416573D

 31 35  0  0  0  0  0  0  0  0999 V2000
  186.7700  176.9620  145.0490 C   0  0  0  0  0  0  0  0  0  0  0  0
  190.0100  175.4790  143.8300 C   0  0  0  0  0  0  0  0  0  0  0  0
  190.9690  175.6400  144.8780 C   0  0  0  0  0  0  0  0  0  0  0  0
  188.0160  174.0840  139.1590 O   0  0  0  0  0  0  0  0  0  0  0  0
  189.2290  173.7410  139.1990 C   0  0  0  0  0  0  0  0  0  0  0  0
  191.6250  176.3950  147.1090 C   0  0  0  0  0  0  0  0  0  0  0  0
  188.6510  175.9130  143.8970 C   0  0  0  0  0  0  0  0  0  0  0  0
  185.9510  176.7370  143.9450 C   0  0  0  0  0  3  0  0  0  0  0  0
  190.6630  176.2540  146.1070 C   0  0  0  0  0  3  0  0  0  0  0  0
  189.5580  174.6510  141.5670 C   0  0  0  0  0  0  0  0  0  0  0  0
  186.1280  177.7580  146.4700 Cl  0  0  0  0  0  0  0  0  0  0  0  0
  192.6440  174.5540  143.4970 C   0  0  0  0  0  3  0  0  0  0  0  0
  191.2830  177.0200  148.3400 N   0  0  0  0  0  1  0  0  0  0  0  0
  188.2740  175.0770  141.6720 N   0  0  0  0  0  0  0  0  0  0  0  0
  190.4460  174.8410  142.6350 C   0  0  0  0  0  0  0  0  0  0  0  0
  190.0150  174.0050  140.3700 N   0  0  0  0  0  2  0  0  0  0  0  0
  188.1050  176.5540  145.0230 C   0  0  0  0  0  3  0  0  0  0  0  0
  192.9210  175.9210  146.9040 C   0  0  0  0  0  3  0  0  0  0  0  0
  187.8020  175.6910  142.7840 C   0  0  0  0  0  0  0  0  0  0  0  0
  186.4670  176.1020  142.8150 C   0  0  0  0  0  3  0  0  0  0  0  0
  191.7290  174.4060  142.5110 N   0  0  0  0  0  0  0  0  0  0  0  0
  192.2920  175.1670  144.6910 C   0  0  0  0  0  0  0  0  0  0  0  0
  193.2540  175.3080  145.6960 C   0  0  0  0  0  3  0  0  0  0  0  0
  191.0680  171.8450  135.8170 C   0  0  0  0  0  0  0  0  0  0  0  0
  190.6320  173.8150  137.1500 C   0  0  0  0  0  3  0  0  0  0  0  0
  188.9440  170.9050  138.6310 F   0  0  0  0  0  0  0  0  0  0  0  0
  191.6680  171.2450  134.7190 O   0  0  0  0  0  1  0  0  0  0  0  0
  191.2370  173.2120  136.0440 C   0  0  0  0  0  3  0  0  0  0  0  0
  189.6870  171.6800  137.8030 C   0  0  0  0  0  0  0  0  0  0  0  0
  189.8520  173.0620  138.0410 C   0  0  0  0  0  0  0  0  0  0  0  0
  190.2950  171.0830  136.6940 C   0  0  0  0  0  3  0  0  0  0  0  0
  1 11  1  0  0  0  0
  2  7  1  0  0  0  0
  2  3  1  0  0  0  0
  3  9  1  0  0  0  0
  4  5  2  0  0  0  0
  5 16  1  0  0  0  0
  6 13  1  0  0  0  0
  7 17  2  0  0  0  0
  8  1  2  0  0  0  0
  9  6  2  0  0  0  0
 10 14  2  0  0  0  0
 10 15  1  0  0  0  0
 12 22  1  0  0  0  0
 14 19  1  0  0  0  0
 15  2  2  0  0  0  0
 16 10  1  0  0  0  0
 17  1  1  0  0  0  0
 18  6  1  0  0  0  0
 19 20  2  0  0  0  0
 19  7  1  0  0  0  0
 20  8  1  0  0  0  0
 21 15  1  0  0  0  0
 21 12  2  0  0  0  0
 22  3  2  0  0  0  0
 22 23  1  0  0  0  0
 23 18  2  0  0  0  0
 24 28  2  0  0  0  0
 24 31  1  0  0  0  0
 25 30  2  0  0  0  0
 27 24  1  0  0  0  0
 28 25  1  0  0  0  0
 29 30  1  0  0  0  0
 29 26  1  0  0  0  0
 30  5  1  0  0  0  0
 31 29  2  0  0  0  0
M  END
>  <MODEL>
9

>  <REMARK>
 VINA RESULT:      -7.8      4.713      7.375
  Name = 
  1 active torsions:
  status: ('A' for Active; 'I' for Inactive)
    1  A    between atoms: C_5  and  C_30
                            x       y       z     vdW  Elec       q    Type
                         _______ _______ _______ _____ _____    ______ ____

>  <TORSDO>
F 1

$$$$
