=
 OpenBabel11112416363D

 32 37  0  0  1  0  0  0  0  0999 V2000
  184.8810  179.2410  144.1660 C   0  0  0  0  0  2  0  0  0  0  0  0
  189.3000  176.0910  143.7510 C   0  0  0  0  0  0  0  0  0  0  0  0
  189.5530  172.3530  140.7410 C   0  0  0  0  0  2  0  0  0  0  0  0
  190.8130  172.9270  140.0940 C   0  0  0  0  0  2  0  0  0  0  0  0
  191.3350  176.1520  145.3970 C   0  0  0  0  0  0  0  0  0  0  0  0
  192.5170  175.3860  145.9230 C   0  0  2  0  0  3  0  0  0  0  0  0
  187.0420  177.0550  144.4440 C   0  0  2  0  0  3  0  0  0  0  0  0
  187.3430  176.0360  142.1900 C   0  0  0  0  0  2  0  0  0  0  0  0
  194.6790  174.9460  145.1570 N   0  0  0  0  0  0  0  0  0  0  0  0
  185.2410  177.1930  142.6780 C   0  0  0  0  0  2  0  0  0  0  0  0
  188.7290  173.4170  141.4850 C   0  0  0  0  0  2  0  0  0  0  0  0
  188.7550  175.6810  142.5850 C   0  0  0  0  0  0  0  0  0  0  0  0
  189.4800  174.7440  141.6560 C   0  0  1  0  0  3  0  0  0  0  0  0
  191.4320  174.9410  143.2710 C   0  0  0  0  0  0  0  0  0  0  0  0
  194.7100  175.6960  146.4010 C   0  0  0  0  0  2  0  0  0  0  0  0
  185.0970  178.2930  145.1720 O   0  0  0  0  0  0  0  0  0  0  0  0
  186.7420  177.2150  142.9470 C   0  0  1  0  0  3  0  0  0  0  0  0
  193.4020  176.1880  146.6760 O   0  0  0  0  0  0  0  0  0  0  0  0
  186.4890  178.2130  145.2760 C   0  0  0  0  0  2  0  0  0  0  0  0
  184.5800  178.5680  142.8260 C   0  0  1  0  0  3  0  0  0  0  0  0
  191.6760  173.6060  141.1580 C   0  0  0  0  0  2  0  0  0  0  0  0
  190.8800  174.4900  142.0220 N   0  0  0  0  0  0  0  0  0  0  0  0
  192.8520  174.6380  143.5900 C   0  0  0  0  0  3  0  0  0  0  0  0
  188.5520  177.0520  144.6420 C   0  0  0  0  0  2  0  0  0  0  0  0
  190.8730  177.1120  146.0700 O   0  0  0  0  0  0  0  0  0  0  0  0
  195.7560  175.0200  144.1820 C   0  0  0  0  0  1  0  0  0  0  0  0
  190.6980  175.7070  144.1150 C   0  0  0  0  0  0  0  0  0  0  0  0
  193.3240  174.8600  144.8180 C   0  0  0  0  0  0  0  0  0  0  0  0
  183.1390  178.4410  142.6650 N   0  0  0  0  0  2  0  0  0  0  0  0
  182.5120  178.3470  141.3840 C   0  0  0  0  0  0  0  0  0  0  0  0
  183.1950  178.3940  140.3260 O   0  0  0  0  0  0  0  0  0  0  0  0
  181.0360  178.1930  141.2990 C   0  0  0  0  0  1  0  0  0  0  0  0
  1 16  1  0  0  0  0
  2 27  1  0  0  0  0
  2 24  1  0  0  0  0
  3 11  1  0  0  0  0
  4  3  1  0  0  0  0
  4 21  1  0  0  0  0
  5  6  1  0  0  0  0
  5 25  2  0  0  0  0
  6 28  1  6  0  0  0
  6 18  1  0  0  0  0
  7 24  1  6  0  0  0
  7 19  1  0  0  0  0
  8 12  1  0  0  0  0
  9 15  1  0  0  0  0
 10 20  1  0  0  0  0
 10 17  1  0  0  0  0
 12  2  2  0  0  0  0
 13 11  1  1  0  0  0
 13 22  1  0  0  0  0
 13 12  1  0  0  0  0
 14 23  1  0  0  0  0
 14 27  2  0  0  0  0
 15 18  1  0  0  0  0
 16 19  1  0  0  0  0
 17  8  1  6  0  0  0
 17  7  1  0  0  0  0
 20 29  1  1  0  0  0
 20  1  1  0  0  0  0
 21 22  1  0  0  0  0
 22 14  1  0  0  0  0
 23 28  2  0  0  0  0
 26  9  1  0  0  0  0
 27  5  1  0  0  0  0
 28  9  1  0  0  0  0
 30 29  1  0  0  0  0
 31 30  2  0  0  0  0
 32 30  1  0  0  0  0
M  END
>  <MODEL>
1

>  <REMARK>
 VINA RESULT:      -8.8      0.000      0.000
  Name = 
  1 active torsions:
  status: ('A' for Active; 'I' for Inactive)
    1  A    between atoms: C_20  and  N_29
                            x       y       z     vdW  Elec       q    Type
                         _______ _______ _______ _____ _____    ______ ____

>  <TORSDO>
F 1

$$$$
=
 OpenBabel11112416363D

 32 37  0  0  1  0  0  0  0  0999 V2000
  186.0340  178.7360  144.0390 C   0  0  0  0  0  2  0  0  0  0  0  0
  190.2530  175.3500  143.4320 C   0  0  0  0  0  0  0  0  0  0  0  0
  190.1630  171.6000  140.4270 C   0  0  0  0  0  2  0  0  0  0  0  0
  191.4210  172.1050  139.7200 C   0  0  0  0  0  2  0  0  0  0  0  0
  192.3630  175.3030  144.9810 C   0  0  0  0  0  0  0  0  0  0  0  0
  193.5240  174.4760  145.4550 C   0  0  2  0  0  3  0  0  0  0  0  0
  188.0850  176.4370  144.2250 C   0  0  2  0  0  3  0  0  0  0  0  0
  188.2260  175.4000  141.9630 C   0  0  0  0  0  2  0  0  0  0  0  0
  195.6220  173.9180  144.5910 N   0  0  0  0  0  0  0  0  0  0  0  0
  186.2140  176.6690  142.5440 C   0  0  0  0  0  2  0  0  0  0  0  0
  189.4340  172.7090  141.2050 C   0  0  0  0  0  2  0  0  0  0  0  0
  189.6330  174.9690  142.2940 C   0  0  0  0  0  0  0  0  0  0  0  0
  190.2620  173.9930  141.3360 C   0  0  1  0  0  3  0  0  0  0  0  0
  192.2950  174.0860  142.8580 C   0  0  0  0  0  0  0  0  0  0  0  0
  195.7510  174.6670  145.8290 C   0  0  0  0  0  2  0  0  0  0  0  0
  186.2460  177.7790  145.0380 O   0  0  0  0  0  0  0  0  0  0  0  0
  187.7250  176.6100  142.7430 C   0  0  1  0  0  3  0  0  0  0  0  0
  194.4860  175.2290  146.1630 O   0  0  0  0  0  0  0  0  0  0  0  0
  187.6350  177.6230  145.0780 C   0  0  0  0  0  2  0  0  0  0  0  0
  185.6360  178.0790  142.7170 C   0  0  1  0  0  3  0  0  0  0  0  0
  192.3680  172.7380  140.7400 C   0  0  0  0  0  2  0  0  0  0  0  0
  191.6620  173.6640  141.6370 N   0  0  0  0  0  0  0  0  0  0  0  0
  193.7100  173.7080  143.1120 C   0  0  0  0  0  3  0  0  0  0  0  0
  189.6000  176.3520  144.3530 C   0  0  0  0  0  2  0  0  0  0  0  0
  191.9850  176.2880  145.6710 O   0  0  0  0  0  0  0  0  0  0  0  0
  196.6550  173.9330  143.5670 C   0  0  0  0  0  1  0  0  0  0  0  0
  191.6440  174.8920  143.7320 C   0  0  0  0  0  0  0  0  0  0  0  0
  194.2500  173.9050  144.3160 C   0  0  0  0  0  0  0  0  0  0  0  0
  184.1840  178.0290  142.6240 N   0  0  0  0  0  2  0  0  0  0  0  0
  183.4830  178.2450  141.3970 C   0  0  0  0  0  0  0  0  0  0  0  0
  184.1080  178.5120  140.3360 O   0  0  0  0  0  0  0  0  0  0  0  0
  181.9990  178.1530  141.3740 C   0  0  0  0  0  1  0  0  0  0  0  0
  1 16  1  0  0  0  0
  2 27  1  0  0  0  0
  2 24  1  0  0  0  0
  3 11  1  0  0  0  0
  4  3  1  0  0  0  0
  4 21  1  0  0  0  0
  5  6  1  0  0  0  0
  5 25  2  0  0  0  0
  6 28  1  6  0  0  0
  6 18  1  0  0  0  0
  7 24  1  6  0  0  0
  7 19  1  0  0  0  0
  8 12  1  0  0  0  0
  9 15  1  0  0  0  0
 10 20  1  0  0  0  0
 10 17  1  0  0  0  0
 12  2  2  0  0  0  0
 13 11  1  1  0  0  0
 13 22  1  0  0  0  0
 13 12  1  0  0  0  0
 14 23  1  0  0  0  0
 14 27  2  0  0  0  0
 15 18  1  0  0  0  0
 16 19  1  0  0  0  0
 17  8  1  6  0  0  0
 17  7  1  0  0  0  0
 20 29  1  1  0  0  0
 20  1  1  0  0  0  0
 21 22  1  0  0  0  0
 22 14  1  0  0  0  0
 23 28  2  0  0  0  0
 26  9  1  0  0  0  0
 27  5  1  0  0  0  0
 28  9  1  0  0  0  0
 30 29  1  0  0  0  0
 31 30  2  0  0  0  0
 32 30  1  0  0  0  0
M  END
>  <MODEL>
2

>  <REMARK>
 VINA RESULT:      -8.3      1.096      1.255
  Name = 
  1 active torsions:
  status: ('A' for Active; 'I' for Inactive)
    1  A    between atoms: C_20  and  N_29
                            x       y       z     vdW  Elec       q    Type
                         _______ _______ _______ _____ _____    ______ ____

>  <TORSDO>
F 1

$$$$
=
 OpenBabel11112416363D

 32 37  0  0  1  0  0  0  0  0999 V2000
  189.6820  173.4870  138.6680 C   0  0  0  0  0  2  0  0  0  0  0  0
  188.8130  175.4810  143.6580 C   0  0  0  0  0  0  0  0  0  0  0  0
  191.9410  174.9160  147.2630 C   0  0  0  0  0  2  0  0  0  0  0  0
  192.0060  176.4280  147.4770 C   0  0  0  0  0  2  0  0  0  0  0  0
  186.5390  176.4740  144.4920 C   0  0  0  0  0  0  0  0  0  0  0  0
  185.7100  176.8070  145.7010 C   0  0  2  0  0  3  0  0  0  0  0  0
  188.8900  173.9550  141.6150 C   0  0  2  0  0  3  0  0  0  0  0  0
  190.9800  174.5190  142.8510 C   0  0  0  0  0  2  0  0  0  0  0  0
  185.6730  178.5510  147.2540 N   0  0  0  0  0  0  0  0  0  0  0  0
  191.1650  173.2880  140.7420 C   0  0  0  0  0  2  0  0  0  0  0  0
  191.4310  174.5350  145.8630 C   0  0  0  0  0  2  0  0  0  0  0  0
  190.1380  175.2870  143.8390 C   0  0  0  0  0  0  0  0  0  0  0  0
  190.8390  175.7250  145.0970 C   0  0  1  0  0  3  0  0  0  0  0  0
  188.6080  176.7350  145.7760 C   0  0  0  0  0  0  0  0  0  0  0  0
  184.4250  178.4880  146.5130 C   0  0  0  0  0  2  0  0  0  0  0  0
  188.7880  172.7970  139.4940 O   0  0  0  0  0  0  0  0  0  0  0  0
  190.3630  174.3650  141.4660 C   0  0  1  0  0  3  0  0  0  0  0  0
  184.5940  177.6180  145.3980 O   0  0  0  0  0  0  0  0  0  0  0  0
  188.1890  173.7990  140.2650 C   0  0  0  0  0  2  0  0  0  0  0  0
  191.1090  173.4160  139.2150 C   0  0  1  0  0  3  0  0  0  0  0  0
  190.6260  177.0420  147.2380 C   0  0  0  0  0  2  0  0  0  0  0  0
  190.0170  176.5470  145.9950 N   0  0  0  0  0  0  0  0  0  0  0  0
  187.8270  177.5640  146.7300 C   0  0  0  0  0  3  0  0  0  0  0  0
  188.1520  175.0520  142.3710 C   0  0  0  0  0  2  0  0  0  0  0  0
  185.9740  176.3480  143.3720 O   0  0  0  0  0  0  0  0  0  0  0  0
  186.1670  179.7910  147.8330 C   0  0  0  0  0  1  0  0  0  0  0  0
  188.0080  176.2350  144.6670 C   0  0  0  0  0  0  0  0  0  0  0  0
  186.4940  177.5820  146.6670 C   0  0  0  0  0  0  0  0  0  0  0  0
  191.8030  172.2930  138.6020 N   0  0  0  0  0  2  0  0  0  0  0  0
  192.6240  172.4350  137.4410 C   0  0  0  0  0  0  0  0  0  0  0  0
  192.7610  173.5560  136.8820 O   0  0  0  0  0  0  0  0  0  0  0  0
  193.3220  171.2450  136.8860 C   0  0  0  0  0  1  0  0  0  0  0  0
  1 20  1  0  0  0  0
  1 16  1  0  0  0  0
  2 12  2  0  0  0  0
  2 27  1  0  0  0  0
  3  4  1  0  0  0  0
  5 27  1  0  0  0  0
  6  5  1  6  0  0  0
  6 28  1  0  0  0  0
  7 19  1  6  0  0  0
  7 24  1  0  0  0  0
  8 12  1  0  0  0  0
  9 26  1  0  0  0  0
 11  3  1  0  0  0  0
 12 13  1  0  0  0  0
 13 11  1  1  0  0  0
 13 22  1  0  0  0  0
 14 22  1  0  0  0  0
 14 23  1  0  0  0  0
 15  9  1  0  0  0  0
 16 19  1  0  0  0  0
 17 10  1  6  0  0  0
 17  7  1  0  0  0  0
 17  8  1  0  0  0  0
 18  6  1  0  0  0  0
 18 15  1  0  0  0  0
 20 29  1  6  0  0  0
 20 10  1  0  0  0  0
 21  4  1  0  0  0  0
 22 21  1  0  0  0  0
 24  2  1  0  0  0  0
 25  5  2  0  0  0  0
 27 14  2  0  0  0  0
 28 23  2  0  0  0  0
 28  9  1  0  0  0  0
 30 29  1  0  0  0  0
 31 30  2  0  0  0  0
 32 30  1  0  0  0  0
M  END
>  <MODEL>
3

>  <REMARK>
 VINA RESULT:      -8.1      3.259      7.778
  Name = 
  1 active torsions:
  status: ('A' for Active; 'I' for Inactive)
    1  A    between atoms: C_20  and  N_29
                            x       y       z     vdW  Elec       q    Type
                         _______ _______ _______ _____ _____    ______ ____

>  <TORSDO>
F 1

$$$$
=
 OpenBabel11112416363D

 32 37  0  0  1  0  0  0  0  0999 V2000
  185.3690  178.2990  143.3770 C   0  0  0  0  0  2  0  0  0  0  0  0
  188.7810  174.5580  141.3800 C   0  0  0  0  0  0  0  0  0  0  0  0
  192.3830  172.6890  143.9550 C   0  0  0  0  0  2  0  0  0  0  0  0
  191.8630  171.2740  143.7010 C   0  0  0  0  0  2  0  0  0  0  0  0
  188.9300  173.8700  138.8580 C   0  0  0  0  0  0  0  0  0  0  0  0
  189.7960  173.2410  137.8030 C   0  0  2  0  0  3  0  0  0  0  0  0
  187.7030  176.7680  142.0600 C   0  0  2  0  0  3  0  0  0  0  0  0
  188.6330  175.2310  143.7870 C   0  0  0  0  0  2  0  0  0  0  0  0
  190.3410  171.0520  137.1970 N   0  0  0  0  0  0  0  0  0  0  0  0
  187.3650  177.1910  144.5280 C   0  0  0  0  0  2  0  0  0  0  0  0
  191.3030  173.7640  143.7500 C   0  0  0  0  0  2  0  0  0  0  0  0
  189.0990  174.3280  142.6730 C   0  0  0  0  0  0  0  0  0  0  0  0
  190.0370  173.2210  143.0740 C   0  0  1  0  0  3  0  0  0  0  0  0
  190.0450  172.5790  140.6150 C   0  0  0  0  0  0  0  0  0  0  0  0
  189.6540  171.7350  136.1160 C   0  0  0  0  0  2  0  0  0  0  0  0
  186.3750  178.7380  142.5090 O   0  0  0  0  0  0  0  0  0  0  0  0
  187.4540  176.1300  143.4350 C   0  0  1  0  0  3  0  0  0  0  0  0
  189.0900  172.9430  136.6170 O   0  0  0  0  0  0  0  0  0  0  0  0
  186.5520  177.6730  141.6200 C   0  0  0  0  0  2  0  0  0  0  0  0
  185.9570  177.7760  144.6880 C   0  0  1  0  0  3  0  0  0  0  0  0
  191.2930  171.1800  142.2860 C   0  0  0  0  0  2  0  0  0  0  0  0
  190.4000  172.3070  141.9820 N   0  0  0  0  0  0  0  0  0  0  0  0
  190.4550  171.6240  139.5530 C   0  0  0  0  0  3  0  0  0  0  0  0
  187.8150  175.6600  141.0210 C   0  0  0  0  0  2  0  0  0  0  0  0
  187.9740  174.6140  138.5090 O   0  0  0  0  0  0  0  0  0  0  0  0
  190.2930  169.6070  137.3550 C   0  0  0  0  0  1  0  0  0  0  0  0
  189.2730  173.6480  140.3000 C   0  0  0  0  0  0  0  0  0  0  0  0
  190.3230  171.9540  138.2670 C   0  0  0  0  0  0  0  0  0  0  0  0
  185.9820  178.8530  145.6670 N   0  0  0  0  0  2  0  0  0  0  0  0
  186.0040  178.6130  147.0760 C   0  0  0  0  0  0  0  0  0  0  0  0
  185.9800  177.4380  147.5310 O   0  0  0  0  0  0  0  0  0  0  0  0
  186.0540  179.7650  148.0150 C   0  0  0  0  0  1  0  0  0  0  0  0
  1 20  1  0  0  0  0
  2 12  2  0  0  0  0
  4  3  1  0  0  0  0
  5 27  1  0  0  0  0
  6 18  1  6  0  0  0
  6 28  1  0  0  0  0
  6  5  1  0  0  0  0
  7 24  1  6  0  0  0
  7 17  1  0  0  0  0
  9 26  1  0  0  0  0
  9 28  1  0  0  0  0
 10 20  1  0  0  0  0
 11  3  1  0  0  0  0
 12 13  1  0  0  0  0
 12  8  1  0  0  0  0
 13 11  1  6  0  0  0
 14 22  1  0  0  0  0
 15 18  1  0  0  0  0
 15  9  1  0  0  0  0
 16  1  1  0  0  0  0
 17  8  1  1  0  0  0
 17 10  1  0  0  0  0
 19  7  1  0  0  0  0
 19 16  1  0  0  0  0
 20 29  1  1  0  0  0
 21  4  1  0  0  0  0
 22 21  1  0  0  0  0
 22 13  1  0  0  0  0
 23 14  1  0  0  0  0
 24  2  1  0  0  0  0
 25  5  2  0  0  0  0
 27 14  2  0  0  0  0
 27  2  1  0  0  0  0
 28 23  2  0  0  0  0
 29 30  1  0  0  0  0
 30 31  2  0  0  0  0
 30 32  1  0  0  0  0
M  END
>  <MODEL>
4

>  <REMARK>
 VINA RESULT:      -7.8      3.084      5.988
  Name = 
  1 active torsions:
  status: ('A' for Active; 'I' for Inactive)
    1  A    between atoms: C_20  and  N_29
                            x       y       z     vdW  Elec       q    Type
                         _______ _______ _______ _____ _____    ______ ____

>  <TORSDO>
F 1

$$$$
=
 OpenBabel11112416363D

 32 37  0  0  1  0  0  0  0  0999 V2000
  193.5180  173.3160  139.5230 C   0  0  0  0  0  2  0  0  0  0  0  0
  190.1170  175.4280  143.2100 C   0  0  0  0  0  0  0  0  0  0  0  0
  191.1010  175.4980  147.9140 C   0  0  0  0  0  2  0  0  0  0  0  0
  190.9060  177.0130  147.9580 C   0  0  0  0  0  2  0  0  0  0  0  0
  187.6430  176.1360  142.7250 C   0  0  0  0  0  0  0  0  0  0  0  0
  186.2990  176.4120  143.3380 C   0  0  2  0  0  3  0  0  0  0  0  0
  191.3370  173.8230  141.6470 C   0  0  2  0  0  3  0  0  0  0  0  0
  192.4810  174.7390  143.6630 C   0  0  0  0  0  2  0  0  0  0  0  0
  185.3330  178.2140  144.4690 N   0  0  0  0  0  0  0  0  0  0  0  0
  193.7990  173.4360  142.0620 C   0  0  0  0  0  2  0  0  0  0  0  0
  191.3860  174.9760  146.4960 C   0  0  0  0  0  2  0  0  0  0  0  0
  191.1920  175.4320  144.0280 C   0  0  0  0  0  0  0  0  0  0  0  0
  191.1370  176.0300  145.4090 C   0  0  1  0  0  3  0  0  0  0  0  0
  188.7750  176.7510  144.8070 C   0  0  0  0  0  0  0  0  0  0  0  0
  184.6260  177.9370  143.2310 C   0  0  0  0  0  2  0  0  0  0  0  0
  192.4040  172.5520  139.8890 O   0  0  0  0  0  0  0  0  0  0  0  0
  192.6440  174.4270  142.1800 C   0  0  1  0  0  3  0  0  0  0  0  0
  185.4050  177.0420  142.4440 O   0  0  0  0  0  0  0  0  0  0  0  0
  191.4100  173.4990  140.1550 C   0  0  0  0  0  2  0  0  0  0  0  0
  194.4900  173.4740  140.6940 C   0  0  1  0  0  3  0  0  0  0  0  0
  189.7710  177.4150  147.0150 C   0  0  0  0  0  2  0  0  0  0  0  0
  189.9040  176.7740  145.6990 N   0  0  0  0  0  0  0  0  0  0  0  0
  187.5500  177.5120  145.1650 C   0  0  0  0  0  3  0  0  0  0  0  0
  190.2210  174.8430  141.8230 C   0  0  0  0  0  2  0  0  0  0  0  0
  187.7190  175.8730  141.4940 O   0  0  0  0  0  0  0  0  0  0  0  0
  185.3570  179.5390  145.0670 C   0  0  0  0  0  1  0  0  0  0  0  0
  188.8510  176.1150  143.6120 C   0  0  0  0  0  0  0  0  0  0  0  0
  186.4270  177.3390  144.4660 C   0  0  0  0  0  0  0  0  0  0  0  0
  195.5000  172.4290  140.6250 N   0  0  0  0  0  2  0  0  0  0  0  0
  196.8840  172.6760  140.8840 C   0  0  0  0  0  0  0  0  0  0  0  0
  197.2900  173.8350  141.1650 O   0  0  0  0  0  0  0  0  0  0  0  0
  197.8540  171.5510  140.8190 C   0  0  0  0  0  1  0  0  0  0  0  0
  1 16  1  0  0  0  0
  1 20  1  0  0  0  0
  2 27  1  0  0  0  0
  2 12  2  0  0  0  0
  3  4  1  0  0  0  0
  5  6  1  0  0  0  0
  5 27  1  0  0  0  0
  6 18  1  6  0  0  0
  6 28  1  0  0  0  0
  7 19  1  6  0  0  0
  7 24  1  0  0  0  0
  7 17  1  0  0  0  0
  8 12  1  0  0  0  0
  9 26  1  0  0  0  0
 11  3  1  0  0  0  0
 12 13  1  0  0  0  0
 13 22  1  0  0  0  0
 13 11  1  1  0  0  0
 14 23  1  0  0  0  0
 14 22  1  0  0  0  0
 15  9  1  0  0  0  0
 16 19  1  0  0  0  0
 17 10  1  1  0  0  0
 17  8  1  0  0  0  0
 18 15  1  0  0  0  0
 20 29  1  1  0  0  0
 20 10  1  0  0  0  0
 21  4  1  0  0  0  0
 22 21  1  0  0  0  0
 24  2  1  0  0  0  0
 25  5  2  0  0  0  0
 27 14  2  0  0  0  0
 28  9  1  0  0  0  0
 28 23  2  0  0  0  0
 29 30  1  0  0  0  0
 30 31  2  0  0  0  0
 32 30  1  0  0  0  0
M  END
>  <MODEL>
5

>  <REMARK>
 VINA RESULT:      -7.6      3.055      8.932
  Name = 
  1 active torsions:
  status: ('A' for Active; 'I' for Inactive)
    1  A    between atoms: C_20  and  N_29
                            x       y       z     vdW  Elec       q    Type
                         _______ _______ _______ _____ _____    ______ ____

>  <TORSDO>
F 1

$$$$
=
 OpenBabel11112416363D

 32 37  0  0  1  0  0  0  0  0999 V2000
  186.1720  176.2140  142.8060 C   0  0  0  0  0  2  0  0  0  0  0  0
  191.4740  174.9900  142.6670 C   0  0  0  0  0  0  0  0  0  0  0  0
  194.6260  176.7290  145.8520 C   0  0  0  0  0  2  0  0  0  0  0  0
  195.0680  175.3140  146.2240 C   0  0  0  0  0  2  0  0  0  0  0  0
  192.6700  173.7600  140.6890 C   0  0  0  0  0  0  0  0  0  0  0  0
  193.9900  173.4970  140.0220 C   0  0  2  0  0  3  0  0  0  0  0  0
  189.2180  176.1270  142.3130 C   0  0  2  0  0  3  0  0  0  0  0  0
  190.3200  176.1740  144.5480 C   0  0  0  0  0  2  0  0  0  0  0  0
  195.7950  172.0700  140.4260 N   0  0  0  0  0  0  0  0  0  0  0  0
  188.0350  177.0350  144.3530 C   0  0  0  0  0  2  0  0  0  0  0  0
  193.2390  176.7630  145.1870 C   0  0  0  0  0  2  0  0  0  0  0  0
  191.4940  175.4490  143.9380 C   0  0  0  0  0  0  0  0  0  0  0  0
  192.7310  175.3700  144.7910 C   0  0  1  0  0  3  0  0  0  0  0  0
  193.7730  174.1060  142.8480 C   0  0  0  0  0  0  0  0  0  0  0  0
  195.1770  171.7770  139.1450 C   0  0  0  0  0  2  0  0  0  0  0  0
  186.9620  176.8620  141.8490 O   0  0  0  0  0  0  0  0  0  0  0  0
  188.9940  175.9720  143.8240 C   0  0  1  0  0  3  0  0  0  0  0  0
  193.9280  172.4570  139.0680 O   0  0  0  0  0  0  0  0  0  0  0  0
  187.9350  175.9180  141.5080 C   0  0  0  0  0  2  0  0  0  0  0  0
  186.5610  176.6370  144.2230 C   0  0  1  0  0  3  0  0  0  0  0  0
  195.0640  174.4280  144.9780 C   0  0  0  0  0  2  0  0  0  0  0  0
  193.8230  174.5820  144.2050 N   0  0  0  0  0  0  0  0  0  0  0  0
  194.9170  173.3260  142.3070 C   0  0  0  0  0  3  0  0  0  0  0  0
  190.2050  175.0630  141.8530 C   0  0  0  0  0  2  0  0  0  0  0  0
  191.6040  173.5860  140.0400 O   0  0  0  0  0  0  0  0  0  0  0  0
  196.5110  171.0600  141.1890 C   0  0  0  0  0  1  0  0  0  0  0  0
  192.6620  174.2880  142.0920 C   0  0  0  0  0  0  0  0  0  0  0  0
  194.9860  173.0560  141.0030 C   0  0  0  0  0  0  0  0  0  0  0  0
  185.7150  177.7440  144.6440 N   0  0  0  0  0  2  0  0  0  0  0  0
  184.8960  177.6870  145.8140 C   0  0  0  0  0  0  0  0  0  0  0  0
  184.8600  176.6480  146.5260 O   0  0  0  0  0  0  0  0  0  0  0  0
  184.0770  178.8680  146.1940 C   0  0  0  0  0  1  0  0  0  0  0  0
  1 20  1  0  0  0  0
  2 12  2  0  0  0  0
  3  4  1  0  0  0  0
  5 27  1  0  0  0  0
  6 18  1  6  0  0  0
  6  5  1  0  0  0  0
  6 28  1  0  0  0  0
  7 19  1  6  0  0  0
  7 17  1  0  0  0  0
  9 28  1  0  0  0  0
  9 26  1  0  0  0  0
 11  3  1  0  0  0  0
 12  8  1  0  0  0  0
 12 13  1  0  0  0  0
 13 11  1  6  0  0  0
 14 22  1  0  0  0  0
 15  9  1  0  0  0  0
 16  1  1  0  0  0  0
 17 10  1  1  0  0  0
 17  8  1  0  0  0  0
 18 15  1  0  0  0  0
 19 16  1  0  0  0  0
 20 10  1  0  0  0  0
 20 29  1  6  0  0  0
 21  4  1  0  0  0  0
 22 13  1  0  0  0  0
 22 21  1  0  0  0  0
 23 14  1  0  0  0  0
 24  7  1  0  0  0  0
 24  2  1  0  0  0  0
 25  5  2  0  0  0  0
 27  2  1  0  0  0  0
 27 14  2  0  0  0  0
 28 23  2  0  0  0  0
 29 30  1  0  0  0  0
 30 32  1  0  0  0  0
 30 31  2  0  0  0  0
M  END
>  <MODEL>
6

>  <REMARK>
 VINA RESULT:      -7.5      2.974      5.150
  Name = 
  1 active torsions:
  status: ('A' for Active; 'I' for Inactive)
    1  A    between atoms: C_20  and  N_29
                            x       y       z     vdW  Elec       q    Type
                         _______ _______ _______ _____ _____    ______ ____

>  <TORSDO>
F 1

$$$$
=
 OpenBabel11112416363D

 32 37  0  0  1  0  0  0  0  0999 V2000
  188.0170  177.2770  146.9280 C   0  0  0  0  0  2  0  0  0  0  0  0
  191.6520  174.4710  144.0040 C   0  0  0  0  0  0  0  0  0  0  0  0
  190.8310  173.0870  139.4750 C   0  0  0  0  0  2  0  0  0  0  0  0
  192.1020  173.7920  139.0040 C   0  0  0  0  0  2  0  0  0  0  0  0
  193.8230  173.3790  144.9760 C   0  0  0  0  0  0  0  0  0  0  0  0
  194.8780  172.3310  144.7560 C   0  0  2  0  0  3  0  0  0  0  0  0
  189.7180  175.1050  145.5440 C   0  0  2  0  0  3  0  0  0  0  0  0
  189.5660  175.5140  143.0900 C   0  0  0  0  0  2  0  0  0  0  0  0
  196.8150  172.1780  143.4590 N   0  0  0  0  0  0  0  0  0  0  0  0
  187.8010  176.4040  144.5350 C   0  0  0  0  0  2  0  0  0  0  0  0
  190.3200  173.6230  140.8240 C   0  0  0  0  0  2  0  0  0  0  0  0
  190.9130  174.8520  142.9390 C   0  0  0  0  0  0  0  0  0  0  0  0
  191.3330  174.5350  141.5280 C   0  0  1  0  0  3  0  0  0  0  0  0
  193.4480  173.5790  142.5640 C   0  0  0  0  0  0  0  0  0  0  0  0
  197.1280  172.0860  144.8740 C   0  0  0  0  0  2  0  0  0  0  0  0
  188.1480  175.9100  147.1970 O   0  0  0  0  0  0  0  0  0  0  0  0
  189.2970  176.1130  144.4650 C   0  0  1  0  0  3  0  0  0  0  0  0
  195.9820  172.4690  145.6270 O   0  0  0  0  0  0  0  0  0  0  0  0
  189.4990  175.6400  146.9590 C   0  0  0  0  0  2  0  0  0  0  0  0
  187.4460  177.5150  145.5300 C   0  0  1  0  0  3  0  0  0  0  0  0
  193.1930  173.6560  140.0670 C   0  0  0  0  0  2  0  0  0  0  0  0
  192.6860  173.9740  141.4100 N   0  0  0  0  0  0  0  0  0  0  0  0
  194.8050  173.0020  142.3780 C   0  0  0  0  0  3  0  0  0  0  0  0
  191.2100  174.8330  145.4020 C   0  0  0  0  0  2  0  0  0  0  0  0
  193.6360  173.8320  146.1370 O   0  0  0  0  0  0  0  0  0  0  0  0
  197.7740  172.6770  142.4860 C   0  0  0  0  0  1  0  0  0  0  0  0
  192.9760  173.8050  143.8150 C   0  0  0  0  0  0  0  0  0  0  0  0
  195.4410  172.4400  143.4070 C   0  0  0  0  0  0  0  0  0  0  0  0
  186.0000  177.6520  145.6180 N   0  0  0  0  0  2  0  0  0  0  0  0
  185.3070  178.8180  145.1670 C   0  0  0  0  0  0  0  0  0  0  0  0
  185.9380  179.7980  144.6870 O   0  0  0  0  0  0  0  0  0  0  0  0
  183.8250  178.8760  145.2660 C   0  0  0  0  0  1  0  0  0  0  0  0
  1 16  1  0  0  0  0
  2 24  1  0  0  0  0
  3 11  1  0  0  0  0
  4  3  1  0  0  0  0
  4 21  1  0  0  0  0
  5 25  2  0  0  0  0
  6 28  1  6  0  0  0
  6  5  1  0  0  0  0
  6 18  1  0  0  0  0
  7 24  1  6  0  0  0
  7 19  1  0  0  0  0
  9 15  1  0  0  0  0
 10 20  1  0  0  0  0
 12  8  1  0  0  0  0
 12  2  2  0  0  0  0
 13 11  1  1  0  0  0
 13 12  1  0  0  0  0
 14 27  2  0  0  0  0
 15 18  1  0  0  0  0
 17  8  1  6  0  0  0
 17 10  1  0  0  0  0
 17  7  1  0  0  0  0
 19 16  1  0  0  0  0
 20 29  1  1  0  0  0
 20  1  1  0  0  0  0
 21 22  1  0  0  0  0
 22 13  1  0  0  0  0
 22 14  1  0  0  0  0
 23 14  1  0  0  0  0
 23 28  2  0  0  0  0
 26  9  1  0  0  0  0
 27  2  1  0  0  0  0
 27  5  1  0  0  0  0
 28  9  1  0  0  0  0
 30 32  1  0  0  0  0
 30 29  1  0  0  0  0
 31 30  2  0  0  0  0
M  END
>  <MODEL>
7

>  <REMARK>
 VINA RESULT:      -7.2      2.443      3.575
  Name = 
  1 active torsions:
  status: ('A' for Active; 'I' for Inactive)
    1  A    between atoms: C_20  and  N_29
                            x       y       z     vdW  Elec       q    Type
                         _______ _______ _______ _____ _____    ______ ____

>  <TORSDO>
F 1

$$$$
=
 OpenBabel11112416363D

 32 37  0  0  1  0  0  0  0  0999 V2000
  189.1090  177.7380  144.3290 C   0  0  0  0  0  2  0  0  0  0  0  0
  193.5250  174.7880  143.1340 C   0  0  0  0  0  0  0  0  0  0  0  0
  194.9400  171.0380  145.7860 C   0  0  0  0  0  2  0  0  0  0  0  0
  194.9120  170.1280  144.5580 C   0  0  0  0  0  2  0  0  0  0  0  0
  195.3240  175.4510  141.3510 C   0  0  0  0  0  0  0  0  0  0  0  0
  196.7410  175.2430  140.8950 C   0  0  2  0  0  3  0  0  0  0  0  0
  191.9470  176.5450  144.0990 C   0  0  2  0  0  3  0  0  0  0  0  0
  191.8020  174.1710  144.8430 C   0  0  0  0  0  2  0  0  0  0  0  0
  197.8630  173.6010  139.6700 N   0  0  0  0  0  0  0  0  0  0  0  0
  190.0770  175.7380  145.5940 C   0  0  0  0  0  2  0  0  0  0  0  0
  194.0840  172.3030  145.6070 C   0  0  0  0  0  2  0  0  0  0  0  0
  192.9920  173.8670  143.9660 C   0  0  0  0  0  0  0  0  0  0  0  0
  193.6210  172.5140  144.1600 C   0  0  1  0  0  3  0  0  0  0  0  0
  195.2650  173.2180  142.3550 C   0  0  0  0  0  0  0  0  0  0  0  0
  197.9150  174.8840  138.9900 C   0  0  0  0  0  2  0  0  0  0  0  0
  190.3580  178.2830  144.6480 O   0  0  0  0  0  0  0  0  0  0  0  0
  190.9890  175.3890  144.4220 C   0  0  1  0  0  3  0  0  0  0  0  0
  196.9900  175.7720  139.6100 O   0  0  0  0  0  0  0  0  0  0  0  0
  191.2090  177.8050  143.6460 C   0  0  0  0  0  2  0  0  0  0  0  0
  188.8140  176.4970  145.1730 C   0  0  1  0  0  3  0  0  0  0  0  0
  195.3780  170.9060  143.3270 C   0  0  0  0  0  2  0  0  0  0  0  0
  194.7190  172.2160  143.2300 N   0  0  0  0  0  0  0  0  0  0  0  0
  196.3870  172.8600  141.4480 C   0  0  0  0  0  3  0  0  0  0  0  0
  192.8490  176.1240  142.9460 C   0  0  0  0  0  2  0  0  0  0  0  0
  194.7020  176.4830  140.9800 O   0  0  0  0  0  0  0  0  0  0  0  0
  197.9410  172.3400  138.9490 C   0  0  0  0  0  1  0  0  0  0  0  0
  194.7140  174.4550  142.2900 C   0  0  0  0  0  0  0  0  0  0  0  0
  197.0430  173.8130  140.7850 C   0  0  0  0  0  0  0  0  0  0  0  0
  188.0590  176.8880  146.3540 N   0  0  0  0  0  2  0  0  0  0  0  0
  186.6330  176.9810  146.3610 C   0  0  0  0  0  0  0  0  0  0  0  0
  185.9660  176.7450  145.3190 O   0  0  0  0  0  0  0  0  0  0  0  0
  185.9290  177.3630  147.6140 C   0  0  0  0  0  1  0  0  0  0  0  0
  1 16  1  0  0  0  0
  1 20  1  0  0  0  0
  2 12  2  0  0  0  0
  4  3  1  0  0  0  0
  5 27  1  0  0  0  0
  6 18  1  6  0  0  0
  6  5  1  0  0  0  0
  7 24  1  6  0  0  0
  7 17  1  0  0  0  0
  9 28  1  0  0  0  0
 11  3  1  0  0  0  0
 12 13  1  0  0  0  0
 12  8  1  0  0  0  0
 13 11  1  1  0  0  0
 14 22  1  0  0  0  0
 15 18  1  0  0  0  0
 15  9  1  0  0  0  0
 17  8  1  1  0  0  0
 17 10  1  0  0  0  0
 19  7  1  0  0  0  0
 19 16  1  0  0  0  0
 20 10  1  0  0  0  0
 20 29  1  1  0  0  0
 21  4  1  0  0  0  0
 22 21  1  0  0  0  0
 22 13  1  0  0  0  0
 23 14  1  0  0  0  0
 24  2  1  0  0  0  0
 25  5  2  0  0  0  0
 26  9  1  0  0  0  0
 27 14  2  0  0  0  0
 27  2  1  0  0  0  0
 28  6  1  0  0  0  0
 28 23  2  0  0  0  0
 29 30  1  0  0  0  0
 30 32  1  0  0  0  0
 31 30  2  0  0  0  0
M  END
>  <MODEL>
8

>  <REMARK>
 VINA RESULT:      -7.1      3.647      5.872
  Name = 
  1 active torsions:
  status: ('A' for Active; 'I' for Inactive)
    1  A    between atoms: C_20  and  N_29
                            x       y       z     vdW  Elec       q    Type
                         _______ _______ _______ _____ _____    ______ ____

>  <TORSDO>
F 1

$$$$
=
 OpenBabel11112416363D

 32 37  0  0  1  0  0  0  0  0999 V2000
  185.9980  177.1940  143.5580 C   0  0  0  0  0  2  0  0  0  0  0  0
  190.1820  173.9700  142.2430 C   0  0  0  0  0  0  0  0  0  0  0  0
  193.9920  173.3600  145.1090 C   0  0  0  0  0  2  0  0  0  0  0  0
  193.7860  171.8460  145.1020 C   0  0  0  0  0  2  0  0  0  0  0  0
  190.5670  172.9150  139.8780 C   0  0  0  0  0  0  0  0  0  0  0  0
  191.5830  172.3130  138.9490 C   0  0  2  0  0  3  0  0  0  0  0  0
  188.6460  175.9870  142.5290 C   0  0  2  0  0  3  0  0  0  0  0  0
  189.8080  174.9930  144.4980 C   0  0  0  0  0  2  0  0  0  0  0  0
  192.5910  170.2170  138.7310 N   0  0  0  0  0  0  0  0  0  0  0  0
  188.1340  176.7390  144.8860 C   0  0  0  0  0  2  0  0  0  0  0  0
  192.7220  174.1350  144.7200 C   0  0  0  0  0  2  0  0  0  0  0  0
  190.4920  174.0330  143.5570 C   0  0  0  0  0  0  0  0  0  0  0  0
  191.6220  173.2320  144.1450 C   0  0  1  0  0  3  0  0  0  0  0  0
  191.8560  172.2010  141.8340 C   0  0  0  0  0  0  0  0  0  0  0  0
  191.8190  170.5490  137.5470 C   0  0  0  0  0  2  0  0  0  0  0  0
  186.9240  177.6810  142.6290 O   0  0  0  0  0  0  0  0  0  0  0  0
  188.4830  175.5520  143.9930 C   0  0  1  0  0  3  0  0  0  0  0  0
  191.0000  171.6780  137.8310 O   0  0  0  0  0  0  0  0  0  0  0  0
  187.3510  176.5430  141.9380 C   0  0  0  0  0  2  0  0  0  0  0  0
  186.6310  177.0340  144.9410 C   0  0  1  0  0  3  0  0  0  0  0  0
  193.3010  171.3970  143.7230 C   0  0  0  0  0  2  0  0  0  0  0  0
  192.2070  172.2440  143.2280 N   0  0  0  0  0  0  0  0  0  0  0  0
  192.4950  171.1890  140.9530 C   0  0  0  0  0  3  0  0  0  0  0  0
  189.0240  174.7690  141.6970 C   0  0  0  0  0  2  0  0  0  0  0  0
  189.4910  173.3720  139.4040 O   0  0  0  0  0  0  0  0  0  0  0  0
  192.8360  168.8420  139.1360 C   0  0  0  0  0  1  0  0  0  0  0  0
  190.8920  173.0160  141.3380 C   0  0  0  0  0  0  0  0  0  0  0  0
  192.3460  171.2630  139.6300 C   0  0  0  0  0  0  0  0  0  0  0  0
  186.3960  178.2420  145.7190 N   0  0  0  0  0  2  0  0  0  0  0  0
  186.1480  178.2150  147.1270 C   0  0  0  0  0  0  0  0  0  0  0  0
  186.1020  177.1220  147.7520 O   0  0  0  0  0  0  0  0  0  0  0  0
  185.9420  179.4920  147.8590 C   0  0  0  0  0  1  0  0  0  0  0  0
  1 20  1  0  0  0  0
  2 12  2  0  0  0  0
  4  3  1  0  0  0  0
  5 27  1  0  0  0  0
  6 18  1  6  0  0  0
  6 28  1  0  0  0  0
  6  5  1  0  0  0  0
  7 24  1  6  0  0  0
  7 17  1  0  0  0  0
  9 26  1  0  0  0  0
  9 28  1  0  0  0  0
 10 20  1  0  0  0  0
 11  3  1  0  0  0  0
 12 13  1  0  0  0  0
 12  8  1  0  0  0  0
 13 11  1  6  0  0  0
 14 22  1  0  0  0  0
 15 18  1  0  0  0  0
 15  9  1  0  0  0  0
 16  1  1  0  0  0  0
 17  8  1  1  0  0  0
 17 10  1  0  0  0  0
 19  7  1  0  0  0  0
 19 16  1  0  0  0  0
 20 29  1  1  0  0  0
 21  4  1  0  0  0  0
 22 21  1  0  0  0  0
 22 13  1  0  0  0  0
 23 14  1  0  0  0  0
 24  2  1  0  0  0  0
 25  5  2  0  0  0  0
 27 14  2  0  0  0  0
 27  2  1  0  0  0  0
 28 23  2  0  0  0  0
 29 30  1  0  0  0  0
 30 31  2  0  0  0  0
 30 32  1  0  0  0  0
M  END
>  <MODEL>
9

>  <REMARK>
 VINA RESULT:      -7.1      3.247      5.730
  Name = 
  1 active torsions:
  status: ('A' for Active; 'I' for Inactive)
    1  A    between atoms: C_20  and  N_29
                            x       y       z     vdW  Elec       q    Type
                         _______ _______ _______ _____ _____    ______ ____

>  <TORSDO>
F 1

$$$$
