=
 OpenBabel11112417093D

 37 44  0  0  1  0  0  0  0  0999 V2000
  190.9760  173.4460  141.4260 C   0  0  0  0  0  2  0  0  0  0  0  0
  195.0990  174.7990  143.0000 C   0  0  0  0  0  0  0  0  0  0  0  0
  191.8680  175.9900  145.3520 C   0  0  0  0  0  0  0  0  0  0  0  0
  190.2000  173.2600  140.2060 N   0  0  0  0  0  0  0  0  0  0  0  0
  188.5520  176.0480  143.3410 C   0  0  0  0  0  2  0  0  0  0  0  0
  194.2360  175.4980  145.2850 C   0  0  0  0  0  0  0  0  0  0  0  0
  190.8120  175.8000  144.4890 C   0  0  0  0  0  0  0  0  0  0  0  0
  188.0460  172.8840  141.4040 C   0  0  2  0  0  3  0  0  0  0  0  0
  192.9730  175.4860  144.7250 C   0  0  0  0  0  0  0  0  0  0  0  0
  189.4020  176.2170  144.5910 C   0  0  0  0  0  0  0  0  0  0  0  0
  194.3670  176.0280  146.5790 C   0  0  0  0  0  3  0  0  0  0  0  0
  189.1350  172.3030  140.4940 C   0  0  0  0  0  2  0  0  0  0  0  0
  192.6840  174.9890  143.5220 N   0  0  0  0  0  0  0  0  0  0  0  0
  196.0850  173.8340  142.3770 C   0  0  0  0  0  1  0  0  0  0  0  0
  190.7950  176.9890  147.3860 C   0  0  0  0  0  3  0  0  0  0  0  0
  193.2280  176.5370  147.2470 C   0  0  0  0  0  3  0  0  0  0  0  0
  193.6660  174.3190  142.6680 C   0  0  0  0  0  2  0  0  0  0  0  0
  187.9980  174.4140  141.4020 C   0  0  0  0  0  2  0  0  0  0  0  0
  189.0720  175.0640  142.2810 C   0  0  1  0  0  0  0  0  0  0  0  0
  191.9550  176.5220  146.6320 C   0  0  0  0  0  0  0  0  0  0  0  0
  191.3480  175.1490  143.3780 C   0  0  0  0  0  0  0  0  0  0  0  0
  195.3690  174.8630  144.5240 C   0  0  0  0  0  2  0  0  0  0  0  0
  188.8500  176.8000  145.6910 C   0  0  0  0  0  0  0  0  0  0  0  0
  195.3250  176.1700  142.3870 C   0  0  0  0  0  1  0  0  0  0  0  0
  190.0110  175.7250  141.4480 O   0  0  0  0  0  0  0  0  0  0  0  0
  188.1730  172.3850  142.7020 O   0  0  0  0  0  1  0  0  0  0  0  0
  190.5180  174.6740  142.2290 C   0  0  1  0  0  0  0  0  0  0  0  0
  189.5270  177.0880  146.9820 C   0  0  0  0  0  3  0  0  0  0  0  0
  186.4890  176.4950  146.4440 C   0  0  0  0  0  3  0  0  0  0  0  0
  187.4270  177.2100  145.6850 C   0  0  0  0  0  0  0  0  0  0  0  0
  187.0100  178.3420  144.9660 C   0  0  0  0  0  3  0  0  0  0  0  0
  185.2750  179.8270  144.2870 F   0  0  0  0  0  0  0  0  0  0  0  0
  184.7400  178.0130  145.7380 C   0  0  0  0  0  3  0  0  0  0  0  0
  185.6710  178.7380  144.9890 C   0  0  0  0  0  0  0  0  0  0  0  0
  185.1490  176.8930  146.4670 C   0  0  0  0  0  3  0  0  0  0  0  0
  192.3580  173.4240  139.1010 C   0  0  0  0  0  1  0  0  0  0  0  0
  191.0780  172.6220  139.2400 C   0  0  0  0  0  2  0  0  0  0  0  0
  2 22  1  0  0  0  0
  3 20  1  0  0  0  0
  4 12  1  0  0  0  0
  4  1  1  0  0  0  0
  5 10  1  0  0  0  0
  6 11  2  0  0  0  0
  7 10  1  0  0  0  0
  7  3  1  0  0  0  0
  8 26  1  1  0  0  0
  9  6  1  0  0  0  0
  9  3  2  0  0  0  0
 10 23  2  0  0  0  0
 11 16  1  0  0  0  0
 12  8  1  0  0  0  0
 13  9  1  0  0  0  0
 14  2  1  0  0  0  0
 17  2  1  0  0  0  0
 17 13  1  0  0  0  0
 18  8  1  0  0  0  0
 19 18  1  6  0  0  0
 19  5  1  0  0  0  0
 20 16  2  0  0  0  0
 20 15  1  0  0  0  0
 21 13  1  0  0  0  0
 21  7  2  0  0  0  0
 22  6  1  0  0  0  0
 23 28  1  0  0  0  0
 24  2  1  0  0  0  0
 25 27  1  0  0  0  0
 25 19  1  0  0  0  0
 27  1  1  6  0  0  0
 27 19  1  0  0  0  0
 27 21  1  0  0  0  0
 28 15  2  0  0  0  0
 29 35  1  0  0  0  0
 30 23  1  0  0  0  0
 30 29  2  0  0  0  0
 31 34  2  0  0  0  0
 31 30  1  0  0  0  0
 32 34  1  0  0  0  0
 33 35  2  0  0  0  0
 34 33  1  0  0  0  0
 36 37  1  0  0  0  0
 37  4  1  0  0  0  0
M  END
>  <MODEL>
1

>  <REMARK>
 VINA RESULT:      -9.4      0.000      0.000
  Name = 
  2 active torsions:
  status: ('A' for Active; 'I' for Inactive)
    1  A    between atoms: N_4  and  C_37
    2  A    between atoms: C_23  and  C_30
                            x       y       z     vdW  Elec       q    Type
                         _______ _______ _______ _____ _____    ______ ____

>  <TORSDO>
F 2

$$$$
=
 OpenBabel11112417093D

 37 44  0  0  1  0  0  0  0  0999 V2000
  192.9640  174.0440  144.3520 C   0  0  0  0  0  2  0  0  0  0  0  0
  191.9500  171.6920  140.5120 C   0  0  0  0  0  0  0  0  0  0  0  0
  189.1870  174.6500  141.5160 C   0  0  0  0  0  0  0  0  0  0  0  0
  193.5070  173.8970  145.6970 N   0  0  0  0  0  0  0  0  0  0  0  0
  189.3370  175.5580  145.2830 C   0  0  0  0  0  2  0  0  0  0  0  0
  190.1410  173.3050  139.7460 C   0  0  0  0  0  0  0  0  0  0  0  0
  189.5150  174.9020  142.8300 C   0  0  0  0  0  0  0  0  0  0  0  0
  192.8480  176.1900  146.4220 C   0  0  2  0  0  3  0  0  0  0  0  0
  190.1370  173.7910  141.0390 C   0  0  0  0  0  0  0  0  0  0  0  0
  188.8110  175.6830  143.8620 C   0  0  0  0  0  0  0  0  0  0  0  0
  189.1310  173.7530  138.8810 C   0  0  0  0  0  3  0  0  0  0  0  0
  193.9880  175.2060  146.1310 C   0  0  0  0  0  2  0  0  0  0  0  0
  191.0450  173.4840  141.9660 N   0  0  0  0  0  0  0  0  0  0  0  0
  193.2730  171.1270  140.0460 C   0  0  0  0  0  1  0  0  0  0  0  0
  187.1850  176.1070  141.1190 C   0  0  0  0  0  3  0  0  0  0  0  0
  188.1500  174.6580  139.3560 C   0  0  0  0  0  3  0  0  0  0  0  0
  192.2140  172.6440  141.7030 C   0  0  0  0  0  2  0  0  0  0  0  0
  191.5070  175.5080  146.7070 C   0  0  0  0  0  2  0  0  0  0  0  0
  190.7750  175.0400  145.4450 C   0  0  1  0  0  0  0  0  0  0  0  0
  188.1710  175.1180  140.6920 C   0  0  0  0  0  0  0  0  0  0  0  0
  190.6890  174.1880  143.0660 C   0  0  0  0  0  0  0  0  0  0  0  0
  191.2700  172.4070  139.3170 C   0  0  0  0  0  2  0  0  0  0  0  0
  187.6980  176.4330  143.6340 C   0  0  0  0  0  0  0  0  0  0  0  0
  191.0770  170.5380  140.9750 C   0  0  0  0  0  1  0  0  0  0  0  0
  190.7680  173.6210  145.4140 O   0  0  0  0  0  0  0  0  0  0  0  0
  192.7300  177.1230  145.3890 O   0  0  0  0  0  1  0  0  0  0  0  0
  191.4410  174.2540  144.3560 C   0  0  1  0  0  0  0  0  0  0  0  0
  187.0130  176.6390  142.3310 C   0  0  0  0  0  3  0  0  0  0  0  0
  186.5720  178.4660  144.5480 C   0  0  0  0  0  3  0  0  0  0  0  0
  187.0450  177.1610  144.7460 C   0  0  0  0  0  0  0  0  0  0  0  0
  186.8470  176.5400  145.9900 C   0  0  0  0  0  3  0  0  0  0  0  0
  186.0240  176.6210  148.2250 F   0  0  0  0  0  0  0  0  0  0  0  0
  185.7470  178.5280  146.8230 C   0  0  0  0  0  3  0  0  0  0  0  0
  186.2050  177.2230  147.0250 C   0  0  0  0  0  0  0  0  0  0  0  0
  185.9280  179.1490  145.5830 C   0  0  0  0  0  3  0  0  0  0  0  0
  195.9370  173.8820  145.6870 C   0  0  0  0  0  1  0  0  0  0  0  0
  194.6770  173.0430  145.5900 C   0  0  0  0  0  2  0  0  0  0  0  0
  1  4  1  0  0  0  0
  2 24  1  0  0  0  0
  2 17  1  0  0  0  0
  3  7  1  0  0  0  0
  4 12  1  0  0  0  0
  6  9  2  0  0  0  0
  7 21  2  0  0  0  0
  7 10  1  0  0  0  0
  8 26  1  6  0  0  0
  8 18  1  0  0  0  0
  9  3  1  0  0  0  0
  9 13  1  0  0  0  0
 10  5  1  0  0  0  0
 11 16  2  0  0  0  0
 11  6  1  0  0  0  0
 12  8  1  0  0  0  0
 13 21  1  0  0  0  0
 14  2  1  0  0  0  0
 15 28  2  0  0  0  0
 16 20  1  0  0  0  0
 17 13  1  0  0  0  0
 19  5  1  6  0  0  0
 19 18  1  0  0  0  0
 20 15  1  0  0  0  0
 20  3  2  0  0  0  0
 21 27  1  0  0  0  0
 22  6  1  0  0  0  0
 22  2  1  0  0  0  0
 23 10  2  0  0  0  0
 23 30  1  0  0  0  0
 25 19  1  0  0  0  0
 27  1  1  6  0  0  0
 27 25  1  0  0  0  0
 27 19  1  0  0  0  0
 28 23  1  0  0  0  0
 29 30  2  0  0  0  0
 29 35  1  0  0  0  0
 30 31  1  0  0  0  0
 31 34  2  0  0  0  0
 33 34  1  0  0  0  0
 34 32  1  0  0  0  0
 35 33  2  0  0  0  0
 37 36  1  0  0  0  0
 37  4  1  0  0  0  0
M  END
>  <MODEL>
2

>  <REMARK>
 VINA RESULT:      -8.7      2.033      5.376
  Name = 
  2 active torsions:
  status: ('A' for Active; 'I' for Inactive)
    1  A    between atoms: N_4  and  C_37
    2  A    between atoms: C_23  and  C_30
                            x       y       z     vdW  Elec       q    Type
                         _______ _______ _______ _____ _____    ______ ____

>  <TORSDO>
F 2

$$$$
=
 OpenBabel11112417093D

 37 44  0  0  1  0  0  0  0  0999 V2000
  188.4090  177.4380  144.2460 C   0  0  0  0  0  2  0  0  0  0  0  0
  191.6090  176.4550  147.4240 C   0  0  0  0  0  0  0  0  0  0  0  0
  192.3470  174.8260  143.6570 C   0  0  0  0  0  0  0  0  0  0  0  0
  186.9730  177.5970  144.0510 N   0  0  0  0  0  0  0  0  0  0  0  0
  189.1060  174.5110  141.5510 C   0  0  0  0  0  2  0  0  0  0  0  0
  193.3040  175.5660  145.7520 C   0  0  0  0  0  0  0  0  0  0  0  0
  191.1130  174.9430  143.0570 C   0  0  0  0  0  0  0  0  0  0  0  0
  187.1260  177.6890  141.5640 C   0  0  2  0  0  3  0  0  0  0  0  0
  192.2550  175.4710  144.8580 C   0  0  0  0  0  0  0  0  0  0  0  0
  190.6000  174.3760  141.7970 C   0  0  0  0  0  0  0  0  0  0  0  0
  194.5300  174.9940  145.3770 C   0  0  0  0  0  3  0  0  0  0  0  0
  186.7710  178.4220  142.8630 C   0  0  0  0  0  2  0  0  0  0  0  0
  191.0420  175.9890  145.0560 N   0  0  0  0  0  0  0  0  0  0  0  0
  191.4670  177.5450  148.4640 C   0  0  0  0  0  1  0  0  0  0  0  0
  193.7260  173.6280  141.9380 C   0  0  0  0  0  3  0  0  0  0  0  0
  194.6450  174.3380  144.1270 C   0  0  0  0  0  3  0  0  0  0  0  0
  190.6920  176.7960  146.2260 C   0  0  0  0  0  2  0  0  0  0  0  0
  187.1100  176.1640  141.6960 C   0  0  0  0  0  2  0  0  0  0  0  0
  188.3680  175.5910  142.3580 C   0  0  1  0  0  0  0  0  0  0  0  0
  193.5420  174.2480  143.2470 C   0  0  0  0  0  0  0  0  0  0  0  0
  190.3380  175.6960  143.9380 C   0  0  0  0  0  0  0  0  0  0  0  0
  193.1020  176.3500  147.0210 C   0  0  0  0  0  2  0  0  0  0  0  0
  191.3580  173.6890  140.8980 C   0  0  0  0  0  0  0  0  0  0  0  0
  191.1590  175.1440  148.0450 C   0  0  0  0  0  1  0  0  0  0  0  0
  188.0230  175.0710  143.6320 O   0  0  0  0  0  0  0  0  0  0  0  0
  188.3500  178.1390  141.0660 O   0  0  0  0  0  1  0  0  0  0  0  0
  188.9420  176.1340  143.6320 C   0  0  1  0  0  0  0  0  0  0  0  0
  192.8160  173.4150  140.9850 C   0  0  0  0  0  3  0  0  0  0  0  0
  190.6590  173.9170  138.5120 C   0  0  0  0  0  3  0  0  0  0  0  0
  190.7420  173.1320  139.6720 C   0  0  0  0  0  0  0  0  0  0  0  0
  190.2830  171.8060  139.6390 C   0  0  0  0  0  3  0  0  0  0  0  0
  189.2810  170.0020  138.4470 F   0  0  0  0  0  0  0  0  0  0  0  0
  189.6390  172.0710  137.3210 C   0  0  0  0  0  3  0  0  0  0  0  0
  189.7290  171.2800  138.4690 C   0  0  0  0  0  0  0  0  0  0  0  0
  190.1060  173.3890  137.3410 C   0  0  0  0  0  3  0  0  0  0  0  0
  185.6310  179.5230  144.6780 C   0  0  0  0  0  1  0  0  0  0  0  0
  186.4760  178.3660  145.1780 C   0  0  0  0  0  2  0  0  0  0  0  0
  2 24  1  0  0  0  0
  2 14  1  0  0  0  0
  3  9  1  0  0  0  0
  4  1  1  0  0  0  0
  4 37  1  0  0  0  0
  5 10  1  0  0  0  0
  6 22  1  0  0  0  0
  7  3  1  0  0  0  0
  7 21  2  0  0  0  0
  8 26  1  1  0  0  0
  8 18  1  0  0  0  0
  8 12  1  0  0  0  0
  9 13  1  0  0  0  0
  9  6  2  0  0  0  0
 10  7  1  0  0  0  0
 11  6  1  0  0  0  0
 12  4  1  0  0  0  0
 13 17  1  0  0  0  0
 15 20  1  0  0  0  0
 16 11  2  0  0  0  0
 17  2  1  0  0  0  0
 18 19  1  0  0  0  0
 19  5  1  6  0  0  0
 19 25  1  0  0  0  0
 19 27  1  0  0  0  0
 20  3  2  0  0  0  0
 20 16  1  0  0  0  0
 21 13  1  0  0  0  0
 22  2  1  0  0  0  0
 23 28  1  0  0  0  0
 23 10  2  0  0  0  0
 25 27  1  0  0  0  0
 27 21  1  0  0  0  0
 27  1  1  1  0  0  0
 28 15  2  0  0  0  0
 29 30  1  0  0  0  0
 30 23  1  0  0  0  0
 31 30  2  0  0  0  0
 32 34  1  0  0  0  0
 33 35  1  0  0  0  0
 33 34  2  0  0  0  0
 34 31  1  0  0  0  0
 35 29  2  0  0  0  0
 36 37  1  0  0  0  0
M  END
>  <MODEL>
3

>  <REMARK>
 VINA RESULT:      -8.5      2.699      6.516
  Name = 
  2 active torsions:
  status: ('A' for Active; 'I' for Inactive)
    1  A    between atoms: N_4  and  C_37
    2  A    between atoms: C_23  and  C_30
                            x       y       z     vdW  Elec       q    Type
                         _______ _______ _______ _____ _____    ______ ____

>  <TORSDO>
F 2

$$$$
=
 OpenBabel11112417093D

 37 44  0  0  1  0  0  0  0  0999 V2000
  187.1780  176.4290  140.2870 C   0  0  0  0  0  2  0  0  0  0  0  0
  190.2780  173.0550  139.7240 C   0  0  0  0  0  0  0  0  0  0  0  0
  189.5080  174.0600  143.6980 C   0  0  0  0  0  0  0  0  0  0  0  0
  186.7280  177.6990  139.7310 N   0  0  0  0  0  0  0  0  0  0  0  0
  188.0640  177.6430  144.0350 C   0  0  0  0  0  2  0  0  0  0  0  0
  190.2690  172.3490  142.1660 C   0  0  0  0  0  0  0  0  0  0  0  0
  188.8860  175.2810  143.5600 C   0  0  0  0  0  0  0  0  0  0  0  0
  185.2340  178.2320  141.6560 C   0  0  2  0  0  3  0  0  0  0  0  0
  189.6740  173.5670  142.4340 C   0  0  0  0  0  0  0  0  0  0  0  0
  188.5340  176.2990  144.5660 C   0  0  0  0  0  0  0  0  0  0  0  0
  190.6900  171.5770  143.2600 C   0  0  0  0  0  3  0  0  0  0  0  0
  185.3480  177.9120  140.1600 C   0  0  0  0  0  2  0  0  0  0  0  0
  189.1960  174.3970  141.5060 N   0  0  0  0  0  0  0  0  0  0  0  0
  189.9860  172.4890  138.3520 C   0  0  0  0  0  1  0  0  0  0  0  0
  189.6740  173.7610  146.1820 C   0  0  0  0  0  3  0  0  0  0  0  0
  190.5080  172.0680  144.5760 C   0  0  0  0  0  3  0  0  0  0  0  0
  189.1760  174.0820  140.0770 C   0  0  0  0  0  2  0  0  0  0  0  0
  186.5310  178.7670  142.2680 C   0  0  0  0  0  2  0  0  0  0  0  0
  187.5580  177.6750  142.5850 C   0  0  1  0  0  0  0  0  0  0  0  0
  189.9090  173.3270  144.8080 C   0  0  0  0  0  0  0  0  0  0  0  0
  188.6790  175.4430  142.1900 C   0  0  0  0  0  0  0  0  0  0  0  0
  190.3470  171.8840  140.7370 C   0  0  0  0  0  2  0  0  0  0  0  0
  188.6750  176.1310  145.9100 C   0  0  0  0  0  0  0  0  0  0  0  0
  191.6230  173.7590  139.6720 C   0  0  0  0  0  1  0  0  0  0  0  0
  188.6630  177.8110  141.7050 O   0  0  0  0  0  0  0  0  0  0  0  0
  184.7640  177.1220  142.3600 O   0  0  0  0  0  1  0  0  0  0  0  0
  187.9460  176.6080  141.6060 C   0  0  1  0  0  0  0  0  0  0  0  0
  189.1590  174.9140  146.6120 C   0  0  0  0  0  3  0  0  0  0  0  0
  189.3290  177.9160  147.5300 C   0  0  0  0  0  3  0  0  0  0  0  0
  188.3200  177.2280  146.8410 C   0  0  0  0  0  0  0  0  0  0  0  0
  186.9830  177.6230  147.0050 C   0  0  0  0  0  3  0  0  0  0  0  0
  185.3660  179.0470  148.0240 F   0  0  0  0  0  0  0  0  0  0  0  0
  187.6690  179.3490  148.5560 C   0  0  0  0  0  3  0  0  0  0  0  0
  186.6590  178.6760  147.8640 C   0  0  0  0  0  0  0  0  0  0  0  0
  189.0050  178.9710  148.3880 C   0  0  0  0  0  3  0  0  0  0  0  0
  186.6920  176.0650  137.9330 C   0  0  0  0  0  1  0  0  0  0  0  0
  186.6910  177.5410  138.2880 C   0  0  0  0  0  2  0  0  0  0  0  0
  2 17  1  0  0  0  0
  2 22  1  0  0  0  0
  3 20  1  0  0  0  0
  4 12  1  0  0  0  0
  4  1  1  0  0  0  0
  5 10  1  0  0  0  0
  6  9  1  0  0  0  0
  6 11  2  0  0  0  0
  7  3  1  0  0  0  0
  7 10  1  0  0  0  0
  8 18  1  0  0  0  0
  8 26  1  1  0  0  0
  9  3  2  0  0  0  0
 10 23  2  0  0  0  0
 11 16  1  0  0  0  0
 12  8  1  0  0  0  0
 13 21  1  0  0  0  0
 13  9  1  0  0  0  0
 14  2  1  0  0  0  0
 15 28  2  0  0  0  0
 16 20  2  0  0  0  0
 17 13  1  0  0  0  0
 19 18  1  6  0  0  0
 19  5  1  0  0  0  0
 20 15  1  0  0  0  0
 21  7  2  0  0  0  0
 22  6  1  0  0  0  0
 23 28  1  0  0  0  0
 23 30  1  0  0  0  0
 24  2  1  0  0  0  0
 25 19  1  0  0  0  0
 27  1  1  6  0  0  0
 27 25  1  0  0  0  0
 27 21  1  0  0  0  0
 27 19  1  0  0  0  0
 29 35  1  0  0  0  0
 30 31  1  0  0  0  0
 30 29  2  0  0  0  0
 31 34  2  0  0  0  0
 34 32  1  0  0  0  0
 34 33  1  0  0  0  0
 35 33  2  0  0  0  0
 36 37  1  0  0  0  0
 37  4  1  0  0  0  0
M  END
>  <MODEL>
4

>  <REMARK>
 VINA RESULT:      -8.3      3.084      4.650
  Name = 
  2 active torsions:
  status: ('A' for Active; 'I' for Inactive)
    1  A    between atoms: N_4  and  C_37
    2  A    between atoms: C_23  and  C_30
                            x       y       z     vdW  Elec       q    Type
                         _______ _______ _______ _____ _____    ______ ____

>  <TORSDO>
F 2

$$$$
=
 OpenBabel11112417093D

 37 44  0  0  1  0  0  0  0  0999 V2000
  190.9630  173.5310  142.0690 C   0  0  0  0  0  2  0  0  0  0  0  0
  194.1330  175.0030  145.0850 C   0  0  0  0  0  0  0  0  0  0  0  0
  190.2740  176.4150  145.7950 C   0  0  0  0  0  0  0  0  0  0  0  0
  190.7480  173.2390  140.6570 N   0  0  0  0  0  0  0  0  0  0  0  0
  188.0770  176.3050  142.6010 C   0  0  0  0  0  2  0  0  0  0  0  0
  192.4390  175.9090  146.7490 C   0  0  0  0  0  0  0  0  0  0  0  0
  189.6560  176.1520  144.5930 C   0  0  0  0  0  0  0  0  0  0  0  0
  188.2790  172.9820  140.8890 C   0  0  2  0  0  3  0  0  0  0  0  0
  191.5170  175.8520  145.7220 C   0  0  0  0  0  0  0  0  0  0  0  0
  188.3460  176.5820  144.0720 C   0  0  0  0  0  0  0  0  0  0  0  0
  192.0500  176.5530  147.9340 C   0  0  0  0  0  3  0  0  0  0  0  0
  189.6200  172.3160  140.5570 C   0  0  0  0  0  2  0  0  0  0  0  0
  191.7250  175.2490  144.5500 N   0  0  0  0  0  0  0  0  0  0  0  0
  195.2470  173.9830  145.0030 C   0  0  0  0  0  1  0  0  0  0  0  0
  188.5030  177.5980  147.1200 C   0  0  0  0  0  3  0  0  0  0  0  0
  190.7590  177.1260  148.0310 C   0  0  0  0  0  3  0  0  0  0  0  0
  192.9420  174.5020  144.2330 C   0  0  0  0  0  2  0  0  0  0  0  0
  188.2980  174.5050  140.7440 C   0  0  0  0  0  2  0  0  0  0  0  0
  188.9440  175.2280  141.9310 C   0  0  1  0  0  0  0  0  0  0  0  0
  189.8500  177.0600  146.9510 C   0  0  0  0  0  0  0  0  0  0  0  0
  190.5730  175.4010  143.8570 C   0  0  0  0  0  0  0  0  0  0  0  0
  193.7570  175.2040  146.5750 C   0  0  0  0  0  2  0  0  0  0  0  0
  187.4170  177.2640  144.7960 C   0  0  0  0  0  0  0  0  0  0  0  0
  194.6450  176.3130  144.5110 C   0  0  0  0  0  1  0  0  0  0  0  0
  190.1680  175.8070  141.5090 O   0  0  0  0  0  0  0  0  0  0  0  0
  187.8430  172.6010  142.1600 O   0  0  0  0  0  1  0  0  0  0  0  0
  190.2680  174.8280  142.5110 C   0  0  1  0  0  0  0  0  0  0  0  0
  187.5170  177.6650  146.2240 C   0  0  0  0  0  3  0  0  0  0  0  0
  185.1660  178.3370  144.9390 C   0  0  0  0  0  3  0  0  0  0  0  0
  186.1390  177.6780  144.1730 C   0  0  0  0  0  0  0  0  0  0  0  0
  185.9070  177.4640  142.8050 C   0  0  0  0  0  3  0  0  0  0  0  0
  184.4890  177.6650  140.8990 F   0  0  0  0  0  0  0  0  0  0  0  0
  183.7410  178.5280  142.9910 C   0  0  0  0  0  3  0  0  0  0  0  0
  184.7100  177.8830  142.2180 C   0  0  0  0  0  0  0  0  0  0  0  0
  183.9700  178.7580  144.3510 C   0  0  0  0  0  3  0  0  0  0  0  0
  191.5230  171.1020  139.7970 C   0  0  0  0  0  1  0  0  0  0  0  0
  191.9170  172.5130  140.1930 C   0  0  0  0  0  2  0  0  0  0  0  0
  2 22  1  0  0  0  0
  3 20  1  0  0  0  0
  4  1  1  0  0  0  0
  5 10  1  0  0  0  0
  6 11  2  0  0  0  0
  7  3  1  0  0  0  0
  8 26  1  1  0  0  0
  9  3  2  0  0  0  0
  9  6  1  0  0  0  0
 10  7  1  0  0  0  0
 10 23  2  0  0  0  0
 11 16  1  0  0  0  0
 12  4  1  0  0  0  0
 12  8  1  0  0  0  0
 13  9  1  0  0  0  0
 14  2  1  0  0  0  0
 17 13  1  0  0  0  0
 17  2  1  0  0  0  0
 18  8  1  0  0  0  0
 19 18  1  6  0  0  0
 19 27  1  0  0  0  0
 19  5  1  0  0  0  0
 20 15  1  0  0  0  0
 20 16  2  0  0  0  0
 21 13  1  0  0  0  0
 21  7  2  0  0  0  0
 22  6  1  0  0  0  0
 23 28  1  0  0  0  0
 24  2  1  0  0  0  0
 25 19  1  0  0  0  0
 25 27  1  0  0  0  0
 27  1  1  6  0  0  0
 27 21  1  0  0  0  0
 28 15  2  0  0  0  0
 30 23  1  0  0  0  0
 30 29  2  0  0  0  0
 31 30  1  0  0  0  0
 32 34  1  0  0  0  0
 33 35  2  0  0  0  0
 34 31  2  0  0  0  0
 34 33  1  0  0  0  0
 35 29  1  0  0  0  0
 36 37  1  0  0  0  0
 37  4  1  0  0  0  0
M  END
>  <MODEL>
5

>  <REMARK>
 VINA RESULT:      -8.3      1.379      2.033
  Name = 
  2 active torsions:
  status: ('A' for Active; 'I' for Inactive)
    1  A    between atoms: N_4  and  C_37
    2  A    between atoms: C_23  and  C_30
                            x       y       z     vdW  Elec       q    Type
                         _______ _______ _______ _____ _____    ______ ____

>  <TORSDO>
F 2

$$$$
=
 OpenBabel11112417093D

 37 44  0  0  1  0  0  0  0  0999 V2000
  189.7990  176.0640  144.2590 C   0  0  0  0  0  2  0  0  0  0  0  0
  194.2010  176.2360  145.6360 C   0  0  0  0  0  0  0  0  0  0  0  0
  193.6710  175.1070  141.6570 C   0  0  0  0  0  0  0  0  0  0  0  0
  188.4590  175.6880  144.6910 N   0  0  0  0  0  0  0  0  0  0  0  0
  190.1220  173.6830  141.0130 C   0  0  0  0  0  2  0  0  0  0  0  0
  195.1650  176.0860  143.2900 C   0  0  0  0  0  0  0  0  0  0  0  0
  192.3340  174.7790  141.6380 C   0  0  0  0  0  0  0  0  0  0  0  0
  187.4560  175.9040  142.4180 C   0  0  2  0  0  3  0  0  0  0  0  0
  193.9200  175.6370  142.8920 C   0  0  0  0  0  0  0  0  0  0  0  0
  191.5270  174.1000  140.6080 C   0  0  0  0  0  0  0  0  0  0  0  0
  196.2090  176.0180  142.3530 C   0  0  0  0  0  3  0  0  0  0  0  0
  187.5000  176.4150  143.8630 C   0  0  0  0  0  2  0  0  0  0  0  0
  192.8260  175.6650  143.6550 N   0  0  0  0  0  0  0  0  0  0  0  0
  194.1950  177.1660  146.8310 C   0  0  0  0  0  1  0  0  0  0  0  0
  194.4480  174.5540  139.3380 C   0  0  0  0  0  3  0  0  0  0  0  0
  195.9610  175.4880  141.0630 C   0  0  0  0  0  3  0  0  0  0  0  0
  192.7930  176.2500  144.9950 C   0  0  0  0  0  2  0  0  0  0  0  0
  187.9870  174.4780  142.2560 C   0  0  0  0  0  2  0  0  0  0  0  0
  189.5170  174.3900  142.2350 C   0  0  1  0  0  0  0  0  0  0  0  0
  194.6760  175.0240  140.7010 C   0  0  0  0  0  0  0  0  0  0  0  0
  191.8350  175.1670  142.8800 C   0  0  0  0  0  0  0  0  0  0  0  0
  195.3080  176.7010  144.6550 C   0  0  0  0  0  2  0  0  0  0  0  0
  191.9830  173.7690  139.3680 C   0  0  0  0  0  0  0  0  0  0  0  0
  194.5160  174.8340  146.1270 C   0  0  0  0  0  1  0  0  0  0  0  0
  189.9580  173.7410  143.4180 O   0  0  0  0  0  0  0  0  0  0  0  0
  188.1180  176.7890  141.5640 O   0  0  0  0  0  1  0  0  0  0  0  0
  190.3890  175.0670  143.2490 C   0  0  1  0  0  0  0  0  0  0  0  0
  193.3310  174.0490  138.8090 C   0  0  0  0  0  3  0  0  0  0  0  0
  190.3570  173.7910  137.4730 C   0  0  0  0  0  3  0  0  0  0  0  0
  191.1010  173.0610  138.4120 C   0  0  0  0  0  0  0  0  0  0  0  0
  191.0380  171.6580  138.3980 C   0  0  0  0  0  3  0  0  0  0  0  0
  190.1630  169.6450  137.4720 F   0  0  0  0  0  0  0  0  0  0  0  0
  189.4780  171.7330  136.5500 C   0  0  0  0  0  3  0  0  0  0  0  0
  190.2250  170.9980  137.4740 C   0  0  0  0  0  0  0  0  0  0  0  0
  189.5450  173.1290  136.5480 C   0  0  0  0  0  3  0  0  0  0  0  0
  188.9410  175.2260  147.0270 C   0  0  0  0  0  1  0  0  0  0  0  0
  188.2960  176.1860  146.0460 C   0  0  0  0  0  2  0  0  0  0  0  0
  1  4  1  0  0  0  0
  2 24  1  0  0  0  0
  2 14  1  0  0  0  0
  3  9  1  0  0  0  0
  4 37  1  0  0  0  0
  6 22  1  0  0  0  0
  7  3  1  0  0  0  0
  7 21  2  0  0  0  0
  8 26  1  6  0  0  0
  8 12  1  0  0  0  0
  9  6  2  0  0  0  0
  9 13  1  0  0  0  0
 10  5  1  0  0  0  0
 10  7  1  0  0  0  0
 11  6  1  0  0  0  0
 12  4  1  0  0  0  0
 13 17  1  0  0  0  0
 15 20  1  0  0  0  0
 16 11  2  0  0  0  0
 17  2  1  0  0  0  0
 18  8  1  0  0  0  0
 19  5  1  6  0  0  0
 19 18  1  0  0  0  0
 19 27  1  0  0  0  0
 19 25  1  0  0  0  0
 20 16  1  0  0  0  0
 20  3  2  0  0  0  0
 21 27  1  0  0  0  0
 21 13  1  0  0  0  0
 22  2  1  0  0  0  0
 23 10  2  0  0  0  0
 27 25  1  0  0  0  0
 27  1  1  1  0  0  0
 28 15  2  0  0  0  0
 28 23  1  0  0  0  0
 29 30  1  0  0  0  0
 30 23  1  0  0  0  0
 31 30  2  0  0  0  0
 32 34  1  0  0  0  0
 33 34  2  0  0  0  0
 34 31  1  0  0  0  0
 35 33  1  0  0  0  0
 35 29  2  0  0  0  0
 37 36  1  0  0  0  0
M  END
>  <MODEL>
6

>  <REMARK>
 VINA RESULT:      -7.9      2.845      6.659
  Name = 
  2 active torsions:
  status: ('A' for Active; 'I' for Inactive)
    1  A    between atoms: N_4  and  C_37
    2  A    between atoms: C_23  and  C_30
                            x       y       z     vdW  Elec       q    Type
                         _______ _______ _______ _____ _____    ______ ____

>  <TORSDO>
F 2

$$$$
=
 OpenBabel11112417093D

 37 44  0  0  1  0  0  0  0  0999 V2000
  192.6950  171.9540  141.6140 C   0  0  0  0  0  2  0  0  0  0  0  0
  196.2620  173.5940  144.0420 C   0  0  0  0  0  0  0  0  0  0  0  0
  192.6500  175.5650  144.7180 C   0  0  0  0  0  0  0  0  0  0  0  0
  192.3230  171.4230  140.3080 N   0  0  0  0  0  0  0  0  0  0  0  0
  190.1700  175.1020  141.7720 C   0  0  0  0  0  2  0  0  0  0  0  0
  194.8300  174.9990  145.6020 C   0  0  0  0  0  0  0  0  0  0  0  0
  191.9010  175.1510  143.6390 C   0  0  0  0  0  0  0  0  0  0  0  0
  189.8720  171.5110  140.7580 C   0  0  2  0  0  3  0  0  0  0  0  0
  193.8170  174.8550  144.6740 C   0  0  0  0  0  0  0  0  0  0  0  0
  190.6000  175.6250  143.1340 C   0  0  0  0  0  0  0  0  0  0  0  0
  194.6200  175.9020  146.6560 C   0  0  0  0  0  3  0  0  0  0  0  0
  191.1020  170.6390  140.4760 C   0  0  0  0  0  2  0  0  0  0  0  0
  193.8540  174.0170  143.6370 N   0  0  0  0  0  0  0  0  0  0  0  0
  197.2530  172.4520  144.0910 C   0  0  0  0  0  1  0  0  0  0  0  0
  191.1400  177.1840  145.8960 C   0  0  0  0  0  3  0  0  0  0  0  0
  193.4090  176.6320  146.7250 C   0  0  0  0  0  3  0  0  0  0  0  0
  194.9540  173.0830  143.3940 C   0  0  0  0  0  2  0  0  0  0  0  0
  190.0340  172.9650  140.3070 C   0  0  0  0  0  2  0  0  0  0  0  0
  190.8570  173.8210  141.2760 C   0  0  1  0  0  0  0  0  0  0  0  0
  192.4030  176.4670  145.7450 C   0  0  0  0  0  0  0  0  0  0  0  0
  192.6640  174.1680  143.0090 C   0  0  0  0  0  0  0  0  0  0  0  0
  196.0470  174.1220  145.4830 C   0  0  0  0  0  2  0  0  0  0  0  0
  189.8160  176.5390  143.7680 C   0  0  0  0  0  0  0  0  0  0  0  0
  196.8520  174.6980  143.1810 C   0  0  0  0  0  1  0  0  0  0  0  0
  192.0910  174.1570  140.6610 O   0  0  0  0  0  0  0  0  0  0  0  0
  189.5170  171.4380  142.1060 O   0  0  0  0  0  1  0  0  0  0  0  0
  192.1800  173.3860  141.8310 C   0  0  1  0  0  0  0  0  0  0  0  0
  190.0880  177.1940  145.0750 C   0  0  0  0  0  3  0  0  0  0  0  0
  188.5340  177.6390  141.9290 C   0  0  0  0  0  3  0  0  0  0  0  0
  188.5360  176.9740  143.1640 C   0  0  0  0  0  0  0  0  0  0  0  0
  187.3130  176.6830  143.7890 C   0  0  0  0  0  3  0  0  0  0  0  0
  184.9330  176.7940  143.8110 F   0  0  0  0  0  0  0  0  0  0  0  0
  186.1160  177.7440  141.9730 C   0  0  0  0  0  3  0  0  0  0  0  0
  186.1080  177.0710  143.1980 C   0  0  0  0  0  0  0  0  0  0  0  0
  187.3290  178.0260  141.3370 C   0  0  0  0  0  3  0  0  0  0  0  0
  194.2750  170.2120  141.1020 C   0  0  0  0  0  1  0  0  0  0  0  0
  193.3640  170.4870  139.9200 C   0  0  0  0  0  2  0  0  0  0  0  0
  2 14  1  0  0  0  0
  2 22  1  0  0  0  0
  3 20  1  0  0  0  0
  4 12  1  0  0  0  0
  4  1  1  0  0  0  0
  5 10  1  0  0  0  0
  6 11  2  0  0  0  0
  7  3  1  0  0  0  0
  8 26  1  1  0  0  0
  9  3  2  0  0  0  0
  9  6  1  0  0  0  0
 10  7  1  0  0  0  0
 10 23  2  0  0  0  0
 11 16  1  0  0  0  0
 12  8  1  0  0  0  0
 13  9  1  0  0  0  0
 17 13  1  0  0  0  0
 17  2  1  0  0  0  0
 18  8  1  0  0  0  0
 19 18  1  6  0  0  0
 19  5  1  0  0  0  0
 19 27  1  0  0  0  0
 20 15  1  0  0  0  0
 20 16  2  0  0  0  0
 21 13  1  0  0  0  0
 21  7  2  0  0  0  0
 22  6  1  0  0  0  0
 23 28  1  0  0  0  0
 24  2  1  0  0  0  0
 25 19  1  0  0  0  0
 25 27  1  0  0  0  0
 27  1  1  6  0  0  0
 27 21  1  0  0  0  0
 28 15  2  0  0  0  0
 29 30  1  0  0  0  0
 30 23  1  0  0  0  0
 30 31  2  0  0  0  0
 33 34  2  0  0  0  0
 34 31  1  0  0  0  0
 34 32  1  0  0  0  0
 35 29  2  0  0  0  0
 35 33  1  0  0  0  0
 37  4  1  0  0  0  0
 37 36  1  0  0  0  0
M  END
>  <MODEL>
7

>  <REMARK>
 VINA RESULT:      -7.4      1.887      2.534
  Name = 
  2 active torsions:
  status: ('A' for Active; 'I' for Inactive)
    1  A    between atoms: N_4  and  C_37
    2  A    between atoms: C_23  and  C_30
                            x       y       z     vdW  Elec       q    Type
                         _______ _______ _______ _____ _____    ______ ____

>  <TORSDO>
F 2

$$$$
=
 OpenBabel11112417093D

 37 44  0  0  1  0  0  0  0  0999 V2000
  190.1790  175.6080  143.8100 C   0  0  0  0  0  2  0  0  0  0  0  0
  194.5960  176.1470  145.0350 C   0  0  0  0  0  0  0  0  0  0  0  0
  194.0300  174.1270  141.4320 C   0  0  0  0  0  0  0  0  0  0  0  0
  188.8510  175.3240  144.3400 N   0  0  0  0  0  0  0  0  0  0  0  0
  190.4950  172.5480  141.1930 C   0  0  0  0  0  2  0  0  0  0  0  0
  195.5300  175.4740  142.7700 C   0  0  0  0  0  0  0  0  0  0  0  0
  192.6970  173.7860  141.5110 C   0  0  0  0  0  0  0  0  0  0  0  0
  187.8130  174.9990  142.0960 C   0  0  2  0  0  3  0  0  0  0  0  0
  194.2870  174.9300  142.5070 C   0  0  0  0  0  0  0  0  0  0  0  0
  191.8870  172.8790  140.6780 C   0  0  0  0  0  0  0  0  0  0  0  0
  196.5610  175.2050  141.8560 C   0  0  0  0  0  3  0  0  0  0  0  0
  187.8690  175.8300  143.3840 C   0  0  0  0  0  2  0  0  0  0  0  0
  193.2030  175.1190  143.2620 N   0  0  0  0  0  0  0  0  0  0  0  0
  194.5920  177.3260  145.9840 C   0  0  0  0  0  1  0  0  0  0  0  0
  194.7830  173.0660  139.2880 C   0  0  0  0  0  3  0  0  0  0  0  0
  196.3040  174.3900  140.7270 C   0  0  0  0  0  3  0  0  0  0  0  0
  193.1790  175.9960  144.4330 C   0  0  0  0  0  2  0  0  0  0  0  0
  188.3650  173.5810  142.2570 C   0  0  0  0  0  2  0  0  0  0  0  0
  189.8960  173.5100  142.2310 C   0  0  1  0  0  0  0  0  0  0  0  0
  195.0220  173.8390  140.5030 C   0  0  0  0  0  0  0  0  0  0  0  0
  192.2090  174.4430  142.6400 C   0  0  0  0  0  0  0  0  0  0  0  0
  195.6810  176.3880  143.9550 C   0  0  0  0  0  2  0  0  0  0  0  0
  192.3320  172.2770  139.5410 C   0  0  0  0  0  0  0  0  0  0  0  0
  194.9410  174.9000  145.8300 C   0  0  0  0  0  1  0  0  0  0  0  0
  190.3630  173.1560  143.5230 O   0  0  0  0  0  0  0  0  0  0  0  0
  188.4490  175.6730  141.0510 O   0  0  0  0  0  1  0  0  0  0  0  0
  190.7710  174.4130  143.0460 C   0  0  1  0  0  0  0  0  0  0  0  0
  193.6670  172.4390  138.9090 C   0  0  0  0  0  3  0  0  0  0  0  0
  191.2910  170.0310  139.2150 C   0  0  0  0  0  3  0  0  0  0  0  0
  191.4480  171.3580  138.7880 C   0  0  0  0  0  0  0  0  0  0  0  0
  190.7220  171.8120  137.6750 C   0  0  0  0  0  3  0  0  0  0  0  0
  189.1780  171.3880  135.9100 F   0  0  0  0  0  0  0  0  0  0  0  0
  189.7270  169.6220  137.4120 C   0  0  0  0  0  3  0  0  0  0  0  0
  189.8690  170.9450  136.9870 C   0  0  0  0  0  0  0  0  0  0  0  0
  190.4360  169.1650  138.5270 C   0  0  0  0  0  3  0  0  0  0  0  0
  187.3060  176.7190  145.5940 C   0  0  0  0  0  1  0  0  0  0  0  0
  188.6980  176.1180  145.5470 C   0  0  0  0  0  2  0  0  0  0  0  0
  1  4  1  0  0  0  0
  2 24  1  0  0  0  0
  2 14  1  0  0  0  0
  3  7  1  0  0  0  0
  3  9  1  0  0  0  0
  4 37  1  0  0  0  0
  6 22  1  0  0  0  0
  7 21  2  0  0  0  0
  8 26  1  6  0  0  0
  8 18  1  0  0  0  0
  8 12  1  0  0  0  0
  9  6  2  0  0  0  0
  9 13  1  0  0  0  0
 10  5  1  0  0  0  0
 10  7  1  0  0  0  0
 11  6  1  0  0  0  0
 12  4  1  0  0  0  0
 13 17  1  0  0  0  0
 15 20  1  0  0  0  0
 16 11  2  0  0  0  0
 17  2  1  0  0  0  0
 19  5  1  6  0  0  0
 19 18  1  0  0  0  0
 19 27  1  0  0  0  0
 19 25  1  0  0  0  0
 20 16  1  0  0  0  0
 20  3  2  0  0  0  0
 21 27  1  0  0  0  0
 21 13  1  0  0  0  0
 22  2  1  0  0  0  0
 23 10  2  0  0  0  0
 27 25  1  0  0  0  0
 27  1  1  1  0  0  0
 28 15  2  0  0  0  0
 28 23  1  0  0  0  0
 30 29  1  0  0  0  0
 30 23  1  0  0  0  0
 31 30  2  0  0  0  0
 32 34  1  0  0  0  0
 33 35  1  0  0  0  0
 34 33  2  0  0  0  0
 34 31  1  0  0  0  0
 35 29  2  0  0  0  0
 37 36  1  0  0  0  0
M  END
>  <MODEL>
8

>  <REMARK>
 VINA RESULT:      -7.3      2.721      6.864
  Name = 
  2 active torsions:
  status: ('A' for Active; 'I' for Inactive)
    1  A    between atoms: N_4  and  C_37
    2  A    between atoms: C_23  and  C_30
                            x       y       z     vdW  Elec       q    Type
                         _______ _______ _______ _____ _____    ______ ____

>  <TORSDO>
F 2

$$$$
=
 OpenBabel11112417093D

 37 44  0  0  1  0  0  0  0  0999 V2000
  187.2420  176.1890  141.0870 C   0  0  0  0  0  2  0  0  0  0  0  0
  189.2770  173.2360  138.1810 C   0  0  0  0  0  0  0  0  0  0  0  0
  190.7720  173.1500  142.0730 C   0  0  0  0  0  0  0  0  0  0  0  0
  186.6870  177.5340  141.1790 N   0  0  0  0  0  0  0  0  0  0  0  0
  190.0480  176.4480  143.9800 C   0  0  0  0  0  2  0  0  0  0  0  0
  190.4700  171.9300  140.0060 C   0  0  0  0  0  0  0  0  0  0  0  0
  190.2840  174.3320  142.5840 C   0  0  0  0  0  0  0  0  0  0  0  0
  186.4620  177.4790  143.6620 C   0  0  2  0  0  3  0  0  0  0  0  0
  190.2140  173.0050  140.8340 C   0  0  0  0  0  0  0  0  0  0  0  0
  190.5990  175.0390  143.8390 C   0  0  0  0  0  0  0  0  0  0  0  0
  191.3230  170.9260  140.4910 C   0  0  0  0  0  3  0  0  0  0  0  0
  185.7550  177.5580  142.3030 C   0  0  0  0  0  2  0  0  0  0  0  0
  189.4020  174.0190  140.5300 N   0  0  0  0  0  0  0  0  0  0  0  0
  188.2660  173.0250  137.0750 C   0  0  0  0  0  1  0  0  0  0  0  0
  192.1730  172.2340  143.9410 C   0  0  0  0  0  3  0  0  0  0  0  0
  191.8960  171.0540  141.7800 C   0  0  0  0  0  3  0  0  0  0  0  0
  188.6160  174.0800  139.2970 C   0  0  0  0  0  2  0  0  0  0  0  0
  187.9310  177.9060  143.6140 C   0  0  0  0  0  2  0  0  0  0  0  0
  188.8690  176.8230  143.0680 C   0  0  1  0  0  0  0  0  0  0  0  0
  191.6210  172.1790  142.5900 C   0  0  0  0  0  0  0  0  0  0  0  0
  189.4130  174.8280  141.6150 C   0  0  0  0  0  0  0  0  0  0  0  0
  189.7530  171.8500  138.6850 C   0  0  0  0  0  2  0  0  0  0  0  0
  191.4000  174.5410  144.8210 C   0  0  0  0  0  0  0  0  0  0  0  0
  190.4580  173.9990  137.6070 C   0  0  0  0  0  1  0  0  0  0  0  0
  189.3660  177.2370  141.8050 O   0  0  0  0  0  0  0  0  0  0  0  0
  186.3250  176.2030  144.2120 O   0  0  0  0  0  1  0  0  0  0  0  0
  188.5940  176.0640  141.8050 C   0  0  1  0  0  0  0  0  0  0  0  0
  192.0640  173.2110  144.8440 C   0  0  0  0  0  3  0  0  0  0  0  0
  190.7970  175.2980  147.1230 C   0  0  0  0  0  3  0  0  0  0  0  0
  191.6800  175.3430  146.0350 C   0  0  0  0  0  0  0  0  0  0  0  0
  192.8510  176.1120  146.1310 C   0  0  0  0  0  3  0  0  0  0  0  0
  194.2490  177.5890  147.3730 F   0  0  0  0  0  0  0  0  0  0  0  0
  192.2310  176.8020  148.3660 C   0  0  0  0  0  3  0  0  0  0  0  0
  193.1210  176.8430  147.2900 C   0  0  0  0  0  0  0  0  0  0  0  0
  191.0690  176.0280  148.2840 C   0  0  0  0  0  3  0  0  0  0  0  0
  184.5150  178.2540  140.3610 C   0  0  0  0  0  1  0  0  0  0  0  0
  185.8940  177.7480  139.9810 C   0  0  0  0  0  2  0  0  0  0  0  0
  1  4  1  0  0  0  0
  2 22  1  0  0  0  0
  2 17  1  0  0  0  0
  3  7  1  0  0  0  0
  3 20  1  0  0  0  0
  4 12  1  0  0  0  0
  6 11  2  0  0  0  0
  6  9  1  0  0  0  0
  7 10  1  0  0  0  0
  8 26  1  6  0  0  0
  9  3  2  0  0  0  0
 10  5  1  0  0  0  0
 10 23  2  0  0  0  0
 11 16  1  0  0  0  0
 12  8  1  0  0  0  0
 13  9  1  0  0  0  0
 13 21  1  0  0  0  0
 14  2  1  0  0  0  0
 15 28  2  0  0  0  0
 16 20  2  0  0  0  0
 17 13  1  0  0  0  0
 18  8  1  0  0  0  0
 19 18  1  1  0  0  0
 19  5  1  0  0  0  0
 20 15  1  0  0  0  0
 21 27  1  0  0  0  0
 21  7  2  0  0  0  0
 22  6  1  0  0  0  0
 23 28  1  0  0  0  0
 23 30  1  0  0  0  0
 24  2  1  0  0  0  0
 25 27  1  0  0  0  0
 25 19  1  0  0  0  0
 27  1  1  6  0  0  0
 27 19  1  0  0  0  0
 29 35  1  0  0  0  0
 30 31  1  0  0  0  0
 30 29  2  0  0  0  0
 31 34  2  0  0  0  0
 34 32  1  0  0  0  0
 34 33  1  0  0  0  0
 35 33  2  0  0  0  0
 37 36  1  0  0  0  0
 37  4  1  0  0  0  0
M  END
>  <MODEL>
9

>  <REMARK>
 VINA RESULT:      -7.3      2.825      6.062
  Name = 
  2 active torsions:
  status: ('A' for Active; 'I' for Inactive)
    1  A    between atoms: N_4  and  C_37
    2  A    between atoms: C_23  and  C_30
                            x       y       z     vdW  Elec       q    Type
                         _______ _______ _______ _____ _____    ______ ____

>  <TORSDO>
F 2

$$$$
