=
 OpenBabel11112417353D

 28 32  0  0  1  0  0  0  0  0999 V2000
  186.0390  178.2090  144.3090 C   0  0  0  0  0  0  0  0  0  0  0  0
  189.9060  177.9790  147.0880 O   0  0  0  0  0  0  0  0  0  0  0  0
  187.4470  173.6060  141.2040 C   0  0  0  0  0  1  0  0  0  0  0  0
  185.0090  176.9140  146.5700 C   0  0  0  0  0  3  0  0  0  0  0  0
  189.6740  174.7130  141.8810 C   0  0  1  0  0  3  0  0  0  0  0  0
  186.4740  178.8760  143.0530 C   0  0  0  0  0  2  0  0  0  0  0  0
  188.4100  176.1260  147.7180 O   0  0  0  0  0  0  0  0  0  0  0  0
  189.5440  176.5450  146.8270 S   0  0  0  0  0  0  0  0  0  0  0  0
  191.9220  175.4770  145.9750 C   0  0  1  0  0  3  0  0  0  0  0  0
  189.1800  176.3070  145.1290 C   0  0  0  0  0  0  0  0  0  0  0  0
  185.7420  177.3070  139.7510 O   0  0  0  0  0  1  0  0  0  0  0  0
  188.2820  176.1640  143.1030 N   0  0  0  0  0  0  0  0  0  0  0  0
  191.2800  175.0350  144.7360 N   0  0  0  0  0  2  0  0  0  0  0  0
  190.9460  175.4820  147.1560 C   0  0  0  0  0  2  0  0  0  0  0  0
  186.4950  178.0220  140.6830 C   0  0  2  0  0  3  0  0  0  0  0  0
  186.7480  177.1230  144.8740 C   0  0  0  0  0  0  0  0  0  0  0  0
  188.3030  174.8660  141.1510 C   0  0  2  0  0  3  0  0  0  0  0  0
  193.0950  174.5740  146.2890 C   0  0  0  0  0  1  0  0  0  0  0  0
  187.7770  177.2620  141.0110 C   0  0  0  0  0  2  0  0  0  0  0  0
  186.2060  176.4820  145.9980 C   0  0  0  0  0  3  0  0  0  0  0  0
  184.8390  178.6390  144.8930 C   0  0  0  0  0  3  0  0  0  0  0  0
  184.3270  177.9990  146.0200 C   0  0  0  0  0  3  0  0  0  0  0  0
  185.6450  178.3100  141.9100 C   0  0  0  0  0  2  0  0  0  0  0  0
  189.4370  175.5200  143.0910 C   0  0  0  0  0  0  0  0  0  0  0  0
  187.5480  176.0130  141.8610 C   0  0  2  0  0  3  0  0  0  0  0  0
  190.0460  175.6150  144.3130 C   0  0  0  0  0  0  0  0  0  0  0  0
  189.9480  173.3860  142.2280 O   0  0  0  0  0  1  0  0  0  0  0  0
  188.0530  176.6340  144.3560 C   0  0  0  0  0  0  0  0  0  0  0  0
  1 16  2  0  0  0  0
  1 21  1  0  0  0  0
  5 27  1  1  0  0  0
  5 24  1  0  0  0  0
  6  1  1  0  0  0  0
  8  2  2  0  0  0  0
  8 14  1  0  0  0  0
  8  7  2  0  0  0  0
  9 18  1  1  0  0  0
  9 14  1  0  0  0  0
 10  8  1  0  0  0  0
 12 28  1  0  0  0  0
 13  9  1  0  0  0  0
 15 11  1  6  0  0  0
 15 19  1  0  0  0  0
 15 23  1  0  0  0  0
 16 20  1  0  0  0  0
 17  3  1  1  0  0  0
 17 25  1  0  0  0  0
 17  5  1  0  0  0  0
 20  4  2  0  0  0  0
 21 22  2  0  0  0  0
 22  4  1  0  0  0  0
 23  6  1  0  0  0  0
 24 12  1  0  0  0  0
 24 26  2  0  0  0  0
 25 19  1  6  0  0  0
 25 12  1  0  0  0  0
 26 13  1  0  0  0  0
 26 10  1  0  0  0  0
 28 16  1  0  0  0  0
 28 10  2  0  0  0  0
M  END
>  <MODEL>
1

>  <REMARK>
 VINA RESULT:      -8.4      0.000      0.000
  Name = 
  0 active torsions:
  status: ('A' for Active; 'I' for Inactive)
                            x       y       z     vdW  Elec       q    Type
                         _______ _______ _______ _____ _____    ______ ____

>  <TORSDO>
F 0

$$$$
=
 OpenBabel11112417353D

 28 32  0  0  1  0  0  0  0  0999 V2000
  191.4650  175.3500  142.3660 C   0  0  0  0  0  0  0  0  0  0  0  0
  188.2140  178.5520  140.9830 O   0  0  0  0  0  0  0  0  0  0  0  0
  189.0400  174.4330  147.4740 C   0  0  0  0  0  1  0  0  0  0  0  0
  189.7760  173.7650  140.7890 C   0  0  0  0  0  3  0  0  0  0  0  0
  188.5660  176.8990  146.8970 C   0  0  1  0  0  3  0  0  0  0  0  0
  192.4220  176.0850  143.2350 C   0  0  0  0  0  2  0  0  0  0  0  0
  187.1490  176.3310  140.9540 O   0  0  0  0  0  0  0  0  0  0  0  0
  187.4370  177.5480  141.7840 S   0  0  0  0  0  0  0  0  0  0  0  0
  186.0680  179.1330  143.5550 C   0  0  1  0  0  3  0  0  0  0  0  0
  188.2900  177.1570  143.2650 C   0  0  0  0  0  0  0  0  0  0  0  0
  193.2680  174.7690  146.6200 O   0  0  0  0  0  1  0  0  0  0  0  0
  189.6090  176.3530  144.8600 N   0  0  0  0  0  0  0  0  0  0  0  0
  186.6500  178.3890  144.6730 N   0  0  0  0  0  2  0  0  0  0  0  0
  185.8790  178.2510  142.3160 C   0  0  0  0  0  2  0  0  0  0  0  0
  192.9990  175.7500  145.6650 C   0  0  2  0  0  3  0  0  0  0  0  0
  190.0640  175.4300  142.5470 C   0  0  0  0  0  0  0  0  0  0  0  0
  189.6390  175.7920  147.1360 C   0  0  2  0  0  3  0  0  0  0  0  0
  184.7340  179.7140  143.9730 C   0  0  0  0  0  1  0  0  0  0  0  0
  191.7180  176.4950  146.0300 C   0  0  0  0  0  2  0  0  0  0  0  0
  189.2390  174.6180  141.7550 C   0  0  0  0  0  3  0  0  0  0  0  0
  191.9950  174.4930  141.3920 C   0  0  0  0  0  3  0  0  0  0  0  0
  191.1560  173.7070  140.6030 C   0  0  0  0  0  3  0  0  0  0  0  0
  192.9430  175.1150  144.2850 C   0  0  0  0  0  2  0  0  0  0  0  0
  188.6440  177.0520  145.4340 C   0  0  0  0  0  0  0  0  0  0  0  0
  190.4490  175.6690  145.8250 C   0  0  2  0  0  3  0  0  0  0  0  0
  187.8260  177.6000  144.4830 C   0  0  0  0  0  0  0  0  0  0  0  0
  187.2830  176.4890  147.2750 O   0  0  0  0  0  1  0  0  0  0  0  0
  189.4110  176.3490  143.5170 C   0  0  0  0  0  0  0  0  0  0  0  0
  1 16  1  0  0  0  0
  1  6  1  0  0  0  0
  2  8  2  0  0  0  0
  4 20  1  0  0  0  0
  5 17  1  0  0  0  0
  5 27  1  6  0  0  0
  6 23  1  0  0  0  0
  7  8  2  0  0  0  0
  8 14  1  0  0  0  0
  8 10  1  0  0  0  0
  9 18  1  1  0  0  0
  9 13  1  0  0  0  0
 10 28  2  0  0  0  0
 10 26  1  0  0  0  0
 12 24  1  0  0  0  0
 12 25  1  0  0  0  0
 14  9  1  0  0  0  0
 15 19  1  0  0  0  0
 15 11  1  1  0  0  0
 16 28  1  0  0  0  0
 17  3  1  6  0  0  0
 20 16  2  0  0  0  0
 21  1  2  0  0  0  0
 22  4  2  0  0  0  0
 22 21  1  0  0  0  0
 23 15  1  0  0  0  0
 24  5  1  0  0  0  0
 25 19  1  1  0  0  0
 25 17  1  0  0  0  0
 26 13  1  0  0  0  0
 26 24  2  0  0  0  0
 28 12  1  0  0  0  0
M  END
>  <MODEL>
2

>  <REMARK>
 VINA RESULT:      -8.1      2.179      6.656
  Name = 
  0 active torsions:
  status: ('A' for Active; 'I' for Inactive)
                            x       y       z     vdW  Elec       q    Type
                         _______ _______ _______ _____ _____    ______ ____

>  <TORSDO>
F 0

$$$$
=
 OpenBabel11112417353D

 28 32  0  0  1  0  0  0  0  0999 V2000
  188.2230  176.4670  145.0170 C   0  0  0  0  0  0  0  0  0  0  0  0
  187.5450  172.8980  141.9290 O   0  0  0  0  0  0  0  0  0  0  0  0
  193.9240  176.4630  144.4560 C   0  0  0  0  0  1  0  0  0  0  0  0
  187.5550  177.8790  142.6910 C   0  0  0  0  0  3  0  0  0  0  0  0
  193.1780  174.0180  144.1310 C   0  0  1  0  0  3  0  0  0  0  0  0
  188.6030  175.8290  146.3060 C   0  0  0  0  0  2  0  0  0  0  0  0
  188.2040  174.8950  140.6460 O   0  0  0  0  0  0  0  0  0  0  0  0
  188.7000  173.6720  141.3620 S   0  0  0  0  0  0  0  0  0  0  0  0
  190.5700  171.7140  140.9240 C   0  0  1  0  0  3  0  0  0  0  0  0
  189.8520  174.0620  142.6250 C   0  0  0  0  0  0  0  0  0  0  0  0
  191.6660  176.9440  148.1150 O   0  0  0  0  0  1  0  0  0  0  0  0
  191.0150  174.9260  144.3080 N   0  0  0  0  0  0  0  0  0  0  0  0
  191.5270  172.4380  141.7620 N   0  0  0  0  0  2  0  0  0  0  0  0
  189.6110  172.6630  140.1980 C   0  0  0  0  0  2  0  0  0  0  0  0
  190.7210  176.0260  147.6550 C   0  0  2  0  0  3  0  0  0  0  0  0
  188.8470  176.1290  143.7930 C   0  0  0  0  0  0  0  0  0  0  0  0
  193.2070  175.2660  145.0670 C   0  0  2  0  0  3  0  0  0  0  0  0
  191.3180  170.8750  139.9110 C   0  0  0  0  0  1  0  0  0  0  0  0
  191.3780  175.0410  146.6940 C   0  0  0  0  0  2  0  0  0  0  0  0
  188.5060  176.8590  142.6450 C   0  0  0  0  0  3  0  0  0  0  0  0
  187.2660  177.4900  145.0540 C   0  0  0  0  0  3  0  0  0  0  0  0
  186.9290  178.1910  143.8970 C   0  0  0  0  0  3  0  0  0  0  0  0
  189.5500  176.7710  147.0340 C   0  0  0  0  0  2  0  0  0  0  0  0
  191.7670  174.0200  143.7060 C   0  0  0  0  0  0  0  0  0  0  0  0
  191.7340  175.6500  145.3380 C   0  0  2  0  0  3  0  0  0  0  0  0
  191.0740  173.4320  142.6830 C   0  0  0  0  0  0  0  0  0  0  0  0
  194.0200  174.1630  143.0230 O   0  0  0  0  0  1  0  0  0  0  0  0
  189.8310  175.0240  143.6490 C   0  0  0  0  0  0  0  0  0  0  0  0
  1 21  1  0  0  0  0
  1  6  1  0  0  0  0
  4 22  1  0  0  0  0
  5 27  1  6  0  0  0
  5 17  1  0  0  0  0
  6 23  1  0  0  0  0
  7  8  2  0  0  0  0
  8  2  2  0  0  0  0
  8 10  1  0  0  0  0
  9 18  1  6  0  0  0
  9 13  1  0  0  0  0
 10 26  1  0  0  0  0
 10 28  2  0  0  0  0
 12 25  1  0  0  0  0
 13 26  1  0  0  0  0
 14  9  1  0  0  0  0
 14  8  1  0  0  0  0
 15 11  1  6  0  0  0
 16  1  2  0  0  0  0
 17  3  1  6  0  0  0
 17 25  1  0  0  0  0
 19 15  1  0  0  0  0
 20  4  2  0  0  0  0
 20 16  1  0  0  0  0
 22 21  2  0  0  0  0
 23 15  1  0  0  0  0
 24  5  1  0  0  0  0
 24 12  1  0  0  0  0
 25 19  1  1  0  0  0
 26 24  2  0  0  0  0
 28 16  1  0  0  0  0
 28 12  1  0  0  0  0
M  END
>  <MODEL>
3

>  <REMARK>
 VINA RESULT:      -7.8      2.473      5.665
  Name = 
  0 active torsions:
  status: ('A' for Active; 'I' for Inactive)
                            x       y       z     vdW  Elec       q    Type
                         _______ _______ _______ _____ _____    ______ ____

>  <TORSDO>
F 0

$$$$
=
 OpenBabel11112417353D

 28 32  0  0  1  0  0  0  0  0999 V2000
  186.1580  177.0290  143.3480 C   0  0  0  0  0  0  0  0  0  0  0  0
  187.5030  172.8180  141.5620 O   0  0  0  0  0  0  0  0  0  0  0  0
  190.8160  177.6310  146.6270 C   0  0  0  0  0  1  0  0  0  0  0  0
  187.2510  177.8060  140.8880 C   0  0  0  0  0  3  0  0  0  0  0  0
  190.3500  175.0990  146.5140 C   0  0  1  0  0  3  0  0  0  0  0  0
  185.5660  176.7400  144.6810 C   0  0  0  0  0  2  0  0  0  0  0  0
  188.9390  174.5560  140.5670 O   0  0  0  0  0  0  0  0  0  0  0  0
  188.7820  173.5920  141.7070 S   0  0  0  0  0  0  0  0  0  0  0  0
  190.3830  171.8400  143.0830 C   0  0  1  0  0  3  0  0  0  0  0  0
  188.8380  174.3910  143.2670 C   0  0  0  0  0  0  0  0  0  0  0  0
  186.7370  178.6030  147.6910 O   0  0  0  0  0  1  0  0  0  0  0  0
  188.6500  175.7400  145.0200 N   0  0  0  0  0  0  0  0  0  0  0  0
  190.5870  172.8450  144.1270 N   0  0  0  0  0  2  0  0  0  0  0  0
  190.1830  172.4790  141.7040 C   0  0  0  0  0  2  0  0  0  0  0  0
  186.2840  177.4950  146.9760 C   0  0  2  0  0  3  0  0  0  0  0  0
  187.4150  176.5170  142.9500 C   0  0  0  0  0  0  0  0  0  0  0  0
  189.8170  176.5140  146.9000 C   0  0  2  0  0  3  0  0  0  0  0  0
  191.5700  170.9030  143.0420 C   0  0  0  0  0  1  0  0  0  0  0  0
  187.3620  176.4160  146.9490 C   0  0  0  0  0  2  0  0  0  0  0  0
  187.9480  176.9290  141.7200 C   0  0  0  0  0  3  0  0  0  0  0  0
  185.4630  177.9060  142.5030 C   0  0  0  0  0  3  0  0  0  0  0  0
  186.0030  178.2900  141.2770 C   0  0  0  0  0  3  0  0  0  0  0  0
  185.8460  177.9310  145.5860 C   0  0  0  0  0  2  0  0  0  0  0  0
  189.5680  174.8290  145.2950 C   0  0  0  0  0  0  0  0  0  0  0  0
  188.5490  176.7570  146.0500 C   0  0  2  0  0  3  0  0  0  0  0  0
  189.6900  173.9490  144.2540 C   0  0  0  0  0  0  0  0  0  0  0  0
  191.7180  175.1060  146.2220 O   0  0  0  0  0  1  0  0  0  0  0  0
  188.1970  175.5410  143.7550 C   0  0  0  0  0  0  0  0  0  0  0  0
  1  6  1  0  0  0  0
  2  8  2  0  0  0  0
  4 22  2  0  0  0  0
  4 20  1  0  0  0  0
  5 27  1  6  0  0  0
  5 17  1  0  0  0  0
  6 23  1  0  0  0  0
  7  8  2  0  0  0  0
  8 10  1  0  0  0  0
  9 18  1  6  0  0  0
  9 13  1  0  0  0  0
 10 28  2  0  0  0  0
 10 26  1  0  0  0  0
 12 24  1  0  0  0  0
 12 25  1  0  0  0  0
 13 26  1  0  0  0  0
 14  8  1  0  0  0  0
 14  9  1  0  0  0  0
 15 11  1  6  0  0  0
 16  1  1  0  0  0  0
 16 28  1  0  0  0  0
 17  3  1  6  0  0  0
 19 15  1  0  0  0  0
 20 16  2  0  0  0  0
 21  1  2  0  0  0  0
 22 21  1  0  0  0  0
 23 15  1  0  0  0  0
 24  5  1  0  0  0  0
 25 17  1  0  0  0  0
 25 19  1  1  0  0  0
 26 24  2  0  0  0  0
 28 12  1  0  0  0  0
M  END
>  <MODEL>
4

>  <REMARK>
 VINA RESULT:      -7.8      2.272      4.961
  Name = 
  0 active torsions:
  status: ('A' for Active; 'I' for Inactive)
                            x       y       z     vdW  Elec       q    Type
                         _______ _______ _______ _____ _____    ______ ____

>  <TORSDO>
F 0

$$$$
=
 OpenBabel11112417353D

 28 32  0  0  1  0  0  0  0  0999 V2000
  191.9030  174.2500  142.1100 C   0  0  0  0  0  0  0  0  0  0  0  0
  187.8120  176.3890  140.9190 O   0  0  0  0  0  0  0  0  0  0  0  0
  191.3560  175.3290  147.7090 C   0  0  0  0  0  1  0  0  0  0  0  0
  190.1760  172.0520  141.9170 C   0  0  0  0  0  3  0  0  0  0  0  0
  190.2430  177.3100  146.4940 C   0  0  1  0  0  3  0  0  0  0  0  0
  192.9080  175.3370  142.2570 C   0  0  0  0  0  2  0  0  0  0  0  0
  187.2580  174.2820  142.0700 O   0  0  0  0  0  0  0  0  0  0  0  0
  187.5290  175.7480  142.2480 S   0  0  0  0  0  0  0  0  0  0  0  0
  186.4620  177.8210  143.6930 C   0  0  1  0  0  3  0  0  0  0  0  0
  188.8470  176.0500  143.3640 C   0  0  0  0  0  0  0  0  0  0  0  0
  194.9750  175.5700  145.3510 O   0  0  0  0  0  1  0  0  0  0  0  0
  190.7160  176.0550  144.5620 N   0  0  0  0  0  0  0  0  0  0  0  0
  187.4900  177.6360  144.7190 N   0  0  0  0  0  2  0  0  0  0  0  0
  186.0940  176.5010  143.0060 C   0  0  0  0  0  2  0  0  0  0  0  0
  194.2400  176.0580  144.2700 C   0  0  2  0  0  3  0  0  0  0  0  0
  190.6340  174.3030  142.7340 C   0  0  0  0  0  0  0  0  0  0  0  0
  191.5390  176.4700  146.7170 C   0  0  2  0  0  3  0  0  0  0  0  0
  185.2270  178.4310  144.3180 C   0  0  0  0  0  1  0  0  0  0  0  0
  193.0050  176.7990  144.7720 C   0  0  0  0  0  2  0  0  0  0  0  0
  189.7920  173.1860  142.6350 C   0  0  0  0  0  3  0  0  0  0  0  0
  192.2790  173.1090  141.3890 C   0  0  0  0  0  3  0  0  0  0  0  0
  191.4190  172.0160  141.2870 C   0  0  0  0  0  3  0  0  0  0  0  0
  193.9030  174.9140  143.3270 C   0  0  0  0  0  2  0  0  0  0  0  0
  189.8470  176.8600  145.1480 C   0  0  0  0  0  0  0  0  0  0  0  0
  191.9260  175.8790  145.3420 C   0  0  2  0  0  3  0  0  0  0  0  0
  188.6890  176.9180  144.4200 C   0  0  0  0  0  0  0  0  0  0  0  0
  189.2430  177.0040  147.4230 O   0  0  0  0  0  1  0  0  0  0  0  0
  190.1310  175.4910  143.4730 C   0  0  0  0  0  0  0  0  0  0  0  0
  1  6  1  0  0  0  0
  1 16  1  0  0  0  0
  2  8  2  0  0  0  0
  4 20  1  0  0  0  0
  5 17  1  0  0  0  0
  5 27  1  1  0  0  0
  6 23  1  0  0  0  0
  7  8  2  0  0  0  0
  8 14  1  0  0  0  0
  8 10  1  0  0  0  0
  9 18  1  1  0  0  0
  9 13  1  0  0  0  0
 10 28  2  0  0  0  0
 10 26  1  0  0  0  0
 12 24  1  0  0  0  0
 12 25  1  0  0  0  0
 14  9  1  0  0  0  0
 15 19  1  0  0  0  0
 15 11  1  1  0  0  0
 16 28  1  0  0  0  0
 17  3  1  1  0  0  0
 20 16  2  0  0  0  0
 21  1  2  0  0  0  0
 22 21  1  0  0  0  0
 22  4  2  0  0  0  0
 23 15  1  0  0  0  0
 24  5  1  0  0  0  0
 25 19  1  6  0  0  0
 25 17  1  0  0  0  0
 26 13  1  0  0  0  0
 26 24  2  0  0  0  0
 28 12  1  0  0  0  0
M  END
>  <MODEL>
5

>  <REMARK>
 VINA RESULT:      -7.5      2.443      6.799
  Name = 
  0 active torsions:
  status: ('A' for Active; 'I' for Inactive)
                            x       y       z     vdW  Elec       q    Type
                         _______ _______ _______ _____ _____    ______ ____

>  <TORSDO>
F 0

$$$$
=
 OpenBabel11112417353D

 28 32  0  0  1  0  0  0  0  0999 V2000
  187.7980  177.5160  145.3470 C   0  0  0  0  0  0  0  0  0  0  0  0
  192.2350  176.8580  146.9620 O   0  0  0  0  0  0  0  0  0  0  0  0
  188.0140  173.1400  141.6560 C   0  0  0  0  0  1  0  0  0  0  0  0
  187.3120  176.0780  147.7020 C   0  0  0  0  0  3  0  0  0  0  0  0
  190.4120  174.0750  141.7880 C   0  0  1  0  0  3  0  0  0  0  0  0
  187.9320  178.2680  144.0710 C   0  0  0  0  0  2  0  0  0  0  0  0
  190.8330  175.0300  147.8350 O   0  0  0  0  0  0  0  0  0  0  0  0
  191.7180  175.4710  146.7060 S   0  0  0  0  0  0  0  0  0  0  0  0
  193.7070  174.3690  145.1730 C   0  0  1  0  0  3  0  0  0  0  0  0
  190.9030  175.4010  145.1550 C   0  0  0  0  0  0  0  0  0  0  0  0
  186.2490  177.0320  140.9820 O   0  0  0  0  0  1  0  0  0  0  0  0
  189.4960  175.4790  143.4390 N   0  0  0  0  0  0  0  0  0  0  0  0
  192.7320  174.0680  144.1230 N   0  0  0  0  0  2  0  0  0  0  0  0
  193.0790  174.3170  146.5700 C   0  0  0  0  0  2  0  0  0  0  0  0
  187.2680  177.6250  141.7270 C   0  0  2  0  0  3  0  0  0  0  0  0
  188.5530  176.3510  145.6210 C   0  0  0  0  0  0  0  0  0  0  0  0
  188.9110  174.3560  141.4660 C   0  0  2  0  0  3  0  0  0  0  0  0
  194.8560  173.3860  145.0950 C   0  0  0  0  0  1  0  0  0  0  0  0
  188.5350  176.7780  141.6440 C   0  0  0  0  0  2  0  0  0  0  0  0
  188.2830  175.6410  146.8000 C   0  0  0  0  0  3  0  0  0  0  0  0
  186.8270  177.9500  146.2600 C   0  0  0  0  0  3  0  0  0  0  0  0
  186.5870  177.2380  147.4340 C   0  0  0  0  0  3  0  0  0  0  0  0
  186.7940  177.8450  143.1550 C   0  0  0  0  0  2  0  0  0  0  0  0
  190.5590  174.7830  143.0720 C   0  0  0  0  0  0  0  0  0  0  0  0
  188.4520  175.4720  142.4320 C   0  0  2  0  0  3  0  0  0  0  0  0
  191.4740  174.7420  144.0900 C   0  0  0  0  0  0  0  0  0  0  0  0
  190.6750  172.7110  141.9530 O   0  0  0  0  0  1  0  0  0  0  0  0
  189.6380  175.8480  144.7390 C   0  0  0  0  0  0  0  0  0  0  0  0
  1 16  2  0  0  0  0
  1 21  1  0  0  0  0
  5 27  1  1  0  0  0
  5 24  1  0  0  0  0
  6  1  1  0  0  0  0
  8  2  2  0  0  0  0
  8  7  2  0  0  0  0
  9 18  1  1  0  0  0
  9 14  1  0  0  0  0
 10  8  1  0  0  0  0
 12 28  1  0  0  0  0
 13  9  1  0  0  0  0
 14  8  1  0  0  0  0
 15 11  1  6  0  0  0
 15 23  1  0  0  0  0
 16 20  1  0  0  0  0
 17  3  1  1  0  0  0
 17  5  1  0  0  0  0
 17 25  1  0  0  0  0
 19 15  1  0  0  0  0
 20  4  2  0  0  0  0
 21 22  2  0  0  0  0
 22  4  1  0  0  0  0
 23  6  1  0  0  0  0
 24 12  1  0  0  0  0
 24 26  2  0  0  0  0
 25 19  1  6  0  0  0
 25 12  1  0  0  0  0
 26 13  1  0  0  0  0
 26 10  1  0  0  0  0
 28 10  2  0  0  0  0
 28 16  1  0  0  0  0
M  END
>  <MODEL>
6

>  <REMARK>
 VINA RESULT:      -7.4      1.592      1.951
  Name = 
  0 active torsions:
  status: ('A' for Active; 'I' for Inactive)
                            x       y       z     vdW  Elec       q    Type
                         _______ _______ _______ _____ _____    ______ ____

>  <TORSDO>
F 0

$$$$
=
 OpenBabel11112417353D

 28 32  0  0  1  0  0  0  0  0999 V2000
  190.3990  176.8620  145.6060 C   0  0  0  0  0  0  0  0  0  0  0  0
  194.8410  176.5190  143.9090 O   0  0  0  0  0  0  0  0  0  0  0  0
  188.3240  172.6990  142.2630 C   0  0  0  0  0  1  0  0  0  0  0  0
  191.6130  175.2790  147.5730 C   0  0  0  0  0  3  0  0  0  0  0  0
  190.1960  173.8330  140.9030 C   0  0  1  0  0  3  0  0  0  0  0  0
  189.6450  177.6820  144.6210 C   0  0  0  0  0  2  0  0  0  0  0  0
  194.4100  174.5370  145.3080 O   0  0  0  0  0  0  0  0  0  0  0  0
  194.3330  175.1060  143.9210 S   0  0  0  0  0  0  0  0  0  0  0  0
  194.8860  174.2550  141.3720 C   0  0  1  0  0  3  0  0  0  0  0  0
  192.7090  175.0380  143.2630 C   0  0  0  0  0  0  0  0  0  0  0  0
  186.4040  176.4490  143.2490 O   0  0  0  0  0  1  0  0  0  0  0  0
  190.5230  175.0720  142.8760 N   0  0  0  0  0  0  0  0  0  0  0  0
  193.4750  173.9190  141.1770 N   0  0  0  0  0  2  0  0  0  0  0  0
  195.3190  174.0830  142.8330 C   0  0  0  0  0  2  0  0  0  0  0  0
  187.6410  177.0940  143.2110 C   0  0  2  0  0  3  0  0  0  0  0  0
  191.1930  175.7560  145.2200 C   0  0  0  0  0  0  0  0  0  0  0  0
  188.8370  173.9970  141.6520 C   0  0  2  0  0  3  0  0  0  0  0  0
  195.7430  173.3810  140.4820 C   0  0  0  0  0  1  0  0  0  0  0  0
  188.5790  176.3660  142.2540 C   0  0  0  0  0  2  0  0  0  0  0  0
  191.7800  174.9710  146.2230 C   0  0  0  0  0  3  0  0  0  0  0  0
  190.2400  177.1660  146.9650 C   0  0  0  0  0  3  0  0  0  0  0  0
  190.8470  176.3820  147.9450 C   0  0  0  0  0  3  0  0  0  0  0  0
  188.2010  177.2040  144.6210 C   0  0  0  0  0  2  0  0  0  0  0  0
  191.1160  174.4910  141.8470 C   0  0  0  0  0  0  0  0  0  0  0  0
  189.0760  175.0220  142.7850 C   0  0  2  0  0  3  0  0  0  0  0  0
  192.4740  174.4820  142.0260 C   0  0  0  0  0  0  0  0  0  0  0  0
  190.5520  172.4910  140.7320 O   0  0  0  0  0  1  0  0  0  0  0  0
  191.4620  175.3910  143.8040 C   0  0  0  0  0  0  0  0  0  0  0  0
  1 21  1  0  0  0  0
  2  8  2  0  0  0  0
  4 22  1  0  0  0  0
  5 27  1  1  0  0  0
  5 17  1  0  0  0  0
  5 24  1  0  0  0  0
  6  1  1  0  0  0  0
  8  7  2  0  0  0  0
  9 18  1  6  0  0  0
  9 14  1  0  0  0  0
 10 28  2  0  0  0  0
 10  8  1  0  0  0  0
 12 28  1  0  0  0  0
 13  9  1  0  0  0  0
 13 26  1  0  0  0  0
 14  8  1  0  0  0  0
 15 11  1  1  0  0  0
 15 23  1  0  0  0  0
 16  1  2  0  0  0  0
 16 20  1  0  0  0  0
 17  3  1  1  0  0  0
 17 25  1  0  0  0  0
 19 15  1  0  0  0  0
 20  4  2  0  0  0  0
 21 22  2  0  0  0  0
 23  6  1  0  0  0  0
 24 26  2  0  0  0  0
 24 12  1  0  0  0  0
 25 19  1  6  0  0  0
 25 12  1  0  0  0  0
 26 10  1  0  0  0  0
 28 16  1  0  0  0  0
M  END
>  <MODEL>
7

>  <REMARK>
 VINA RESULT:      -7.4      3.090      4.546
  Name = 
  0 active torsions:
  status: ('A' for Active; 'I' for Inactive)
                            x       y       z     vdW  Elec       q    Type
                         _______ _______ _______ _____ _____    ______ ____

>  <TORSDO>
F 0

$$$$
=
 OpenBabel11112417353D

 28 32  0  0  1  0  0  0  0  0999 V2000
  188.8650  176.4490  145.3300 C   0  0  0  0  0  0  0  0  0  0  0  0
  189.1650  172.2870  143.0230 O   0  0  0  0  0  0  0  0  0  0  0  0
  194.5370  177.1390  145.7430 C   0  0  0  0  0  1  0  0  0  0  0  0
  188.5160  177.2720  142.6750 C   0  0  0  0  0  3  0  0  0  0  0  0
  194.1230  174.5970  145.8370 C   0  0  1  0  0  3  0  0  0  0  0  0
  189.0530  176.1340  146.7710 C   0  0  0  0  0  2  0  0  0  0  0  0
  189.8500  174.0680  141.4640 O   0  0  0  0  0  0  0  0  0  0  0  0
  190.3220  173.0910  142.5020 S   0  0  0  0  0  0  0  0  0  0  0  0
  192.4330  171.3680  142.8180 C   0  0  1  0  0  3  0  0  0  0  0  0
  191.1620  173.8780  143.8240 C   0  0  0  0  0  0  0  0  0  0  0  0
  191.5790  178.0010  148.7810 O   0  0  0  0  0  1  0  0  0  0  0  0
  191.8850  175.2080  145.4490 N   0  0  0  0  0  0  0  0  0  0  0  0
  193.1300  172.3690  143.6270 N   0  0  0  0  0  2  0  0  0  0  0  0
  191.5390  172.0130  141.7530 C   0  0  0  0  0  2  0  0  0  0  0  0
  190.8400  176.8870  148.3800 C   0  0  2  0  0  3  0  0  0  0  0  0
  189.7450  175.9710  144.3300 C   0  0  0  0  0  0  0  0  0  0  0  0
  193.8420  175.9950  146.4710 C   0  0  2  0  0  3  0  0  0  0  0  0
  193.4440  170.4610  142.1510 C   0  0  0  0  0  1  0  0  0  0  0  0
  191.7670  175.8350  147.7790 C   0  0  0  0  0  2  0  0  0  0  0  0
  189.5580  176.4070  143.0110 C   0  0  0  0  0  3  0  0  0  0  0  0
  187.8190  177.3150  144.9830 C   0  0  0  0  0  3  0  0  0  0  0  0
  187.6410  177.7220  143.6620 C   0  0  0  0  0  3  0  0  0  0  0  0
  189.7400  177.3230  147.4250 C   0  0  0  0  0  2  0  0  0  0  0  0
  192.8280  174.3170  145.1920 C   0  0  0  0  0  0  0  0  0  0  0  0
  192.3130  176.2130  146.4030 C   0  0  2  0  0  3  0  0  0  0  0  0
  192.4090  173.4490  144.2200 C   0  0  0  0  0  0  0  0  0  0  0  0
  195.1430  174.6400  144.8810 O   0  0  0  0  0  1  0  0  0  0  0  0
  190.8470  175.0080  144.5960 C   0  0  0  0  0  0  0  0  0  0  0  0
  1  6  1  0  0  0  0
  4 20  2  0  0  0  0
  4 22  1  0  0  0  0
  5 27  1  6  0  0  0
  5 17  1  0  0  0  0
  6 23  1  0  0  0  0
  7  8  2  0  0  0  0
  8  2  2  0  0  0  0
  8 10  1  0  0  0  0
  9 18  1  6  0  0  0
  9 13  1  0  0  0  0
 10 26  1  0  0  0  0
 10 28  2  0  0  0  0
 12 25  1  0  0  0  0
 13 26  1  0  0  0  0
 14  8  1  0  0  0  0
 14  9  1  0  0  0  0
 15 11  1  6  0  0  0
 16 28  1  0  0  0  0
 16  1  2  0  0  0  0
 17  3  1  6  0  0  0
 19 15  1  0  0  0  0
 20 16  1  0  0  0  0
 21  1  1  0  0  0  0
 22 21  2  0  0  0  0
 23 15  1  0  0  0  0
 24 12  1  0  0  0  0
 24  5  1  0  0  0  0
 25 17  1  0  0  0  0
 25 19  1  1  0  0  0
 26 24  2  0  0  0  0
 28 12  1  0  0  0  0
M  END
>  <MODEL>
8

>  <REMARK>
 VINA RESULT:      -7.2      2.704      5.979
  Name = 
  0 active torsions:
  status: ('A' for Active; 'I' for Inactive)
                            x       y       z     vdW  Elec       q    Type
                         _______ _______ _______ _____ _____    ______ ____

>  <TORSDO>
F 0

$$$$
=
 OpenBabel11112417353D

 28 32  0  0  1  0  0  0  0  0999 V2000
  192.1860  173.8550  144.6950 C   0  0  0  0  0  0  0  0  0  0  0  0
  188.3480  176.3700  145.9900 O   0  0  0  0  0  0  0  0  0  0  0  0
  190.7030  173.5930  139.1680 C   0  0  0  0  0  1  0  0  0  0  0  0
  193.2300  176.4540  144.7450 C   0  0  0  0  0  3  0  0  0  0  0  0
  188.4930  173.6090  140.4950 C   0  0  1  0  0  3  0  0  0  0  0  0
  191.7420  172.4370  144.6200 C   0  0  0  0  0  2  0  0  0  0  0  0
  189.8340  177.8610  144.7110 O   0  0  0  0  0  0  0  0  0  0  0  0
  188.6950  176.8880  144.6240 S   0  0  0  0  0  0  0  0  0  0  0  0
  186.2980  176.7250  143.3000 C   0  0  1  0  0  3  0  0  0  0  0  0
  189.0380  175.5570  143.5350 C   0  0  0  0  0  0  0  0  0  0  0  0
  192.4230  170.4230  141.5570 O   0  0  0  0  0  1  0  0  0  0  0  0
  189.9110  173.8940  142.3510 N   0  0  0  0  0  0  0  0  0  0  0  0
  186.9220  175.8910  142.2710 N   0  0  0  0  0  2  0  0  0  0  0  0
  187.2870  177.7270  143.9030 C   0  0  0  0  0  2  0  0  0  0  0  0
  191.6870  170.8530  142.6620 C   0  0  2  0  0  3  0  0  0  0  0  0
  191.4740  174.9050  144.0680 C   0  0  0  0  0  0  0  0  0  0  0  0
  189.8580  172.8990  140.2290 C   0  0  2  0  0  3  0  0  0  0  0  0
  185.1200  177.4670  142.7060 C   0  0  0  0  0  1  0  0  0  0  0  0
  190.4030  171.5340  142.1990 C   0  0  0  0  0  2  0  0  0  0  0  0
  192.0230  176.1950  144.0950 C   0  0  0  0  0  3  0  0  0  0  0  0
  193.3960  174.1250  145.3490 C   0  0  0  0  0  3  0  0  0  0  0  0
  193.9150  175.4190  145.3790 C   0  0  0  0  0  3  0  0  0  0  0  0
  192.5540  171.7490  143.5330 C   0  0  0  0  0  2  0  0  0  0  0  0
  188.7510  174.2240  141.8090 C   0  0  0  0  0  0  0  0  0  0  0  0
  190.6300  172.9070  141.5680 C   0  0  2  0  0  3  0  0  0  0  0  0
  188.1560  175.2230  142.5320 C   0  0  0  0  0  0  0  0  0  0  0  0
  188.2110  174.5940  139.5440 O   0  0  0  0  0  1  0  0  0  0  0  0
  190.1590  174.7210  143.3990 C   0  0  0  0  0  0  0  0  0  0  0  0
  1 21  1  0  0  0  0
  4 22  1  0  0  0  0
  5 27  1  6  0  0  0
  5 24  1  0  0  0  0
  6  1  1  0  0  0  0
  8  7  2  0  0  0  0
  8  2  2  0  0  0  0
  9 18  1  6  0  0  0
  9 14  1  0  0  0  0
 10  8  1  0  0  0  0
 12 28  1  0  0  0  0
 13 26  1  0  0  0  0
 13  9  1  0  0  0  0
 14  8  1  0  0  0  0
 15 11  1  6  0  0  0
 15 23  1  0  0  0  0
 16 20  1  0  0  0  0
 16  1  2  0  0  0  0
 17  3  1  6  0  0  0
 17  5  1  0  0  0  0
 17 25  1  0  0  0  0
 19 15  1  0  0  0  0
 20  4  2  0  0  0  0
 21 22  2  0  0  0  0
 23  6  1  0  0  0  0
 24 12  1  0  0  0  0
 24 26  2  0  0  0  0
 25 19  1  1  0  0  0
 25 12  1  0  0  0  0
 26 10  1  0  0  0  0
 28 10  2  0  0  0  0
 28 16  1  0  0  0  0
M  END
>  <MODEL>
9

>  <REMARK>
 VINA RESULT:      -7.1      2.373      6.166
  Name = 
  0 active torsions:
  status: ('A' for Active; 'I' for Inactive)
                            x       y       z     vdW  Elec       q    Type
                         _______ _______ _______ _____ _____    ______ ____

>  <TORSDO>
F 0

$$$$
