=
 OpenBabel11112417483D

 34 41  0  0  1  0  0  0  0  0999 V2000
  189.3930  174.7450  142.6650 C   0  0  0  0  0  0  0  0  0  0  0  0
  191.4740  173.2820  142.6080 C   0  0  0  0  0  2  0  0  0  0  0  0
  185.3220  179.0070  145.8950 C   0  0  2  0  0  3  0  0  0  0  0  0
  187.6380  176.3910  142.7580 C   0  0  0  0  0  0  0  0  0  0  0  0
  187.4390  177.9880  144.7650 C   0  0  1  0  0  3  0  0  0  0  0  0
  185.6390  176.9050  146.2320 C   0  0  0  0  0  2  0  0  0  0  0  0
  184.4170  177.8020  146.0950 C   0  0  0  0  0  2  0  0  0  0  0  0
  184.7940  178.8540  143.3600 C   0  0  0  0  0  2  0  0  0  0  0  0
  190.6320  174.0530  144.7430 C   0  0  2  0  0  3  0  0  0  0  0  0
  193.0610  175.1630  146.7070 C   0  0  0  0  0  2  0  0  0  0  0  0
  188.8230  177.4380  145.1350 C   0  0  0  0  0  2  0  0  0  0  0  0
  186.0690  178.3620  142.6940 C   0  0  0  0  0  2  0  0  0  0  0  0
  190.3600  175.4700  145.2700 C   0  0  1  0  0  3  0  0  0  0  0  0
  192.4280  172.7910  143.6880 C   0  0  0  0  0  2  0  0  0  0  0  0
  186.7460  177.3090  143.5590 C   0  0  1  0  0  3  0  0  0  0  0  0
  185.0970  179.7480  144.5620 C   0  0  0  0  0  2  0  0  0  0  0  0
  193.1030  174.6290  145.2660 C   0  0  1  0  0  3  0  0  0  0  0  0
  188.6660  175.6910  143.4030 C   0  0  0  0  0  0  0  0  0  0  0  0
  186.5510  178.1050  146.0150 C   0  0  2  0  0  3  0  0  0  0  0  0
  188.9510  175.9400  144.8680 C   0  0  2  0  0  3  0  0  0  0  0  0
  188.1170  175.2450  140.7410 C   0  0  0  0  0  3  0  0  0  0  0  0
  191.7090  175.3240  147.3700 C   0  0  0  0  0  3  0  0  0  0  0  0
  187.3790  176.1410  141.4450 N   0  0  0  0  0  0  0  0  0  0  0  0
  190.5260  175.4860  146.7590 C   0  0  0  0  0  3  0  0  0  0  0  0
  192.0590  173.5320  144.9720 C   0  0  1  0  0  3  0  0  0  0  0  0
  189.1160  174.5540  141.3480 N   0  0  0  0  0  0  0  0  0  0  0  0
  190.4290  173.9970  143.3110 N   0  0  0  0  0  0  0  0  0  0  0  0
  193.0320  175.6840  144.3490 O   0  0  0  0  0  0  0  0  0  0  0  0
  194.3250  176.2100  144.2950 C   0  0  0  0  0  2  0  0  0  0  0  0
  195.0390  176.1130  140.8630 N   0  0  0  0  0  2  0  0  0  0  0  0
  196.2930  176.5080  142.8090 C   0  0  0  0  0  2  0  0  0  0  0  0
  195.0220  175.7350  143.0320 C   0  0  2  0  0  3  0  0  0  0  0  0
  196.2190  176.8070  141.3480 C   0  0  0  0  0  2  0  0  0  0  0  0
  194.1960  175.9610  141.9220 O   0  0  0  0  0  0  0  0  0  0  0  0
  1 27  1  0  0  0  0
  1 18  1  0  0  0  0
  2 27  1  0  0  0  0
  2 14  1  0  0  0  0
  3 16  1  6  0  0  0
  3 19  1  0  0  0  0
  3  7  1  0  0  0  0
  4 18  2  0  0  0  0
  4 15  1  0  0  0  0
  5 11  1  1  0  0  0
  5 19  1  0  0  0  0
  7  6  1  0  0  0  0
  8 16  1  0  0  0  0
  9 27  1  6  0  0  0
  9 25  1  0  0  0  0
  9 13  1  0  0  0  0
 10 22  1  0  0  0  0
 12  8  1  0  0  0  0
 13 24  1  1  0  0  0
 15 12  1  6  0  0  0
 15  5  1  0  0  0  0
 17 28  1  6  0  0  0
 17 10  1  0  0  0  0
 18 20  1  0  0  0  0
 19  6  1  6  0  0  0
 20 11  1  6  0  0  0
 20 13  1  0  0  0  0
 21 26  1  0  0  0  0
 21 23  2  0  0  0  0
 23  4  1  0  0  0  0
 24 22  2  0  0  0  0
 25 14  1  6  0  0  0
 25 17  1  0  0  0  0
 26  1  2  0  0  0  0
 29 28  1  0  0  0  0
 30 33  1  0  0  0  0
 30 34  1  0  0  0  0
 31 32  1  0  0  0  0
 32 29  1  1  0  0  0
 33 31  1  0  0  0  0
 34 32  1  0  0  0  0
M  END
>  <MODEL>
1

>  <REMARK>
 VINA RESULT:      -9.9      0.000      0.000
  Name = 
  3 active torsions:
  status: ('A' for Active; 'I' for Inactive)
    1  A    between atoms: C_17  and  O_28
    2  A    between atoms: O_28  and  C_29
    3  A    between atoms: C_29  and  C_32
                            x       y       z     vdW  Elec       q    Type
                         _______ _______ _______ _____ _____    ______ ____

>  <TORSDO>
F 3

$$$$
=
 OpenBabel11112417483D

 34 41  0  0  1  0  0  0  0  0999 V2000
  190.1600  173.9380  143.3460 C   0  0  0  0  0  0  0  0  0  0  0  0
  192.4100  172.7830  143.6260 C   0  0  0  0  0  2  0  0  0  0  0  0
  185.7430  178.6670  145.1600 C   0  0  2  0  0  3  0  0  0  0  0  0
  188.2110  175.3080  142.9980 C   0  0  0  0  0  0  0  0  0  0  0  0
  187.9110  177.5180  144.2810 C   0  0  1  0  0  3  0  0  0  0  0  0
  186.3530  176.8950  146.2170 C   0  0  0  0  0  2  0  0  0  0  0  0
  185.0170  177.5430  145.8810 C   0  0  0  0  0  2  0  0  0  0  0  0
  185.1030  177.5110  142.9270 C   0  0  0  0  0  2  0  0  0  0  0  0
  191.5910  174.2160  145.3970 C   0  0  2  0  0  3  0  0  0  0  0  0
  193.9550  176.2300  146.5570 C   0  0  0  0  0  2  0  0  0  0  0  0
  189.3740  177.2940  144.6880 C   0  0  0  0  0  2  0  0  0  0  0  0
  186.3940  176.9360  142.3670 C   0  0  0  0  0  2  0  0  0  0  0  0
  191.1620  175.6910  145.3870 C   0  0  1  0  0  3  0  0  0  0  0  0
  193.4780  172.8390  144.7100 C   0  0  0  0  0  2  0  0  0  0  0  0
  187.2500  176.3650  143.4870 C   0  0  1  0  0  3  0  0  0  0  0  0
  185.3500  178.8200  143.6760 C   0  0  0  0  0  2  0  0  0  0  0  0
  193.9880  175.1960  145.4200 C   0  0  1  0  0  3  0  0  0  0  0  0
  189.3560  175.0140  143.7500 C   0  0  0  0  0  0  0  0  0  0  0  0
  187.0850  178.0090  145.4810 C   0  0  2  0  0  3  0  0  0  0  0  0
  189.6840  175.8280  144.9820 C   0  0  2  0  0  3  0  0  0  0  0  0
  188.7270  173.5370  141.5110 C   0  0  0  0  0  3  0  0  0  0  0  0
  192.6310  176.4920  147.2450 C   0  0  0  0  0  3  0  0  0  0  0  0
  187.9160  174.5540  141.9040 N   0  0  0  0  0  0  0  0  0  0  0  0
  191.4060  176.2880  146.7390 C   0  0  0  0  0  3  0  0  0  0  0  0
  193.0840  173.9700  145.6580 C   0  0  1  0  0  3  0  0  0  0  0  0
  189.8400  173.2350  142.2280 N   0  0  0  0  0  0  0  0  0  0  0  0
  191.3200  173.6010  144.1150 N   0  0  0  0  0  0  0  0  0  0  0  0
  193.7290  175.8120  144.1900 O   0  0  0  0  0  0  0  0  0  0  0  0
  194.9600  176.3200  143.7680 C   0  0  0  0  0  2  0  0  0  0  0  0
  196.7010  176.1290  140.7290 N   0  0  0  0  0  2  0  0  0  0  0  0
  195.4620  174.6170  142.0320 C   0  0  0  0  0  2  0  0  0  0  0  0
  195.1410  176.0640  142.2810 C   0  0  2  0  0  3  0  0  0  0  0  0
  196.5720  174.7150  141.0380 C   0  0  0  0  0  2  0  0  0  0  0  0
  196.2180  176.8210  141.7990 O   0  0  0  0  0  0  0  0  0  0  0  0
  1 18  1  0  0  0  0
  1 27  1  0  0  0  0
  2 27  1  0  0  0  0
  2 14  1  0  0  0  0
  3 16  1  6  0  0  0
  3 19  1  0  0  0  0
  3  7  1  0  0  0  0
  4 15  1  0  0  0  0
  4 18  2  0  0  0  0
  5 11  1  1  0  0  0
  5 19  1  0  0  0  0
  7  6  1  0  0  0  0
  8 16  1  0  0  0  0
  9 27  1  6  0  0  0
  9 25  1  0  0  0  0
 10 22  1  0  0  0  0
 12  8  1  0  0  0  0
 13  9  1  0  0  0  0
 13 24  1  1  0  0  0
 15 12  1  6  0  0  0
 15  5  1  0  0  0  0
 17 28  1  6  0  0  0
 17 25  1  0  0  0  0
 17 10  1  0  0  0  0
 18 20  1  0  0  0  0
 19  6  1  1  0  0  0
 20 11  1  6  0  0  0
 20 13  1  0  0  0  0
 21 23  2  0  0  0  0
 21 26  1  0  0  0  0
 23  4  1  0  0  0  0
 24 22  2  0  0  0  0
 25 14  1  6  0  0  0
 26  1  2  0  0  0  0
 29 28  1  0  0  0  0
 30 33  1  0  0  0  0
 30 34  1  0  0  0  0
 31 32  1  0  0  0  0
 32 29  1  1  0  0  0
 33 31  1  0  0  0  0
 34 32  1  0  0  0  0
M  END
>  <MODEL>
2

>  <REMARK>
 VINA RESULT:      -9.4      1.191      1.340
  Name = 
  3 active torsions:
  status: ('A' for Active; 'I' for Inactive)
    1  A    between atoms: C_17  and  O_28
    2  A    between atoms: O_28  and  C_29
    3  A    between atoms: C_29  and  C_32
                            x       y       z     vdW  Elec       q    Type
                         _______ _______ _______ _____ _____    ______ ____

>  <TORSDO>
F 3

$$$$
=
 OpenBabel11112417483D

 34 41  0  0  1  0  0  0  0  0999 V2000
  187.8790  175.5210  140.8960 C   0  0  0  0  0  0  0  0  0  0  0  0
  189.3450  173.8280  139.6890 C   0  0  0  0  0  2  0  0  0  0  0  0
  185.8430  178.5200  146.5560 C   0  0  2  0  0  3  0  0  0  0  0  0
  186.7820  177.2760  142.1270 C   0  0  0  0  0  0  0  0  0  0  0  0
  187.3590  177.7090  144.5960 C   0  0  1  0  0  3  0  0  0  0  0  0
  185.4950  176.5060  145.8790 C   0  0  0  0  0  2  0  0  0  0  0  0
  184.6260  177.6150  146.4550 C   0  0  0  0  0  2  0  0  0  0  0  0
  184.9920  179.7310  144.4260 C   0  0  0  0  0  2  0  0  0  0  0  0
  189.0660  173.6500  142.0880 C   0  0  2  0  0  3  0  0  0  0  0  0
  191.9430  173.0810  143.6330 C   0  0  0  0  0  2  0  0  0  0  0  0
  188.5220  176.7450  144.3270 C   0  0  0  0  0  2  0  0  0  0  0  0
  185.9460  179.3380  143.3100 C   0  0  0  0  0  2  0  0  0  0  0  0
  189.3360  174.6580  143.2150 C   0  0  1  0  0  3  0  0  0  0  0  0
  190.2110  172.6720  140.1730 C   0  0  0  0  0  2  0  0  0  0  0  0
  186.3420  177.8760  143.4410 C   0  0  1  0  0  3  0  0  0  0  0  0
  185.7130  179.8400  145.7690 C   0  0  0  0  0  2  0  0  0  0  0  0
  191.6330  173.3120  142.1450 C   0  0  1  0  0  3  0  0  0  0  0  0
  187.5950  176.1350  142.1250 C   0  0  0  0  0  0  0  0  0  0  0  0
  186.7160  177.4140  145.9610 C   0  0  2  0  0  3  0  0  0  0  0  0
  188.1210  175.5770  143.4280 C   0  0  2  0  0  3  0  0  0  0  0  0
  186.6130  177.1650  139.7660 C   0  0  0  0  0  3  0  0  0  0  0  0
  190.8080  173.2130  144.6280 C   0  0  0  0  0  3  0  0  0  0  0  0
  186.2990  177.7560  140.9480 N   0  0  0  0  0  0  0  0  0  0  0  0
  189.6780  173.9180  144.4710 C   0  0  0  0  0  3  0  0  0  0  0  0
  190.2620  172.7680  141.6970 C   0  0  1  0  0  3  0  0  0  0  0  0
  187.3980  176.0560  139.7430 N   0  0  0  0  0  0  0  0  0  0  0  0
  188.6840  174.3380  140.8730 N   0  0  0  0  0  0  0  0  0  0  0  0
  191.8010  174.6610  141.8130 O   0  0  0  0  0  0  0  0  0  0  0  0
  193.1450  174.9380  142.0700 C   0  0  0  0  0  2  0  0  0  0  0  0
  192.1240  177.5120  144.2220 N   0  0  0  0  0  2  0  0  0  0  0  0
  193.9490  176.0340  144.1480 C   0  0  0  0  0  2  0  0  0  0  0  0
  193.2660  176.2500  142.8260 C   0  0  2  0  0  3  0  0  0  0  0  0
  193.0960  176.8420  145.0690 C   0  0  0  0  0  2  0  0  0  0  0  0
  191.9890  176.7610  143.0930 O   0  0  0  0  0  0  0  0  0  0  0  0
  1 18  1  0  0  0  0
  2 14  1  0  0  0  0
  2 27  1  0  0  0  0
  3 16  1  6  0  0  0
  4 15  1  0  0  0  0
  5 11  1  6  0  0  0
  5 19  1  0  0  0  0
  6  7  1  0  0  0  0
  7  3  1  0  0  0  0
  8 16  1  0  0  0  0
  9 27  1  6  0  0  0
  9 13  1  0  0  0  0
 10 22  1  0  0  0  0
 12  8  1  0  0  0  0
 13 20  1  0  0  0  0
 13 24  1  1  0  0  0
 15 12  1  6  0  0  0
 15  5  1  0  0  0  0
 17 28  1  1  0  0  0
 17 10  1  0  0  0  0
 18  4  2  0  0  0  0
 18 20  1  0  0  0  0
 19  6  1  6  0  0  0
 19  3  1  0  0  0  0
 20 11  1  1  0  0  0
 21 23  2  0  0  0  0
 23  4  1  0  0  0  0
 24 22  2  0  0  0  0
 25 14  1  6  0  0  0
 25  9  1  0  0  0  0
 25 17  1  0  0  0  0
 26 21  1  0  0  0  0
 26  1  2  0  0  0  0
 27  1  1  0  0  0  0
 28 29  1  0  0  0  0
 30 33  1  0  0  0  0
 31 33  1  0  0  0  0
 32 29  1  1  0  0  0
 32 34  1  0  0  0  0
 32 31  1  0  0  0  0
 34 30  1  0  0  0  0
M  END
>  <MODEL>
3

>  <REMARK>
 VINA RESULT:      -9.2      1.789      2.664
  Name = 
  3 active torsions:
  status: ('A' for Active; 'I' for Inactive)
    1  A    between atoms: C_17  and  O_28
    2  A    between atoms: O_28  and  C_29
    3  A    between atoms: C_29  and  C_32
                            x       y       z     vdW  Elec       q    Type
                         _______ _______ _______ _____ _____    ______ ____

>  <TORSDO>
F 3

$$$$
=
 OpenBabel11112417483D

 34 41  0  0  1  0  0  0  0  0999 V2000
  190.4210  176.1890  144.9370 C   0  0  0  0  0  0  0  0  0  0  0  0
  192.3070  174.8530  143.8760 C   0  0  0  0  0  2  0  0  0  0  0  0
  184.1820  178.6820  144.7410 C   0  0  2  0  0  3  0  0  0  0  0  0
  188.4600  177.1620  145.9410 C   0  0  0  0  0  0  0  0  0  0  0  0
  186.1700  176.9950  144.7820 C   0  0  1  0  0  3  0  0  0  0  0  0
  185.9150  179.2540  143.6000 C   0  0  0  0  0  2  0  0  0  0  0  0
  184.8490  180.0010  144.3890 C   0  0  0  0  0  2  0  0  0  0  0  0
  185.2600  178.8800  147.0920 C   0  0  0  0  0  2  0  0  0  0  0  0
  190.4720  175.6090  142.4900 C   0  0  2  0  0  3  0  0  0  0  0  0
  189.3950  173.2280  140.4490 C   0  0  0  0  0  2  0  0  0  0  0  0
  186.8870  175.9970  143.8630 C   0  0  0  0  0  2  0  0  0  0  0  0
  186.3470  177.8190  147.1470 C   0  0  0  0  0  2  0  0  0  0  0  0
  188.9570  175.3780  142.6040 C   0  0  1  0  0  3  0  0  0  0  0  0
  192.5380  174.3190  142.4680 C   0  0  0  0  0  2  0  0  0  0  0  0
  187.0660  177.7270  145.8100 C   0  0  1  0  0  3  0  0  0  0  0  0
  184.0670  178.4190  146.2560 C   0  0  0  0  0  2  0  0  0  0  0  0
  190.4890  173.2030  141.5290 C   0  0  1  0  0  3  0  0  0  0  0  0
  189.0800  176.5840  144.8250 C   0  0  0  0  0  0  0  0  0  0  0  0
  185.2610  177.9270  143.9630 C   0  0  2  0  0  3  0  0  0  0  0  0
  188.3140  176.4250  143.5300 C   0  0  2  0  0  3  0  0  0  0  0  0
  190.4560  176.8980  147.1910 C   0  0  0  0  0  3  0  0  0  0  0  0
  188.5670  174.4870  140.3010 C   0  0  0  0  0  3  0  0  0  0  0  0
  189.1670  177.3190  147.0930 N   0  0  0  0  0  0  0  0  0  0  0  0
  188.3440  175.4210  141.2380 C   0  0  0  0  0  3  0  0  0  0  0  0
  191.2380  174.5410  141.6950 C   0  0  1  0  0  3  0  0  0  0  0  0
  191.0750  176.3380  146.1200 N   0  0  0  0  0  0  0  0  0  0  0  0
  191.0830  175.6220  143.8020 N   0  0  0  0  0  0  0  0  0  0  0  0
  189.9710  172.7340  142.7410 O   0  0  0  0  0  0  0  0  0  0  0  0
  190.1060  171.3450  142.6860 C   0  0  0  0  0  2  0  0  0  0  0  0
  192.9990  170.1430  144.2630 N   0  0  0  0  0  2  0  0  0  0  0  0
  191.7860  169.5490  142.3410 C   0  0  0  0  0  2  0  0  0  0  0  0
  191.5720  170.9640  142.8010 C   0  0  2  0  0  3  0  0  0  0  0  0
  192.6920  169.0150  143.4010 C   0  0  0  0  0  2  0  0  0  0  0  0
  191.9750  171.0340  144.1420 O   0  0  0  0  0  0  0  0  0  0  0  0
  1 26  1  0  0  0  0
  3  7  1  1  0  0  0
  3 16  1  0  0  0  0
  4 23  2  0  0  0  0
  5 11  1  6  0  0  0
  5 15  1  0  0  0  0
  6  7  1  0  0  0  0
  8 12  1  0  0  0  0
  9 13  1  0  0  0  0
  9 27  1  1  0  0  0
 10 17  1  0  0  0  0
 13 24  1  6  0  0  0
 13 20  1  0  0  0  0
 14  2  1  0  0  0  0
 15  4  1  0  0  0  0
 15 12  1  1  0  0  0
 16  8  1  0  0  0  0
 17 25  1  0  0  0  0
 17 28  1  1  0  0  0
 18  1  2  0  0  0  0
 18  4  1  0  0  0  0
 19  6  1  1  0  0  0
 19  3  1  0  0  0  0
 19  5  1  0  0  0  0
 20 11  1  1  0  0  0
 20 18  1  0  0  0  0
 22 10  1  0  0  0  0
 22 24  2  0  0  0  0
 23 21  1  0  0  0  0
 25 14  1  1  0  0  0
 25  9  1  0  0  0  0
 26 21  2  0  0  0  0
 27  2  1  0  0  0  0
 27  1  1  0  0  0  0
 29 28  1  0  0  0  0
 31 32  1  0  0  0  0
 31 33  1  0  0  0  0
 32 29  1  1  0  0  0
 32 34  1  0  0  0  0
 33 30  1  0  0  0  0
 34 30  1  0  0  0  0
M  END
>  <MODEL>
4

>  <REMARK>
 VINA RESULT:      -9.0      2.479      4.768
  Name = 
  3 active torsions:
  status: ('A' for Active; 'I' for Inactive)
    1  A    between atoms: C_17  and  O_28
    2  A    between atoms: O_28  and  C_29
    3  A    between atoms: C_29  and  C_32
                            x       y       z     vdW  Elec       q    Type
                         _______ _______ _______ _____ _____    ______ ____

>  <TORSDO>
F 3

$$$$
=
 OpenBabel11112417483D

 34 41  0  0  1  0  0  0  0  0999 V2000
  192.1720  176.4030  145.8980 C   0  0  0  0  0  0  0  0  0  0  0  0
  194.5920  175.6650  146.1690 C   0  0  0  0  0  2  0  0  0  0  0  0
  186.6540  177.1020  142.1250 C   0  0  2  0  0  3  0  0  0  0  0  0
  189.8140  176.7730  145.5820 C   0  0  0  0  0  0  0  0  0  0  0  0
  188.6430  176.0220  143.4190 C   0  0  1  0  0  3  0  0  0  0  0  0
  188.5250  178.1610  142.0130 C   0  0  0  0  0  2  0  0  0  0  0  0
  187.0570  178.5640  142.0190 C   0  0  0  0  0  2  0  0  0  0  0  0
  186.1970  177.5160  144.6440 C   0  0  0  0  0  2  0  0  0  0  0  0
  193.6830  175.9330  143.9410 C   0  0  2  0  0  3  0  0  0  0  0  0
  194.5090  173.4120  141.9530 C   0  0  0  0  0  2  0  0  0  0  0  0
  189.9620  175.2860  143.1500 C   0  0  0  0  0  2  0  0  0  0  0  0
  187.3010  176.7910  145.3960 C   0  0  0  0  0  2  0  0  0  0  0  0
  192.4610  175.2940  143.2650 C   0  0  1  0  0  3  0  0  0  0  0  0
  195.6710  175.2580  145.1760 C   0  0  0  0  0  2  0  0  0  0  0  0
  188.6260  176.9400  144.6650 C   0  0  1  0  0  3  0  0  0  0  0  0
  185.8040  176.7720  143.3680 C   0  0  0  0  0  2  0  0  0  0  0  0
  194.8080  173.6540  143.4420 C   0  0  1  0  0  3  0  0  0  0  0  0
  191.0590  176.4200  145.0450 C   0  0  0  0  0  0  0  0  0  0  0  0
  188.1290  176.6950  142.1360 C   0  0  2  0  0  3  0  0  0  0  0  0
  191.1850  176.0970  143.5730 C   0  0  2  0  0  3  0  0  0  0  0  0
  190.8040  177.0260  147.7200 C   0  0  0  0  0  3  0  0  0  0  0  0
  193.6150  174.4010  141.2340 C   0  0  0  0  0  3  0  0  0  0  0  0
  189.7190  177.0820  146.9050 N   0  0  0  0  0  0  0  0  0  0  0  0
  192.6990  175.2090  141.7880 C   0  0  0  0  0  3  0  0  0  0  0  0
  194.9920  175.1390  143.8120 C   0  0  1  0  0  3  0  0  0  0  0  0
  192.0200  176.6890  147.2180 N   0  0  0  0  0  0  0  0  0  0  0  0
  193.4590  176.0730  145.3650 N   0  0  0  0  0  0  0  0  0  0  0  0
  193.8490  173.0250  144.2430 O   0  0  0  0  0  0  0  0  0  0  0  0
  193.7490  171.7240  143.7440 C   0  0  0  0  0  2  0  0  0  0  0  0
  190.2860  171.9500  144.2450 N   0  0  0  0  0  2  0  0  0  0  0  0
  191.6680  170.9980  142.6010 C   0  0  0  0  0  2  0  0  0  0  0  0
  192.3340  171.2060  143.9330 C   0  0  2  0  0  3  0  0  0  0  0  0
  190.3160  171.5860  142.8390 C   0  0  0  0  0  2  0  0  0  0  0  0
  191.5750  172.1510  144.6380 O   0  0  0  0  0  0  0  0  0  0  0  0
  1 26  1  0  0  0  0
  3  7  1  1  0  0  0
  3 19  1  0  0  0  0
  3 16  1  0  0  0  0
  4 23  2  0  0  0  0
  5 11  1  6  0  0  0
  5 15  1  0  0  0  0
  6  7  1  0  0  0  0
  8 12  1  0  0  0  0
  9 27  1  1  0  0  0
 10 17  1  0  0  0  0
 13 24  1  6  0  0  0
 13 20  1  0  0  0  0
 13  9  1  0  0  0  0
 14  2  1  0  0  0  0
 15 12  1  1  0  0  0
 15  4  1  0  0  0  0
 16  8  1  0  0  0  0
 17 25  1  0  0  0  0
 17 28  1  1  0  0  0
 18  4  1  0  0  0  0
 18  1  2  0  0  0  0
 19  6  1  1  0  0  0
 19  5  1  0  0  0  0
 20 11  1  1  0  0  0
 20 18  1  0  0  0  0
 22 24  2  0  0  0  0
 22 10  1  0  0  0  0
 23 21  1  0  0  0  0
 25  9  1  0  0  0  0
 25 14  1  1  0  0  0
 26 21  2  0  0  0  0
 27  1  1  0  0  0  0
 27  2  1  0  0  0  0
 29 28  1  0  0  0  0
 30 34  1  0  0  0  0
 31 33  1  0  0  0  0
 31 32  1  0  0  0  0
 32 29  1  6  0  0  0
 32 34  1  0  0  0  0
 33 30  1  0  0  0  0
M  END
>  <MODEL>
5

>  <REMARK>
 VINA RESULT:      -8.3      2.352      4.825
  Name = 
  3 active torsions:
  status: ('A' for Active; 'I' for Inactive)
    1  A    between atoms: C_17  and  O_28
    2  A    between atoms: O_28  and  C_29
    3  A    between atoms: C_29  and  C_32
                            x       y       z     vdW  Elec       q    Type
                         _______ _______ _______ _____ _____    ______ ____

>  <TORSDO>
F 3

$$$$
=
 OpenBabel11112417483D

 34 41  0  0  1  0  0  0  0  0999 V2000
  192.4290  176.3980  146.2120 C   0  0  0  0  0  0  0  0  0  0  0  0
  194.8320  175.6110  145.9340 C   0  0  0  0  0  2  0  0  0  0  0  0
  186.1640  177.0230  143.8590 C   0  0  2  0  0  3  0  0  0  0  0  0
  190.0700  176.8130  146.4570 C   0  0  0  0  0  0  0  0  0  0  0  0
  188.3960  175.9670  144.6970 C   0  0  1  0  0  3  0  0  0  0  0  0
  187.9640  178.0200  143.2270 C   0  0  0  0  0  2  0  0  0  0  0  0
  186.5470  178.4640  143.5640 C   0  0  0  0  0  2  0  0  0  0  0  0
  186.3420  177.5990  146.3820 C   0  0  0  0  0  2  0  0  0  0  0  0
  193.4090  175.7700  143.9820 C   0  0  2  0  0  3  0  0  0  0  0  0
  193.6920  173.1140  142.0200 C   0  0  0  0  0  2  0  0  0  0  0  0
  189.6000  175.1800  144.1640 C   0  0  0  0  0  2  0  0  0  0  0  0
  187.5880  176.8900  146.8880 C   0  0  0  0  0  2  0  0  0  0  0  0
  192.0500  175.1270  143.6650 C   0  0  1  0  0  3  0  0  0  0  0  0
  195.6300  175.1150  144.7360 C   0  0  0  0  0  2  0  0  0  0  0  0
  188.6950  176.9580  145.8480 C   0  0  1  0  0  3  0  0  0  0  0  0
  185.6400  176.7910  145.2910 C   0  0  0  0  0  2  0  0  0  0  0  0
  194.3500  173.4360  143.3710 C   0  0  1  0  0  3  0  0  0  0  0  0
  191.1410  176.3950  145.6570 C   0  0  0  0  0  0  0  0  0  0  0  0
  187.5910  176.5760  143.5370 C   0  0  2  0  0  3  0  0  0  0  0  0
  190.8990  175.9810  144.2220 C   0  0  2  0  0  3  0  0  0  0  0  0
  191.5560  177.1670  148.2690 C   0  0  0  0  0  3  0  0  0  0  0  0
  192.6620  174.0820  141.4780 C   0  0  0  0  0  3  0  0  0  0  0  0
  190.3050  177.2030  147.7400 N   0  0  0  0  0  0  0  0  0  0  0  0
  191.9190  174.9470  142.1840 C   0  0  0  0  0  3  0  0  0  0  0  0
  194.6360  174.9350  143.5890 C   0  0  1  0  0  3  0  0  0  0  0  0
  192.6080  176.7660  147.5080 N   0  0  0  0  0  0  0  0  0  0  0  0
  193.5420  176.0010  145.4050 N   0  0  0  0  0  0  0  0  0  0  0  0
  193.6090  172.8820  144.4210 O   0  0  0  0  0  0  0  0  0  0  0  0
  193.9410  171.5260  144.4300 C   0  0  0  0  0  2  0  0  0  0  0  0
  195.3080  169.3960  146.8590 N   0  0  0  0  0  2  0  0  0  0  0  0
  196.0670  171.2880  145.6920 C   0  0  0  0  0  2  0  0  0  0  0  0
  194.5710  171.1580  145.7630 C   0  0  2  0  0  3  0  0  0  0  0  0
  196.5170  170.0390  146.3740 C   0  0  0  0  0  2  0  0  0  0  0  0
  194.2810  169.8210  146.0690 O   0  0  0  0  0  0  0  0  0  0  0  0
  1 26  1  0  0  0  0
  3  7  1  1  0  0  0
  3 16  1  0  0  0  0
  4 23  2  0  0  0  0
  5 11  1  6  0  0  0
  5 15  1  0  0  0  0
  6  7  1  0  0  0  0
  8 12  1  0  0  0  0
  9 27  1  1  0  0  0
 10 17  1  0  0  0  0
 13 24  1  6  0  0  0
 13  9  1  0  0  0  0
 13 20  1  0  0  0  0
 14  2  1  0  0  0  0
 15  4  1  0  0  0  0
 15 12  1  1  0  0  0
 16  8  1  0  0  0  0
 17 25  1  0  0  0  0
 17 28  1  1  0  0  0
 18  1  2  0  0  0  0
 18  4  1  0  0  0  0
 19  6  1  1  0  0  0
 19  3  1  0  0  0  0
 19  5  1  0  0  0  0
 20 11  1  1  0  0  0
 20 18  1  0  0  0  0
 22 10  1  0  0  0  0
 22 24  2  0  0  0  0
 23 21  1  0  0  0  0
 25  9  1  0  0  0  0
 25 14  1  1  0  0  0
 26 21  2  0  0  0  0
 27  2  1  0  0  0  0
 27  1  1  0  0  0  0
 28 29  1  0  0  0  0
 31 32  1  0  0  0  0
 31 33  1  0  0  0  0
 32 29  1  6  0  0  0
 32 34  1  0  0  0  0
 33 30  1  0  0  0  0
 34 30  1  0  0  0  0
M  END
>  <MODEL>
6

>  <REMARK>
 VINA RESULT:      -8.2      2.974      4.949
  Name = 
  3 active torsions:
  status: ('A' for Active; 'I' for Inactive)
    1  A    between atoms: C_17  and  O_28
    2  A    between atoms: O_28  and  C_29
    3  A    between atoms: C_29  and  C_32
                            x       y       z     vdW  Elec       q    Type
                         _______ _______ _______ _____ _____    ______ ____

>  <TORSDO>
F 3

$$$$
=
 OpenBabel11112417483D

 34 41  0  0  1  0  0  0  0  0999 V2000
  191.0030  172.7880  142.8490 C   0  0  0  0  0  0  0  0  0  0  0  0
  188.7100  173.5170  142.0230 C   0  0  0  0  0  2  0  0  0  0  0  0
  197.0130  174.2490  145.4790 C   0  0  2  0  0  3  0  0  0  0  0  0
  193.0740  172.2130  143.9350 C   0  0  0  0  0  0  0  0  0  0  0  0
  194.4340  173.9930  145.1990 C   0  0  1  0  0  3  0  0  0  0  0  0
  196.2390  174.6900  143.5200 C   0  0  0  0  0  2  0  0  0  0  0  0
  197.5360  174.1040  144.0590 C   0  0  0  0  0  2  0  0  0  0  0  0
  196.5310  171.7000  145.4530 C   0  0  0  0  0  2  0  0  0  0  0  0
  190.4440  175.1810  142.3080 C   0  0  2  0  0  3  0  0  0  0  0  0
  189.3150  177.9020  143.8270 C   0  0  0  0  0  2  0  0  0  0  0  0
  193.1780  174.8550  145.0120 C   0  0  0  0  0  2  0  0  0  0  0  0
  195.0180  171.5600  145.3990 C   0  0  0  0  0  2  0  0  0  0  0  0
  191.2880  175.5620  143.5340 C   0  0  1  0  0  3  0  0  0  0  0  0
  188.1060  174.8770  141.7010 C   0  0  0  0  0  2  0  0  0  0  0  0
  194.4200  172.6190  144.4870 C   0  0  1  0  0  3  0  0  0  0  0  0
  196.9520  172.9240  146.2650 C   0  0  0  0  0  2  0  0  0  0  0  0
  188.6080  176.5830  143.4780 C   0  0  1  0  0  3  0  0  0  0  0  0
  192.1880  173.1980  143.4780 C   0  0  0  0  0  0  0  0  0  0  0  0
  195.7020  174.8230  144.9390 C   0  0  2  0  0  3  0  0  0  0  0  0
  192.5310  174.6620  143.6420 C   0  0  2  0  0  3  0  0  0  0  0  0
  191.5930  170.5240  143.1800 C   0  0  0  0  0  3  0  0  0  0  0  0
  190.7990  178.0140  143.5440 C   0  0  0  0  0  3  0  0  0  0  0  0
  192.7620  170.8990  143.7620 N   0  0  0  0  0  0  0  0  0  0  0  0
  191.6770  177.0050  143.4400 C   0  0  0  0  0  3  0  0  0  0  0  0
  189.1080  175.9270  142.1760 C   0  0  1  0  0  3  0  0  0  0  0  0
  190.7220  171.4640  142.7280 N   0  0  0  0  0  0  0  0  0  0  0  0
  190.0970  173.7760  142.3490 N   0  0  0  0  0  0  0  0  0  0  0  0
  188.6510  175.7010  144.5640 O   0  0  0  0  0  0  0  0  0  0  0  0
  188.0600  176.3940  145.6230 C   0  0  0  0  0  2  0  0  0  0  0  0
  190.6930  175.1740  147.5930 N   0  0  0  0  0  2  0  0  0  0  0  0
  189.7760  177.2960  147.1750 C   0  0  0  0  0  2  0  0  0  0  0  0
  188.8440  176.1490  146.9010 C   0  0  2  0  0  3  0  0  0  0  0  0
  191.0320  176.5860  147.5620 C   0  0  0  0  0  2  0  0  0  0  0  0
  189.6290  174.9960  146.7600 O   0  0  0  0  0  0  0  0  0  0  0  0
  1 18  1  0  0  0  0
  2 27  1  0  0  0  0
  3  7  1  6  0  0  0
  3 16  1  0  0  0  0
  4 15  1  0  0  0  0
  5 11  1  6  0  0  0
  6  7  1  0  0  0  0
  8 16  1  0  0  0  0
  9 27  1  1  0  0  0
  9 13  1  0  0  0  0
 12  8  1  0  0  0  0
 13 24  1  6  0  0  0
 13 20  1  0  0  0  0
 14  2  1  0  0  0  0
 15  5  1  0  0  0  0
 15 12  1  1  0  0  0
 17 10  1  0  0  0  0
 17 28  1  1  0  0  0
 18 20  1  0  0  0  0
 18  4  2  0  0  0  0
 19  6  1  6  0  0  0
 19  5  1  0  0  0  0
 19  3  1  0  0  0  0
 20 11  1  1  0  0  0
 21 23  2  0  0  0  0
 22 10  1  0  0  0  0
 23  4  1  0  0  0  0
 24 22  2  0  0  0  0
 25 14  1  1  0  0  0
 25  9  1  0  0  0  0
 25 17  1  0  0  0  0
 26  1  2  0  0  0  0
 26 21  1  0  0  0  0
 27  1  1  0  0  0  0
 28 29  1  0  0  0  0
 31 33  1  0  0  0  0
 32 29  1  6  0  0  0
 32 31  1  0  0  0  0
 33 30  1  0  0  0  0
 34 32  1  0  0  0  0
 34 30  1  0  0  0  0
M  END
>  <MODEL>
7

>  <REMARK>
 VINA RESULT:      -8.1      2.722      7.632
  Name = 
  3 active torsions:
  status: ('A' for Active; 'I' for Inactive)
    1  A    between atoms: C_17  and  O_28
    2  A    between atoms: O_28  and  C_29
    3  A    between atoms: C_29  and  C_32
                            x       y       z     vdW  Elec       q    Type
                         _______ _______ _______ _____ _____    ______ ____

>  <TORSDO>
F 3

$$$$
=
 OpenBabel11112417483D

 34 41  0  0  1  0  0  0  0  0999 V2000
  189.3340  174.6620  141.6410 C   0  0  0  0  0  0  0  0  0  0  0  0
  188.1810  176.9210  141.8470 C   0  0  0  0  0  2  0  0  0  0  0  0
  193.5890  170.0250  144.0000 C   0  0  2  0  0  3  0  0  0  0  0  0
  190.2610  172.4420  141.7340 C   0  0  0  0  0  0  0  0  0  0  0  0
  191.5530  171.6420  143.8100 C   0  0  1  0  0  3  0  0  0  0  0  0
  194.0110  171.9620  143.1610 C   0  0  0  0  0  2  0  0  0  0  0  0
  194.5570  170.5550  142.9560 C   0  0  0  0  0  2  0  0  0  0  0  0
  192.1300  169.1360  142.0480 C   0  0  0  0  0  2  0  0  0  0  0  0
  190.1450  176.4710  143.1900 C   0  0  2  0  0  3  0  0  0  0  0  0
  189.7500  177.4520  146.3320 C   0  0  0  0  0  2  0  0  0  0  0  0
  191.0040  172.9250  144.4470 C   0  0  0  0  0  2  0  0  0  0  0  0
  190.8920  170.0180  142.0130 C   0  0  0  0  0  2  0  0  0  0  0  0
  190.4460  175.3510  144.1970 C   0  0  1  0  0  3  0  0  0  0  0  0
  188.4210  178.1310  142.7380 C   0  0  0  0  0  2  0  0  0  0  0  0
  191.2640  171.4640  142.2990 C   0  0  1  0  0  3  0  0  0  0  0  0
  192.6340  168.9320  143.4760 C   0  0  0  0  0  2  0  0  0  0  0  0
  188.7770  177.4850  145.1420 C   0  0  1  0  0  3  0  0  0  0  0  0
  190.1760  173.7330  142.2700 C   0  0  0  0  0  0  0  0  0  0  0  0
  193.0260  171.4330  144.1960 C   0  0  2  0  0  3  0  0  0  0  0  0
  191.0020  174.1080  143.4810 C   0  0  2  0  0  3  0  0  0  0  0  0
  188.6930  173.0290  140.0570 C   0  0  0  0  0  3  0  0  0  0  0  0
  191.0990  176.7910  146.1340 C   0  0  0  0  0  3  0  0  0  0  0  0
  189.5280  172.1250  140.6310 N   0  0  0  0  0  0  0  0  0  0  0  0
  191.4110  175.8540  145.2260 C   0  0  0  0  0  3  0  0  0  0  0  0
  189.4600  177.7130  143.7790 C   0  0  1  0  0  3  0  0  0  0  0  0
  188.5980  174.2870  140.5610 N   0  0  0  0  0  0  0  0  0  0  0  0
  189.2520  175.9950  142.1540 N   0  0  0  0  0  0  0  0  0  0  0  0
  187.9650  176.3450  145.1410 O   0  0  0  0  0  0  0  0  0  0  0  0
  186.9630  176.6090  146.0780 C   0  0  0  0  0  2  0  0  0  0  0  0
  184.3140  178.4630  144.7210 N   0  0  0  0  0  2  0  0  0  0  0  0
  185.3530  178.3460  146.8240 C   0  0  0  0  0  2  0  0  0  0  0  0
  186.2010  177.8610  145.6810 C   0  0  2  0  0  3  0  0  0  0  0  0
  184.0660  178.6660  146.1380 C   0  0  0  0  0  2  0  0  0  0  0  0
  185.3400  177.5730  144.6140 O   0  0  0  0  0  0  0  0  0  0  0  0
  1 27  1  0  0  0  0
  1 18  1  0  0  0  0
  2 27  1  0  0  0  0
  2 14  1  0  0  0  0
  3  7  1  6  0  0  0
  3 19  1  0  0  0  0
  4 18  2  0  0  0  0
  4 15  1  0  0  0  0
  5 19  1  0  0  0  0
  5 11  1  6  0  0  0
  7  6  1  0  0  0  0
  8 16  1  0  0  0  0
  9 27  1  6  0  0  0
  9 25  1  0  0  0  0
  9 13  1  0  0  0  0
 12  8  1  0  0  0  0
 13 24  1  1  0  0  0
 15 12  1  1  0  0  0
 15  5  1  0  0  0  0
 16  3  1  0  0  0  0
 17 28  1  6  0  0  0
 17 10  1  0  0  0  0
 18 20  1  0  0  0  0
 19  6  1  6  0  0  0
 20 13  1  0  0  0  0
 20 11  1  1  0  0  0
 21 26  1  0  0  0  0
 21 23  2  0  0  0  0
 22 10  1  0  0  0  0
 23  4  1  0  0  0  0
 24 22  2  0  0  0  0
 25 14  1  6  0  0  0
 25 17  1  0  0  0  0
 26  1  2  0  0  0  0
 28 29  1  0  0  0  0
 30 33  1  0  0  0  0
 32 29  1  1  0  0  0
 32 31  1  0  0  0  0
 33 31  1  0  0  0  0
 34 30  1  0  0  0  0
 34 32  1  0  0  0  0
M  END
>  <MODEL>
8

>  <REMARK>
 VINA RESULT:      -7.8      2.814      7.694
  Name = 
  3 active torsions:
  status: ('A' for Active; 'I' for Inactive)
    1  A    between atoms: C_17  and  O_28
    2  A    between atoms: O_28  and  C_29
    3  A    between atoms: C_29  and  C_32
                            x       y       z     vdW  Elec       q    Type
                         _______ _______ _______ _____ _____    ______ ____

>  <TORSDO>
F 3

$$$$
=
 OpenBabel11112417483D

 34 41  0  0  1  0  0  0  0  0999 V2000
  191.8010  171.9450  143.7090 C   0  0  0  0  0  0  0  0  0  0  0  0
  193.9600  170.6520  144.0790 C   0  0  0  0  0  2  0  0  0  0  0  0
  188.1610  177.5610  144.3330 C   0  0  2  0  0  3  0  0  0  0  0  0
  189.9440  173.3770  143.1630 C   0  0  0  0  0  0  0  0  0  0  0  0
  190.0490  175.9040  143.6340 C   0  0  1  0  0  3  0  0  0  0  0  0
  188.7870  176.1670  145.8480 C   0  0  0  0  0  2  0  0  0  0  0  0
  187.4740  176.8440  145.4830 C   0  0  0  0  0  2  0  0  0  0  0  0
  187.0640  175.8360  142.7370 C   0  0  0  0  0  2  0  0  0  0  0  0
  193.5710  172.6830  145.3380 C   0  0  2  0  0  3  0  0  0  0  0  0
  196.2570  174.6250  145.4210 C   0  0  0  0  0  2  0  0  0  0  0  0
  191.5340  175.6290  143.9020 C   0  0  0  0  0  2  0  0  0  0  0  0
  188.1910  174.9390  142.2480 C   0  0  0  0  0  2  0  0  0  0  0  0
  193.2730  174.1170  144.8750 C   0  0  1  0  0  3  0  0  0  0  0  0
  195.1950  170.9140  144.9310 C   0  0  0  0  0  2  0  0  0  0  0  0
  189.1690  174.6560  143.3770 C   0  0  1  0  0  3  0  0  0  0  0  0
  187.5410  177.2710  142.9510 C   0  0  0  0  0  2  0  0  0  0  0  0
  196.0130  173.2810  144.7140 C   0  0  1  0  0  3  0  0  0  0  0  0
  191.1690  173.1930  143.8170 C   0  0  0  0  0  0  0  0  0  0  0  0
  189.4780  176.8690  144.6870 C   0  0  2  0  0  3  0  0  0  0  0  0
  191.7650  174.3130  144.6410 C   0  0  2  0  0  3  0  0  0  0  0  0
  190.0540  171.1640  142.3230 C   0  0  0  0  0  3  0  0  0  0  0  0
  195.0930  175.2750  146.1400 C   0  0  0  0  0  3  0  0  0  0  0  0
  189.4080  172.3530  142.4430 N   0  0  0  0  0  0  0  0  0  0  0  0
  193.7880  175.0850  145.8960 C   0  0  0  0  0  3  0  0  0  0  0  0
  195.0610  172.3360  145.4740 C   0  0  1  0  0  3  0  0  0  0  0  0
  191.2410  170.9650  142.9520 N   0  0  0  0  0  0  0  0  0  0  0  0
  193.0390  171.7250  144.3920 N   0  0  0  0  0  0  0  0  0  0  0  0
  195.6060  173.4890  143.3920 O   0  0  0  0  0  0  0  0  0  0  0  0
  196.6680  174.1600  142.7820 C   0  0  0  0  0  2  0  0  0  0  0  0
  195.0340  174.7240  139.7300 N   0  0  0  0  0  2  0  0  0  0  0  0
  194.8030  175.5520  141.9160 C   0  0  0  0  0  2  0  0  0  0  0  0
  196.1570  174.9770  141.6070 C   0  0  2  0  0  3  0  0  0  0  0  0
  194.0600  175.2880  140.6490 C   0  0  0  0  0  2  0  0  0  0  0  0
  196.0140  174.1500  140.4840 O   0  0  0  0  0  0  0  0  0  0  0  0
  1 18  1  0  0  0  0
  1 27  1  0  0  0  0
  2 27  1  0  0  0  0
  2 14  1  0  0  0  0
  3 16  1  6  0  0  0
  3 19  1  0  0  0  0
  3  7  1  0  0  0  0
  4 15  1  0  0  0  0
  4 18  2  0  0  0  0
  5 11  1  1  0  0  0
  5 19  1  0  0  0  0
  7  6  1  0  0  0  0
  8 16  1  0  0  0  0
  9 27  1  6  0  0  0
  9 25  1  0  0  0  0
 10 22  1  0  0  0  0
 12  8  1  0  0  0  0
 13  9  1  0  0  0  0
 13 24  1  1  0  0  0
 15 12  1  6  0  0  0
 15  5  1  0  0  0  0
 17 28  1  6  0  0  0
 17 10  1  0  0  0  0
 17 25  1  0  0  0  0
 18 20  1  0  0  0  0
 19  6  1  1  0  0  0
 20 11  1  6  0  0  0
 20 13  1  0  0  0  0
 21 23  2  0  0  0  0
 21 26  1  0  0  0  0
 23  4  1  0  0  0  0
 24 22  2  0  0  0  0
 25 14  1  6  0  0  0
 26  1  2  0  0  0  0
 29 28  1  0  0  0  0
 30 34  1  0  0  0  0
 30 33  1  0  0  0  0
 32 31  1  0  0  0  0
 32 29  1  1  0  0  0
 33 31  1  0  0  0  0
 34 32  1  0  0  0  0
M  END
>  <MODEL>
9

>  <REMARK>
 VINA RESULT:      -7.8      2.105      3.497
  Name = 
  3 active torsions:
  status: ('A' for Active; 'I' for Inactive)
    1  A    between atoms: C_17  and  O_28
    2  A    between atoms: O_28  and  C_29
    3  A    between atoms: C_29  and  C_32
                            x       y       z     vdW  Elec       q    Type
                         _______ _______ _______ _____ _____    ______ ____

>  <TORSDO>
F 3

$$$$
