=
 OpenBabel11112418083D

 34 42  0  0  1  0  0  0  0  0999 V2000
  187.7920  176.1570  141.9620 C   0  0  2  0  0  3  0  0  0  0  0  0
  186.0180  176.9510  140.5530 O   0  0  0  0  0  0  0  0  0  0  0  0
  191.5250  176.1510  147.5510 C   0  0  2  0  0  3  0  0  0  0  0  0
  189.2810  175.2630  143.7000 C   0  0  1  0  0  3  0  0  0  0  0  0
  189.7570  176.7830  145.7860 C   0  0  2  0  0  3  0  0  0  0  0  0
  189.9450  177.9160  147.8870 O   0  0  0  0  0  1  0  0  0  0  0  0
  192.5420  176.4720  146.4640 C   0  0  0  0  0  2  0  0  0  0  0  0
  191.1820  174.6280  145.3950 C   0  0  1  0  0  3  0  0  0  0  0  0
  186.6380  178.4040  142.2560 C   0  0  2  0  0  3  0  0  0  0  0  0
  183.9260  179.0220  143.8180 C   0  0  0  0  0  2  0  0  0  0  0  0
  188.3120  177.2100  145.5580 C   0  0  0  0  0  2  0  0  0  0  0  0
  189.8710  174.3380  145.8290 O   0  0  0  0  0  0  0  0  0  0  0  0
  186.6940  177.9560  143.7300 C   0  0  1  0  0  3  0  0  0  0  0  0
  185.2360  178.0220  140.4460 O   0  0  0  0  0  0  0  0  0  0  0  0
  190.0220  175.4850  145.0230 C   0  0  2  0  0  0  0  0  0  0  0  0
  192.0340  175.0440  146.6160 C   0  0  2  0  0  3  0  0  0  0  0  0
  184.0840  178.1530  142.5730 C   0  0  2  0  0  3  0  0  0  0  0  0
  188.7510  176.5680  143.0840 C   0  0  2  0  0  3  0  0  0  0  0  0
  190.1050  176.6760  147.2690 C   0  0  2  0  0  3  0  0  0  0  0  0
  188.1370  177.5890  144.0850 C   0  0  2  0  0  3  0  0  0  0  0  0
  189.1830  174.1010  141.7600 C   0  0  0  0  0  2  0  0  0  0  0  0
  184.9210  178.6110  144.8990 C   0  0  0  0  0  2  0  0  0  0  0  0
  190.0700  174.5910  142.7460 O   0  0  0  0  0  0  0  0  0  0  0  0
  186.2230  178.9890  144.5470 O   0  0  0  0  0  0  0  0  0  0  0  0
  185.2520  178.6520  141.7020 C   0  0  1  0  0  3  0  0  0  0  0  0
  188.5330  175.2540  140.9780 C   0  0  0  0  0  2  0  0  0  0  0  0
  187.1450  177.3650  141.2770 C   0  0  1  0  0  3  0  0  0  0  0  0
  182.8960  178.1950  141.8390 O   0  0  0  0  0  0  0  0  0  0  0  0
  182.0310  178.9880  142.6010 C   0  0  0  0  0  2  0  0  0  0  0  0
  178.7360  178.3130  141.2250 C   0  0  0  0  0  2  0  0  0  0  0  0
  180.9080  178.9300  140.4670 O   0  0  0  0  0  0  0  0  0  0  0  0
  180.7700  179.3140  141.8160 C   0  0  1  0  0  3  0  0  0  0  0  0
  179.7620  178.1870  140.1270 C   0  0  0  0  0  2  0  0  0  0  0  0
  179.5640  178.6340  142.4200 C   0  0  0  0  0  2  0  0  0  0  0  0
  1 26  1  6  0  0  0
  1 18  1  0  0  0  0
  2 27  1  0  0  0  0
  3  7  1  6  0  0  0
  4 23  1  6  0  0  0
  4 15  1  0  0  0  0
  5 11  1  1  0  0  0
  5 19  1  0  0  0  0
  7 16  1  0  0  0  0
  8 12  1  1  0  0  0
  8 16  1  0  0  0  0
  9 13  1  0  0  0  0
 10 22  1  0  0  0  0
 13 20  1  0  0  0  0
 13 24  1  0  0  0  0
 14  2  1  0  0  0  0
 14 25  1  0  0  0  0
 15  8  1  0  0  0  0
 15  5  1  0  0  0  0
 15 12  1  0  0  0  0
 16  3  1  0  0  0  0
 17 10  1  0  0  0  0
 18  4  1  0  0  0  0
 18 20  1  0  0  0  0
 19  3  1  0  0  0  0
 19  6  1  0  0  0  0
 20 11  1  0  0  0  0
 21 23  1  0  0  0  0
 24 22  1  0  0  0  0
 25  9  1  0  0  0  0
 25 17  1  0  0  0  0
 26 21  1  0  0  0  0
 27  1  1  0  0  0  0
 27  9  1  0  0  0  0
 28 17  1  0  0  0  0
 28 29  1  0  0  0  0
 30 34  1  0  0  0  0
 31 32  1  0  0  0  0
 32 34  1  0  0  0  0
 32 29  1  0  0  0  0
 33 31  1  0  0  0  0
 33 30  1  0  0  0  0
M  END
>  <MODEL>
1

>  <REMARK>
 VINA RESULT:      -9.1      0.000      0.000
  Name = 
  3 active torsions:
  status: ('A' for Active; 'I' for Inactive)
    1  A    between atoms: C_17  and  O_28
    2  A    between atoms: O_28  and  C_29
    3  A    between atoms: C_29  and  C_32
                            x       y       z     vdW  Elec       q    Type
                         _______ _______ _______ _____ _____    ______ ____

>  <TORSDO>
F 3

$$$$
=
 OpenBabel11112418083D

 34 42  0  0  1  0  0  0  0  0999 V2000
  189.1210  175.1790  143.2740 C   0  0  2  0  0  3  0  0  0  0  0  0
  191.1050  173.8640  142.9600 O   0  0  0  0  0  0  0  0  0  0  0  0
  184.8900  178.9640  146.8710 C   0  0  2  0  0  3  0  0  0  0  0  0
  187.3760  176.8530  143.7060 C   0  0  1  0  0  3  0  0  0  0  0  0
  186.8830  177.4710  146.2090 C   0  0  2  0  0  3  0  0  0  0  0  0
  186.6270  178.3800  148.4090 O   0  0  0  0  0  1  0  0  0  0  0  0
  184.0280  177.7710  146.4790 C   0  0  0  0  0  2  0  0  0  0  0  0
  185.2580  178.2730  144.3270 C   0  0  1  0  0  3  0  0  0  0  0  0
  190.5000  174.2040  145.1760 C   0  0  2  0  0  3  0  0  0  0  0  0
  193.1020  175.4450  146.5440 C   0  0  0  0  0  2  0  0  0  0  0  0
  188.3840  177.2480  146.3540 C   0  0  0  0  0  2  0  0  0  0  0  0
  186.4770  178.9840  144.3280 O   0  0  0  0  0  0  0  0  0  0  0  0
  190.2480  175.6150  145.7450 C   0  0  1  0  0  3  0  0  0  0  0  0
  192.0160  173.2430  143.7050 O   0  0  0  0  0  0  0  0  0  0  0  0
  186.5410  177.6340  144.7280 C   0  0  2  0  0  0  0  0  0  0  0  0
  184.3470  178.8390  145.4410 C   0  0  2  0  0  3  0  0  0  0  0  0
  192.9630  174.9870  145.0940 C   0  0  2  0  0  3  0  0  0  0  0  0
  188.1140  175.6550  144.3260 C   0  0  2  0  0  3  0  0  0  0  0  0
  186.3820  178.6350  147.0600 C   0  0  2  0  0  3  0  0  0  0  0  0
  188.7450  175.8990  145.7270 C   0  0  2  0  0  3  0  0  0  0  0  0
  187.5230  176.0730  141.5870 C   0  0  0  0  0  2  0  0  0  0  0  0
  191.9640  176.3870  146.9280 C   0  0  0  0  0  2  0  0  0  0  0  0
  186.6090  176.4060  142.6120 O   0  0  0  0  0  0  0  0  0  0  0  0
  190.7570  175.6870  147.0470 O   0  0  0  0  0  0  0  0  0  0  0  0
  191.9520  173.8300  144.9800 C   0  0  1  0  0  3  0  0  0  0  0  0
  188.3780  174.8570  141.9790 C   0  0  0  0  0  2  0  0  0  0  0  0
  189.9700  174.0050  143.7710 C   0  0  1  0  0  3  0  0  0  0  0  0
  194.2130  174.5690  144.6310 O   0  0  0  0  0  0  0  0  0  0  0  0
  195.0360  175.6940  144.7550 C   0  0  0  0  0  2  0  0  0  0  0  0
  197.0640  175.1610  141.7860 C   0  0  0  0  0  2  0  0  0  0  0  0
  196.8780  176.7180  143.5800 O   0  0  0  0  0  0  0  0  0  0  0  0
  195.6390  176.0680  143.4090 C   0  0  1  0  0  3  0  0  0  0  0  0
  197.7990  176.0850  142.7240 C   0  0  0  0  0  2  0  0  0  0  0  0
  195.8160  174.8490  142.5360 C   0  0  0  0  0  2  0  0  0  0  0  0
  1 26  1  6  0  0  0
  1 27  1  0  0  0  0
  1 18  1  0  0  0  0
  2 14  1  0  0  0  0
  2 27  1  0  0  0  0
  3  7  1  1  0  0  0
  3 19  1  0  0  0  0
  4 23  1  6  0  0  0
  4 18  1  0  0  0  0
  4 15  1  0  0  0  0
  5 11  1  6  0  0  0
  5 19  1  0  0  0  0
  8 12  1  6  0  0  0
  8 15  1  0  0  0  0
  8 16  1  0  0  0  0
  9 13  1  0  0  0  0
 10 22  1  0  0  0  0
 12 15  1  0  0  0  0
 13 24  1  0  0  0  0
 14 25  1  0  0  0  0
 15  5  1  0  0  0  0
 16  7  1  0  0  0  0
 16  3  1  0  0  0  0
 17 10  1  0  0  0  0
 18 20  1  0  0  0  0
 19  6  1  0  0  0  0
 20 13  1  0  0  0  0
 20 11  1  0  0  0  0
 21 26  1  0  0  0  0
 21 23  1  0  0  0  0
 22 24  1  0  0  0  0
 25 17  1  0  0  0  0
 25  9  1  0  0  0  0
 27  9  1  0  0  0  0
 28 29  1  0  0  0  0
 28 17  1  0  0  0  0
 30 34  1  0  0  0  0
 30 33  1  0  0  0  0
 32 31  1  0  0  0  0
 32 29  1  0  0  0  0
 33 31  1  0  0  0  0
 34 32  1  0  0  0  0
M  END
>  <MODEL>
2

>  <REMARK>
 VINA RESULT:      -8.9      2.945      9.022
  Name = 
  3 active torsions:
  status: ('A' for Active; 'I' for Inactive)
    1  A    between atoms: C_17  and  O_28
    2  A    between atoms: O_28  and  C_29
    3  A    between atoms: C_29  and  C_32
                            x       y       z     vdW  Elec       q    Type
                         _______ _______ _______ _____ _____    ______ ____

>  <TORSDO>
F 3

$$$$
=
 OpenBabel11112418083D

 34 42  0  0  1  0  0  0  0  0999 V2000
  189.0320  175.1220  143.1320 C   0  0  2  0  0  3  0  0  0  0  0  0
  190.9590  173.7340  142.7770 O   0  0  0  0  0  0  0  0  0  0  0  0
  184.9850  179.0060  146.8330 C   0  0  2  0  0  3  0  0  0  0  0  0
  187.3600  176.8570  143.6090 C   0  0  1  0  0  3  0  0  0  0  0  0
  186.9110  177.4470  146.1270 C   0  0  2  0  0  3  0  0  0  0  0  0
  186.7090  178.3230  148.3460 O   0  0  0  0  0  1  0  0  0  0  0  0
  184.0730  177.8580  146.4250 C   0  0  0  0  0  2  0  0  0  0  0  0
  185.3060  178.3510  144.2740 C   0  0  1  0  0  3  0  0  0  0  0  0
  190.3840  174.0560  145.0030 C   0  0  2  0  0  3  0  0  0  0  0  0
  193.0440  175.1630  146.3730 C   0  0  0  0  0  2  0  0  0  0  0  0
  188.4020  177.1610  146.2550 C   0  0  0  0  0  2  0  0  0  0  0  0
  186.5530  179.0100  144.2780 O   0  0  0  0  0  0  0  0  0  0  0  0
  190.1940  175.4640  145.6010 C   0  0  1  0  0  3  0  0  0  0  0  0
  191.8480  173.0620  143.5030 O   0  0  0  0  0  0  0  0  0  0  0  0
  186.5650  177.6510  144.6520 C   0  0  2  0  0  0  0  0  0  0  0  0
  184.4270  178.9310  145.4050 C   0  0  2  0  0  3  0  0  0  0  0  0
  192.8770  174.7390  144.9170 C   0  0  2  0  0  3  0  0  0  0  0  0
  188.0530  175.6190  144.2000 C   0  0  2  0  0  3  0  0  0  0  0  0
  186.4640  178.6140  147.0030 C   0  0  2  0  0  3  0  0  0  0  0  0
  188.7040  175.8100  145.6010 C   0  0  2  0  0  3  0  0  0  0  0  0
  187.4590  176.1120  141.4740 C   0  0  0  0  0  2  0  0  0  0  0  0
  191.9490  176.1430  146.7840 C   0  0  0  0  0  2  0  0  0  0  0  0
  186.5680  176.4630  142.5130 O   0  0  0  0  0  0  0  0  0  0  0  0
  190.7150  175.4910  146.9000 O   0  0  0  0  0  0  0  0  0  0  0  0
  191.8180  173.6270  144.7890 C   0  0  1  0  0  3  0  0  0  0  0  0
  188.2670  174.8560  141.8370 C   0  0  0  0  0  2  0  0  0  0  0  0
  189.8360  173.9050  143.5990 C   0  0  1  0  0  3  0  0  0  0  0  0
  194.1050  174.2790  144.4350 O   0  0  0  0  0  0  0  0  0  0  0  0
  195.0220  175.2780  144.7820 C   0  0  0  0  0  2  0  0  0  0  0  0
  197.5800  172.7040  144.5880 C   0  0  0  0  0  2  0  0  0  0  0  0
  196.4400  173.9830  146.2420 O   0  0  0  0  0  0  0  0  0  0  0  0
  196.4010  174.6820  145.0190 C   0  0  1  0  0  3  0  0  0  0  0  0
  197.0040  172.7210  145.9810 C   0  0  0  0  0  2  0  0  0  0  0  0
  196.7940  173.7590  143.8900 C   0  0  0  0  0  2  0  0  0  0  0  0
  1 26  1  6  0  0  0
  1 27  1  0  0  0  0
  1 18  1  0  0  0  0
  2 14  1  0  0  0  0
  2 27  1  0  0  0  0
  3  7  1  1  0  0  0
  3 19  1  0  0  0  0
  4 23  1  6  0  0  0
  4 18  1  0  0  0  0
  4 15  1  0  0  0  0
  5 11  1  6  0  0  0
  5 19  1  0  0  0  0
  8 12  1  6  0  0  0
  8 15  1  0  0  0  0
  8 16  1  0  0  0  0
  9 13  1  0  0  0  0
 10 22  1  0  0  0  0
 12 15  1  0  0  0  0
 13 24  1  0  0  0  0
 14 25  1  0  0  0  0
 15  5  1  0  0  0  0
 16  7  1  0  0  0  0
 16  3  1  0  0  0  0
 17 10  1  0  0  0  0
 18 20  1  0  0  0  0
 19  6  1  0  0  0  0
 20 13  1  0  0  0  0
 20 11  1  0  0  0  0
 21 26  1  0  0  0  0
 21 23  1  0  0  0  0
 22 24  1  0  0  0  0
 25 17  1  0  0  0  0
 25  9  1  0  0  0  0
 27  9  1  0  0  0  0
 28 29  1  0  0  0  0
 28 17  1  0  0  0  0
 29 32  1  0  0  0  0
 30 33  1  0  0  0  0
 32 31  1  0  0  0  0
 33 31  1  0  0  0  0
 34 30  1  0  0  0  0
 34 32  1  0  0  0  0
M  END
>  <MODEL>
3

>  <REMARK>
 VINA RESULT:      -8.9      2.940      9.317
  Name = 
  3 active torsions:
  status: ('A' for Active; 'I' for Inactive)
    1  A    between atoms: C_17  and  O_28
    2  A    between atoms: O_28  and  C_29
    3  A    between atoms: C_29  and  C_32
                            x       y       z     vdW  Elec       q    Type
                         _______ _______ _______ _____ _____    ______ ____

>  <TORSDO>
F 3

$$$$
=
 OpenBabel11112418083D

 34 42  0  0  1  0  0  0  0  0999 V2000
  192.1310  176.0790  145.9950 C   0  0  2  0  0  3  0  0  0  0  0  0
  190.1710  177.4640  146.0410 O   0  0  0  0  0  0  0  0  0  0  0  0
  195.5420  170.4850  144.4970 C   0  0  2  0  0  3  0  0  0  0  0  0
  194.0820  174.6700  145.5040 C   0  0  1  0  0  3  0  0  0  0  0  0
  193.6320  172.1950  144.7540 C   0  0  2  0  0  3  0  0  0  0  0  0
  193.3250  170.0670  143.7000 O   0  0  0  0  0  1  0  0  0  0  0  0
  195.6210  170.5330  146.0170 C   0  0  0  0  0  2  0  0  0  0  0  0
  196.0550  172.9420  145.3830 C   0  0  1  0  0  3  0  0  0  0  0  0
  189.7670  175.2130  145.6370 C   0  0  2  0  0  3  0  0  0  0  0  0
  188.0890  175.1670  142.9230 C   0  0  0  0  0  2  0  0  0  0  0  0
  192.4180  172.8280  144.0820 C   0  0  0  0  0  2  0  0  0  0  0  0
  195.6350  173.4610  144.1390 O   0  0  0  0  0  0  0  0  0  0  0  0
  190.4900  174.4440  144.5130 C   0  0  1  0  0  3  0  0  0  0  0  0
  188.8560  177.3320  145.8920 O   0  0  0  0  0  0  0  0  0  0  0  0
  194.6330  173.2930  145.1160 C   0  0  2  0  0  0  0  0  0  0  0  0
  196.4910  171.4720  145.1910 C   0  0  2  0  0  3  0  0  0  0  0  0
  188.5810  176.4030  143.6710 C   0  0  2  0  0  3  0  0  0  0  0  0
  192.6100  174.6240  145.9430 C   0  0  2  0  0  3  0  0  0  0  0  0
  194.2540  171.0880  143.9070 C   0  0  2  0  0  3  0  0  0  0  0  0
  191.6820  173.6940  145.1090 C   0  0  2  0  0  3  0  0  0  0  0  0
  194.5000  176.6610  146.4950 C   0  0  0  0  0  2  0  0  0  0  0  0
  189.2290  174.1760  142.7030 C   0  0  0  0  0  2  0  0  0  0  0  0
  194.8450  175.2910  146.5130 O   0  0  0  0  0  0  0  0  0  0  0  0
  189.5920  173.5580  143.9060 O   0  0  0  0  0  0  0  0  0  0  0  0
  188.6550  176.1340  145.1860 C   0  0  1  0  0  3  0  0  0  0  0  0
  193.0410  176.8710  146.9320 C   0  0  0  0  0  2  0  0  0  0  0  0
  190.6530  176.1920  146.3800 C   0  0  1  0  0  3  0  0  0  0  0  0
  187.7030  177.4610  143.4220 O   0  0  0  0  0  0  0  0  0  0  0  0
  186.4400  176.8640  143.3300 C   0  0  0  0  0  2  0  0  0  0  0  0
  185.4450  179.0780  146.0350 C   0  0  0  0  0  2  0  0  0  0  0  0
  185.2200  176.7910  145.4090 O   0  0  0  0  0  0  0  0  0  0  0  0
  185.4500  177.5600  144.2510 C   0  0  1  0  0  3  0  0  0  0  0  0
  185.3670  177.6510  146.5140 C   0  0  0  0  0  2  0  0  0  0  0  0
  185.9410  178.9340  144.6380 C   0  0  0  0  0  2  0  0  0  0  0  0
  1 27  1  0  0  0  0
  1 26  1  1  0  0  0
  2 27  1  0  0  0  0
  3 16  1  0  0  0  0
  3  7  1  1  0  0  0
  4 18  1  0  0  0  0
  4 23  1  1  0  0  0
  5 11  1  6  0  0  0
  5 15  1  0  0  0  0
  6 19  1  0  0  0  0
  8 12  1  6  0  0  0
  9 27  1  0  0  0  0
 10 17  1  0  0  0  0
 11 20  1  0  0  0  0
 12 15  1  0  0  0  0
 13 20  1  0  0  0  0
 13  9  1  0  0  0  0
 14  2  1  0  0  0  0
 15  8  1  0  0  0  0
 15  4  1  0  0  0  0
 16  8  1  0  0  0  0
 16  7  1  0  0  0  0
 17 25  1  0  0  0  0
 18  1  1  0  0  0  0
 19  3  1  0  0  0  0
 19  5  1  0  0  0  0
 20 18  1  0  0  0  0
 21 23  1  0  0  0  0
 21 26  1  0  0  0  0
 22 10  1  0  0  0  0
 22 24  1  0  0  0  0
 24 13  1  0  0  0  0
 25  9  1  0  0  0  0
 25 14  1  0  0  0  0
 28 17  1  0  0  0  0
 29 28  1  0  0  0  0
 29 32  1  0  0  0  0
 30 33  1  0  0  0  0
 31 33  1  0  0  0  0
 32 34  1  0  0  0  0
 32 31  1  0  0  0  0
 34 30  1  0  0  0  0
M  END
>  <MODEL>
4

>  <REMARK>
 VINA RESULT:      -8.5      3.210      6.417
  Name = 
  3 active torsions:
  status: ('A' for Active; 'I' for Inactive)
    1  A    between atoms: C_17  and  O_28
    2  A    between atoms: O_28  and  C_29
    3  A    between atoms: C_29  and  C_32
                            x       y       z     vdW  Elec       q    Type
                         _______ _______ _______ _____ _____    ______ ____

>  <TORSDO>
F 3

$$$$
=
 OpenBabel11112418083D

 34 42  0  0  1  0  0  0  0  0999 V2000
  191.0630  175.7050  146.3080 C   0  0  2  0  0  3  0  0  0  0  0  0
  193.3380  175.1930  146.8760 O   0  0  0  0  0  0  0  0  0  0  0  0
  186.2420  178.2140  142.3520 C   0  0  2  0  0  3  0  0  0  0  0  0
  188.8120  175.9790  145.3620 C   0  0  1  0  0  3  0  0  0  0  0  0
  188.5550  177.5620  143.2840 C   0  0  2  0  0  3  0  0  0  0  0  0
  188.2770  178.6640  141.1770 O   0  0  0  0  0  1  0  0  0  0  0  0
  186.1030  179.0410  143.6230 C   0  0  0  0  0  2  0  0  0  0  0  0
  186.4280  176.7060  144.5380 C   0  0  1  0  0  3  0  0  0  0  0  0
  193.0830  176.7940  145.2130 C   0  0  2  0  0  3  0  0  0  0  0  0
  194.8120  175.6990  142.7650 C   0  0  0  0  0  2  0  0  0  0  0  0
  189.9330  177.0100  142.9410 C   0  0  0  0  0  2  0  0  0  0  0  0
  187.0450  175.6970  143.7700 O   0  0  0  0  0  0  0  0  0  0  0  0
  192.2260  176.5370  143.9580 C   0  0  1  0  0  3  0  0  0  0  0  0
  194.5620  175.5600  146.5080 O   0  0  0  0  0  0  0  0  0  0  0  0
  187.9020  176.6630  144.3350 C   0  0  2  0  0  0  0  0  0  0  0  0
  185.5900  177.6070  143.6020 C   0  0  2  0  0  3  0  0  0  0  0  0
  194.6670  175.0530  144.1410 C   0  0  2  0  0  3  0  0  0  0  0  0
  190.1810  176.6630  145.4990 C   0  0  2  0  0  3  0  0  0  0  0  0
  187.6800  177.7530  142.0480 C   0  0  2  0  0  3  0  0  0  0  0  0
  190.8370  177.1400  144.1710 C   0  0  2  0  0  3  0  0  0  0  0  0
  188.9460  174.9160  147.3560 C   0  0  0  0  0  2  0  0  0  0  0  0
  193.4450  176.0260  142.1710 C   0  0  0  0  0  2  0  0  0  0  0  0
  188.2140  175.8860  146.6340 O   0  0  0  0  0  0  0  0  0  0  0  0
  192.8550  177.1040  142.8440 O   0  0  0  0  0  0  0  0  0  0  0  0
  194.4390  176.1230  145.2260 C   0  0  1  0  0  3  0  0  0  0  0  0
  190.3780  175.3990  147.6380 C   0  0  0  0  0  2  0  0  0  0  0  0
  192.4870  176.2380  146.4900 C   0  0  1  0  0  3  0  0  0  0  0  0
  195.8290  174.3310  144.4260 O   0  0  0  0  0  0  0  0  0  0  0  0
  195.4660  172.9890  144.2630 C   0  0  0  0  0  2  0  0  0  0  0  0
  196.4320  170.2350  146.4280 C   0  0  0  0  0  2  0  0  0  0  0  0
  194.4580  171.3920  145.7630 O   0  0  0  0  0  0  0  0  0  0  0  0
  195.5680  172.2420  145.5830 C   0  0  1  0  0  3  0  0  0  0  0  0
  194.9590  170.1260  146.1210 C   0  0  0  0  0  2  0  0  0  0  0  0
  196.8450  171.4390  145.6550 C   0  0  0  0  0  2  0  0  0  0  0  0
  1 27  1  0  0  0  0
  1 26  1  1  0  0  0
  3 16  1  0  0  0  0
  3  7  1  1  0  0  0
  4 18  1  0  0  0  0
  4 23  1  1  0  0  0
  5 11  1  6  0  0  0
  5 15  1  0  0  0  0
  6 19  1  0  0  0  0
  8 12  1  6  0  0  0
  9 25  1  0  0  0  0
  9 27  1  0  0  0  0
 10 17  1  0  0  0  0
 11 20  1  0  0  0  0
 12 15  1  0  0  0  0
 13 20  1  0  0  0  0
 13  9  1  0  0  0  0
 14  2  1  0  0  0  0
 15  8  1  0  0  0  0
 15  4  1  0  0  0  0
 16  7  1  0  0  0  0
 16  8  1  0  0  0  0
 17 28  1  0  0  0  0
 17 25  1  0  0  0  0
 18  1  1  0  0  0  0
 19  3  1  0  0  0  0
 19  5  1  0  0  0  0
 20 18  1  0  0  0  0
 21 26  1  0  0  0  0
 22 10  1  0  0  0  0
 22 24  1  0  0  0  0
 23 21  1  0  0  0  0
 24 13  1  0  0  0  0
 25 14  1  0  0  0  0
 27  2  1  0  0  0  0
 29 28  1  0  0  0  0
 29 32  1  0  0  0  0
 31 33  1  0  0  0  0
 32 34  1  0  0  0  0
 32 31  1  0  0  0  0
 33 30  1  0  0  0  0
 34 30  1  0  0  0  0
M  END
>  <MODEL>
5

>  <REMARK>
 VINA RESULT:      -8.5      3.364      9.988
  Name = 
  3 active torsions:
  status: ('A' for Active; 'I' for Inactive)
    1  A    between atoms: C_17  and  O_28
    2  A    between atoms: O_28  and  C_29
    3  A    between atoms: C_29  and  C_32
                            x       y       z     vdW  Elec       q    Type
                         _______ _______ _______ _____ _____    ______ ____

>  <TORSDO>
F 3

$$$$
=
 OpenBabel11112418083D

 34 42  0  0  1  0  0  0  0  0999 V2000
  191.2600  176.1990  145.2770 C   0  0  2  0  0  3  0  0  0  0  0  0
  193.2200  175.2550  144.2630 O   0  0  0  0  0  0  0  0  0  0  0  0
  184.8160  178.1100  145.3410 C   0  0  2  0  0  3  0  0  0  0  0  0
  189.0660  176.7660  146.2270 C   0  0  1  0  0  3  0  0  0  0  0  0
  187.0960  177.2050  144.5500 C   0  0  2  0  0  3  0  0  0  0  0  0
  185.1630  177.2420  143.1380 O   0  0  0  0  0  1  0  0  0  0  0  0
  185.5600  179.4170  145.5810 C   0  0  0  0  0  2  0  0  0  0  0  0
  186.8110  177.8070  147.0770 C   0  0  1  0  0  3  0  0  0  0  0  0
  191.5610  175.8970  142.7700 C   0  0  2  0  0  3  0  0  0  0  0  0
  190.9860  173.2850  141.0290 C   0  0  0  0  0  2  0  0  0  0  0  0
  187.8020  176.1210  143.7440 C   0  0  0  0  0  2  0  0  0  0  0  0
  186.7800  176.4160  146.8460 O   0  0  0  0  0  0  0  0  0  0  0  0
  190.1060  175.4070  142.9080 C   0  0  1  0  0  3  0  0  0  0  0  0
  193.6690  174.9660  143.0440 O   0  0  0  0  0  0  0  0  0  0  0  0
  187.6070  177.1710  145.9910 C   0  0  2  0  0  0  0  0  0  0  0  0
  185.4340  178.4070  146.7150 C   0  0  2  0  0  3  0  0  0  0  0  0
  192.0290  173.4340  142.1340 C   0  0  2  0  0  3  0  0  0  0  0  0
  189.9410  176.9190  144.9730 C   0  0  2  0  0  3  0  0  0  0  0  0
  185.5760  177.0980  144.4630 C   0  0  2  0  0  3  0  0  0  0  0  0
  189.2870  176.4780  143.6320 C   0  0  2  0  0  3  0  0  0  0  0  0
  190.8170  176.7580  147.6630 C   0  0  0  0  0  2  0  0  0  0  0  0
  189.6150  173.7530  141.5090 C   0  0  0  0  0  2  0  0  0  0  0  0
  189.6580  177.4760  147.2910 O   0  0  0  0  0  0  0  0  0  0  0  0
  189.5810  175.1470  141.6380 O   0  0  0  0  0  0  0  0  0  0  0  0
  192.5390  174.8850  142.2140 C   0  0  1  0  0  3  0  0  0  0  0  0
  191.8710  176.7910  146.5450 C   0  0  0  0  0  2  0  0  0  0  0  0
  192.2270  176.2290  144.0890 C   0  0  1  0  0  3  0  0  0  0  0  0
  193.0960  172.5720  141.8680 O   0  0  0  0  0  0  0  0  0  0  0  0
  192.8820  171.4690  142.7030 C   0  0  0  0  0  2  0  0  0  0  0  0
  195.1750  172.3280  145.3880 C   0  0  0  0  0  2  0  0  0  0  0  0
  195.2420  171.8090  143.0640 O   0  0  0  0  0  0  0  0  0  0  0  0
  194.0750  171.2530  143.6220 C   0  0  1  0  0  3  0  0  0  0  0  0
  195.8470  172.5940  144.0640 C   0  0  0  0  0  2  0  0  0  0  0  0
  193.8240  171.8500  144.9860 C   0  0  0  0  0  2  0  0  0  0  0  0
  1 26  1  1  0  0  0
  3  7  1  6  0  0  0
  3 16  1  0  0  0  0
  4 23  1  1  0  0  0
  5 11  1  6  0  0  0
  5 15  1  0  0  0  0
  6 19  1  0  0  0  0
  7 16  1  0  0  0  0
  8 12  1  1  0  0  0
  9 13  1  0  0  0  0
  9 27  1  0  0  0  0
 10 22  1  0  0  0  0
 10 17  1  0  0  0  0
 13 20  1  0  0  0  0
 14  2  1  0  0  0  0
 15  4  1  0  0  0  0
 15 12  1  0  0  0  0
 15  8  1  0  0  0  0
 16  8  1  0  0  0  0
 17 25  1  0  0  0  0
 18  1  1  0  0  0  0
 18  4  1  0  0  0  0
 19  5  1  0  0  0  0
 19  3  1  0  0  0  0
 20 11  1  0  0  0  0
 20 18  1  0  0  0  0
 22 24  1  0  0  0  0
 23 21  1  0  0  0  0
 24 13  1  0  0  0  0
 25  9  1  0  0  0  0
 25 14  1  0  0  0  0
 26 21  1  0  0  0  0
 27  2  1  0  0  0  0
 27  1  1  0  0  0  0
 28 17  1  0  0  0  0
 28 29  1  0  0  0  0
 29 32  1  0  0  0  0
 31 32  1  0  0  0  0
 31 33  1  0  0  0  0
 32 34  1  0  0  0  0
 33 30  1  0  0  0  0
 34 30  1  0  0  0  0
M  END
>  <MODEL>
6

>  <REMARK>
 VINA RESULT:      -8.3      3.071      8.990
  Name = 
  3 active torsions:
  status: ('A' for Active; 'I' for Inactive)
    1  A    between atoms: C_17  and  O_28
    2  A    between atoms: O_28  and  C_29
    3  A    between atoms: C_29  and  C_32
                            x       y       z     vdW  Elec       q    Type
                         _______ _______ _______ _____ _____    ______ ____

>  <TORSDO>
F 3

$$$$
=
 OpenBabel11112418083D

 34 42  0  0  1  0  0  0  0  0999 V2000
  189.6790  174.8840  144.9130 C   0  0  2  0  0  3  0  0  0  0  0  0
  191.4160  173.4650  144.0580 O   0  0  0  0  0  0  0  0  0  0  0  0
  184.2910  178.8590  144.3300 C   0  0  2  0  0  3  0  0  0  0  0  0
  187.6220  176.0410  145.5990 C   0  0  1  0  0  3  0  0  0  0  0  0
  186.2880  177.3390  143.7490 C   0  0  2  0  0  3  0  0  0  0  0  0
  184.8080  178.2160  142.0840 O   0  0  0  0  0  1  0  0  0  0  0  0
  185.3360  179.7910  144.9300 C   0  0  0  0  0  2  0  0  0  0  0  0
  185.6780  177.6720  146.2670 C   0  0  1  0  0  3  0  0  0  0  0  0
  190.3950  174.8220  142.4740 C   0  0  2  0  0  3  0  0  0  0  0  0
  189.4180  172.8120  140.1970 C   0  0  0  0  0  2  0  0  0  0  0  0
  186.7760  176.1920  142.8710 C   0  0  0  0  0  2  0  0  0  0  0  0
  185.2640  176.4180  145.7720 O   0  0  0  0  0  0  0  0  0  0  0  0
  188.8650  174.8470  142.2860 C   0  0  1  0  0  3  0  0  0  0  0  0
  192.0000  173.1990  142.8930 O   0  0  0  0  0  0  0  0  0  0  0  0
  186.4470  176.9470  145.2180 C   0  0  2  0  0  0  0  0  0  0  0  0
  184.6650  178.7490  145.8150 C   0  0  2  0  0  3  0  0  0  0  0  0
  190.1960  172.4520  141.4600 C   0  0  2  0  0  3  0  0  0  0  0  0
  188.7460  176.0440  144.5500 C   0  0  2  0  0  3  0  0  0  0  0  0
  184.8650  177.7710  143.4050 C   0  0  2  0  0  3  0  0  0  0  0  0
  188.2860  176.0310  143.0640 C   0  0  2  0  0  3  0  0  0  0  0  0
  188.9370  175.2500  147.2630 C   0  0  0  0  0  2  0  0  0  0  0  0
  188.1910  173.6550  140.5360 C   0  0  0  0  0  2  0  0  0  0  0  0
  188.1660  176.3630  146.8580 O   0  0  0  0  0  0  0  0  0  0  0  0
  188.5670  174.9480  140.9230 O   0  0  0  0  0  0  0  0  0  0  0  0
  191.1040  173.6180  141.8960 C   0  0  1  0  0  3  0  0  0  0  0  0
  190.1610  175.0630  146.3520 C   0  0  0  0  0  2  0  0  0  0  0  0
  190.8360  174.7340  143.9210 C   0  0  1  0  0  3  0  0  0  0  0  0
  190.9720  171.3180  141.2050 O   0  0  0  0  0  0  0  0  0  0  0  0
  191.5440  171.5510  139.9490 C   0  0  0  0  0  2  0  0  0  0  0  0
  191.1980  169.4600  136.9970 C   0  0  0  0  0  2  0  0  0  0  0  0
  190.4410  169.5210  139.2550 O   0  0  0  0  0  0  0  0  0  0  0  0
  191.6380  170.2570  139.1550 C   0  0  1  0  0  3  0  0  0  0  0  0
  190.0660  169.1600  137.9470 C   0  0  0  0  0  2  0  0  0  0  0  0
  191.9510  170.5330  137.7030 C   0  0  0  0  0  2  0  0  0  0  0  0
  1 26  1  1  0  0  0
  3  7  1  6  0  0  0
  3 16  1  0  0  0  0
  4 23  1  1  0  0  0
  5 11  1  6  0  0  0
  5 15  1  0  0  0  0
  6 19  1  0  0  0  0
  7 16  1  0  0  0  0
  8 12  1  6  0  0  0
  9 27  1  0  0  0  0
 10 22  1  0  0  0  0
 10 17  1  0  0  0  0
 11 20  1  0  0  0  0
 13  9  1  0  0  0  0
 13 20  1  0  0  0  0
 14  2  1  0  0  0  0
 15  4  1  0  0  0  0
 15 12  1  0  0  0  0
 15  8  1  0  0  0  0
 16  8  1  0  0  0  0
 17 25  1  0  0  0  0
 18  1  1  0  0  0  0
 18  4  1  0  0  0  0
 19  5  1  0  0  0  0
 19  3  1  0  0  0  0
 20 18  1  0  0  0  0
 22 24  1  0  0  0  0
 23 21  1  0  0  0  0
 24 13  1  0  0  0  0
 25  9  1  0  0  0  0
 25 14  1  0  0  0  0
 26 21  1  0  0  0  0
 27  2  1  0  0  0  0
 27  1  1  0  0  0  0
 28 17  1  0  0  0  0
 29 28  1  0  0  0  0
 30 34  1  0  0  0  0
 30 33  1  0  0  0  0
 32 31  1  0  0  0  0
 32 29  1  0  0  0  0
 33 31  1  0  0  0  0
 34 32  1  0  0  0  0
M  END
>  <MODEL>
7

>  <REMARK>
 VINA RESULT:      -8.2      2.961      8.349
  Name = 
  3 active torsions:
  status: ('A' for Active; 'I' for Inactive)
    1  A    between atoms: C_17  and  O_28
    2  A    between atoms: O_28  and  C_29
    3  A    between atoms: C_29  and  C_32
                            x       y       z     vdW  Elec       q    Type
                         _______ _______ _______ _____ _____    ______ ____

>  <TORSDO>
F 3

$$$$
=
 OpenBabel11112418083D

 34 42  0  0  1  0  0  0  0  0999 V2000
  192.4670  176.0550  145.5950 C   0  0  2  0  0  3  0  0  0  0  0  0
  190.2790  176.1470  146.5780 O   0  0  0  0  0  0  0  0  0  0  0  0
  196.8570  174.4590  140.7620 C   0  0  2  0  0  3  0  0  0  0  0  0
  194.5210  176.1940  144.2530 C   0  0  1  0  0  3  0  0  0  0  0  0
  194.6740  174.6820  142.1130 C   0  0  2  0  0  3  0  0  0  0  0  0
  194.7560  173.6460  139.9560 O   0  0  0  0  0  1  0  0  0  0  0  0
  197.3710  173.6720  141.9600 C   0  0  0  0  0  2  0  0  0  0  0  0
  196.8060  175.9100  142.9930 C   0  0  1  0  0  3  0  0  0  0  0  0
  190.5090  174.6170  144.8450 C   0  0  2  0  0  3  0  0  0  0  0  0
  188.1970  175.3790  142.7830 C   0  0  0  0  0  2  0  0  0  0  0  0
  193.1800  174.9740  142.0410 C   0  0  0  0  0  2  0  0  0  0  0  0
  195.8890  176.7900  142.3800 O   0  0  0  0  0  0  0  0  0  0  0  0
  191.0630  175.0250  143.4660 C   0  0  1  0  0  3  0  0  0  0  0  0
  189.0940  175.5640  146.4220 O   0  0  0  0  0  0  0  0  0  0  0  0
  195.3360  175.6850  143.0590 C   0  0  2  0  0  0  0  0  0  0  0  0
  197.6070  175.1750  141.8940 C   0  0  2  0  0  3  0  0  0  0  0  0
  188.4720  176.0410  144.1300 C   0  0  2  0  0  3  0  0  0  0  0  0
  193.3440  175.2730  144.6110 C   0  0  2  0  0  3  0  0  0  0  0  0
  195.3300  174.6520  140.7350 C   0  0  2  0  0  3  0  0  0  0  0  0
  192.5530  174.6830  143.4070 C   0  0  2  0  0  3  0  0  0  0  0  0
  194.5640  177.2170  146.2720 C   0  0  0  0  0  2  0  0  0  0  0  0
  189.4690  175.3050  141.9430 C   0  0  0  0  0  2  0  0  0  0  0  0
  195.3140  176.3950  145.4000 O   0  0  0  0  0  0  0  0  0  0  0  0
  190.3540  174.3520  142.4640 O   0  0  0  0  0  0  0  0  0  0  0  0
  189.0800  175.0320  145.1220 C   0  0  1  0  0  3  0  0  0  0  0  0
  193.3170  176.4820  146.7900 C   0  0  0  0  0  2  0  0  0  0  0  0
  191.2180  175.2730  146.0120 C   0  0  1  0  0  3  0  0  0  0  0  0
  187.2710  176.5410  144.6420 O   0  0  0  0  0  0  0  0  0  0  0  0
  187.3200  177.9170  144.3910 C   0  0  0  0  0  2  0  0  0  0  0  0
  184.2300  178.3040  146.2640 C   0  0  0  0  0  2  0  0  0  0  0  0
  185.3910  179.3620  144.4730 O   0  0  0  0  0  0  0  0  0  0  0  0
  186.3190  178.6570  145.2650 C   0  0  1  0  0  3  0  0  0  0  0  0
  184.1070  179.0440  144.9550 C   0  0  0  0  0  2  0  0  0  0  0  0
  185.5900  177.7040  146.1810 C   0  0  0  0  0  2  0  0  0  0  0  0
  1 27  1  0  0  0  0
  1 26  1  1  0  0  0
  3 16  1  0  0  0  0
  3  7  1  1  0  0  0
  4 18  1  0  0  0  0
  4 23  1  1  0  0  0
  5 11  1  6  0  0  0
  5 15  1  0  0  0  0
  6 19  1  0  0  0  0
  8 12  1  6  0  0  0
  8 15  1  0  0  0  0
  9 25  1  0  0  0  0
  9 27  1  0  0  0  0
 10 17  1  0  0  0  0
 11 20  1  0  0  0  0
 12 15  1  0  0  0  0
 13  9  1  0  0  0  0
 14  2  1  0  0  0  0
 15  4  1  0  0  0  0
 16  7  1  0  0  0  0
 16  8  1  0  0  0  0
 17 28  1  0  0  0  0
 17 25  1  0  0  0  0
 18  1  1  0  0  0  0
 19  3  1  0  0  0  0
 19  5  1  0  0  0  0
 20 13  1  0  0  0  0
 20 18  1  0  0  0  0
 21 26  1  0  0  0  0
 22 24  1  0  0  0  0
 22 10  1  0  0  0  0
 23 21  1  0  0  0  0
 24 13  1  0  0  0  0
 25 14  1  0  0  0  0
 27  2  1  0  0  0  0
 29 28  1  0  0  0  0
 29 32  1  0  0  0  0
 31 33  1  0  0  0  0
 31 32  1  0  0  0  0
 32 34  1  0  0  0  0
 33 30  1  0  0  0  0
 34 30  1  0  0  0  0
M  END
>  <MODEL>
8

>  <REMARK>
 VINA RESULT:      -8.2      3.618      6.714
  Name = 
  3 active torsions:
  status: ('A' for Active; 'I' for Inactive)
    1  A    between atoms: C_17  and  O_28
    2  A    between atoms: O_28  and  C_29
    3  A    between atoms: C_29  and  C_32
                            x       y       z     vdW  Elec       q    Type
                         _______ _______ _______ _____ _____    ______ ____

>  <TORSDO>
F 3

$$$$
=
 OpenBabel11112418083D

 34 42  0  0  1  0  0  0  0  0999 V2000
  189.8970  176.2890  146.1420 C   0  0  2  0  0  3  0  0  0  0  0  0
  187.5240  176.6520  146.1700 O   0  0  0  0  0  0  0  0  0  0  0  0
  195.8560  175.5260  143.1290 C   0  0  2  0  0  3  0  0  0  0  0  0
  192.3420  176.3130  145.9010 C   0  0  1  0  0  3  0  0  0  0  0  0
  193.3290  175.8480  143.5140 C   0  0  2  0  0  3  0  0  0  0  0  0
  194.3080  175.8200  141.3290 O   0  0  0  0  0  1  0  0  0  0  0  0
  195.6700  174.1990  143.8530 C   0  0  0  0  0  2  0  0  0  0  0  0
  194.9110  175.8690  145.5930 C   0  0  1  0  0  3  0  0  0  0  0  0
  188.3860  175.9810  144.1200 C   0  0  2  0  0  3  0  0  0  0  0  0
  187.3940  178.2050  142.0590 C   0  0  0  0  0  2  0  0  0  0  0  0
  192.0790  176.5970  143.0670 C   0  0  0  0  0  2  0  0  0  0  0  0
  194.4790  177.1620  145.2300 O   0  0  0  0  0  0  0  0  0  0  0  0
  189.5580  176.7210  143.4460 C   0  0  1  0  0  3  0  0  0  0  0  0
  186.4980  176.5890  145.3260 O   0  0  0  0  0  0  0  0  0  0  0  0
  193.5670  176.1120  145.0010 C   0  0  2  0  0  0  0  0  0  0  0  0
  196.0560  175.4390  144.6480 C   0  0  2  0  0  3  0  0  0  0  0  0
  187.0710  178.1330  143.5490 C   0  0  2  0  0  3  0  0  0  0  0  0
  191.0500  175.7470  145.2900 C   0  0  2  0  0  3  0  0  0  0  0  0
  194.5460  176.1810  142.6550 C   0  0  2  0  0  3  0  0  0  0  0  0
  190.8610  175.9850  143.7640 C   0  0  2  0  0  3  0  0  0  0  0  0
  191.5370  176.3480  148.0160 C   0  0  0  0  0  2  0  0  0  0  0  0
  188.8970  178.0860  141.8220 C   0  0  0  0  0  2  0  0  0  0  0  0
  192.5220  175.7660  147.1870 O   0  0  0  0  0  0  0  0  0  0  0  0
  189.3370  176.7790  142.0660 O   0  0  0  0  0  0  0  0  0  0  0  0
  187.0420  176.6710  144.0330 C   0  0  1  0  0  3  0  0  0  0  0  0
  190.1260  175.8980  147.6000 C   0  0  0  0  0  2  0  0  0  0  0  0
  188.5280  175.8410  145.6220 C   0  0  1  0  0  3  0  0  0  0  0  0
  185.8260  178.7280  143.7710 O   0  0  0  0  0  0  0  0  0  0  0  0
  185.3460  179.0410  142.4940 C   0  0  0  0  0  2  0  0  0  0  0  0
  182.3490  178.1390  140.6480 C   0  0  0  0  0  2  0  0  0  0  0  0
  183.0270  178.5200  142.9000 O   0  0  0  0  0  0  0  0  0  0  0  0
  184.1560  178.1630  142.1380 C   0  0  1  0  0  3  0  0  0  0  0  0
  181.9510  178.6670  142.0040 C   0  0  0  0  0  2  0  0  0  0  0  0
  183.8330  178.2600  140.6660 C   0  0  0  0  0  2  0  0  0  0  0  0
  1 26  1  1  0  0  0
  3  7  1  1  0  0  0
  3 16  1  0  0  0  0
  4 23  1  1  0  0  0
  5 11  1  6  0  0  0
  5 15  1  0  0  0  0
  6 19  1  0  0  0  0
  7 16  1  0  0  0  0
  8 12  1  6  0  0  0
  9 27  1  0  0  0  0
 10 17  1  0  0  0  0
 11 20  1  0  0  0  0
 13 20  1  0  0  0  0
 13  9  1  0  0  0  0
 14  2  1  0  0  0  0
 15 12  1  0  0  0  0
 15  8  1  0  0  0  0
 15  4  1  0  0  0  0
 16  8  1  0  0  0  0
 17 28  1  0  0  0  0
 17 25  1  0  0  0  0
 18  4  1  0  0  0  0
 18  1  1  0  0  0  0
 19  3  1  0  0  0  0
 19  5  1  0  0  0  0
 20 18  1  0  0  0  0
 22 10  1  0  0  0  0
 22 24  1  0  0  0  0
 23 21  1  0  0  0  0
 24 13  1  0  0  0  0
 25  9  1  0  0  0  0
 25 14  1  0  0  0  0
 26 21  1  0  0  0  0
 27  1  1  0  0  0  0
 27  2  1  0  0  0  0
 29 28  1  0  0  0  0
 30 34  1  0  0  0  0
 30 33  1  0  0  0  0
 32 29  1  0  0  0  0
 32 31  1  0  0  0  0
 33 31  1  0  0  0  0
 34 32  1  0  0  0  0
M  END
>  <MODEL>
9

>  <REMARK>
 VINA RESULT:      -8.2      2.539      4.695
  Name = 
  3 active torsions:
  status: ('A' for Active; 'I' for Inactive)
    1  A    between atoms: C_17  and  O_28
    2  A    between atoms: O_28  and  C_29
    3  A    between atoms: C_29  and  C_32
                            x       y       z     vdW  Elec       q    Type
                         _______ _______ _______ _____ _____    ______ ____

>  <TORSDO>
F 3

$$$$
