=
 OpenBabel11112417403D

 28 32  0  0  1  0  0  0  0  0999 V2000
  186.3160  178.4590  144.2990 C   0  0  0  0  0  0  0  0  0  0  0  0
  189.4840  178.2540  145.0420 O   0  0  0  0  0  0  0  0  0  0  0  0
  187.9720  174.5330  140.0380 O   0  0  0  0  0  0  0  0  0  0  0  0
  184.8570  177.3380  146.4160 C   0  0  0  0  0  3  0  0  0  0  0  0
  189.6440  174.7030  141.7660 C   0  0  1  0  0  3  0  0  0  0  0  0
  186.9170  179.0830  143.0870 C   0  0  0  0  0  2  0  0  0  0  0  0
  188.6710  177.3910  147.1940 O   0  0  0  0  0  0  0  0  0  0  0  0
  189.3990  177.0400  145.9270 S   0  0  0  0  0  0  0  0  0  0  0  0
  191.4620  175.2770  145.8190 C   0  0  0  0  0  0  0  0  0  0  0  0
  188.5710  175.7120  145.1360 N   0  0  2  0  0  0  0  0  0  0  0  0
  185.0790  177.5360  140.3730 O   0  0  0  0  0  0  0  0  0  0  0  0
  188.4670  176.5880  142.8740 C   0  0  1  0  0  3  0  0  0  0  0  0
  190.7730  174.5760  144.9710 N   0  0  0  0  0  0  0  0  0  0  0  0
  190.9890  176.5230  146.3150 N   0  0  0  0  0  2  0  0  0  0  0  0
  186.0950  177.9040  141.0160 C   0  0  0  0  0  0  0  0  0  0  0  0
  186.5650  177.1190  144.6870 C   0  0  0  0  0  0  0  0  0  0  0  0
  188.3960  175.0950  141.0850 C   0  0  0  0  0  0  0  0  0  0  0  0
  192.7530  174.7410  146.3230 C   0  0  0  0  0  1  0  0  0  0  0  0
  187.4190  177.3010  140.6970 C   0  0  0  0  0  2  0  0  0  0  0  0
  185.8150  176.5780  145.7440 C   0  0  0  0  0  3  0  0  0  0  0  0
  185.3510  179.2120  144.9810 C   0  0  0  0  0  3  0  0  0  0  0  0
  184.6310  178.6600  146.0390 C   0  0  0  0  0  3  0  0  0  0  0  0
  185.9750  178.9380  141.9900 N   0  0  0  0  0  2  0  0  0  0  0  0
  189.6960  175.6620  142.9780 C   0  0  1  0  0  3  0  0  0  0  0  0
  187.7820  176.2460  141.6330 N   0  0  0  0  0  0  0  0  0  0  0  0
  189.5120  174.9510  144.3160 C   0  0  2  0  0  3  0  0  0  0  0  0
  189.6390  173.2130  142.0990 C   0  0  0  0  0  1  0  0  0  0  0  0
  187.6420  176.2110  144.1160 C   0  0  2  0  0  3  0  0  0  0  0  0
  1 16  2  0  0  0  0
  1 21  1  0  0  0  0
  2  8  2  0  0  0  0
  3 17  2  0  0  0  0
  5 27  1  1  0  0  0
  5 24  1  0  0  0  0
  6  1  1  0  0  0  0
  8 14  1  0  0  0  0
  8  7  2  0  0  0  0
  9 14  1  0  0  0  0
  9 18  1  0  0  0  0
 10  8  1  6  0  0  0
 11 15  2  0  0  0  0
 12 25  1  6  0  0  0
 12 24  1  0  0  0  0
 12 28  1  0  0  0  0
 13  9  2  0  0  0  0
 15 23  1  0  0  0  0
 16 20  1  0  0  0  0
 17 25  1  0  0  0  0
 17  5  1  0  0  0  0
 19 15  1  0  0  0  0
 19 25  1  0  0  0  0
 20  4  2  0  0  0  0
 21 22  2  0  0  0  0
 22  4  1  0  0  0  0
 23  6  1  0  0  0  0
 24 26  1  0  0  0  0
 26 13  1  0  0  0  0
 26 10  1  0  0  0  0
 28 16  1  0  0  0  0
 28 10  1  0  0  0  0
M  END
>  <MODEL>
1

>  <REMARK>
 VINA RESULT:      -9.0      0.000      0.000
  Name = 
  0 active torsions:
  status: ('A' for Active; 'I' for Inactive)
                            x       y       z     vdW  Elec       q    Type
                         _______ _______ _______ _____ _____    ______ ____

>  <TORSDO>
F 0

$$$$
=
 OpenBabel11112417403D

 28 32  0  0  1  0  0  0  0  0999 V2000
  190.2980  175.6030  143.4070 C   0  0  0  0  0  0  0  0  0  0  0  0
  188.5810  177.7580  141.6660 O   0  0  0  0  0  0  0  0  0  0  0  0
  186.7890  177.7160  147.8270 O   0  0  0  0  0  0  0  0  0  0  0  0
  189.6240  173.0330  142.5100 C   0  0  0  0  0  3  0  0  0  0  0  0
  185.9120  178.3030  145.6600 C   0  0  1  0  0  3  0  0  0  0  0  0
  190.7730  176.8780  144.0140 C   0  0  0  0  0  2  0  0  0  0  0  0
  187.8400  175.7810  140.4090 O   0  0  0  0  0  0  0  0  0  0  0  0
  187.4090  176.8680  141.3540 S   0  0  0  0  0  0  0  0  0  0  0  0
  184.9520  178.0240  141.2940 C   0  0  0  0  0  0  0  0  0  0  0  0
  186.7380  176.1410  142.8010 N   0  0  2  0  0  0  0  0  0  0  0  0
  190.6710  176.1800  147.5690 O   0  0  0  0  0  0  0  0  0  0  0  0
  187.9190  177.4280  144.4870 C   0  0  1  0  0  3  0  0  0  0  0  0
  184.7800  177.6420  142.5230 N   0  0  0  0  0  0  0  0  0  0  0  0
  186.1800  177.8080  140.6100 N   0  0  0  0  0  2  0  0  0  0  0  0
  190.4370  176.8190  146.5120 C   0  0  0  0  0  0  0  0  0  0  0  0
  188.9460  175.1820  143.4440 C   0  0  0  0  0  0  0  0  0  0  0  0
  186.9250  177.7420  146.5730 C   0  0  0  0  0  0  0  0  0  0  0  0
  183.8220  178.6590  140.5670 C   0  0  0  0  0  1  0  0  0  0  0  0
  189.3650  177.8530  146.5050 C   0  0  0  0  0  2  0  0  0  0  0  0
  188.6360  173.8870  142.9970 C   0  0  0  0  0  3  0  0  0  0  0  0
  191.2820  174.7360  142.9160 C   0  0  0  0  0  3  0  0  0  0  0  0
  190.9490  173.4610  142.4610 C   0  0  0  0  0  3  0  0  0  0  0  0
  191.2440  176.5910  145.3590 N   0  0  0  0  0  2  0  0  0  0  0  0
  186.5390  178.0760  144.2630 C   0  0  1  0  0  3  0  0  0  0  0  0
  188.1240  177.3550  145.9290 N   0  0  0  0  0  0  0  0  0  0  0  0
  185.7800  177.0520  143.4230 C   0  0  2  0  0  3  0  0  0  0  0  0
  184.5510  177.6530  145.8900 C   0  0  0  0  0  1  0  0  0  0  0  0
  187.7570  176.0370  143.8520 C   0  0  2  0  0  3  0  0  0  0  0  0
  1 16  1  0  0  0  0
  1  6  1  0  0  0  0
  4 20  1  0  0  0  0
  5 27  1  6  0  0  0
  5 17  1  0  0  0  0
  6 23  1  0  0  0  0
  7  8  2  0  0  0  0
  8  2  2  0  0  0  0
  9 13  2  0  0  0  0
 10  8  1  6  0  0  0
 10 26  1  0  0  0  0
 10 28  1  0  0  0  0
 12 25  1  1  0  0  0
 13 26  1  0  0  0  0
 14  9  1  0  0  0  0
 14  8  1  0  0  0  0
 15 11  2  0  0  0  0
 16 28  1  0  0  0  0
 17  3  2  0  0  0  0
 18  9  1  0  0  0  0
 19 15  1  0  0  0  0
 20 16  2  0  0  0  0
 21  1  2  0  0  0  0
 22  4  2  0  0  0  0
 22 21  1  0  0  0  0
 23 15  1  0  0  0  0
 24 12  1  0  0  0  0
 24  5  1  0  0  0  0
 25 19  1  0  0  0  0
 25 17  1  0  0  0  0
 26 24  1  0  0  0  0
 28 12  1  0  0  0  0
M  END
>  <MODEL>
2

>  <REMARK>
 VINA RESULT:      -8.9      2.000      6.461
  Name = 
  0 active torsions:
  status: ('A' for Active; 'I' for Inactive)
                            x       y       z     vdW  Elec       q    Type
                         _______ _______ _______ _____ _____    ______ ____

>  <TORSDO>
F 0

$$$$
=
 OpenBabel11112417403D

 28 32  0  0  1  0  0  0  0  0999 V2000
  191.5400  174.6060  145.1580 C   0  0  0  0  0  0  0  0  0  0  0  0
  188.6900  175.4060  146.5230 O   0  0  0  0  0  0  0  0  0  0  0  0
  188.2360  175.0140  140.1350 O   0  0  0  0  0  0  0  0  0  0  0  0
  193.3200  176.7360  145.5610 C   0  0  0  0  0  3  0  0  0  0  0  0
  187.1280  176.0700  141.9970 C   0  0  1  0  0  3  0  0  0  0  0  0
  190.7420  173.3880  144.8460 C   0  0  0  0  0  2  0  0  0  0  0  0
  189.9030  177.3940  147.3060 O   0  0  0  0  0  0  0  0  0  0  0  0
  188.8210  176.8980  146.3890 S   0  0  0  0  0  0  0  0  0  0  0  0
  186.5590  178.2990  145.8400 C   0  0  0  0  0  0  0  0  0  0  0  0
  189.1970  177.3750  144.7440 N   0  0  2  0  0  0  0  0  0  0  0  0
  191.5370  172.7580  141.3660 O   0  0  0  0  0  0  0  0  0  0  0  0
  188.8300  175.2580  143.6140 C   0  0  1  0  0  3  0  0  0  0  0  0
  186.8840  178.2640  144.5830 N   0  0  0  0  0  0  0  0  0  0  0  0
  187.3310  177.6280  146.8290 N   0  0  0  0  0  2  0  0  0  0  0  0
  190.7960  172.9370  142.3660 C   0  0  0  0  0  0  0  0  0  0  0  0
  191.2030  175.8980  144.6850 C   0  0  0  0  0  0  0  0  0  0  0  0
  188.1960  175.2680  141.3700 C   0  0  0  0  0  0  0  0  0  0  0  0
  185.3830  179.1010  146.2630 C   0  0  0  0  0  1  0  0  0  0  0  0
  189.3590  173.2700  142.1600 C   0  0  0  0  0  2  0  0  0  0  0  0
  192.1150  176.9460  144.8920 C   0  0  0  0  0  3  0  0  0  0  0  0
  192.7540  174.4070  145.8280 C   0  0  0  0  0  3  0  0  0  0  0  0
  193.6370  175.4660  146.0370 C   0  0  0  0  0  3  0  0  0  0  0  0
  191.3260  172.7520  143.6770 N   0  0  0  0  0  2  0  0  0  0  0  0
  187.5470  176.1030  143.4860 C   0  0  1  0  0  3  0  0  0  0  0  0
  189.1010  174.6960  142.2960 N   0  0  0  0  0  0  0  0  0  0  0  0
  187.9680  177.4910  143.9620 C   0  0  2  0  0  3  0  0  0  0  0  0
  186.9940  177.4290  141.3150 C   0  0  0  0  0  1  0  0  0  0  0  0
  189.8870  176.2930  144.0330 C   0  0  2  0  0  3  0  0  0  0  0  0
  1 21  1  0  0  0  0
  3 17  2  0  0  0  0
  4 22  1  0  0  0  0
  5 27  1  6  0  0  0
  5 24  1  0  0  0  0
  6  1  1  0  0  0  0
  8  2  2  0  0  0  0
  8 14  1  0  0  0  0
  8  7  2  0  0  0  0
  9 18  1  0  0  0  0
  9 14  1  0  0  0  0
 10  8  1  1  0  0  0
 11 15  2  0  0  0  0
 12 25  1  6  0  0  0
 12 28  1  0  0  0  0
 13  9  2  0  0  0  0
 15 23  1  0  0  0  0
 16 20  1  0  0  0  0
 16  1  2  0  0  0  0
 17  5  1  0  0  0  0
 17 25  1  0  0  0  0
 19 25  1  0  0  0  0
 19 15  1  0  0  0  0
 20  4  2  0  0  0  0
 21 22  2  0  0  0  0
 23  6  1  0  0  0  0
 24 12  1  0  0  0  0
 24 26  1  0  0  0  0
 26 13  1  0  0  0  0
 26 10  1  0  0  0  0
 28 16  1  0  0  0  0
 28 10  1  0  0  0  0
M  END
>  <MODEL>
3

>  <REMARK>
 VINA RESULT:      -8.5      1.737      5.451
  Name = 
  0 active torsions:
  status: ('A' for Active; 'I' for Inactive)
                            x       y       z     vdW  Elec       q    Type
                         _______ _______ _______ _____ _____    ______ ____

>  <TORSDO>
F 0

$$$$
=
 OpenBabel11112417403D

 28 32  0  0  1  0  0  0  0  0999 V2000
  190.3630  174.5920  141.7400 C   0  0  0  0  0  0  0  0  0  0  0  0
  189.1810  177.6200  141.9820 O   0  0  0  0  0  0  0  0  0  0  0  0
  189.9780  174.9160  147.7450 O   0  0  0  0  0  0  0  0  0  0  0  0
  188.4030  172.9930  140.5300 C   0  0  0  0  0  3  0  0  0  0  0  0
  188.6840  176.6560  146.6920 C   0  0  1  0  0  3  0  0  0  0  0  0
  191.5120  175.2770  142.3940 C   0  0  0  0  0  2  0  0  0  0  0  0
  187.2760  176.7140  140.7210 O   0  0  0  0  0  0  0  0  0  0  0  0
  187.7220  177.2560  142.0490 S   0  0  0  0  0  0  0  0  0  0  0  0
  186.1400  178.7610  143.6660 C   0  0  0  0  0  0  0  0  0  0  0  0
  187.4050  176.0630  143.2950 N   0  0  2  0  0  0  0  0  0  0  0  0
  192.4660  172.9580  145.0110 O   0  0  0  0  0  0  0  0  0  0  0  0
  189.5480  176.0860  144.4350 C   0  0  1  0  0  3  0  0  0  0  0  0
  186.2980  177.8670  144.5950 N   0  0  0  0  0  0  0  0  0  0  0  0
  186.8140  178.6660  142.4170 N   0  0  0  0  0  2  0  0  0  0  0  0
  192.1420  174.0660  144.5140 C   0  0  0  0  0  0  0  0  0  0  0  0
  189.0790  174.4900  142.3330 C   0  0  0  0  0  0  0  0  0  0  0  0
  189.6330  175.5270  146.6970 C   0  0  0  0  0  0  0  0  0  0  0  0
  185.1940  179.8830  143.8930 C   0  0  0  0  0  1  0  0  0  0  0  0
  191.6790  175.1620  145.4110 C   0  0  0  0  0  2  0  0  0  0  0  0
  188.1190  173.6760  141.7120 C   0  0  0  0  0  3  0  0  0  0  0  0
  190.6360  173.9000  140.5530 C   0  0  0  0  0  3  0  0  0  0  0  0
  189.6610  173.1120  139.9440 C   0  0  0  0  0  3  0  0  0  0  0  0
  192.2860  174.2780  143.1120 N   0  0  0  0  0  2  0  0  0  0  0  0
  188.5880  177.0240  145.1930 C   0  0  1  0  0  3  0  0  0  0  0  0
  190.2270  175.2740  145.4380 N   0  0  0  0  0  0  0  0  0  0  0  0
  187.2200  176.7230  144.5860 C   0  0  2  0  0  3  0  0  0  0  0  0
  187.3710  176.2670  147.3660 C   0  0  0  0  0  1  0  0  0  0  0  0
  188.6000  175.2530  143.5570 C   0  0  2  0  0  3  0  0  0  0  0  0
  1 16  1  0  0  0  0
  1  6  1  0  0  0  0
  2  8  2  0  0  0  0
  4 20  1  0  0  0  0
  5 17  1  0  0  0  0
  5 27  1  6  0  0  0
  6 23  1  0  0  0  0
  7  8  2  0  0  0  0
  8 14  1  0  0  0  0
  9 18  1  0  0  0  0
  9 13  2  0  0  0  0
 10  8  1  6  0  0  0
 10 28  1  0  0  0  0
 10 26  1  0  0  0  0
 12 24  1  0  0  0  0
 12 25  1  1  0  0  0
 14  9  1  0  0  0  0
 15 11  2  0  0  0  0
 15 19  1  0  0  0  0
 16 28  1  0  0  0  0
 17  3  2  0  0  0  0
 19 25  1  0  0  0  0
 20 16  2  0  0  0  0
 21  1  2  0  0  0  0
 22  4  2  0  0  0  0
 22 21  1  0  0  0  0
 23 15  1  0  0  0  0
 24  5  1  0  0  0  0
 25 17  1  0  0  0  0
 26 13  1  0  0  0  0
 26 24  1  0  0  0  0
 28 12  1  0  0  0  0
M  END
>  <MODEL>
4

>  <REMARK>
 VINA RESULT:      -8.2      2.283      6.318
  Name = 
  0 active torsions:
  status: ('A' for Active; 'I' for Inactive)
                            x       y       z     vdW  Elec       q    Type
                         _______ _______ _______ _____ _____    ______ ____

>  <TORSDO>
F 0

$$$$
=
 OpenBabel11112417403D

 28 32  0  0  1  0  0  0  0  0999 V2000
  192.5890  174.3620  145.0880 C   0  0  0  0  0  0  0  0  0  0  0  0
  189.6310  174.4070  146.4560 O   0  0  0  0  0  0  0  0  0  0  0  0
  189.2840  174.3690  140.0490 O   0  0  0  0  0  0  0  0  0  0  0  0
  193.8450  176.8030  145.6630 C   0  0  0  0  0  3  0  0  0  0  0  0
  187.9650  175.0180  141.9590 C   0  0  1  0  0  3  0  0  0  0  0  0
  192.0850  173.0220  144.6810 C   0  0  0  0  0  2  0  0  0  0  0  0
  190.3660  176.5570  147.3910 O   0  0  0  0  0  0  0  0  0  0  0  0
  189.4240  175.8970  146.4250 S   0  0  0  0  0  0  0  0  0  0  0  0
  186.9060  176.7910  145.9340 C   0  0  0  0  0  0  0  0  0  0  0  0
  189.6850  176.5590  144.8220 N   0  0  2  0  0  0  0  0  0  0  0  0
  193.0060  172.8290  141.1800 O   0  0  0  0  0  0  0  0  0  0  0  0
  189.8030  174.4970  143.5460 C   0  0  1  0  0  3  0  0  0  0  0  0
  187.2310  176.9160  144.6830 N   0  0  0  0  0  0  0  0  0  0  0  0
  187.8070  176.2430  146.8880 N   0  0  0  0  0  2  0  0  0  0  0  0
  192.2420  172.7670  142.1770 C   0  0  0  0  0  0  0  0  0  0  0  0
  191.9710  175.5760  144.6980 C   0  0  0  0  0  0  0  0  0  0  0  0
  189.1860  174.5210  141.2980 C   0  0  0  0  0  0  0  0  0  0  0  0
  185.5790  177.2770  146.3900 C   0  0  0  0  0  1  0  0  0  0  0  0
  190.7670  172.7840  141.9710 C   0  0  0  0  0  2  0  0  0  0  0  0
  192.6240  176.7840  144.9890 C   0  0  0  0  0  3  0  0  0  0  0  0
  193.8160  174.3940  145.7630 C   0  0  0  0  0  3  0  0  0  0  0  0
  194.4380  175.6070  146.0580 C   0  0  0  0  0  3  0  0  0  0  0  0
  192.7980  172.6150  143.4810 N   0  0  0  0  0  2  0  0  0  0  0  0
  188.3640  175.0400  143.4540 C   0  0  1  0  0  3  0  0  0  0  0  0
  190.1950  174.1030  142.1970 N   0  0  0  0  0  0  0  0  0  0  0  0
  188.4620  176.4510  144.0290 C   0  0  2  0  0  3  0  0  0  0  0  0
  187.5300  176.3560  141.3690 C   0  0  0  0  0  1  0  0  0  0  0  0
  190.6010  175.7100  144.0520 C   0  0  2  0  0  3  0  0  0  0  0  0
  1 21  1  0  0  0  0
  3 17  2  0  0  0  0
  4 22  1  0  0  0  0
  5 27  1  6  0  0  0
  5 24  1  0  0  0  0
  6  1  1  0  0  0  0
  8  2  2  0  0  0  0
  8 14  1  0  0  0  0
  8  7  2  0  0  0  0
  9 18  1  0  0  0  0
  9 14  1  0  0  0  0
 10  8  1  1  0  0  0
 11 15  2  0  0  0  0
 12 25  1  6  0  0  0
 12 28  1  0  0  0  0
 13  9  2  0  0  0  0
 15 23  1  0  0  0  0
 16 20  1  0  0  0  0
 16  1  2  0  0  0  0
 17  5  1  0  0  0  0
 17 25  1  0  0  0  0
 19 15  1  0  0  0  0
 19 25  1  0  0  0  0
 20  4  2  0  0  0  0
 21 22  2  0  0  0  0
 23  6  1  0  0  0  0
 24 12  1  0  0  0  0
 24 26  1  0  0  0  0
 26 13  1  0  0  0  0
 26 10  1  0  0  0  0
 28 16  1  0  0  0  0
 28 10  1  0  0  0  0
M  END
>  <MODEL>
5

>  <REMARK>
 VINA RESULT:      -7.9      2.093      5.805
  Name = 
  0 active torsions:
  status: ('A' for Active; 'I' for Inactive)
                            x       y       z     vdW  Elec       q    Type
                         _______ _______ _______ _____ _____    ______ ____

>  <TORSDO>
F 0

$$$$
=
 OpenBabel11112417403D

 28 32  0  0  1  0  0  0  0  0999 V2000
  188.6500  175.9670  145.5920 C   0  0  0  0  0  0  0  0  0  0  0  0
  189.3320  173.5100  143.5620 O   0  0  0  0  0  0  0  0  0  0  0  0
  194.6610  176.3780  145.6920 O   0  0  0  0  0  0  0  0  0  0  0  0
  187.3680  177.9780  144.1160 C   0  0  0  0  0  3  0  0  0  0  0  0
  193.9090  175.0430  143.8320 C   0  0  1  0  0  3  0  0  0  0  0  0
  189.3160  175.0220  146.5300 C   0  0  0  0  0  2  0  0  0  0  0  0
  188.0820  174.8440  141.9200 O   0  0  0  0  0  0  0  0  0  0  0  0
  189.4390  174.3230  142.3000 S   0  0  0  0  0  0  0  0  0  0  0  0
  191.3180  173.5650  140.4900 C   0  0  0  0  0  0  0  0  0  0  0  0
  190.5440  175.6710  142.4840 N   0  0  2  0  0  0  0  0  0  0  0  0
  191.5660  177.1660  148.3940 O   0  0  0  0  0  0  0  0  0  0  0  0
  191.5520  175.0830  144.6130 C   0  0  1  0  0  3  0  0  0  0  0  0
  192.1190  174.4500  141.0030 N   0  0  0  0  0  0  0  0  0  0  0  0
  190.0300  173.3170  141.0400 N   0  0  0  0  0  2  0  0  0  0  0  0
  191.2300  176.1740  147.6990 C   0  0  0  0  0  0  0  0  0  0  0  0
  189.2990  176.5290  144.4640 C   0  0  0  0  0  0  0  0  0  0  0  0
  193.7180  175.8080  145.0790 C   0  0  0  0  0  0  0  0  0  0  0  0
  191.7370  172.8280  139.2700 C   0  0  0  0  0  1  0  0  0  0  0  0
  192.2800  175.3760  147.0070 C   0  0  0  0  0  2  0  0  0  0  0  0
  188.6390  177.5410  143.7470 C   0  0  0  0  0  3  0  0  0  0  0  0
  187.3730  176.4160  145.9520 C   0  0  0  0  0  3  0  0  0  0  0  0
  186.7290  177.4090  145.2150 C   0  0  0  0  0  3  0  0  0  0  0  0
  189.8580  175.7900  147.6380 N   0  0  0  0  0  2  0  0  0  0  0  0
  192.4740  174.5780  143.4870 C   0  0  1  0  0  3  0  0  0  0  0  0
  192.4050  175.7330  145.6010 N   0  0  0  0  0  0  0  0  0  0  0  0
  191.9160  175.2360  142.2270 C   0  0  2  0  0  3  0  0  0  0  0  0
  194.6040  175.8930  142.7720 C   0  0  0  0  0  1  0  0  0  0  0  0
  190.6340  176.0830  143.8900 C   0  0  2  0  0  3  0  0  0  0  0  0
  1 21  1  0  0  0  0
  1  6  1  0  0  0  0
  4 22  1  0  0  0  0
  5 27  1  6  0  0  0
  5 17  1  0  0  0  0
  6 23  1  0  0  0  0
  7  8  2  0  0  0  0
  8  2  2  0  0  0  0
  9 13  2  0  0  0  0
  9 14  1  0  0  0  0
 10  8  1  1  0  0  0
 10 28  1  0  0  0  0
 12 25  1  1  0  0  0
 13 26  1  0  0  0  0
 14  8  1  0  0  0  0
 15 11  2  0  0  0  0
 16  1  2  0  0  0  0
 17 25  1  0  0  0  0
 17  3  2  0  0  0  0
 18  9  1  0  0  0  0
 19 15  1  0  0  0  0
 20  4  2  0  0  0  0
 20 16  1  0  0  0  0
 22 21  2  0  0  0  0
 23 15  1  0  0  0  0
 24  5  1  0  0  0  0
 24 12  1  0  0  0  0
 25 19  1  0  0  0  0
 26 10  1  0  0  0  0
 26 24  1  0  0  0  0
 28 16  1  0  0  0  0
 28 12  1  0  0  0  0
M  END
>  <MODEL>
6

>  <REMARK>
 VINA RESULT:      -7.8      2.743      5.663
  Name = 
  0 active torsions:
  status: ('A' for Active; 'I' for Inactive)
                            x       y       z     vdW  Elec       q    Type
                         _______ _______ _______ _____ _____    ______ ____

>  <TORSDO>
F 0

$$$$
=
 OpenBabel11112417403D

 28 32  0  0  1  0  0  0  0  0999 V2000
  189.0030  175.6750  144.4450 C   0  0  0  0  0  0  0  0  0  0  0  0
  192.2070  176.2040  144.1580 O   0  0  0  0  0  0  0  0  0  0  0  0
  190.5730  170.3500  142.1030 O   0  0  0  0  0  0  0  0  0  0  0  0
  188.3790  175.6100  147.1790 C   0  0  0  0  0  3  0  0  0  0  0  0
  192.4960  171.5340  142.9460 C   0  0  1  0  0  3  0  0  0  0  0  0
  189.1440  175.6730  142.9630 C   0  0  0  0  0  2  0  0  0  0  0  0
  192.1370  176.4470  146.6020 O   0  0  0  0  0  0  0  0  0  0  0  0
  192.6250  175.5920  145.4670 S   0  0  0  0  0  0  0  0  0  0  0  0
  194.9800  174.2390  145.5100 C   0  0  0  0  0  0  0  0  0  0  0  0
  191.9940  173.9670  145.6580 N   0  0  2  0  0  0  0  0  0  0  0  0
  187.1810  172.7950  141.9600 O   0  0  0  0  0  0  0  0  0  0  0  0
  191.1710  173.5830  143.4060 C   0  0  1  0  0  3  0  0  0  0  0  0
  194.3120  173.1400  145.3300 N   0  0  0  0  0  0  0  0  0  0  0  0
  194.3380  175.5080  145.5200 N   0  0  0  0  0  2  0  0  0  0  0  0
  188.1930  173.5400  142.0130 C   0  0  0  0  0  0  0  0  0  0  0  0
  189.6550  174.7420  145.2890 C   0  0  0  0  0  0  0  0  0  0  0  0
  191.0690  171.4000  142.5950 C   0  0  0  0  0  0  0  0  0  0  0  0
  196.4410  174.1660  145.7630 C   0  0  0  0  0  1  0  0  0  0  0  0
  189.5190  173.0020  141.5960 C   0  0  0  0  0  2  0  0  0  0  0  0
  189.3180  174.7230  146.6520 C   0  0  0  0  0  3  0  0  0  0  0  0
  188.0620  176.5600  144.9860 C   0  0  0  0  0  3  0  0  0  0  0  0
  187.7560  176.5360  146.3460 C   0  0  0  0  0  3  0  0  0  0  0  0
  188.0450  174.9020  142.4060 N   0  0  0  0  0  2  0  0  0  0  0  0
  192.5810  172.9690  143.5170 C   0  0  1  0  0  3  0  0  0  0  0  0
  190.3310  172.5990  142.7350 N   0  0  0  0  0  0  0  0  0  0  0  0
  192.8840  173.0040  145.0130 C   0  0  2  0  0  3  0  0  0  0  0  0
  192.9330  170.4170  143.8900 C   0  0  0  0  0  1  0  0  0  0  0  0
  190.7650  173.7900  144.8740 C   0  0  2  0  0  3  0  0  0  0  0  0
  1 21  2  0  0  0  0
  1 16  1  0  0  0  0
  2  8  2  0  0  0  0
  3 17  2  0  0  0  0
  5 24  1  0  0  0  0
  5 27  1  1  0  0  0
  6  1  1  0  0  0  0
  8 14  1  0  0  0  0
  8  7  2  0  0  0  0
  9 14  1  0  0  0  0
  9 18  1  0  0  0  0
 10  8  1  6  0  0  0
 11 15  2  0  0  0  0
 12 25  1  1  0  0  0
 12 24  1  0  0  0  0
 12 28  1  0  0  0  0
 13  9  2  0  0  0  0
 15 23  1  0  0  0  0
 16 20  2  0  0  0  0
 17 25  1  0  0  0  0
 17  5  1  0  0  0  0
 19 15  1  0  0  0  0
 19 25  1  0  0  0  0
 20  4  1  0  0  0  0
 21 22  1  0  0  0  0
 22  4  2  0  0  0  0
 23  6  1  0  0  0  0
 24 26  1  0  0  0  0
 26 13  1  0  0  0  0
 26 10  1  0  0  0  0
 28 16  1  0  0  0  0
 28 10  1  0  0  0  0
M  END
>  <MODEL>
7

>  <REMARK>
 VINA RESULT:      -7.6      2.847      4.200
  Name = 
  0 active torsions:
  status: ('A' for Active; 'I' for Inactive)
                            x       y       z     vdW  Elec       q    Type
                         _______ _______ _______ _____ _____    ______ ____

>  <TORSDO>
F 0

$$$$
=
 OpenBabel11112417403D

 28 32  0  0  1  0  0  0  0  0999 V2000
  186.0150  177.0240  143.8380 C   0  0  0  0  0  0  0  0  0  0  0  0
  187.6690  174.4720  142.6630 O   0  0  0  0  0  0  0  0  0  0  0  0
  190.6810  177.1660  147.6470 O   0  0  0  0  0  0  0  0  0  0  0  0
  186.0370  179.0400  141.8880 C   0  0  0  0  0  3  0  0  0  0  0  0
  191.1700  175.8060  145.7180 C   0  0  1  0  0  3  0  0  0  0  0  0
  185.9020  176.0800  144.9840 C   0  0  0  0  0  2  0  0  0  0  0  0
  187.7820  175.8070  140.6030 O   0  0  0  0  0  0  0  0  0  0  0  0
  188.5800  175.2370  141.7420 S   0  0  0  0  0  0  0  0  0  0  0  0
  191.1300  174.3370  141.4870 C   0  0  0  0  0  0  0  0  0  0  0  0
  189.4060  176.5400  142.5750 N   0  0  2  0  0  0  0  0  0  0  0  0
  186.6280  178.1810  147.8470 O   0  0  0  0  0  0  0  0  0  0  0  0
  188.8430  175.9770  144.8690 C   0  0  1  0  0  3  0  0  0  0  0  0
  191.4890  175.2000  142.3880 N   0  0  0  0  0  0  0  0  0  0  0  0
  189.7670  174.1660  141.1190 N   0  0  0  0  0  2  0  0  0  0  0  0
  186.7400  177.1820  147.0910 C   0  0  0  0  0  0  0  0  0  0  0  0
  187.2530  177.5180  143.3570 C   0  0  0  0  0  0  0  0  0  0  0  0
  190.2910  176.6180  146.5800 C   0  0  0  0  0  0  0  0  0  0  0  0
  192.1730  173.5420  140.7890 C   0  0  0  0  0  1  0  0  0  0  0  0
  187.9460  176.3160  147.1980 C   0  0  0  0  0  2  0  0  0  0  0  0
  187.2370  178.5340  142.3880 C   0  0  0  0  0  3  0  0  0  0  0  0
  184.8160  177.5410  143.3290 C   0  0  0  0  0  3  0  0  0  0  0  0
  184.8250  178.5370  142.3530 C   0  0  0  0  0  3  0  0  0  0  0  0
  185.6820  176.8590  146.1910 N   0  0  0  0  0  2  0  0  0  0  0  0
  190.2350  175.3940  144.5560 C   0  0  1  0  0  3  0  0  0  0  0  0
  188.9350  176.6210  146.1740 N   0  0  0  0  0  0  0  0  0  0  0  0
  190.6150  176.0350  143.2240 C   0  0  2  0  0  3  0  0  0  0  0  0
  192.4190  176.5880  145.3200 C   0  0  0  0  0  1  0  0  0  0  0  0
  188.6280  176.9930  143.7340 C   0  0  2  0  0  3  0  0  0  0  0  0
  1  6  1  0  0  0  0
  4 22  2  0  0  0  0
  4 20  1  0  0  0  0
  5 27  1  6  0  0  0
  5 17  1  0  0  0  0
  6 23  1  0  0  0  0
  7  8  2  0  0  0  0
  8  2  2  0  0  0  0
  9 13  2  0  0  0  0
 10  8  1  1  0  0  0
 10 26  1  0  0  0  0
 10 28  1  0  0  0  0
 12 25  1  1  0  0  0
 13 26  1  0  0  0  0
 14  9  1  0  0  0  0
 14  8  1  0  0  0  0
 15 19  1  0  0  0  0
 15 11  2  0  0  0  0
 16 28  1  0  0  0  0
 16  1  1  0  0  0  0
 17  3  2  0  0  0  0
 18  9  1  0  0  0  0
 20 16  2  0  0  0  0
 21  1  2  0  0  0  0
 22 21  1  0  0  0  0
 23 15  1  0  0  0  0
 24 12  1  0  0  0  0
 24  5  1  0  0  0  0
 25 17  1  0  0  0  0
 25 19  1  0  0  0  0
 26 24  1  0  0  0  0
 28 12  1  0  0  0  0
M  END
>  <MODEL>
8

>  <REMARK>
 VINA RESULT:      -7.4      2.198      4.731
  Name = 
  0 active torsions:
  status: ('A' for Active; 'I' for Inactive)
                            x       y       z     vdW  Elec       q    Type
                         _______ _______ _______ _____ _____    ______ ____

>  <TORSDO>
F 0

$$$$
=
 OpenBabel11112417403D

 28 32  0  0  1  0  0  0  0  0999 V2000
  191.2090  175.9890  145.8850 C   0  0  0  0  0  0  0  0  0  0  0  0
  191.0690  173.1270  144.3310 O   0  0  0  0  0  0  0  0  0  0  0  0
  196.1670  176.5710  142.5100 O   0  0  0  0  0  0  0  0  0  0  0  0
  189.0320  177.5410  145.0390 C   0  0  0  0  0  3  0  0  0  0  0  0
  194.7540  174.8010  141.6870 C   0  0  1  0  0  3  0  0  0  0  0  0
  192.4170  175.3210  146.4450 C   0  0  0  0  0  2  0  0  0  0  0  0
  188.9370  173.9840  143.4600 O   0  0  0  0  0  0  0  0  0  0  0  0
  190.3470  173.6080  143.1020 S   0  0  0  0  0  0  0  0  0  0  0  0
  191.0450  172.4790  140.7310 C   0  0  0  0  0  0  0  0  0  0  0  0
  191.1450  174.9890  142.3740 N   0  0  2  0  0  0  0  0  0  0  0  0
  194.9410  177.9160  146.2770 O   0  0  0  0  0  0  0  0  0  0  0  0
  193.2210  174.9690  143.6340 C   0  0  1  0  0  3  0  0  0  0  0  0
  191.8420  173.4830  140.5270 N   0  0  0  0  0  0  0  0  0  0  0  0
  190.3160  172.3400  141.9450 N   0  0  0  0  0  2  0  0  0  0  0  0
  194.4460  176.7750  146.0930 C   0  0  0  0  0  0  0  0  0  0  0  0
  191.0480  176.2740  144.5070 C   0  0  0  0  0  0  0  0  0  0  0  0
  195.1480  175.8430  142.6540 C   0  0  0  0  0  0  0  0  0  0  0  0
  190.8500  171.4770  139.6520 C   0  0  0  0  0  1  0  0  0  0  0  0
  195.0680  175.8600  145.0960 C   0  0  0  0  0  2  0  0  0  0  0  0
  189.9540  177.0600  144.1100 C   0  0  0  0  0  3  0  0  0  0  0  0
  190.2770  176.4780  146.8090 C   0  0  0  0  0  3  0  0  0  0  0  0
  189.1880  177.2420  146.3900 C   0  0  0  0  0  3  0  0  0  0  0  0
  193.3400  176.3520  146.8880 N   0  0  0  0  0  2  0  0  0  0  0  0
  193.4560  174.2270  142.3030 C   0  0  1  0  0  3  0  0  0  0  0  0
  194.3560  175.8640  143.8270 N   0  0  0  0  0  0  0  0  0  0  0  0
  192.2100  174.5400  141.4790 C   0  0  2  0  0  3  0  0  0  0  0  0
  194.6210  175.3830  140.2820 C   0  0  0  0  0  1  0  0  0  0  0  0
  191.9130  175.7350  143.3790 C   0  0  2  0  0  3  0  0  0  0  0  0
  1  6  1  0  0  0  0
  1 21  1  0  0  0  0
  3 17  2  0  0  0  0
  4 22  1  0  0  0  0
  5 27  1  6  0  0  0
  5 24  1  0  0  0  0
  5 17  1  0  0  0  0
  6 23  1  0  0  0  0
  8  7  2  0  0  0  0
  8  2  2  0  0  0  0
  9 14  1  0  0  0  0
 10  8  1  1  0  0  0
 10 28  1  0  0  0  0
 12 25  1  6  0  0  0
 13  9  2  0  0  0  0
 13 26  1  0  0  0  0
 14  8  1  0  0  0  0
 15 11  2  0  0  0  0
 15 23  1  0  0  0  0
 16  1  2  0  0  0  0
 17 25  1  0  0  0  0
 18  9  1  0  0  0  0
 19 15  1  0  0  0  0
 20 16  1  0  0  0  0
 20  4  2  0  0  0  0
 22 21  2  0  0  0  0
 24 12  1  0  0  0  0
 25 19  1  0  0  0  0
 26 24  1  0  0  0  0
 26 10  1  0  0  0  0
 28 12  1  0  0  0  0
 28 16  1  0  0  0  0
M  END
>  <MODEL>
9

>  <REMARK>
 VINA RESULT:      -7.1      3.686      6.416
  Name = 
  0 active torsions:
  status: ('A' for Active; 'I' for Inactive)
                            x       y       z     vdW  Elec       q    Type
                         _______ _______ _______ _____ _____    ______ ____

>  <TORSDO>
F 0

$$$$
