=
 OpenBabel11112417183D

 37 43  0  0  1  0  0  0  0  0999 V2000
  190.8900  173.9440  141.0960 C   0  0  0  0  0  2  0  0  0  0  0  0
  186.7350  177.3850  143.3830 C   0  0  0  0  0  0  0  0  0  0  0  0
  190.5500  176.2510  144.8910 C   0  0  1  0  0  3  0  0  0  0  0  0
  190.6990  172.9440  140.0310 N   0  0  0  0  0  0  0  0  0  0  0  0
  191.4390  173.1220  144.6020 O   0  0  0  0  0  0  0  0  0  0  0  0
  188.2380  176.7970  145.4250 C   0  0  1  0  0  3  0  0  0  0  0  0
  190.9250  175.3780  143.9580 C   0  0  1  0  0  3  0  0  0  0  0  0
  190.2670  171.0530  141.6230 C   0  0  2  0  0  3  0  0  0  0  0  0
  189.3650  177.0230  144.4300 C   0  0  2  0  0  3  0  0  0  0  0  0
  191.9770  174.3140  144.0990 C   0  0  1  0  0  3  0  0  0  0  0  0
  188.6050  177.2730  146.8400 C   0  0  0  0  0  2  0  0  0  0  0  0
  189.8120  171.8240  140.3750 C   0  0  0  0  0  2  0  0  0  0  0  0
  189.0100  176.3080  143.1800 C   0  0  2  0  0  3  0  0  0  0  0  0
  187.0560  178.7780  142.8700 C   0  0  0  0  0  1  0  0  0  0  0  0
  192.3800  176.3080  146.6010 C   0  0  0  0  0  2  0  0  0  0  0  0
  190.1250  177.2590  147.1300 C   0  0  0  0  0  2  0  0  0  0  0  0
  187.6110  176.3600  142.6310 C   0  0  0  0  0  2  0  0  0  0  0  0
  190.1770  171.8470  142.9450 C   0  0  1  0  0  3  0  0  0  0  0  0
  191.5480  172.2260  143.5300 C   0  0  0  0  0  2  0  0  0  0  0  0
  190.8890  176.1730  146.3570 C   0  0  1  0  0  3  0  0  0  0  0  0
  189.9180  175.3810  142.8930 C   0  0  2  0  0  3  0  0  0  0  0  0
  186.9060  177.3740  144.9230 C   0  0  0  0  0  2  0  0  0  0  0  0
  193.2540  174.7680  144.8220 C   0  0  1  0  0  3  0  0  0  0  0  0
  185.2840  177.0940  143.0640 C   0  0  0  0  0  1  0  0  0  0  0  0
  189.1900  173.0260  142.8440 C   0  0  0  0  0  2  0  0  0  0  0  0
  191.5250  170.4750  141.4220 O   0  0  0  0  0  1  0  0  0  0  0  0
  189.6570  174.2180  141.9820 C   0  0  2  0  0  3  0  0  0  0  0  0
  193.0750  174.9860  146.3230 C   0  0  0  0  0  2  0  0  0  0  0  0
  194.9960  173.8740  143.2660 C   0  0  0  0  0  3  0  0  0  0  0  0
  194.4020  173.8510  144.5320 C   0  0  0  0  0  0  0  0  0  0  0  0
  194.8730  172.9380  145.4850 C   0  0  0  0  0  3  0  0  0  0  0  0
  196.5220  170.9370  146.3470 Cl  0  0  0  0  0  0  0  0  0  0  0  0
  196.4940  172.1400  143.8910 C   0  0  0  0  0  3  0  0  0  0  0  0
  195.9260  172.0800  145.1650 C   0  0  0  0  0  0  0  0  0  0  0  0
  196.0210  173.0290  142.9750 N   0  0  0  0  0  0  0  0  0  0  0  0
  188.8310  173.3600  138.6400 O   0  0  0  0  0  1  0  0  0  0  0  0
  190.1970  173.6040  138.8250 C   0  0  0  0  0  2  0  0  0  0  0  0
  1 27  1  0  0  0  0
  2 22  1  0  0  0  0
  3 20  1  0  0  0  0
  4 12  1  0  0  0  0
  4  1  1  0  0  0  0
  6 11  1  0  0  0  0
  7 10  1  0  0  0  0
  7  3  1  0  0  0  0
  8 18  1  0  0  0  0
  9  3  1  0  0  0  0
  9  6  1  0  0  0  0
 10  5  1  0  0  0  0
 10 23  1  0  0  0  0
 11 16  1  0  0  0  0
 12  8  1  0  0  0  0
 13  9  1  0  0  0  0
 14  2  1  0  0  0  0
 17 13  1  0  0  0  0
 17  2  1  0  0  0  0
 18 19  1  0  0  0  0
 19  5  1  0  0  0  0
 20 15  1  0  0  0  0
 20 16  1  0  0  0  0
 21 13  1  0  0  0  0
 21  7  1  0  0  0  0
 22  6  1  0  0  0  0
 23 28  1  0  0  0  0
 24  2  1  0  0  0  0
 25 18  1  0  0  0  0
 26  8  1  0  0  0  0
 27 25  1  0  0  0  0
 27 21  1  0  0  0  0
 28 15  1  0  0  0  0
 29 30  1  0  0  0  0
 30 23  1  0  0  0  0
 30 31  2  0  0  0  0
 33 34  2  0  0  0  0
 34 31  1  0  0  0  0
 34 32  1  0  0  0  0
 35 29  2  0  0  0  0
 35 33  1  0  0  0  0
 36 37  1  0  0  0  0
 37  4  1  0  0  0  0
M  END
>  <MODEL>
1

>  <REMARK>
 VINA RESULT:      -8.8      0.000      0.000
  Name = 
  2 active torsions:
  status: ('A' for Active; 'I' for Inactive)
    1  A    between atoms: N_4  and  C_37
    2  A    between atoms: C_23  and  C_30
                            x       y       z     vdW  Elec       q    Type
                         _______ _______ _______ _____ _____    ______ ____

>  <TORSDO>
F 2

$$$$
=
 OpenBabel11112417183D

 37 43  0  0  1  0  0  0  0  0999 V2000
  190.6770  174.0180  141.6390 C   0  0  0  0  0  2  0  0  0  0  0  0
  187.2340  177.0210  145.3100 C   0  0  0  0  0  0  0  0  0  0  0  0
  191.4020  176.1710  145.4700 C   0  0  1  0  0  3  0  0  0  0  0  0
  190.2270  173.0380  140.6340 N   0  0  0  0  0  0  0  0  0  0  0  0
  192.3730  173.1400  144.7400 O   0  0  0  0  0  0  0  0  0  0  0  0
  189.3480  176.5010  146.7360 C   0  0  1  0  0  3  0  0  0  0  0  0
  191.5210  175.3630  144.4200 C   0  0  1  0  0  3  0  0  0  0  0  0
  190.4620  171.0700  142.1730 C   0  0  2  0  0  3  0  0  0  0  0  0
  190.0800  176.8530  145.4510 C   0  0  2  0  0  3  0  0  0  0  0  0
  192.6360  174.3880  144.1620 C   0  0  1  0  0  3  0  0  0  0  0  0
  190.1130  176.9640  147.9870 C   0  0  0  0  0  2  0  0  0  0  0  0
  189.5790  171.8370  141.1770 C   0  0  0  0  0  2  0  0  0  0  0  0
  189.3970  176.1480  144.3390 C   0  0  2  0  0  3  0  0  0  0  0  0
  187.2750  178.4510  144.8000 C   0  0  0  0  0  1  0  0  0  0  0  0
  193.6730  176.3320  146.5150 C   0  0  0  0  0  2  0  0  0  0  0  0
  191.6420  177.0710  147.7820 C   0  0  0  0  0  2  0  0  0  0  0  0
  187.8960  176.0970  144.2630 C   0  0  0  0  0  2  0  0  0  0  0  0
  190.7420  171.8130  143.4980 C   0  0  1  0  0  3  0  0  0  0  0  0
  192.1980  172.2900  143.6410 C   0  0  0  0  0  2  0  0  0  0  0  0
  192.1950  176.0780  146.7480 C   0  0  1  0  0  3  0  0  0  0  0  0
  190.2290  175.3110  143.7280 C   0  0  2  0  0  3  0  0  0  0  0  0
  187.8880  176.9770  146.7140 C   0  0  0  0  0  2  0  0  0  0  0  0
  194.0410  174.9280  144.4690 C   0  0  1  0  0  3  0  0  0  0  0  0
  185.7820  176.6160  145.4500 C   0  0  0  0  0  1  0  0  0  0  0  0
  189.6930  172.9050  143.7800 C   0  0  0  0  0  2  0  0  0  0  0  0
  191.6290  170.6080  141.5530 O   0  0  0  0  0  1  0  0  0  0  0  0
  189.7740  174.1590  142.8830 C   0  0  2  0  0  3  0  0  0  0  0  0
  194.3350  175.0830  145.9590 C   0  0  0  0  0  2  0  0  0  0  0  0
  195.2310  174.2060  142.3910 C   0  0  0  0  0  3  0  0  0  0  0  0
  195.0990  174.1210  143.7800 C   0  0  0  0  0  0  0  0  0  0  0  0
  195.9370  173.2490  144.4880 C   0  0  0  0  0  3  0  0  0  0  0  0
  197.9410  171.4020  144.6800 Cl  0  0  0  0  0  0  0  0  0  0  0  0
  196.9920  172.6130  142.4180 C   0  0  0  0  0  3  0  0  0  0  0  0
  196.8900  172.4930  143.8050 C   0  0  0  0  0  0  0  0  0  0  0  0
  196.1670  173.4600  141.7450 N   0  0  0  0  0  0  0  0  0  0  0  0
  188.2220  172.8760  139.3910 O   0  0  0  0  0  1  0  0  0  0  0  0
  189.3210  173.6900  139.6880 C   0  0  0  0  0  2  0  0  0  0  0  0
  1 27  1  0  0  0  0
  2 24  1  0  0  0  0
  2 22  1  0  0  0  0
  3 20  1  0  0  0  0
  4 12  1  0  0  0  0
  4  1  1  0  0  0  0
  6 11  1  0  0  0  0
  7  3  1  0  0  0  0
  8 18  1  0  0  0  0
  9  3  1  0  0  0  0
  9  6  1  0  0  0  0
 10  7  1  0  0  0  0
 10 23  1  0  0  0  0
 10  5  1  0  0  0  0
 12  8  1  0  0  0  0
 13  9  1  0  0  0  0
 14  2  1  0  0  0  0
 15 20  1  0  0  0  0
 16 11  1  0  0  0  0
 17 13  1  0  0  0  0
 17  2  1  0  0  0  0
 18 19  1  0  0  0  0
 18 25  1  0  0  0  0
 19  5  1  0  0  0  0
 20 16  1  0  0  0  0
 21 13  1  0  0  0  0
 21  7  1  0  0  0  0
 22  6  1  0  0  0  0
 23 28  1  0  0  0  0
 26  8  1  0  0  0  0
 27 21  1  0  0  0  0
 27 25  1  0  0  0  0
 28 15  1  0  0  0  0
 29 30  1  0  0  0  0
 30 23  1  0  0  0  0
 30 31  2  0  0  0  0
 33 34  2  0  0  0  0
 34 31  1  0  0  0  0
 34 32  1  0  0  0  0
 35 29  2  0  0  0  0
 35 33  1  0  0  0  0
 36 37  1  0  0  0  0
 37  4  1  0  0  0  0
M  END
>  <MODEL>
2

>  <REMARK>
 VINA RESULT:      -8.3      1.151      1.356
  Name = 
  2 active torsions:
  status: ('A' for Active; 'I' for Inactive)
    1  A    between atoms: N_4  and  C_37
    2  A    between atoms: C_23  and  C_30
                            x       y       z     vdW  Elec       q    Type
                         _______ _______ _______ _____ _____    ______ ____

>  <TORSDO>
F 2

$$$$
=
 OpenBabel11112417183D

 37 43  0  0  1  0  0  0  0  0999 V2000
  190.5920  175.2120  145.8410 C   0  0  0  0  0  2  0  0  0  0  0  0
  186.0350  178.7770  146.7680 C   0  0  0  0  0  0  0  0  0  0  0  0
  187.1310  176.4930  143.3470 C   0  0  1  0  0  3  0  0  0  0  0  0
  191.8520  175.1980  146.6060 N   0  0  0  0  0  0  0  0  0  0  0  0
  190.2700  176.4980  142.4490 O   0  0  0  0  0  0  0  0  0  0  0  0
  186.1170  178.5460  144.1770 C   0  0  1  0  0  3  0  0  0  0  0  0
  188.3080  176.0160  143.7470 C   0  0  1  0  0  3  0  0  0  0  0  0
  193.0250  176.7960  145.0670 C   0  0  2  0  0  3  0  0  0  0  0  0
  186.3960  177.0860  144.4970 C   0  0  2  0  0  3  0  0  0  0  0  0
  189.4020  175.4810  142.8660 C   0  0  1  0  0  3  0  0  0  0  0  0
  185.2540  178.7110  142.9150 C   0  0  0  0  0  2  0  0  0  0  0  0
  192.6560  176.4240  146.5110 C   0  0  0  0  0  2  0  0  0  0  0  0
  187.4290  177.0510  145.5620 C   0  0  2  0  0  3  0  0  0  0  0  0
  184.9520  177.8840  147.3480 C   0  0  0  0  0  1  0  0  0  0  0  0
  186.7680  175.6550  141.0160 C   0  0  0  0  0  2  0  0  0  0  0  0
  185.3860  177.5420  141.9100 C   0  0  0  0  0  2  0  0  0  0  0  0
  187.3650  177.9940  146.7320 C   0  0  0  0  0  2  0  0  0  0  0  0
  191.8310  177.2210  144.1820 C   0  0  1  0  0  3  0  0  0  0  0  0
  191.4770  176.1950  143.0920 C   0  0  0  0  0  2  0  0  0  0  0  0
  186.7630  176.8620  141.9340 C   0  0  1  0  0  3  0  0  0  0  0  0
  188.5170  176.4140  145.1420 C   0  0  2  0  0  3  0  0  0  0  0  0
  185.5570  179.3030  145.3910 C   0  0  0  0  0  2  0  0  0  0  0  0
  188.9180  174.5740  141.7240 C   0  0  1  0  0  3  0  0  0  0  0  0
  186.2070  179.9620  147.6940 C   0  0  0  0  0  1  0  0  0  0  0  0
  190.6260  177.6860  145.0220 C   0  0  0  0  0  2  0  0  0  0  0  0
  193.8080  175.7980  144.4780 O   0  0  0  0  0  1  0  0  0  0  0  0
  189.8670  176.5730  145.7760 C   0  0  2  0  0  3  0  0  0  0  0  0
  188.1910  175.3170  140.6060 C   0  0  0  0  0  2  0  0  0  0  0  0
  190.3510  173.7910  139.8300 C   0  0  0  0  0  3  0  0  0  0  0  0
  190.0330  173.7280  141.1900 C   0  0  0  0  0  0  0  0  0  0  0  0
  190.7420  172.8410  142.0110 C   0  0  0  0  0  3  0  0  0  0  0  0
  192.6460  170.9390  142.4860 Cl  0  0  0  0  0  0  0  0  0  0  0  0
  192.0440  172.1470  140.1070 C   0  0  0  0  0  3  0  0  0  0  0  0
  191.7540  172.0490  141.4690 C   0  0  0  0  0  0  0  0  0  0  0  0
  191.3420  173.0090  139.3220 N   0  0  0  0  0  0  0  0  0  0  0  0
  191.5660  176.0870  148.7780 O   0  0  0  0  0  1  0  0  0  0  0  0
  191.5670  174.9160  148.0130 C   0  0  0  0  0  2  0  0  0  0  0  0
  1  4  1  0  0  0  0
  2 14  1  0  0  0  0
  2 24  1  0  0  0  0
  3  7  1  0  0  0  0
  3  9  1  0  0  0  0
  4 37  1  0  0  0  0
  5 10  1  0  0  0  0
  5 19  1  0  0  0  0
  6  9  1  0  0  0  0
  6 22  1  0  0  0  0
  7 21  1  0  0  0  0
  8 12  1  0  0  0  0
  9 13  1  0  0  0  0
 10  7  1  0  0  0  0
 11  6  1  0  0  0  0
 12  4  1  0  0  0  0
 13 17  1  0  0  0  0
 15 20  1  0  0  0  0
 16 20  1  0  0  0  0
 16 11  1  0  0  0  0
 17  2  1  0  0  0  0
 18 25  1  0  0  0  0
 18  8  1  0  0  0  0
 19 18  1  0  0  0  0
 20  3  1  0  0  0  0
 21 13  1  0  0  0  0
 21 27  1  0  0  0  0
 22  2  1  0  0  0  0
 23 10  1  0  0  0  0
 25 27  1  0  0  0  0
 26  8  1  0  0  0  0
 27  1  1  0  0  0  0
 28 15  1  0  0  0  0
 28 23  1  0  0  0  0
 29 30  1  0  0  0  0
 30 23  1  0  0  0  0
 30 31  2  0  0  0  0
 33 34  2  0  0  0  0
 34 31  1  0  0  0  0
 34 32  1  0  0  0  0
 35 29  2  0  0  0  0
 35 33  1  0  0  0  0
 37 36  1  0  0  0  0
M  END
>  <MODEL>
3

>  <REMARK>
 VINA RESULT:      -8.2      2.830      5.705
  Name = 
  2 active torsions:
  status: ('A' for Active; 'I' for Inactive)
    1  A    between atoms: N_4  and  C_37
    2  A    between atoms: C_23  and  C_30
                            x       y       z     vdW  Elec       q    Type
                         _______ _______ _______ _____ _____    ______ ____

>  <TORSDO>
F 2

$$$$
=
 OpenBabel11112417183D

 37 43  0  0  1  0  0  0  0  0999 V2000
  190.0360  175.0090  145.3590 C   0  0  0  0  0  2  0  0  0  0  0  0
  185.7340  178.6100  143.6670 C   0  0  0  0  0  0  0  0  0  0  0  0
  187.7900  175.5420  141.5500 C   0  0  1  0  0  3  0  0  0  0  0  0
  190.9380  175.2150  146.5070 N   0  0  0  0  0  0  0  0  0  0  0  0
  191.0350  175.3720  141.8760 O   0  0  0  0  0  0  0  0  0  0  0  0
  186.7090  177.7200  141.4240 C   0  0  1  0  0  3  0  0  0  0  0  0
  188.7090  175.2050  142.4520 C   0  0  1  0  0  3  0  0  0  0  0  0
  192.6990  176.3840  145.1530 C   0  0  2  0  0  3  0  0  0  0  0  0
  186.7450  176.3980  142.1720 C   0  0  2  0  0  3  0  0  0  0  0  0
  190.0000  174.4810  142.1880 C   0  0  1  0  0  3  0  0  0  0  0  0
  186.3650  177.5390  139.9370 C   0  0  0  0  0  2  0  0  0  0  0  0
  191.8160  176.3890  146.4100 C   0  0  0  0  0  2  0  0  0  0  0  0
  187.3280  176.6560  143.5110 C   0  0  2  0  0  3  0  0  0  0  0  0
  184.4510  177.8760  144.0170 C   0  0  0  0  0  1  0  0  0  0  0  0
  188.2130  174.1250  139.5290 C   0  0  0  0  0  2  0  0  0  0  0  0
  186.7530  176.1530  139.3680 C   0  0  0  0  0  2  0  0  0  0  0  0
  186.9270  177.8670  144.3080 C   0  0  0  0  0  2  0  0  0  0  0  0
  191.9320  176.5450  143.8210 C   0  0  1  0  0  3  0  0  0  0  0  0
  191.9090  175.2670  142.9650 C   0  0  0  0  0  2  0  0  0  0  0  0
  187.9760  175.5280  140.0550 C   0  0  1  0  0  3  0  0  0  0  0  0
  188.4420  175.9530  143.6850 C   0  0  2  0  0  3  0  0  0  0  0  0
  185.8170  178.7540  142.1260 C   0  0  0  0  0  2  0  0  0  0  0  0
  189.8840  173.3020  141.2100 C   0  0  1  0  0  3  0  0  0  0  0  0
  185.6580  179.9960  144.2700 C   0  0  0  0  0  1  0  0  0  0  0  0
  190.5480  177.1880  144.0260 C   0  0  0  0  0  2  0  0  0  0  0  0
  193.5610  175.2820  145.1520 O   0  0  0  0  0  1  0  0  0  0  0  0
  189.4880  176.2940  144.7040 C   0  0  2  0  0  3  0  0  0  0  0  0
  189.6590  173.7190  139.7580 C   0  0  0  0  0  2  0  0  0  0  0  0
  191.8840  172.1550  140.2420 C   0  0  0  0  0  3  0  0  0  0  0  0
  191.0460  172.3670  141.3410 C   0  0  0  0  0  0  0  0  0  0  0  0
  191.2960  171.6660  142.5280 C   0  0  0  0  0  3  0  0  0  0  0  0
  192.6940  169.9010  144.0780 Cl  0  0  0  0  0  0  0  0  0  0  0  0
  193.1880  170.6040  141.4810 C   0  0  0  0  0  3  0  0  0  0  0  0
  192.3730  170.7820  142.6000 C   0  0  0  0  0  0  0  0  0  0  0  0
  192.9280  171.2890  140.3340 N   0  0  0  0  0  0  0  0  0  0  0  0
  188.9760  174.5470  147.6450 O   0  0  0  0  0  1  0  0  0  0  0  0
  190.1530  175.2990  147.7380 C   0  0  0  0  0  2  0  0  0  0  0  0
  1  4  1  0  0  0  0
  2 14  1  0  0  0  0
  2 24  1  0  0  0  0
  2 17  1  0  0  0  0
  3  9  1  0  0  0  0
  3  7  1  0  0  0  0
  4 37  1  0  0  0  0
  5 10  1  0  0  0  0
  5 19  1  0  0  0  0
  6 22  1  0  0  0  0
  6  9  1  0  0  0  0
  7 21  1  0  0  0  0
  8 12  1  0  0  0  0
  9 13  1  0  0  0  0
 10  7  1  0  0  0  0
 11  6  1  0  0  0  0
 12  4  1  0  0  0  0
 13 21  1  0  0  0  0
 13 17  1  0  0  0  0
 15 28  1  0  0  0  0
 15 20  1  0  0  0  0
 16 11  1  0  0  0  0
 16 20  1  0  0  0  0
 18 25  1  0  0  0  0
 18  8  1  0  0  0  0
 19 18  1  0  0  0  0
 20  3  1  0  0  0  0
 21 27  1  0  0  0  0
 22  2  1  0  0  0  0
 23 30  1  0  0  0  0
 23 10  1  0  0  0  0
 25 27  1  0  0  0  0
 26  8  1  0  0  0  0
 27  1  1  0  0  0  0
 28 23  1  0  0  0  0
 29 35  2  0  0  0  0
 29 30  1  0  0  0  0
 30 31  2  0  0  0  0
 31 34  1  0  0  0  0
 33 34  2  0  0  0  0
 34 32  1  0  0  0  0
 35 33  1  0  0  0  0
 36 37  1  0  0  0  0
M  END
>  <MODEL>
4

>  <REMARK>
 VINA RESULT:      -8.2      2.486      5.327
  Name = 
  2 active torsions:
  status: ('A' for Active; 'I' for Inactive)
    1  A    between atoms: N_4  and  C_37
    2  A    between atoms: C_23  and  C_30
                            x       y       z     vdW  Elec       q    Type
                         _______ _______ _______ _____ _____    ______ ____

>  <TORSDO>
F 2

$$$$
=
 OpenBabel11112417183D

 37 43  0  0  1  0  0  0  0  0999 V2000
  188.6520  174.2140  143.1380 C   0  0  0  0  0  2  0  0  0  0  0  0
  194.3960  173.0750  143.3640 C   0  0  0  0  0  0  0  0  0  0  0  0
  191.9050  175.3540  145.9570 C   0  0  1  0  0  3  0  0  0  0  0  0
  187.7920  174.1020  141.9460 N   0  0  0  0  0  0  0  0  0  0  0  0
  189.7260  177.3710  144.6000 O   0  0  0  0  0  0  0  0  0  0  0  0
  194.1110  175.1170  144.9520 C   0  0  1  0  0  3  0  0  0  0  0  0
  190.7590  175.3130  145.2830 C   0  0  1  0  0  3  0  0  0  0  0  0
  188.1060  176.4960  141.2620 C   0  0  2  0  0  3  0  0  0  0  0  0
  192.8680  174.3660  145.4010 C   0  0  2  0  0  3  0  0  0  0  0  0
  189.5960  176.2550  145.4350 C   0  0  1  0  0  3  0  0  0  0  0  0
  194.7950  175.8580  146.1130 C   0  0  0  0  0  2  0  0  0  0  0  0
  188.1240  175.0170  140.8460 C   0  0  0  0  0  2  0  0  0  0  0  0
  192.1560  173.9090  144.1820 C   0  0  2  0  0  3  0  0  0  0  0  0
  194.5070  171.7890  144.1660 C   0  0  0  0  0  1  0  0  0  0  0  0
  191.4940  176.7520  147.9940 C   0  0  0  0  0  2  0  0  0  0  0  0
  193.8340  176.2430  147.2620 C   0  0  0  0  0  2  0  0  0  0  0  0
  192.9100  173.3240  143.0200 C   0  0  0  0  0  2  0  0  0  0  0  0
  189.2160  176.9030  142.2580 C   0  0  1  0  0  3  0  0  0  0  0  0
  188.6900  177.2180  143.6690 C   0  0  0  0  0  2  0  0  0  0  0  0
  192.3930  176.5060  146.7980 C   0  0  1  0  0  3  0  0  0  0  0  0
  190.9350  174.4310  144.1250 C   0  0  2  0  0  3  0  0  0  0  0  0
  195.0730  174.2170  144.1630 C   0  0  0  0  0  2  0  0  0  0  0  0
  189.2460  176.6080  146.8890 C   0  0  1  0  0  3  0  0  0  0  0  0
  195.1570  172.8850  142.0700 C   0  0  0  0  0  1  0  0  0  0  0  0
  190.4020  175.9200  142.2340 C   0  0  0  0  0  2  0  0  0  0  0  0
  186.8300  176.8810  141.6860 O   0  0  0  0  0  1  0  0  0  0  0  0
  190.1360  174.5350  142.8610 C   0  0  2  0  0  3  0  0  0  0  0  0
  190.2590  177.5270  147.5670 C   0  0  0  0  0  2  0  0  0  0  0  0
  186.7890  176.4150  146.4600 C   0  0  0  0  0  3  0  0  0  0  0  0
  187.8530  177.1470  146.9980 C   0  0  0  0  0  0  0  0  0  0  0  0
  187.5890  178.3880  147.5920 C   0  0  0  0  0  3  0  0  0  0  0  0
  185.9400  180.4170  148.3880 Cl  0  0  0  0  0  0  0  0  0  0  0  0
  185.2470  178.1030  147.1040 C   0  0  0  0  0  3  0  0  0  0  0  0
  186.2800  178.8690  147.6480 C   0  0  0  0  0  0  0  0  0  0  0  0
  185.5210  176.9020  146.5260 N   0  0  0  0  0  0  0  0  0  0  0  0
  188.1910  172.6730  140.1050 O   0  0  0  0  0  1  0  0  0  0  0  0
  187.8160  172.7250  141.4520 C   0  0  0  0  0  2  0  0  0  0  0  0
  2 22  1  0  0  0  0
  2 14  1  0  0  0  0
  3 20  1  0  0  0  0
  4  1  1  0  0  0  0
  5 10  1  0  0  0  0
  6  9  1  0  0  0  0
  6 11  1  0  0  0  0
  7 10  1  0  0  0  0
  7  3  1  0  0  0  0
  8 26  1  0  0  0  0
  8 18  1  0  0  0  0
  9  3  1  0  0  0  0
 10 23  1  0  0  0  0
 11 16  1  0  0  0  0
 12  8  1  0  0  0  0
 12  4  1  0  0  0  0
 13  9  1  0  0  0  0
 17  2  1  0  0  0  0
 17 13  1  0  0  0  0
 18 19  1  0  0  0  0
 19  5  1  0  0  0  0
 20 16  1  0  0  0  0
 20 15  1  0  0  0  0
 21 13  1  0  0  0  0
 21  7  1  0  0  0  0
 22  6  1  0  0  0  0
 23 30  1  0  0  0  0
 23 28  1  0  0  0  0
 24  2  1  0  0  0  0
 25 18  1  0  0  0  0
 25 27  1  0  0  0  0
 27  1  1  0  0  0  0
 27 21  1  0  0  0  0
 28 15  1  0  0  0  0
 29 35  2  0  0  0  0
 29 30  1  0  0  0  0
 30 31  2  0  0  0  0
 31 34  1  0  0  0  0
 33 34  2  0  0  0  0
 34 32  1  0  0  0  0
 35 33  1  0  0  0  0
 36 37  1  0  0  0  0
 37  4  1  0  0  0  0
M  END
>  <MODEL>
5

>  <REMARK>
 VINA RESULT:      -8.0      3.388      6.867
  Name = 
  2 active torsions:
  status: ('A' for Active; 'I' for Inactive)
    1  A    between atoms: N_4  and  C_37
    2  A    between atoms: C_23  and  C_30
                            x       y       z     vdW  Elec       q    Type
                         _______ _______ _______ _____ _____    ______ ____

>  <TORSDO>
F 2

$$$$
=
 OpenBabel11112417183D

 37 43  0  0  1  0  0  0  0  0999 V2000
  191.5160  174.7170  145.9490 C   0  0  0  0  0  2  0  0  0  0  0  0
  187.0630  177.1160  142.9890 C   0  0  0  0  0  0  0  0  0  0  0  0
  189.4990  173.7400  142.1000 C   0  0  1  0  0  3  0  0  0  0  0  0
  192.3180  175.3780  146.9940 N   0  0  0  0  0  0  0  0  0  0  0  0
  192.7170  174.0070  142.5850 O   0  0  0  0  0  0  0  0  0  0  0  0
  188.2580  175.6370  141.2110 C   0  0  1  0  0  3  0  0  0  0  0  0
  190.3780  173.8120  143.0970 C   0  0  1  0  0  3  0  0  0  0  0  0
  194.0680  176.2020  145.3940 C   0  0  2  0  0  3  0  0  0  0  0  0
  188.3480  174.6460  142.3600 C   0  0  2  0  0  3  0  0  0  0  0  0
  191.7380  173.1720  143.1390 C   0  0  1  0  0  3  0  0  0  0  0  0
  188.0310  174.9420  139.8580 C   0  0  0  0  0  2  0  0  0  0  0  0
  193.1030  176.5350  146.5430 C   0  0  0  0  0  2  0  0  0  0  0  0
  188.8160  175.3880  143.5560 C   0  0  2  0  0  3  0  0  0  0  0  0
  185.8230  176.4170  143.5160 C   0  0  0  0  0  1  0  0  0  0  0  0
  190.1700  171.7840  140.6870 C   0  0  0  0  0  2  0  0  0  0  0  0
  188.5670  173.4920  139.8020 C   0  0  0  0  0  2  0  0  0  0  0  0
  188.2660  176.7480  143.8860 C   0  0  0  0  0  2  0  0  0  0  0  0
  193.3830  175.8380  144.0570 C   0  0  1  0  0  3  0  0  0  0  0  0
  193.5210  174.3540  143.6790 C   0  0  0  0  0  2  0  0  0  0  0  0
  189.7870  173.2520  140.7040 C   0  0  1  0  0  3  0  0  0  0  0  0
  189.9680  174.8940  143.9970 C   0  0  2  0  0  3  0  0  0  0  0  0
  187.2390  176.7510  141.4920 C   0  0  0  0  0  2  0  0  0  0  0  0
  191.7830  171.7310  142.6080 C   0  0  1  0  0  3  0  0  0  0  0  0
  186.8360  178.6090  143.0890 C   0  0  0  0  0  1  0  0  0  0  0  0
  191.9400  176.3740  143.9830 C   0  0  0  0  0  2  0  0  0  0  0  0
  195.0130  175.2520  145.7950 O   0  0  0  0  0  1  0  0  0  0  0  0
  190.9120  175.6540  144.8810 C   0  0  2  0  0  3  0  0  0  0  0  0
  191.6250  171.6200  141.0940 C   0  0  0  0  0  2  0  0  0  0  0  0
  193.9730  170.6060  142.1620 C   0  0  0  0  0  3  0  0  0  0  0  0
  193.0060  171.0110  143.0880 C   0  0  0  0  0  0  0  0  0  0  0  0
  193.1900  170.6940  144.4410 C   0  0  0  0  0  3  0  0  0  0  0  0
  194.5680  169.5970  146.5300 Cl  0  0  0  0  0  0  0  0  0  0  0  0
  195.2720  169.6170  143.8870 C   0  0  0  0  0  3  0  0  0  0  0  0
  194.3290  169.9960  144.8440 C   0  0  0  0  0  0  0  0  0  0  0  0
  195.0760  169.9270  142.5760 N   0  0  0  0  0  0  0  0  0  0  0  0
  191.5660  177.1550  148.3600 O   0  0  0  0  0  1  0  0  0  0  0  0
  191.4470  175.7860  148.0960 C   0  0  0  0  0  2  0  0  0  0  0  0
  1  4  1  0  0  0  0
  2 24  1  0  0  0  0
  2 14  1  0  0  0  0
  2 17  1  0  0  0  0
  3  9  1  0  0  0  0
  3  7  1  0  0  0  0
  4 37  1  0  0  0  0
  5 10  1  0  0  0  0
  5 19  1  0  0  0  0
  6 22  1  0  0  0  0
  6  9  1  0  0  0  0
  7 10  1  0  0  0  0
  7 21  1  0  0  0  0
  8 26  1  0  0  0  0
  8 12  1  0  0  0  0
  9 13  1  0  0  0  0
 11  6  1  0  0  0  0
 12  4  1  0  0  0  0
 13 17  1  0  0  0  0
 13 21  1  0  0  0  0
 15 20  1  0  0  0  0
 15 28  1  0  0  0  0
 16 11  1  0  0  0  0
 16 20  1  0  0  0  0
 18  8  1  0  0  0  0
 19 18  1  0  0  0  0
 20  3  1  0  0  0  0
 21 27  1  0  0  0  0
 22  2  1  0  0  0  0
 23 30  1  0  0  0  0
 23 10  1  0  0  0  0
 25 18  1  0  0  0  0
 25 27  1  0  0  0  0
 27  1  1  0  0  0  0
 28 23  1  0  0  0  0
 29 35  2  0  0  0  0
 29 30  1  0  0  0  0
 30 31  2  0  0  0  0
 31 34  1  0  0  0  0
 33 34  2  0  0  0  0
 34 32  1  0  0  0  0
 35 33  1  0  0  0  0
 37 36  1  0  0  0  0
M  END
>  <MODEL>
6

>  <REMARK>
 VINA RESULT:      -7.8      2.261      5.132
  Name = 
  2 active torsions:
  status: ('A' for Active; 'I' for Inactive)
    1  A    between atoms: N_4  and  C_37
    2  A    between atoms: C_23  and  C_30
                            x       y       z     vdW  Elec       q    Type
                         _______ _______ _______ _____ _____    ______ ____

>  <TORSDO>
F 2

$$$$
=
 OpenBabel11112417183D

 37 43  0  0  1  0  0  0  0  0999 V2000
  190.8650  174.1430  141.0270 C   0  0  0  0  0  2  0  0  0  0  0  0
  189.6060  176.0130  146.4360 C   0  0  0  0  0  0  0  0  0  0  0  0
  193.2330  176.1630  144.2120 C   0  0  1  0  0  3  0  0  0  0  0  0
  190.0990  173.1490  140.2530 N   0  0  0  0  0  0  0  0  0  0  0  0
  194.1130  173.4990  142.5420 O   0  0  0  0  0  0  0  0  0  0  0  0
  192.2070  175.9200  146.4080 C   0  0  1  0  0  3  0  0  0  0  0  0
  192.8780  175.4730  143.1310 C   0  0  1  0  0  3  0  0  0  0  0  0
  191.4660  171.2000  141.0460 C   0  0  2  0  0  3  0  0  0  0  0  0
  192.0330  176.5130  145.0190 C   0  0  2  0  0  3  0  0  0  0  0  0
  193.8030  174.8070  142.1500 C   0  0  1  0  0  3  0  0  0  0  0  0
  193.4500  176.4700  147.1250 C   0  0  0  0  0  2  0  0  0  0  0  0
  190.0680  171.7970  140.8270 C   0  0  0  0  0  2  0  0  0  0  0  0
  190.9730  175.7380  144.3300 C   0  0  2  0  0  3  0  0  0  0  0  0
  189.1240  177.4410  146.2530 C   0  0  0  0  0  1  0  0  0  0  0  0
  195.6390  176.7910  143.9080 C   0  0  0  0  0  2  0  0  0  0  0  0
  194.5660  176.9480  146.1660 C   0  0  0  0  0  2  0  0  0  0  0  0
  189.7150  175.3390  145.0510 C   0  0  0  0  0  2  0  0  0  0  0  0
  192.3100  171.9040  142.1330 C   0  0  1  0  0  3  0  0  0  0  0  0
  193.4980  172.7010  141.5690 C   0  0  0  0  0  2  0  0  0  0  0  0
  194.6050  176.1810  144.8360 C   0  0  1  0  0  3  0  0  0  0  0  0
  191.4490  175.1610  143.2310 C   0  0  2  0  0  3  0  0  0  0  0  0
  190.9270  176.0370  147.2470 C   0  0  0  0  0  2  0  0  0  0  0  0
  195.0320  175.6430  141.7610 C   0  0  1  0  0  3  0  0  0  0  0  0
  188.5660  175.2690  147.2460 C   0  0  0  0  0  1  0  0  0  0  0  0
  191.4330  172.6980  143.1200 C   0  0  0  0  0  2  0  0  0  0  0  0
  192.1480  171.0660  139.8320 O   0  0  0  0  0  1  0  0  0  0  0  0
  190.7970  173.9890  142.5610 C   0  0  2  0  0  3  0  0  0  0  0  0
  196.0740  175.7700  142.8700 C   0  0  0  0  0  2  0  0  0  0  0  0
  196.9180  174.5810  140.5090 C   0  0  0  0  0  3  0  0  0  0  0  0
  195.6430  175.1540  140.4840 C   0  0  0  0  0  0  0  0  0  0  0  0
  194.9850  175.2900  139.2540 C   0  0  0  0  0  3  0  0  0  0  0  0
  194.7890  175.0130  136.5430 Cl  0  0  0  0  0  0  0  0  0  0  0  0
  196.8730  174.2760  138.1540 C   0  0  0  0  0  3  0  0  0  0  0  0
  195.6010  174.8470  138.0830 C   0  0  0  0  0  0  0  0  0  0  0  0
  197.5000  174.1560  139.3560 N   0  0  0  0  0  0  0  0  0  0  0  0
  187.9480  172.6810  139.3890 O   0  0  0  0  0  1  0  0  0  0  0  0
  188.7290  173.6260  140.0650 C   0  0  0  0  0  2  0  0  0  0  0  0
  1 27  1  0  0  0  0
  2 24  1  0  0  0  0
  2 22  1  0  0  0  0
  3 20  1  0  0  0  0
  3  9  1  0  0  0  0
  4 12  1  0  0  0  0
  4  1  1  0  0  0  0
  6 11  1  0  0  0  0
  6 22  1  0  0  0  0
  7 21  1  0  0  0  0
  7  3  1  0  0  0  0
  8 18  1  0  0  0  0
  9  6  1  0  0  0  0
 10  5  1  0  0  0  0
 10  7  1  0  0  0  0
 12  8  1  0  0  0  0
 13  9  1  0  0  0  0
 13 17  1  0  0  0  0
 14  2  1  0  0  0  0
 15 20  1  0  0  0  0
 16 11  1  0  0  0  0
 17  2  1  0  0  0  0
 18 25  1  0  0  0  0
 19 18  1  0  0  0  0
 19  5  1  0  0  0  0
 20 16  1  0  0  0  0
 21 13  1  0  0  0  0
 23 10  1  0  0  0  0
 23 28  1  0  0  0  0
 26  8  1  0  0  0  0
 27 25  1  0  0  0  0
 27 21  1  0  0  0  0
 28 15  1  0  0  0  0
 30 29  1  0  0  0  0
 30 23  1  0  0  0  0
 31 30  2  0  0  0  0
 32 34  1  0  0  0  0
 33 35  1  0  0  0  0
 34 33  2  0  0  0  0
 34 31  1  0  0  0  0
 35 29  2  0  0  0  0
 36 37  1  0  0  0  0
 37  4  1  0  0  0  0
M  END
>  <MODEL>
7

>  <REMARK>
 VINA RESULT:      -7.7      2.922      4.082
  Name = 
  2 active torsions:
  status: ('A' for Active; 'I' for Inactive)
    1  A    between atoms: N_4  and  C_37
    2  A    between atoms: C_23  and  C_30
                            x       y       z     vdW  Elec       q    Type
                         _______ _______ _______ _____ _____    ______ ____

>  <TORSDO>
F 2

$$$$
=
 OpenBabel11112417183D

 37 43  0  0  1  0  0  0  0  0999 V2000
  191.6330  173.0930  140.6640 C   0  0  0  0  0  2  0  0  0  0  0  0
  187.6730  176.5930  143.1970 C   0  0  0  0  0  0  0  0  0  0  0  0
  191.5830  175.4560  144.4390 C   0  0  1  0  0  3  0  0  0  0  0  0
  191.3580  172.0790  139.6300 N   0  0  0  0  0  0  0  0  0  0  0  0
  192.4320  172.3180  144.1320 O   0  0  0  0  0  0  0  0  0  0  0  0
  189.3180  176.0240  145.1320 C   0  0  1  0  0  3  0  0  0  0  0  0
  191.8840  174.5680  143.4940 C   0  0  1  0  0  3  0  0  0  0  0  0
  191.0340  170.2130  141.2770 C   0  0  2  0  0  3  0  0  0  0  0  0
  190.3710  176.2290  144.0550 C   0  0  2  0  0  3  0  0  0  0  0  0
  192.9380  173.4990  143.5740 C   0  0  1  0  0  3  0  0  0  0  0  0
  189.7900  176.5180  146.5090 C   0  0  0  0  0  2  0  0  0  0  0  0
  190.4930  170.9700  140.0540 C   0  0  0  0  0  2  0  0  0  0  0  0
  189.9220  175.4980  142.8450 C   0  0  2  0  0  3  0  0  0  0  0  0
  187.9640  177.9760  142.6410 C   0  0  0  0  0  1  0  0  0  0  0  0
  193.5320  175.5260  146.0100 C   0  0  0  0  0  2  0  0  0  0  0  0
  191.3270  176.4980  146.6880 C   0  0  0  0  0  2  0  0  0  0  0  0
  188.4870  175.5510  142.3980 C   0  0  0  0  0  2  0  0  0  0  0  0
  191.0450  171.0280  142.5900 C   0  0  1  0  0  3  0  0  0  0  0  0
  192.4570  171.4060  143.0680 C   0  0  0  0  0  2  0  0  0  0  0  0
  192.0270  175.3970  145.8780 C   0  0  1  0  0  3  0  0  0  0  0  0
  190.8020  174.5610  142.5050 C   0  0  2  0  0  3  0  0  0  0  0  0
  187.9560  176.6020  144.7210 C   0  0  0  0  0  2  0  0  0  0  0  0
  194.2670  173.9550  144.1950 C   0  0  1  0  0  3  0  0  0  0  0  0
  186.2020  176.3060  142.9890 C   0  0  0  0  0  1  0  0  0  0  0  0
  190.0590  172.2110  142.5440 C   0  0  0  0  0  2  0  0  0  0  0  0
  192.2710  169.6250  140.9930 O   0  0  0  0  0  1  0  0  0  0  0  0
  190.4680  173.3870  141.6330 C   0  0  2  0  0  3  0  0  0  0  0  0
  194.1980  174.1950  145.7020 C   0  0  0  0  0  2  0  0  0  0  0  0
  195.8430  172.9830  142.5150 C   0  0  0  0  0  3  0  0  0  0  0  0
  195.3850  173.0270  143.8350 C   0  0  0  0  0  0  0  0  0  0  0  0
  195.9610  172.1680  144.7810 C   0  0  0  0  0  3  0  0  0  0  0  0
  197.7080  170.2200  145.5710 Cl  0  0  0  0  0  0  0  0  0  0  0  0
  197.4130  171.2890  143.0710 C   0  0  0  0  0  3  0  0  0  0  0  0
  196.9820  171.2960  144.3990 C   0  0  0  0  0  0  0  0  0  0  0  0
  196.8390  172.1260  142.1640 N   0  0  0  0  0  0  0  0  0  0  0  0
  189.4170  172.4100  138.3210 O   0  0  0  0  0  1  0  0  0  0  0  0
  190.7740  172.7250  138.4540 C   0  0  0  0  0  2  0  0  0  0  0  0
  1 27  1  0  0  0  0
  2 22  1  0  0  0  0
  3 20  1  0  0  0  0
  4 12  1  0  0  0  0
  4  1  1  0  0  0  0
  6 11  1  0  0  0  0
  7 10  1  0  0  0  0
  7  3  1  0  0  0  0
  8 18  1  0  0  0  0
  9  3  1  0  0  0  0
  9  6  1  0  0  0  0
 10  5  1  0  0  0  0
 10 23  1  0  0  0  0
 11 16  1  0  0  0  0
 12  8  1  0  0  0  0
 13  9  1  0  0  0  0
 14  2  1  0  0  0  0
 17 13  1  0  0  0  0
 17  2  1  0  0  0  0
 18 19  1  0  0  0  0
 19  5  1  0  0  0  0
 20 15  1  0  0  0  0
 20 16  1  0  0  0  0
 21 13  1  0  0  0  0
 21  7  1  0  0  0  0
 22  6  1  0  0  0  0
 23 28  1  0  0  0  0
 24  2  1  0  0  0  0
 25 18  1  0  0  0  0
 26  8  1  0  0  0  0
 27 21  1  0  0  0  0
 27 25  1  0  0  0  0
 28 15  1  0  0  0  0
 29 30  1  0  0  0  0
 30 23  1  0  0  0  0
 30 31  2  0  0  0  0
 33 34  2  0  0  0  0
 34 31  1  0  0  0  0
 34 32  1  0  0  0  0
 35 29  2  0  0  0  0
 35 33  1  0  0  0  0
 36 37  1  0  0  0  0
 37  4  1  0  0  0  0
M  END
>  <MODEL>
8

>  <REMARK>
 VINA RESULT:      -7.5      1.100      1.342
  Name = 
  2 active torsions:
  status: ('A' for Active; 'I' for Inactive)
    1  A    between atoms: N_4  and  C_37
    2  A    between atoms: C_23  and  C_30
                            x       y       z     vdW  Elec       q    Type
                         _______ _______ _______ _____ _____    ______ ____

>  <TORSDO>
F 2

$$$$
=
 OpenBabel11112417183D

 37 43  0  0  1  0  0  0  0  0999 V2000
  191.8390  174.9970  145.6480 C   0  0  0  0  0  2  0  0  0  0  0  0
  187.3000  176.9890  142.5210 C   0  0  0  0  0  0  0  0  0  0  0  0
  189.7230  173.5250  142.0150 C   0  0  1  0  0  3  0  0  0  0  0  0
  192.6670  175.7880  146.5760 N   0  0  0  0  0  0  0  0  0  0  0  0
  192.9520  173.8540  142.3740 O   0  0  0  0  0  0  0  0  0  0  0  0
  188.4520  175.2910  140.9200 C   0  0  1  0  0  3  0  0  0  0  0  0
  190.6290  173.7270  142.9690 C   0  0  1  0  0  3  0  0  0  0  0  0
  194.3700  176.3960  144.8350 C   0  0  2  0  0  3  0  0  0  0  0  0
  188.5760  174.4580  142.1850 C   0  0  2  0  0  3  0  0  0  0  0  0
  191.9910  173.0980  143.0580 C   0  0  1  0  0  3  0  0  0  0  0  0
  188.1910  174.4260  139.6760 C   0  0  0  0  0  2  0  0  0  0  0  0
  193.4350  176.8760  145.9560 C   0  0  0  0  0  2  0  0  0  0  0  0
  189.0730  175.3490  143.2610 C   0  0  2  0  0  3  0  0  0  0  0  0
  186.0760  176.3640  143.1680 C   0  0  0  0  0  1  0  0  0  0  0  0
  190.3630  171.4020  140.8510 C   0  0  0  0  0  2  0  0  0  0  0  0
  188.7310  172.9800  139.7950 C   0  0  0  0  0  2  0  0  0  0  0  0
  188.5270  176.7410  143.4260 C   0  0  0  0  0  2  0  0  0  0  0  0
  193.6500  175.8610  143.5760 C   0  0  1  0  0  3  0  0  0  0  0  0
  193.7840  174.3400  143.3910 C   0  0  0  0  0  2  0  0  0  0  0  0
  189.9750  172.8600  140.6870 C   0  0  1  0  0  3  0  0  0  0  0  0
  190.2390  174.9170  143.7310 C   0  0  2  0  0  3  0  0  0  0  0  0
  187.4370  176.4320  141.0810 C   0  0  0  0  0  2  0  0  0  0  0  0
  192.0280  171.6000  142.7190 C   0  0  1  0  0  3  0  0  0  0  0  0
  187.0700  178.4820  142.4320 C   0  0  0  0  0  1  0  0  0  0  0  0
  192.2050  176.3830  143.4720 C   0  0  0  0  0  2  0  0  0  0  0  0
  195.3290  175.5070  145.3310 O   0  0  0  0  0  1  0  0  0  0  0  0
  191.2030  175.7860  144.4830 C   0  0  2  0  0  3  0  0  0  0  0  0
  191.8290  171.2930  141.2360 C   0  0  0  0  0  2  0  0  0  0  0  0
  193.4230  170.8080  144.6380 C   0  0  0  0  0  3  0  0  0  0  0  0
  193.2650  170.9490  143.2550 C   0  0  0  0  0  0  0  0  0  0  0  0
  194.2920  170.5100  142.4090 C   0  0  0  0  0  3  0  0  0  0  0  0
  196.7290  169.3840  141.9020 Cl  0  0  0  0  0  0  0  0  0  0  0  0
  195.5560  169.8090  144.3350 C   0  0  0  0  0  3  0  0  0  0  0  0
  195.4420  169.9350  142.9500 C   0  0  0  0  0  0  0  0  0  0  0  0
  194.5520  170.2450  145.1440 N   0  0  0  0  0  0  0  0  0  0  0  0
  190.8230  175.4320  148.0130 O   0  0  0  0  0  1  0  0  0  0  0  0
  191.8230  176.3360  147.6380 C   0  0  0  0  0  2  0  0  0  0  0  0
  1  4  1  0  0  0  0
  2 14  1  0  0  0  0
  2 17  1  0  0  0  0
  3  9  1  0  0  0  0
  3  7  1  0  0  0  0
  4 37  1  0  0  0  0
  5 10  1  0  0  0  0
  5 19  1  0  0  0  0
  6 22  1  0  0  0  0
  6  9  1  0  0  0  0
  7 10  1  0  0  0  0
  7 21  1  0  0  0  0
  8 26  1  0  0  0  0
  8 12  1  0  0  0  0
  9 13  1  0  0  0  0
 11 16  1  0  0  0  0
 11  6  1  0  0  0  0
 12  4  1  0  0  0  0
 13 17  1  0  0  0  0
 13 21  1  0  0  0  0
 15 28  1  0  0  0  0
 16 20  1  0  0  0  0
 18  8  1  0  0  0  0
 19 18  1  0  0  0  0
 20 15  1  0  0  0  0
 20  3  1  0  0  0  0
 21 27  1  0  0  0  0
 22  2  1  0  0  0  0
 23 10  1  0  0  0  0
 23 30  1  0  0  0  0
 24  2  1  0  0  0  0
 25 18  1  0  0  0  0
 25 27  1  0  0  0  0
 27  1  1  0  0  0  0
 28 23  1  0  0  0  0
 29 35  1  0  0  0  0
 30 29  2  0  0  0  0
 31 34  2  0  0  0  0
 31 30  1  0  0  0  0
 32 34  1  0  0  0  0
 33 35  2  0  0  0  0
 34 33  1  0  0  0  0
 37 36  1  0  0  0  0
M  END
>  <MODEL>
9

>  <REMARK>
 VINA RESULT:      -7.4      2.432      5.199
  Name = 
  2 active torsions:
  status: ('A' for Active; 'I' for Inactive)
    1  A    between atoms: N_4  and  C_37
    2  A    between atoms: C_23  and  C_30
                            x       y       z     vdW  Elec       q    Type
                         _______ _______ _______ _____ _____    ______ ____

>  <TORSDO>
F 2

$$$$
