=
 OpenBabel11112418043D

 34 40  0  0  1  0  0  0  0  0999 V2000
  189.4480  174.8400  142.5800 C   0  0  0  0  0  0  0  0  0  0  0  0
  191.8480  174.3040  142.1780 C   0  0  0  0  0  2  0  0  0  0  0  0
  184.9320  178.1130  146.0810 C   0  0  1  0  0  3  0  0  0  0  0  0
  187.5230  176.2160  143.0450 C   0  0  0  0  0  0  0  0  0  0  0  0
  186.9810  176.6880  145.4650 C   0  0  2  0  0  3  0  0  0  0  0  0
  186.3350  177.0500  147.7310 O   0  0  0  0  0  1  0  0  0  0  0  0
  184.2260  178.5320  147.2100 O   0  0  0  0  0  1  0  0  0  0  0  0
  185.4280  178.8190  143.7090 C   0  0  0  0  0  2  0  0  0  0  0  0
  191.1140  174.2200  144.4620 C   0  0  2  0  0  3  0  0  0  0  0  0
  193.2760  175.3710  146.4810 C   0  0  0  0  0  2  0  0  0  0  0  0
  188.4300  176.6720  145.6570 N   0  0  0  0  0  2  0  0  0  0  0  0
  186.7510  178.3630  143.7280 O   0  0  0  0  0  0  0  0  0  0  0  0
  190.4880  175.4280  145.2030 C   0  0  1  0  0  3  0  0  0  0  0  0
  192.9910  173.8970  143.0740 C   0  0  0  0  0  2  0  0  0  0  0  0
  186.6480  176.9920  143.9900 C   0  0  1  0  0  3  0  0  0  0  0  0
  185.0030  179.2800  145.1000 C   0  0  0  0  0  2  0  0  0  0  0  0
  193.2680  175.3730  144.9560 C   0  0  2  0  0  3  0  0  0  0  0  0
  188.6680  175.5450  143.5070 C   0  0  0  0  0  0  0  0  0  0  0  0
  186.3480  177.6600  146.4730 C   0  0  2  0  0  3  0  0  0  0  0  0
  188.9790  175.4950  144.9800 C   0  0  2  0  0  3  0  0  0  0  0  0
  187.9860  175.5070  140.8380 C   0  0  0  0  0  3  0  0  0  0  0  0
  192.0480  176.0740  147.0350 C   0  0  0  0  0  2  0  0  0  0  0  0
  187.2160  176.1910  141.7220 N   0  0  0  0  0  0  0  0  0  0  0  0
  190.7770  175.3170  146.6940 C   0  0  0  0  0  2  0  0  0  0  0  0
  192.6000  174.1500  144.4650 N   0  0  1  0  0  0  0  0  0  0  0  0
  189.0840  174.8340  141.2690 N   0  0  0  0  0  0  0  0  0  0  0  0
  190.6370  174.0260  143.0170 C   0  0  1  0  0  3  0  0  0  0  0  0
  194.5980  175.4350  144.5190 O   0  0  0  0  0  0  0  0  0  0  0  0
  195.3630  175.1390  145.6520 C   0  0  0  0  0  2  0  0  0  0  0  0
  197.0720  172.0910  145.5360 C   0  0  0  0  0  2  0  0  0  0  0  0
  196.3780  173.6530  144.0020 N   0  0  0  0  0  2  0  0  0  0  0  0
  196.6150  174.3800  145.2470 C   0  0  2  0  0  3  0  0  0  0  0  0
  196.3090  172.2820  144.3160 N   0  0  0  0  0  2  0  0  0  0  0  0
  196.9570  173.3710  146.3070 C   0  0  0  0  0  2  0  0  0  0  0  0
  1 27  1  0  0  0  0
  1 18  1  0  0  0  0
  2 27  1  0  0  0  0
  2 14  1  0  0  0  0
  3 19  1  0  0  0  0
  3  7  1  1  0  0  0
  4 18  2  0  0  0  0
  4 15  1  0  0  0  0
  5 11  1  6  0  0  0
  5 19  1  0  0  0  0
  8 12  1  0  0  0  0
  8 16  1  0  0  0  0
  9 25  1  0  0  0  0
  9 13  1  0  0  0  0
 10 22  1  0  0  0  0
 12 15  1  0  0  0  0
 13 24  1  0  0  0  0
 14 25  1  0  0  0  0
 15  5  1  0  0  0  0
 16  3  1  0  0  0  0
 17 10  1  0  0  0  0
 18 20  1  0  0  0  0
 19  6  1  0  0  0  0
 20 13  1  0  0  0  0
 20 11  1  0  0  0  0
 21 26  1  0  0  0  0
 21 23  2  0  0  0  0
 23  4  1  0  0  0  0
 24 22  1  0  0  0  0
 25 17  1  0  0  0  0
 26  1  2  0  0  0  0
 27  9  1  0  0  0  0
 28 17  1  0  0  0  0
 28 29  1  0  0  0  0
 30 34  1  0  0  0  0
 31 33  1  0  0  0  0
 31 32  1  0  0  0  0
 32 29  1  0  0  0  0
 32 34  1  0  0  0  0
 33 30  1  0  0  0  0
M  END
>  <MODEL>
1

>  <REMARK>
 VINA RESULT:      -8.8      0.000      0.000
  Name = 
  3 active torsions:
  status: ('A' for Active; 'I' for Inactive)
    1  A    between atoms: C_17  and  O_28
    2  A    between atoms: O_28  and  C_29
    3  A    between atoms: C_29  and  C_32
                            x       y       z     vdW  Elec       q    Type
                         _______ _______ _______ _____ _____    ______ ____

>  <TORSDO>
F 3

$$$$
=
 OpenBabel11112418043D

 34 40  0  0  1  0  0  0  0  0999 V2000
  189.6280  174.4720  142.6850 C   0  0  0  0  0  0  0  0  0  0  0  0
  192.0250  173.7940  142.6630 C   0  0  0  0  0  2  0  0  0  0  0  0
  184.9260  178.4130  145.0790 C   0  0  1  0  0  3  0  0  0  0  0  0
  187.7400  175.9730  142.7000 C   0  0  0  0  0  0  0  0  0  0  0  0
  186.9520  176.8360  144.9380 C   0  0  2  0  0  3  0  0  0  0  0  0
  186.0710  177.5710  147.0280 O   0  0  0  0  0  1  0  0  0  0  0  0
  184.1190  179.0280  146.0380 O   0  0  0  0  0  1  0  0  0  0  0  0
  185.7270  178.7210  142.7060 C   0  0  0  0  0  2  0  0  0  0  0  0
  191.0320  174.0940  144.8280 C   0  0  2  0  0  3  0  0  0  0  0  0
  193.0080  175.4680  146.8970 C   0  0  0  0  0  2  0  0  0  0  0  0
  188.3660  176.7980  145.3050 N   0  0  0  0  0  2  0  0  0  0  0  0
  187.0130  178.2260  142.9530 O   0  0  0  0  0  0  0  0  0  0  0  0
  190.3920  175.4250  145.2970 C   0  0  1  0  0  3  0  0  0  0  0  0
  193.0340  173.4910  143.7420 C   0  0  0  0  0  2  0  0  0  0  0  0
  186.8070  176.9180  143.4050 C   0  0  1  0  0  3  0  0  0  0  0  0
  185.1720  179.4090  143.9490 C   0  0  0  0  0  2  0  0  0  0  0  0
  193.1750  175.2320  145.4000 C   0  0  2  0  0  3  0  0  0  0  0  0
  188.7870  175.3420  143.3940 C   0  0  0  0  0  0  0  0  0  0  0  0
  186.2610  177.9750  145.7040 C   0  0  2  0  0  3  0  0  0  0  0  0
  188.9240  175.5110  144.8850 C   0  0  2  0  0  3  0  0  0  0  0  0
  188.4130  174.9120  140.6980 C   0  0  0  0  0  3  0  0  0  0  0  0
  191.7650  176.2920  147.1860 C   0  0  0  0  0  2  0  0  0  0  0  0
  187.5850  175.7530  141.3690 N   0  0  0  0  0  0  0  0  0  0  0  0
  190.5020  175.5380  146.8110 C   0  0  0  0  0  2  0  0  0  0  0  0
  192.5020  173.9720  145.0210 N   0  0  1  0  0  0  0  0  0  0  0  0
  189.4170  174.2750  141.3560 N   0  0  0  0  0  0  0  0  0  0  0  0
  190.7130  173.6940  143.3810 C   0  0  1  0  0  3  0  0  0  0  0  0
  194.5480  175.1770  145.1240 O   0  0  0  0  0  0  0  0  0  0  0  0
  194.8830  176.4690  144.7080 C   0  0  0  0  0  2  0  0  0  0  0  0
  196.8650  174.5210  142.5870 C   0  0  0  0  0  2  0  0  0  0  0  0
  195.4820  176.3390  142.3450 N   0  0  0  0  0  2  0  0  0  0  0  0
  196.0190  176.4110  143.7020 C   0  0  2  0  0  3  0  0  0  0  0  0
  195.7170  175.0360  141.8630 N   0  0  0  0  0  2  0  0  0  0  0  0
  196.8370  175.1720  143.9360 C   0  0  0  0  0  2  0  0  0  0  0  0
  1 27  1  0  0  0  0
  1 18  1  0  0  0  0
  2 27  1  0  0  0  0
  2 14  1  0  0  0  0
  3 19  1  0  0  0  0
  3  7  1  1  0  0  0
  4 18  2  0  0  0  0
  4 15  1  0  0  0  0
  5 11  1  6  0  0  0
  5 19  1  0  0  0  0
  8 12  1  0  0  0  0
  8 16  1  0  0  0  0
  9 25  1  0  0  0  0
  9 13  1  0  0  0  0
 10 22  1  0  0  0  0
 12 15  1  0  0  0  0
 13 24  1  0  0  0  0
 14 25  1  0  0  0  0
 15  5  1  0  0  0  0
 16  3  1  0  0  0  0
 17 10  1  0  0  0  0
 18 20  1  0  0  0  0
 19  6  1  0  0  0  0
 20 13  1  0  0  0  0
 20 11  1  0  0  0  0
 21 26  1  0  0  0  0
 21 23  2  0  0  0  0
 23  4  1  0  0  0  0
 24 22  1  0  0  0  0
 25 17  1  0  0  0  0
 26  1  2  0  0  0  0
 27  9  1  0  0  0  0
 28 17  1  0  0  0  0
 29 28  1  0  0  0  0
 30 34  1  0  0  0  0
 31 32  1  0  0  0  0
 32 34  1  0  0  0  0
 32 29  1  0  0  0  0
 33 31  1  0  0  0  0
 33 30  1  0  0  0  0
M  END
>  <MODEL>
2

>  <REMARK>
 VINA RESULT:      -8.6      1.319      1.448
  Name = 
  3 active torsions:
  status: ('A' for Active; 'I' for Inactive)
    1  A    between atoms: C_17  and  O_28
    2  A    between atoms: O_28  and  C_29
    3  A    between atoms: C_29  and  C_32
                            x       y       z     vdW  Elec       q    Type
                         _______ _______ _______ _____ _____    ______ ____

>  <TORSDO>
F 3

$$$$
=
 OpenBabel11112418043D

 34 40  0  0  1  0  0  0  0  0999 V2000
  190.6130  174.1010  142.6450 C   0  0  0  0  0  0  0  0  0  0  0  0
  193.0250  173.5530  142.3430 C   0  0  0  0  0  2  0  0  0  0  0  0
  186.0300  177.9860  145.3410 C   0  0  1  0  0  3  0  0  0  0  0  0
  188.6500  175.4930  142.8010 C   0  0  0  0  0  0  0  0  0  0  0  0
  188.1170  176.5130  145.0480 C   0  0  2  0  0  3  0  0  0  0  0  0
  187.4800  177.3870  147.1730 O   0  0  0  0  0  1  0  0  0  0  0  0
  185.3220  178.6410  146.3500 O   0  0  0  0  0  1  0  0  0  0  0  0
  186.4810  178.1200  142.8620 C   0  0  0  0  0  2  0  0  0  0  0  0
  192.3160  173.9950  144.5930 C   0  0  2  0  0  3  0  0  0  0  0  0
  194.4580  175.6540  146.2440 C   0  0  0  0  0  2  0  0  0  0  0  0
  189.5670  176.5840  145.2150 N   0  0  0  0  0  2  0  0  0  0  0  0
  187.8180  177.7180  142.9670 O   0  0  0  0  0  0  0  0  0  0  0  0
  191.6590  175.3260  145.0360 C   0  0  1  0  0  3  0  0  0  0  0  0
  194.1880  173.4030  143.2910 C   0  0  0  0  0  2  0  0  0  0  0  0
  187.7610  176.4470  143.5490 C   0  0  1  0  0  3  0  0  0  0  0  0
  186.0550  178.8870  144.1090 C   0  0  0  0  0  2  0  0  0  0  0  0
  194.4370  175.2930  144.7640 C   0  0  2  0  0  3  0  0  0  0  0  0
  189.8200  174.9850  143.3910 C   0  0  0  0  0  0  0  0  0  0  0  0
  187.4620  177.6790  145.8060 C   0  0  2  0  0  3  0  0  0  0  0  0
  190.1460  175.2960  144.8290 C   0  0  2  0  0  3  0  0  0  0  0  0
  189.1150  174.2930  140.8190 C   0  0  0  0  0  3  0  0  0  0  0  0
  193.2150  176.4340  146.6350 C   0  0  0  0  0  2  0  0  0  0  0  0
  188.3320  175.1450  141.5270 N   0  0  0  0  0  0  0  0  0  0  0  0
  191.9650  175.5820  146.5050 C   0  0  0  0  0  2  0  0  0  0  0  0
  193.8030  173.9690  144.5880 N   0  0  1  0  0  0  0  0  0  0  0  0
  190.2380  173.7720  141.3800 N   0  0  0  0  0  0  0  0  0  0  0  0
  191.8310  173.4480  143.2440 C   0  0  1  0  0  3  0  0  0  0  0  0
  195.7600  175.2860  144.3030 O   0  0  0  0  0  0  0  0  0  0  0  0
  195.9960  176.5930  143.8650 C   0  0  0  0  0  2  0  0  0  0  0  0
  196.9980  174.8010  141.0350 C   0  0  0  0  0  2  0  0  0  0  0  0
  195.8940  176.7750  141.4330 N   0  0  0  0  0  2  0  0  0  0  0  0
  196.7880  176.5710  142.5700 C   0  0  2  0  0  3  0  0  0  0  0  0
  195.7870  175.5480  140.7500 N   0  0  0  0  0  2  0  0  0  0  0  0
  197.4410  175.2280  142.4010 C   0  0  0  0  0  2  0  0  0  0  0  0
  1 27  1  0  0  0  0
  1 18  1  0  0  0  0
  2 27  1  0  0  0  0
  2 14  1  0  0  0  0
  3 19  1  0  0  0  0
  3  7  1  1  0  0  0
  4 18  2  0  0  0  0
  4 15  1  0  0  0  0
  5 11  1  6  0  0  0
  5 19  1  0  0  0  0
  8 12  1  0  0  0  0
  8 16  1  0  0  0  0
  9 13  1  0  0  0  0
 10 22  1  0  0  0  0
 12 15  1  0  0  0  0
 13 24  1  0  0  0  0
 14 25  1  0  0  0  0
 15  5  1  0  0  0  0
 16  3  1  0  0  0  0
 17 10  1  0  0  0  0
 18 20  1  0  0  0  0
 19  6  1  0  0  0  0
 20 13  1  0  0  0  0
 20 11  1  0  0  0  0
 21 26  1  0  0  0  0
 21 23  2  0  0  0  0
 23  4  1  0  0  0  0
 24 22  1  0  0  0  0
 25  9  1  0  0  0  0
 25 17  1  0  0  0  0
 26  1  2  0  0  0  0
 27  9  1  0  0  0  0
 28 17  1  0  0  0  0
 29 28  1  0  0  0  0
 30 34  1  0  0  0  0
 31 32  1  0  0  0  0
 32 29  1  0  0  0  0
 33 30  1  0  0  0  0
 33 31  1  0  0  0  0
 34 32  1  0  0  0  0
M  END
>  <MODEL>
3

>  <REMARK>
 VINA RESULT:      -8.4      1.825      2.135
  Name = 
  3 active torsions:
  status: ('A' for Active; 'I' for Inactive)
    1  A    between atoms: C_17  and  O_28
    2  A    between atoms: O_28  and  C_29
    3  A    between atoms: C_29  and  C_32
                            x       y       z     vdW  Elec       q    Type
                         _______ _______ _______ _____ _____    ______ ____

>  <TORSDO>
F 3

$$$$
=
 OpenBabel11112418043D

 34 40  0  0  1  0  0  0  0  0999 V2000
  192.1050  176.1310  145.7990 C   0  0  0  0  0  0  0  0  0  0  0  0
  190.0400  177.1720  146.7280 C   0  0  0  0  0  2  0  0  0  0  0  0
  195.5990  174.3240  140.5190 C   0  0  1  0  0  3  0  0  0  0  0  0
  194.0050  175.8770  144.3360 C   0  0  0  0  0  0  0  0  0  0  0  0
  193.6390  174.6830  142.1420 C   0  0  2  0  0  3  0  0  0  0  0  0
  193.3910  173.4390  140.1240 O   0  0  0  0  0  1  0  0  0  0  0  0
  195.8800  173.6750  139.3140 O   0  0  0  0  0  1  0  0  0  0  0  0
  196.3610  176.2870  141.9090 C   0  0  0  0  0  2  0  0  0  0  0  0
  189.7170  175.5650  144.9740 C   0  0  2  0  0  3  0  0  0  0  0  0
  187.4140  176.4070  142.9580 C   0  0  0  0  0  2  0  0  0  0  0  0
  192.3150  175.3000  142.1760 N   0  0  0  0  0  2  0  0  0  0  0  0
  195.0740  176.6250  142.3440 O   0  0  0  0  0  0  0  0  0  0  0  0
  190.3380  175.7060  143.5610 C   0  0  1  0  0  3  0  0  0  0  0  0
  188.5680  177.0010  146.4480 C   0  0  0  0  0  2  0  0  0  0  0  0
  194.6190  175.4880  143.0200 C   0  0  1  0  0  3  0  0  0  0  0  0
  196.3080  175.6750  140.5130 C   0  0  0  0  0  2  0  0  0  0  0  0
  188.0380  177.1920  144.1060 C   0  0  2  0  0  3  0  0  0  0  0  0
  192.6220  175.7490  144.5540 C   0  0  0  0  0  0  0  0  0  0  0  0
  194.0830  174.5170  140.6810 C   0  0  2  0  0  3  0  0  0  0  0  0
  191.7430  175.1090  143.5110 C   0  0  2  0  0  3  0  0  0  0  0  0
  194.2760  176.7590  146.5120 C   0  0  0  0  0  3  0  0  0  0  0  0
  188.4650  175.9910  141.9440 C   0  0  0  0  0  2  0  0  0  0  0  0
  194.7960  176.3900  145.3140 N   0  0  0  0  0  0  0  0  0  0  0  0
  189.4510  175.0040  142.5420 C   0  0  0  0  0  2  0  0  0  0  0  0
  188.4200  176.2620  145.1890 N   0  0  1  0  0  0  0  0  0  0  0  0
  192.9460  176.6210  146.7500 N   0  0  0  0  0  0  0  0  0  0  0  0
  190.6500  175.9370  146.1340 C   0  0  1  0  0  3  0  0  0  0  0  0
  187.0960  178.1290  144.5500 O   0  0  0  0  0  0  0  0  0  0  0  0
  185.8540  177.5540  144.2620 C   0  0  0  0  0  2  0  0  0  0  0  0
  185.0480  178.2180  147.5980 C   0  0  0  0  0  2  0  0  0  0  0  0
  185.0830  179.4160  145.6390 N   0  0  0  0  0  2  0  0  0  0  0  0
  184.8180  178.0290  145.2650 C   0  0  2  0  0  3  0  0  0  0  0  0
  185.5660  179.4150  146.9620 N   0  0  0  0  0  2  0  0  0  0  0  0
  184.9060  177.1950  146.5130 C   0  0  0  0  0  2  0  0  0  0  0  0
  1 27  1  0  0  0  0
  1 26  1  0  0  0  0
  3  7  1  6  0  0  0
  3 19  1  0  0  0  0
  4 18  1  0  0  0  0
  4 23  2  0  0  0  0
  5 11  1  6  0  0  0
  5 15  1  0  0  0  0
  6 19  1  0  0  0  0
  8 12  1  0  0  0  0
  9 25  1  0  0  0  0
  9 27  1  0  0  0  0
 10 17  1  0  0  0  0
 11 20  1  0  0  0  0
 12 15  1  0  0  0  0
 13  9  1  0  0  0  0
 14  2  1  0  0  0  0
 15  4  1  0  0  0  0
 16  3  1  0  0  0  0
 16  8  1  0  0  0  0
 17 28  1  0  0  0  0
 17 25  1  0  0  0  0
 18  1  2  0  0  0  0
 19  5  1  0  0  0  0
 20 13  1  0  0  0  0
 20 18  1  0  0  0  0
 21 26  2  0  0  0  0
 22 24  1  0  0  0  0
 22 10  1  0  0  0  0
 23 21  1  0  0  0  0
 24 13  1  0  0  0  0
 25 14  1  0  0  0  0
 27  2  1  0  0  0  0
 29 28  1  0  0  0  0
 29 32  1  0  0  0  0
 31 33  1  0  0  0  0
 32 31  1  0  0  0  0
 32 34  1  0  0  0  0
 33 30  1  0  0  0  0
 34 30  1  0  0  0  0
M  END
>  <MODEL>
4

>  <REMARK>
 VINA RESULT:      -8.0      2.550      8.839
  Name = 
  3 active torsions:
  status: ('A' for Active; 'I' for Inactive)
    1  A    between atoms: C_17  and  O_28
    2  A    between atoms: O_28  and  C_29
    3  A    between atoms: C_29  and  C_32
                            x       y       z     vdW  Elec       q    Type
                         _______ _______ _______ _____ _____    ______ ____

>  <TORSDO>
F 3

$$$$
=
 OpenBabel11112418043D

 34 40  0  0  1  0  0  0  0  0999 V2000
  189.6420  174.0390  142.1390 C   0  0  0  0  0  0  0  0  0  0  0  0
  187.5250  175.3260  142.4070 C   0  0  0  0  0  2  0  0  0  0  0  0
  194.9570  171.3240  144.9220 C   0  0  1  0  0  3  0  0  0  0  0  0
  191.3180  172.3810  142.6490 C   0  0  0  0  0  0  0  0  0  0  0  0
  193.0990  172.9980  144.3290 C   0  0  2  0  0  3  0  0  0  0  0  0
  194.8880  173.5710  145.7960 O   0  0  0  0  0  1  0  0  0  0  0  0
  196.1340  171.2600  145.6720 O   0  0  0  0  0  1  0  0  0  0  0  0
  193.1120  169.8430  144.0440 C   0  0  0  0  0  2  0  0  0  0  0  0
  189.4450  176.1970  143.5560 C   0  0  2  0  0  3  0  0  0  0  0  0
  188.7300  177.3450  146.4270 C   0  0  0  0  0  2  0  0  0  0  0  0
  192.0380  173.7660  144.9760 N   0  0  0  0  0  2  0  0  0  0  0  0
  192.1010  170.7910  144.2400 O   0  0  0  0  0  0  0  0  0  0  0  0
  190.2460  175.3930  144.6110 C   0  0  1  0  0  3  0  0  0  0  0  0
  187.1610  176.5950  143.1360 C   0  0  0  0  0  2  0  0  0  0  0  0
  192.4860  171.8850  143.4550 C   0  0  1  0  0  3  0  0  0  0  0  0
  194.2060  170.0060  145.0940 C   0  0  0  0  0  2  0  0  0  0  0  0
  187.8580  176.5770  145.4410 C   0  0  2  0  0  3  0  0  0  0  0  0
  190.7300  173.6280  142.9220 C   0  0  0  0  0  0  0  0  0  0  0  0
  194.0860  172.4990  145.3950 C   0  0  2  0  0  3  0  0  0  0  0  0
  191.3330  174.5440  143.9550 C   0  0  2  0  0  3  0  0  0  0  0  0
  189.7500  172.0090  140.9200 C   0  0  0  0  0  3  0  0  0  0  0  0
  189.9660  176.5460  146.8020 C   0  0  0  0  0  2  0  0  0  0  0  0
  190.8070  171.5970  141.6640 N   0  0  0  0  0  0  0  0  0  0  0  0
  190.8830  176.3530  145.6070 C   0  0  0  0  0  2  0  0  0  0  0  0
  188.2510  176.9270  144.0590 N   0  0  1  0  0  0  0  0  0  0  0  0
  189.1820  173.2210  141.1540 N   0  0  0  0  0  0  0  0  0  0  0  0
  189.0200  175.3990  142.3160 C   0  0  1  0  0  3  0  0  0  0  0  0
  186.5220  176.9190  145.6910 O   0  0  0  0  0  0  0  0  0  0  0  0
  186.5760  177.8350  146.7460 C   0  0  0  0  0  2  0  0  0  0  0  0
  184.4920  179.4760  144.4680 C   0  0  0  0  0  2  0  0  0  0  0  0
  184.2730  178.6300  146.5920 N   0  0  0  0  0  2  0  0  0  0  0  0
  185.6740  179.0200  146.4490 C   0  0  2  0  0  3  0  0  0  0  0  0
  183.7120  178.5780  145.3010 N   0  0  0  0  0  2  0  0  0  0  0  0
  185.8810  179.4690  145.0300 C   0  0  0  0  0  2  0  0  0  0  0  0
  1 27  1  0  0  0  0
  1 18  1  0  0  0  0
  2 14  1  0  0  0  0
  3 16  1  0  0  0  0
  3 19  1  0  0  0  0
  3  7  1  1  0  0  0
  4 18  2  0  0  0  0
  4 15  1  0  0  0  0
  5 11  1  1  0  0  0
  5 19  1  0  0  0  0
  8 12  1  0  0  0  0
  8 16  1  0  0  0  0
  9 25  1  0  0  0  0
  9 13  1  0  0  0  0
 10 22  1  0  0  0  0
 13 24  1  0  0  0  0
 14 25  1  0  0  0  0
 15 12  1  0  0  0  0
 15  5  1  0  0  0  0
 17 28  1  0  0  0  0
 17 10  1  0  0  0  0
 18 20  1  0  0  0  0
 19  6  1  0  0  0  0
 20 13  1  0  0  0  0
 20 11  1  0  0  0  0
 21 26  1  0  0  0  0
 21 23  2  0  0  0  0
 23  4  1  0  0  0  0
 24 22  1  0  0  0  0
 25 17  1  0  0  0  0
 26  1  2  0  0  0  0
 27  2  1  0  0  0  0
 27  9  1  0  0  0  0
 28 29  1  0  0  0  0
 30 34  1  0  0  0  0
 30 33  1  0  0  0  0
 32 31  1  0  0  0  0
 32 29  1  0  0  0  0
 33 31  1  0  0  0  0
 34 32  1  0  0  0  0
M  END
>  <MODEL>
5

>  <REMARK>
 VINA RESULT:      -7.7      2.463      8.338
  Name = 
  3 active torsions:
  status: ('A' for Active; 'I' for Inactive)
    1  A    between atoms: C_17  and  O_28
    2  A    between atoms: O_28  and  C_29
    3  A    between atoms: C_29  and  C_32
                            x       y       z     vdW  Elec       q    Type
                         _______ _______ _______ _____ _____    ______ ____

>  <TORSDO>
F 3

$$$$
=
 OpenBabel11112418043D

 34 40  0  0  1  0  0  0  0  0999 V2000
  190.9430  176.1600  145.0280 C   0  0  0  0  0  0  0  0  0  0  0  0
  192.4690  174.3880  144.1690 C   0  0  0  0  0  2  0  0  0  0  0  0
  184.8400  178.5920  145.4650 C   0  0  1  0  0  3  0  0  0  0  0  0
  188.9580  177.0950  146.0300 C   0  0  0  0  0  0  0  0  0  0  0  0
  186.9950  177.5640  144.5140 C   0  0  2  0  0  3  0  0  0  0  0  0
  185.1610  178.1640  143.1130 O   0  0  0  0  0  1  0  0  0  0  0  0
  183.6100  179.0870  145.0240 O   0  0  0  0  0  1  0  0  0  0  0  0
  185.9130  177.5390  147.4910 C   0  0  0  0  0  2  0  0  0  0  0  0
  190.9110  175.3000  142.5860 C   0  0  2  0  0  3  0  0  0  0  0  0
  189.7180  173.0960  140.6400 C   0  0  0  0  0  2  0  0  0  0  0  0
  187.4400  176.3790  143.7850 N   0  0  0  0  0  2  0  0  0  0  0  0
  186.7280  176.6740  146.7520 O   0  0  0  0  0  0  0  0  0  0  0  0
  189.3750  175.2640  142.7820 C   0  0  1  0  0  3  0  0  0  0  0  0
  192.6660  173.7450  142.8190 C   0  0  0  0  0  2  0  0  0  0  0  0
  187.5180  177.5190  145.9640 C   0  0  1  0  0  3  0  0  0  0  0  0
  184.6060  177.8030  146.7500 C   0  0  0  0  0  2  0  0  0  0  0  0
  190.6080  172.9330  141.8660 C   0  0  2  0  0  3  0  0  0  0  0  0
  189.6000  176.5420  144.9080 C   0  0  0  0  0  0  0  0  0  0  0  0
  185.4680  177.6900  144.3910 C   0  0  2  0  0  3  0  0  0  0  0  0
  188.8880  176.4700  143.5820 C   0  0  2  0  0  3  0  0  0  0  0  0
  190.9360  176.8400  147.2990 C   0  0  0  0  0  3  0  0  0  0  0  0
  188.4260  173.8130  140.9930 C   0  0  0  0  0  2  0  0  0  0  0  0
  189.6370  177.2190  147.2000 N   0  0  0  0  0  0  0  0  0  0  0  0
  188.6880  175.2450  141.4230 C   0  0  0  0  0  2  0  0  0  0  0  0
  191.5210  174.0910  141.9710 N   0  0  1  0  0  0  0  0  0  0  0  0
  191.5800  176.3240  146.2200 N   0  0  0  0  0  0  0  0  0  0  0  0
  191.7190  175.6450  143.8450 C   0  0  1  0  0  3  0  0  0  0  0  0
  191.3230  171.7360  141.7240 O   0  0  0  0  0  0  0  0  0  0  0  0
  190.4660  170.7450  142.2130 C   0  0  0  0  0  2  0  0  0  0  0  0
  192.5910  168.9130  140.1270 C   0  0  0  0  0  2  0  0  0  0  0  0
  191.9750  168.8310  142.3380 N   0  0  0  0  0  2  0  0  0  0  0  0
  190.8380  169.3980  141.6180 C   0  0  2  0  0  3  0  0  0  0  0  0
  193.0960  168.9020  141.4880 N   0  0  0  0  0  2  0  0  0  0  0  0
  191.2490  169.5770  140.1840 C   0  0  0  0  0  2  0  0  0  0  0  0
  1 26  1  0  0  0  0
  3  7  1  6  0  0  0
  3 16  1  0  0  0  0
  4 23  2  0  0  0  0
  5 11  1  6  0  0  0
  5 15  1  0  0  0  0
  6 19  1  0  0  0  0
  9 13  1  0  0  0  0
  9 27  1  0  0  0  0
 10 22  1  0  0  0  0
 10 17  1  0  0  0  0
 12  8  1  0  0  0  0
 13 20  1  0  0  0  0
 14  2  1  0  0  0  0
 15  4  1  0  0  0  0
 15 12  1  0  0  0  0
 16  8  1  0  0  0  0
 17 25  1  0  0  0  0
 18  1  2  0  0  0  0
 18  4  1  0  0  0  0
 19  5  1  0  0  0  0
 19  3  1  0  0  0  0
 20 11  1  0  0  0  0
 20 18  1  0  0  0  0
 22 24  1  0  0  0  0
 23 21  1  0  0  0  0
 24 13  1  0  0  0  0
 25  9  1  0  0  0  0
 25 14  1  0  0  0  0
 26 21  2  0  0  0  0
 27  2  1  0  0  0  0
 27  1  1  0  0  0  0
 28 17  1  0  0  0  0
 28 29  1  0  0  0  0
 30 34  1  0  0  0  0
 30 33  1  0  0  0  0
 32 29  1  0  0  0  0
 32 31  1  0  0  0  0
 33 31  1  0  0  0  0
 34 32  1  0  0  0  0
M  END
>  <MODEL>
6

>  <REMARK>
 VINA RESULT:      -7.7      2.763      4.843
  Name = 
  3 active torsions:
  status: ('A' for Active; 'I' for Inactive)
    1  A    between atoms: C_17  and  O_28
    2  A    between atoms: O_28  and  C_29
    3  A    between atoms: C_29  and  C_32
                            x       y       z     vdW  Elec       q    Type
                         _______ _______ _______ _____ _____    ______ ____

>  <TORSDO>
F 3

$$$$
=
 OpenBabel11112418043D

 34 40  0  0  1  0  0  0  0  0999 V2000
  192.7880  176.4570  146.1920 C   0  0  0  0  0  0  0  0  0  0  0  0
  194.8820  175.1080  146.1650 C   0  0  0  0  0  2  0  0  0  0  0  0
  187.1530  178.1440  143.2320 C   0  0  1  0  0  3  0  0  0  0  0  0
  190.4360  176.9210  145.9250 C   0  0  0  0  0  0  0  0  0  0  0  0
  189.6320  177.5910  143.6270 C   0  0  2  0  0  3  0  0  0  0  0  0
  188.8350  178.3670  141.5180 O   0  0  0  0  0  1  0  0  0  0  0  0
  186.3160  178.6250  142.2220 O   0  0  0  0  0  1  0  0  0  0  0  0
  187.0940  176.7030  145.3030 C   0  0  0  0  0  2  0  0  0  0  0  0
  194.3380  176.2560  144.1280 C   0  0  2  0  0  3  0  0  0  0  0  0
  194.9880  174.5320  141.5440 C   0  0  0  0  0  2  0  0  0  0  0  0
  190.6640  176.6770  143.1420 N   0  0  0  0  0  2  0  0  0  0  0  0
  188.3530  176.1330  145.0820 O   0  0  0  0  0  0  0  0  0  0  0  0
  193.0170  176.0340  143.3500 C   0  0  1  0  0  3  0  0  0  0  0  0
  195.9470  174.8540  145.1270 C   0  0  0  0  0  2  0  0  0  0  0  0
  189.2350  177.2190  145.0710 C   0  0  1  0  0  3  0  0  0  0  0  0
  186.4180  177.0330  143.9760 C   0  0  0  0  0  2  0  0  0  0  0  0
  195.0370  174.1370  143.0160 C   0  0  2  0  0  3  0  0  0  0  0  0
  191.7040  176.7350  145.3470 C   0  0  0  0  0  0  0  0  0  0  0  0
  188.4620  177.6080  142.6310 C   0  0  2  0  0  3  0  0  0  0  0  0
  191.9060  176.9460  143.8690 C   0  0  2  0  0  3  0  0  0  0  0  0
  191.3440  176.5240  148.0710 C   0  0  0  0  0  3  0  0  0  0  0  0
  193.6030  175.0160  141.1530 C   0  0  0  0  0  2  0  0  0  0  0  0
  190.2840  176.7990  147.2690 N   0  0  0  0  0  0  0  0  0  0  0  0
  193.2450  176.3060  141.8690 C   0  0  0  0  0  2  0  0  0  0  0  0
  195.4410  175.3050  143.8260 N   0  0  1  0  0  0  0  0  0  0  0  0
  192.5810  176.3640  147.5340 N   0  0  0  0  0  0  0  0  0  0  0  0
  194.1880  176.3340  145.6530 C   0  0  1  0  0  3  0  0  0  0  0  0
  195.9530  173.0850  143.1500 O   0  0  0  0  0  0  0  0  0  0  0  0
  195.2850  171.9610  142.6550 C   0  0  0  0  0  2  0  0  0  0  0  0
  195.9200  170.9840  145.9510 C   0  0  0  0  0  2  0  0  0  0  0  0
  194.1300  170.8850  144.5170 N   0  0  0  0  0  2  0  0  0  0  0  0
  195.3270  170.8410  143.6800 C   0  0  2  0  0  3  0  0  0  0  0  0
  194.5190  171.3310  145.7950 N   0  0  0  0  0  2  0  0  0  0  0  0
  196.5180  171.0240  144.5780 C   0  0  0  0  0  2  0  0  0  0  0  0
  1 26  1  0  0  0  0
  3  7  1  6  0  0  0
  3 16  1  0  0  0  0
  4 23  2  0  0  0  0
  5 11  1  6  0  0  0
  5 15  1  0  0  0  0
  6 19  1  0  0  0  0
  9 27  1  0  0  0  0
 10 17  1  0  0  0  0
 11 20  1  0  0  0  0
 12  8  1  0  0  0  0
 13 20  1  0  0  0  0
 13  9  1  0  0  0  0
 14  2  1  0  0  0  0
 15 12  1  0  0  0  0
 15  4  1  0  0  0  0
 16  8  1  0  0  0  0
 17 28  1  0  0  0  0
 17 25  1  0  0  0  0
 18  4  1  0  0  0  0
 18  1  2  0  0  0  0
 19  3  1  0  0  0  0
 19  5  1  0  0  0  0
 20 18  1  0  0  0  0
 22 10  1  0  0  0  0
 22 24  1  0  0  0  0
 23 21  1  0  0  0  0
 24 13  1  0  0  0  0
 25  9  1  0  0  0  0
 25 14  1  0  0  0  0
 26 21  2  0  0  0  0
 27  2  1  0  0  0  0
 27  1  1  0  0  0  0
 29 28  1  0  0  0  0
 29 32  1  0  0  0  0
 31 33  1  0  0  0  0
 32 31  1  0  0  0  0
 32 34  1  0  0  0  0
 33 30  1  0  0  0  0
 34 30  1  0  0  0  0
M  END
>  <MODEL>
7

>  <REMARK>
 VINA RESULT:      -7.6      2.397      4.455
  Name = 
  3 active torsions:
  status: ('A' for Active; 'I' for Inactive)
    1  A    between atoms: C_17  and  O_28
    2  A    between atoms: O_28  and  C_29
    3  A    between atoms: C_29  and  C_32
                            x       y       z     vdW  Elec       q    Type
                         _______ _______ _______ _____ _____    ______ ____

>  <TORSDO>
F 3

$$$$
=
 OpenBabel11112418043D

 34 40  0  0  1  0  0  0  0  0999 V2000
  190.5100  173.2020  142.0310 C   0  0  0  0  0  0  0  0  0  0  0  0
  188.1060  173.8570  142.0120 C   0  0  0  0  0  2  0  0  0  0  0  0
  196.4090  173.5660  144.9340 C   0  0  1  0  0  3  0  0  0  0  0  0
  192.6090  172.4680  142.9640 C   0  0  0  0  0  0  0  0  0  0  0  0
  194.1310  174.2280  143.9440 C   0  0  2  0  0  3  0  0  0  0  0  0
  195.6730  175.8560  144.7520 O   0  0  0  0  0  1  0  0  0  0  0  0
  197.5550  174.1640  145.4630 O   0  0  0  0  0  1  0  0  0  0  0  0
  195.0890  171.4180  145.0500 C   0  0  0  0  0  2  0  0  0  0  0  0
  189.6810  175.6290  142.3900 C   0  0  2  0  0  3  0  0  0  0  0  0
  188.6700  177.7190  144.5530 C   0  0  0  0  0  2  0  0  0  0  0  0
  192.8920  174.8940  144.3390 N   0  0  0  0  0  2  0  0  0  0  0  0
  193.8410  172.0460  144.9570 O   0  0  0  0  0  0  0  0  0  0  0  0
  190.6920  175.6360  143.5640 C   0  0  1  0  0  3  0  0  0  0  0  0
  187.3800  175.1700  142.1650 C   0  0  0  0  0  2  0  0  0  0  0  0
  193.8760  172.7220  143.7330 C   0  0  1  0  0  3  0  0  0  0  0  0
  196.0890  172.3240  145.7610 C   0  0  0  0  0  2  0  0  0  0  0  0
  188.0630  176.3870  144.1280 C   0  0  2  0  0  3  0  0  0  0  0  0
  191.6750  173.4970  142.7520 C   0  0  0  0  0  0  0  0  0  0  0  0
  195.2280  174.5490  144.9700 C   0  0  2  0  0  3  0  0  0  0  0  0
  191.9800  174.9050  143.1920 C   0  0  2  0  0  3  0  0  0  0  0  0
  191.2150  170.9510  141.8060 C   0  0  0  0  0  3  0  0  0  0  0  0
  190.0910  177.5370  145.0570 C   0  0  0  0  0  2  0  0  0  0  0  0
  192.3520  171.2190  142.4970 N   0  0  0  0  0  0  0  0  0  0  0  0
  191.0160  177.0740  143.9470 C   0  0  0  0  0  2  0  0  0  0  0  0
  188.3250  176.1610  142.6910 N   0  0  1  0  0  0  0  0  0  0  0  0
  190.3110  171.9370  141.5710 N   0  0  0  0  0  0  0  0  0  0  0  0
  189.5090  174.2740  141.6890 C   0  0  1  0  0  3  0  0  0  0  0  0
  186.6870  176.4370  144.3910 O   0  0  0  0  0  0  0  0  0  0  0  0
  186.3580  177.7940  144.3280 C   0  0  0  0  0  2  0  0  0  0  0  0
  185.3840  177.9130  147.6830 C   0  0  0  0  0  2  0  0  0  0  0  0
  185.5270  179.4150  145.9520 N   0  0  0  0  0  2  0  0  0  0  0  0
  185.2740  178.1120  145.3420 C   0  0  2  0  0  3  0  0  0  0  0  0
  185.9410  179.1910  147.2800 N   0  0  0  0  0  2  0  0  0  0  0  0
  185.2920  177.0840  146.4380 C   0  0  0  0  0  2  0  0  0  0  0  0
  1 18  1  0  0  0  0
  2 14  1  0  0  0  0
  3 19  1  0  0  0  0
  3  7  1  1  0  0  0
  3 16  1  0  0  0  0
  4 15  1  0  0  0  0
  5 11  1  1  0  0  0
  5 19  1  0  0  0  0
  6 19  1  0  0  0  0
  8 16  1  0  0  0  0
  9 25  1  0  0  0  0
  9 13  1  0  0  0  0
 10 22  1  0  0  0  0
 12  8  1  0  0  0  0
 13 24  1  0  0  0  0
 14 25  1  0  0  0  0
 15  5  1  0  0  0  0
 15 12  1  0  0  0  0
 17 28  1  0  0  0  0
 17 10  1  0  0  0  0
 18  4  2  0  0  0  0
 18 20  1  0  0  0  0
 20 13  1  0  0  0  0
 20 11  1  0  0  0  0
 21 23  2  0  0  0  0
 23  4  1  0  0  0  0
 24 22  1  0  0  0  0
 25 17  1  0  0  0  0
 26 21  1  0  0  0  0
 26  1  2  0  0  0  0
 27  2  1  0  0  0  0
 27  1  1  0  0  0  0
 27  9  1  0  0  0  0
 29 28  1  0  0  0  0
 29 32  1  0  0  0  0
 31 33  1  0  0  0  0
 32 31  1  0  0  0  0
 32 34  1  0  0  0  0
 33 30  1  0  0  0  0
 34 30  1  0  0  0  0
M  END
>  <MODEL>
8

>  <REMARK>
 VINA RESULT:      -7.6      2.068      8.370
  Name = 
  3 active torsions:
  status: ('A' for Active; 'I' for Inactive)
    1  A    between atoms: C_17  and  O_28
    2  A    between atoms: O_28  and  C_29
    3  A    between atoms: C_29  and  C_32
                            x       y       z     vdW  Elec       q    Type
                         _______ _______ _______ _____ _____    ______ ____

>  <TORSDO>
F 3

$$$$
=
 OpenBabel11112418043D

 34 40  0  0  1  0  0  0  0  0999 V2000
  189.2440  174.3120  141.2290 C   0  0  0  0  0  0  0  0  0  0  0  0
  187.5770  176.0270  141.9280 C   0  0  0  0  0  2  0  0  0  0  0  0
  193.1550  169.2780  142.8810 C   0  0  1  0  0  3  0  0  0  0  0  0
  190.2910  172.1420  141.1150 C   0  0  0  0  0  0  0  0  0  0  0  0
  191.9520  171.5490  142.9210 C   0  0  2  0  0  3  0  0  0  0  0  0
  193.6340  170.9880  144.5140 O   0  0  0  0  0  1  0  0  0  0  0  0
  194.1600  168.5930  143.5660 O   0  0  0  0  0  1  0  0  0  0  0  0
  191.0830  168.8520  141.5050 C   0  0  0  0  0  2  0  0  0  0  0  0
  189.5090  175.7970  143.3340 C   0  0  2  0  0  3  0  0  0  0  0  0
  188.8090  176.0520  146.4190 C   0  0  0  0  0  2  0  0  0  0  0  0
  191.0880  172.3410  143.7940 N   0  0  0  0  0  2  0  0  0  0  0  0
  190.3750  169.9430  142.0240 O   0  0  0  0  0  0  0  0  0  0  0  0
  189.9050  174.4710  144.0310 C   0  0  1  0  0  3  0  0  0  0  0  0
  187.5090  177.0140  143.0660 C   0  0  0  0  0  2  0  0  0  0  0  0
  191.1540  171.0580  141.6960 C   0  0  1  0  0  3  0  0  0  0  0  0
  192.0390  168.2910  142.5530 C   0  0  0  0  0  2  0  0  0  0  0  0
  187.8810  175.9870  145.2120 C   0  0  2  0  0  3  0  0  0  0  0  0
  190.0610  173.3370  141.8190 C   0  0  0  0  0  0  0  0  0  0  0  0
  192.6120  170.4300  143.7420 C   0  0  2  0  0  3  0  0  0  0  0  0
  190.7710  173.6030  143.1210 C   0  0  2  0  0  3  0  0  0  0  0  0
  188.9080  172.9020  139.3550 C   0  0  0  0  0  3  0  0  0  0  0  0
  189.7040  174.8270  146.4880 C   0  0  0  0  0  2  0  0  0  0  0  0
  189.7000  171.9480  139.9070 N   0  0  0  0  0  0  0  0  0  0  0  0
  190.6650  174.7770  145.3140 C   0  0  0  0  0  2  0  0  0  0  0  0
  188.5260  176.6470  144.0570 N   0  0  1  0  0  0  0  0  0  0  0  0
  188.6930  174.0730  140.0090 N   0  0  0  0  0  0  0  0  0  0  0  0
  189.0280  175.6510  141.8840 C   0  0  1  0  0  3  0  0  0  0  0  0
  186.6820  176.6250  145.5570 O   0  0  0  0  0  0  0  0  0  0  0  0
  186.9940  177.3970  146.6800 C   0  0  0  0  0  2  0  0  0  0  0  0
  184.2780  179.1450  145.3420 C   0  0  0  0  0  2  0  0  0  0  0  0
  184.8590  178.3300  147.4080 N   0  0  0  0  0  2  0  0  0  0  0  0
  186.1130  178.6330  146.7210 C   0  0  2  0  0  3  0  0  0  0  0  0
  183.8380  178.3020  146.4390 N   0  0  0  0  0  2  0  0  0  0  0  0
  185.7740  179.0570  145.3200 C   0  0  0  0  0  2  0  0  0  0  0  0
  1 18  1  0  0  0  0
  1 27  1  0  0  0  0
  2 14  1  0  0  0  0
  3  7  1  1  0  0  0
  3 19  1  0  0  0  0
  4 15  1  0  0  0  0
  4 18  2  0  0  0  0
  5 19  1  0  0  0  0
  5 11  1  1  0  0  0
  8 12  1  0  0  0  0
  8 16  1  0  0  0  0
  9 13  1  0  0  0  0
  9 25  1  0  0  0  0
 10 22  1  0  0  0  0
 13 24  1  0  0  0  0
 14 25  1  0  0  0  0
 15 12  1  0  0  0  0
 15  5  1  0  0  0  0
 16  3  1  0  0  0  0
 17 28  1  0  0  0  0
 17 10  1  0  0  0  0
 18 20  1  0  0  0  0
 19  6  1  0  0  0  0
 20 11  1  0  0  0  0
 20 13  1  0  0  0  0
 21 23  2  0  0  0  0
 21 26  1  0  0  0  0
 23  4  1  0  0  0  0
 24 22  1  0  0  0  0
 25 17  1  0  0  0  0
 26  1  2  0  0  0  0
 27  2  1  0  0  0  0
 27  9  1  0  0  0  0
 28 29  1  0  0  0  0
 29 32  1  0  0  0  0
 30 33  1  0  0  0  0
 32 31  1  0  0  0  0
 33 31  1  0  0  0  0
 34 30  1  0  0  0  0
 34 32  1  0  0  0  0
M  END
>  <MODEL>
9

>  <REMARK>
 VINA RESULT:      -7.6      3.170      8.346
  Name = 
  3 active torsions:
  status: ('A' for Active; 'I' for Inactive)
    1  A    between atoms: C_17  and  O_28
    2  A    between atoms: O_28  and  C_29
    3  A    between atoms: C_29  and  C_32
                            x       y       z     vdW  Elec       q    Type
                         _______ _______ _______ _____ _____    ______ ____

>  <TORSDO>
F 3

$$$$
