=
 OpenBabel11112418093D

 34 37  0  0  1  0  0  0  0  0999 V2000
  186.9750  177.3230  146.2870 C   0  0  2  0  0  3  0  0  0  0  0  0
  188.4750  175.6660  147.3090 N   0  0  0  0  0  2  0  0  0  0  0  0
  185.5460  178.1990  144.4450 C   0  0  0  0  0  2  0  0  0  0  0  0
  189.5560  177.3260  145.9210 C   0  0  2  0  0  3  0  0  0  0  0  0
  192.3480  177.1140  144.7940 C   0  0  0  0  0  2  0  0  0  0  0  0
  189.3080  177.0510  144.4170 C   0  0  1  0  0  3  0  0  0  0  0  0
  189.8660  175.2620  147.1200 C   0  0  0  0  0  2  0  0  0  0  0  0
  191.7460  175.9540  145.5810 C   0  0  2  0  0  3  0  0  0  0  0  0
  186.9890  178.0420  144.9360 C   0  0  2  0  0  3  0  0  0  0  0  0
  187.8340  177.2080  143.9700 C   0  0  1  0  0  3  0  0  0  0  0  0
  184.7330  178.3060  146.8080 C   0  0  0  0  0  2  0  0  0  0  0  0
  191.6340  177.2650  143.4590 C   0  0  0  0  0  2  0  0  0  0  0  0
  184.7330  179.0080  145.4520 C   0  0  0  0  0  2  0  0  0  0  0  0
  190.2720  177.9280  143.6160 C   0  0  0  0  0  2  0  0  0  0  0  0
  190.6300  176.4320  146.5210 C   0  0  1  0  0  3  0  0  0  0  0  0
  186.1620  178.1170  147.3070 C   0  0  0  0  0  2  0  0  0  0  0  0
  188.3720  177.0430  146.8430 C   0  0  1  0  0  3  0  0  0  0  0  0
  187.6240  177.5000  142.4740 C   0  0  0  0  0  2  0  0  0  0  0  0
  187.0560  176.3020  141.7230 C   0  0  0  0  0  2  0  0  0  0  0  0
  188.1690  175.1430  139.9520 O   0  0  0  0  0  1  0  0  0  0  0  0
  188.1730  175.3490  141.3350 C   0  0  2  0  0  3  0  0  0  0  0  0
  188.0130  174.0240  142.0760 C   0  0  1  0  0  3  0  0  0  0  0  0
  188.0240  172.9540  141.1780 O   0  0  0  0  0  1  0  0  0  0  0  0
  189.1210  173.8400  143.1010 C   0  0  0  0  0  2  0  0  0  0  0  0
  190.3610  174.0970  142.5150 O   0  0  0  0  0  0  0  0  0  0  0  0
  191.2330  173.2020  143.1330 C   0  0  0  0  0  2  0  0  0  0  0  0
  190.5990  172.6750  144.4030 C   0  0  0  0  0  1  0  0  0  0  0  0
  192.8410  175.2740  146.3880 C   0  0  0  0  0  2  0  0  0  0  0  0
  194.1940  175.8820  146.0620 C   0  0  0  0  0  2  0  0  0  0  0  0
  195.2000  174.7810  145.7200 C   0  0  1  0  0  3  0  0  0  0  0  0
  195.4580  172.3780  145.6530 O   0  0  0  0  0  1  0  0  0  0  0  0
  194.5510  173.4210  145.4480 C   0  0  0  0  0  2  0  0  0  0  0  0
  196.1760  175.1490  144.7660 O   0  0  0  0  0  0  0  0  0  0  0  0
  195.7630  176.3150  144.1030 C   0  0  0  0  0  1  0  0  0  0  0  0
  1 17  1  0  0  0  0
  1 16  1  1  0  0  0
  3  9  1  0  0  0  0
  3 13  1  0  0  0  0
  4 15  1  0  0  0  0
  4 17  1  0  0  0  0
  5  8  1  0  0  0  0
  6  4  1  0  0  0  0
  7  2  1  0  0  0  0
  8 28  1  0  0  0  0
  8 15  1  0  0  0  0
  9  1  1  0  0  0  0
 10  6  1  0  0  0  0
 10  9  1  0  0  0  0
 11 16  1  0  0  0  0
 12 14  1  0  0  0  0
 12  5  1  0  0  0  0
 13 11  1  0  0  0  0
 14  6  1  0  0  0  0
 15  7  1  0  0  0  0
 17  2  1  0  0  0  0
 18 10  1  0  0  0  0
 19 18  1  0  0  0  0
 20 21  1  0  0  0  0
 21 19  1  0  0  0  0
 21 22  1  0  0  0  0
 22 24  1  0  0  0  0
 23 22  1  0  0  0  0
 25 24  1  0  0  0  0
 25 26  1  0  0  0  0
 26 27  1  0  0  0  0
 29 28  1  0  0  0  0
 30 29  1  0  0  0  0
 32 31  1  0  0  0  0
 32 30  1  0  0  0  0
 33 30  1  0  0  0  0
 34 33  1  0  0  0  0
M  END
>  <MODEL>
1

>  <REMARK>
 VINA RESULT:      -7.1      0.000      0.000
  Name = 
  12 active torsions:
  status: ('A' for Active; 'I' for Inactive)
    1  A    between atoms: C_3  and  C_16
    2  A    between atoms: C_3  and  C_19
    3  A    between atoms: C_5  and  C_11
    4  A    between atoms: C_5  and  C_19
    5  A    between atoms: O_8  and  C_12
    6  A    between atoms: O_8  and  C_16
    7  A    between atoms: C_11  and  C_20
    8  A    between atoms: C_17  and  C_28
    9  A    between atoms: C_28  and  C_29
   10  A    between atoms: C_29  and  C_32
   11  A    between atoms: O_31  and  C_32
   12  A    between atoms: C_32  and  C_34
                            x       y       z     vdW  Elec       q    Type
                         _______ _______ _______ _____ _____    ______ ____

>  <TORSDO>
F 12

$$$$
=
 OpenBabel11112418093D

 34 37  0  0  1  0  0  0  0  0999 V2000
  189.0780  176.8620  143.1200 C   0  0  2  0  0  3  0  0  0  0  0  0
  191.3040  177.8910  143.2880 N   0  0  0  0  0  2  0  0  0  0  0  0
  186.7330  176.4870  143.8730 C   0  0  0  0  0  2  0  0  0  0  0  0
  190.9920  175.8760  144.5890 C   0  0  2  0  0  3  0  0  0  0  0  0
  192.7610  174.9690  146.8600 C   0  0  0  0  0  2  0  0  0  0  0  0
  190.1210  176.1430  145.8430 C   0  0  1  0  0  3  0  0  0  0  0  0
  192.4610  177.7350  144.1660 C   0  0  0  0  0  2  0  0  0  0  0  0
  193.0130  176.3100  146.1780 C   0  0  2  0  0  3  0  0  0  0  0  0
  188.1990  176.1190  144.1290 C   0  0  2  0  0  3  0  0  0  0  0  0
  188.6520  176.5250  145.5340 C   0  0  1  0  0  3  0  0  0  0  0  0
  187.2210  176.8170  141.4420 C   0  0  0  0  0  2  0  0  0  0  0  0
  191.4690  175.0250  147.6600 C   0  0  0  0  0  2  0  0  0  0  0  0
  186.3340  176.0960  142.4530 C   0  0  0  0  0  2  0  0  0  0  0  0
  190.2420  174.9280  146.7630 C   0  0  0  0  0  2  0  0  0  0  0  0
  192.4330  176.3340  144.7560 C   0  0  1  0  0  3  0  0  0  0  0  0
  188.6890  176.4850  141.6930 C   0  0  0  0  0  2  0  0  0  0  0  0
  190.5750  176.6300  143.3280 C   0  0  1  0  0  3  0  0  0  0  0  0
  187.6470  176.2540  146.6660 C   0  0  0  0  0  2  0  0  0  0  0  0
  187.1800  177.5340  147.3470 C   0  0  0  0  0  2  0  0  0  0  0  0
  185.0910  176.5690  146.6970 O   0  0  0  0  0  1  0  0  0  0  0  0
  185.6780  177.4950  147.5640 C   0  0  2  0  0  3  0  0  0  0  0  0
  185.0810  178.8840  147.3520 C   0  0  1  0  0  3  0  0  0  0  0  0
  185.9970  179.8740  147.7160 O   0  0  0  0  0  1  0  0  0  0  0  0
  184.6680  179.0800  145.9020 C   0  0  0  0  0  2  0  0  0  0  0  0
  185.7160  179.6530  145.1810 O   0  0  0  0  0  0  0  0  0  0  0  0
  185.2400  179.7300  143.8730 C   0  0  0  0  0  2  0  0  0  0  0  0
  183.9970  178.8760  143.7370 C   0  0  0  0  0  1  0  0  0  0  0  0
  194.5100  176.5740  146.1250 C   0  0  0  0  0  2  0  0  0  0  0  0
  195.2680  175.2770  145.8970 C   0  0  0  0  0  2  0  0  0  0  0  0
  195.9680  175.3080  144.5370 C   0  0  1  0  0  3  0  0  0  0  0  0
  194.4310  173.5240  143.9930 O   0  0  0  0  0  1  0  0  0  0  0  0
  195.6660  174.0890  143.6630 C   0  0  0  0  0  2  0  0  0  0  0  0
  195.8700  176.5410  143.8510 O   0  0  0  0  0  0  0  0  0  0  0  0
  197.0520  176.7660  143.1260 C   0  0  0  0  0  1  0  0  0  0  0  0
  1 16  1  6  0  0  0
  1 17  1  0  0  0  0
  1  9  1  0  0  0  0
  2 17  1  0  0  0  0
  2  7  1  0  0  0  0
  3  9  1  0  0  0  0
  4 15  1  0  0  0  0
  4  6  1  0  0  0  0
  5 12  1  0  0  0  0
  6 14  1  0  0  0  0
  7 15  1  0  0  0  0
  8  5  1  0  0  0  0
  9 10  1  0  0  0  0
 10  6  1  0  0  0  0
 10 18  1  0  0  0  0
 11 16  1  0  0  0  0
 11 13  1  0  0  0  0
 13  3  1  0  0  0  0
 14 12  1  0  0  0  0
 15  8  1  0  0  0  0
 17  4  1  0  0  0  0
 18 19  1  0  0  0  0
 19 21  1  0  0  0  0
 20 21  1  0  0  0  0
 22 21  1  0  0  0  0
 22 23  1  0  0  0  0
 24 22  1  0  0  0  0
 25 24  1  0  0  0  0
 26 25  1  0  0  0  0
 27 26  1  0  0  0  0
 28  8  1  0  0  0  0
 29 28  1  0  0  0  0
 30 29  1  0  0  0  0
 32 31  1  0  0  0  0
 32 30  1  0  0  0  0
 33 30  1  0  0  0  0
 34 33  1  0  0  0  0
M  END
>  <MODEL>
2

>  <REMARK>
 VINA RESULT:      -6.7      2.772      5.079
  Name = 
  12 active torsions:
  status: ('A' for Active; 'I' for Inactive)
    1  A    between atoms: C_3  and  C_16
    2  A    between atoms: C_3  and  C_19
    3  A    between atoms: C_5  and  C_11
    4  A    between atoms: C_5  and  C_19
    5  A    between atoms: O_8  and  C_12
    6  A    between atoms: O_8  and  C_16
    7  A    between atoms: C_11  and  C_20
    8  A    between atoms: C_17  and  C_28
    9  A    between atoms: C_28  and  C_29
   10  A    between atoms: C_29  and  C_32
   11  A    between atoms: O_31  and  C_32
   12  A    between atoms: C_32  and  C_34
                            x       y       z     vdW  Elec       q    Type
                         _______ _______ _______ _____ _____    ______ ____

>  <TORSDO>
F 12

$$$$
=
 OpenBabel11112418093D

 34 37  0  0  1  0  0  0  0  0999 V2000
  187.1490  177.1090  146.4290 C   0  0  2  0  0  3  0  0  0  0  0  0
  188.4700  175.1270  147.0380 N   0  0  0  0  0  2  0  0  0  0  0  0
  185.9030  178.5490  144.8240 C   0  0  0  0  0  2  0  0  0  0  0  0
  189.7430  177.0040  146.1970 C   0  0  2  0  0  3  0  0  0  0  0  0
  192.5840  176.8780  145.1850 C   0  0  0  0  0  2  0  0  0  0  0  0
  189.5780  177.1570  144.6640 C   0  0  1  0  0  3  0  0  0  0  0  0
  189.8420  174.6790  146.8120 C   0  0  0  0  0  2  0  0  0  0  0  0
  191.8600  175.6020  145.6030 C   0  0  2  0  0  3  0  0  0  0  0  0
  187.2970  178.1550  145.3220 C   0  0  2  0  0  3  0  0  0  0  0  0
  188.1490  177.5410  144.2070 C   0  0  1  0  0  3  0  0  0  0  0  0
  184.9440  178.0930  147.0890 C   0  0  0  0  0  2  0  0  0  0  0  0
  191.9710  177.4320  143.9080 C   0  0  0  0  0  2  0  0  0  0  0  0
  185.0790  179.1250  145.9720 C   0  0  0  0  0  2  0  0  0  0  0  0
  190.6460  178.1350  144.1730 C   0  0  0  0  0  2  0  0  0  0  0  0
  190.7170  175.9020  146.5840 C   0  0  1  0  0  3  0  0  0  0  0  0
  186.3230  177.6660  147.5850 C   0  0  0  0  0  2  0  0  0  0  0  0
  188.4860  176.5820  146.9530 C   0  0  1  0  0  3  0  0  0  0  0  0
  188.0570  178.2330  142.8360 C   0  0  0  0  0  2  0  0  0  0  0  0
  188.4440  177.3060  141.6920 C   0  0  0  0  0  2  0  0  0  0  0  0
  187.5320  175.4000  140.5730 O   0  0  0  0  0  1  0  0  0  0  0  0
  187.2060  176.6510  141.1040 C   0  0  2  0  0  3  0  0  0  0  0  0
  186.5960  177.5490  140.0310 C   0  0  1  0  0  3  0  0  0  0  0  0
  186.6480  176.9260  138.7820 O   0  0  0  0  0  1  0  0  0  0  0  0
  185.1550  177.8940  140.3680 C   0  0  0  0  0  2  0  0  0  0  0  0
  184.9250  177.7000  141.7310 O   0  0  0  0  0  0  0  0  0  0  0  0
  183.6220  178.1530  141.9330 C   0  0  0  0  0  2  0  0  0  0  0  0
  182.9050  178.2420  140.6020 C   0  0  0  0  0  1  0  0  0  0  0  0
  192.8540  174.6490  146.2490 C   0  0  0  0  0  2  0  0  0  0  0  0
  193.1760  173.5030  145.3060 C   0  0  0  0  0  2  0  0  0  0  0  0
  194.5960  173.6550  144.7570 C   0  0  1  0  0  3  0  0  0  0  0  0
  193.5530  174.4470  142.7250 O   0  0  0  0  0  1  0  0  0  0  0  0
  194.6560  173.7540  143.2300 C   0  0  0  0  0  2  0  0  0  0  0  0
  195.3860  174.6210  145.4220 O   0  0  0  0  0  0  0  0  0  0  0  0
  196.4040  175.0630  144.5620 C   0  0  0  0  0  1  0  0  0  0  0  0
  1 17  1  0  0  0  0
  1 16  1  1  0  0  0
  3  9  1  0  0  0  0
  3 13  1  0  0  0  0
  4 15  1  0  0  0  0
  4 17  1  0  0  0  0
  5  8  1  0  0  0  0
  6  4  1  0  0  0  0
  7  2  1  0  0  0  0
  8 28  1  0  0  0  0
  8 15  1  0  0  0  0
  9  1  1  0  0  0  0
 10  6  1  0  0  0  0
 10  9  1  0  0  0  0
 11 16  1  0  0  0  0
 12 14  1  0  0  0  0
 12  5  1  0  0  0  0
 13 11  1  0  0  0  0
 14  6  1  0  0  0  0
 15  7  1  0  0  0  0
 17  2  1  0  0  0  0
 18 10  1  0  0  0  0
 19 18  1  0  0  0  0
 20 21  1  0  0  0  0
 21 19  1  0  0  0  0
 22 24  1  0  0  0  0
 22 21  1  0  0  0  0
 23 22  1  0  0  0  0
 24 25  1  0  0  0  0
 25 26  1  0  0  0  0
 27 26  1  0  0  0  0
 29 28  1  0  0  0  0
 30 29  1  0  0  0  0
 30 33  1  0  0  0  0
 31 32  1  0  0  0  0
 32 30  1  0  0  0  0
 34 33  1  0  0  0  0
M  END
>  <MODEL>
3

>  <REMARK>
 VINA RESULT:      -6.7      1.729      3.257
  Name = 
  12 active torsions:
  status: ('A' for Active; 'I' for Inactive)
    1  A    between atoms: C_3  and  C_16
    2  A    between atoms: C_3  and  C_19
    3  A    between atoms: C_5  and  C_11
    4  A    between atoms: C_5  and  C_19
    5  A    between atoms: O_8  and  C_12
    6  A    between atoms: O_8  and  C_16
    7  A    between atoms: C_11  and  C_20
    8  A    between atoms: C_17  and  C_28
    9  A    between atoms: C_28  and  C_29
   10  A    between atoms: C_29  and  C_32
   11  A    between atoms: O_31  and  C_32
   12  A    between atoms: C_32  and  C_34
                            x       y       z     vdW  Elec       q    Type
                         _______ _______ _______ _____ _____    ______ ____

>  <TORSDO>
F 12

$$$$
=
 OpenBabel11112418093D

 34 37  0  0  1  0  0  0  0  0999 V2000
  186.7990  177.2520  146.4400 C   0  0  2  0  0  3  0  0  0  0  0  0
  188.2400  175.4270  147.2370 N   0  0  0  0  0  2  0  0  0  0  0  0
  185.3920  178.3970  144.7330 C   0  0  0  0  0  2  0  0  0  0  0  0
  189.3750  177.2000  146.0460 C   0  0  2  0  0  3  0  0  0  0  0  0
  192.1480  177.0210  144.8690 C   0  0  0  0  0  2  0  0  0  0  0  0
  189.1060  177.1190  144.5230 C   0  0  1  0  0  3  0  0  0  0  0  0
  189.6130  174.9970  146.9840 C   0  0  0  0  0  2  0  0  0  0  0  0
  191.5080  175.7980  145.5170 C   0  0  2  0  0  3  0  0  0  0  0  0
  186.8310  178.1280  145.1850 C   0  0  2  0  0  3  0  0  0  0  0  0
  187.6360  177.3840  144.1150 C   0  0  1  0  0  3  0  0  0  0  0  0
  184.6000  178.2490  147.1010 C   0  0  0  0  0  2  0  0  0  0  0  0
  191.4320  177.3590  143.5710 C   0  0  0  0  0  2  0  0  0  0  0  0
  184.6190  179.1090  145.8400 C   0  0  0  0  0  2  0  0  0  0  0  0
  190.0980  178.0490  143.8230 C   0  0  0  0  0  2  0  0  0  0  0  0
  190.4180  176.2000  146.5210 C   0  0  1  0  0  3  0  0  0  0  0  0
  186.0250  177.9460  147.5570 C   0  0  0  0  0  2  0  0  0  0  0  0
  188.1880  176.8530  146.9410 C   0  0  1  0  0  3  0  0  0  0  0  0
  187.4270  177.8630  142.6680 C   0  0  0  0  0  2  0  0  0  0  0  0
  186.8100  176.7870  141.7840 C   0  0  0  0  0  2  0  0  0  0  0  0
  187.2730  176.0080  139.5710 O   0  0  0  0  0  1  0  0  0  0  0  0
  187.8500  176.2360  140.8240 C   0  0  2  0  0  3  0  0  0  0  0  0
  188.4500  174.9480  141.3810 C   0  0  1  0  0  3  0  0  0  0  0  0
  187.4990  174.2440  142.1230 O   0  0  0  0  0  1  0  0  0  0  0  0
  188.9760  174.0670  140.2600 C   0  0  0  0  0  2  0  0  0  0  0  0
  188.2390  172.8840  140.1970 O   0  0  0  0  0  0  0  0  0  0  0  0
  188.6400  172.2850  139.0030 C   0  0  0  0  0  2  0  0  0  0  0  0
  188.5330  173.2870  137.8730 C   0  0  0  0  0  1  0  0  0  0  0  0
  192.5810  174.9840  146.2240 C   0  0  0  0  0  2  0  0  0  0  0  0
  193.9170  175.1460  145.5210 C   0  0  0  0  0  2  0  0  0  0  0  0
  194.2230  173.9070  144.6770 C   0  0  1  0  0  3  0  0  0  0  0  0
  194.9300  171.8450  145.7220 O   0  0  0  0  0  1  0  0  0  0  0  0
  193.8120  172.5930  145.3440 C   0  0  0  0  0  2  0  0  0  0  0  0
  193.8330  174.0060  143.3210 O   0  0  0  0  0  0  0  0  0  0  0  0
  194.5010  175.0840  142.7210 C   0  0  0  0  0  1  0  0  0  0  0  0
  1 17  1  0  0  0  0
  1 16  1  1  0  0  0
  3  9  1  0  0  0  0
  3 13  1  0  0  0  0
  4 15  1  0  0  0  0
  4 17  1  0  0  0  0
  5  8  1  0  0  0  0
  6  4  1  0  0  0  0
  7  2  1  0  0  0  0
  8 28  1  0  0  0  0
  8 15  1  0  0  0  0
  9  1  1  0  0  0  0
 10  6  1  0  0  0  0
 10  9  1  0  0  0  0
 11 16  1  0  0  0  0
 12 14  1  0  0  0  0
 12  5  1  0  0  0  0
 13 11  1  0  0  0  0
 14  6  1  0  0  0  0
 15  7  1  0  0  0  0
 17  2  1  0  0  0  0
 18 10  1  0  0  0  0
 19 18  1  0  0  0  0
 20 21  1  0  0  0  0
 21 22  1  0  0  0  0
 21 19  1  0  0  0  0
 22 23  1  0  0  0  0
 24 22  1  0  0  0  0
 25 24  1  0  0  0  0
 26 25  1  0  0  0  0
 27 26  1  0  0  0  0
 29 28  1  0  0  0  0
 30 32  1  0  0  0  0
 30 29  1  0  0  0  0
 32 31  1  0  0  0  0
 33 30  1  0  0  0  0
 34 33  1  0  0  0  0
M  END
>  <MODEL>
4

>  <REMARK>
 VINA RESULT:      -6.6      1.339      1.881
  Name = 
  12 active torsions:
  status: ('A' for Active; 'I' for Inactive)
    1  A    between atoms: C_3  and  C_16
    2  A    between atoms: C_3  and  C_19
    3  A    between atoms: C_5  and  C_11
    4  A    between atoms: C_5  and  C_19
    5  A    between atoms: O_8  and  C_12
    6  A    between atoms: O_8  and  C_16
    7  A    between atoms: C_11  and  C_20
    8  A    between atoms: C_17  and  C_28
    9  A    between atoms: C_28  and  C_29
   10  A    between atoms: C_29  and  C_32
   11  A    between atoms: O_31  and  C_32
   12  A    between atoms: C_32  and  C_34
                            x       y       z     vdW  Elec       q    Type
                         _______ _______ _______ _____ _____    ______ ____

>  <TORSDO>
F 12

$$$$
=
 OpenBabel11112418093D

 34 37  0  0  1  0  0  0  0  0999 V2000
  186.0300  177.8110  144.2290 C   0  0  2  0  0  3  0  0  0  0  0  0
  186.9110  177.5800  141.9470 N   0  0  0  0  0  2  0  0  0  0  0  0
  186.2120  178.4210  146.6370 C   0  0  0  0  0  2  0  0  0  0  0  0
  187.3270  175.7030  143.4140 C   0  0  2  0  0  3  0  0  0  0  0  0
  189.3670  173.5290  142.9390 C   0  0  0  0  0  2  0  0  0  0  0  0
  188.4360  176.0280  144.4460 C   0  0  1  0  0  3  0  0  0  0  0  0
  187.8460  176.6790  141.2760 C   0  0  0  0  0  2  0  0  0  0  0  0
  189.2660  174.7110  141.9800 C   0  0  2  0  0  3  0  0  0  0  0  0
  186.5470  177.3500  145.5940 C   0  0  2  0  0  3  0  0  0  0  0  0
  188.0570  177.1260  145.4710 C   0  0  1  0  0  3  0  0  0  0  0  0
  184.1760  179.0760  145.3390 C   0  0  0  0  0  2  0  0  0  0  0  0
  189.9160  173.9900  144.2800 C   0  0  0  0  0  2  0  0  0  0  0  0
  184.7020  178.6350  146.7030 C   0  0  0  0  0  2  0  0  0  0  0  0
  188.8610  174.7160  145.1050 C   0  0  0  0  0  2  0  0  0  0  0  0
  187.8770  175.3630  142.0370 C   0  0  1  0  0  3  0  0  0  0  0  0
  184.5210  178.0350  144.2770 C   0  0  0  0  0  2  0  0  0  0  0  0
  186.3760  176.8520  143.0900 C   0  0  1  0  0  3  0  0  0  0  0  0
  188.8380  177.0910  146.7960 C   0  0  0  0  0  2  0  0  0  0  0  0
  190.2950  177.4990  146.6210 C   0  0  0  0  0  2  0  0  0  0  0  0
  191.5860  177.1520  148.6050 O   0  0  0  0  0  1  0  0  0  0  0  0
  191.2000  176.5590  147.3990 C   0  0  2  0  0  3  0  0  0  0  0  0
  192.4250  176.1980  146.5620 C   0  0  1  0  0  3  0  0  0  0  0  0
  192.6080  174.8140  146.5310 O   0  0  0  0  0  1  0  0  0  0  0  0
  192.2870  176.7260  145.1440 C   0  0  0  0  0  2  0  0  0  0  0  0
  193.0220  175.9310  144.2640 O   0  0  0  0  0  0  0  0  0  0  0  0
  192.5430  176.2720  143.0000 C   0  0  0  0  0  2  0  0  0  0  0  0
  191.5600  177.4170  143.1240 C   0  0  0  0  0  1  0  0  0  0  0  0
  189.5520  174.2360  140.5640 C   0  0  0  0  0  2  0  0  0  0  0  0
  188.9460  172.8620  140.3350 C   0  0  0  0  0  2  0  0  0  0  0  0
  189.4980  172.2500  139.0460 C   0  0  1  0  0  3  0  0  0  0  0  0
  190.6530  173.2260  137.1600 O   0  0  0  0  0  1  0  0  0  0  0  0
  189.4340  173.1930  137.8420 C   0  0  0  0  0  2  0  0  0  0  0  0
  190.7420  171.5930  139.1910 O   0  0  0  0  0  0  0  0  0  0  0  0
  190.6880  170.7280  140.2950 C   0  0  0  0  0  1  0  0  0  0  0  0
  1 16  1  1  0  0  0
  1  9  1  0  0  0  0
  2 17  1  0  0  0  0
  3 13  1  0  0  0  0
  4  6  1  0  0  0  0
  5 12  1  0  0  0  0
  6 14  1  0  0  0  0
  6 10  1  0  0  0  0
  7  2  1  0  0  0  0
  7 15  1  0  0  0  0
  8 15  1  0  0  0  0
  8  5  1  0  0  0  0
  9  3  1  0  0  0  0
 10  9  1  0  0  0  0
 10 18  1  0  0  0  0
 11 13  1  0  0  0  0
 12 14  1  0  0  0  0
 15  4  1  0  0  0  0
 16 11  1  0  0  0  0
 17  4  1  0  0  0  0
 17  1  1  0  0  0  0
 19 18  1  0  0  0  0
 19 21  1  0  0  0  0
 21 20  1  0  0  0  0
 22 21  1  0  0  0  0
 23 22  1  0  0  0  0
 24 22  1  0  0  0  0
 25 24  1  0  0  0  0
 26 27  1  0  0  0  0
 26 25  1  0  0  0  0
 28  8  1  0  0  0  0
 29 28  1  0  0  0  0
 30 33  1  0  0  0  0
 30 29  1  0  0  0  0
 31 32  1  0  0  0  0
 32 30  1  0  0  0  0
 33 34  1  0  0  0  0
M  END
>  <MODEL>
5

>  <REMARK>
 VINA RESULT:      -6.2      2.522      5.766
  Name = 
  12 active torsions:
  status: ('A' for Active; 'I' for Inactive)
    1  A    between atoms: C_3  and  C_16
    2  A    between atoms: C_3  and  C_19
    3  A    between atoms: C_5  and  C_11
    4  A    between atoms: C_5  and  C_19
    5  A    between atoms: O_8  and  C_12
    6  A    between atoms: O_8  and  C_16
    7  A    between atoms: C_11  and  C_20
    8  A    between atoms: C_17  and  C_28
    9  A    between atoms: C_28  and  C_29
   10  A    between atoms: C_29  and  C_32
   11  A    between atoms: O_31  and  C_32
   12  A    between atoms: C_32  and  C_34
                            x       y       z     vdW  Elec       q    Type
                         _______ _______ _______ _____ _____    ______ ____

>  <TORSDO>
F 12

$$$$
=
 OpenBabel11112418093D

 34 37  0  0  1  0  0  0  0  0999 V2000
  185.7160  178.1760  144.8960 C   0  0  2  0  0  3  0  0  0  0  0  0
  185.1300  178.9160  142.6270 N   0  0  0  0  0  2  0  0  0  0  0  0
  187.2430  177.9910  146.8560 C   0  0  0  0  0  2  0  0  0  0  0  0
  186.3260  176.8180  142.7570 C   0  0  2  0  0  3  0  0  0  0  0  0
  187.7370  175.4630  140.4580 C   0  0  0  0  0  2  0  0  0  0  0  0
  187.8240  177.0400  143.0830 C   0  0  1  0  0  3  0  0  0  0  0  0
  185.5170  178.5300  141.2720 C   0  0  0  0  0  2  0  0  0  0  0  0
  187.0970  176.8340  140.2670 C   0  0  2  0  0  3  0  0  0  0  0  0
  186.9260  177.4310  145.4650 C   0  0  2  0  0  3  0  0  0  0  0  0
  188.0940  177.6210  144.4930 C   0  0  1  0  0  3  0  0  0  0  0  0
  184.8270  178.5340  147.2090 C   0  0  0  0  0  2  0  0  0  0  0  0
  188.9540  175.5770  141.3640 C   0  0  0  0  0  2  0  0  0  0  0  0
  186.0430  177.8100  147.7810 C   0  0  0  0  0  2  0  0  0  0  0  0
  188.5590  175.7240  142.8280 C   0  0  0  0  0  2  0  0  0  0  0  0
  185.9870  177.0850  141.2980 C   0  0  1  0  0  3  0  0  0  0  0  0
  184.5060  178.0090  145.8120 C   0  0  0  0  0  2  0  0  0  0  0  0
  185.3520  177.7500  143.4730 C   0  0  1  0  0  3  0  0  0  0  0  0
  189.4940  177.3420  145.0660 C   0  0  0  0  0  2  0  0  0  0  0  0
  190.5820  178.1320  144.3500 C   0  0  0  0  0  2  0  0  0  0  0  0
  192.2080  177.1300  142.9110 O   0  0  0  0  0  1  0  0  0  0  0  0
  191.8520  177.3060  144.2520 C   0  0  2  0  0  3  0  0  0  0  0  0
  191.6550  175.9560  144.9370 C   0  0  1  0  0  3  0  0  0  0  0  0
  191.9510  174.9110  144.0590 O   0  0  0  0  0  1  0  0  0  0  0  0
  192.5310  175.8450  146.1740 C   0  0  0  0  0  2  0  0  0  0  0  0
  191.9770  174.9300  147.0710 O   0  0  0  0  0  0  0  0  0  0  0  0
  190.9880  175.6500  147.7390 C   0  0  0  0  0  2  0  0  0  0  0  0
  189.6700  174.9100  147.6390 C   0  0  0  0  0  1  0  0  0  0  0  0
  186.5220  176.9280  138.8610 C   0  0  0  0  0  2  0  0  0  0  0  0
  187.0300  175.7820  138.0040 C   0  0  0  0  0  2  0  0  0  0  0  0
  186.7700  176.0740  136.5250 C   0  0  1  0  0  3  0  0  0  0  0  0
  185.1160  176.2110  134.7680 O   0  0  0  0  0  1  0  0  0  0  0  0
  185.2880  176.0360  136.1430 C   0  0  0  0  0  2  0  0  0  0  0  0
  187.4620  177.1970  136.0150 O   0  0  0  0  0  0  0  0  0  0  0  0
  188.4690  176.7640  135.1370 C   0  0  0  0  0  1  0  0  0  0  0  0
  1  9  1  0  0  0  0
  1 16  1  1  0  0  0
  2 17  1  0  0  0  0
  3 13  1  0  0  0  0
  4  6  1  0  0  0  0
  4 17  1  0  0  0  0
  5 12  1  0  0  0  0
  6 10  1  0  0  0  0
  7 15  1  0  0  0  0
  7  2  1  0  0  0  0
  8  5  1  0  0  0  0
  8 15  1  0  0  0  0
  9  3  1  0  0  0  0
 10 18  1  0  0  0  0
 10  9  1  0  0  0  0
 11 13  1  0  0  0  0
 12 14  1  0  0  0  0
 14  6  1  0  0  0  0
 15  4  1  0  0  0  0
 16 11  1  0  0  0  0
 17  1  1  0  0  0  0
 19 18  1  0  0  0  0
 20 21  1  0  0  0  0
 21 19  1  0  0  0  0
 21 22  1  0  0  0  0
 22 24  1  0  0  0  0
 23 22  1  0  0  0  0
 24 25  1  0  0  0  0
 25 26  1  0  0  0  0
 27 26  1  0  0  0  0
 28  8  1  0  0  0  0
 29 28  1  0  0  0  0
 30 29  1  0  0  0  0
 31 32  1  0  0  0  0
 32 30  1  0  0  0  0
 33 30  1  0  0  0  0
 34 33  1  0  0  0  0
M  END
>  <MODEL>
6

>  <REMARK>
 VINA RESULT:      -6.2      2.921      6.993
  Name = 
  12 active torsions:
  status: ('A' for Active; 'I' for Inactive)
    1  A    between atoms: C_3  and  C_16
    2  A    between atoms: C_3  and  C_19
    3  A    between atoms: C_5  and  C_11
    4  A    between atoms: C_5  and  C_19
    5  A    between atoms: O_8  and  C_12
    6  A    between atoms: O_8  and  C_16
    7  A    between atoms: C_11  and  C_20
    8  A    between atoms: C_17  and  C_28
    9  A    between atoms: C_28  and  C_29
   10  A    between atoms: C_29  and  C_32
   11  A    between atoms: O_31  and  C_32
   12  A    between atoms: C_32  and  C_34
                            x       y       z     vdW  Elec       q    Type
                         _______ _______ _______ _____ _____    ______ ____

>  <TORSDO>
F 12

$$$$
=
 OpenBabel11112418093D

 34 37  0  0  1  0  0  0  0  0999 V2000
  190.3010  174.9930  146.0050 C   0  0  2  0  0  3  0  0  0  0  0  0
  189.8550  172.8910  144.8110 N   0  0  0  0  0  2  0  0  0  0  0  0
  189.6150  177.0370  147.2510 C   0  0  0  0  0  2  0  0  0  0  0  0
  189.7640  174.8930  143.4560 C   0  0  2  0  0  3  0  0  0  0  0  0
  188.4910  175.1020  140.7280 C   0  0  0  0  0  2  0  0  0  0  0  0
  188.4730  175.7030  143.7310 C   0  0  1  0  0  3  0  0  0  0  0  0
  189.3100  172.5300  143.5040 C   0  0  0  0  0  2  0  0  0  0  0  0
  188.4000  173.8020  141.5210 C   0  0  2  0  0  3  0  0  0  0  0  0
  189.7400  176.4090  145.8590 C   0  0  2  0  0  3  0  0  0  0  0  0
  188.3840  176.3060  145.1550 C   0  0  1  0  0  3  0  0  0  0  0  0
  191.5570  175.6820  148.0580 C   0  0  0  0  0  2  0  0  0  0  0  0
  187.6500  176.1800  141.3930 C   0  0  0  0  0  2  0  0  0  0  0  0
  190.9820  177.0910  147.9270 C   0  0  0  0  0  2  0  0  0  0  0  0
  188.3340  176.7520  142.6280 C   0  0  0  0  0  2  0  0  0  0  0  0
  189.5330  173.6920  142.5510 C   0  0  1  0  0  3  0  0  0  0  0  0
  191.6680  175.0260  146.6840 C   0  0  0  0  0  2  0  0  0  0  0  0
  190.4000  174.2360  144.6790 C   0  0  1  0  0  3  0  0  0  0  0  0
  187.4600  177.5280  145.2990 C   0  0  0  0  0  2  0  0  0  0  0  0
  185.9870  177.1450  145.2940 C   0  0  0  0  0  2  0  0  0  0  0  0
  184.0760  177.9040  146.5160 O   0  0  0  0  0  1  0  0  0  0  0  0
  185.1340  178.3320  145.7070 C   0  0  2  0  0  3  0  0  0  0  0  0
  184.6070  179.0560  144.4710 C   0  0  1  0  0  3  0  0  0  0  0  0
  185.4050  180.1610  144.1710 O   0  0  0  0  0  1  0  0  0  0  0  0
  184.5620  178.1200  143.2740 C   0  0  0  0  0  2  0  0  0  0  0  0
  185.2640  178.6780  142.2050 O   0  0  0  0  0  0  0  0  0  0  0  0
  184.6050  178.2080  141.0700 C   0  0  0  0  0  2  0  0  0  0  0  0
  183.1080  178.2920  141.2830 C   0  0  0  0  0  1  0  0  0  0  0  0
  188.4620  172.6230  140.5620 C   0  0  0  0  0  2  0  0  0  0  0  0
  189.8420  172.5250  139.9330 C   0  0  0  0  0  2  0  0  0  0  0  0
  189.7250  172.4890  138.4080 C   0  0  1  0  0  3  0  0  0  0  0  0
  189.4510  170.0930  138.2370 O   0  0  0  0  0  1  0  0  0  0  0  0
  190.2090  171.1770  137.7860 C   0  0  0  0  0  2  0  0  0  0  0  0
  188.4830  172.9370  137.9010 O   0  0  0  0  0  0  0  0  0  0  0  0
  188.6700  174.1450  137.2100 C   0  0  0  0  0  1  0  0  0  0  0  0
  1 16  1  6  0  0  0
  3 13  1  0  0  0  0
  4  6  1  0  0  0  0
  4 17  1  0  0  0  0
  5 12  1  0  0  0  0
  5  8  1  0  0  0  0
  6 10  1  0  0  0  0
  7  2  1  0  0  0  0
  8 15  1  0  0  0  0
  9  1  1  0  0  0  0
  9  3  1  0  0  0  0
 10 18  1  0  0  0  0
 10  9  1  0  0  0  0
 12 14  1  0  0  0  0
 13 11  1  0  0  0  0
 14  6  1  0  0  0  0
 15  4  1  0  0  0  0
 15  7  1  0  0  0  0
 16 11  1  0  0  0  0
 17  2  1  0  0  0  0
 17  1  1  0  0  0  0
 19 18  1  0  0  0  0
 19 21  1  0  0  0  0
 21 20  1  0  0  0  0
 22 21  1  0  0  0  0
 23 22  1  0  0  0  0
 24 22  1  0  0  0  0
 25 24  1  0  0  0  0
 26 27  1  0  0  0  0
 26 25  1  0  0  0  0
 28  8  1  0  0  0  0
 29 28  1  0  0  0  0
 30 29  1  0  0  0  0
 32 31  1  0  0  0  0
 32 30  1  0  0  0  0
 33 30  1  0  0  0  0
 34 33  1  0  0  0  0
M  END
>  <MODEL>
7

>  <REMARK>
 VINA RESULT:      -6.2      3.356      6.624
  Name = 
  12 active torsions:
  status: ('A' for Active; 'I' for Inactive)
    1  A    between atoms: C_3  and  C_16
    2  A    between atoms: C_3  and  C_19
    3  A    between atoms: C_5  and  C_11
    4  A    between atoms: C_5  and  C_19
    5  A    between atoms: O_8  and  C_12
    6  A    between atoms: O_8  and  C_16
    7  A    between atoms: C_11  and  C_20
    8  A    between atoms: C_17  and  C_28
    9  A    between atoms: C_28  and  C_29
   10  A    between atoms: C_29  and  C_32
   11  A    between atoms: O_31  and  C_32
   12  A    between atoms: C_32  and  C_34
                            x       y       z     vdW  Elec       q    Type
                         _______ _______ _______ _____ _____    ______ ____

>  <TORSDO>
F 12

$$$$
=
 OpenBabel11112418093D

 34 37  0  0  1  0  0  0  0  0999 V2000
  187.8820  176.3690  146.0310 C   0  0  2  0  0  3  0  0  0  0  0  0
  189.6810  175.3710  147.3760 N   0  0  0  0  0  2  0  0  0  0  0  0
  186.3800  176.4770  144.0470 C   0  0  0  0  0  2  0  0  0  0  0  0
  190.4030  176.9280  145.6710 C   0  0  2  0  0  3  0  0  0  0  0  0
  193.2180  177.1810  144.6120 C   0  0  0  0  0  2  0  0  0  0  0  0
  190.3050  176.3020  144.2570 C   0  0  1  0  0  3  0  0  0  0  0  0
  191.1360  175.2900  147.2750 C   0  0  0  0  0  2  0  0  0  0  0  0
  192.8720  176.0930  145.6240 C   0  0  2  0  0  3  0  0  0  0  0  0
  187.7920  176.7800  144.5590 C   0  0  2  0  0  3  0  0  0  0  0  0
  188.8600  175.9990  143.7880 C   0  0  1  0  0  3  0  0  0  0  0  0
  185.4460  176.8590  146.3360 C   0  0  0  0  0  2  0  0  0  0  0  0
  192.5570  176.8790  143.2760 C   0  0  0  0  0  2  0  0  0  0  0  0
  185.3480  177.2490  144.8630 C   0  0  0  0  0  2  0  0  0  0  0  0
  191.0700  177.2070  143.2910 C   0  0  0  0  0  2  0  0  0  0  0  0
  191.6280  176.4640  146.4440 C   0  0  1  0  0  3  0  0  0  0  0  0
  186.8530  177.1290  146.8630 C   0  0  0  0  0  2  0  0  0  0  0  0
  189.2760  176.5570  146.6320 C   0  0  1  0  0  3  0  0  0  0  0  0
  188.6620  175.9220  142.2640 C   0  0  0  0  0  2  0  0  0  0  0  0
  189.2530  174.6510  141.6670 C   0  0  0  0  0  2  0  0  0  0  0  0
  187.9200  172.6920  141.9900 O   0  0  0  0  0  1  0  0  0  0  0  0
  188.1470  173.7650  141.1220 C   0  0  2  0  0  3  0  0  0  0  0  0
  188.5160  173.2600  139.7290 C   0  0  1  0  0  3  0  0  0  0  0  0
  188.2150  174.2220  138.7630 O   0  0  0  0  0  1  0  0  0  0  0  0
  189.9920  172.9080  139.6550 C   0  0  0  0  0  2  0  0  0  0  0  0
  190.1560  171.5230  139.7010 O   0  0  0  0  0  0  0  0  0  0  0  0
  189.7690  171.0830  138.4360 C   0  0  0  0  0  2  0  0  0  0  0  0
  189.9580  169.5830  138.3430 C   0  0  0  0  0  1  0  0  0  0  0  0
  194.0560  175.8790  146.5560 C   0  0  0  0  0  2  0  0  0  0  0  0
  195.0780  174.9620  145.9090 C   0  0  0  0  0  2  0  0  0  0  0  0
  194.3740  173.9070  145.0530 C   0  0  1  0  0  3  0  0  0  0  0  0
  195.4820  174.7940  143.0960 O   0  0  0  0  0  1  0  0  0  0  0  0
  195.0880  173.6130  143.7310 C   0  0  0  0  0  2  0  0  0  0  0  0
  193.9750  172.7470  145.7550 O   0  0  0  0  0  0  0  0  0  0  0  0
  194.4640  171.6100  145.0940 C   0  0  0  0  0  1  0  0  0  0  0  0
  1 17  1  0  0  0  0
  1 16  1  1  0  0  0
  3  9  1  0  0  0  0
  3 13  1  0  0  0  0
  4 15  1  0  0  0  0
  4 17  1  0  0  0  0
  5  8  1  0  0  0  0
  6  4  1  0  0  0  0
  7  2  1  0  0  0  0
  8 15  1  0  0  0  0
  8 28  1  0  0  0  0
  9  1  1  0  0  0  0
 10  6  1  0  0  0  0
 10  9  1  0  0  0  0
 11 16  1  0  0  0  0
 12 14  1  0  0  0  0
 12  5  1  0  0  0  0
 13 11  1  0  0  0  0
 14  6  1  0  0  0  0
 15  7  1  0  0  0  0
 17  2  1  0  0  0  0
 18 10  1  0  0  0  0
 19 18  1  0  0  0  0
 21 19  1  0  0  0  0
 21 20  1  0  0  0  0
 22 21  1  0  0  0  0
 23 22  1  0  0  0  0
 24 25  1  0  0  0  0
 24 22  1  0  0  0  0
 26 25  1  0  0  0  0
 27 26  1  0  0  0  0
 29 28  1  0  0  0  0
 30 33  1  0  0  0  0
 30 29  1  0  0  0  0
 31 32  1  0  0  0  0
 32 30  1  0  0  0  0
 34 33  1  0  0  0  0
M  END
>  <MODEL>
8

>  <REMARK>
 VINA RESULT:      -6.0      1.959      2.599
  Name = 
  12 active torsions:
  status: ('A' for Active; 'I' for Inactive)
    1  A    between atoms: C_3  and  C_16
    2  A    between atoms: C_3  and  C_19
    3  A    between atoms: C_5  and  C_11
    4  A    between atoms: C_5  and  C_19
    5  A    between atoms: O_8  and  C_12
    6  A    between atoms: O_8  and  C_16
    7  A    between atoms: C_11  and  C_20
    8  A    between atoms: C_17  and  C_28
    9  A    between atoms: C_28  and  C_29
   10  A    between atoms: C_29  and  C_32
   11  A    between atoms: O_31  and  C_32
   12  A    between atoms: C_32  and  C_34
                            x       y       z     vdW  Elec       q    Type
                         _______ _______ _______ _____ _____    ______ ____

>  <TORSDO>
F 12

$$$$
=
 OpenBabel11112418093D

 34 37  0  0  1  0  0  0  0  0999 V2000
  192.2600  174.7570  144.8950 C   0  0  2  0  0  3  0  0  0  0  0  0
  191.3450  172.7780  143.7610 N   0  0  0  0  0  2  0  0  0  0  0  0
  192.1990  176.5830  146.5880 C   0  0  0  0  0  2  0  0  0  0  0  0
  190.6000  174.9080  142.8920 C   0  0  2  0  0  3  0  0  0  0  0  0
  188.1990  175.3280  141.1110 C   0  0  0  0  0  2  0  0  0  0  0  0
  189.5710  175.5760  143.8390 C   0  0  1  0  0  3  0  0  0  0  0  0
  190.2610  172.5270  142.8140 C   0  0  0  0  0  2  0  0  0  0  0  0
  188.5100  173.9420  141.6690 C   0  0  2  0  0  3  0  0  0  0  0  0
  191.6710  176.1320  145.2210 C   0  0  2  0  0  3  0  0  0  0  0  0
  190.1460  176.0020  145.2130 C   0  0  1  0  0  3  0  0  0  0  0  0
  194.3150  175.3030  146.2160 C   0  0  0  0  0  2  0  0  0  0  0  0
  187.7460  176.2520  142.2310 C   0  0  0  0  0  2  0  0  0  0  0  0
  193.7220  176.6670  146.5610 C   0  0  0  0  0  2  0  0  0  0  0  0
  188.9170  176.7300  143.0800 C   0  0  0  0  0  2  0  0  0  0  0  0
  189.9940  173.8050  142.0370 C   0  0  1  0  0  3  0  0  0  0  0  0
  193.7850  174.8210  144.8680 C   0  0  0  0  0  2  0  0  0  0  0  0
  191.7430  174.1680  143.5820 C   0  0  1  0  0  3  0  0  0  0  0  0
  189.3750  177.1220  145.9330 C   0  0  0  0  0  2  0  0  0  0  0  0
  188.0750  176.6250  146.5520 C   0  0  0  0  0  2  0  0  0  0  0  0
  186.5780  178.1280  147.6560 O   0  0  0  0  0  1  0  0  0  0  0  0
  186.9870  177.6730  146.3990 C   0  0  2  0  0  3  0  0  0  0  0  0
  185.8040  177.0940  145.6270 C   0  0  1  0  0  3  0  0  0  0  0  0
  184.8580  176.5590  146.5050 O   0  0  0  0  0  1  0  0  0  0  0  0
  185.1510  178.1570  144.7600 C   0  0  0  0  0  2  0  0  0  0  0  0
  184.8090  177.6170  143.5190 O   0  0  0  0  0  0  0  0  0  0  0  0
  185.0480  178.6480  142.6110 C   0  0  0  0  0  2  0  0  0  0  0  0
  184.4470  178.2870  141.2680 C   0  0  0  0  0  1  0  0  0  0  0  0
  188.1380  172.8900  140.6350 C   0  0  0  0  0  2  0  0  0  0  0  0
  188.3630  173.4260  139.2310 C   0  0  0  0  0  2  0  0  0  0  0  0
  189.4430  172.6070  138.5210 C   0  0  1  0  0  3  0  0  0  0  0  0
  191.6940  173.3890  138.9270 O   0  0  0  0  0  1  0  0  0  0  0  0
  190.6250  173.4470  138.0300 C   0  0  0  0  0  2  0  0  0  0  0  0
  189.8240  171.4240  139.1940 O   0  0  0  0  0  0  0  0  0  0  0  0
  189.8810  170.3630  138.2750 C   0  0  0  0  0  1  0  0  0  0  0  0
  1 16  1  6  0  0  0
  1  9  1  0  0  0  0
  4 17  1  0  0  0  0
  4  6  1  0  0  0  0
  5  8  1  0  0  0  0
  5 12  1  0  0  0  0
  6 10  1  0  0  0  0
  7  2  1  0  0  0  0
  8 15  1  0  0  0  0
  9  3  1  0  0  0  0
 10  9  1  0  0  0  0
 10 18  1  0  0  0  0
 11 13  1  0  0  0  0
 12 14  1  0  0  0  0
 13  3  1  0  0  0  0
 14  6  1  0  0  0  0
 15  7  1  0  0  0  0
 15  4  1  0  0  0  0
 16 11  1  0  0  0  0
 17  2  1  0  0  0  0
 17  1  1  0  0  0  0
 18 19  1  0  0  0  0
 21 19  1  0  0  0  0
 21 20  1  0  0  0  0
 22 21  1  0  0  0  0
 22 23  1  0  0  0  0
 24 22  1  0  0  0  0
 25 24  1  0  0  0  0
 26 25  1  0  0  0  0
 27 26  1  0  0  0  0
 28  8  1  0  0  0  0
 29 28  1  0  0  0  0
 30 33  1  0  0  0  0
 30 29  1  0  0  0  0
 32 30  1  0  0  0  0
 32 31  1  0  0  0  0
 34 33  1  0  0  0  0
M  END
>  <MODEL>
9

>  <REMARK>
 VINA RESULT:      -5.8      3.040      6.881
  Name = 
  12 active torsions:
  status: ('A' for Active; 'I' for Inactive)
    1  A    between atoms: C_3  and  C_16
    2  A    between atoms: C_3  and  C_19
    3  A    between atoms: C_5  and  C_11
    4  A    between atoms: C_5  and  C_19
    5  A    between atoms: O_8  and  C_12
    6  A    between atoms: O_8  and  C_16
    7  A    between atoms: C_11  and  C_20
    8  A    between atoms: C_17  and  C_28
    9  A    between atoms: C_28  and  C_29
   10  A    between atoms: C_29  and  C_32
   11  A    between atoms: O_31  and  C_32
   12  A    between atoms: C_32  and  C_34
                            x       y       z     vdW  Elec       q    Type
                         _______ _______ _______ _____ _____    ______ ____

>  <TORSDO>
F 12

$$$$
