=
 OpenBabel11112417133D

 37 42  0  0  1  0  0  0  0  0999 V2000
  195.4100  175.9570  143.2290 C   0  0  0  0  0  0  0  0  0  0  0  0
  191.7690  175.6750  145.2600 C   0  0  0  0  0  0  0  0  0  0  0  0
  189.7700  177.5970  144.1650 C   0  0  0  0  0  1  0  0  0  0  0  0
  194.0680  176.3260  145.3740 C   0  0  0  0  0  0  0  0  0  0  0  0
  190.7790  175.2580  144.2210 C   0  0  1  0  0  3  0  0  0  0  0  0
  192.9890  175.7990  144.6870 C   0  0  0  0  0  0  0  0  0  0  0  0
  189.4970  176.0970  144.2590 C   0  0  1  0  0  3  0  0  0  0  0  0
  193.8860  176.7130  146.6700 N   0  0  0  0  0  0  0  0  0  0  0  0
  192.9750  175.5630  143.3040 N   0  0  0  0  0  0  0  0  0  0  0  0
  195.8190  174.5030  143.3930 C   0  0  0  0  0  1  0  0  0  0  0  0
  190.1690  176.2180  147.1390 C   0  0  0  0  0  2  0  0  0  0  0  0
  192.6610  176.6090  147.2800 C   0  0  0  0  0  3  0  0  0  0  0  0
  194.0710  176.0340  142.4620 C   0  0  0  0  0  2  0  0  0  0  0  0
  191.5550  176.0900  146.5780 C   0  0  0  0  0  0  0  0  0  0  0  0
  191.5820  175.3770  142.8920 C   0  0  1  0  0  3  0  0  0  0  0  0
  195.3360  176.6340  144.6220 C   0  0  0  0  0  2  0  0  0  0  0  0
  188.6380  175.7110  145.4890 C   0  0  1  0  0  3  0  0  0  0  0  0
  196.4730  176.6580  142.4120 C   0  0  0  0  0  1  0  0  0  0  0  0
  189.3180  175.2180  146.6320 O   0  0  0  0  0  0  0  0  0  0  0  0
  191.7890  172.8270  142.7260 C   0  0  0  0  0  2  0  0  0  0  0  0
  191.3400  171.6940  141.9240 N   0  0  0  0  0  0  0  0  0  0  0  0
  189.0240  172.2930  142.8450 C   0  0  2  0  0  3  0  0  0  0  0  0
  190.0210  171.2150  142.3650 C   0  0  0  0  0  2  0  0  0  0  0  0
  188.9640  173.5720  142.0470 C   0  0  0  0  0  0  0  0  0  0  0  0
  187.9280  174.2180  142.0600 O   0  0  0  0  0  0  0  0  0  0  0  0
  190.1180  174.0890  141.2340 C   0  0  0  0  0  2  0  0  0  0  0  0
  189.2150  172.5700  144.1870 F   0  0  0  0  0  0  0  0  0  0  0  0
  191.4470  174.1360  142.0030 C   0  0  1  0  0  3  0  0  0  0  0  0
  192.5640  170.4880  143.6420 C   0  0  0  0  0  1  0  0  0  0  0  0
  192.2750  170.6080  142.1570 C   0  0  0  0  0  2  0  0  0  0  0  0
  187.1960  177.0870  147.0470 C   0  0  0  0  0  3  0  0  0  0  0  0
  187.4220  176.5420  145.7760 C   0  0  0  0  0  0  0  0  0  0  0  0
  186.5100  176.7910  144.7450 C   0  0  0  0  0  3  0  0  0  0  0  0
  184.4950  177.8110  143.9820 F   0  0  0  0  0  0  0  0  0  0  0  0
  185.1520  178.1130  146.2530 C   0  0  0  0  0  3  0  0  0  0  0  0
  185.3760  177.5740  144.9830 C   0  0  0  0  0  0  0  0  0  0  0  0
  186.0630  177.8710  147.2850 C   0  0  0  0  0  3  0  0  0  0  0  0
  1 10  1  0  0  0  0
  1 16  1  0  0  0  0
  2 14  1  0  0  0  0
  4  8  2  0  0  0  0
  5  7  1  0  0  0  0
  5  2  1  1  0  0  0
  6  2  2  0  0  0  0
  6  4  1  0  0  0  0
  7  3  1  1  0  0  0
  7 17  1  0  0  0  0
  8 12  1  0  0  0  0
  9  6  1  0  0  0  0
 13  1  1  0  0  0  0
 13  9  1  0  0  0  0
 14 11  1  0  0  0  0
 14 12  2  0  0  0  0
 15  9  1  1  0  0  0
 15  5  1  0  0  0  0
 16  4  1  0  0  0  0
 17 32  1  1  0  0  0
 17 19  1  0  0  0  0
 18  1  1  0  0  0  0
 19 11  1  0  0  0  0
 21 30  1  0  0  0  0
 21 23  1  0  0  0  0
 21 20  1  0  0  0  0
 22 27  1  1  0  0  0
 23 22  1  0  0  0  0
 24 25  2  0  0  0  0
 24 22  1  0  0  0  0
 26 24  1  0  0  0  0
 28 26  1  1  0  0  0
 28 20  1  0  0  0  0
 28 15  1  0  0  0  0
 30 29  1  0  0  0  0
 31 37  1  0  0  0  0
 32 31  2  0  0  0  0
 33 36  2  0  0  0  0
 33 32  1  0  0  0  0
 34 36  1  0  0  0  0
 35 37  2  0  0  0  0
 36 35  1  0  0  0  0
M  END
>  <MODEL>
1

>  <REMARK>
 VINA RESULT:      -9.3      0.000      0.000
  Name = 
  3 active torsions:
  status: ('A' for Active; 'I' for Inactive)
    1  A    between atoms: N_4  and  C_37
    2  A    between atoms: C_21  and  C_27
    3  A    between atoms: C_23  and  C_30
                            x       y       z     vdW  Elec       q    Type
                         _______ _______ _______ _____ _____    ______ ____

>  <TORSDO>
F 3

$$$$
=
 OpenBabel11112417133D

 37 42  0  0  1  0  0  0  0  0999 V2000
  189.5410  172.4710  139.2530 C   0  0  0  0  0  0  0  0  0  0  0  0
  188.2220  175.9400  141.1730 C   0  0  0  0  0  0  0  0  0  0  0  0
  186.3240  175.2980  143.3810 C   0  0  0  0  0  1  0  0  0  0  0  0
  188.1700  174.6270  139.1740 C   0  0  0  0  0  0  0  0  0  0  0  0
  188.6920  175.8020  142.5850 C   0  0  1  0  0  3  0  0  0  0  0  0
  188.6020  174.8480  140.4690 C   0  0  0  0  0  0  0  0  0  0  0  0
  187.5920  176.1200  143.6050 C   0  0  1  0  0  3  0  0  0  0  0  0
  187.3500  175.5530  138.5970 N   0  0  0  0  0  0  0  0  0  0  0  0
  189.2640  173.8910  141.2530 N   0  0  0  0  0  0  0  0  0  0  0  0
  190.9160  172.9900  138.8700 C   0  0  0  0  0  1  0  0  0  0  0  0
  186.7140  177.9480  141.4490 C   0  0  0  0  0  2  0  0  0  0  0  0
  186.9380  176.6670  139.2830 C   0  0  0  0  0  3  0  0  0  0  0  0
  189.3840  172.5110  140.7900 C   0  0  0  0  0  2  0  0  0  0  0  0
  187.3610  176.8870  140.6100 C   0  0  0  0  0  0  0  0  0  0  0  0
  189.2170  174.3380  142.6470 C   0  0  1  0  0  3  0  0  0  0  0  0
  188.4520  173.2980  138.5240 C   0  0  0  0  0  2  0  0  0  0  0  0
  187.3290  177.6450  143.6530 C   0  0  1  0  0  3  0  0  0  0  0  0
  189.4350  171.0320  138.7970 C   0  0  0  0  0  1  0  0  0  0  0  0
  187.5770  178.3890  142.4710 O   0  0  0  0  0  0  0  0  0  0  0  0
  191.4180  175.5270  143.2070 C   0  0  0  0  0  2  0  0  0  0  0  0
  192.5690  175.4400  144.0990 N   0  0  0  0  0  0  0  0  0  0  0  0
  190.8520  175.9370  145.9360 C   0  0  2  0  0  3  0  0  0  0  0  0
  192.2910  176.0810  145.3930 C   0  0  0  0  0  2  0  0  0  0  0  0
  190.1940  174.5890  145.7790 C   0  0  0  0  0  0  0  0  0  0  0  0
  189.3170  174.2730  146.5680 O   0  0  0  0  0  0  0  0  0  0  0  0
  190.5670  173.6140  144.6970 C   0  0  0  0  0  2  0  0  0  0  0  0
  190.0380  176.9340  145.4290 F   0  0  0  0  0  0  0  0  0  0  0  0
  190.6040  174.2300  143.2910 C   0  0  1  0  0  3  0  0  0  0  0  0
  194.7250  176.4840  144.5110 C   0  0  0  0  0  1  0  0  0  0  0  0
  193.6450  176.1980  143.4850 C   0  0  0  0  0  2  0  0  0  0  0  0
  185.0120  178.6360  143.8830 C   0  0  0  0  0  3  0  0  0  0  0  0
  186.1720  178.1250  144.4800 C   0  0  0  0  0  0  0  0  0  0  0  0
  186.2510  178.0380  145.8750 C   0  0  0  0  0  3  0  0  0  0  0  0
  185.2630  178.3800  148.0170 F   0  0  0  0  0  0  0  0  0  0  0  0
  184.0270  178.9770  146.0680 C   0  0  0  0  0  3  0  0  0  0  0  0
  185.1810  178.4650  146.6670 C   0  0  0  0  0  0  0  0  0  0  0  0
  183.9420  179.0620  144.6750 C   0  0  0  0  0  3  0  0  0  0  0  0
  1 13  1  0  0  0  0
  4  6  1  0  0  0  0
  5  2  1  6  0  0  0
  5 15  1  0  0  0  0
  5  7  1  0  0  0  0
  6  2  2  0  0  0  0
  6  9  1  0  0  0  0
  7  3  1  6  0  0  0
  7 17  1  0  0  0  0
  8  4  2  0  0  0  0
  8 12  1  0  0  0  0
 10  1  1  0  0  0  0
 11 19  1  0  0  0  0
 12 14  2  0  0  0  0
 13  9  1  0  0  0  0
 14  2  1  0  0  0  0
 14 11  1  0  0  0  0
 15  9  1  6  0  0  0
 15 28  1  0  0  0  0
 16  4  1  0  0  0  0
 16  1  1  0  0  0  0
 17 32  1  6  0  0  0
 18  1  1  0  0  0  0
 19 17  1  0  0  0  0
 20 21  1  0  0  0  0
 21 23  1  0  0  0  0
 22 27  1  6  0  0  0
 23 22  1  0  0  0  0
 24 22  1  0  0  0  0
 24 25  2  0  0  0  0
 26 24  1  0  0  0  0
 28 20  1  1  0  0  0
 28 26  1  0  0  0  0
 30 21  1  0  0  0  0
 30 29  1  0  0  0  0
 31 32  2  0  0  0  0
 31 37  1  0  0  0  0
 32 33  1  0  0  0  0
 33 36  2  0  0  0  0
 35 36  1  0  0  0  0
 36 34  1  0  0  0  0
 37 35  2  0  0  0  0
M  END
>  <MODEL>
2

>  <REMARK>
 VINA RESULT:      -8.8      2.624      5.665
  Name = 
  3 active torsions:
  status: ('A' for Active; 'I' for Inactive)
    1  A    between atoms: N_4  and  C_37
    2  A    between atoms: C_21  and  C_27
    3  A    between atoms: C_23  and  C_30
                            x       y       z     vdW  Elec       q    Type
                         _______ _______ _______ _____ _____    ______ ____

>  <TORSDO>
F 3

$$$$
=
 OpenBabel11112417133D

 37 42  0  0  1  0  0  0  0  0999 V2000
  194.7990  175.6750  144.1870 C   0  0  0  0  0  0  0  0  0  0  0  0
  190.8880  175.8350  145.6510 C   0  0  0  0  0  0  0  0  0  0  0  0
  189.2800  177.8910  144.2110 C   0  0  0  0  0  1  0  0  0  0  0  0
  193.2000  176.2650  146.0930 C   0  0  0  0  0  0  0  0  0  0  0  0
  190.0250  175.4710  144.4860 C   0  0  1  0  0  3  0  0  0  0  0  0
  192.1860  175.8150  145.2660 C   0  0  0  0  0  0  0  0  0  0  0  0
  188.8430  176.4300  144.3060 C   0  0  1  0  0  3  0  0  0  0  0  0
  192.8690  176.7230  147.3350 N   0  0  0  0  0  0  0  0  0  0  0  0
  192.3520  175.5210  143.9040 N   0  0  0  0  0  0  0  0  0  0  0  0
  195.0290  174.1970  144.4530 C   0  0  0  0  0  1  0  0  0  0  0  0
  189.0920  176.6110  147.2500 C   0  0  0  0  0  2  0  0  0  0  0  0
  191.5630  176.7650  147.7550 C   0  0  0  0  0  3  0  0  0  0  0  0
  193.6030  175.8470  143.2250 C   0  0  0  0  0  2  0  0  0  0  0  0
  190.5250  176.3260  146.9090 C   0  0  0  0  0  0  0  0  0  0  0  0
  191.0230  175.4530  143.2920 C   0  0  1  0  0  3  0  0  0  0  0  0
  194.5900  176.4160  145.5330 C   0  0  0  0  0  2  0  0  0  0  0  0
  187.7780  176.1830  145.4020 C   0  0  1  0  0  3  0  0  0  0  0  0
  196.0370  176.2340  143.5200 C   0  0  0  0  0  1  0  0  0  0  0  0
  188.2280  175.6770  146.6490 O   0  0  0  0  0  0  0  0  0  0  0  0
  192.2410  173.5230  142.1240 C   0  0  0  0  0  2  0  0  0  0  0  0
  192.0110  172.1900  141.5790 N   0  0  0  0  0  0  0  0  0  0  0  0
  191.5700  171.5520  144.0220 C   0  0  2  0  0  3  0  0  0  0  0  0
  192.1030  171.1610  142.6260 C   0  0  0  0  0  2  0  0  0  0  0  0
  190.2850  172.3420  144.0670 C   0  0  0  0  0  0  0  0  0  0  0  0
  189.5870  172.2620  145.0650 O   0  0  0  0  0  0  0  0  0  0  0  0
  189.8220  173.2210  142.9380 C   0  0  0  0  0  2  0  0  0  0  0  0
  192.5530  172.1880  144.7590 F   0  0  0  0  0  0  0  0  0  0  0  0
  190.8960  174.1940  142.4280 C   0  0  1  0  0  3  0  0  0  0  0  0
  194.4020  172.4130  141.2060 C   0  0  0  0  0  1  0  0  0  0  0  0
  193.0840  171.9210  140.6380 C   0  0  0  0  0  2  0  0  0  0  0  0
  185.5280  176.8920  146.3160 C   0  0  0  0  0  3  0  0  0  0  0  0
  186.6240  177.1390  145.4780 C   0  0  0  0  0  0  0  0  0  0  0  0
  186.6580  178.3090  144.7120 C   0  0  0  0  0  3  0  0  0  0  0  0
  185.6390  180.3530  144.0310 F   0  0  0  0  0  0  0  0  0  0  0  0
  184.5090  178.9710  145.6110 C   0  0  0  0  0  3  0  0  0  0  0  0
  185.6020  179.2230  144.7760 C   0  0  0  0  0  0  0  0  0  0  0  0
  184.4730  177.8060  146.3810 C   0  0  0  0  0  3  0  0  0  0  0  0
  1 10  1  0  0  0  0
  1 16  1  0  0  0  0
  2 14  1  0  0  0  0
  4  8  2  0  0  0  0
  5  2  1  1  0  0  0
  6  2  2  0  0  0  0
  6  4  1  0  0  0  0
  7  3  1  1  0  0  0
  7  5  1  0  0  0  0
  7 17  1  0  0  0  0
  8 12  1  0  0  0  0
  9  6  1  0  0  0  0
 13  9  1  0  0  0  0
 13  1  1  0  0  0  0
 14 11  1  0  0  0  0
 14 12  2  0  0  0  0
 15  9  1  1  0  0  0
 15  5  1  0  0  0  0
 16  4  1  0  0  0  0
 17 32  1  1  0  0  0
 17 19  1  0  0  0  0
 18  1  1  0  0  0  0
 19 11  1  0  0  0  0
 21 20  1  0  0  0  0
 21 23  1  0  0  0  0
 22 24  1  0  0  0  0
 22 27  1  6  0  0  0
 23 22  1  0  0  0  0
 24 25  2  0  0  0  0
 26 24  1  0  0  0  0
 28 20  1  1  0  0  0
 28 26  1  0  0  0  0
 28 15  1  0  0  0  0
 30 29  1  0  0  0  0
 30 21  1  0  0  0  0
 31 37  1  0  0  0  0
 32 31  2  0  0  0  0
 33 36  2  0  0  0  0
 33 32  1  0  0  0  0
 34 36  1  0  0  0  0
 35 37  2  0  0  0  0
 36 35  1  0  0  0  0
M  END
>  <MODEL>
3

>  <REMARK>
 VINA RESULT:      -8.7      1.467      1.758
  Name = 
  3 active torsions:
  status: ('A' for Active; 'I' for Inactive)
    1  A    between atoms: N_4  and  C_37
    2  A    between atoms: C_21  and  C_27
    3  A    between atoms: C_23  and  C_30
                            x       y       z     vdW  Elec       q    Type
                         _______ _______ _______ _____ _____    ______ ____

>  <TORSDO>
F 3

$$$$
=
 OpenBabel11112417133D

 37 42  0  0  1  0  0  0  0  0999 V2000
  194.7000  175.7100  142.9410 C   0  0  0  0  0  0  0  0  0  0  0  0
  191.2590  175.6840  145.3120 C   0  0  0  0  0  0  0  0  0  0  0  0
  189.3600  177.8270  144.4820 C   0  0  0  0  0  1  0  0  0  0  0  0
  193.6110  176.1120  145.2180 C   0  0  0  0  0  0  0  0  0  0  0  0
  190.1390  175.4040  144.3630 C   0  0  1  0  0  3  0  0  0  0  0  0
  192.4260  175.7170  144.6250 C   0  0  0  0  0  0  0  0  0  0  0  0
  188.9530  176.3560  144.5550 C   0  0  1  0  0  3  0  0  0  0  0  0
  193.5920  176.4600  146.5390 N   0  0  0  0  0  0  0  0  0  0  0  0
  192.2570  175.5410  143.2430 N   0  0  0  0  0  0  0  0  0  0  0  0
  194.9800  174.2190  143.0160 C   0  0  0  0  0  1  0  0  0  0  0  0
  189.9060  176.2930  147.3560 C   0  0  0  0  0  2  0  0  0  0  0  0
  192.4260  176.4450  147.2620 C   0  0  0  0  0  3  0  0  0  0  0  0
  193.3080  175.9430  142.3130 C   0  0  0  0  0  2  0  0  0  0  0  0
  191.2130  176.0610  146.6580 C   0  0  0  0  0  0  0  0  0  0  0  0
  190.8190  175.5030  142.9660 C   0  0  1  0  0  3  0  0  0  0  0  0
  194.8250  176.3330  144.3550 C   0  0  0  0  0  2  0  0  0  0  0  0
  188.1830  176.0000  145.8500 C   0  0  1  0  0  3  0  0  0  0  0  0
  195.7430  176.3430  142.0450 C   0  0  0  0  0  1  0  0  0  0  0  0
  188.9180  175.3990  146.9040 O   0  0  0  0  0  0  0  0  0  0  0  0
  191.7160  173.6580  141.4280 C   0  0  0  0  0  2  0  0  0  0  0  0
  191.3410  172.3750  140.8440 N   0  0  0  0  0  0  0  0  0  0  0  0
  191.3930  171.5490  143.2700 C   0  0  2  0  0  3  0  0  0  0  0  0
  191.6170  171.2650  141.7680 C   0  0  0  0  0  2  0  0  0  0  0  0
  190.1670  172.3490  143.6380 C   0  0  0  0  0  0  0  0  0  0  0  0
  189.6870  172.1980  144.7500 O   0  0  0  0  0  0  0  0  0  0  0  0
  189.5080  173.3210  142.7000 C   0  0  0  0  0  2  0  0  0  0  0  0
  192.5240  172.1120  143.8320 F   0  0  0  0  0  0  0  0  0  0  0  0
  190.4810  174.3180  142.0540 C   0  0  1  0  0  3  0  0  0  0  0  0
  193.6430  172.3800  140.0650 C   0  0  0  0  0  1  0  0  0  0  0  0
  192.1900  172.1690  139.6830 C   0  0  0  0  0  2  0  0  0  0  0  0
  185.7800  176.7890  145.7930 C   0  0  0  0  0  3  0  0  0  0  0  0
  187.0850  176.9280  146.2830 C   0  0  0  0  0  0  0  0  0  0  0  0
  187.3720  177.9340  147.2120 C   0  0  0  0  0  3  0  0  0  0  0  0
  186.6470  179.7750  148.5410 F   0  0  0  0  0  0  0  0  0  0  0  0
  185.0640  178.6630  147.1490 C   0  0  0  0  0  3  0  0  0  0  0  0
  186.3640  178.8010  147.6430 C   0  0  0  0  0  0  0  0  0  0  0  0
  184.7710  177.6560  146.2240 C   0  0  0  0  0  3  0  0  0  0  0  0
  1 10  1  0  0  0  0
  1 16  1  0  0  0  0
  2 14  1  0  0  0  0
  4  8  2  0  0  0  0
  5  7  1  0  0  0  0
  5  2  1  1  0  0  0
  6  4  1  0  0  0  0
  6  2  2  0  0  0  0
  7  3  1  1  0  0  0
  7 17  1  0  0  0  0
  8 12  1  0  0  0  0
  9  6  1  0  0  0  0
 13  1  1  0  0  0  0
 13  9  1  0  0  0  0
 14 12  2  0  0  0  0
 14 11  1  0  0  0  0
 15  9  1  1  0  0  0
 15  5  1  0  0  0  0
 16  4  1  0  0  0  0
 17 32  1  1  0  0  0
 17 19  1  0  0  0  0
 18  1  1  0  0  0  0
 19 11  1  0  0  0  0
 21 20  1  0  0  0  0
 21 23  1  0  0  0  0
 22 24  1  0  0  0  0
 22 27  1  6  0  0  0
 23 22  1  0  0  0  0
 24 25  2  0  0  0  0
 26 24  1  0  0  0  0
 28 20  1  1  0  0  0
 28 26  1  0  0  0  0
 28 15  1  0  0  0  0
 30 29  1  0  0  0  0
 30 21  1  0  0  0  0
 31 37  2  0  0  0  0
 31 32  1  0  0  0  0
 32 33  2  0  0  0  0
 33 36  1  0  0  0  0
 35 36  2  0  0  0  0
 36 34  1  0  0  0  0
 37 35  1  0  0  0  0
M  END
>  <MODEL>
4

>  <REMARK>
 VINA RESULT:      -8.6      1.588      1.928
  Name = 
  3 active torsions:
  status: ('A' for Active; 'I' for Inactive)
    1  A    between atoms: N_4  and  C_37
    2  A    between atoms: C_21  and  C_27
    3  A    between atoms: C_23  and  C_30
                            x       y       z     vdW  Elec       q    Type
                         _______ _______ _______ _____ _____    ______ ____

>  <TORSDO>
F 3

$$$$
=
 OpenBabel11112417133D

 37 42  0  0  1  0  0  0  0  0999 V2000
  192.0580  170.7200  141.0560 C   0  0  0  0  0  0  0  0  0  0  0  0
  190.2800  174.3860  141.9810 C   0  0  0  0  0  0  0  0  0  0  0  0
  188.9780  174.3090  144.6610 C   0  0  0  0  0  1  0  0  0  0  0  0
  190.2180  172.4340  140.6000 C   0  0  0  0  0  0  0  0  0  0  0  0
  190.9940  174.8630  143.2050 C   0  0  1  0  0  3  0  0  0  0  0  0
  190.7900  173.1890  141.6070 C   0  0  0  0  0  0  0  0  0  0  0  0
  190.0320  175.3520  144.2930 C   0  0  1  0  0  3  0  0  0  0  0  0
  189.1170  172.9310  139.9620 N   0  0  0  0  0  0  0  0  0  0  0  0
  191.7800  172.7150  142.4810 N   0  0  0  0  0  0  0  0  0  0  0  0
  193.1870  171.2780  140.2070 C   0  0  0  0  0  1  0  0  0  0  0  0
  188.4030  176.0760  141.9310 C   0  0  0  0  0  2  0  0  0  0  0  0
  188.5690  174.1360  140.3210 C   0  0  0  0  0  3  0  0  0  0  0  0
  192.1490  171.3020  142.4840 C   0  0  0  0  0  2  0  0  0  0  0  0
  189.1380  174.9000  141.3590 C   0  0  0  0  0  0  0  0  0  0  0  0
  191.8560  173.6350  143.6180 C   0  0  1  0  0  3  0  0  0  0  0  0
  190.6990  171.0250  140.3760 C   0  0  0  0  0  2  0  0  0  0  0  0
  189.4230  176.7200  143.8980 C   0  0  1  0  0  3  0  0  0  0  0  0
  192.2260  169.2180  141.1390 C   0  0  0  0  0  1  0  0  0  0  0  0
  189.2900  177.0000  142.5140 O   0  0  0  0  0  0  0  0  0  0  0  0
  193.7970  175.2420  143.1460 C   0  0  0  0  0  2  0  0  0  0  0  0
  195.0620  175.7030  143.7090 N   0  0  0  0  0  0  0  0  0  0  0  0
  193.5820  176.6890  145.5550 C   0  0  2  0  0  3  0  0  0  0  0  0
  194.8510  176.7870  144.6800 C   0  0  0  0  0  2  0  0  0  0  0  0
  193.2240  175.3240  146.0890 C   0  0  0  0  0  0  0  0  0  0  0  0
  192.5730  175.2540  147.1190 O   0  0  0  0  0  0  0  0  0  0  0  0
  193.6330  174.0440  145.4140 C   0  0  0  0  0  2  0  0  0  0  0  0
  192.4980  177.2520  144.9060 F   0  0  0  0  0  0  0  0  0  0  0  0
  193.3150  174.0040  143.9120 C   0  0  1  0  0  3  0  0  0  0  0  0
  197.1600  176.7900  143.1400 C   0  0  0  0  0  1  0  0  0  0  0  0
  195.8340  176.2700  142.6170 C   0  0  0  0  0  2  0  0  0  0  0  0
  188.3220  177.0440  146.1530 C   0  0  0  0  0  3  0  0  0  0  0  0
  188.3360  177.2760  144.7710 C   0  0  0  0  0  0  0  0  0  0  0  0
  187.3320  178.0590  144.1910 C   0  0  0  0  0  3  0  0  0  0  0  0
  185.3460  179.3570  144.4180 F   0  0  0  0  0  0  0  0  0  0  0  0
  186.3040  178.3650  146.3620 C   0  0  0  0  0  3  0  0  0  0  0  0
  186.3160  178.6010  144.9850 C   0  0  0  0  0  0  0  0  0  0  0  0
  187.3080  177.5870  146.9470 C   0  0  0  0  0  3  0  0  0  0  0  0
  1 18  1  0  0  0  0
  1 13  1  0  0  0  0
  4  6  2  0  0  0  0
  5  2  1  6  0  0  0
  5 15  1  0  0  0  0
  5  7  1  0  0  0  0
  6  2  1  0  0  0  0
  6  9  1  0  0  0  0
  7  3  1  6  0  0  0
  8 12  2  0  0  0  0
  8  4  1  0  0  0  0
  9 13  1  0  0  0  0
 10  1  1  0  0  0  0
 11 19  1  0  0  0  0
 12 14  1  0  0  0  0
 14 11  1  0  0  0  0
 14  2  2  0  0  0  0
 15  9  1  6  0  0  0
 15 28  1  0  0  0  0
 16  4  1  0  0  0  0
 16  1  1  0  0  0  0
 17  7  1  0  0  0  0
 17 32  1  1  0  0  0
 19 17  1  0  0  0  0
 20 21  1  0  0  0  0
 21 23  1  0  0  0  0
 22 27  1  6  0  0  0
 22 24  1  0  0  0  0
 23 22  1  0  0  0  0
 24 25  2  0  0  0  0
 26 24  1  0  0  0  0
 28 20  1  1  0  0  0
 28 26  1  0  0  0  0
 30 29  1  0  0  0  0
 30 21  1  0  0  0  0
 31 37  1  0  0  0  0
 32 31  2  0  0  0  0
 33 32  1  0  0  0  0
 33 36  2  0  0  0  0
 34 36  1  0  0  0  0
 35 37  2  0  0  0  0
 36 35  1  0  0  0  0
M  END
>  <MODEL>
5

>  <REMARK>
 VINA RESULT:      -8.3      1.902      5.274
  Name = 
  3 active torsions:
  status: ('A' for Active; 'I' for Inactive)
    1  A    between atoms: N_4  and  C_37
    2  A    between atoms: C_21  and  C_27
    3  A    between atoms: C_23  and  C_30
                            x       y       z     vdW  Elec       q    Type
                         _______ _______ _______ _____ _____    ______ ____

>  <TORSDO>
F 3

$$$$
=
 OpenBabel11112417133D

 37 42  0  0  1  0  0  0  0  0999 V2000
  193.3620  170.6450  143.7970 C   0  0  0  0  0  0  0  0  0  0  0  0
  190.7210  173.8820  143.6870 C   0  0  0  0  0  0  0  0  0  0  0  0
  189.3790  174.2710  146.3210 C   0  0  0  0  0  1  0  0  0  0  0  0
  191.1810  171.6590  142.9320 C   0  0  0  0  0  0  0  0  0  0  0  0
  191.2540  174.8490  144.6950 C   0  0  1  0  0  3  0  0  0  0  0  0
  191.5180  172.7870  143.6570 C   0  0  0  0  0  0  0  0  0  0  0  0
  190.1640  175.3850  145.6290 C   0  0  1  0  0  3  0  0  0  0  0  0
  190.0170  171.6700  142.2180 N   0  0  0  0  0  0  0  0  0  0  0  0
  192.5600  172.8390  144.5940 N   0  0  0  0  0  0  0  0  0  0  0  0
  194.3530  171.1890  142.7830 C   0  0  0  0  0  1  0  0  0  0  0  0
  188.4950  174.9810  143.2190 C   0  0  0  0  0  2  0  0  0  0  0  0
  189.1820  172.7590  142.2320 C   0  0  0  0  0  3  0  0  0  0  0  0
  193.2580  171.6190  144.9920 C   0  0  0  0  0  2  0  0  0  0  0  0
  189.5120  173.9040  142.9840 C   0  0  0  0  0  0  0  0  0  0  0  0
  192.3720  174.0380  145.4140 C   0  0  1  0  0  3  0  0  0  0  0  0
  191.9950  170.4040  143.1070 C   0  0  0  0  0  2  0  0  0  0  0  0
  189.2580  176.3910  144.8780 C   0  0  1  0  0  3  0  0  0  0  0  0
  193.8830  169.3180  144.3040 C   0  0  0  0  0  1  0  0  0  0  0  0
  189.1120  176.2190  143.4770 O   0  0  0  0  0  0  0  0  0  0  0  0
  194.9230  173.9840  145.1750 C   0  0  0  0  0  2  0  0  0  0  0  0
  196.0750  174.8650  145.0130 N   0  0  0  0  0  0  0  0  0  0  0  0
  195.0260  175.3860  142.7330 C   0  0  2  0  0  3  0  0  0  0  0  0
  196.2930  175.2060  143.5990 C   0  0  0  0  0  2  0  0  0  0  0  0
  193.8700  176.1260  143.3590 C   0  0  0  0  0  0  0  0  0  0  0  0
  193.0840  176.7040  142.6260 O   0  0  0  0  0  0  0  0  0  0  0  0
  193.6400  176.1860  144.8440 C   0  0  0  0  0  2  0  0  0  0  0  0
  194.6050  174.1700  142.2280 F   0  0  0  0  0  0  0  0  0  0  0  0
  193.6860  174.8160  145.5360 C   0  0  1  0  0  3  0  0  0  0  0  0
  196.8560  172.6940  145.7750 C   0  0  0  0  0  1  0  0  0  0  0  0
  197.2460  174.1230  145.4450 C   0  0  0  0  0  2  0  0  0  0  0  0
  186.7490  176.5730  145.1490 C   0  0  0  0  0  3  0  0  0  0  0  0
  188.0390  176.8970  145.5910 C   0  0  0  0  0  0  0  0  0  0  0  0
  188.1990  177.6900  146.7340 C   0  0  0  0  0  3  0  0  0  0  0  0
  187.2400  178.9300  148.5280 F   0  0  0  0  0  0  0  0  0  0  0  0
  185.7950  177.8390  146.9780 C   0  0  0  0  0  3  0  0  0  0  0  0
  187.0790  178.1620  147.4250 C   0  0  0  0  0  0  0  0  0  0  0  0
  185.6300  177.0440  145.8410 C   0  0  0  0  0  3  0  0  0  0  0  0
  1 18  1  0  0  0  0
  1 13  1  0  0  0  0
  4 16  1  0  0  0  0
  4  6  2  0  0  0  0
  5  2  1  6  0  0  0
  5 15  1  0  0  0  0
  5  7  1  0  0  0  0
  6  2  1  0  0  0  0
  6  9  1  0  0  0  0
  7  3  1  6  0  0  0
  8 12  2  0  0  0  0
  8  4  1  0  0  0  0
  9 13  1  0  0  0  0
 10  1  1  0  0  0  0
 11 19  1  0  0  0  0
 12 14  1  0  0  0  0
 14 11  1  0  0  0  0
 14  2  2  0  0  0  0
 15  9  1  6  0  0  0
 15 28  1  0  0  0  0
 16  1  1  0  0  0  0
 17 32  1  1  0  0  0
 17  7  1  0  0  0  0
 19 17  1  0  0  0  0
 20 28  1  0  0  0  0
 21 20  1  0  0  0  0
 21 30  1  0  0  0  0
 22 27  1  1  0  0  0
 22 24  1  0  0  0  0
 22 23  1  0  0  0  0
 23 21  1  0  0  0  0
 24 26  1  0  0  0  0
 25 24  2  0  0  0  0
 28 26  1  6  0  0  0
 30 29  1  0  0  0  0
 31 32  2  0  0  0  0
 31 37  1  0  0  0  0
 32 33  1  0  0  0  0
 33 36  2  0  0  0  0
 35 36  1  0  0  0  0
 36 34  1  0  0  0  0
 37 35  2  0  0  0  0
M  END
>  <MODEL>
6

>  <REMARK>
 VINA RESULT:      -8.0      2.266      4.902
  Name = 
  3 active torsions:
  status: ('A' for Active; 'I' for Inactive)
    1  A    between atoms: N_4  and  C_37
    2  A    between atoms: C_21  and  C_27
    3  A    between atoms: C_23  and  C_30
                            x       y       z     vdW  Elec       q    Type
                         _______ _______ _______ _____ _____    ______ ____

>  <TORSDO>
F 3

$$$$
=
 OpenBabel11112417133D

 37 42  0  0  1  0  0  0  0  0999 V2000
  191.9010  170.5530  139.5550 C   0  0  0  0  0  0  0  0  0  0  0  0
  190.3710  174.0660  141.2240 C   0  0  0  0  0  0  0  0  0  0  0  0
  189.7840  173.7160  144.1250 C   0  0  0  0  0  1  0  0  0  0  0  0
  189.9860  172.2380  139.7290 C   0  0  0  0  0  0  0  0  0  0  0  0
  191.3630  174.4590  142.2700 C   0  0  1  0  0  3  0  0  0  0  0  0
  190.7850  172.9220  140.6270 C   0  0  0  0  0  0  0  0  0  0  0  0
  190.7000  174.8210  143.6030 C   0  0  1  0  0  3  0  0  0  0  0  0
  188.7550  172.7490  139.4340 N   0  0  0  0  0  0  0  0  0  0  0  0
  191.9680  172.4090  141.1800 N   0  0  0  0  0  0  0  0  0  0  0  0
  192.7750  171.2200  138.5060 C   0  0  0  0  0  1  0  0  0  0  0  0
  188.5220  175.6890  141.7970 C   0  0  0  0  0  2  0  0  0  0  0  0
  188.3010  173.9000  140.0260 C   0  0  0  0  0  3  0  0  0  0  0  0
  192.3410  171.0140  140.9620 C   0  0  0  0  0  2  0  0  0  0  0  0
  189.1040  174.5920  140.9550 C   0  0  0  0  0  0  0  0  0  0  0  0
  192.3160  173.2300  142.3420 C   0  0  1  0  0  3  0  0  0  0  0  0
  190.4120  170.8690  139.2650 C   0  0  0  0  0  2  0  0  0  0  0  0
  189.9960  176.1960  143.4980 C   0  0  1  0  0  3  0  0  0  0  0  0
  192.1020  169.0570  139.4560 C   0  0  0  0  0  1  0  0  0  0  0  0
  189.5170  176.5890  142.2220 O   0  0  0  0  0  0  0  0  0  0  0  0
  194.0410  175.0200  141.7140 C   0  0  0  0  0  2  0  0  0  0  0  0
  195.4120  175.4330  141.9930 N   0  0  0  0  0  0  0  0  0  0  0  0
  194.5110  175.9200  144.3430 C   0  0  2  0  0  3  0  0  0  0  0  0
  195.4820  176.2770  143.1950 C   0  0  0  0  0  2  0  0  0  0  0  0
  194.3220  174.4530  144.6460 C   0  0  0  0  0  0  0  0  0  0  0  0
  193.9880  174.1310  145.7750 O   0  0  0  0  0  0  0  0  0  0  0  0
  194.5270  173.3700  143.6240 C   0  0  0  0  0  2  0  0  0  0  0  0
  193.2870  176.5350  144.1540 F   0  0  0  0  0  0  0  0  0  0  0  0
  193.7970  173.6220  142.2960 C   0  0  1  0  0  3  0  0  0  0  0  0
  197.0360  175.6210  140.1940 C   0  0  0  0  0  1  0  0  0  0  0  0
  195.8440  176.2610  140.8800 C   0  0  0  0  0  2  0  0  0  0  0  0
  187.7660  176.4640  144.6640 C   0  0  0  0  0  3  0  0  0  0  0  0
  189.1570  176.6390  144.6610 C   0  0  0  0  0  0  0  0  0  0  0  0
  189.7840  177.2160  145.7710 C   0  0  0  0  0  3  0  0  0  0  0  0
  189.6370  178.1840  147.9440 F   0  0  0  0  0  0  0  0  0  0  0  0
  187.6390  177.4520  146.8710 C   0  0  0  0  0  3  0  0  0  0  0  0
  189.0260  177.6240  146.8730 C   0  0  0  0  0  0  0  0  0  0  0  0
  187.0090  176.8710  145.7660 C   0  0  0  0  0  3  0  0  0  0  0  0
  1 13  1  0  0  0  0
  4  6  1  0  0  0  0
  5  2  1  6  0  0  0
  5 15  1  0  0  0  0
  5  7  1  0  0  0  0
  6  9  1  0  0  0  0
  6  2  2  0  0  0  0
  7  3  1  6  0  0  0
  8  4  2  0  0  0  0
  8 12  1  0  0  0  0
 10  1  1  0  0  0  0
 11 19  1  0  0  0  0
 12 14  2  0  0  0  0
 13  9  1  0  0  0  0
 14  2  1  0  0  0  0
 14 11  1  0  0  0  0
 15  9  1  6  0  0  0
 16  1  1  0  0  0  0
 16  4  1  0  0  0  0
 17  7  1  0  0  0  0
 17 32  1  1  0  0  0
 18  1  1  0  0  0  0
 19 17  1  0  0  0  0
 20 21  1  0  0  0  0
 21 23  1  0  0  0  0
 22 27  1  6  0  0  0
 22 24  1  0  0  0  0
 23 22  1  0  0  0  0
 24 25  2  0  0  0  0
 26 24  1  0  0  0  0
 28 20  1  1  0  0  0
 28 15  1  0  0  0  0
 28 26  1  0  0  0  0
 29 30  1  0  0  0  0
 30 21  1  0  0  0  0
 31 37  1  0  0  0  0
 32 31  2  0  0  0  0
 32 33  1  0  0  0  0
 33 36  2  0  0  0  0
 35 36  1  0  0  0  0
 36 34  1  0  0  0  0
 37 35  2  0  0  0  0
M  END
>  <MODEL>
7

>  <REMARK>
 VINA RESULT:      -7.8      2.483      5.753
  Name = 
  3 active torsions:
  status: ('A' for Active; 'I' for Inactive)
    1  A    between atoms: N_4  and  C_37
    2  A    between atoms: C_21  and  C_27
    3  A    between atoms: C_23  and  C_30
                            x       y       z     vdW  Elec       q    Type
                         _______ _______ _______ _____ _____    ______ ____

>  <TORSDO>
F 3

$$$$
=
 OpenBabel11112417133D

 37 42  0  0  1  0  0  0  0  0999 V2000
  187.4890  176.5290  142.6270 C   0  0  0  0  0  0  0  0  0  0  0  0
  191.5680  175.6950  142.9930 C   0  0  0  0  0  0  0  0  0  0  0  0
  192.0250  173.2200  144.5900 C   0  0  0  0  0  1  0  0  0  0  0  0
  189.7710  177.1540  143.5970 C   0  0  0  0  0  0  0  0  0  0  0  0
  191.7510  174.3680  142.3320 C   0  0  1  0  0  3  0  0  0  0  0  0
  190.2620  176.0480  142.9280 C   0  0  0  0  0  0  0  0  0  0  0  0
  192.5830  173.3980  143.1790 C   0  0  1  0  0  3  0  0  0  0  0  0
  190.6410  177.9120  144.3260 N   0  0  0  0  0  0  0  0  0  0  0  0
  189.4570  175.0700  142.3250 N   0  0  0  0  0  0  0  0  0  0  0  0
  187.5650  177.1940  141.2640 C   0  0  0  0  0  1  0  0  0  0  0  0
  193.8450  175.9250  144.0630 C   0  0  0  0  0  2  0  0  0  0  0  0
  191.9690  177.5790  144.4200 C   0  0  0  0  0  3  0  0  0  0  0  0
  188.0100  175.0780  142.5240 C   0  0  0  0  0  2  0  0  0  0  0  0
  192.4710  176.4430  143.7560 C   0  0  0  0  0  0  0  0  0  0  0  0
  190.2920  173.8950  142.0660 C   0  0  1  0  0  3  0  0  0  0  0  0
  188.2810  177.3710  143.6590 C   0  0  0  0  0  2  0  0  0  0  0  0
  194.0750  173.8130  143.1620 C   0  0  1  0  0  3  0  0  0  0  0  0
  186.0380  176.4880  143.0550 C   0  0  0  0  0  1  0  0  0  0  0  0
  194.3680  175.1900  142.9840 O   0  0  0  0  0  0  0  0  0  0  0  0
  191.2330  173.7490  139.6860 C   0  0  0  0  0  2  0  0  0  0  0  0
  191.1070  172.9800  138.4530 N   0  0  0  0  0  0  0  0  0  0  0  0
  192.0680  171.0630  139.8570 C   0  0  2  0  0  3  0  0  0  0  0  0
  191.9420  171.7700  138.4890 C   0  0  0  0  0  2  0  0  0  0  0  0
  190.8120  170.9530  140.6870 C   0  0  0  0  0  0  0  0  0  0  0  0
  190.7240  170.0380  141.4900 O   0  0  0  0  0  0  0  0  0  0  0  0
  189.6630  171.9160  140.5700 C   0  0  0  0  0  2  0  0  0  0  0  0
  193.0910  171.6210  140.6010 F   0  0  0  0  0  0  0  0  0  0  0  0
  190.0810  173.3920  140.6340 C   0  0  1  0  0  3  0  0  0  0  0  0
  192.9520  174.4160  137.7900 C   0  0  0  0  0  1  0  0  0  0  0  0
  191.6240  173.8080  137.3780 C   0  0  0  0  0  2  0  0  0  0  0  0
  195.2490  171.6990  143.9060 C   0  0  0  0  0  3  0  0  0  0  0  0
  195.0140  173.0710  144.0680 C   0  0  0  0  0  0  0  0  0  0  0  0
  195.6810  173.7730  145.0780 C   0  0  0  0  0  3  0  0  0  0  0  0
  197.2140  173.7910  146.9030 F   0  0  0  0  0  0  0  0  0  0  0  0
  196.8020  171.7380  145.7630 C   0  0  0  0  0  3  0  0  0  0  0  0
  196.5720  173.1070  145.9250 C   0  0  0  0  0  0  0  0  0  0  0  0
  196.1410  171.0340  144.7520 C   0  0  0  0  0  3  0  0  0  0  0  0
  1 18  1  0  0  0  0
  1 16  1  0  0  0  0
  2 14  1  0  0  0  0
  4 16  1  0  0  0  0
  4  8  2  0  0  0  0
  5  2  1  1  0  0  0
  5  7  1  0  0  0  0
  6  2  2  0  0  0  0
  6  4  1  0  0  0  0
  7  3  1  1  0  0  0
  8 12  1  0  0  0  0
  9 13  1  0  0  0  0
  9  6  1  0  0  0  0
 10  1  1  0  0  0  0
 13  1  1  0  0  0  0
 14 11  1  0  0  0  0
 14 12  2  0  0  0  0
 15  9  1  6  0  0  0
 15  5  1  0  0  0  0
 17  7  1  0  0  0  0
 17 32  1  1  0  0  0
 19 17  1  0  0  0  0
 19 11  1  0  0  0  0
 21 23  1  0  0  0  0
 21 20  1  0  0  0  0
 22 27  1  1  0  0  0
 22 24  1  0  0  0  0
 23 22  1  0  0  0  0
 24 25  2  0  0  0  0
 26 28  1  0  0  0  0
 26 24  1  0  0  0  0
 28 20  1  6  0  0  0
 28 15  1  0  0  0  0
 30 29  1  0  0  0  0
 30 21  1  0  0  0  0
 31 32  2  0  0  0  0
 31 37  1  0  0  0  0
 32 33  1  0  0  0  0
 33 36  2  0  0  0  0
 35 36  1  0  0  0  0
 36 34  1  0  0  0  0
 37 35  2  0  0  0  0
M  END
>  <MODEL>
8

>  <REMARK>
 VINA RESULT:      -7.7      3.341      6.854
  Name = 
  3 active torsions:
  status: ('A' for Active; 'I' for Inactive)
    1  A    between atoms: N_4  and  C_37
    2  A    between atoms: C_21  and  C_27
    3  A    between atoms: C_23  and  C_30
                            x       y       z     vdW  Elec       q    Type
                         _______ _______ _______ _____ _____    ______ ____

>  <TORSDO>
F 3

$$$$
=
 OpenBabel11112417133D

 37 42  0  0  1  0  0  0  0  0999 V2000
  187.5730  176.5830  141.4930 C   0  0  0  0  0  0  0  0  0  0  0  0
  190.7950  174.6480  143.3190 C   0  0  0  0  0  0  0  0  0  0  0  0
  193.3120  176.2150  143.0080 C   0  0  0  0  0  1  0  0  0  0  0  0
  189.2120  174.6220  141.5260 C   0  0  0  0  0  0  0  0  0  0  0  0
  191.2590  175.5910  144.3820 C   0  0  1  0  0  3  0  0  0  0  0  0
  189.7460  175.1990  142.6630 C   0  0  0  0  0  0  0  0  0  0  0  0
  192.7800  175.7840  144.3740 C   0  0  1  0  0  3  0  0  0  0  0  0
  189.7570  173.4550  141.0720 N   0  0  0  0  0  0  0  0  0  0  0  0
  189.4310  176.4890  143.1140 N   0  0  0  0  0  0  0  0  0  0  0  0
  186.5000  176.0760  142.4410 C   0  0  0  0  0  1  0  0  0  0  0  0
  192.7020  172.9920  143.3950 C   0  0  0  0  0  2  0  0  0  0  0  0
  190.8260  172.8740  141.7070 C   0  0  0  0  0  3  0  0  0  0  0  0
  188.6270  177.3850  142.2870 C   0  0  0  0  0  2  0  0  0  0  0  0
  191.3850  173.4680  142.8550 C   0  0  0  0  0  0  0  0  0  0  0  0
  190.4480  176.8870  144.0910 C   0  0  1  0  0  3  0  0  0  0  0  0
  188.1920  175.3880  140.7250 C   0  0  0  0  0  2  0  0  0  0  0  0
  193.4850  174.5240  144.9320 C   0  0  1  0  0  3  0  0  0  0  0  0
  186.9190  177.5100  140.4910 C   0  0  0  0  0  1  0  0  0  0  0  0
  192.8260  173.2790  144.7670 O   0  0  0  0  0  0  0  0  0  0  0  0
  188.2880  177.1580  145.4450 C   0  0  0  0  0  2  0  0  0  0  0  0
  187.8140  177.4670  146.7900 N   0  0  0  0  0  0  0  0  0  0  0  0
  188.9240  175.2410  147.4100 C   0  0  2  0  0  3  0  0  0  0  0  0
  187.7890  176.2650  147.6370 C   0  0  0  0  0  2  0  0  0  0  0  0
  190.3100  175.7950  147.1910 C   0  0  0  0  0  0  0  0  0  0  0  0
  191.2680  175.0970  147.4840 O   0  0  0  0  0  0  0  0  0  0  0  0
  190.5680  177.1660  146.6320 C   0  0  0  0  0  2  0  0  0  0  0  0
  188.5900  174.3610  146.3970 F   0  0  0  0  0  0  0  0  0  0  0  0
  189.7870  177.4690  145.3450 C   0  0  1  0  0  3  0  0  0  0  0  0
  185.5790  176.7920  146.1180 C   0  0  0  0  0  1  0  0  0  0  0  0
  186.4380  177.9150  146.6660 C   0  0  0  0  0  2  0  0  0  0  0  0
  195.7220  173.5650  145.6230 C   0  0  0  0  0  3  0  0  0  0  0  0
  194.9830  174.4710  144.8510 C   0  0  0  0  0  0  0  0  0  0  0  0
  195.6460  175.3300  143.9680 C   0  0  0  0  0  3  0  0  0  0  0  0
  197.6780  176.1260  143.0090 F   0  0  0  0  0  0  0  0  0  0  0  0
  197.7750  174.3890  144.6380 C   0  0  0  0  0  3  0  0  0  0  0  0
  197.0400  175.2910  143.8630 C   0  0  0  0  0  0  0  0  0  0  0  0
  197.1150  173.5250  145.5170 C   0  0  0  0  0  3  0  0  0  0  0  0
  1 13  1  0  0  0  0
  1 10  1  0  0  0  0
  4  6  1  0  0  0  0
  5  2  1  6  0  0  0
  6  9  1  0  0  0  0
  6  2  2  0  0  0  0
  7  3  1  6  0  0  0
  7  5  1  0  0  0  0
  7 17  1  0  0  0  0
  8  4  2  0  0  0  0
  8 12  1  0  0  0  0
 11 19  1  0  0  0  0
 12 14  2  0  0  0  0
 13  9  1  0  0  0  0
 14  2  1  0  0  0  0
 14 11  1  0  0  0  0
 15  9  1  6  0  0  0
 15  5  1  0  0  0  0
 15 28  1  0  0  0  0
 16  1  1  0  0  0  0
 16  4  1  0  0  0  0
 17 32  1  6  0  0  0
 18  1  1  0  0  0  0
 19 17  1  0  0  0  0
 20 21  1  0  0  0  0
 21 23  1  0  0  0  0
 22 27  1  6  0  0  0
 22 23  1  0  0  0  0
 24 22  1  0  0  0  0
 24 25  2  0  0  0  0
 26 24  1  0  0  0  0
 28 20  1  1  0  0  0
 28 26  1  0  0  0  0
 29 30  1  0  0  0  0
 30 21  1  0  0  0  0
 32 31  2  0  0  0  0
 33 32  1  0  0  0  0
 34 36  1  0  0  0  0
 35 37  2  0  0  0  0
 36 33  2  0  0  0  0
 36 35  1  0  0  0  0
 37 31  1  0  0  0  0
M  END
>  <MODEL>
9

>  <REMARK>
 VINA RESULT:      -7.6      2.706      7.501
  Name = 
  3 active torsions:
  status: ('A' for Active; 'I' for Inactive)
    1  A    between atoms: N_4  and  C_37
    2  A    between atoms: C_21  and  C_27
    3  A    between atoms: C_23  and  C_30
                            x       y       z     vdW  Elec       q    Type
                         _______ _______ _______ _____ _____    ______ ____

>  <TORSDO>
F 3

$$$$
