=
 OpenBabel11112417383D

 28 32  0  0  1  0  0  0  0  0999 V2000
  187.1120  177.2550  144.3990 C   0  0  0  0  0  0  0  0  0  0  0  0
  187.1800  174.2950  142.6690 O   0  0  0  0  0  0  0  0  0  0  0  0
  193.2710  176.6510  145.9240 O   0  0  0  0  0  0  0  0  0  0  0  0
  186.7480  178.9000  142.1590 C   0  0  0  0  0  3  0  0  0  0  0  0
  192.7560  176.3000  143.6580 N   0  0  0  0  0  0  0  0  0  0  0  0
  187.2860  176.4150  145.6250 C   0  0  0  0  0  2  0  0  0  0  0  0
  188.3340  173.7870  140.5570 O   0  0  0  0  0  0  0  0  0  0  0  0
  188.5180  174.0950  142.0150 S   0  0  0  0  0  0  0  0  0  0  0  0
  190.6340  173.0130  143.3720 C   0  0  0  0  0  0  0  0  0  0  0  0
  189.5280  175.5480  142.1860 C   0  0  2  0  0  3  0  0  0  0  0  0
  189.7990  178.0080  147.7710 O   0  0  0  0  0  0  0  0  0  0  0  0
  190.5320  177.1750  143.6550 C   0  0  2  0  0  3  0  0  0  0  0  0
  191.3170  174.1020  143.1740 N   0  0  0  0  0  0  0  0  0  0  0  0
  189.3550  172.8010  142.7770 N   0  0  0  0  0  2  0  0  0  0  0  0
  189.3340  177.2390  146.8910 C   0  0  0  0  0  0  0  0  0  0  0  0
  188.0520  177.2310  143.3510 C   0  0  0  0  0  0  0  0  0  0  0  0
  192.4420  176.7020  144.9750 C   0  0  0  0  0  0  0  0  0  0  0  0
  191.1760  171.9830  144.2940 C   0  0  0  0  0  1  0  0  0  0  0  0
  190.2720  176.3770  146.1060 C   0  0  0  0  0  2  0  0  0  0  0  0
  187.8630  178.0640  142.2370 C   0  0  0  0  0  3  0  0  0  0  0  0
  185.9980  178.0990  144.3150 C   0  0  0  0  0  3  0  0  0  0  0  0
  185.8150  178.9170  143.1970 C   0  0  0  0  0  3  0  0  0  0  0  0
  187.9200  177.1940  146.6800 N   0  0  0  0  0  2  0  0  0  0  0  0
  191.6190  176.5180  142.7810 C   0  0  2  0  0  3  0  0  0  0  0  0
  191.0640  177.2240  145.1110 C   0  0  2  0  0  3  0  0  0  0  0  0
  191.0110  175.2120  142.2500 C   0  0  2  0  0  3  0  0  0  0  0  0
  194.0730  175.8840  143.2060 C   0  0  0  0  0  1  0  0  0  0  0  0
  189.2640  176.3510  143.4450 C   0  0  1  0  0  3  0  0  0  0  0  0
  1  6  1  0  0  0  0
  4 20  2  0  0  0  0
  4 22  1  0  0  0  0
  5 17  1  0  0  0  0
  6 23  1  0  0  0  0
  7  8  2  0  0  0  0
  8  2  2  0  0  0  0
  8 14  1  0  0  0  0
  9 18  1  0  0  0  0
 10  8  1  1  0  0  0
 10 26  1  0  0  0  0
 10 28  1  0  0  0  0
 12 25  1  0  0  0  0
 13  9  2  0  0  0  0
 14  9  1  0  0  0  0
 15 11  2  0  0  0  0
 16 28  1  0  0  0  0
 16  1  2  0  0  0  0
 17 25  1  0  0  0  0
 17  3  2  0  0  0  0
 19 15  1  0  0  0  0
 20 16  1  0  0  0  0
 21  1  1  0  0  0  0
 22 21  2  0  0  0  0
 23 15  1  0  0  0  0
 24 12  1  0  0  0  0
 24  5  1  0  0  0  0
 25 19  1  0  0  0  0
 26 24  1  0  0  0  0
 26 13  1  0  0  0  0
 27  5  1  0  0  0  0
 28 12  1  0  0  0  0
M  END
>  <MODEL>
1

>  <REMARK>
 VINA RESULT:      -7.9      0.000      0.000
  Name = 
  0 active torsions:
  status: ('A' for Active; 'I' for Inactive)
                            x       y       z     vdW  Elec       q    Type
                         _______ _______ _______ _____ _____    ______ ____

>  <TORSDO>
F 0

$$$$
=
 OpenBabel11112417383D

 28 32  0  0  1  0  0  0  0  0999 V2000
  188.5710  176.2590  145.0340 C   0  0  0  0  0  0  0  0  0  0  0  0
  188.8590  173.5880  142.9030 O   0  0  0  0  0  0  0  0  0  0  0  0
  194.8610  176.2820  146.0570 O   0  0  0  0  0  0  0  0  0  0  0  0
  187.8250  178.1220  143.0770 C   0  0  0  0  0  3  0  0  0  0  0  0
  194.2100  176.1670  143.8020 N   0  0  0  0  0  0  0  0  0  0  0  0
  188.9470  175.2960  146.1150 C   0  0  0  0  0  2  0  0  0  0  0  0
  189.8880  173.5200  140.6700 O   0  0  0  0  0  0  0  0  0  0  0  0
  190.1520  173.6550  142.1420 S   0  0  0  0  0  0  0  0  0  0  0  0
  192.4890  172.6940  143.1940 C   0  0  0  0  0  0  0  0  0  0  0  0
  190.9870  175.1940  142.4510 C   0  0  2  0  0  3  0  0  0  0  0  0
  191.4140  176.9110  148.2980 O   0  0  0  0  0  0  0  0  0  0  0  0
  191.9020  176.7320  144.0670 C   0  0  2  0  0  3  0  0  0  0  0  0
  193.0150  173.8810  143.1070 N   0  0  0  0  0  0  0  0  0  0  0  0
  191.2020  172.3940  142.6580 N   0  0  0  0  0  2  0  0  0  0  0  0
  190.9760  176.2100  147.3500 C   0  0  0  0  0  0  0  0  0  0  0  0
  189.4170  176.4980  143.9340 C   0  0  0  0  0  0  0  0  0  0  0  0
  193.9580  176.3470  145.1810 C   0  0  0  0  0  0  0  0  0  0  0  0
  193.2270  171.6320  143.9240 C   0  0  0  0  0  1  0  0  0  0  0  0
  191.9450  175.5910  146.3920 C   0  0  0  0  0  2  0  0  0  0  0  0
  189.0370  177.4380  142.9640 C   0  0  0  0  0  3  0  0  0  0  0  0
  187.3590  176.9510  145.1420 C   0  0  0  0  0  3  0  0  0  0  0  0
  186.9860  177.8780  144.1650 C   0  0  0  0  0  3  0  0  0  0  0  0
  189.5650  176.0060  147.2260 N   0  0  0  0  0  2  0  0  0  0  0  0
  192.9860  176.3460  143.0400 C   0  0  2  0  0  3  0  0  0  0  0  0
  192.5420  176.6590  145.4770 C   0  0  2  0  0  3  0  0  0  0  0  0
  192.5010  175.0510  142.3710 C   0  0  2  0  0  3  0  0  0  0  0  0
  195.5250  175.9920  143.2120 C   0  0  0  0  0  1  0  0  0  0  0  0
  190.7320  175.7810  143.8250 C   0  0  1  0  0  3  0  0  0  0  0  0
  1 21  1  0  0  0  0
  1  6  1  0  0  0  0
  4 22  1  0  0  0  0
  5 17  1  0  0  0  0
  6 23  1  0  0  0  0
  7  8  2  0  0  0  0
  8 14  1  0  0  0  0
  8  2  2  0  0  0  0
  9 18  1  0  0  0  0
 10  8  1  1  0  0  0
 10 28  1  0  0  0  0
 12 25  1  0  0  0  0
 13  9  2  0  0  0  0
 14  9  1  0  0  0  0
 15 11  2  0  0  0  0
 16  1  2  0  0  0  0
 17 25  1  0  0  0  0
 17  3  2  0  0  0  0
 19 15  1  0  0  0  0
 20  4  2  0  0  0  0
 20 16  1  0  0  0  0
 22 21  2  0  0  0  0
 23 15  1  0  0  0  0
 24  5  1  0  0  0  0
 24 12  1  0  0  0  0
 25 19  1  0  0  0  0
 26 10  1  0  0  0  0
 26 24  1  0  0  0  0
 26 13  1  0  0  0  0
 27  5  1  0  0  0  0
 28 16  1  0  0  0  0
 28 12  1  0  0  0  0
M  END
>  <MODEL>
2

>  <REMARK>
 VINA RESULT:      -7.8      1.482      1.747
  Name = 
  0 active torsions:
  status: ('A' for Active; 'I' for Inactive)
                            x       y       z     vdW  Elec       q    Type
                         _______ _______ _______ _____ _____    ______ ____

>  <TORSDO>
F 0

$$$$
=
 OpenBabel11112417383D

 28 32  0  0  1  0  0  0  0  0999 V2000
  186.3480  178.3210  144.5260 C   0  0  0  0  0  0  0  0  0  0  0  0
  189.3960  178.2220  146.0930 O   0  0  0  0  0  0  0  0  0  0  0  0
  188.4950  174.5730  139.8400 O   0  0  0  0  0  0  0  0  0  0  0  0
  184.9630  176.8610  146.4780 C   0  0  0  0  0  3  0  0  0  0  0  0
  188.9660  173.8280  142.0180 N   0  0  0  0  0  0  0  0  0  0  0  0
  187.0420  179.1200  143.4690 C   0  0  0  0  0  2  0  0  0  0  0  0
  190.4750  176.3170  147.2170 O   0  0  0  0  0  0  0  0  0  0  0  0
  190.0510  176.8850  145.8920 S   0  0  0  0  0  0  0  0  0  0  0  0
  191.5150  176.3260  143.6480 C   0  0  0  0  0  0  0  0  0  0  0  0
  188.9400  175.7500  145.0950 C   0  0  2  0  0  3  0  0  0  0  0  0
  185.9790  177.8670  140.1880 O   0  0  0  0  0  0  0  0  0  0  0  0
  187.4980  175.2830  143.2190 C   0  0  2  0  0  3  0  0  0  0  0  0
  190.7020  175.3520  143.3610 N   0  0  0  0  0  0  0  0  0  0  0  0
  191.4250  177.0530  144.8710 N   0  0  0  0  0  2  0  0  0  0  0  0
  186.6870  177.9780  141.2220 C   0  0  0  0  0  0  0  0  0  0  0  0
  186.7720  177.0200  144.8620 C   0  0  0  0  0  0  0  0  0  0  0  0
  188.3280  174.6760  141.0840 C   0  0  0  0  0  0  0  0  0  0  0  0
  192.5330  176.7310  142.6460 C   0  0  0  0  0  1  0  0  0  0  0  0
  187.8730  177.0820  141.3930 C   0  0  0  0  0  2  0  0  0  0  0  0
  186.0660  176.2960  145.8360 C   0  0  0  0  0  3  0  0  0  0  0  0
  185.2380  178.8790  145.1710 C   0  0  0  0  0  3  0  0  0  0  0  0
  184.5490  178.1530  146.1460 C   0  0  0  0  0  3  0  0  0  0  0  0
  186.3510  178.9710  142.1950 N   0  0  0  0  0  2  0  0  0  0  0  0
  188.5430  174.1590  143.3680 C   0  0  2  0  0  3  0  0  0  0  0  0
  187.4210  175.6590  141.7170 C   0  0  2  0  0  3  0  0  0  0  0  0
  189.6760  174.7390  144.2270 C   0  0  2  0  0  3  0  0  0  0  0  0
  189.7960  172.6860  141.6750 C   0  0  0  0  0  1  0  0  0  0  0  0
  187.9440  176.4030  144.1560 C   0  0  1  0  0  3  0  0  0  0  0  0
  1 16  2  0  0  0  0
  1 21  1  0  0  0  0
  3 17  2  0  0  0  0
  5 24  1  0  0  0  0
  6  1  1  0  0  0  0
  8  2  2  0  0  0  0
  8  7  2  0  0  0  0
  9 14  1  0  0  0  0
 10  8  1  6  0  0  0
 11 15  2  0  0  0  0
 12 24  1  0  0  0  0
 12 28  1  0  0  0  0
 13  9  2  0  0  0  0
 13 26  1  0  0  0  0
 14  8  1  0  0  0  0
 15 19  1  0  0  0  0
 15 23  1  0  0  0  0
 16 20  1  0  0  0  0
 17 25  1  0  0  0  0
 17  5  1  0  0  0  0
 18  9  1  0  0  0  0
 19 25  1  0  0  0  0
 20  4  2  0  0  0  0
 21 22  2  0  0  0  0
 22  4  1  0  0  0  0
 23  6  1  0  0  0  0
 24 26  1  0  0  0  0
 25 12  1  0  0  0  0
 26 10  1  0  0  0  0
 27  5  1  0  0  0  0
 28 16  1  0  0  0  0
 28 10  1  0  0  0  0
M  END
>  <MODEL>
3

>  <REMARK>
 VINA RESULT:      -7.6      2.214      4.814
  Name = 
  0 active torsions:
  status: ('A' for Active; 'I' for Inactive)
                            x       y       z     vdW  Elec       q    Type
                         _______ _______ _______ _____ _____    ______ ____

>  <TORSDO>
F 0

$$$$
=
 OpenBabel11112417383D

 28 32  0  0  1  0  0  0  0  0999 V2000
  191.5950  173.6720  144.8250 C   0  0  0  0  0  0  0  0  0  0  0  0
  190.1200  175.4190  147.3800 O   0  0  0  0  0  0  0  0  0  0  0  0
  187.3160  175.9040  140.6620 O   0  0  0  0  0  0  0  0  0  0  0  0
  193.9700  175.1600  144.7790 C   0  0  0  0  0  3  0  0  0  0  0  0
  188.3030  177.5200  142.0540 N   0  0  0  0  0  0  0  0  0  0  0  0
  190.3530  172.8380  144.8260 C   0  0  0  0  0  2  0  0  0  0  0  0
  190.0660  177.8520  147.7350 O   0  0  0  0  0  0  0  0  0  0  0  0
  189.5680  176.7230  146.8800 S   0  0  0  0  0  0  0  0  0  0  0  0
  187.0890  176.8860  145.7300 C   0  0  0  0  0  0  0  0  0  0  0  0
  190.0480  177.0060  145.1920 C   0  0  2  0  0  3  0  0  0  0  0  0
  189.3060  172.3160  141.3490 O   0  0  0  0  0  0  0  0  0  0  0  0
  190.0970  176.1990  142.9200 C   0  0  2  0  0  3  0  0  0  0  0  0
  187.6290  177.3260  144.6320 N   0  0  0  0  0  0  0  0  0  0  0  0
  187.8490  176.6840  146.9200 N   0  0  0  0  0  2  0  0  0  0  0  0
  189.3580  172.8560  142.4830 C   0  0  0  0  0  0  0  0  0  0  0  0
  191.5470  175.0630  144.6090 C   0  0  0  0  0  0  0  0  0  0  0  0
  188.1910  176.2200  141.5120 C   0  0  0  0  0  0  0  0  0  0  0  0
  185.6490  176.5250  145.7290 C   0  0  0  0  0  1  0  0  0  0  0  0
  188.5780  174.1090  142.7320 C   0  0  0  0  0  2  0  0  0  0  0  0
  192.7440  175.7970  144.5810 C   0  0  0  0  0  3  0  0  0  0  0  0
  192.8290  173.0400  145.0180 C   0  0  0  0  0  3  0  0  0  0  0  0
  194.0130  173.7820  144.9980 C   0  0  0  0  0  3  0  0  0  0  0  0
  190.1450  172.2470  143.5110 N   0  0  0  0  0  2  0  0  0  0  0  0
  189.4300  177.5890  142.9680 C   0  0  2  0  0  3  0  0  0  0  0  0
  189.2280  175.2900  142.0130 C   0  0  2  0  0  3  0  0  0  0  0  0
  189.0070  177.8120  144.4270 C   0  0  2  0  0  3  0  0  0  0  0  0
  187.5130  178.6660  141.6380 C   0  0  0  0  0  1  0  0  0  0  0  0
  190.2310  175.7440  144.3720 C   0  0  1  0  0  3  0  0  0  0  0  0
  1  6  1  0  0  0  0
  1 21  1  0  0  0  0
  3 17  2  0  0  0  0
  4 22  1  0  0  0  0
  5 24  1  0  0  0  0
  8 14  1  0  0  0  0
  8  2  2  0  0  0  0
  8  7  2  0  0  0  0
  9 14  1  0  0  0  0
 10  8  1  1  0  0  0
 11 15  2  0  0  0  0
 12 24  1  0  0  0  0
 12 28  1  0  0  0  0
 13  9  2  0  0  0  0
 15 19  1  0  0  0  0
 15 23  1  0  0  0  0
 16  1  2  0  0  0  0
 17 25  1  0  0  0  0
 17  5  1  0  0  0  0
 18  9  1  0  0  0  0
 20 16  1  0  0  0  0
 20  4  2  0  0  0  0
 22 21  2  0  0  0  0
 23  6  1  0  0  0  0
 24 26  1  0  0  0  0
 25 19  1  0  0  0  0
 25 12  1  0  0  0  0
 26 13  1  0  0  0  0
 26 10  1  0  0  0  0
 27  5  1  0  0  0  0
 28 16  1  0  0  0  0
 28 10  1  0  0  0  0
M  END
>  <MODEL>
4

>  <REMARK>
 VINA RESULT:      -7.5      2.097      6.063
  Name = 
  0 active torsions:
  status: ('A' for Active; 'I' for Inactive)
                            x       y       z     vdW  Elec       q    Type
                         _______ _______ _______ _____ _____    ______ ____

>  <TORSDO>
F 0

$$$$
=
 OpenBabel11112417383D

 28 32  0  0  1  0  0  0  0  0999 V2000
  188.2790  176.0160  144.1490 C   0  0  0  0  0  0  0  0  0  0  0  0
  191.3470  177.5110  143.8220 O   0  0  0  0  0  0  0  0  0  0  0  0
  190.6200  170.4680  142.0640 O   0  0  0  0  0  0  0  0  0  0  0  0
  188.1910  176.1260  146.9490 C   0  0  0  0  0  3  0  0  0  0  0  0
  191.8850  171.5290  143.7360 N   0  0  0  0  0  0  0  0  0  0  0  0
  188.2730  175.9540  142.6550 C   0  0  0  0  0  2  0  0  0  0  0  0
  193.3850  177.1200  145.1430 O   0  0  0  0  0  0  0  0  0  0  0  0
  192.4460  176.5350  144.1270 S   0  0  0  0  0  0  0  0  0  0  0  0
  193.4080  174.8150  142.2280 C   0  0  0  0  0  0  0  0  0  0  0  0
  191.7810  175.0090  144.7520 C   0  0  2  0  0  3  0  0  0  0  0  0
  187.0930  172.6320  141.6400 O   0  0  0  0  0  0  0  0  0  0  0  0
  190.2750  173.1540  144.4280 C   0  0  2  0  0  3  0  0  0  0  0  0
  193.0560  173.8040  142.9670 N   0  0  0  0  0  0  0  0  0  0  0  0
  193.3130  176.1610  142.6900 N   0  0  0  0  0  2  0  0  0  0  0  0
  187.9120  173.5380  141.9420 C   0  0  0  0  0  0  0  0  0  0  0  0
  189.2940  175.4020  144.9070 C   0  0  0  0  0  0  0  0  0  0  0  0
  190.7360  171.3770  142.9290 C   0  0  0  0  0  0  0  0  0  0  0  0
  193.8690  174.5650  140.8380 C   0  0  0  0  0  1  0  0  0  0  0  0
  189.3710  173.2120  142.0000 C   0  0  0  0  0  2  0  0  0  0  0  0
  189.2360  175.4570  146.3090 C   0  0  0  0  0  3  0  0  0  0  0  0
  187.2320  176.6820  144.7990 C   0  0  0  0  0  3  0  0  0  0  0  0
  187.1900  176.7390  146.1940 C   0  0  0  0  0  3  0  0  0  0  0  0
  187.4270  174.8580  142.2030 N   0  0  0  0  0  2  0  0  0  0  0  0
  191.7060  172.6310  144.6650 C   0  0  2  0  0  3  0  0  0  0  0  0
  189.6770  172.3650  143.2340 C   0  0  2  0  0  3  0  0  0  0  0  0
  192.6470  173.8120  144.3840 C   0  0  2  0  0  3  0  0  0  0  0  0
  193.0170  170.6180  143.7520 C   0  0  0  0  0  1  0  0  0  0  0  0
  190.4040  174.6620  144.2210 C   0  0  1  0  0  3  0  0  0  0  0  0
  1 21  2  0  0  0  0
  1 16  1  0  0  0  0
  2  8  2  0  0  0  0
  3 17  2  0  0  0  0
  5 27  1  0  0  0  0
  5 24  1  0  0  0  0
  6  1  1  0  0  0  0
  8  7  2  0  0  0  0
  9 14  1  0  0  0  0
  9 13  2  0  0  0  0
 10  8  1  6  0  0  0
 11 15  2  0  0  0  0
 12 24  1  0  0  0  0
 13 26  1  0  0  0  0
 14  8  1  0  0  0  0
 15 19  1  0  0  0  0
 15 23  1  0  0  0  0
 16 20  2  0  0  0  0
 17 25  1  0  0  0  0
 17  5  1  0  0  0  0
 18  9  1  0  0  0  0
 19 25  1  0  0  0  0
 20  4  1  0  0  0  0
 21 22  1  0  0  0  0
 22  4  2  0  0  0  0
 23  6  1  0  0  0  0
 25 12  1  0  0  0  0
 26 24  1  0  0  0  0
 26 10  1  0  0  0  0
 28 12  1  0  0  0  0
 28 10  1  0  0  0  0
 28 16  1  0  0  0  0
M  END
>  <MODEL>
5

>  <REMARK>
 VINA RESULT:      -7.5      2.408      4.945
  Name = 
  0 active torsions:
  status: ('A' for Active; 'I' for Inactive)
                            x       y       z     vdW  Elec       q    Type
                         _______ _______ _______ _____ _____    ______ ____

>  <TORSDO>
F 0

$$$$
=
 OpenBabel11112417383D

 28 32  0  0  1  0  0  0  0  0999 V2000
  188.9840  175.5470  146.1710 C   0  0  0  0  0  0  0  0  0  0  0  0
  189.3160  172.4260  144.7920 O   0  0  0  0  0  0  0  0  0  0  0  0
  195.1890  176.7230  145.3140 O   0  0  0  0  0  0  0  0  0  0  0  0
  187.4240  176.6210  144.1040 C   0  0  0  0  0  3  0  0  0  0  0  0
  194.0630  175.8520  143.4450 N   0  0  0  0  0  0  0  0  0  0  0  0
  189.7980  175.0120  147.3060 C   0  0  0  0  0  2  0  0  0  0  0  0
  189.7810  171.8320  142.4510 O   0  0  0  0  0  0  0  0  0  0  0  0
  190.3500  172.4360  143.7030 S   0  0  0  0  0  0  0  0  0  0  0  0
  193.0170  172.1580  144.2500 C   0  0  0  0  0  0  0  0  0  0  0  0
  190.8920  174.0940  143.3610 C   0  0  2  0  0  3  0  0  0  0  0  0
  192.3140  177.5240  148.2120 O   0  0  0  0  0  0  0  0  0  0  0  0
  191.8180  176.1540  144.2060 C   0  0  2  0  0  3  0  0  0  0  0  0
  193.2460  173.3230  143.7200 N   0  0  0  0  0  0  0  0  0  0  0  0
  191.7320  171.5410  144.1980 N   0  0  0  0  0  2  0  0  0  0  0  0
  191.8220  176.5180  147.6380 C   0  0  0  0  0  0  0  0  0  0  0  0
  189.4780  175.5580  144.8520 C   0  0  0  0  0  0  0  0  0  0  0  0
  194.1120  176.4010  144.7460 C   0  0  0  0  0  0  0  0  0  0  0  0
  194.1130  171.4720  144.9820 C   0  0  0  0  0  1  0  0  0  0  0  0
  192.6460  175.7780  146.6320 C   0  0  0  0  0  2  0  0  0  0  0  0
  188.6910  176.1050  143.8260 C   0  0  0  0  0  3  0  0  0  0  0  0
  187.7140  176.0710  146.4420 C   0  0  0  0  0  3  0  0  0  0  0  0
  186.9350  176.6030  145.4120 C   0  0  0  0  0  3  0  0  0  0  0  0
  190.4980  176.0990  147.9770 N   0  0  0  0  0  2  0  0  0  0  0  0
  192.6850  175.6280  143.0450 C   0  0  2  0  0  3  0  0  0  0  0  0
  192.7730  176.5930  145.3460 C   0  0  2  0  0  3  0  0  0  0  0  0
  192.3390  174.1400  142.8910 C   0  0  2  0  0  3  0  0  0  0  0  0
  195.2100  175.6880  142.5680 C   0  0  0  0  0  1  0  0  0  0  0  0
  190.8500  175.0260  144.5560 C   0  0  1  0  0  3  0  0  0  0  0  0
  1 21  1  0  0  0  0
  1  6  1  0  0  0  0
  4 22  1  0  0  0  0
  5 17  1  0  0  0  0
  6 23  1  0  0  0  0
  7  8  2  0  0  0  0
  8 14  1  0  0  0  0
  8  2  2  0  0  0  0
  9 18  1  0  0  0  0
 10  8  1  1  0  0  0
 10 28  1  0  0  0  0
 12 28  1  0  0  0  0
 12 25  1  0  0  0  0
 13  9  2  0  0  0  0
 14  9  1  0  0  0  0
 15 23  1  0  0  0  0
 15 11  2  0  0  0  0
 16  1  2  0  0  0  0
 17  3  2  0  0  0  0
 17 25  1  0  0  0  0
 19 15  1  0  0  0  0
 20  4  2  0  0  0  0
 20 16  1  0  0  0  0
 22 21  2  0  0  0  0
 24  5  1  0  0  0  0
 24 12  1  0  0  0  0
 25 19  1  0  0  0  0
 26 24  1  0  0  0  0
 26 10  1  0  0  0  0
 26 13  1  0  0  0  0
 27  5  1  0  0  0  0
 28 16  1  0  0  0  0
M  END
>  <MODEL>
6

>  <REMARK>
 VINA RESULT:      -7.5      2.106      2.617
  Name = 
  0 active torsions:
  status: ('A' for Active; 'I' for Inactive)
                            x       y       z     vdW  Elec       q    Type
                         _______ _______ _______ _____ _____    ______ ____

>  <TORSDO>
F 0

$$$$
=
 OpenBabel11112417383D

 28 32  0  0  1  0  0  0  0  0999 V2000
  188.9160  176.7610  144.3530 C   0  0  0  0  0  0  0  0  0  0  0  0
  192.1920  177.1160  145.3020 O   0  0  0  0  0  0  0  0  0  0  0  0
  190.3530  171.6260  140.8620 O   0  0  0  0  0  0  0  0  0  0  0  0
  187.9460  176.0620  146.8880 C   0  0  0  0  0  3  0  0  0  0  0  0
  191.2220  171.6340  143.0450 N   0  0  0  0  0  0  0  0  0  0  0  0
  189.3860  177.1500  142.9870 C   0  0  0  0  0  2  0  0  0  0  0  0
  193.5190  175.6660  146.7820 O   0  0  0  0  0  0  0  0  0  0  0  0
  192.8510  175.7730  145.4410 S   0  0  0  0  0  0  0  0  0  0  0  0
  193.9220  174.4700  143.2850 C   0  0  0  0  0  0  0  0  0  0  0  0
  191.6600  174.4640  145.2710 C   0  0  2  0  0  3  0  0  0  0  0  0
  187.8160  174.9080  140.5430 O   0  0  0  0  0  0  0  0  0  0  0  0
  189.9320  173.4370  143.9390 C   0  0  2  0  0  3  0  0  0  0  0  0
  193.1070  173.4750  143.4830 N   0  0  0  0  0  0  0  0  0  0  0  0
  194.0190  175.5630  144.1960 N   0  0  0  0  0  2  0  0  0  0  0  0
  188.6890  175.3380  141.3410 C   0  0  0  0  0  0  0  0  0  0  0  0
  189.4400  175.6360  145.0180 C   0  0  0  0  0  0  0  0  0  0  0  0
  190.4010  172.1390  142.0120 C   0  0  0  0  0  0  0  0  0  0  0  0
  194.7350  174.4970  142.0430 C   0  0  0  0  0  1  0  0  0  0  0  0
  189.9190  174.5220  141.5860 C   0  0  0  0  0  2  0  0  0  0  0  0
  188.9410  175.2910  146.2850 C   0  0  0  0  0  3  0  0  0  0  0  0
  187.9150  177.5270  144.9630 C   0  0  0  0  0  3  0  0  0  0  0  0
  187.4340  177.1800  146.2280 C   0  0  0  0  0  3  0  0  0  0  0  0
  188.4900  176.6040  141.9760 N   0  0  0  0  0  2  0  0  0  0  0  0
  191.0290  172.4020  144.2630 C   0  0  2  0  0  3  0  0  0  0  0  0
  189.5820  173.2970  142.4350 C   0  0  2  0  0  3  0  0  0  0  0  0
  192.2720  173.2070  144.6690 C   0  0  2  0  0  3  0  0  0  0  0  0
  192.0210  170.4230  142.9570 C   0  0  0  0  0  1  0  0  0  0  0  0
  190.4930  174.7930  144.3600 C   0  0  1  0  0  3  0  0  0  0  0  0
  1 21  2  0  0  0  0
  1 16  1  0  0  0  0
  2  8  2  0  0  0  0
  3 17  2  0  0  0  0
  5 24  1  0  0  0  0
  6  1  1  0  0  0  0
  8  7  2  0  0  0  0
  9 13  2  0  0  0  0
  9 14  1  0  0  0  0
 10  8  1  6  0  0  0
 11 15  2  0  0  0  0
 12 24  1  0  0  0  0
 12 28  1  0  0  0  0
 13 26  1  0  0  0  0
 14  8  1  0  0  0  0
 15 19  1  0  0  0  0
 15 23  1  0  0  0  0
 16 20  2  0  0  0  0
 17 25  1  0  0  0  0
 17  5  1  0  0  0  0
 18  9  1  0  0  0  0
 19 25  1  0  0  0  0
 20  4  1  0  0  0  0
 21 22  1  0  0  0  0
 22  4  2  0  0  0  0
 23  6  1  0  0  0  0
 24 26  1  0  0  0  0
 25 12  1  0  0  0  0
 26 10  1  0  0  0  0
 27  5  1  0  0  0  0
 28 16  1  0  0  0  0
 28 10  1  0  0  0  0
M  END
>  <MODEL>
7

>  <REMARK>
 VINA RESULT:      -7.3      2.330      5.010
  Name = 
  0 active torsions:
  status: ('A' for Active; 'I' for Inactive)
                            x       y       z     vdW  Elec       q    Type
                         _______ _______ _______ _____ _____    ______ ____

>  <TORSDO>
F 0

$$$$
=
 OpenBabel11112417383D

 28 32  0  0  1  0  0  0  0  0999 V2000
  193.0500  174.0040  142.3940 C   0  0  0  0  0  0  0  0  0  0  0  0
  193.4630  174.6040  145.7450 O   0  0  0  0  0  0  0  0  0  0  0  0
  186.8950  175.6200  142.7360 O   0  0  0  0  0  0  0  0  0  0  0  0
  194.6420  176.1370  141.5120 C   0  0  0  0  0  3  0  0  0  0  0  0
  188.3870  177.1240  143.7520 N   0  0  0  0  0  0  0  0  0  0  0  0
  192.2090  172.8430  142.8190 C   0  0  0  0  0  2  0  0  0  0  0  0
  193.4150  176.7600  146.9280 O   0  0  0  0  0  0  0  0  0  0  0  0
  192.5920  175.7430  146.1900 S   0  0  0  0  0  0  0  0  0  0  0  0
  189.9710  175.3620  146.8790 C   0  0  0  0  0  0  0  0  0  0  0  0
  191.8080  176.5200  144.7960 C   0  0  2  0  0  3  0  0  0  0  0  0
  189.1870  172.7810  140.7380 O   0  0  0  0  0  0  0  0  0  0  0  0
  190.4270  176.2800  142.8350 C   0  0  2  0  0  3  0  0  0  0  0  0
  189.6050  176.1760  145.9340 N   0  0  0  0  0  0  0  0  0  0  0  0
  191.3410  175.1580  147.2160 N   0  0  0  0  0  2  0  0  0  0  0  0
  189.9210  173.0520  141.7240 C   0  0  0  0  0  0  0  0  0  0  0  0
  192.7340  175.3210  142.7790 C   0  0  0  0  0  0  0  0  0  0  0  0
  188.0760  176.0040  142.9490 C   0  0  0  0  0  0  0  0  0  0  0  0
  188.9330  174.5760  147.5940 C   0  0  0  0  0  1  0  0  0  0  0  0
  189.3790  173.9100  142.8220 C   0  0  0  0  0  2  0  0  0  0  0  0
  193.5340  176.3820  142.3260 C   0  0  0  0  0  3  0  0  0  0  0  0
  194.1600  173.7660  141.5750 C   0  0  0  0  0  3  0  0  0  0  0  0
  194.9550  174.8290  141.1380 C   0  0  0  0  0  3  0  0  0  0  0  0
  191.2450  172.5150  141.7760 N   0  0  0  0  0  2  0  0  0  0  0  0
  189.8230  177.3450  143.7730 C   0  0  2  0  0  3  0  0  0  0  0  0
  189.2720  175.3620  142.3580 C   0  0  2  0  0  3  0  0  0  0  0  0
  190.4480  177.1030  145.1540 C   0  0  2  0  0  3  0  0  0  0  0  0
  187.4100  178.0240  144.3390 C   0  0  0  0  0  1  0  0  0  0  0  0
  191.5290  175.5880  143.6330 C   0  0  1  0  0  3  0  0  0  0  0  0
  1 16  1  0  0  0  0
  1  6  1  0  0  0  0
  2  8  2  0  0  0  0
  3 17  2  0  0  0  0
  4 20  1  0  0  0  0
  5 24  1  0  0  0  0
  5 27  1  0  0  0  0
  8  7  2  0  0  0  0
  8 14  1  0  0  0  0
  9 14  1  0  0  0  0
  9 18  1  0  0  0  0
 10 26  1  0  0  0  0
 10  8  1  1  0  0  0
 11 15  2  0  0  0  0
 12 28  1  0  0  0  0
 12 24  1  0  0  0  0
 13  9  2  0  0  0  0
 15 23  1  0  0  0  0
 15 19  1  0  0  0  0
 16 28  1  0  0  0  0
 17  5  1  0  0  0  0
 20 16  2  0  0  0  0
 21  1  2  0  0  0  0
 22  4  2  0  0  0  0
 22 21  1  0  0  0  0
 23  6  1  0  0  0  0
 24 26  1  0  0  0  0
 25 19  1  0  0  0  0
 25 12  1  0  0  0  0
 25 17  1  0  0  0  0
 26 13  1  0  0  0  0
 28 10  1  0  0  0  0
M  END
>  <MODEL>
8

>  <REMARK>
 VINA RESULT:      -7.1      2.150      6.161
  Name = 
  0 active torsions:
  status: ('A' for Active; 'I' for Inactive)
                            x       y       z     vdW  Elec       q    Type
                         _______ _______ _______ _____ _____    ______ ____

>  <TORSDO>
F 0

$$$$
=
 OpenBabel11112417383D

 28 32  0  0  1  0  0  0  0  0999 V2000
  194.6240  173.9890  144.3040 C   0  0  0  0  0  0  0  0  0  0  0  0
  192.4120  173.5720  141.7170 O   0  0  0  0  0  0  0  0  0  0  0  0
  190.4030  177.5310  147.5070 O   0  0  0  0  0  0  0  0  0  0  0  0
  194.5990  171.3160  145.1500 C   0  0  0  0  0  3  0  0  0  0  0  0
  189.5700  175.5110  146.6420 N   0  0  0  0  0  0  0  0  0  0  0  0
  194.6830  175.4210  143.8760 C   0  0  0  0  0  2  0  0  0  0  0  0
  190.3180  172.2820  141.6910 O   0  0  0  0  0  0  0  0  0  0  0  0
  191.0030  173.5050  142.2320 S   0  0  0  0  0  0  0  0  0  0  0  0
  189.5440  175.7670  142.7270 C   0  0  0  0  0  0  0  0  0  0  0  0
  190.9800  173.4530  144.0080 C   0  0  2  0  0  3  0  0  0  0  0  0
  194.5140  177.5320  146.8720 O   0  0  0  0  0  0  0  0  0  0  0  0
  191.6510  174.4720  146.0890 C   0  0  2  0  0  3  0  0  0  0  0  0
  189.4310  175.4190  143.9750 N   0  0  0  0  0  0  0  0  0  0  0  0
  190.1360  174.9110  141.7520 N   0  0  0  0  0  2  0  0  0  0  0  0
  194.1030  176.8910  145.8700 C   0  0  0  0  0  0  0  0  0  0  0  0
  193.4100  173.3850  144.6860 C   0  0  0  0  0  0  0  0  0  0  0  0
  190.6090  176.4160  146.9580 C   0  0  0  0  0  0  0  0  0  0  0  0
  189.0970  177.1220  142.3140 C   0  0  0  0  0  1  0  0  0  0  0  0
  192.6330  176.8210  145.6030 C   0  0  0  0  0  2  0  0  0  0  0  0
  193.4100  172.0480  145.1150 C   0  0  0  0  0  3  0  0  0  0  0  0
  195.8120  173.2490  144.3460 C   0  0  0  0  0  3  0  0  0  0  0  0
  195.7990  171.9160  144.7650 C   0  0  0  0  0  3  0  0  0  0  0  0
  195.0530  176.2650  145.0040 N   0  0  0  0  0  2  0  0  0  0  0  0
  190.1190  174.2980  146.0610 C   0  0  2  0  0  3  0  0  0  0  0  0
  191.9530  175.8990  146.6150 C   0  0  2  0  0  3  0  0  0  0  0  0
  189.7350  174.1110  144.5860 C   0  0  2  0  0  3  0  0  0  0  0  0
  188.1730  175.6930  146.9940 C   0  0  0  0  0  1  0  0  0  0  0  0
  192.1360  174.1780  144.6710 C   0  0  1  0  0  3  0  0  0  0  0  0
  1 21  2  0  0  0  0
  1 16  1  0  0  0  0
  2  8  2  0  0  0  0
  5 17  1  0  0  0  0
  5 27  1  0  0  0  0
  6  1  1  0  0  0  0
  6 23  1  0  0  0  0
  7  8  2  0  0  0  0
  9 13  2  0  0  0  0
 10  8  1  6  0  0  0
 10 26  1  0  0  0  0
 10 28  1  0  0  0  0
 12 25  1  0  0  0  0
 13 26  1  0  0  0  0
 14  8  1  0  0  0  0
 14  9  1  0  0  0  0
 15 11  2  0  0  0  0
 16 20  2  0  0  0  0
 17  3  2  0  0  0  0
 18  9  1  0  0  0  0
 19 15  1  0  0  0  0
 19 25  1  0  0  0  0
 20  4  1  0  0  0  0
 21 22  1  0  0  0  0
 22  4  2  0  0  0  0
 23 15  1  0  0  0  0
 24 12  1  0  0  0  0
 24  5  1  0  0  0  0
 25 17  1  0  0  0  0
 26 24  1  0  0  0  0
 28 16  1  0  0  0  0
 28 12  1  0  0  0  0
M  END
>  <MODEL>
9

>  <REMARK>
 VINA RESULT:      -7.0      2.359      6.004
  Name = 
  0 active torsions:
  status: ('A' for Active; 'I' for Inactive)
                            x       y       z     vdW  Elec       q    Type
                         _______ _______ _______ _____ _____    ______ ____

>  <TORSDO>
F 0

$$$$
