=
 OpenBabel11112416253D

 30 36  0  0  1  0  0  0  0  0999 V2000
  190.0260  174.9290  143.9480 C   0  0  0  0  0  0  0  0  0  0  0  0
  192.0510  174.5840  145.3730 C   0  0  0  0  0  0  0  0  0  0  0  0
  188.2740  177.3430  146.8970 N   0  0  0  0  0  2  0  0  0  0  0  0
  188.7780  175.5850  143.7310 C   0  0  0  0  0  0  0  0  0  0  0  0
  190.4590  173.8650  142.9760 C   0  0  0  0  0  2  0  0  0  0  0  0
  188.0140  174.2400  140.4450 O   0  0  0  0  0  0  0  0  0  0  0  0
  186.0040  176.8450  142.7400 C   0  0  1  0  0  3  0  0  0  0  0  0
  188.7060  174.6130  141.4340 C   0  0  0  0  0  0  0  0  0  0  0  0
  186.3880  177.7620  143.8620 C   0  0  1  0  0  3  0  0  0  0  0  0
  186.9720  177.6710  146.3380 C   0  0  2  0  0  3  0  0  0  0  0  0
  190.1540  174.2360  141.5380 C   0  0  2  0  0  3  0  0  0  0  0  0
  188.1340  175.4860  142.4260 N   0  0  0  0  0  0  0  0  0  0  0  0
  192.7390  174.8510  146.5600 C   0  0  0  0  0  3  0  0  0  0  0  0
  185.1040  178.5030  144.1860 C   0  0  0  0  0  2  0  0  0  0  0  0
  184.9430  177.5780  141.9380 C   0  0  0  0  0  2  0  0  0  0  0  0
  192.6560  173.7790  144.4660 F   0  0  0  0  0  0  0  0  0  0  0  0
  188.9790  176.5770  145.9380 C   0  0  0  0  0  0  0  0  0  0  0  0
  192.1890  175.6870  147.5290 C   0  0  0  0  0  3  0  0  0  0  0  0
  190.7780  175.1660  145.1370 C   0  0  0  0  0  0  0  0  0  0  0  0
  188.2550  176.3610  144.7950 C   0  0  0  0  0  0  0  0  0  0  0  0
  185.8820  177.2210  147.2900 C   0  0  0  0  0  1  0  0  0  0  0  0
  186.8660  176.8930  145.0120 C   0  0  2  0  0  3  0  0  0  0  0  0
  184.3360  178.6020  142.8810 C   0  0  0  0  0  2  0  0  0  0  0  0
  187.4410  177.0670  140.8490 O   0  0  0  0  0  0  0  0  0  0  0  0
  190.9410  176.2680  147.3190 C   0  0  0  0  0  3  0  0  0  0  0  0
  190.2390  176.0210  146.1340 C   0  0  0  0  0  0  0  0  0  0  0  0
  187.2120  176.4820  141.9450 C   0  0  0  0  0  0  0  0  0  0  0  0
  190.5230  173.0730  140.6240 C   0  0  0  0  0  3  0  0  0  0  0  0
  190.9780  173.6090  139.2810 C   0  0  0  0  0  2  0  0  0  0  0  0
  192.0010  173.1370  140.2910 C   0  0  0  0  0  2  0  0  0  0  0  0
  1 19  1  0  0  0  0
  2 13  1  0  0  0  0
  4  1  2  0  0  0  0
  4 20  1  0  0  0  0
  5  1  1  0  0  0  0
  6  8  2  0  0  0  0
  7 15  1  6  0  0  0
  7  9  1  0  0  0  0
  8 11  1  0  0  0  0
  8 12  1  0  0  0  0
  9 14  1  1  0  0  0
  9 22  1  0  0  0  0
 10  3  1  0  0  0  0
 10 21  1  1  0  0  0
 11 28  1  6  0  0  0
 11  5  1  0  0  0  0
 12  4  1  0  0  0  0
 13 18  2  0  0  0  0
 15 23  1  0  0  0  0
 16  2  1  0  0  0  0
 17 26  1  0  0  0  0
 17  3  1  0  0  0  0
 19  2  2  0  0  0  0
 19 26  1  0  0  0  0
 20 17  2  0  0  0  0
 22 20  1  6  0  0  0
 22 10  1  0  0  0  0
 23 14  1  0  0  0  0
 24 27  2  0  0  0  0
 25 18  1  0  0  0  0
 26 25  2  0  0  0  0
 27 12  1  0  0  0  0
 27  7  1  0  0  0  0
 29 30  1  0  0  0  0
 29 28  1  0  0  0  0
 30 28  1  0  0  0  0
M  END
>  <MODEL>
1

>  <REMARK>
 VINA RESULT:      -8.9      0.000      0.000
  Name = 
  1 active torsions:
  status: ('A' for Active; 'I' for Inactive)
    1  A    between atoms: C_11  and  C_28
                            x       y       z     vdW  Elec       q    Type
                         _______ _______ _______ _____ _____    ______ ____

>  <TORSDO>
F 1

$$$$
=
 OpenBabel11112416253D

 30 36  0  0  1  0  0  0  0  0999 V2000
  186.2270  177.6170  143.9360 C   0  0  0  0  0  0  0  0  0  0  0  0
  184.7240  178.5100  145.7240 C   0  0  0  0  0  0  0  0  0  0  0  0
  188.8840  176.1250  146.8190 N   0  0  0  0  0  2  0  0  0  0  0  0
  187.3720  176.8500  143.5700 C   0  0  0  0  0  0  0  0  0  0  0  0
  185.4790  178.3550  142.8600 C   0  0  0  0  0  2  0  0  0  0  0  0
  187.0450  177.0670  139.9590 O   0  0  0  0  0  0  0  0  0  0  0  0
  189.7540  175.1750  142.2340 C   0  0  1  0  0  3  0  0  0  0  0  0
  186.7030  177.0600  141.1750 C   0  0  0  0  0  0  0  0  0  0  0  0
  189.7660  174.6740  143.6470 C   0  0  1  0  0  3  0  0  0  0  0  0
  189.9640  175.5590  146.0250 C   0  0  2  0  0  3  0  0  0  0  0  0
  185.3430  177.5410  141.5880 C   0  0  2  0  0  3  0  0  0  0  0  0
  187.5820  176.5020  142.1690 N   0  0  0  0  0  0  0  0  0  0  0  0
  184.4410  178.6660  147.0830 C   0  0  0  0  0  3  0  0  0  0  0  0
  191.1140  173.9910  143.7830 C   0  0  0  0  0  2  0  0  0  0  0  0
  190.5450  174.1660  141.4200 C   0  0  0  0  0  2  0  0  0  0  0  0
  183.8410  179.0330  144.8370 F   0  0  0  0  0  0  0  0  0  0  0  0
  187.8920  176.6000  145.9280 C   0  0  0  0  0  0  0  0  0  0  0  0
  185.2920  178.1360  148.0520 C   0  0  0  0  0  3  0  0  0  0  0  0
  185.8840  177.8050  145.3080 C   0  0  0  0  0  0  0  0  0  0  0  0
  188.2240  176.4080  144.6120 C   0  0  0  0  0  0  0  0  0  0  0  0
  191.2760  176.2120  146.4130 C   0  0  0  0  0  1  0  0  0  0  0  0
  189.6310  175.8830  144.5550 C   0  0  2  0  0  3  0  0  0  0  0  0
  191.4490  173.4470  142.4060 C   0  0  0  0  0  2  0  0  0  0  0  0
  187.8170  174.4710  141.0330 O   0  0  0  0  0  0  0  0  0  0  0  0
  186.4360  177.4420  147.6670 C   0  0  0  0  0  3  0  0  0  0  0  0
  186.7330  177.2670  146.3110 C   0  0  0  0  0  0  0  0  0  0  0  0
  188.3480  175.3500  141.7690 C   0  0  0  0  0  0  0  0  0  0  0  0
  184.6700  178.3860  140.5130 C   0  0  0  0  0  3  0  0  0  0  0  0
  183.6600  177.5410  139.7630 C   0  0  0  0  0  2  0  0  0  0  0  0
  183.1910  178.5160  140.8200 C   0  0  0  0  0  2  0  0  0  0  0  0
  1 19  1  0  0  0  0
  2 13  1  0  0  0  0
  4  1  2  0  0  0  0
  4 20  1  0  0  0  0
  5  1  1  0  0  0  0
  6  8  2  0  0  0  0
  7 15  1  6  0  0  0
  7  9  1  0  0  0  0
  8 11  1  0  0  0  0
  8 12  1  0  0  0  0
  9 14  1  1  0  0  0
  9 22  1  0  0  0  0
 10 21  1  1  0  0  0
 10  3  1  0  0  0  0
 11 28  1  6  0  0  0
 11  5  1  0  0  0  0
 12  4  1  0  0  0  0
 13 18  2  0  0  0  0
 15 23  1  0  0  0  0
 16  2  1  0  0  0  0
 17 26  1  0  0  0  0
 17  3  1  0  0  0  0
 19  2  2  0  0  0  0
 19 26  1  0  0  0  0
 20 17  2  0  0  0  0
 22 20  1  1  0  0  0
 22 10  1  0  0  0  0
 23 14  1  0  0  0  0
 24 27  2  0  0  0  0
 25 18  1  0  0  0  0
 26 25  2  0  0  0  0
 27 12  1  0  0  0  0
 27  7  1  0  0  0  0
 28 30  1  0  0  0  0
 29 28  1  0  0  0  0
 29 30  1  0  0  0  0
M  END
>  <MODEL>
2

>  <REMARK>
 VINA RESULT:      -8.8      2.232      5.841
  Name = 
  1 active torsions:
  status: ('A' for Active; 'I' for Inactive)
    1  A    between atoms: C_11  and  C_28
                            x       y       z     vdW  Elec       q    Type
                         _______ _______ _______ _____ _____    ______ ____

>  <TORSDO>
F 1

$$$$
=
 OpenBabel11112416253D

 30 36  0  0  1  0  0  0  0  0999 V2000
  189.6750  175.9030  143.6660 C   0  0  0  0  0  0  0  0  0  0  0  0
  190.8000  174.3710  142.0430 C   0  0  0  0  0  0  0  0  0  0  0  0
  186.4360  176.4130  141.0500 N   0  0  0  0  0  2  0  0  0  0  0  0
  188.5280  176.6660  144.0380 C   0  0  0  0  0  0  0  0  0  0  0  0
  190.9070  175.9910  144.5250 C   0  0  0  0  0  2  0  0  0  0  0  0
  189.6660  177.8200  147.2880 O   0  0  0  0  0  0  0  0  0  0  0  0
  186.2030  178.4310  145.3580 C   0  0  1  0  0  3  0  0  0  0  0  0
  189.5710  177.0850  146.2660 C   0  0  0  0  0  0  0  0  0  0  0  0
  185.4730  177.7080  144.2650 C   0  0  1  0  0  3  0  0  0  0  0  0
  185.5840  177.3650  141.7460 C   0  0  2  0  0  3  0  0  0  0  0  0
  190.5810  176.0070  146.0060 C   0  0  2  0  0  3  0  0  0  0  0  0
  188.4380  177.2120  145.3880 N   0  0  0  0  0  0  0  0  0  0  0  0
  190.7770  173.7000  140.8170 C   0  0  0  0  0  3  0  0  0  0  0  0
  184.1810  178.4890  144.1080 C   0  0  0  0  0  2  0  0  0  0  0  0
  185.1360  178.9640  146.2980 C   0  0  0  0  0  2  0  0  0  0  0  0
  191.8820  174.1870  142.8370 F   0  0  0  0  0  0  0  0  0  0  0  0
  187.5370  176.1200  141.8900 C   0  0  0  0  0  0  0  0  0  0  0  0
  189.6880  173.8240  139.9580 C   0  0  0  0  0  3  0  0  0  0  0  0
  189.7080  175.1900  142.4310 C   0  0  0  0  0  0  0  0  0  0  0  0
  187.4940  176.8010  143.0780 C   0  0  0  0  0  0  0  0  0  0  0  0
  185.3620  178.5830  140.8710 C   0  0  0  0  0  1  0  0  0  0  0  0
  186.3450  177.7680  143.0240 C   0  0  2  0  0  3  0  0  0  0  0  0
  183.8590  179.0470  145.4810 C   0  0  0  0  0  2  0  0  0  0  0  0
  186.8840  176.9740  147.1190 O   0  0  0  0  0  0  0  0  0  0  0  0
  188.6060  174.6230  140.3180 C   0  0  0  0  0  3  0  0  0  0  0  0
  188.6040  175.2980  141.5440 C   0  0  0  0  0  0  0  0  0  0  0  0
  187.1760  177.5120  146.0130 C   0  0  0  0  0  0  0  0  0  0  0  0
  191.8640  176.2010  146.8060 C   0  0  0  0  0  3  0  0  0  0  0  0
  191.8190  175.3380  148.0510 C   0  0  0  0  0  2  0  0  0  0  0  0
  192.6350  174.8960  146.8560 C   0  0  0  0  0  2  0  0  0  0  0  0
  1  4  1  0  0  0  0
  1  5  1  0  0  0  0
  2 19  1  0  0  0  0
  2 16  1  0  0  0  0
  3 10  1  0  0  0  0
  3 17  1  0  0  0  0
  4 12  1  0  0  0  0
  5 11  1  0  0  0  0
  7 27  1  0  0  0  0
  7 15  1  1  0  0  0
  8  6  2  0  0  0  0
  9 14  1  6  0  0  0
  9  7  1  0  0  0  0
 10 21  1  6  0  0  0
 10 22  1  0  0  0  0
 11  8  1  0  0  0  0
 11 28  1  1  0  0  0
 12 27  1  0  0  0  0
 12  8  1  0  0  0  0
 13  2  2  0  0  0  0
 14 23  1  0  0  0  0
 17 20  1  0  0  0  0
 18 25  2  0  0  0  0
 18 13  1  0  0  0  0
 19  1  2  0  0  0  0
 20  4  2  0  0  0  0
 22 20  1  1  0  0  0
 22  9  1  0  0  0  0
 23 15  1  0  0  0  0
 25 26  1  0  0  0  0
 26 17  2  0  0  0  0
 26 19  1  0  0  0  0
 27 24  2  0  0  0  0
 28 30  1  0  0  0  0
 28 29  1  0  0  0  0
 30 29  1  0  0  0  0
M  END
>  <MODEL>
3

>  <REMARK>
 VINA RESULT:      -8.7      2.085      5.015
  Name = 
  1 active torsions:
  status: ('A' for Active; 'I' for Inactive)
    1  A    between atoms: C_11  and  C_28
                            x       y       z     vdW  Elec       q    Type
                         _______ _______ _______ _____ _____    ______ ____

>  <TORSDO>
F 1

$$$$
=
 OpenBabel11112416253D

 30 36  0  0  1  0  0  0  0  0999 V2000
  186.7650  176.8040  143.7760 C   0  0  0  0  0  0  0  0  0  0  0  0
  185.1490  178.1650  142.4390 C   0  0  0  0  0  0  0  0  0  0  0  0
  188.3440  175.1150  140.2770 N   0  0  0  0  0  2  0  0  0  0  0  0
  187.8810  175.9180  143.8140 C   0  0  0  0  0  0  0  0  0  0  0  0
  186.0750  177.1500  145.0670 C   0  0  0  0  0  2  0  0  0  0  0  0
  188.3010  175.7170  147.4160 O   0  0  0  0  0  0  0  0  0  0  0  0
  190.3910  174.0260  144.4380 C   0  0  1  0  0  3  0  0  0  0  0  0
  187.9700  176.1900  146.2930 C   0  0  0  0  0  0  0  0  0  0  0  0
  190.5840  174.3430  142.9850 C   0  0  1  0  0  3  0  0  0  0  0  0
  189.3370  174.1740  140.7720 C   0  0  2  0  0  3  0  0  0  0  0  0
  187.0530  177.3740  146.2040 C   0  0  2  0  0  3  0  0  0  0  0  0
  188.5450  175.6550  145.0860 N   0  0  0  0  0  0  0  0  0  0  0  0
  184.6530  178.5500  141.1910 C   0  0  0  0  0  3  0  0  0  0  0  0
  191.5790  173.2990  142.5110 C   0  0  0  0  0  2  0  0  0  0  0  0
  191.7230  173.4920  144.9350 C   0  0  0  0  0  2  0  0  0  0  0  0
  184.5840  178.7270  143.5360 F   0  0  0  0  0  0  0  0  0  0  0  0
  187.7950  175.7930  141.3900 C   0  0  0  0  0  0  0  0  0  0  0  0
  185.1980  178.0310  140.0180 C   0  0  0  0  0  3  0  0  0  0  0  0
  186.2200  177.2390  142.5310 C   0  0  0  0  0  0  0  0  0  0  0  0
  188.3290  175.3790  142.5820 C   0  0  0  0  0  0  0  0  0  0  0  0
  189.0170  172.7820  140.2630 C   0  0  0  0  0  1  0  0  0  0  0  0
  189.2310  174.2080  142.3090 C   0  0  2  0  0  3  0  0  0  0  0  0
  192.4560  172.9830  143.7070 C   0  0  0  0  0  2  0  0  0  0  0  0
  190.7430  175.9230  145.8400 O   0  0  0  0  0  0  0  0  0  0  0  0
  186.2490  177.1190  140.0840 C   0  0  0  0  0  3  0  0  0  0  0  0
  186.7660  176.7270  141.3240 C   0  0  0  0  0  0  0  0  0  0  0  0
  189.9220  175.2400  145.1640 C   0  0  0  0  0  0  0  0  0  0  0  0
  186.2830  177.6150  147.4970 C   0  0  0  0  0  3  0  0  0  0  0  0
  186.8720  178.8100  148.2210 C   0  0  0  0  0  2  0  0  0  0  0  0
  185.5900  178.9630  147.4330 C   0  0  0  0  0  2  0  0  0  0  0  0
  1  4  1  0  0  0  0
  1  5  1  0  0  0  0
  2 19  1  0  0  0  0
  2 16  1  0  0  0  0
  3 10  1  0  0  0  0
  3 17  1  0  0  0  0
  4 12  1  0  0  0  0
  5 11  1  0  0  0  0
  7 15  1  1  0  0  0
  7 27  1  0  0  0  0
  8  6  2  0  0  0  0
  9 14  1  6  0  0  0
  9  7  1  0  0  0  0
 10 21  1  6  0  0  0
 10 22  1  0  0  0  0
 11  8  1  0  0  0  0
 11 28  1  1  0  0  0
 12 27  1  0  0  0  0
 12  8  1  0  0  0  0
 13  2  2  0  0  0  0
 14 23  1  0  0  0  0
 17 20  1  0  0  0  0
 18 25  2  0  0  0  0
 18 13  1  0  0  0  0
 19  1  2  0  0  0  0
 20  4  2  0  0  0  0
 22 20  1  6  0  0  0
 22  9  1  0  0  0  0
 23 15  1  0  0  0  0
 25 26  1  0  0  0  0
 26 17  2  0  0  0  0
 26 19  1  0  0  0  0
 27 24  2  0  0  0  0
 28 29  1  0  0  0  0
 30 28  1  0  0  0  0
 30 29  1  0  0  0  0
M  END
>  <MODEL>
4

>  <REMARK>
 VINA RESULT:      -8.5      2.788      7.338
  Name = 
  1 active torsions:
  status: ('A' for Active; 'I' for Inactive)
    1  A    between atoms: C_11  and  C_28
                            x       y       z     vdW  Elec       q    Type
                         _______ _______ _______ _____ _____    ______ ____

>  <TORSDO>
F 1

$$$$
=
 OpenBabel11112416253D

 30 36  0  0  1  0  0  0  0  0999 V2000
  190.2970  175.9880  144.3830 C   0  0  0  0  0  0  0  0  0  0  0  0
  191.8320  176.4710  146.2970 C   0  0  0  0  0  0  0  0  0  0  0  0
  193.3420  173.9180  142.3740 N   0  0  0  0  0  2  0  0  0  0  0  0
  190.0550  175.3210  143.1460 C   0  0  0  0  0  0  0  0  0  0  0  0
  189.2540  176.9380  144.9060 C   0  0  0  0  0  2  0  0  0  0  0  0
  186.5940  176.3080  142.6580 O   0  0  0  0  0  0  0  0  0  0  0  0
  188.9910  173.9780  140.4390 C   0  0  1  0  0  3  0  0  0  0  0  0
  187.6680  176.0390  143.2650 C   0  0  0  0  0  0  0  0  0  0  0  0
  190.2310  173.1850  140.7210 C   0  0  1  0  0  3  0  0  0  0  0  0
  192.7210  173.5390  141.1140 C   0  0  2  0  0  3  0  0  0  0  0  0
  187.8450  176.4160  144.7060 C   0  0  2  0  0  3  0  0  0  0  0  0
  188.7010  175.2820  142.6060 N   0  0  0  0  0  0  0  0  0  0  0  0
  193.0900  176.3300  146.8880 C   0  0  0  0  0  3  0  0  0  0  0  0
  190.5320  172.4920  139.4050 C   0  0  0  0  0  2  0  0  0  0  0  0
  188.1910  173.1700  139.4320 C   0  0  0  0  0  2  0  0  0  0  0  0
  190.8940  177.1700  146.9820 F   0  0  0  0  0  0  0  0  0  0  0  0
  192.3650  174.5710  143.1610 C   0  0  0  0  0  0  0  0  0  0  0  0
  194.0970  175.6070  146.2520 C   0  0  0  0  0  3  0  0  0  0  0  0
  191.5600  175.8750  145.0380 C   0  0  0  0  0  0  0  0  0  0  0  0
  191.1510  174.6670  142.5310 C   0  0  0  0  0  0  0  0  0  0  0  0
  193.5310  174.0970  139.9600 C   0  0  0  0  0  1  0  0  0  0  0  0
  191.3150  174.1700  141.1220 C   0  0  2  0  0  3  0  0  0  0  0  0
  189.1890  172.2580  138.7390 C   0  0  0  0  0  2  0  0  0  0  0  0
  187.2530  173.5440  142.0140 O   0  0  0  0  0  0  0  0  0  0  0  0
  193.8530  175.0150  145.0160 C   0  0  0  0  0  3  0  0  0  0  0  0
  192.5980  175.1370  144.4100 C   0  0  0  0  0  0  0  0  0  0  0  0
  188.2590  174.2460  141.7100 C   0  0  0  0  0  0  0  0  0  0  0  0
  186.8430  177.4710  145.1620 C   0  0  0  0  0  3  0  0  0  0  0  0
  185.6300  176.7910  145.7640 C   0  0  0  0  0  2  0  0  0  0  0  0
  186.6790  177.4000  146.6680 C   0  0  0  0  0  2  0  0  0  0  0  0
  1  5  1  0  0  0  0
  1 19  1  0  0  0  0
  2 13  1  0  0  0  0
  2 16  1  0  0  0  0
  3 17  1  0  0  0  0
  4  1  2  0  0  0  0
  6  8  2  0  0  0  0
  7 15  1  6  0  0  0
  7  9  1  0  0  0  0
  7 27  1  0  0  0  0
  8 11  1  0  0  0  0
  9 14  1  6  0  0  0
  9 22  1  0  0  0  0
 10 21  1  6  0  0  0
 10 22  1  0  0  0  0
 10  3  1  0  0  0  0
 11  5  1  0  0  0  0
 11 28  1  6  0  0  0
 12  4  1  0  0  0  0
 12  8  1  0  0  0  0
 17 26  1  0  0  0  0
 18 13  2  0  0  0  0
 19  2  2  0  0  0  0
 20  4  1  0  0  0  0
 20 17  2  0  0  0  0
 22 20  1  1  0  0  0
 23 14  1  0  0  0  0
 23 15  1  0  0  0  0
 25 18  1  0  0  0  0
 26 25  2  0  0  0  0
 26 19  1  0  0  0  0
 27 24  2  0  0  0  0
 27 12  1  0  0  0  0
 28 29  1  0  0  0  0
 28 30  1  0  0  0  0
 29 30  1  0  0  0  0
M  END
>  <MODEL>
5

>  <REMARK>
 VINA RESULT:      -8.0      1.937      5.684
  Name = 
  1 active torsions:
  status: ('A' for Active; 'I' for Inactive)
    1  A    between atoms: C_11  and  C_28
                            x       y       z     vdW  Elec       q    Type
                         _______ _______ _______ _____ _____    ______ ____

>  <TORSDO>
F 1

$$$$
=
 OpenBabel11112416253D

 30 36  0  0  1  0  0  0  0  0999 V2000
  189.4380  176.4630  144.8530 C   0  0  0  0  0  0  0  0  0  0  0  0
  190.2530  177.0950  147.1300 C   0  0  0  0  0  0  0  0  0  0  0  0
  192.5670  173.7030  144.4220 N   0  0  0  0  0  2  0  0  0  0  0  0
  189.5330  175.6150  143.7100 C   0  0  0  0  0  0  0  0  0  0  0  0
  188.4680  177.6120  144.8200 C   0  0  0  0  0  2  0  0  0  0  0  0
  186.7110  176.9130  141.8270 O   0  0  0  0  0  0  0  0  0  0  0  0
  189.2740  173.9430  140.9900 C   0  0  1  0  0  3  0  0  0  0  0  0
  187.4320  176.6300  142.8250 C   0  0  0  0  0  0  0  0  0  0  0  0
  190.1680  173.0690  141.8170 C   0  0  1  0  0  3  0  0  0  0  0  0
  192.3760  173.1810  143.0780 C   0  0  2  0  0  3  0  0  0  0  0  0
  187.1510  177.2390  144.1660 C   0  0  2  0  0  3  0  0  0  0  0  0
  188.4760  175.6460  142.7060 N   0  0  0  0  0  0  0  0  0  0  0  0
  191.1720  176.9110  148.1670 C   0  0  0  0  0  3  0  0  0  0  0  0
  190.7850  172.1160  140.8100 C   0  0  0  0  0  2  0  0  0  0  0  0
  188.7520  173.0680  139.8630 C   0  0  0  0  0  2  0  0  0  0  0  0
  189.2770  178.0170  147.3160 F   0  0  0  0  0  0  0  0  0  0  0  0
  191.5100  174.6040  144.6920 C   0  0  0  0  0  0  0  0  0  0  0  0
  192.1900  175.9670  148.0560 C   0  0  0  0  0  3  0  0  0  0  0  0
  190.3430  176.3170  145.9470 C   0  0  0  0  0  0  0  0  0  0  0  0
  190.6390  174.7320  143.6420 C   0  0  0  0  0  0  0  0  0  0  0  0
  193.6300  173.4150  142.2580 C   0  0  0  0  0  1  0  0  0  0  0  0
  191.1980  173.9700  142.4740 C   0  0  2  0  0  3  0  0  0  0  0  0
  189.7470  171.9300  139.7190 C   0  0  0  0  0  2  0  0  0  0  0  0
  187.0430  174.0190  141.8280 O   0  0  0  0  0  0  0  0  0  0  0  0
  192.2980  175.1930  146.9030 C   0  0  0  0  0  3  0  0  0  0  0  0
  191.3840  175.3550  145.8560 C   0  0  0  0  0  0  0  0  0  0  0  0
  188.2000  174.5250  141.8440 C   0  0  0  0  0  0  0  0  0  0  0  0
  186.2620  178.4740  144.0740 C   0  0  0  0  0  3  0  0  0  0  0  0
  184.8300  178.0920  144.3910 C   0  0  0  0  0  2  0  0  0  0  0  0
  185.6760  178.7830  145.4380 C   0  0  0  0  0  2  0  0  0  0  0  0
  1 19  1  0  0  0  0
  2 16  1  0  0  0  0
  2 13  1  0  0  0  0
  3 17  1  0  0  0  0
  4  1  2  0  0  0  0
  5  1  1  0  0  0  0
  6  8  2  0  0  0  0
  7 15  1  6  0  0  0
  7  9  1  0  0  0  0
  7 27  1  0  0  0  0
  8 11  1  0  0  0  0
  9 14  1  6  0  0  0
  9 22  1  0  0  0  0
 10 21  1  6  0  0  0
 10  3  1  0  0  0  0
 11 28  1  6  0  0  0
 11  5  1  0  0  0  0
 12  8  1  0  0  0  0
 12  4  1  0  0  0  0
 17 26  1  0  0  0  0
 18 13  2  0  0  0  0
 19  2  2  0  0  0  0
 20  4  1  0  0  0  0
 20 17  2  0  0  0  0
 22 10  1  0  0  0  0
 22 20  1  1  0  0  0
 23 15  1  0  0  0  0
 23 14  1  0  0  0  0
 24 27  2  0  0  0  0
 25 18  1  0  0  0  0
 26 19  1  0  0  0  0
 26 25  2  0  0  0  0
 27 12  1  0  0  0  0
 28 29  1  0  0  0  0
 28 30  1  0  0  0  0
 29 30  1  0  0  0  0
M  END
>  <MODEL>
6

>  <REMARK>
 VINA RESULT:      -7.9      1.866      5.525
  Name = 
  1 active torsions:
  status: ('A' for Active; 'I' for Inactive)
    1  A    between atoms: C_11  and  C_28
                            x       y       z     vdW  Elec       q    Type
                         _______ _______ _______ _____ _____    ______ ____

>  <TORSDO>
F 1

$$$$
=
 OpenBabel11112416253D

 30 36  0  0  1  0  0  0  0  0999 V2000
  190.4920  174.7150  142.6280 C   0  0  0  0  0  0  0  0  0  0  0  0
  190.7040  173.5390  140.4320 C   0  0  0  0  0  0  0  0  0  0  0  0
  186.7940  176.3300  141.4850 N   0  0  0  0  0  2  0  0  0  0  0  0
  189.7080  175.4940  143.5290 C   0  0  0  0  0  0  0  0  0  0  0  0
  191.9180  174.4050  142.9950 C   0  0  0  0  0  2  0  0  0  0  0  0
  192.0130  175.5750  146.3340 O   0  0  0  0  0  0  0  0  0  0  0  0
  188.3400  177.1330  145.9180 C   0  0  1  0  0  3  0  0  0  0  0  0
  191.4520  175.1590  145.2820 C   0  0  0  0  0  0  0  0  0  0  0  0
  187.1720  176.8320  145.0280 C   0  0  1  0  0  3  0  0  0  0  0  0
  186.4230  177.1650  142.6180 C   0  0  2  0  0  3  0  0  0  0  0  0
  192.0760  174.0670  144.4650 C   0  0  2  0  0  3  0  0  0  0  0  0
  190.1580  175.6660  144.9060 N   0  0  0  0  0  0  0  0  0  0  0  0
  190.1610  173.2290  139.1820 C   0  0  0  0  0  3  0  0  0  0  0  0
  186.0930  177.7900  145.5010 C   0  0  0  0  0  2  0  0  0  0  0  0
  187.7560  177.5310  147.2620 C   0  0  0  0  0  2  0  0  0  0  0  0
  191.9130  173.0070  140.7380 F   0  0  0  0  0  0  0  0  0  0  0  0
  188.0090  175.6800  141.8040 C   0  0  0  0  0  0  0  0  0  0  0  0
  188.9130  173.7220  138.8070 C   0  0  0  0  0  3  0  0  0  0  0  0
  189.9880  174.3610  141.3410 C   0  0  0  0  0  0  0  0  0  0  0  0
  188.4830  176.0170  143.0450 C   0  0  0  0  0  0  0  0  0  0  0  0
  186.2090  178.5910  142.1500 C   0  0  0  0  0  1  0  0  0  0  0  0
  187.6090  177.1060  143.6000 C   0  0  2  0  0  3  0  0  0  0  0  0
  186.3390  177.9970  146.9840 C   0  0  0  0  0  2  0  0  0  0  0  0
  189.2010  175.1800  146.9840 O   0  0  0  0  0  0  0  0  0  0  0  0
  188.1930  174.5310  139.6820 C   0  0  0  0  0  3  0  0  0  0  0  0
  188.7150  174.8470  140.9420 C   0  0  0  0  0  0  0  0  0  0  0  0
  189.2460  175.9510  145.9830 C   0  0  0  0  0  0  0  0  0  0  0  0
  193.5530  173.8680  144.7840 C   0  0  0  0  0  3  0  0  0  0  0  0
  193.7120  172.7000  145.7380 C   0  0  0  0  0  2  0  0  0  0  0  0
  194.0090  172.5180  144.2650 C   0  0  0  0  0  2  0  0  0  0  0  0
  1  5  1  0  0  0  0
  1  4  1  0  0  0  0
  2 16  1  0  0  0  0
  2 19  1  0  0  0  0
  3 17  1  0  0  0  0
  3 10  1  0  0  0  0
  4 12  1  0  0  0  0
  5 11  1  0  0  0  0
  7 27  1  0  0  0  0
  7 15  1  1  0  0  0
  8  6  2  0  0  0  0
  9 14  1  1  0  0  0
  9  7  1  0  0  0  0
 10 21  1  6  0  0  0
 10 22  1  0  0  0  0
 11 28  1  1  0  0  0
 11  8  1  0  0  0  0
 12  8  1  0  0  0  0
 12 27  1  0  0  0  0
 13  2  2  0  0  0  0
 14 23  1  0  0  0  0
 17 20  1  0  0  0  0
 18 13  1  0  0  0  0
 18 25  2  0  0  0  0
 19  1  2  0  0  0  0
 20  4  2  0  0  0  0
 22 20  1  6  0  0  0
 22  9  1  0  0  0  0
 23 15  1  0  0  0  0
 25 26  1  0  0  0  0
 26 19  1  0  0  0  0
 26 17  2  0  0  0  0
 27 24  2  0  0  0  0
 28 29  1  0  0  0  0
 30 28  1  0  0  0  0
 30 29  1  0  0  0  0
M  END
>  <MODEL>
7

>  <REMARK>
 VINA RESULT:      -7.8      2.388      5.021
  Name = 
  1 active torsions:
  status: ('A' for Active; 'I' for Inactive)
    1  A    between atoms: C_11  and  C_28
                            x       y       z     vdW  Elec       q    Type
                         _______ _______ _______ _____ _____    ______ ____

>  <TORSDO>
F 1

$$$$
=
 OpenBabel11112416253D

 30 36  0  0  1  0  0  0  0  0999 V2000
  188.5350  176.1760  143.6800 C   0  0  0  0  0  0  0  0  0  0  0  0
  186.7910  177.9490  143.4170 C   0  0  0  0  0  0  0  0  0  0  0  0
  188.0580  175.0150  139.6780 N   0  0  0  0  0  2  0  0  0  0  0  0
  189.3600  175.1730  143.0900 C   0  0  0  0  0  0  0  0  0  0  0  0
  188.5630  176.3470  145.1740 C   0  0  0  0  0  2  0  0  0  0  0  0
  191.2720  174.2370  146.0330 O   0  0  0  0  0  0  0  0  0  0  0  0
  191.4710  172.9140  142.2500 C   0  0  1  0  0  3  0  0  0  0  0  0
  190.5790  174.9530  145.2560 C   0  0  0  0  0  0  0  0  0  0  0  0
  191.0630  173.4790  140.9230 C   0  0  1  0  0  3  0  0  0  0  0  0
  188.9650  173.8860  139.5410 C   0  0  2  0  0  3  0  0  0  0  0  0
  189.9640  176.2310  145.7430 C   0  0  2  0  0  3  0  0  0  0  0  0
  190.4500  174.5950  143.8680 N   0  0  0  0  0  0  0  0  0  0  0  0
  185.8820  178.6220  142.5960 C   0  0  0  0  0  3  0  0  0  0  0  0
  191.5270  172.4370  139.9220 C   0  0  0  0  0  2  0  0  0  0  0  0
  192.7550  172.1420  142.0060 C   0  0  0  0  0  2  0  0  0  0  0  0
  186.8860  178.3520  144.7080 F   0  0  0  0  0  0  0  0  0  0  0  0
  188.1950  175.5270  140.9890 C   0  0  0  0  0  0  0  0  0  0  0  0
  185.7450  178.2770  141.2530 C   0  0  0  0  0  3  0  0  0  0  0  0
  187.5930  176.9020  142.8910 C   0  0  0  0  0  0  0  0  0  0  0  0
  189.1080  174.8320  141.7390 C   0  0  0  0  0  0  0  0  0  0  0  0
  188.1930  172.6660  139.0800 C   0  0  0  0  0  1  0  0  0  0  0  0
  189.5540  173.6370  140.9430 C   0  0  2  0  0  3  0  0  0  0  0  0
  192.7620  171.7960  140.5270 C   0  0  0  0  0  2  0  0  0  0  0  0
  192.7610  174.4520  143.5380 O   0  0  0  0  0  0  0  0  0  0  0  0
  186.5210  177.2520  140.7160 C   0  0  0  0  0  3  0  0  0  0  0  0
  187.4430  176.5710  141.5180 C   0  0  0  0  0  0  0  0  0  0  0  0
  191.6130  174.0130  143.2480 C   0  0  0  0  0  0  0  0  0  0  0  0
  189.9020  176.3090  147.2640 C   0  0  0  0  0  3  0  0  0  0  0  0
  191.2350  176.7930  147.8000 C   0  0  0  0  0  2  0  0  0  0  0  0
  190.0670  177.7500  147.7070 C   0  0  0  0  0  2  0  0  0  0  0  0
  1  5  1  0  0  0  0
  2 16  1  0  0  0  0
  3 17  1  0  0  0  0
  4  1  1  0  0  0  0
  4 12  1  0  0  0  0
  5 11  1  0  0  0  0
  7 15  1  6  0  0  0
  7 27  1  0  0  0  0
  8 11  1  0  0  0  0
  8  6  2  0  0  0  0
  9 14  1  6  0  0  0
  9 22  1  0  0  0  0
  9  7  1  0  0  0  0
 10 21  1  1  0  0  0
 10  3  1  0  0  0  0
 10 22  1  0  0  0  0
 11 28  1  1  0  0  0
 12  8  1  0  0  0  0
 13  2  2  0  0  0  0
 14 23  1  0  0  0  0
 17 26  2  0  0  0  0
 17 20  1  0  0  0  0
 18 13  1  0  0  0  0
 19  2  1  0  0  0  0
 19  1  2  0  0  0  0
 20  4  2  0  0  0  0
 22 20  1  1  0  0  0
 23 15  1  0  0  0  0
 25 18  2  0  0  0  0
 25 26  1  0  0  0  0
 26 19  1  0  0  0  0
 27 24  2  0  0  0  0
 27 12  1  0  0  0  0
 28 30  1  0  0  0  0
 28 29  1  0  0  0  0
 30 29  1  0  0  0  0
M  END
>  <MODEL>
8

>  <REMARK>
 VINA RESULT:      -7.5      2.648      6.982
  Name = 
  1 active torsions:
  status: ('A' for Active; 'I' for Inactive)
    1  A    between atoms: C_11  and  C_28
                            x       y       z     vdW  Elec       q    Type
                         _______ _______ _______ _____ _____    ______ ____

>  <TORSDO>
F 1

$$$$
=
 OpenBabel11112416253D

 30 36  0  0  1  0  0  0  0  0999 V2000
  191.5840  174.6120  142.1470 C   0  0  0  0  0  0  0  0  0  0  0  0
  194.0710  174.5330  142.3860 C   0  0  0  0  0  0  0  0  0  0  0  0
  191.2930  177.3210  145.3360 N   0  0  0  0  0  2  0  0  0  0  0  0
  190.3350  175.1870  142.5260 C   0  0  0  0  0  0  0  0  0  0  0  0
  191.5830  173.4480  141.1940 C   0  0  0  0  0  2  0  0  0  0  0  0
  188.1820  173.3980  140.2120 O   0  0  0  0  0  0  0  0  0  0  0  0
  187.3260  176.2010  142.9510 C   0  0  1  0  0  3  0  0  0  0  0  0
  189.2320  173.9220  140.6790 C   0  0  0  0  0  0  0  0  0  0  0  0
  188.1230  177.2700  143.6370 C   0  0  1  0  0  3  0  0  0  0  0  0
  189.8600  177.5240  145.4800 C   0  0  2  0  0  3  0  0  0  0  0  0
  190.5710  173.6170  140.0770 C   0  0  2  0  0  3  0  0  0  0  0  0
  189.1430  174.8940  141.7380 N   0  0  0  0  0  0  0  0  0  0  0  0
  195.2270  174.9770  143.0350 C   0  0  0  0  0  3  0  0  0  0  0  0
  187.1010  177.9970  144.4920 C   0  0  0  0  0  2  0  0  0  0  0  0
  185.9410  176.7830  142.7270 C   0  0  0  0  0  2  0  0  0  0  0  0
  194.2250  173.6400  141.3780 F   0  0  0  0  0  0  0  0  0  0  0  0
  191.5030  176.4650  144.2300 C   0  0  0  0  0  0  0  0  0  0  0  0
  195.1490  175.9110  144.0660 C   0  0  0  0  0  3  0  0  0  0  0  0
  192.7990  175.0310  142.7680 C   0  0  0  0  0  0  0  0  0  0  0  0
  190.3330  176.0740  143.6310 C   0  0  0  0  0  0  0  0  0  0  0  0
  189.4330  177.1600  146.8880 C   0  0  0  0  0  1  0  0  0  0  0  0
  189.1890  176.5770  144.4660 C   0  0  2  0  0  3  0  0  0  0  0  0
  185.7830  177.8960  143.7470 C   0  0  0  0  0  2  0  0  0  0  0  0
  187.6100  176.2300  140.5830 O   0  0  0  0  0  0  0  0  0  0  0  0
  193.9110  176.4120  144.4580 C   0  0  0  0  0  3  0  0  0  0  0  0
  192.7420  175.9870  143.8170 C   0  0  0  0  0  0  0  0  0  0  0  0
  188.0120  175.7840  141.6950 C   0  0  0  0  0  0  0  0  0  0  0  0
  190.5520  172.3600  139.2150 C   0  0  0  0  0  3  0  0  0  0  0  0
  190.2470  172.7360  137.7780 C   0  0  0  0  0  2  0  0  0  0  0  0
  191.6690  172.4280  138.1910 C   0  0  0  0  0  2  0  0  0  0  0  0
  1  4  2  0  0  0  0
  1 19  1  0  0  0  0
  2 19  2  0  0  0  0
  2 13  1  0  0  0  0
  3 10  1  0  0  0  0
  4 20  1  0  0  0  0
  5  1  1  0  0  0  0
  6  8  2  0  0  0  0
  7 15  1  6  0  0  0
  7  9  1  0  0  0  0
  8 12  1  0  0  0  0
  9 22  1  0  0  0  0
  9 14  1  1  0  0  0
 10 21  1  1  0  0  0
 11 28  1  1  0  0  0
 11  8  1  0  0  0  0
 11  5  1  0  0  0  0
 12  4  1  0  0  0  0
 13 18  2  0  0  0  0
 15 23  1  0  0  0  0
 16  2  1  0  0  0  0
 17  3  1  0  0  0  0
 18 25  1  0  0  0  0
 19 26  1  0  0  0  0
 20 17  2  0  0  0  0
 22 20  1  6  0  0  0
 22 10  1  0  0  0  0
 23 14  1  0  0  0  0
 24 27  2  0  0  0  0
 26 17  1  0  0  0  0
 26 25  2  0  0  0  0
 27 12  1  0  0  0  0
 27  7  1  0  0  0  0
 29 30  1  0  0  0  0
 29 28  1  0  0  0  0
 30 28  1  0  0  0  0
M  END
>  <MODEL>
9

>  <REMARK>
 VINA RESULT:      -7.5      1.969      2.625
  Name = 
  1 active torsions:
  status: ('A' for Active; 'I' for Inactive)
    1  A    between atoms: C_11  and  C_28
                            x       y       z     vdW  Elec       q    Type
                         _______ _______ _______ _____ _____    ______ ____

>  <TORSDO>
F 1

$$$$
