=
 OpenBabel11112418023D

 34 42  0  0  1  0  0  0  0  0999 V2000
  189.3850  173.8030  143.2570 C   0  0  1  0  0  3  0  0  0  0  0  0
  191.3610  175.1480  142.3020 C   0  0  0  0  0  2  0  0  0  0  0  0
  185.0790  178.0700  145.3070 C   0  0  1  0  0  3  0  0  0  0  0  0
  188.1980  176.0820  143.0720 C   0  0  1  0  0  3  0  0  0  0  0  0
  187.0560  176.6830  145.3180 C   0  0  2  0  0  3  0  0  0  0  0  0
  186.4250  177.8970  147.4850 C   0  0  0  0  0  2  0  0  0  0  0  0
  185.1060  177.7320  146.7810 C   0  0  2  0  0  3  0  0  0  0  0  0
  185.9620  179.2160  143.3260 C   0  0  0  0  0  2  0  0  0  0  0  0
  191.4700  174.5100  144.6050 C   0  0  2  0  0  3  0  0  0  0  0  0
  193.5110  175.7000  146.4700 C   0  0  0  0  0  2  0  0  0  0  0  0
  188.3990  176.4790  145.8650 N   0  0  0  0  0  2  0  0  0  0  0  0
  187.3060  178.4400  143.3760 C   0  0  0  0  0  2  0  0  0  0  0  0
  190.5810  175.5100  145.3890 C   0  0  1  0  0  3  0  0  0  0  0  0
  192.4250  175.7600  142.8000 C   0  0  0  0  0  2  0  0  0  0  0  0
  187.1470  176.9490  143.7720 C   0  0  1  0  0  3  0  0  0  0  0  0
  185.2830  179.4330  144.6980 C   0  0  0  0  0  2  0  0  0  0  0  0
  193.3160  176.2890  145.0830 C   0  0  2  0  0  3  0  0  0  0  0  0
  188.5360  174.8690  143.9480 C   0  0  2  0  0  3  0  0  0  0  0  0
  186.4160  177.8960  145.9770 C   0  0  1  0  0  0  0  0  0  0  0  0
  189.0620  175.2710  145.3400 C   0  0  2  0  0  3  0  0  0  0  0  0
  188.5850  174.6760  141.0210 C   0  0  0  0  0  2  0  0  0  0  0  0
  192.2560  175.7300  147.2980 C   0  0  0  0  0  3  0  0  0  0  0  0
  187.6270  175.6240  141.7300 C   0  0  0  0  0  2  0  0  0  0  0  0
  191.0000  175.6080  146.8370 C   0  0  0  0  0  3  0  0  0  0  0  0
  192.7670  175.2090  144.1450 C   0  0  1  0  0  3  0  0  0  0  0  0
  188.8320  173.4350  141.8760 C   0  0  0  0  0  2  0  0  0  0  0  0
  190.8850  174.1010  143.2530 C   0  0  1  0  0  3  0  0  0  0  0  0
  194.5450  176.7490  144.6040 O   0  0  0  0  0  0  0  0  0  0  0  0
  195.4590  175.7500  144.9490 C   0  0  0  0  0  2  0  0  0  0  0  0
  195.9480  175.1130  141.6660 O   0  0  0  0  0  0  0  0  0  0  0  0
  196.5020  176.8180  142.9800 C   0  0  0  0  0  3  0  0  0  0  0  0
  196.5130  175.6130  143.8640 C   0  0  2  0  0  3  0  0  0  0  0  0
  196.1760  176.4720  141.7490 C   0  0  0  0  0  3  0  0  0  0  0  0
  196.1260  174.4790  142.9200 C   0  0  0  0  0  2  0  0  0  0  0  0
  1 26  1  6  0  0  0
  1 18  1  0  0  0  0
  2 14  1  0  0  0  0
  2 27  1  0  0  0  0
  3 16  1  1  0  0  0
  3 19  1  0  0  0  0
  3  7  1  0  0  0  0
  4 23  1  6  0  0  0
  4 15  1  0  0  0  0
  4 18  1  0  0  0  0
  5 11  1  1  0  0  0
  5 19  1  0  0  0  0
  7  6  1  1  0  0  0
  8 12  1  0  0  0  0
  8 16  1  0  0  0  0
  9 13  1  0  0  0  0
 10 22  1  0  0  0  0
 12 15  1  0  0  0  0
 13 24  1  0  0  0  0
 14 25  1  0  0  0  0
 15  5  1  0  0  0  0
 17 10  1  0  0  0  0
 18 20  1  0  0  0  0
 19  7  1  0  0  0  0
 19  6  1  0  0  0  0
 20 13  1  0  0  0  0
 20 11  1  0  0  0  0
 21 23  1  0  0  0  0
 21 26  1  0  0  0  0
 24 22  2  0  0  0  0
 25  9  1  0  0  0  0
 25 17  1  0  0  0  0
 27  1  1  0  0  0  0
 27  9  1  0  0  0  0
 28 29  1  0  0  0  0
 28 17  1  0  0  0  0
 30 33  1  0  0  0  0
 30 34  1  0  0  0  0
 31 32  1  0  0  0  0
 32 29  1  0  0  0  0
 33 31  2  0  0  0  0
 34 32  1  0  0  0  0
M  END
>  <MODEL>
1

>  <REMARK>
 VINA RESULT:      -9.3      0.000      0.000
  Name = 
  3 active torsions:
  status: ('A' for Active; 'I' for Inactive)
    1  A    between atoms: C_17  and  O_28
    2  A    between atoms: O_28  and  C_29
    3  A    between atoms: C_29  and  C_32
                            x       y       z     vdW  Elec       q    Type
                         _______ _______ _______ _____ _____    ______ ____

>  <TORSDO>
F 3

$$$$
=
 OpenBabel11112418023D

 34 42  0  0  1  0  0  0  0  0999 V2000
  191.2810  176.5610  144.6570 C   0  0  1  0  0  3  0  0  0  0  0  0
  190.9750  174.0590  145.1790 C   0  0  0  0  0  2  0  0  0  0  0  0
  185.5730  179.3280  145.5100 C   0  0  1  0  0  3  0  0  0  0  0  0
  189.0110  176.7320  145.8640 C   0  0  1  0  0  3  0  0  0  0  0  0
  187.3280  178.0740  144.4230 C   0  0  2  0  0  3  0  0  0  0  0  0
  185.2680  178.7110  143.0380 C   0  0  0  0  0  2  0  0  0  0  0  0
  185.3260  179.7840  144.0900 C   0  0  2  0  0  3  0  0  0  0  0  0
  185.5380  177.6320  147.2820 C   0  0  0  0  0  2  0  0  0  0  0  0
  190.7040  174.7550  142.9060 C   0  0  2  0  0  3  0  0  0  0  0  0
  189.4920  172.9320  140.8400 C   0  0  0  0  0  2  0  0  0  0  0  0
  187.6630  177.0780  143.4020 N   0  0  0  0  0  2  0  0  0  0  0  0
  186.5660  176.7280  146.5500 C   0  0  0  0  0  2  0  0  0  0  0  0
  189.2840  175.3690  142.7920 C   0  0  1  0  0  3  0  0  0  0  0  0
  190.5290  172.9980  144.5240 C   0  0  0  0  0  2  0  0  0  0  0  0
  187.6980  177.5210  145.8460 C   0  0  1  0  0  3  0  0  0  0  0  0
  184.6480  178.4900  146.3540 C   0  0  0  0  0  2  0  0  0  0  0  0
  189.4380  172.5530  142.3100 C   0  0  2  0  0  3  0  0  0  0  0  0
  189.8480  177.0920  144.6300 C   0  0  2  0  0  3  0  0  0  0  0  0
  185.8330  178.3560  144.3900 C   0  0  1  0  0  0  0  0  0  0  0  0
  189.1090  176.8070  143.3080 C   0  0  2  0  0  3  0  0  0  0  0  0
  191.1330  176.4150  147.1790 C   0  0  0  0  0  2  0  0  0  0  0  0
  188.8190  174.2460  140.5510 C   0  0  0  0  0  3  0  0  0  0  0  0
  189.7690  177.0910  147.1420 C   0  0  0  0  0  2  0  0  0  0  0  0
  188.7650  175.3060  141.3740 C   0  0  0  0  0  3  0  0  0  0  0  0
  190.6030  173.2210  143.0490 C   0  0  1  0  0  3  0  0  0  0  0  0
  191.9790  176.8600  145.9890 C   0  0  0  0  0  2  0  0  0  0  0  0
  191.4190  175.1050  144.2110 C   0  0  1  0  0  3  0  0  0  0  0  0
  189.5390  171.1650  142.4290 O   0  0  0  0  0  0  0  0  0  0  0  0
  190.5370  170.8000  141.5210 C   0  0  0  0  0  2  0  0  0  0  0  0
  193.3410  168.9430  141.1910 O   0  0  0  0  0  0  0  0  0  0  0  0
  192.3750  169.9360  142.9290 C   0  0  0  0  0  3  0  0  0  0  0  0
  191.2560  169.5560  142.0130 C   0  0  2  0  0  3  0  0  0  0  0  0
  193.5290  169.5630  142.4110 C   0  0  0  0  0  3  0  0  0  0  0  0
  191.9700  168.8850  140.8430 C   0  0  0  0  0  2  0  0  0  0  0  0
  1 26  1  1  0  0  0
  3 16  1  1  0  0  0
  4 23  1  1  0  0  0
  5 11  1  6  0  0  0
  5 15  1  0  0  0  0
  6 19  1  0  0  0  0
  7  6  1  1  0  0  0
  7 19  1  0  0  0  0
  7  3  1  0  0  0  0
  9 25  1  0  0  0  0
  9 27  1  0  0  0  0
 10 17  1  0  0  0  0
 12  8  1  0  0  0  0
 13  9  1  0  0  0  0
 13 20  1  0  0  0  0
 14  2  1  0  0  0  0
 15  4  1  0  0  0  0
 15 12  1  0  0  0  0
 16  8  1  0  0  0  0
 17 28  1  0  0  0  0
 17 25  1  0  0  0  0
 18  1  1  0  0  0  0
 18  4  1  0  0  0  0
 19  5  1  0  0  0  0
 19  3  1  0  0  0  0
 20 11  1  0  0  0  0
 20 18  1  0  0  0  0
 22 10  1  0  0  0  0
 22 24  2  0  0  0  0
 23 21  1  0  0  0  0
 24 13  1  0  0  0  0
 25 14  1  0  0  0  0
 26 21  1  0  0  0  0
 27  1  1  0  0  0  0
 27  2  1  0  0  0  0
 29 32  1  0  0  0  0
 29 28  1  0  0  0  0
 30 33  1  0  0  0  0
 32 31  1  0  0  0  0
 33 31  2  0  0  0  0
 34 30  1  0  0  0  0
 34 32  1  0  0  0  0
M  END
>  <MODEL>
2

>  <REMARK>
 VINA RESULT:      -8.9      2.861      5.110
  Name = 
  3 active torsions:
  status: ('A' for Active; 'I' for Inactive)
    1  A    between atoms: C_17  and  O_28
    2  A    between atoms: O_28  and  C_29
    3  A    between atoms: C_29  and  C_32
                            x       y       z     vdW  Elec       q    Type
                         _______ _______ _______ _____ _____    ______ ____

>  <TORSDO>
F 3

$$$$
=
 OpenBabel11112418023D

 34 42  0  0  1  0  0  0  0  0999 V2000
  190.3200  174.9010  146.3050 C   0  0  1  0  0  3  0  0  0  0  0  0
  189.6180  177.2920  145.6600 C   0  0  0  0  0  2  0  0  0  0  0  0
  195.8780  173.7550  143.3460 C   0  0  1  0  0  3  0  0  0  0  0  0
  192.5890  175.6910  145.3760 C   0  0  1  0  0  3  0  0  0  0  0  0
  193.4930  173.9860  143.6470 C   0  0  2  0  0  3  0  0  0  0  0  0
  194.3350  172.9410  141.4650 C   0  0  0  0  0  2  0  0  0  0  0  0
  195.4290  172.6250  142.4470 C   0  0  2  0  0  3  0  0  0  0  0  0
  196.1190  176.1370  143.8840 C   0  0  0  0  0  2  0  0  0  0  0  0
  188.8020  175.4980  144.3040 C   0  0  2  0  0  3  0  0  0  0  0  0
  187.5070  176.0090  141.6350 C   0  0  0  0  0  2  0  0  0  0  0  0
  192.1980  174.2080  142.9990 N   0  0  0  0  0  2  0  0  0  0  0  0
  194.5840  176.3600  143.9540 C   0  0  0  0  0  2  0  0  0  0  0  0
  189.9580  175.0950  143.3520 C   0  0  1  0  0  3  0  0  0  0  0  0
  189.0150  177.8610  144.6270 C   0  0  0  0  0  2  0  0  0  0  0  0
  193.8160  175.1830  144.6110 C   0  0  1  0  0  3  0  0  0  0  0  0
  196.5710  175.0210  142.9140 C   0  0  0  0  0  2  0  0  0  0  0  0
  188.2190  177.1390  142.3620 C   0  0  2  0  0  3  0  0  0  0  0  0
  191.4950  174.6150  145.3710 C   0  0  2  0  0  3  0  0  0  0  0  0
  194.5850  173.9110  142.5900 C   0  0  1  0  0  0  0  0  0  0  0  0
  191.0680  174.2110  143.9460 C   0  0  2  0  0  3  0  0  0  0  0  0
  191.8190  176.4270  147.6560 C   0  0  0  0  0  2  0  0  0  0  0  0
  188.4120  174.8440  141.3410 C   0  0  0  0  0  3  0  0  0  0  0  0
  193.0140  176.0080  146.8090 C   0  0  0  0  0  2  0  0  0  0  0  0
  189.4390  174.4270  142.1000 C   0  0  0  0  0  3  0  0  0  0  0  0
  188.2120  176.8560  143.8680 C   0  0  1  0  0  3  0  0  0  0  0  0
  190.7860  175.3040  147.7080 C   0  0  0  0  0  2  0  0  0  0  0  0
  189.2670  175.8430  145.7190 C   0  0  1  0  0  3  0  0  0  0  0  0
  187.5530  178.3390  142.1050 O   0  0  0  0  0  0  0  0  0  0  0  0
  186.2590  177.9600  141.7420 C   0  0  0  0  0  2  0  0  0  0  0  0
  184.7280  178.2930  144.7370 O   0  0  0  0  0  0  0  0  0  0  0  0
  185.9350  179.6800  143.4860 C   0  0  0  0  0  3  0  0  0  0  0  0
  185.2410  178.7740  142.5220 C   0  0  2  0  0  3  0  0  0  0  0  0
  185.6060  179.3600  144.7230 C   0  0  0  0  0  3  0  0  0  0  0  0
  184.4340  177.8470  143.4250 C   0  0  0  0  0  2  0  0  0  0  0  0
  1 26  1  1  0  0  0
  2 27  1  0  0  0  0
  3 16  1  6  0  0  0
  4 23  1  1  0  0  0
  5 11  1  6  0  0  0
  5 15  1  0  0  0  0
  6 19  1  0  0  0  0
  7  6  1  6  0  0  0
  7 19  1  0  0  0  0
  7  3  1  0  0  0  0
  8 12  1  0  0  0  0
  9 27  1  0  0  0  0
 10 17  1  0  0  0  0
 11 20  1  0  0  0  0
 12 15  1  0  0  0  0
 13 20  1  0  0  0  0
 13  9  1  0  0  0  0
 14  2  1  0  0  0  0
 15  4  1  0  0  0  0
 16  8  1  0  0  0  0
 17 25  1  0  0  0  0
 18  4  1  0  0  0  0
 18  1  1  0  0  0  0
 19  3  1  0  0  0  0
 19  5  1  0  0  0  0
 20 18  1  0  0  0  0
 21 26  1  0  0  0  0
 22 10  1  0  0  0  0
 22 24  2  0  0  0  0
 23 21  1  0  0  0  0
 24 13  1  0  0  0  0
 25  9  1  0  0  0  0
 25 14  1  0  0  0  0
 27  1  1  0  0  0  0
 28 17  1  0  0  0  0
 29 28  1  0  0  0  0
 29 32  1  0  0  0  0
 31 33  2  0  0  0  0
 32 34  1  0  0  0  0
 32 31  1  0  0  0  0
 33 30  1  0  0  0  0
 34 30  1  0  0  0  0
M  END
>  <MODEL>
3

>  <REMARK>
 VINA RESULT:      -8.9      2.646      8.154
  Name = 
  3 active torsions:
  status: ('A' for Active; 'I' for Inactive)
    1  A    between atoms: C_17  and  O_28
    2  A    between atoms: O_28  and  C_29
    3  A    between atoms: C_29  and  C_32
                            x       y       z     vdW  Elec       q    Type
                         _______ _______ _______ _____ _____    ______ ____

>  <TORSDO>
F 3

$$$$
=
 OpenBabel11112418023D

 34 42  0  0  1  0  0  0  0  0999 V2000
  191.1580  174.8830  145.9760 C   0  0  1  0  0  3  0  0  0  0  0  0
  190.2930  177.2680  145.5420 C   0  0  0  0  0  2  0  0  0  0  0  0
  195.8470  173.8320  141.7490 C   0  0  1  0  0  3  0  0  0  0  0  0
  193.1250  175.7090  144.5310 C   0  0  1  0  0  3  0  0  0  0  0  0
  193.6030  174.0280  142.6200 C   0  0  2  0  0  3  0  0  0  0  0  0
  193.9040  173.0070  140.2890 C   0  0  0  0  0  2  0  0  0  0  0  0
  195.2080  172.7010  140.9750 C   0  0  2  0  0  3  0  0  0  0  0  0
  196.1820  176.2130  142.2330 C   0  0  0  0  0  2  0  0  0  0  0  0
  189.1940  175.4700  144.4070 C   0  0  2  0  0  3  0  0  0  0  0  0
  187.2850  175.9800  142.1370 C   0  0  0  0  0  2  0  0  0  0  0  0
  192.1870  174.2360  142.3070 N   0  0  0  0  0  2  0  0  0  0  0  0
  194.7080  176.4150  142.6750 C   0  0  0  0  0  2  0  0  0  0  0  0
  190.0890  175.0890  143.2000 C   0  0  1  0  0  3  0  0  0  0  0  0
  189.4500  177.8340  144.6910 C   0  0  0  0  0  2  0  0  0  0  0  0
  194.1360  175.2240  143.4880 C   0  0  1  0  0  3  0  0  0  0  0  0
  196.4000  175.1100  141.1730 C   0  0  0  0  0  2  0  0  0  0  0  0
  188.1380  177.1140  142.6800 C   0  0  2  0  0  3  0  0  0  0  0  0
  192.0760  174.6190  144.7820 C   0  0  2  0  0  3  0  0  0  0  0  0
  194.4080  173.9750  141.3300 C   0  0  1  0  0  0  0  0  0  0  0  0
  191.3200  174.2170  143.4990 C   0  0  2  0  0  3  0  0  0  0  0  0
  192.9220  176.4220  146.9370 C   0  0  0  0  0  2  0  0  0  0  0  0
  188.1050  174.8290  141.6210 C   0  0  0  0  0  3  0  0  0  0  0  0
  193.8810  176.0240  145.8220 C   0  0  0  0  0  2  0  0  0  0  0  0
  189.2900  174.4220  142.1050 C   0  0  0  0  0  3  0  0  0  0  0  0
  188.4990  176.8230  144.1400 C   0  0  1  0  0  3  0  0  0  0  0  0
  191.9460  175.2840  147.2280 C   0  0  0  0  0  2  0  0  0  0  0  0
  189.9840  175.8130  145.6710 C   0  0  1  0  0  3  0  0  0  0  0  0
  187.4150  178.3070  142.6020 O   0  0  0  0  0  0  0  0  0  0  0  0
  186.1380  177.9830  143.0670 C   0  0  0  0  0  2  0  0  0  0  0  0
  183.7240  178.8900  145.2520 O   0  0  0  0  0  0  0  0  0  0  0  0
  185.9410  179.0410  145.2920 C   0  0  0  0  0  3  0  0  0  0  0  0
  185.5590  179.1480  143.8510 C   0  0  2  0  0  3  0  0  0  0  0  0
  184.8610  178.8970  146.0350 C   0  0  0  0  0  3  0  0  0  0  0  0
  184.0380  179.0370  143.8790 C   0  0  0  0  0  2  0  0  0  0  0  0
  1 26  1  1  0  0  0
  2 27  1  0  0  0  0
  3 16  1  6  0  0  0
  4 18  1  0  0  0  0
  4 23  1  1  0  0  0
  5 11  1  6  0  0  0
  5 15  1  0  0  0  0
  6 19  1  0  0  0  0
  7  6  1  6  0  0  0
  7 19  1  0  0  0  0
  7  3  1  0  0  0  0
  8 12  1  0  0  0  0
  9 27  1  0  0  0  0
 10 17  1  0  0  0  0
 11 20  1  0  0  0  0
 12 15  1  0  0  0  0
 13 20  1  0  0  0  0
 13  9  1  0  0  0  0
 14  2  1  0  0  0  0
 15  4  1  0  0  0  0
 16  8  1  0  0  0  0
 17 25  1  0  0  0  0
 18  1  1  0  0  0  0
 19  3  1  0  0  0  0
 19  5  1  0  0  0  0
 20 18  1  0  0  0  0
 21 26  1  0  0  0  0
 22 24  2  0  0  0  0
 22 10  1  0  0  0  0
 23 21  1  0  0  0  0
 24 13  1  0  0  0  0
 25  9  1  0  0  0  0
 25 14  1  0  0  0  0
 27  1  1  0  0  0  0
 28 17  1  0  0  0  0
 28 29  1  0  0  0  0
 29 32  1  0  0  0  0
 30 33  1  0  0  0  0
 31 33  2  0  0  0  0
 32 34  1  0  0  0  0
 32 31  1  0  0  0  0
 34 30  1  0  0  0  0
M  END
>  <MODEL>
4

>  <REMARK>
 VINA RESULT:      -8.4      2.881      8.352
  Name = 
  3 active torsions:
  status: ('A' for Active; 'I' for Inactive)
    1  A    between atoms: C_17  and  O_28
    2  A    between atoms: O_28  and  C_29
    3  A    between atoms: C_29  and  C_32
                            x       y       z     vdW  Elec       q    Type
                         _______ _______ _______ _____ _____    ______ ____

>  <TORSDO>
F 3

$$$$
=
 OpenBabel11112418023D

 34 42  0  0  1  0  0  0  0  0999 V2000
  191.8510  176.4770  144.5880 C   0  0  1  0  0  3  0  0  0  0  0  0
  191.9200  173.9790  145.2070 C   0  0  0  0  0  2  0  0  0  0  0  0
  185.9440  178.5410  145.9270 C   0  0  1  0  0  3  0  0  0  0  0  0
  189.7040  176.4120  146.0090 C   0  0  1  0  0  3  0  0  0  0  0  0
  187.7330  177.4740  144.7060 C   0  0  2  0  0  3  0  0  0  0  0  0
  185.4860  177.7910  143.5160 C   0  0  0  0  0  2  0  0  0  0  0  0
  185.5060  178.9050  144.5260 C   0  0  2  0  0  3  0  0  0  0  0  0
  186.2950  176.9270  147.7400 C   0  0  0  0  0  2  0  0  0  0  0  0
  191.3470  174.5430  142.9530 C   0  0  2  0  0  3  0  0  0  0  0  0
  190.1870  172.5020  141.0700 C   0  0  0  0  0  2  0  0  0  0  0  0
  188.0940  176.4870  143.6850 N   0  0  0  0  0  2  0  0  0  0  0  0
  187.3560  176.1290  146.9360 C   0  0  0  0  0  2  0  0  0  0  0  0
  189.8560  174.9700  142.9640 C   0  0  1  0  0  3  0  0  0  0  0  0
  191.5530  172.8450  144.6290 C   0  0  0  0  0  2  0  0  0  0  0  0
  188.3050  177.0290  146.1000 C   0  0  1  0  0  3  0  0  0  0  0  0
  185.2180  177.6290  146.8830 C   0  0  0  0  0  2  0  0  0  0  0  0
  190.3230  172.1790  142.5490 C   0  0  2  0  0  3  0  0  0  0  0  0
  190.3670  176.8230  144.6890 C   0  0  2  0  0  3  0  0  0  0  0  0
  186.2180  177.5650  144.8140 C   0  0  1  0  0  0  0  0  0  0  0  0
  189.5470  176.3940  143.4550 C   0  0  2  0  0  3  0  0  0  0  0  0
  191.9650  176.4150  147.1140 C   0  0  0  0  0  2  0  0  0  0  0  0
  189.3270  173.7080  140.8130 C   0  0  0  0  0  3  0  0  0  0  0  0
  190.5280  176.9140  147.1950 C   0  0  0  0  0  2  0  0  0  0  0  0
  189.2160  174.7860  141.6080 C   0  0  0  0  0  3  0  0  0  0  0  0
  191.4580  173.0160  143.1480 C   0  0  1  0  0  3  0  0  0  0  0  0
  192.6290  176.9140  145.8340 C   0  0  0  0  0  2  0  0  0  0  0  0
  192.1320  175.0320  144.1710 C   0  0  1  0  0  3  0  0  0  0  0  0
  190.6120  170.8200  142.6950 O   0  0  0  0  0  0  0  0  0  0  0  0
  191.4160  170.5040  141.5970 C   0  0  0  0  0  2  0  0  0  0  0  0
  194.4570  170.4460  143.0710 O   0  0  0  0  0  0  0  0  0  0  0  0
  192.5350  169.4200  143.5140 C   0  0  0  0  0  3  0  0  0  0  0  0
  192.5580  169.6020  142.0310 C   0  0  2  0  0  3  0  0  0  0  0  0
  193.6350  169.9160  144.0470 C   0  0  0  0  0  3  0  0  0  0  0  0
  193.8870  170.3080  141.7820 C   0  0  0  0  0  2  0  0  0  0  0  0
  1 18  1  0  0  0  0
  1 26  1  1  0  0  0
  3 16  1  1  0  0  0
  4 15  1  0  0  0  0
  4 23  1  1  0  0  0
  5 11  1  6  0  0  0
  5 19  1  0  0  0  0
  5 15  1  0  0  0  0
  6 19  1  0  0  0  0
  7  6  1  1  0  0  0
  7 19  1  0  0  0  0
  7  3  1  0  0  0  0
  9 13  1  0  0  0  0
  9 25  1  0  0  0  0
  9 27  1  0  0  0  0
 10 17  1  0  0  0  0
 12  8  1  0  0  0  0
 13 20  1  0  0  0  0
 14  2  1  0  0  0  0
 15 12  1  0  0  0  0
 16  8  1  0  0  0  0
 17 28  1  0  0  0  0
 17 25  1  0  0  0  0
 18  4  1  0  0  0  0
 19  3  1  0  0  0  0
 20 11  1  0  0  0  0
 20 18  1  0  0  0  0
 21 23  1  0  0  0  0
 22 10  1  0  0  0  0
 22 24  2  0  0  0  0
 24 13  1  0  0  0  0
 25 14  1  0  0  0  0
 26 21  1  0  0  0  0
 27  1  1  0  0  0  0
 27  2  1  0  0  0  0
 29 32  1  0  0  0  0
 29 28  1  0  0  0  0
 30 33  1  0  0  0  0
 31 33  2  0  0  0  0
 32 31  1  0  0  0  0
 34 32  1  0  0  0  0
 34 30  1  0  0  0  0
M  END
>  <MODEL>
5

>  <REMARK>
 VINA RESULT:      -8.1      2.632      4.892
  Name = 
  3 active torsions:
  status: ('A' for Active; 'I' for Inactive)
    1  A    between atoms: C_17  and  O_28
    2  A    between atoms: O_28  and  C_29
    3  A    between atoms: C_29  and  C_32
                            x       y       z     vdW  Elec       q    Type
                         _______ _______ _______ _____ _____    ______ ____

>  <TORSDO>
F 3

$$$$
=
 OpenBabel11112418023D

 34 42  0  0  1  0  0  0  0  0999 V2000
  191.7660  176.4390  143.6410 C   0  0  1  0  0  3  0  0  0  0  0  0
  191.8400  173.9340  144.2290 C   0  0  0  0  0  2  0  0  0  0  0  0
  186.1560  178.6630  145.7700 C   0  0  1  0  0  3  0  0  0  0  0  0
  189.8260  176.4220  145.3360 C   0  0  1  0  0  3  0  0  0  0  0  0
  187.7330  177.5560  144.3140 C   0  0  2  0  0  3  0  0  0  0  0  0
  185.3580  177.9520  143.4380 C   0  0  0  0  0  2  0  0  0  0  0  0
  185.5470  179.0550  144.4430 C   0  0  2  0  0  3  0  0  0  0  0  0
  186.6960  177.0200  147.5100 C   0  0  0  0  0  2  0  0  0  0  0  0
  190.9890  174.5380  142.0760 C   0  0  2  0  0  3  0  0  0  0  0  0
  189.5260  172.5520  140.3510 C   0  0  0  0  0  2  0  0  0  0  0  0
  187.9240  176.5690  143.2480 N   0  0  0  0  0  2  0  0  0  0  0  0
  187.6160  176.2000  146.5660 C   0  0  0  0  0  2  0  0  0  0  0  0
  189.5270  175.0090  142.2890 C   0  0  1  0  0  3  0  0  0  0  0  0
  191.3640  172.8170  143.6980 C   0  0  0  0  0  2  0  0  0  0  0  0
  188.4710  177.0790  145.6160 C   0  0  1  0  0  3  0  0  0  0  0  0
  185.5370  177.7630  146.8090 C   0  0  0  0  0  2  0  0  0  0  0  0
  189.8480  172.2090  141.7960 C   0  0  2  0  0  3  0  0  0  0  0  0
  190.3190  176.8280  143.9410 C   0  0  2  0  0  3  0  0  0  0  0  0
  186.2500  177.6900  144.6250 C   0  0  1  0  0  0  0  0  0  0  0  0
  189.3300  176.4360  142.8250 C   0  0  2  0  0  3  0  0  0  0  0  0
  192.2140  176.3470  146.1290 C   0  0  0  0  0  2  0  0  0  0  0  0
  188.6770  173.7860  140.2190 C   0  0  0  0  0  3  0  0  0  0  0  0
  190.8160  176.8870  146.4040 C   0  0  0  0  0  2  0  0  0  0  0  0
  188.7060  174.8580  141.0290 C   0  0  0  0  0  3  0  0  0  0  0  0
  191.0780  173.0060  142.2440 C   0  0  1  0  0  3  0  0  0  0  0  0
  192.7160  176.8400  144.7740 C   0  0  0  0  0  2  0  0  0  0  0  0
  191.9440  174.9910  143.1810 C   0  0  1  0  0  3  0  0  0  0  0  0
  190.1120  170.8410  141.8940 O   0  0  0  0  0  0  0  0  0  0  0  0
  191.0190  170.5770  140.8650 C   0  0  0  0  0  2  0  0  0  0  0  0
  191.3490  168.3840  138.3140 O   0  0  0  0  0  0  0  0  0  0  0  0
  192.3450  168.5720  140.2920 C   0  0  0  0  0  3  0  0  0  0  0  0
  190.9640  169.1060  140.4880 C   0  0  2  0  0  3  0  0  0  0  0  0
  192.5040  168.1790  139.0430 C   0  0  0  0  0  3  0  0  0  0  0  0
  190.3280  168.9580  139.1100 C   0  0  0  0  0  2  0  0  0  0  0  0
  1 18  1  0  0  0  0
  1 26  1  1  0  0  0
  3 16  1  1  0  0  0
  4 15  1  0  0  0  0
  4 23  1  1  0  0  0
  5 11  1  6  0  0  0
  5 19  1  0  0  0  0
  5 15  1  0  0  0  0
  6 19  1  0  0  0  0
  7  6  1  1  0  0  0
  7 19  1  0  0  0  0
  7  3  1  0  0  0  0
  9 25  1  0  0  0  0
  9 13  1  0  0  0  0
  9 27  1  0  0  0  0
 10 17  1  0  0  0  0
 12  8  1  0  0  0  0
 13 20  1  0  0  0  0
 14  2  1  0  0  0  0
 15 12  1  0  0  0  0
 16  8  1  0  0  0  0
 17 28  1  0  0  0  0
 17 25  1  0  0  0  0
 18  4  1  0  0  0  0
 19  3  1  0  0  0  0
 20 11  1  0  0  0  0
 20 18  1  0  0  0  0
 21 23  1  0  0  0  0
 22 10  1  0  0  0  0
 22 24  2  0  0  0  0
 24 13  1  0  0  0  0
 25 14  1  0  0  0  0
 26 21  1  0  0  0  0
 27  1  1  0  0  0  0
 27  2  1  0  0  0  0
 29 28  1  0  0  0  0
 30 33  1  0  0  0  0
 30 34  1  0  0  0  0
 31 32  1  0  0  0  0
 32 29  1  0  0  0  0
 33 31  2  0  0  0  0
 34 32  1  0  0  0  0
M  END
>  <MODEL>
6

>  <REMARK>
 VINA RESULT:      -7.9      3.136      5.527
  Name = 
  3 active torsions:
  status: ('A' for Active; 'I' for Inactive)
    1  A    between atoms: C_17  and  O_28
    2  A    between atoms: O_28  and  C_29
    3  A    between atoms: C_29  and  C_32
                            x       y       z     vdW  Elec       q    Type
                         _______ _______ _______ _____ _____    ______ ____

>  <TORSDO>
F 3

$$$$
=
 OpenBabel11112418023D

 34 42  0  0  1  0  0  0  0  0999 V2000
  189.8430  172.6130  143.0580 C   0  0  1  0  0  3  0  0  0  0  0  0
  192.0400  173.4540  142.0130 C   0  0  0  0  0  2  0  0  0  0  0  0
  186.0710  177.7320  143.7800 C   0  0  1  0  0  3  0  0  0  0  0  0
  189.0010  174.9240  142.2930 C   0  0  1  0  0  3  0  0  0  0  0  0
  187.8300  176.1460  144.2540 C   0  0  2  0  0  3  0  0  0  0  0  0
  187.2550  177.8790  146.0510 C   0  0  0  0  0  2  0  0  0  0  0  0
  185.9680  177.7280  145.2880 C   0  0  2  0  0  3  0  0  0  0  0  0
  187.2180  178.2900  141.6840 C   0  0  0  0  0  2  0  0  0  0  0  0
  191.9280  173.3340  144.4000 C   0  0  2  0  0  3  0  0  0  0  0  0
  194.0070  174.6440  146.1380 C   0  0  0  0  0  2  0  0  0  0  0  0
  189.0980  175.9020  144.9450 N   0  0  0  0  0  2  0  0  0  0  0  0
  188.4340  177.3830  142.0120 C   0  0  0  0  0  2  0  0  0  0  0  0
  191.1450  174.5860  144.8740 C   0  0  1  0  0  3  0  0  0  0  0  0
  193.1490  174.0240  142.4590 C   0  0  0  0  0  2  0  0  0  0  0  0
  188.0450  176.0490  142.7010 C   0  0  1  0  0  3  0  0  0  0  0  0
  186.5000  178.8890  142.9140 C   0  0  0  0  0  2  0  0  0  0  0  0
  193.9750  174.9310  144.6460 C   0  0  2  0  0  3  0  0  0  0  0  0
  189.1150  173.9030  143.4320 C   0  0  2  0  0  3  0  0  0  0  0  0
  187.3310  177.5450  144.5840 C   0  0  1  0  0  0  0  0  0  0  0  0
  189.6130  174.5350  144.7470 C   0  0  2  0  0  3  0  0  0  0  0  0
  189.3010  173.0610  140.6280 C   0  0  0  0  0  2  0  0  0  0  0  0
  192.7240  175.0140  146.8300 C   0  0  0  0  0  3  0  0  0  0  0  0
  188.4480  174.2550  141.0350 C   0  0  0  0  0  2  0  0  0  0  0  0
  191.4910  174.9500  146.3000 C   0  0  0  0  0  3  0  0  0  0  0  0
  193.3340  173.7460  143.9150 C   0  0  1  0  0  3  0  0  0  0  0  0
  189.3230  172.0190  141.7440 C   0  0  0  0  0  2  0  0  0  0  0  0
  191.3680  172.7130  143.1200 C   0  0  1  0  0  3  0  0  0  0  0  0
  195.2820  175.1150  144.1880 O   0  0  0  0  0  0  0  0  0  0  0  0
  195.4050  176.4950  144.0020 C   0  0  0  0  0  2  0  0  0  0  0  0
  197.5330  175.1250  141.7610 O   0  0  0  0  0  0  0  0  0  0  0  0
  196.0650  176.7900  141.6400 C   0  0  0  0  0  3  0  0  0  0  0  0
  196.5530  176.7900  143.0520 C   0  0  2  0  0  3  0  0  0  0  0  0
  196.6550  175.8270  140.9580 C   0  0  0  0  0  3  0  0  0  0  0  0
  197.5490  175.6350  143.0820 C   0  0  0  0  0  2  0  0  0  0  0  0
  1 26  1  6  0  0  0
  1 27  1  0  0  0  0
  1 18  1  0  0  0  0
  2 14  1  0  0  0  0
  2 27  1  0  0  0  0
  3 16  1  1  0  0  0
  3 19  1  0  0  0  0
  3  7  1  0  0  0  0
  4 23  1  6  0  0  0
  4 15  1  0  0  0  0
  4 18  1  0  0  0  0
  5 19  1  0  0  0  0
  5 11  1  1  0  0  0
  7  6  1  1  0  0  0
  8 12  1  0  0  0  0
  8 16  1  0  0  0  0
  9 13  1  0  0  0  0
 10 22  1  0  0  0  0
 12 15  1  0  0  0  0
 13 24  1  0  0  0  0
 14 25  1  0  0  0  0
 15  5  1  0  0  0  0
 17 10  1  0  0  0  0
 18 20  1  0  0  0  0
 19  7  1  0  0  0  0
 19  6  1  0  0  0  0
 20 13  1  0  0  0  0
 20 11  1  0  0  0  0
 21 23  1  0  0  0  0
 21 26  1  0  0  0  0
 24 22  2  0  0  0  0
 25  9  1  0  0  0  0
 25 17  1  0  0  0  0
 27  9  1  0  0  0  0
 28 17  1  0  0  0  0
 29 28  1  0  0  0  0
 30 34  1  0  0  0  0
 31 32  1  0  0  0  0
 32 34  1  0  0  0  0
 32 29  1  0  0  0  0
 33 31  2  0  0  0  0
 33 30  1  0  0  0  0
M  END
>  <MODEL>
7

>  <REMARK>
 VINA RESULT:      -7.9      1.256      1.582
  Name = 
  3 active torsions:
  status: ('A' for Active; 'I' for Inactive)
    1  A    between atoms: C_17  and  O_28
    2  A    between atoms: O_28  and  C_29
    3  A    between atoms: C_29  and  C_32
                            x       y       z     vdW  Elec       q    Type
                         _______ _______ _______ _____ _____    ______ ____

>  <TORSDO>
F 3

$$$$
=
 OpenBabel11112418023D

 34 42  0  0  1  0  0  0  0  0999 V2000
  192.0410  174.3400  145.6290 C   0  0  1  0  0  3  0  0  0  0  0  0
  190.4360  176.2450  144.9790 C   0  0  0  0  0  2  0  0  0  0  0  0
  196.6680  174.2450  141.2090 C   0  0  1  0  0  3  0  0  0  0  0  0
  193.5830  175.5360  143.9470 C   0  0  1  0  0  3  0  0  0  0  0  0
  194.5130  173.8420  142.2220 C   0  0  2  0  0  3  0  0  0  0  0  0
  195.0470  172.6540  140.0150 C   0  0  0  0  0  2  0  0  0  0  0  0
  196.4020  172.8740  140.6290 C   0  0  2  0  0  3  0  0  0  0  0  0
  196.2310  176.6530  141.3740 C   0  0  0  0  0  2  0  0  0  0  0  0
  189.9390  174.0520  144.1590 C   0  0  2  0  0  3  0  0  0  0  0  0
  187.8900  173.6110  141.9990 C   0  0  0  0  0  2  0  0  0  0  0  0
  193.0960  173.5460  141.9970 N   0  0  0  0  0  2  0  0  0  0  0  0
  194.7870  176.4390  141.9020 C   0  0  0  0  0  2  0  0  0  0  0  0
  190.8670  173.8090  142.9410 C   0  0  1  0  0  3  0  0  0  0  0  0
  189.4270  176.3910  144.1340 C   0  0  0  0  0  2  0  0  0  0  0  0
  194.6600  175.2540  142.8950 C   0  0  1  0  0  3  0  0  0  0  0  0
  196.7570  175.5390  140.4410 C   0  0  0  0  0  2  0  0  0  0  0  0
  188.3490  175.0210  142.3320 C   0  0  2  0  0  3  0  0  0  0  0  0
  192.9530  174.2160  144.4090 C   0  0  2  0  0  3  0  0  0  0  0  0
  195.2460  173.8660  140.8890 C   0  0  1  0  0  0  0  0  0  0  0  0
  192.3240  173.4210  143.2470 C   0  0  2  0  0  3  0  0  0  0  0  0
  193.2440  176.4760  146.2570 C   0  0  0  0  0  2  0  0  0  0  0  0
  189.0200  172.7180  141.5640 C   0  0  0  0  0  3  0  0  0  0  0  0
  194.2410  176.2500  145.1280 C   0  0  0  0  0  2  0  0  0  0  0  0
  190.2890  172.7780  142.0000 C   0  0  0  0  0  3  0  0  0  0  0  0
  188.8350  175.0650  143.7850 C   0  0  1  0  0  3  0  0  0  0  0  0
  192.7000  175.1400  146.7580 C   0  0  0  0  0  2  0  0  0  0  0  0
  190.6190  174.8000  145.3060 C   0  0  1  0  0  3  0  0  0  0  0  0
  187.2760  175.9010  142.1680 O   0  0  0  0  0  0  0  0  0  0  0  0
  187.4880  176.4930  140.9200 C   0  0  0  0  0  2  0  0  0  0  0  0
  184.7890  178.4290  141.5490 O   0  0  0  0  0  0  0  0  0  0  0  0
  186.8700  178.4250  142.3330 C   0  0  0  0  0  3  0  0  0  0  0  0
  186.9710  177.9220  140.9290 C   0  0  2  0  0  3  0  0  0  0  0  0
  185.6120  178.6950  142.6260 C   0  0  0  0  0  3  0  0  0  0  0  0
  185.5250  177.9420  140.4420 C   0  0  0  0  0  2  0  0  0  0  0  0
  1 26  1  1  0  0  0
  2 27  1  0  0  0  0
  3 16  1  6  0  0  0
  4 18  1  0  0  0  0
  4 23  1  1  0  0  0
  5 11  1  6  0  0  0
  5 15  1  0  0  0  0
  6 19  1  0  0  0  0
  7  6  1  6  0  0  0
  7 19  1  0  0  0  0
  7  3  1  0  0  0  0
  8 12  1  0  0  0  0
  9 27  1  0  0  0  0
 10 17  1  0  0  0  0
 11 20  1  0  0  0  0
 12 15  1  0  0  0  0
 13 20  1  0  0  0  0
 13  9  1  0  0  0  0
 14  2  1  0  0  0  0
 15  4  1  0  0  0  0
 16  8  1  0  0  0  0
 17 25  1  0  0  0  0
 18  1  1  0  0  0  0
 19  3  1  0  0  0  0
 19  5  1  0  0  0  0
 20 18  1  0  0  0  0
 21 26  1  0  0  0  0
 22 10  1  0  0  0  0
 22 24  2  0  0  0  0
 23 21  1  0  0  0  0
 24 13  1  0  0  0  0
 25 14  1  0  0  0  0
 25  9  1  0  0  0  0
 27  1  1  0  0  0  0
 28 17  1  0  0  0  0
 29 32  1  0  0  0  0
 29 28  1  0  0  0  0
 30 33  1  0  0  0  0
 31 33  2  0  0  0  0
 32 31  1  0  0  0  0
 34 32  1  0  0  0  0
 34 30  1  0  0  0  0
M  END
>  <MODEL>
8

>  <REMARK>
 VINA RESULT:      -7.5      2.949      8.289
  Name = 
  3 active torsions:
  status: ('A' for Active; 'I' for Inactive)
    1  A    between atoms: C_17  and  O_28
    2  A    between atoms: O_28  and  C_29
    3  A    between atoms: C_29  and  C_32
                            x       y       z     vdW  Elec       q    Type
                         _______ _______ _______ _____ _____    ______ ____

>  <TORSDO>
F 3

$$$$
=
 OpenBabel11112418023D

 34 42  0  0  1  0  0  0  0  0999 V2000
  191.1070  171.9130  141.9630 C   0  0  1  0  0  3  0  0  0  0  0  0
  193.1080  173.1460  140.9130 C   0  0  0  0  0  2  0  0  0  0  0  0
  188.2880  176.0450  145.9540 C   0  0  1  0  0  3  0  0  0  0  0  0
  190.4250  174.3070  142.6230 C   0  0  1  0  0  3  0  0  0  0  0  0
  189.8860  174.4210  145.1540 C   0  0  2  0  0  3  0  0  0  0  0  0
  189.9540  175.0560  147.6360 C   0  0  0  0  0  2  0  0  0  0  0  0
  188.5220  175.3050  147.2510 C   0  0  2  0  0  3  0  0  0  0  0  0
  189.0050  177.5510  144.1540 C   0  0  0  0  0  2  0  0  0  0  0  0
  193.5130  171.8750  142.9000 C   0  0  2  0  0  3  0  0  0  0  0  0
  196.0780  172.1550  144.4490 C   0  0  0  0  0  2  0  0  0  0  0  0
  191.2330  173.8630  145.2970 N   0  0  0  0  0  2  0  0  0  0  0  0
  190.1350  176.5930  143.6910 C   0  0  0  0  0  2  0  0  0  0  0  0
  193.0250  172.7390  144.0910 C   0  0  1  0  0  3  0  0  0  0  0  0
  194.3540  173.4180  141.2740 C   0  0  0  0  0  2  0  0  0  0  0  0
  189.7370  175.0940  143.7430 C   0  0  1  0  0  3  0  0  0  0  0  0
  188.6620  177.4760  145.6590 C   0  0  0  0  0  2  0  0  0  0  0  0
  195.7540  173.1360  143.3340 C   0  0  2  0  0  3  0  0  0  0  0  0
  190.6540  172.8590  143.0740 C   0  0  2  0  0  3  0  0  0  0  0  0
  189.6590  175.4820  146.2210 C   0  0  1  0  0  0  0  0  0  0  0  0
  191.5090  172.7640  144.3530 C   0  0  2  0  0  3  0  0  0  0  0  0
  190.1040  173.4950  140.2630 C   0  0  0  0  0  2  0  0  0  0  0  0
  195.0390  172.1460  145.5370 C   0  0  0  0  0  3  0  0  0  0  0  0
  189.5240  174.3420  141.3890 C   0  0  0  0  0  2  0  0  0  0  0  0
  193.7220  172.3570  145.3760 C   0  0  0  0  0  3  0  0  0  0  0  0
  194.8180  172.4630  142.3240 C   0  0  1  0  0  3  0  0  0  0  0  0
  190.2370  172.0410  140.7080 C   0  0  0  0  0  2  0  0  0  0  0  0
  192.6080  171.9610  141.6710 C   0  0  1  0  0  3  0  0  0  0  0  0
  196.9400  173.5130  142.6990 O   0  0  0  0  0  0  0  0  0  0  0  0
  197.4580  174.5410  143.4910 C   0  0  0  0  0  2  0  0  0  0  0  0
  196.8270  176.0170  140.5160 O   0  0  0  0  0  0  0  0  0  0  0  0
  196.5700  176.6770  142.6230 C   0  0  0  0  0  3  0  0  0  0  0  0
  197.7500  175.7600  142.6330 C   0  0  2  0  0  3  0  0  0  0  0  0
  196.0910  176.7830  141.3980 C   0  0  0  0  0  3  0  0  0  0  0  0
  197.8810  175.3360  141.1740 C   0  0  0  0  0  2  0  0  0  0  0  0
  1 26  1  6  0  0  0
  1 18  1  0  0  0  0
  2 14  1  0  0  0  0
  2 27  1  0  0  0  0
  3 16  1  1  0  0  0
  3 19  1  0  0  0  0
  3  7  1  0  0  0  0
  4 23  1  6  0  0  0
  4 18  1  0  0  0  0
  4 15  1  0  0  0  0
  5 11  1  6  0  0  0
  5 19  1  0  0  0  0
  7  6  1  1  0  0  0
  8 16  1  0  0  0  0
  9 13  1  0  0  0  0
 10 22  1  0  0  0  0
 12 15  1  0  0  0  0
 12  8  1  0  0  0  0
 13 20  1  0  0  0  0
 13 24  1  0  0  0  0
 14 25  1  0  0  0  0
 15  5  1  0  0  0  0
 17 10  1  0  0  0  0
 18 20  1  0  0  0  0
 19  7  1  0  0  0  0
 19  6  1  0  0  0  0
 20 11  1  0  0  0  0
 21 26  1  0  0  0  0
 21 23  1  0  0  0  0
 24 22  2  0  0  0  0
 25  9  1  0  0  0  0
 25 17  1  0  0  0  0
 27  1  1  0  0  0  0
 27  9  1  0  0  0  0
 28 17  1  0  0  0  0
 28 29  1  0  0  0  0
 30 34  1  0  0  0  0
 30 33  1  0  0  0  0
 31 32  1  0  0  0  0
 32 29  1  0  0  0  0
 33 31  2  0  0  0  0
 34 32  1  0  0  0  0
M  END
>  <MODEL>
9

>  <REMARK>
 VINA RESULT:      -7.4      2.414      3.447
  Name = 
  3 active torsions:
  status: ('A' for Active; 'I' for Inactive)
    1  A    between atoms: C_17  and  O_28
    2  A    between atoms: O_28  and  C_29
    3  A    between atoms: C_29  and  C_32
                            x       y       z     vdW  Elec       q    Type
                         _______ _______ _______ _____ _____    ______ ____

>  <TORSDO>
F 3

$$$$
