=
 OpenBabel11112416513D

 31 36  0  0  1  0  0  0  0  0999 V2000
  185.4410  178.3930  147.3580 C   0  0  0  0  0  0  0  0  0  0  0  0
  187.8260  175.7630  146.0100 C   0  0  2  0  0  3  0  0  0  0  0  0
  187.8480  175.9350  144.4600 C   0  0  1  0  0  3  0  0  0  0  0  0
  187.5330  177.3570  142.4270 C   0  0  1  0  0  3  0  0  0  0  0  0
  187.3060  176.9640  146.7570 C   0  0  0  0  0  0  0  0  0  0  0  0
  186.3170  179.2670  148.0070 C   0  0  0  0  0  3  0  0  0  0  0  0
  187.7070  177.3710  143.9460 C   0  0  0  0  0  2  0  0  0  0  0  0
  190.1630  176.4440  146.6110 C   0  0  2  0  0  3  0  0  0  0  0  0
  184.1140  178.6600  147.3310 F   0  0  0  0  0  0  0  0  0  0  0  0
  189.3190  173.9180  144.3890 C   0  0  0  0  0  2  0  0  0  0  0  0
  187.4390  178.6660  141.9570 O   0  0  0  0  0  1  0  0  0  0  0  0
  189.6580  177.5410  147.5560 C   0  0  0  0  0  2  0  0  0  0  0  0
  189.1640  175.2750  146.5980 C   0  0  2  0  0  3  0  0  0  0  0  0
  185.9350  177.2460  146.7330 C   0  0  0  0  0  3  0  0  0  0  0  0
  188.7120  176.6540  141.7510 C   0  0  0  0  0  2  0  0  0  0  0  0
  188.1920  177.8510  147.4070 C   0  0  0  0  0  0  0  0  0  0  0  0
  187.6860  178.9930  148.0370 C   0  0  0  0  0  3  0  0  0  0  0  0
  189.6910  174.0190  145.8730 C   0  0  0  0  0  2  0  0  0  0  0  0
  189.0760  175.2960  143.8030 C   0  0  1  0  0  3  0  0  0  0  0  0
  188.8810  175.2350  142.2950 C   0  0  0  0  0  2  0  0  0  0  0  0
  192.3300  177.1020  146.7960 O   0  0  0  0  0  0  0  0  0  0  0  0
  192.3730  176.0860  145.8970 C   0  0  2  0  0  3  0  0  0  0  0  0
  191.4930  176.0240  147.0420 N   0  0  2  0  0  0  0  0  0  0  0  0
  195.3150  175.8140  143.9320 C   0  0  1  0  0  3  0  0  0  0  0  0
  194.8600  176.2550  146.1170 C   0  0  0  0  0  2  0  0  0  0  0  0
  192.8170  173.4370  145.0530 O   0  0  0  0  0  1  0  0  0  0  0  0
  195.5910  176.4160  142.5700 C   0  0  0  0  0  1  0  0  0  0  0  0
  194.9920  176.8410  144.8410 O   0  0  0  0  0  0  0  0  0  0  0  0
  193.9080  174.2350  145.1400 N   0  0  0  0  0  0  0  0  0  0  0  0
  193.6650  175.2920  146.1380 C   0  0  2  0  0  3  0  0  0  0  0  0
  194.1530  174.8220  143.8230 C   0  0  0  0  0  2  0  0  0  0  0  0
  1  6  1  0  0  0  0
  2 13  1  0  0  0  0
  2  5  1  1  0  0  0
  3  7  1  1  0  0  0
  3  2  1  0  0  0  0
  4 11  1  6  0  0  0
  4  7  1  0  0  0  0
  5 16  2  0  0  0  0
  6 17  2  0  0  0  0
  8 23  1  0  0  0  0
  8 12  1  1  0  0  0
  9  1  1  0  0  0  0
 10 18  1  0  0  0  0
 13 18  1  6  0  0  0
 13  8  1  0  0  0  0
 14  5  1  0  0  0  0
 14  1  2  0  0  0  0
 15 20  1  0  0  0  0
 15  4  1  0  0  0  0
 16 12  1  0  0  0  0
 16 17  1  0  0  0  0
 19 20  1  6  0  0  0
 19 10  1  0  0  0  0
 19  3  1  0  0  0  0
 22 30  1  0  0  0  0
 22 21  1  1  0  0  0
 22 23  1  0  0  0  0
 23 21  1  1  0  0  0
 24 27  1  6  0  0  0
 24 28  1  0  0  0  0
 26 29  1  0  0  0  0
 28 25  1  0  0  0  0
 29 30  1  0  0  0  0
 30 25  1  6  0  0  0
 31 24  1  0  0  0  0
 31 29  1  0  0  0  0
M  END
>  <MODEL>
1

>  <REMARK>
 VINA RESULT:      -7.9      0.000      0.000
  Name = 
  2 active torsions:
  status: ('A' for Active; 'I' for Inactive)
    1  A    between atoms: C_5  and  C_30
    2  A    between atoms: C_10  and  N_16
                            x       y       z     vdW  Elec       q    Type
                         _______ _______ _______ _____ _____    ______ ____

>  <TORSDO>
F 2

$$$$
=
 OpenBabel11112416513D

 31 36  0  0  1  0  0  0  0  0999 V2000
  185.7440  177.4900  142.4020 C   0  0  0  0  0  0  0  0  0  0  0  0
  188.2170  175.0320  143.9060 C   0  0  2  0  0  3  0  0  0  0  0  0
  188.6190  174.0500  142.7630 C   0  0  1  0  0  3  0  0  0  0  0  0
  188.8860  173.5420  140.3290 C   0  0  1  0  0  3  0  0  0  0  0  0
  187.6080  176.3230  143.4250 C   0  0  0  0  0  0  0  0  0  0  0  0
  186.4910  178.6700  142.3830 C   0  0  0  0  0  3  0  0  0  0  0  0
  188.6930  174.6560  141.3580 C   0  0  0  0  0  2  0  0  0  0  0  0
  190.3800  176.2380  144.2980 C   0  0  2  0  0  3  0  0  0  0  0  0
  184.4810  177.4800  141.9150 F   0  0  0  0  0  0  0  0  0  0  0  0
  189.9380  172.8030  144.4780 C   0  0  0  0  0  2  0  0  0  0  0  0
  188.9880  174.0970  139.0550 O   0  0  0  0  0  1  0  0  0  0  0  0
  189.7310  177.6010  144.0250 C   0  0  0  0  0  2  0  0  0  0  0  0
  189.3430  175.2910  144.9250 C   0  0  2  0  0  3  0  0  0  0  0  0
  186.3020  176.3190  142.9200 C   0  0  0  0  0  3  0  0  0  0  0  0
  190.1470  172.7310  140.6360 C   0  0  0  0  0  2  0  0  0  0  0  0
  188.3660  177.5150  143.3990 C   0  0  0  0  0  0  0  0  0  0  0  0
  187.7940  178.6840  142.8850 C   0  0  0  0  0  3  0  0  0  0  0  0
  189.9510  173.9780  145.4630 C   0  0  0  0  0  2  0  0  0  0  0  0
  189.9280  173.3030  143.0460 C   0  0  1  0  0  3  0  0  0  0  0  0
  190.0950  172.1620  142.0530 C   0  0  0  0  0  2  0  0  0  0  0  0
  192.3670  177.3210  144.4960 O   0  0  0  0  0  0  0  0  0  0  0  0
  192.7150  176.0110  144.4340 C   0  0  2  0  0  3  0  0  0  0  0  0
  191.5400  176.4300  145.1630 N   0  0  2  0  0  0  0  0  0  0  0  0
  196.0970  175.2140  143.7150 C   0  0  1  0  0  3  0  0  0  0  0  0
  195.0330  176.7660  144.9950 C   0  0  0  0  0  2  0  0  0  0  0  0
  193.4560  173.5320  145.5430 O   0  0  0  0  0  1  0  0  0  0  0  0
  196.7260  174.9280  142.3680 C   0  0  0  0  0  1  0  0  0  0  0  0
  195.5020  176.4900  143.6930 O   0  0  0  0  0  0  0  0  0  0  0  0
  194.4550  174.4210  145.3300 N   0  0  0  0  0  0  0  0  0  0  0  0
  193.9100  175.7900  145.3720 C   0  0  2  0  0  3  0  0  0  0  0  0
  195.0430  174.1450  144.0190 C   0  0  0  0  0  2  0  0  0  0  0  0
  1 14  1  0  0  0  0
  2  5  1  6  0  0  0
  2 13  1  0  0  0  0
  3  7  1  6  0  0  0
  3 19  1  0  0  0  0
  3  2  1  0  0  0  0
  4 11  1  6  0  0  0
  4 15  1  0  0  0  0
  4  7  1  0  0  0  0
  6  1  2  0  0  0  0
  6 17  1  0  0  0  0
  8 12  1  1  0  0  0
  8 13  1  0  0  0  0
  8 23  1  0  0  0  0
  9  1  1  0  0  0  0
 10 18  1  0  0  0  0
 13 18  1  6  0  0  0
 14  5  2  0  0  0  0
 15 20  1  0  0  0  0
 16  5  1  0  0  0  0
 16 12  1  0  0  0  0
 17 16  2  0  0  0  0
 19 20  1  6  0  0  0
 19 10  1  0  0  0  0
 22 21  1  6  0  0  0
 22 23  1  0  0  0  0
 22 30  1  0  0  0  0
 23 21  1  6  0  0  0
 24 27  1  6  0  0  0
 24 31  1  0  0  0  0
 28 24  1  0  0  0  0
 28 25  1  0  0  0  0
 29 30  1  0  0  0  0
 29 26  1  0  0  0  0
 30 25  1  6  0  0  0
 31 29  1  0  0  0  0
M  END
>  <MODEL>
2

>  <REMARK>
 VINA RESULT:      -7.8      2.741      3.202
  Name = 
  2 active torsions:
  status: ('A' for Active; 'I' for Inactive)
    1  A    between atoms: C_5  and  C_30
    2  A    between atoms: C_10  and  N_16
                            x       y       z     vdW  Elec       q    Type
                         _______ _______ _______ _____ _____    ______ ____

>  <TORSDO>
F 2

$$$$
=
 OpenBabel11112416513D

 31 36  0  0  1  0  0  0  0  0999 V2000
  185.9390  178.0930  146.9220 C   0  0  0  0  0  0  0  0  0  0  0  0
  189.0210  177.8930  144.7110 C   0  0  2  0  0  3  0  0  0  0  0  0
  190.1660  177.3130  145.5970 C   0  0  1  0  0  3  0  0  0  0  0  0
  190.9210  175.9670  147.5650 C   0  0  1  0  0  3  0  0  0  0  0  0
  187.6360  177.6400  145.2490 C   0  0  0  0  0  0  0  0  0  0  0  0
  185.1280  177.0970  146.3720 C   0  0  0  0  0  3  0  0  0  0  0  0
  189.7400  176.2800  146.6450 C   0  0  0  0  0  2  0  0  0  0  0  0
  188.6840  176.0320  143.0650 C   0  0  2  0  0  3  0  0  0  0  0  0
  185.5130  178.7950  147.9990 F   0  0  0  0  0  0  0  0  0  0  0  0
  191.6810  177.6790  143.6460 C   0  0  0  0  0  2  0  0  0  0  0  0
  190.5430  175.0020  148.4960 O   0  0  0  0  0  1  0  0  0  0  0  0
  187.2020  175.8980  143.4390 C   0  0  0  0  0  2  0  0  0  0  0  0
  189.1240  177.4970  143.2260 C   0  0  2  0  0  3  0  0  0  0  0  0
  187.1910  178.3630  146.3630 C   0  0  0  0  0  3  0  0  0  0  0  0
  192.1190  175.4590  146.7580 C   0  0  0  0  0  2  0  0  0  0  0  0
  186.8200  176.6280  144.6980 C   0  0  0  0  0  0  0  0  0  0  0  0
  185.5650  176.3730  145.2610 C   0  0  0  0  0  3  0  0  0  0  0  0
  190.5240  177.7890  142.6450 C   0  0  0  0  0  2  0  0  0  0  0  0
  191.3230  176.7330  144.7760 C   0  0  1  0  0  3  0  0  0  0  0  0
  192.5170  176.4690  145.6830 C   0  0  0  0  0  2  0  0  0  0  0  0
  188.1580  174.3650  141.6140 O   0  0  0  0  0  0  0  0  0  0  0  0
  189.5010  174.2510  141.7700 C   0  0  2  0  0  3  0  0  0  0  0  0
  188.8730  175.5510  141.7010 N   0  0  2  0  0  0  0  0  0  0  0  0
  191.0420  171.2230  140.7450 C   0  0  1  0  0  3  0  0  0  0  0  0
  189.4080  172.5730  139.9160 C   0  0  0  0  0  2  0  0  0  0  0  0
  192.1840  174.6540  141.0160 O   0  0  0  0  0  1  0  0  0  0  0  0
  191.3410  169.9950  141.5780 C   0  0  0  0  0  1  0  0  0  0  0  0
  189.6610  171.4990  140.7960 O   0  0  0  0  0  0  0  0  0  0  0  0
  191.5550  173.5880  140.4660 N   0  0  0  0  0  0  0  0  0  0  0  0
  190.1040  173.8450  140.4170 C   0  0  2  0  0  3  0  0  0  0  0  0
  191.8380  172.4120  141.2890 C   0  0  0  0  0  2  0  0  0  0  0  0
  1  9  1  0  0  0  0
  2  5  1  1  0  0  0
  2  3  1  0  0  0  0
  3  7  1  6  0  0  0
  4 11  1  1  0  0  0
  5 14  1  0  0  0  0
  6  1  1  0  0  0  0
  7  4  1  0  0  0  0
  8 13  1  0  0  0  0
  8 12  1  6  0  0  0
 12 16  1  0  0  0  0
 13 18  1  1  0  0  0
 13  2  1  0  0  0  0
 14  1  2  0  0  0  0
 15  4  1  0  0  0  0
 16  5  2  0  0  0  0
 16 17  1  0  0  0  0
 17  6  2  0  0  0  0
 18 10  1  0  0  0  0
 19 10  1  6  0  0  0
 19  3  1  0  0  0  0
 19 20  1  0  0  0  0
 20 15  1  0  0  0  0
 22 21  1  6  0  0  0
 23 21  1  1  0  0  0
 23 22  1  0  0  0  0
 23  8  1  0  0  0  0
 24 28  1  0  0  0  0
 24 31  1  0  0  0  0
 24 27  1  1  0  0  0
 25 28  1  0  0  0  0
 29 26  1  0  0  0  0
 29 31  1  0  0  0  0
 30 25  1  1  0  0  0
 30 29  1  0  0  0  0
 30 22  1  0  0  0  0
M  END
>  <MODEL>
3

>  <REMARK>
 VINA RESULT:      -7.7      2.975      5.232
  Name = 
  2 active torsions:
  status: ('A' for Active; 'I' for Inactive)
    1  A    between atoms: C_5  and  C_30
    2  A    between atoms: C_10  and  N_16
                            x       y       z     vdW  Elec       q    Type
                         _______ _______ _______ _____ _____    ______ ____

>  <TORSDO>
F 2

$$$$
=
 OpenBabel11112416513D

 31 36  0  0  1  0  0  0  0  0999 V2000
  188.1960  176.1770  146.8290 C   0  0  0  0  0  0  0  0  0  0  0  0
  191.0320  173.9740  145.5930 C   0  0  2  0  0  3  0  0  0  0  0  0
  190.6580  173.5400  144.1430 C   0  0  1  0  0  3  0  0  0  0  0  0
  189.4180  173.9360  142.0070 C   0  0  1  0  0  3  0  0  0  0  0  0
  190.2810  175.1830  146.0880 C   0  0  0  0  0  0  0  0  0  0  0  0
  188.8070  177.4320  146.8720 C   0  0  0  0  0  3  0  0  0  0  0  0
  189.8940  174.5760  143.3120 C   0  0  0  0  0  2  0  0  0  0  0  0
  193.0270  175.4320  145.1670 C   0  0  2  0  0  3  0  0  0  0  0  0
  186.8900  176.0480  147.1640 F   0  0  0  0  0  0  0  0  0  0  0  0
  192.7140  172.1220  144.1790 C   0  0  0  0  0  2  0  0  0  0  0  0
  188.7530  174.8880  141.2370 O   0  0  0  0  0  1  0  0  0  0  0  0
  192.3690  176.6280  145.8660 C   0  0  0  0  0  2  0  0  0  0  0  0
  192.5480  174.1260  145.8230 C   0  0  2  0  0  3  0  0  0  0  0  0
  188.9300  175.0550  146.4360 C   0  0  0  0  0  3  0  0  0  0  0  0
  190.5990  173.3710  141.2150 C   0  0  0  0  0  2  0  0  0  0  0  0
  190.8970  176.4530  146.1250 C   0  0  0  0  0  0  0  0  0  0  0  0
  190.1540  177.5680  146.5280 C   0  0  0  0  0  3  0  0  0  0  0  0
  193.3310  172.8790  145.3610 C   0  0  0  0  0  2  0  0  0  0  0  0
  191.8640  173.0520  143.3320 C   0  0  1  0  0  3  0  0  0  0  0  0
  191.3880  172.3690  142.0590 C   0  0  0  0  0  2  0  0  0  0  0  0
  194.7620  176.8100  144.6630 O   0  0  0  0  0  0  0  0  0  0  0  0
  194.9800  175.7150  143.8910 C   0  0  2  0  0  3  0  0  0  0  0  0
  194.4770  175.5810  145.2400 N   0  0  2  0  0  0  0  0  0  0  0  0
  197.1690  175.5020  141.1070 C   0  0  1  0  0  3  0  0  0  0  0  0
  197.1620  176.6330  143.0820 C   0  0  0  0  0  2  0  0  0  0  0  0
  196.1960  173.1820  143.7190 O   0  0  0  0  0  1  0  0  0  0  0  0
  196.8220  175.5620  139.6350 C   0  0  0  0  0  1  0  0  0  0  0  0
  196.7160  176.6740  141.7440 O   0  0  0  0  0  0  0  0  0  0  0  0
  196.8660  174.2140  143.1520 N   0  0  0  0  0  0  0  0  0  0  0  0
  196.4940  175.4710  143.8280 C   0  0  2  0  0  3  0  0  0  0  0  0
  196.5080  174.2720  141.7350 C   0  0  0  0  0  2  0  0  0  0  0  0
  1  6  1  0  0  0  0
  1  9  1  0  0  0  0
  2 13  1  0  0  0  0
  2  5  1  6  0  0  0
  3  7  1  6  0  0  0
  3  2  1  0  0  0  0
  4 11  1  6  0  0  0
  4  7  1  0  0  0  0
  5 16  2  0  0  0  0
  5 14  1  0  0  0  0
  8 23  1  0  0  0  0
  8 13  1  0  0  0  0
  8 12  1  1  0  0  0
 10 18  1  0  0  0  0
 12 16  1  0  0  0  0
 13 18  1  6  0  0  0
 14  1  2  0  0  0  0
 15  4  1  0  0  0  0
 15 20  1  0  0  0  0
 16 17  1  0  0  0  0
 17  6  2  0  0  0  0
 19 20  1  6  0  0  0
 19  3  1  0  0  0  0
 19 10  1  0  0  0  0
 22 21  1  1  0  0  0
 22 23  1  0  0  0  0
 23 21  1  1  0  0  0
 24 27  1  6  0  0  0
 24 31  1  0  0  0  0
 24 28  1  0  0  0  0
 28 25  1  0  0  0  0
 29 26  1  0  0  0  0
 29 30  1  0  0  0  0
 30 25  1  6  0  0  0
 30 22  1  0  0  0  0
 31 29  1  0  0  0  0
M  END
>  <MODEL>
4

>  <REMARK>
 VINA RESULT:      -7.5      2.308      3.586
  Name = 
  2 active torsions:
  status: ('A' for Active; 'I' for Inactive)
    1  A    between atoms: C_5  and  C_30
    2  A    between atoms: C_10  and  N_16
                            x       y       z     vdW  Elec       q    Type
                         _______ _______ _______ _____ _____    ______ ____

>  <TORSDO>
F 2

$$$$
=
 OpenBabel11112416513D

 31 36  0  0  1  0  0  0  0  0999 V2000
  187.9720  176.4360  146.1960 C   0  0  0  0  0  0  0  0  0  0  0  0
  191.2740  174.5950  145.8350 C   0  0  2  0  0  3  0  0  0  0  0  0
  190.9760  173.3050  145.0110 C   0  0  1  0  0  3  0  0  0  0  0  0
  189.5690  172.0550  143.3650 C   0  0  1  0  0  3  0  0  0  0  0  0
  190.2200  175.6650  145.7100 C   0  0  0  0  0  0  0  0  0  0  0  0
  188.1780  177.5540  145.3850 C   0  0  0  0  0  3  0  0  0  0  0  0
  189.8950  173.4360  143.9330 C   0  0  0  0  0  2  0  0  0  0  0  0
  192.7140  175.8770  144.2310 C   0  0  2  0  0  3  0  0  0  0  0  0
  186.7850  176.2640  146.8230 F   0  0  0  0  0  0  0  0  0  0  0  0
  193.3620  172.6720  145.3880 C   0  0  0  0  0  2  0  0  0  0  0  0
  188.6100  172.1790  142.3600 O   0  0  0  0  0  1  0  0  0  0  0  0
  191.7620  177.0800  144.2550 C   0  0  0  0  0  2  0  0  0  0  0  0
  192.6840  175.1700  145.5970 C   0  0  2  0  0  3  0  0  0  0  0  0
  188.9890  175.4920  146.3560 C   0  0  0  0  0  3  0  0  0  0  0  0
  190.8240  171.3910  142.7940 C   0  0  0  0  0  2  0  0  0  0  0  0
  190.4260  176.7910  144.8840 C   0  0  0  0  0  0  0  0  0  0  0  0
  189.4030  177.7340  144.7370 C   0  0  0  0  0  3  0  0  0  0  0  0
  193.7820  174.0990  145.7620 C   0  0  0  0  0  2  0  0  0  0  0  0
  192.2310  172.6940  144.3770 C   0  0  1  0  0  3  0  0  0  0  0  0
  191.9190  171.2990  143.8570 C   0  0  0  0  0  2  0  0  0  0  0  0
  193.9720  176.7910  142.5750 O   0  0  0  0  0  0  0  0  0  0  0  0
  194.5180  175.5620  142.7590 C   0  0  2  0  0  3  0  0  0  0  0  0
  194.0540  176.3400  143.8840 N   0  0  2  0  0  0  0  0  0  0  0  0
  196.6230  174.4770  140.1170 C   0  0  1  0  0  3  0  0  0  0  0  0
  196.3320  176.4200  141.2650 C   0  0  0  0  0  2  0  0  0  0  0  0
  196.4010  173.6660  143.6440 O   0  0  0  0  0  1  0  0  0  0  0  0
  196.2440  173.6920  138.8790 C   0  0  0  0  0  1  0  0  0  0  0  0
  195.8670  175.6650  140.1670 O   0  0  0  0  0  0  0  0  0  0  0  0
  196.7380  174.3870  142.5480 N   0  0  0  0  0  0  0  0  0  0  0  0
  196.0370  175.6830  142.5780 C   0  0  2  0  0  3  0  0  0  0  0  0
  196.3520  173.6250  141.3600 C   0  0  0  0  0  2  0  0  0  0  0  0
  1 14  1  0  0  0  0
  1  9  1  0  0  0  0
  2  5  1  6  0  0  0
  3  7  1  6  0  0  0
  3  2  1  0  0  0  0
  4 11  1  6  0  0  0
  4  7  1  0  0  0  0
  5 14  2  0  0  0  0
  6  1  2  0  0  0  0
  8 12  1  1  0  0  0
  8 13  1  0  0  0  0
 10 18  1  0  0  0  0
 12 16  1  0  0  0  0
 13 18  1  6  0  0  0
 13  2  1  0  0  0  0
 15  4  1  0  0  0  0
 15 20  1  0  0  0  0
 16  5  1  0  0  0  0
 17 16  2  0  0  0  0
 17  6  1  0  0  0  0
 19 20  1  1  0  0  0
 19  3  1  0  0  0  0
 19 10  1  0  0  0  0
 22 21  1  6  0  0  0
 22 23  1  0  0  0  0
 23 21  1  6  0  0  0
 23  8  1  0  0  0  0
 24 27  1  6  0  0  0
 24 28  1  0  0  0  0
 24 31  1  0  0  0  0
 28 25  1  0  0  0  0
 29 30  1  0  0  0  0
 29 26  1  0  0  0  0
 30 25  1  6  0  0  0
 30 22  1  0  0  0  0
 31 29  1  0  0  0  0
M  END
>  <MODEL>
5

>  <REMARK>
 VINA RESULT:      -7.4      2.698      4.300
  Name = 
  2 active torsions:
  status: ('A' for Active; 'I' for Inactive)
    1  A    between atoms: C_5  and  C_30
    2  A    between atoms: C_10  and  N_16
                            x       y       z     vdW  Elec       q    Type
                         _______ _______ _______ _____ _____    ______ ____

>  <TORSDO>
F 2

$$$$
=
 OpenBabel11112416513D

 31 36  0  0  1  0  0  0  0  0999 V2000
  196.8030  170.7630  145.7320 C   0  0  0  0  0  0  0  0  0  0  0  0
  195.7910  174.4160  145.4870 C   0  0  2  0  0  3  0  0  0  0  0  0
  196.1830  174.8900  144.0540 C   0  0  1  0  0  3  0  0  0  0  0  0
  196.6660  174.3830  141.6530 C   0  0  1  0  0  3  0  0  0  0  0  0
  195.6950  172.9190  145.6370 C   0  0  0  0  0  0  0  0  0  0  0  0
  195.5610  170.1250  145.7640 C   0  0  0  0  0  3  0  0  0  0  0  0
  196.0510  173.8430  142.9440 C   0  0  0  0  0  2  0  0  0  0  0  0
  193.2880  174.5290  145.3710 C   0  0  2  0  0  3  0  0  0  0  0  0
  197.9410  170.0320  145.7600 F   0  0  0  0  0  0  0  0  0  0  0  0
  195.4460  177.1720  144.7510 C   0  0  0  0  0  2  0  0  0  0  0  0
  196.5140  173.4430  140.6360 O   0  0  0  0  0  1  0  0  0  0  0  0
  193.1510  173.0460  145.7410 C   0  0  0  0  0  2  0  0  0  0  0  0
  194.5380  175.1150  146.0500 C   0  0  2  0  0  3  0  0  0  0  0  0
  196.8700  172.1570  145.6660 C   0  0  0  0  0  3  0  0  0  0  0  0
  195.9970  175.6960  141.2400 C   0  0  0  0  0  2  0  0  0  0  0  0
  194.4400  172.2730  145.6620 C   0  0  0  0  0  0  0  0  0  0  0  0
  194.3840  170.8770  145.7360 C   0  0  0  0  0  3  0  0  0  0  0  0
  194.6360  176.6510  145.9440 C   0  0  0  0  0  2  0  0  0  0  0  0
  195.4450  176.1620  143.6200 C   0  0  1  0  0  3  0  0  0  0  0  0
  196.0900  176.7290  142.3630 C   0  0  0  0  0  2  0  0  0  0  0  0
  191.0200  174.4800  145.2620 O   0  0  0  0  0  0  0  0  0  0  0  0
  191.3560  175.5950  144.5650 C   0  0  2  0  0  3  0  0  0  0  0  0
  192.0710  175.2300  145.7670 N   0  0  2  0  0  0  0  0  0  0  0  0
  188.5010  176.5650  142.6960 C   0  0  1  0  0  3  0  0  0  0  0  0
  188.9080  176.0150  144.8660 C   0  0  0  0  0  2  0  0  0  0  0  0
  191.5230  178.2790  143.7320 O   0  0  0  0  0  1  0  0  0  0  0  0
  188.0480  176.0540  141.3440 C   0  0  0  0  0  1  0  0  0  0  0  0
  188.6010  175.4850  143.5950 O   0  0  0  0  0  0  0  0  0  0  0  0
  190.2780  177.7610  143.8550 N   0  0  0  0  0  0  0  0  0  0  0  0
  190.2960  176.6700  144.8460 C   0  0  2  0  0  3  0  0  0  0  0  0
  189.8590  177.2560  142.5480 C   0  0  0  0  0  2  0  0  0  0  0  0
  1  9  1  0  0  0  0
  1  6  1  0  0  0  0
  2  5  1  6  0  0  0
  2 13  1  0  0  0  0
  3  7  1  6  0  0  0
  3  2  1  0  0  0  0
  4 11  1  6  0  0  0
  4  7  1  0  0  0  0
  5 16  2  0  0  0  0
  5 14  1  0  0  0  0
  8 12  1  1  0  0  0
  8 23  1  0  0  0  0
  8 13  1  0  0  0  0
 10 18  1  0  0  0  0
 13 18  1  6  0  0  0
 14  1  2  0  0  0  0
 15  4  1  0  0  0  0
 15 20  1  0  0  0  0
 16 17  1  0  0  0  0
 16 12  1  0  0  0  0
 17  6  2  0  0  0  0
 19 20  1  6  0  0  0
 19  3  1  0  0  0  0
 19 10  1  0  0  0  0
 22 30  1  0  0  0  0
 22 21  1  1  0  0  0
 22 23  1  0  0  0  0
 23 21  1  1  0  0  0
 24 27  1  6  0  0  0
 24 28  1  0  0  0  0
 26 29  1  0  0  0  0
 28 25  1  0  0  0  0
 29 30  1  0  0  0  0
 30 25  1  6  0  0  0
 31 24  1  0  0  0  0
 31 29  1  0  0  0  0
M  END
>  <MODEL>
6

>  <REMARK>
 VINA RESULT:      -7.3      4.020      8.209
  Name = 
  2 active torsions:
  status: ('A' for Active; 'I' for Inactive)
    1  A    between atoms: C_5  and  C_30
    2  A    between atoms: C_10  and  N_16
                            x       y       z     vdW  Elec       q    Type
                         _______ _______ _______ _____ _____    ______ ____

>  <TORSDO>
F 2

$$$$
=
 OpenBabel11112416513D

 31 36  0  0  1  0  0  0  0  0999 V2000
  186.2080  177.1560  142.4100 C   0  0  0  0  0  0  0  0  0  0  0  0
  188.7190  174.4950  143.4290 C   0  0  2  0  0  3  0  0  0  0  0  0
  188.9480  173.5970  142.1740 C   0  0  1  0  0  3  0  0  0  0  0  0
  188.9240  173.2820  139.6940 C   0  0  1  0  0  3  0  0  0  0  0  0
  188.1200  175.8430  143.1210 C   0  0  0  0  0  0  0  0  0  0  0  0
  187.0010  178.3060  142.3980 C   0  0  0  0  0  3  0  0  0  0  0  0
  188.8950  174.3140  140.8220 C   0  0  0  0  0  2  0  0  0  0  0  0
  190.9640  175.5860  143.6660 C   0  0  2  0  0  3  0  0  0  0  0  0
  184.9000  177.2310  142.0700 F   0  0  0  0  0  0  0  0  0  0  0  0
  190.3910  172.1660  143.6260 C   0  0  0  0  0  2  0  0  0  0  0  0
  188.9090  173.9360  138.4630 O   0  0  0  0  0  1  0  0  0  0  0  0
  190.3510  176.9890  143.5750 C   0  0  0  0  0  2  0  0  0  0  0  0
  189.9610  174.6280  144.3310 C   0  0  2  0  0  3  0  0  0  0  0  0
  186.7670  175.9270  142.7680 C   0  0  0  0  0  3  0  0  0  0  0  0
  190.1730  172.4040  139.7910 C   0  0  0  0  0  2  0  0  0  0  0  0
  188.9220  177.0040  143.1020 C   0  0  0  0  0  0  0  0  0  0  0  0
  188.3510  178.2310  142.7500 C   0  0  0  0  0  3  0  0  0  0  0  0
  190.5650  173.2550  144.6920 C   0  0  0  0  0  2  0  0  0  0  0  0
  190.2460  172.7830  142.2480 C   0  0  1  0  0  3  0  0  0  0  0  0
  190.2510  171.7220  141.1570 C   0  0  0  0  0  2  0  0  0  0  0  0
  192.8760  176.7870  143.9220 O   0  0  0  0  0  0  0  0  0  0  0  0
  193.3040  175.5870  143.4550 C   0  0  2  0  0  3  0  0  0  0  0  0
  192.2190  175.6650  144.4070 N   0  0  2  0  0  0  0  0  0  0  0  0
  196.5950  175.3800  142.1450 C   0  0  1  0  0  3  0  0  0  0  0  0
  195.6200  176.4110  143.9240 C   0  0  0  0  0  2  0  0  0  0  0  0
  194.3720  172.9970  143.7350 O   0  0  0  0  0  1  0  0  0  0  0  0
  197.0430  175.5330  140.7070 C   0  0  0  0  0  1  0  0  0  0  0  0
  195.9140  176.5440  142.5500 O   0  0  0  0  0  0  0  0  0  0  0  0
  195.2630  174.0140  143.6590 N   0  0  0  0  0  0  0  0  0  0  0  0
  194.6350  175.2550  144.1450 C   0  0  2  0  0  3  0  0  0  0  0  0
  195.6750  174.1620  142.2630 C   0  0  0  0  0  2  0  0  0  0  0  0
  1 14  1  0  0  0  0
  2  5  1  6  0  0  0
  2 13  1  0  0  0  0
  3  7  1  6  0  0  0
  3 19  1  0  0  0  0
  3  2  1  0  0  0  0
  4 11  1  6  0  0  0
  4 15  1  0  0  0  0
  4  7  1  0  0  0  0
  6  1  2  0  0  0  0
  6 17  1  0  0  0  0
  8 12  1  1  0  0  0
  8 13  1  0  0  0  0
  8 23  1  0  0  0  0
  9  1  1  0  0  0  0
 10 18  1  0  0  0  0
 13 18  1  6  0  0  0
 14  5  2  0  0  0  0
 15 20  1  0  0  0  0
 16  5  1  0  0  0  0
 16 12  1  0  0  0  0
 17 16  2  0  0  0  0
 19 20  1  6  0  0  0
 19 10  1  0  0  0  0
 22 21  1  1  0  0  0
 22 30  1  0  0  0  0
 22 23  1  0  0  0  0
 23 21  1  6  0  0  0
 24 27  1  6  0  0  0
 24 31  1  0  0  0  0
 24 28  1  0  0  0  0
 28 25  1  0  0  0  0
 29 26  1  0  0  0  0
 29 30  1  0  0  0  0
 30 25  1  6  0  0  0
 31 29  1  0  0  0  0
M  END
>  <MODEL>
7

>  <REMARK>
 VINA RESULT:      -7.2      3.171      3.729
  Name = 
  2 active torsions:
  status: ('A' for Active; 'I' for Inactive)
    1  A    between atoms: C_5  and  C_30
    2  A    between atoms: C_10  and  N_16
                            x       y       z     vdW  Elec       q    Type
                         _______ _______ _______ _____ _____    ______ ____

>  <TORSDO>
F 2

$$$$
=
 OpenBabel11112416513D

 31 36  0  0  1  0  0  0  0  0999 V2000
  187.6220  177.2940  142.2300 C   0  0  0  0  0  0  0  0  0  0  0  0
  191.1480  176.8660  143.5750 C   0  0  2  0  0  3  0  0  0  0  0  0
  191.0110  176.6230  145.1100 C   0  0  1  0  0  3  0  0  0  0  0  0
  189.6710  175.8610  147.0790 C   0  0  1  0  0  3  0  0  0  0  0  0
  189.8810  176.6180  142.7970 C   0  0  0  0  0  0  0  0  0  0  0  0
  187.4570  176.1240  141.4850 C   0  0  0  0  0  3  0  0  0  0  0  0
  189.7760  175.8340  145.5540 C   0  0  0  0  0  2  0  0  0  0  0  0
  192.0160  174.6430  142.8040 C   0  0  2  0  0  3  0  0  0  0  0  0
  186.6090  178.1880  142.3200 F   0  0  0  0  0  0  0  0  0  0  0  0
  193.5070  176.6560  145.2030 C   0  0  0  0  0  2  0  0  0  0  0  0
  188.5660  175.1130  147.4830 O   0  0  0  0  0  1  0  0  0  0  0  0
  190.8430  174.4630  141.8320 C   0  0  0  0  0  2  0  0  0  0  0  0
  192.3470  176.1400  142.9370 C   0  0  2  0  0  3  0  0  0  0  0  0
  188.8310  177.5400  142.8860 C   0  0  0  0  0  3  0  0  0  0  0  0
  190.9370  175.2910  147.7220 C   0  0  0  0  0  2  0  0  0  0  0  0
  189.7120  175.4320  142.0500 C   0  0  0  0  0  0  0  0  0  0  0  0
  188.5000  175.2000  141.3900 C   0  0  0  0  0  3  0  0  0  0  0  0
  193.6620  176.4160  143.6960 C   0  0  0  0  0  2  0  0  0  0  0  0
  192.2570  175.9760  145.7280 C   0  0  1  0  0  3  0  0  0  0  0  0
  192.1760  176.0500  147.2460 C   0  0  0  0  0  2  0  0  0  0  0  0
  192.7230  172.5550  142.2580 O   0  0  0  0  0  0  0  0  0  0  0  0
  193.4910  172.8910  143.3260 C   0  0  2  0  0  3  0  0  0  0  0  0
  193.1550  173.8720  142.3190 N   0  0  2  0  0  0  0  0  0  0  0  0
  195.2720  170.3990  145.1160 C   0  0  1  0  0  3  0  0  0  0  0  0
  194.7930  170.7920  142.9270 C   0  0  0  0  0  2  0  0  0  0  0  0
  195.8530  173.9180  144.4630 O   0  0  0  0  0  1  0  0  0  0  0  0
  194.8510  169.6660  146.3720 C   0  0  0  0  0  1  0  0  0  0  0  0
  194.3080  170.1950  144.1100 O   0  0  0  0  0  0  0  0  0  0  0  0
  195.8330  172.5880  144.2070 N   0  0  0  0  0  0  0  0  0  0  0  0
  194.8950  172.3130  143.1030 C   0  0  2  0  0  3  0  0  0  0  0  0
  195.4090  171.8930  145.4230 C   0  0  0  0  0  2  0  0  0  0  0  0
  1  9  1  0  0  0  0
  1 14  1  0  0  0  0
  2  5  1  6  0  0  0
  2  3  1  0  0  0  0
  3  7  1  6  0  0  0
  3 19  1  0  0  0  0
  4 11  1  6  0  0  0
  4 15  1  0  0  0  0
  5 14  2  0  0  0  0
  6  1  2  0  0  0  0
  7  4  1  0  0  0  0
  8 12  1  6  0  0  0
  8 13  1  0  0  0  0
 12 16  1  0  0  0  0
 13  2  1  0  0  0  0
 13 18  1  1  0  0  0
 16  5  1  0  0  0  0
 17  6  1  0  0  0  0
 17 16  2  0  0  0  0
 18 10  1  0  0  0  0
 19 10  1  6  0  0  0
 19 20  1  0  0  0  0
 20 15  1  0  0  0  0
 22 21  1  6  0  0  0
 23 21  1  6  0  0  0
 23  8  1  0  0  0  0
 23 22  1  0  0  0  0
 24 31  1  0  0  0  0
 24 27  1  1  0  0  0
 25 28  1  0  0  0  0
 28 24  1  0  0  0  0
 29 26  1  0  0  0  0
 29 31  1  0  0  0  0
 30 25  1  1  0  0  0
 30 22  1  0  0  0  0
 30 29  1  0  0  0  0
M  END
>  <MODEL>
8

>  <REMARK>
 VINA RESULT:      -7.1      3.052      5.446
  Name = 
  2 active torsions:
  status: ('A' for Active; 'I' for Inactive)
    1  A    between atoms: C_5  and  C_30
    2  A    between atoms: C_10  and  N_16
                            x       y       z     vdW  Elec       q    Type
                         _______ _______ _______ _____ _____    ______ ____

>  <TORSDO>
F 2

$$$$
=
 OpenBabel11112416513D

 31 36  0  0  1  0  0  0  0  0999 V2000
  186.1360  177.7090  143.9290 C   0  0  0  0  0  0  0  0  0  0  0  0
  189.9150  177.3610  144.0820 C   0  0  2  0  0  3  0  0  0  0  0  0
  190.2500  176.7750  145.4880 C   0  0  1  0  0  3  0  0  0  0  0  0
  189.5840  175.4670  147.5130 C   0  0  1  0  0  3  0  0  0  0  0  0
  188.4830  177.1610  143.6560 C   0  0  0  0  0  0  0  0  0  0  0  0
  185.7950  176.7200  143.0030 C   0  0  0  0  0  3  0  0  0  0  0  0
  189.2310  175.7850  146.0590 C   0  0  0  0  0  2  0  0  0  0  0  0
  190.5870  175.4630  142.5880 C   0  0  2  0  0  3  0  0  0  0  0  0
  185.1670  178.4530  144.5120 F   0  0  0  0  0  0  0  0  0  0  0  0
  192.6570  177.0430  144.8790 C   0  0  0  0  0  2  0  0  0  0  0  0
  188.6760  174.5400  148.0200 O   0  0  0  0  0  1  0  0  0  0  0  0
  189.1850  175.3800  141.9730 C   0  0  0  0  0  2  0  0  0  0  0  0
  190.8930  176.9190  142.9770 C   0  0  2  0  0  3  0  0  0  0  0  0
  187.4760  177.9280  144.2570 C   0  0  0  0  0  3  0  0  0  0  0  0
  191.0030  174.9030  147.6160 C   0  0  0  0  0  2  0  0  0  0  0  0
  188.1380  176.1570  142.7260 C   0  0  0  0  0  0  0  0  0  0  0  0
  186.7940  175.9520  142.3990 C   0  0  0  0  0  3  0  0  0  0  0  0
  192.3640  177.1560  143.3780 C   0  0  0  0  0  2  0  0  0  0  0  0
  191.6440  176.1400  145.5560 C   0  0  1  0  0  3  0  0  0  0  0  0
  192.0170  175.8710  147.0070 C   0  0  0  0  0  2  0  0  0  0  0  0
  191.1170  173.6600  141.3110 O   0  0  0  0  0  0  0  0  0  0  0  0
  192.1400  173.7430  142.1990 C   0  0  2  0  0  3  0  0  0  0  0  0
  191.5560  174.9370  141.6320 N   0  0  2  0  0  0  0  0  0  0  0  0
  194.3220  170.9900  142.6970 C   0  0  1  0  0  3  0  0  0  0  0  0
  193.2840  171.9320  140.9050 C   0  0  0  0  0  2  0  0  0  0  0  0
  194.7220  174.5850  142.9410 O   0  0  0  0  0  1  0  0  0  0  0  0
  194.2450  169.9130  143.7590 C   0  0  0  0  0  1  0  0  0  0  0  0
  193.1260  171.0020  141.9540 O   0  0  0  0  0  0  0  0  0  0  0  0
  194.6310  173.3780  142.3330 N   0  0  0  0  0  0  0  0  0  0  0  0
  193.4340  173.3500  141.4730 C   0  0  2  0  0  3  0  0  0  0  0  0
  194.5400  172.3490  143.3690 C   0  0  0  0  0  2  0  0  0  0  0  0
  1 14  1  0  0  0  0
  1  9  1  0  0  0  0
  2  5  1  6  0  0  0
  2  3  1  0  0  0  0
  3 19  1  0  0  0  0
  3  7  1  6  0  0  0
  4 15  1  0  0  0  0
  4 11  1  6  0  0  0
  5 14  2  0  0  0  0
  6  1  2  0  0  0  0
  7  4  1  0  0  0  0
  8 12  1  6  0  0  0
  8 13  1  0  0  0  0
 12 16  1  0  0  0  0
 13 18  1  1  0  0  0
 13  2  1  0  0  0  0
 16  5  1  0  0  0  0
 17 16  2  0  0  0  0
 17  6  1  0  0  0  0
 18 10  1  0  0  0  0
 19 10  1  1  0  0  0
 19 20  1  0  0  0  0
 20 15  1  0  0  0  0
 22 21  1  6  0  0  0
 23 21  1  6  0  0  0
 23 22  1  0  0  0  0
 23  8  1  0  0  0  0
 24 31  1  0  0  0  0
 24 27  1  1  0  0  0
 25 28  1  0  0  0  0
 28 24  1  0  0  0  0
 29 26  1  0  0  0  0
 29 31  1  0  0  0  0
 30 25  1  1  0  0  0
 30 22  1  0  0  0  0
 30 29  1  0  0  0  0
M  END
>  <MODEL>
9

>  <REMARK>
 VINA RESULT:      -7.1      2.895      4.977
  Name = 
  2 active torsions:
  status: ('A' for Active; 'I' for Inactive)
    1  A    between atoms: C_5  and  C_30
    2  A    between atoms: C_10  and  N_16
                            x       y       z     vdW  Elec       q    Type
                         _______ _______ _______ _____ _____    ______ ____

>  <TORSDO>
F 2

$$$$
