=
 OpenBabel11112418003D

 34 40  0  0  1  0  0  0  0  0999 V2000
  187.3790  176.0800  140.9410 C   0  0  0  0  0  0  0  0  0  0  0  0
  188.6460  174.6010  139.2440 C   0  0  0  0  0  2  0  0  0  0  0  0
  186.4700  178.6520  146.9250 C   0  0  2  0  0  3  0  0  0  0  0  0
  186.3100  177.4100  142.6770 C   0  0  0  0  0  0  0  0  0  0  0  0
  186.8580  176.9940  145.0180 C   0  0  0  0  0  0  0  0  0  0  0  0
  187.7960  176.6430  147.1880 O   0  0  0  0  0  1  0  0  0  0  0  0
  186.9550  178.9490  148.3370 C   0  0  0  0  0  1  0  0  0  0  0  0
  184.3170  178.5770  145.5570 C   0  0  0  0  0  2  0  0  0  0  0  0
  188.9040  174.3250  141.5830 C   0  0  0  0  0  0  0  0  0  0  0  0
  191.1980  172.3920  142.8080 C   0  0  0  0  0  2  0  0  0  0  0  0
  187.6800  175.9850  144.6110 N   0  0  0  0  0  0  0  0  0  0  0  0
  185.2090  178.8740  144.3660 C   0  0  0  0  0  2  0  0  0  0  0  0
  188.7420  174.6070  142.9540 C   0  0  0  0  0  0  0  0  0  0  0  0
  189.7710  173.5860  139.4840 C   0  0  0  0  0  2  0  0  0  0  0  0
  186.1220  177.7210  144.0370 C   0  0  0  0  0  0  0  0  0  0  0  0
  184.9880  179.0220  146.8520 C   0  0  0  0  0  2  0  0  0  0  0  0
  191.0650  173.2390  141.6270 N   0  0  0  0  0  0  0  0  0  0  0  0
  187.1800  176.3790  142.3040 C   0  0  0  0  0  0  0  0  0  0  0  0
  186.6940  177.1860  146.5170 C   0  0  1  0  0  3  0  0  0  0  0  0
  187.8670  175.6560  143.3070 C   0  0  0  0  0  0  0  0  0  0  0  0
  185.7540  177.9190  140.3910 C   0  0  0  0  0  3  0  0  0  0  0  0
  189.9670  172.4930  143.7210 C   0  0  0  0  0  2  0  0  0  0  0  0
  185.6070  178.1460  141.6620 N   0  0  0  0  0  0  0  0  0  0  0  0
  189.5870  173.9440  144.0230 C   0  0  0  0  0  2  0  0  0  0  0  0
  189.7470  173.2690  140.9840 C   0  0  1  0  0  3  0  0  0  0  0  0
  186.6880  176.8660  139.8580 C   0  0  0  0  0  2  0  0  0  0  0  0
  188.2590  175.0460  140.6100 C   0  0  0  0  0  0  0  0  0  0  0  0
  192.0870  174.2310  141.4370 C   0  0  0  0  0  3  0  0  0  0  0  0
  192.5090  175.0350  142.4090 C   0  0  0  0  0  3  0  0  0  0  0  0
  195.8550  175.5610  142.6390 C   0  0  0  0  0  2  0  0  0  0  0  0
  194.4020  175.6430  140.9530 C   0  0  0  0  0  2  0  0  0  0  0  0
  193.5830  176.0380  142.1630 C   0  0  2  0  0  3  0  0  0  0  0  0
  195.7600  175.8070  141.2620 O   0  0  0  0  0  0  0  0  0  0  0  0
  194.5680  176.0080  143.2920 C   0  0  0  0  0  2  0  0  0  0  0  0
  1 18  1  0  0  0  0
  2 14  1  0  0  0  0
  2 27  1  0  0  0  0
  3  7  1  1  0  0  0
  4 15  1  0  0  0  0
  5 19  1  0  0  0  0
  8 16  1  0  0  0  0
  9 13  2  0  0  0  0
 10 22  1  0  0  0  0
 11  5  1  0  0  0  0
 12  8  1  0  0  0  0
 13 20  1  0  0  0  0
 13 24  1  0  0  0  0
 15 12  1  0  0  0  0
 15  5  2  0  0  0  0
 16  3  1  0  0  0  0
 17 10  1  0  0  0  0
 18  4  2  0  0  0  0
 18 20  1  0  0  0  0
 19  3  1  0  0  0  0
 19  6  1  1  0  0  0
 20 11  2  0  0  0  0
 21 23  2  0  0  0  0
 22 24  1  0  0  0  0
 23  4  1  0  0  0  0
 25 14  1  6  0  0  0
 25  9  1  0  0  0  0
 25 17  1  0  0  0  0
 26 21  1  0  0  0  0
 26  1  1  0  0  0  0
 27  1  2  0  0  0  0
 27  9  1  0  0  0  0
 28 17  1  0  0  0  0
 28 29  2  0  0  0  0
 30 34  1  0  0  0  0
 31 33  1  0  0  0  0
 31 32  1  0  0  0  0
 32 29  1  1  0  0  0
 32 34  1  0  0  0  0
 33 30  1  0  0  0  0
M  END
>  <MODEL>
1

>  <REMARK>
 VINA RESULT:      -8.4      0.000      0.000
  Name = 
  2 active torsions:
  status: ('A' for Active; 'I' for Inactive)
    1  A    between atoms: N_17  and  C_28
    2  A    between atoms: C_29  and  C_32
                            x       y       z     vdW  Elec       q    Type
                         _______ _______ _______ _____ _____    ______ ____

>  <TORSDO>
F 2

$$$$
=
 OpenBabel11112418003D

 34 40  0  0  1  0  0  0  0  0999 V2000
  188.6040  176.3990  146.6340 C   0  0  0  0  0  0  0  0  0  0  0  0
  190.7870  175.5420  147.7160 C   0  0  0  0  0  2  0  0  0  0  0  0
  184.8210  177.8550  141.4540 C   0  0  2  0  0  3  0  0  0  0  0  0
  186.6330  177.1830  145.4390 C   0  0  0  0  0  0  0  0  0  0  0  0
  186.8020  177.7240  143.0660 C   0  0  0  0  0  0  0  0  0  0  0  0
  187.1230  177.8610  140.7010 O   0  0  0  0  0  1  0  0  0  0  0  0
  184.5160  177.7870  139.9640 C   0  0  0  0  0  1  0  0  0  0  0  0
  184.1690  179.1710  143.5410 C   0  0  0  0  0  2  0  0  0  0  0  0
  190.7030  176.2470  145.4550 C   0  0  0  0  0  0  0  0  0  0  0  0
  193.1950  175.7540  143.4440 C   0  0  0  0  0  2  0  0  0  0  0  0
  188.1300  177.4220  143.1270 N   0  0  0  0  0  0  0  0  0  0  0  0
  184.5400  177.9120  144.3010 C   0  0  0  0  0  2  0  0  0  0  0  0
  190.1250  176.6930  144.2500 C   0  0  0  0  0  0  0  0  0  0  0  0
  192.1360  175.2140  147.0630 C   0  0  0  0  0  2  0  0  0  0  0  0
  186.0200  177.6330  144.2540 C   0  0  0  0  0  0  0  0  0  0  0  0
  183.8420  178.8420  142.0880 C   0  0  0  0  0  2  0  0  0  0  0  0
  192.6200  175.0540  144.5870 N   0  0  0  0  0  0  0  0  0  0  0  0
  187.9960  176.8650  145.4500 C   0  0  2  0  0  3  0  0  0  0  0  0
  186.2770  178.2590  141.7440 C   0  0  1  0  0  3  0  0  0  0  0  0
  188.7480  177.0000  144.2600 C   0  0  0  0  0  0  0  0  0  0  0  0
  186.3690  176.6230  147.7650 C   0  0  0  0  0  3  0  0  0  0  0  0
  192.3770  176.9990  143.0700 C   0  0  0  0  0  2  0  0  0  0  0  0
  185.8650  177.0520  146.6470 N   0  0  0  0  0  0  0  0  0  0  0  0
  190.8840  176.6930  142.9380 C   0  0  0  0  0  2  0  0  0  0  0  0
  192.1180  175.8870  145.6850 C   0  0  1  0  0  3  0  0  0  0  0  0
  187.8100  176.2110  147.9000 C   0  0  0  0  0  3  0  0  0  0  0  0
  189.9660  176.0880  146.6020 C   0  0  0  0  0  0  0  0  0  0  0  0
  192.2550  173.6800  144.3750 C   0  0  0  0  0  3  0  0  0  0  0  0
  190.9940  173.2600  144.3420 C   0  0  0  0  0  3  0  0  0  0  0  0
  190.5060  170.9420  141.9100 C   0  0  0  0  0  2  0  0  0  0  0  0
  191.9010  171.0780  143.6420 C   0  0  0  0  0  2  0  0  0  0  0  0
  190.6680  171.8260  144.1040 C   0  0  2  0  0  3  0  0  0  0  0  0
  191.5460  170.2600  142.5590 O   0  0  0  0  0  0  0  0  0  0  0  0
  189.7210  171.7100  142.9470 C   0  0  0  0  0  2  0  0  0  0  0  0
  1 26  2  0  0  0  0
  3  7  1  6  0  0  0
  3 19  1  0  0  0  0
  3 16  1  0  0  0  0
  4 18  1  0  0  0  0
  4 23  1  0  0  0  0
  5 11  2  0  0  0  0
  5 15  1  0  0  0  0
  8 12  1  0  0  0  0
  9 25  1  0  0  0  0
  9 27  2  0  0  0  0
 10 17  1  0  0  0  0
 11 20  1  0  0  0  0
 13 20  2  0  0  0  0
 13  9  1  0  0  0  0
 14  2  1  0  0  0  0
 15 12  1  0  0  0  0
 15  4  2  0  0  0  0
 16  8  1  0  0  0  0
 17 25  1  0  0  0  0
 18 20  1  6  0  0  0
 18  1  1  0  0  0  0
 19  6  1  6  0  0  0
 19  5  1  0  0  0  0
 21 26  1  0  0  0  0
 22 10  1  0  0  0  0
 23 21  2  0  0  0  0
 24 22  1  0  0  0  0
 24 13  1  0  0  0  0
 25 14  1  1  0  0  0
 27  1  1  0  0  0  0
 27  2  1  0  0  0  0
 28 17  1  0  0  0  0
 29 28  2  0  0  0  0
 30 33  1  0  0  0  0
 30 34  1  0  0  0  0
 31 32  1  0  0  0  0
 32 29  1  6  0  0  0
 33 31  1  0  0  0  0
 34 32  1  0  0  0  0
M  END
>  <MODEL>
2

>  <REMARK>
 VINA RESULT:      -7.9      2.846      5.320
  Name = 
  2 active torsions:
  status: ('A' for Active; 'I' for Inactive)
    1  A    between atoms: N_17  and  C_28
    2  A    between atoms: C_29  and  C_32
                            x       y       z     vdW  Elec       q    Type
                         _______ _______ _______ _____ _____    ______ ____

>  <TORSDO>
F 2

$$$$
=
 OpenBabel11112418003D

 34 40  0  0  1  0  0  0  0  0999 V2000
  192.8950  175.6950  144.5760 C   0  0  0  0  0  0  0  0  0  0  0  0
  190.6530  175.5490  145.8500 C   0  0  0  0  0  2  0  0  0  0  0  0
  196.5570  175.3800  139.1220 C   0  0  2  0  0  3  0  0  0  0  0  0
  194.9110  175.7800  143.2140 C   0  0  0  0  0  0  0  0  0  0  0  0
  194.8910  174.8090  140.9760 C   0  0  0  0  0  0  0  0  0  0  0  0
  194.5360  174.1090  138.7180 O   0  0  0  0  0  1  0  0  0  0  0  0
  196.6920  175.3200  137.6070 C   0  0  0  0  0  1  0  0  0  0  0  0
  197.9180  174.9530  141.2380 C   0  0  0  0  0  2  0  0  0  0  0  0
  190.9410  174.5830  143.7050 C   0  0  0  0  0  0  0  0  0  0  0  0
  188.4230  173.4170  142.0310 C   0  0  0  0  0  2  0  0  0  0  0  0
  193.6010  174.4250  141.1910 N   0  0  0  0  0  0  0  0  0  0  0  0
  197.0080  175.9810  141.8830 C   0  0  0  0  0  2  0  0  0  0  0  0
  191.5880  174.2690  142.4930 C   0  0  0  0  0  0  0  0  0  0  0  0
  189.2860  175.0480  145.3640 C   0  0  0  0  0  2  0  0  0  0  0  0
  195.5920  175.4840  142.0180 C   0  0  0  0  0  0  0  0  0  0  0  0
  197.9410  175.1330  139.7250 C   0  0  0  0  0  2  0  0  0  0  0  0
  188.6330  174.5020  142.9840 N   0  0  0  0  0  0  0  0  0  0  0  0
  193.5800  175.3840  143.3830 C   0  0  2  0  0  3  0  0  0  0  0  0
  195.5310  174.3730  139.6680 C   0  0  1  0  0  3  0  0  0  0  0  0
  192.9270  174.6850  142.3410 C   0  0  0  0  0  0  0  0  0  0  0  0
  195.0000  176.8050  145.3900 C   0  0  0  0  0  3  0  0  0  0  0  0
  189.7340  172.6900  141.7000 C   0  0  0  0  0  2  0  0  0  0  0  0
  195.5810  176.4860  144.2720 N   0  0  0  0  0  0  0  0  0  0  0  0
  190.8530  173.6610  141.3150 C   0  0  0  0  0  2  0  0  0  0  0  0
  189.5570  174.2360  144.0920 C   0  0  1  0  0  3  0  0  0  0  0  0
  193.5620  176.4730  145.6800 C   0  0  0  0  0  3  0  0  0  0  0  0
  191.5650  175.2860  144.7040 C   0  0  0  0  0  0  0  0  0  0  0  0
  188.2350  175.8140  142.5520 C   0  0  0  0  0  3  0  0  0  0  0  0
  187.9250  176.1010  141.2910 C   0  0  0  0  0  3  0  0  0  0  0  0
  185.2350  177.9950  140.4550 C   0  0  0  0  0  2  0  0  0  0  0  0
  186.7860  178.1520  142.0460 C   0  0  0  0  0  2  0  0  0  0  0  0
  187.5050  177.4750  140.8980 C   0  0  2  0  0  3  0  0  0  0  0  0
  185.6390  178.7830  141.5430 O   0  0  0  0  0  0  0  0  0  0  0  0
  186.4670  177.3950  139.8200 C   0  0  0  0  0  2  0  0  0  0  0  0
  1 27  1  0  0  0  0
  1 26  2  0  0  0  0
  3  7  1  6  0  0  0
  3 19  1  0  0  0  0
  3 16  1  0  0  0  0
  4 18  1  0  0  0  0
  4 23  1  0  0  0  0
  5 11  2  0  0  0  0
  5 15  1  0  0  0  0
  8 12  1  0  0  0  0
  9 25  1  0  0  0  0
  9 27  2  0  0  0  0
 10 17  1  0  0  0  0
 11 20  1  0  0  0  0
 12 15  1  0  0  0  0
 13  9  1  0  0  0  0
 14  2  1  0  0  0  0
 15  4  2  0  0  0  0
 16  8  1  0  0  0  0
 17 25  1  0  0  0  0
 18 20  1  6  0  0  0
 18  1  1  0  0  0  0
 19  6  1  6  0  0  0
 19  5  1  0  0  0  0
 20 13  2  0  0  0  0
 21 26  1  0  0  0  0
 22 10  1  0  0  0  0
 23 21  2  0  0  0  0
 24 22  1  0  0  0  0
 24 13  1  0  0  0  0
 25 14  1  1  0  0  0
 27  2  1  0  0  0  0
 28 17  1  0  0  0  0
 29 28  2  0  0  0  0
 30 33  1  0  0  0  0
 32 29  1  1  0  0  0
 32 31  1  0  0  0  0
 33 31  1  0  0  0  0
 34 30  1  0  0  0  0
 34 32  1  0  0  0  0
M  END
>  <MODEL>
3

>  <REMARK>
 VINA RESULT:      -7.7      2.750      8.778
  Name = 
  2 active torsions:
  status: ('A' for Active; 'I' for Inactive)
    1  A    between atoms: N_17  and  C_28
    2  A    between atoms: C_29  and  C_32
                            x       y       z     vdW  Elec       q    Type
                         _______ _______ _______ _____ _____    ______ ____

>  <TORSDO>
F 2

$$$$
=
 OpenBabel11112418003D

 34 40  0  0  1  0  0  0  0  0999 V2000
  190.2850  175.4400  146.1770 C   0  0  0  0  0  0  0  0  0  0  0  0
  192.5680  174.3910  146.7760 C   0  0  0  0  0  2  0  0  0  0  0  0
  185.8870  177.8420  141.9160 C   0  0  2  0  0  3  0  0  0  0  0  0
  188.1940  176.4360  145.4260 C   0  0  0  0  0  0  0  0  0  0  0  0
  188.0610  177.4090  143.1920 C   0  0  0  0  0  0  0  0  0  0  0  0
  188.0680  177.9830  140.8720 O   0  0  0  0  0  1  0  0  0  0  0  0
  185.3840  178.0530  140.4950 C   0  0  0  0  0  1  0  0  0  0  0  0
  185.5550  178.7480  144.2780 C   0  0  0  0  0  2  0  0  0  0  0  0
  192.2030  175.5040  144.7160 C   0  0  0  0  0  0  0  0  0  0  0  0
  194.3910  175.3900  142.3290 C   0  0  0  0  0  2  0  0  0  0  0  0
  189.3760  177.0980  143.0150 N   0  0  0  0  0  0  0  0  0  0  0  0
  185.9890  177.3690  144.7370 C   0  0  0  0  0  2  0  0  0  0  0  0
  191.4820  176.1680  143.7030 C   0  0  0  0  0  0  0  0  0  0  0  0
  193.8090  174.1880  145.8960 C   0  0  0  0  0  2  0  0  0  0  0  0
  187.4420  177.1010  144.4390 C   0  0  0  0  0  0  0  0  0  0  0  0
  185.0280  178.6960  142.8490 C   0  0  0  0  0  2  0  0  0  0  0  0
  193.9540  174.4900  143.3910 N   0  0  0  0  0  0  0  0  0  0  0  0
  189.5370  176.1190  145.1930 C   0  0  2  0  0  3  0  0  0  0  0  0
  187.3790  178.1820  142.0750 C   0  0  1  0  0  3  0  0  0  0  0  0
  190.1280  176.4710  143.9560 C   0  0  0  0  0  0  0  0  0  0  0  0
  188.2280  175.4540  147.6230 C   0  0  0  0  0  3  0  0  0  0  0  0
  193.5650  176.6840  142.3050 C   0  0  0  0  0  2  0  0  0  0  0  0
  187.5910  176.0840  146.6820 N   0  0  0  0  0  0  0  0  0  0  0  0
  192.0600  176.4110  142.3230 C   0  0  0  0  0  2  0  0  0  0  0  0
  193.6260  175.1050  144.6820 C   0  0  1  0  0  3  0  0  0  0  0  0
  189.6610  175.0210  147.4820 C   0  0  0  0  0  3  0  0  0  0  0  0
  191.6220  175.1370  145.9030 C   0  0  0  0  0  0  0  0  0  0  0  0
  193.5270  173.1810  142.9810 C   0  0  0  0  0  3  0  0  0  0  0  0
  192.9280  172.9430  141.8170 C   0  0  0  0  0  3  0  0  0  0  0  0
  190.3930  170.6960  142.0270 C   0  0  0  0  0  2  0  0  0  0  0  0
  191.4910  171.6130  140.3200 C   0  0  0  0  0  2  0  0  0  0  0  0
  192.5170  171.5640  141.4330 C   0  0  2  0  0  3  0  0  0  0  0  0
  190.4590  170.7150  140.6260 O   0  0  0  0  0  0  0  0  0  0  0  0
  191.7840  170.9220  142.5720 C   0  0  0  0  0  2  0  0  0  0  0  0
  1 26  2  0  0  0  0
  3  7  1  6  0  0  0
  3 19  1  0  0  0  0
  3 16  1  0  0  0  0
  4 23  1  0  0  0  0
  5 15  1  0  0  0  0
  8 12  1  0  0  0  0
  9 27  2  0  0  0  0
 10 17  1  0  0  0  0
 11  5  2  0  0  0  0
 11 20  1  0  0  0  0
 13 20  2  0  0  0  0
 13  9  1  0  0  0  0
 14  2  1  0  0  0  0
 15 12  1  0  0  0  0
 15  4  2  0  0  0  0
 16  8  1  0  0  0  0
 17 25  1  0  0  0  0
 18 20  1  6  0  0  0
 18  4  1  0  0  0  0
 18  1  1  0  0  0  0
 19  6  1  6  0  0  0
 19  5  1  0  0  0  0
 22 24  1  0  0  0  0
 22 10  1  0  0  0  0
 23 21  2  0  0  0  0
 24 13  1  0  0  0  0
 25  9  1  0  0  0  0
 25 14  1  1  0  0  0
 26 21  1  0  0  0  0
 27  1  1  0  0  0  0
 27  2  1  0  0  0  0
 28 17  1  0  0  0  0
 29 28  2  0  0  0  0
 30 34  1  0  0  0  0
 31 33  1  0  0  0  0
 31 32  1  0  0  0  0
 32 29  1  1  0  0  0
 32 34  1  0  0  0  0
 33 30  1  0  0  0  0
M  END
>  <MODEL>
4

>  <REMARK>
 VINA RESULT:      -7.7      2.824      5.260
  Name = 
  2 active torsions:
  status: ('A' for Active; 'I' for Inactive)
    1  A    between atoms: N_17  and  C_28
    2  A    between atoms: C_29  and  C_32
                            x       y       z     vdW  Elec       q    Type
                         _______ _______ _______ _____ _____    ______ ____

>  <TORSDO>
F 2

$$$$
=
 OpenBabel11112418003D

 34 40  0  0  1  0  0  0  0  0999 V2000
  188.9340  174.3740  140.8200 C   0  0  0  0  0  0  0  0  0  0  0  0
  187.7850  176.6870  140.8810 C   0  0  0  0  0  2  0  0  0  0  0  0
  192.5730  169.5770  143.4670 C   0  0  2  0  0  3  0  0  0  0  0  0
  190.0910  172.2360  140.9390 C   0  0  0  0  0  0  0  0  0  0  0  0
  191.7670  171.8710  142.6740 C   0  0  0  0  0  0  0  0  0  0  0  0
  193.1020  171.6270  144.6420 O   0  0  0  0  0  1  0  0  0  0  0  0
  193.2490  168.9210  144.6620 C   0  0  0  0  0  1  0  0  0  0  0  0
  192.6080  169.5360  140.9150 C   0  0  0  0  0  2  0  0  0  0  0  0
  189.5300  176.1150  142.3790 C   0  0  0  0  0  0  0  0  0  0  0  0
  190.2800  178.0150  144.8950 C   0  0  0  0  0  2  0  0  0  0  0  0
  191.5600  173.1500  143.0950 N   0  0  0  0  0  0  0  0  0  0  0  0
  191.1640  169.9880  141.0100 C   0  0  0  0  0  2  0  0  0  0  0  0
  190.4880  175.2990  143.0130 C   0  0  0  0  0  0  0  0  0  0  0  0
  187.9180  177.8150  141.9130 C   0  0  0  0  0  2  0  0  0  0  0  0
  191.0400  171.3910  141.5460 C   0  0  0  0  0  0  0  0  0  0  0  0
  193.0400  168.8490  142.2060 C   0  0  0  0  0  2  0  0  0  0  0  0
  189.0630  177.6820  144.1630 N   0  0  0  0  0  0  0  0  0  0  0  0
  189.8960  173.5360  141.4190 C   0  0  0  0  0  0  0  0  0  0  0  0
  192.8640  171.0840  143.3730 C   0  0  1  0  0  3  0  0  0  0  0  0
  190.6620  173.9900  142.5190 C   0  0  0  0  0  0  0  0  0  0  0  0
  188.4150  172.4960  139.2310 C   0  0  0  0  0  3  0  0  0  0  0  0
  191.4890  177.2210  144.3790 C   0  0  0  0  0  2  0  0  0  0  0  0
  189.3190  171.7710  139.8190 N   0  0  0  0  0  0  0  0  0  0  0  0
  191.1990  175.7220  144.2830 C   0  0  0  0  0  2  0  0  0  0  0  0
  189.1930  177.5160  142.7110 C   0  0  1  0  0  3  0  0  0  0  0  0
  188.0830  173.8940  139.6740 C   0  0  0  0  0  2  0  0  0  0  0  0
  188.7680  175.6650  141.3310 C   0  0  0  0  0  0  0  0  0  0  0  0
  187.9660  177.1800  144.9450 C   0  0  0  0  0  3  0  0  0  0  0  0
  187.7220  177.5760  146.1900 C   0  0  0  0  0  3  0  0  0  0  0  0
  184.6480  178.3620  147.3990 C   0  0  0  0  0  2  0  0  0  0  0  0
  185.3960  176.7780  146.0230 C   0  0  0  0  0  2  0  0  0  0  0  0
  186.5620  177.0360  146.9540 C   0  0  2  0  0  3  0  0  0  0  0  0
  184.2290  177.2700  146.6240 O   0  0  0  0  0  0  0  0  0  0  0  0
  186.0480  178.0820  147.8950 C   0  0  0  0  0  2  0  0  0  0  0  0
  1 27  2  0  0  0  0
  1 18  1  0  0  0  0
  2 27  1  0  0  0  0
  2 14  1  0  0  0  0
  3  7  1  1  0  0  0
  4 18  2  0  0  0  0
  4 15  1  0  0  0  0
  5 11  1  0  0  0  0
  5 19  1  0  0  0  0
  8 12  1  0  0  0  0
  8 16  1  0  0  0  0
  9 25  1  0  0  0  0
  9 13  2  0  0  0  0
 12 15  1  0  0  0  0
 13 24  1  0  0  0  0
 15  5  2  0  0  0  0
 16  3  1  0  0  0  0
 17 10  1  0  0  0  0
 17 28  1  0  0  0  0
 18 20  1  0  0  0  0
 19  3  1  0  0  0  0
 19  6  1  1  0  0  0
 20 13  1  0  0  0  0
 20 11  2  0  0  0  0
 21 26  1  0  0  0  0
 21 23  2  0  0  0  0
 22 10  1  0  0  0  0
 23  4  1  0  0  0  0
 24 22  1  0  0  0  0
 25 14  1  6  0  0  0
 25 17  1  0  0  0  0
 26  1  1  0  0  0  0
 27  9  1  0  0  0  0
 28 29  2  0  0  0  0
 30 34  1  0  0  0  0
 31 33  1  0  0  0  0
 31 32  1  0  0  0  0
 32 29  1  6  0  0  0
 32 34  1  0  0  0  0
 33 30  1  0  0  0  0
M  END
>  <MODEL>
5

>  <REMARK>
 VINA RESULT:      -7.5      2.458      7.854
  Name = 
  2 active torsions:
  status: ('A' for Active; 'I' for Inactive)
    1  A    between atoms: N_17  and  C_28
    2  A    between atoms: C_29  and  C_32
                            x       y       z     vdW  Elec       q    Type
                         _______ _______ _______ _____ _____    ______ ____

>  <TORSDO>
F 2

$$$$
=
 OpenBabel11112418003D

 34 40  0  0  1  0  0  0  0  0999 V2000
  190.4800  172.7710  142.4230 C   0  0  0  0  0  0  0  0  0  0  0  0
  188.2240  173.7750  141.6670 C   0  0  0  0  0  2  0  0  0  0  0  0
  196.1920  173.0060  145.6760 C   0  0  2  0  0  3  0  0  0  0  0  0
  192.6440  171.9950  143.2250 C   0  0  0  0  0  0  0  0  0  0  0  0
  194.2310  173.6030  144.1480 C   0  0  0  0  0  0  0  0  0  0  0  0
  195.4670  175.2870  145.3100 O   0  0  0  0  0  1  0  0  0  0  0  0
  197.1200  173.6480  146.6980 C   0  0  0  0  0  1  0  0  0  0  0  0
  196.2480  171.3660  143.7210 C   0  0  0  0  0  2  0  0  0  0  0  0
  189.9850  175.1300  142.4910 C   0  0  0  0  0  0  0  0  0  0  0  0
  189.5250  178.2680  143.1560 C   0  0  0  0  0  2  0  0  0  0  0  0
  193.3350  174.5930  143.8730 N   0  0  0  0  0  0  0  0  0  0  0  0
  194.8010  171.0830  144.0770 C   0  0  0  0  0  2  0  0  0  0  0  0
  191.2350  175.4360  143.0640 C   0  0  0  0  0  0  0  0  0  0  0  0
  187.6940  175.2070  141.8180 C   0  0  0  0  0  2  0  0  0  0  0  0
  193.9040  172.2610  143.7950 C   0  0  0  0  0  0  0  0  0  0  0  0
  196.9910  171.9430  144.9210 C   0  0  0  0  0  2  0  0  0  0  0  0
  188.7110  177.0580  143.2070 N   0  0  0  0  0  0  0  0  0  0  0  0
  191.7470  173.0410  142.9800 C   0  0  0  0  0  0  0  0  0  0  0  0
  195.5790  174.0290  144.7050 C   0  0  1  0  0  3  0  0  0  0  0  0
  192.1200  174.3650  143.3110 C   0  0  0  0  0  0  0  0  0  0  0  0
  191.1180  170.3380  142.3770 C   0  0  0  0  0  3  0  0  0  0  0  0
  190.9710  177.9620  142.7410 C   0  0  0  0  0  2  0  0  0  0  0  0
  192.2720  170.6490  142.8870 N   0  0  0  0  0  0  0  0  0  0  0  0
  191.5810  176.8250  143.5620 C   0  0  0  0  0  2  0  0  0  0  0  0
  188.9130  176.0830  142.1300 C   0  0  1  0  0  3  0  0  0  0  0  0
  190.0510  171.3630  142.1020 C   0  0  0  0  0  2  0  0  0  0  0  0
  189.6120  173.8430  142.1970 C   0  0  0  0  0  0  0  0  0  0  0  0
  188.0890  176.7610  144.4680 C   0  0  0  0  0  3  0  0  0  0  0  0
  186.8680  177.1760  144.7920 C   0  0  0  0  0  3  0  0  0  0  0  0
  186.2240  178.3800  147.8990 C   0  0  0  0  0  2  0  0  0  0  0  0
  184.9400  177.5440  146.2830 C   0  0  0  0  0  2  0  0  0  0  0  0
  186.2630  176.8290  146.1080 C   0  0  2  0  0  3  0  0  0  0  0  0
  184.8920  178.0820  147.5770 O   0  0  0  0  0  0  0  0  0  0  0  0
  187.1170  177.3730  147.2130 C   0  0  0  0  0  2  0  0  0  0  0  0
  1 18  1  0  0  0  0
  2 14  1  0  0  0  0
  2 27  1  0  0  0  0
  3  7  1  1  0  0  0
  4 15  1  0  0  0  0
  5 19  1  0  0  0  0
  8 12  1  0  0  0  0
  8 16  1  0  0  0  0
  9 13  2  0  0  0  0
 10 17  1  0  0  0  0
 11  5  1  0  0  0  0
 13 20  1  0  0  0  0
 13 24  1  0  0  0  0
 15 12  1  0  0  0  0
 15  5  2  0  0  0  0
 16  3  1  0  0  0  0
 17 28  1  0  0  0  0
 18  4  2  0  0  0  0
 18 20  1  0  0  0  0
 19  6  1  1  0  0  0
 19  3  1  0  0  0  0
 20 11  2  0  0  0  0
 21 23  2  0  0  0  0
 22 10  1  0  0  0  0
 22 24  1  0  0  0  0
 23  4  1  0  0  0  0
 25 14  1  1  0  0  0
 25  9  1  0  0  0  0
 25 17  1  0  0  0  0
 26 21  1  0  0  0  0
 26  1  1  0  0  0  0
 27  1  2  0  0  0  0
 27  9  1  0  0  0  0
 28 29  2  0  0  0  0
 31 33  1  0  0  0  0
 32 29  1  6  0  0  0
 32 31  1  0  0  0  0
 32 34  1  0  0  0  0
 33 30  1  0  0  0  0
 34 30  1  0  0  0  0
M  END
>  <MODEL>
6

>  <REMARK>
 VINA RESULT:      -7.5      2.558      8.261
  Name = 
  2 active torsions:
  status: ('A' for Active; 'I' for Inactive)
    1  A    between atoms: N_17  and  C_28
    2  A    between atoms: C_29  and  C_32
                            x       y       z     vdW  Elec       q    Type
                         _______ _______ _______ _____ _____    ______ ____

>  <TORSDO>
F 2

$$$$
=
 OpenBabel11112418003D

 34 40  0  0  1  0  0  0  0  0999 V2000
  187.6090  175.7870  140.1130 C   0  0  0  0  0  0  0  0  0  0  0  0
  187.8960  174.6390  137.8180 C   0  0  0  0  0  2  0  0  0  0  0  0
  189.4250  176.9970  146.3180 C   0  0  2  0  0  3  0  0  0  0  0  0
  187.4930  176.7660  142.3390 C   0  0  0  0  0  0  0  0  0  0  0  0
  188.8020  175.7890  144.1510 C   0  0  0  0  0  0  0  0  0  0  0  0
  190.4150  174.8850  145.6670 O   0  0  0  0  0  1  0  0  0  0  0  0
  190.4430  176.9280  147.4470 C   0  0  0  0  0  1  0  0  0  0  0  0
  186.9340  177.3990  145.9330 C   0  0  0  0  0  2  0  0  0  0  0  0
  188.9630  173.8200  139.7690 C   0  0  0  0  0  0  0  0  0  0  0  0
  191.2100  171.4910  139.6100 C   0  0  0  0  0  2  0  0  0  0  0  0
  189.2410  174.8390  143.2770 N   0  0  0  0  0  0  0  0  0  0  0  0
  187.3510  177.8880  144.5590 C   0  0  0  0  0  2  0  0  0  0  0  0
  189.3730  173.7960  141.1170 C   0  0  0  0  0  0  0  0  0  0  0  0
  188.8530  173.5120  137.4030 C   0  0  0  0  0  2  0  0  0  0  0  0
  187.8790  176.7740  143.6930 C   0  0  0  0  0  0  0  0  0  0  0  0
  188.1020  177.4850  146.9090 C   0  0  0  0  0  2  0  0  0  0  0  0
  190.7810  172.5910  138.7530 N   0  0  0  0  0  0  0  0  0  0  0  0
  187.9850  175.7830  141.4720 C   0  0  0  0  0  0  0  0  0  0  0  0
  189.2430  175.6490  145.5990 C   0  0  1  0  0  3  0  0  0  0  0  0
  188.8720  174.8010  141.9710 C   0  0  0  0  0  0  0  0  0  0  0  0
  186.2110  177.8200  140.5960 C   0  0  0  0  0  3  0  0  0  0  0  0
  190.4420  171.4760  140.9400 C   0  0  0  0  0  2  0  0  0  0  0  0
  186.5880  177.7640  141.8380 N   0  0  0  0  0  0  0  0  0  0  0  0
  190.4390  172.8450  141.6230 C   0  0  0  0  0  2  0  0  0  0  0  0
  189.3410  172.8660  138.7050 C   0  0  1  0  0  3  0  0  0  0  0  0
  186.6970  176.8480  139.5560 C   0  0  0  0  0  3  0  0  0  0  0  0
  188.1250  174.7900  139.2800 C   0  0  1  0  0  3  0  0  0  0  0  0
  191.8020  173.5190  138.3510 C   0  0  0  0  0  3  0  0  0  0  0  0
  192.8440  173.8300  139.1160 C   0  0  0  0  0  3  0  0  0  0  0  0
  196.0170  174.9020  139.6720 C   0  0  0  0  0  2  0  0  0  0  0  0
  194.9730  174.0540  137.8960 C   0  0  0  0  0  2  0  0  0  0  0  0
  193.8830  174.7890  138.6460 C   0  0  2  0  0  3  0  0  0  0  0  0
  196.2160  174.5350  138.3330 O   0  0  0  0  0  0  0  0  0  0  0  0
  194.5920  175.3800  139.8270 C   0  0  0  0  0  2  0  0  0  0  0  0
  1 18  1  0  0  0  0
  3 16  1  0  0  0  0
  3  7  1  1  0  0  0
  4 15  2  0  0  0  0
  5 19  1  0  0  0  0
  8 16  1  0  0  0  0
  9 13  2  0  0  0  0
 10 22  1  0  0  0  0
 11  5  2  0  0  0  0
 12  8  1  0  0  0  0
 13 24  1  0  0  0  0
 13 20  1  0  0  0  0
 14  2  1  0  0  0  0
 15  5  1  0  0  0  0
 15 12  1  0  0  0  0
 17 10  1  0  0  0  0
 18 20  2  0  0  0  0
 18  4  1  0  0  0  0
 19  6  1  6  0  0  0
 19  3  1  0  0  0  0
 20 11  1  0  0  0  0
 21 23  2  0  0  0  0
 22 24  1  0  0  0  0
 23  4  1  0  0  0  0
 25 14  1  6  0  0  0
 25 17  1  0  0  0  0
 25  9  1  0  0  0  0
 26  1  2  0  0  0  0
 26 21  1  0  0  0  0
 27  2  1  6  0  0  0
 27  9  1  0  0  0  0
 27  1  1  0  0  0  0
 28 17  1  0  0  0  0
 28 29  2  0  0  0  0
 30 34  1  0  0  0  0
 31 33  1  0  0  0  0
 31 32  1  0  0  0  0
 32 29  1  1  0  0  0
 32 34  1  0  0  0  0
 33 30  1  0  0  0  0
M  END
>  <MODEL>
7

>  <REMARK>
 VINA RESULT:      -7.4      1.991      2.670
  Name = 
  2 active torsions:
  status: ('A' for Active; 'I' for Inactive)
    1  A    between atoms: N_17  and  C_28
    2  A    between atoms: C_29  and  C_32
                            x       y       z     vdW  Elec       q    Type
                         _______ _______ _______ _____ _____    ______ ____

>  <TORSDO>
F 2

$$$$
=
 OpenBabel11112418003D

 34 40  0  0  1  0  0  0  0  0999 V2000
  191.3780  175.8080  144.5440 C   0  0  0  0  0  0  0  0  0  0  0  0
  193.0330  176.7830  146.2700 C   0  0  0  0  0  2  0  0  0  0  0  0
  189.8730  172.0830  139.3350 C   0  0  2  0  0  3  0  0  0  0  0  0
  189.9700  174.8020  142.8310 C   0  0  0  0  0  0  0  0  0  0  0  0
  191.0050  173.7910  140.8660 C   0  0  0  0  0  0  0  0  0  0  0  0
  192.2420  172.5730  139.2220 O   0  0  0  0  0  1  0  0  0  0  0  0
  190.2240  171.0040  138.3210 C   0  0  0  0  0  1  0  0  0  0  0  0
  188.2040  173.9810  139.6950 C   0  0  0  0  0  2  0  0  0  0  0  0
  193.7670  175.8470  144.2200 C   0  0  0  0  0  0  0  0  0  0  0  0
  196.9110  175.3100  143.6430 C   0  0  0  0  0  2  0  0  0  0  0  0
  192.2200  174.1680  141.3540 N   0  0  0  0  0  0  0  0  0  0  0  0
  188.4390  173.7430  141.1740 C   0  0  0  0  0  2  0  0  0  0  0  0
  193.6690  175.1780  142.9840 C   0  0  0  0  0  0  0  0  0  0  0  0
  194.5660  176.7160  146.2960 C   0  0  0  0  0  2  0  0  0  0  0  0
  189.8320  174.1330  141.5990 C   0  0  0  0  0  0  0  0  0  0  0  0
  188.5650  172.7380  138.8890 C   0  0  0  0  0  2  0  0  0  0  0  0
  196.0460  175.2960  144.8180 N   0  0  0  0  0  0  0  0  0  0  0  0
  191.2400  175.1520  143.3030 C   0  0  2  0  0  3  0  0  0  0  0  0
  190.9870  173.1320  139.4970 C   0  0  1  0  0  3  0  0  0  0  0  0
  192.3800  174.8270  142.5310 C   0  0  0  0  0  0  0  0  0  0  0  0
  188.8730  175.7320  144.7610 C   0  0  0  0  0  3  0  0  0  0  0  0
  196.1180  175.5910  142.3580 C   0  0  0  0  0  2  0  0  0  0  0  0
  188.8080  175.1340  143.6090 N   0  0  0  0  0  0  0  0  0  0  0  0
  194.8880  174.6890  142.2270 C   0  0  0  0  0  2  0  0  0  0  0  0
  195.0010  176.3250  144.8790 C   0  0  1  0  0  3  0  0  0  0  0  0
  190.1780  176.1260  145.3970 C   0  0  0  0  0  3  0  0  0  0  0  0
  192.6630  176.1370  144.9810 C   0  0  0  0  0  0  0  0  0  0  0  0
  196.0420  174.0850  145.5920 C   0  0  0  0  0  3  0  0  0  0  0  0
  196.2110  172.8800  145.0560 C   0  0  0  0  0  3  0  0  0  0  0  0
  195.2780  169.6180  145.1400 C   0  0  0  0  0  2  0  0  0  0  0  0
  197.2300  170.6610  145.3880 C   0  0  0  0  0  2  0  0  0  0  0  0
  196.2140  171.6560  145.9050 C   0  0  2  0  0  3  0  0  0  0  0  0
  196.6410  169.3880  145.3760 O   0  0  0  0  0  0  0  0  0  0  0  0
  194.9040  170.9420  145.7630 C   0  0  0  0  0  2  0  0  0  0  0  0
  1 27  1  0  0  0  0
  1 26  2  0  0  0  0
  2 14  1  0  0  0  0
  3  7  1  6  0  0  0
  3 19  1  0  0  0  0
  4 18  1  0  0  0  0
  4 23  1  0  0  0  0
  5 11  2  0  0  0  0
  5 15  1  0  0  0  0
  8 12  1  0  0  0  0
  9 25  1  0  0  0  0
  9 27  2  0  0  0  0
 10 17  1  0  0  0  0
 11 20  1  0  0  0  0
 12 15  1  0  0  0  0
 13  9  1  0  0  0  0
 15  4  2  0  0  0  0
 16  3  1  0  0  0  0
 16  8  1  0  0  0  0
 17 25  1  0  0  0  0
 17 28  1  0  0  0  0
 18 20  1  1  0  0  0
 18  1  1  0  0  0  0
 19  6  1  1  0  0  0
 19  5  1  0  0  0  0
 20 13  2  0  0  0  0
 21 26  1  0  0  0  0
 22 10  1  0  0  0  0
 23 21  2  0  0  0  0
 24 22  1  0  0  0  0
 24 13  1  0  0  0  0
 25 14  1  1  0  0  0
 27  2  1  0  0  0  0
 29 28  2  0  0  0  0
 30 33  1  0  0  0  0
 30 34  1  0  0  0  0
 31 32  1  0  0  0  0
 32 29  1  6  0  0  0
 33 31  1  0  0  0  0
 34 32  1  0  0  0  0
M  END
>  <MODEL>
8

>  <REMARK>
 VINA RESULT:      -7.3      3.460      7.181
  Name = 
  2 active torsions:
  status: ('A' for Active; 'I' for Inactive)
    1  A    between atoms: N_17  and  C_28
    2  A    between atoms: C_29  and  C_32
                            x       y       z     vdW  Elec       q    Type
                         _______ _______ _______ _____ _____    ______ ____

>  <TORSDO>
F 2

$$$$
=
 OpenBabel11112418003D

 34 40  0  0  1  0  0  0  0  0999 V2000
  190.7560  173.4130  142.0740 C   0  0  0  0  0  0  0  0  0  0  0  0
  192.3360  171.8110  140.8050 C   0  0  0  0  0  2  0  0  0  0  0  0
  189.3180  177.5270  147.0000 C   0  0  2  0  0  3  0  0  0  0  0  0
  189.4070  174.9400  143.4060 C   0  0  0  0  0  0  0  0  0  0  0  0
  190.0950  175.4760  145.6840 C   0  0  0  0  0  0  0  0  0  0  0  0
  191.1390  176.1110  147.7390 O   0  0  0  0  0  1  0  0  0  0  0  0
  189.7360  178.3870  148.1840 C   0  0  0  0  0  1  0  0  0  0  0  0
  187.2360  176.4740  145.9670 C   0  0  0  0  0  2  0  0  0  0  0  0
  192.7080  172.4030  143.0690 C   0  0  0  0  0  0  0  0  0  0  0  0
  195.4600  171.6150  144.5870 C   0  0  0  0  0  2  0  0  0  0  0  0
  191.1480  174.6240  145.5310 N   0  0  0  0  0  0  0  0  0  0  0  0
  187.9900  176.5660  144.6540 C   0  0  0  0  0  2  0  0  0  0  0  0
  192.5060  173.0780  144.2900 C   0  0  0  0  0  0  0  0  0  0  0  0
  193.6970  171.2430  141.2300 C   0  0  0  0  0  2  0  0  0  0  0  0
  189.1720  175.6310  144.6100 C   0  0  0  0  0  0  0  0  0  0  0  0
  187.7910  177.4750  146.9740 C   0  0  0  0  0  2  0  0  0  0  0  0
  195.0810  171.9600  143.2200 N   0  0  0  0  0  0  0  0  0  0  0  0
  190.5130  174.0910  143.2860 C   0  0  0  0  0  0  0  0  0  0  0  0
  189.9170  176.1110  147.0540 C   0  0  1  0  0  3  0  0  0  0  0  0
  191.3900  173.9360  144.3860 C   0  0  0  0  0  0  0  0  0  0  0  0
  188.6870  174.5040  141.1510 C   0  0  0  0  0  3  0  0  0  0  0  0
  194.2670  171.7100  145.5480 C   0  0  0  0  0  2  0  0  0  0  0  0
  188.5120  175.0990  142.2930 N   0  0  0  0  0  0  0  0  0  0  0  0
  193.5200  173.0380  145.4160 C   0  0  0  0  0  2  0  0  0  0  0  0
  193.7900  171.4490  142.7470 C   0  0  1  0  0  3  0  0  0  0  0  0
  189.8570  173.5980  140.8800 C   0  0  0  0  0  2  0  0  0  0  0  0
  191.8740  172.5770  141.9930 C   0  0  0  0  0  0  0  0  0  0  0  0
  195.7960  173.0500  142.6160 C   0  0  0  0  0  3  0  0  0  0  0  0
  196.3200  174.0520  143.3170 C   0  0  0  0  0  3  0  0  0  0  0  0
  196.5030  175.8680  140.4550 C   0  0  0  0  0  2  0  0  0  0  0  0
  196.2190  176.4070  142.5970 C   0  0  0  0  0  2  0  0  0  0  0  0
  197.0650  175.1520  142.6430 C   0  0  2  0  0  3  0  0  0  0  0  0
  196.3150  176.9620  141.3120 O   0  0  0  0  0  0  0  0  0  0  0  0
  197.2770  174.8070  141.2000 C   0  0  0  0  0  2  0  0  0  0  0  0
  1 18  1  0  0  0  0
  2 14  1  0  0  0  0
  2 27  1  0  0  0  0
  3 19  1  0  0  0  0
  3  7  1  1  0  0  0
  4 15  1  0  0  0  0
  5 19  1  0  0  0  0
  8 16  1  0  0  0  0
  9 13  2  0  0  0  0
 10 22  1  0  0  0  0
 11  5  1  0  0  0  0
 12  8  1  0  0  0  0
 13 20  1  0  0  0  0
 13 24  1  0  0  0  0
 15 12  1  0  0  0  0
 15  5  2  0  0  0  0
 16  3  1  0  0  0  0
 17 10  1  0  0  0  0
 18  4  2  0  0  0  0
 18 20  1  0  0  0  0
 19  6  1  6  0  0  0
 20 11  2  0  0  0  0
 21 23  2  0  0  0  0
 23  4  1  0  0  0  0
 24 22  1  0  0  0  0
 25 14  1  6  0  0  0
 25  9  1  0  0  0  0
 25 17  1  0  0  0  0
 26 21  1  0  0  0  0
 26  1  1  0  0  0  0
 27  1  2  0  0  0  0
 27  9  1  0  0  0  0
 28 17  1  0  0  0  0
 28 29  2  0  0  0  0
 30 34  1  0  0  0  0
 30 33  1  0  0  0  0
 31 32  1  0  0  0  0
 32 29  1  1  0  0  0
 33 31  1  0  0  0  0
 34 32  1  0  0  0  0
M  END
>  <MODEL>
9

>  <REMARK>
 VINA RESULT:      -7.2      2.455      3.970
  Name = 
  2 active torsions:
  status: ('A' for Active; 'I' for Inactive)
    1  A    between atoms: N_17  and  C_28
    2  A    between atoms: C_29  and  C_32
                            x       y       z     vdW  Elec       q    Type
                         _______ _______ _______ _____ _____    ______ ____

>  <TORSDO>
F 2

$$$$
