=
 OpenBabel11112416363D

 32 37  0  0  1  0  0  0  0  0999 V2000
  193.0620  172.3750  141.1530 S   0  0  0  0  0  0  0  0  0  0  0  0
  190.0490  176.6990  142.8280 C   0  0  1  0  0  3  0  0  0  0  0  0
  192.3580  176.3740  147.1970 C   0  0  0  0  0  3  0  0  0  0  0  0
  191.1690  176.6920  147.8560 C   0  0  0  0  0  3  0  0  0  0  0  0
  187.8180  177.7040  142.8140 C   0  0  0  0  0  0  0  0  0  0  0  0
  186.6910  178.1950  143.4720 C   0  0  0  0  0  0  0  0  0  0  0  0
  190.8680  174.7610  141.5730 N   0  0  1  0  0  0  0  0  0  0  0  0
  192.4430  176.1350  142.9120 C   0  0  0  0  0  2  0  0  0  0  0  0
  185.5300  178.7470  145.4130 C   0  0  0  0  0  0  0  0  0  0  0  0
  193.2940  174.1280  141.6550 C   0  0  2  0  0  3  0  0  0  0  0  0
  192.4020  176.3700  145.8010 C   0  0  0  0  0  3  0  0  0  0  0  0
  191.2850  176.6740  143.6150 N   0  0  0  0  0  0  0  0  0  0  0  0
  191.2550  176.6790  145.0520 C   0  0  0  0  0  0  0  0  0  0  0  0
  188.8790  177.3690  144.9260 C   0  0  0  0  0  0  0  0  0  0  0  0
  184.5010  179.1170  144.1390 S   0  0  0  0  0  0  0  0  0  0  0  0
  191.1630  172.0580  142.0770 S   0  0  0  0  0  0  0  0  0  0  0  0
  192.0970  174.7320  142.4020 C   0  0  2  0  0  3  0  0  0  0  0  0
  185.5180  178.6500  142.8690 C   0  0  0  0  0  3  0  0  0  0  0  0
  190.4590  173.4300  141.0980 C   0  0  0  0  0  2  0  0  0  0  0  0
  190.0270  177.0070  147.1180 C   0  0  0  0  0  3  0  0  0  0  0  0
  190.0650  177.0000  145.7160 C   0  0  0  0  0  0  0  0  0  0  0  0
  187.7760  177.8460  145.5710 N   0  0  0  0  0  0  0  0  0  0  0  0
  189.7480  175.2740  142.3670 C   0  0  0  0  0  2  0  0  0  0  0  0
  187.8330  177.6470  141.5520 O   0  0  0  0  0  0  0  0  0  0  0  0
  185.2300  178.9330  146.8600 C   0  0  0  0  0  1  0  0  0  0  0  0
  188.9010  177.2830  143.5490 N   0  0  0  0  0  0  0  0  0  0  0  0
  186.6960  178.2480  144.8640 C   0  0  0  0  0  0  0  0  0  0  0  0
  193.6050  174.8940  140.5270 O   0  0  0  0  0  0  0  0  0  0  0  0
  194.9630  174.6620  140.3000 C   0  0  0  0  0  2  0  0  0  0  0  0
  195.7730  175.5840  141.1410 C   0  0  0  0  0  0  0  0  0  0  0  0
  195.5330  176.8190  141.1300 O   0  0  0  0  0  0  0  0  0  0  0  0
  196.7900  175.0650  141.9890 N   0  0  0  0  0  1  0  0  0  0  0  0
  1 10  1  0  0  0  0
  1 16  1  0  0  0  0
  2 23  1  1  0  0  0
  2 26  1  0  0  0  0
  2 12  1  0  0  0  0
  3  4  1  0  0  0  0
  5  6  1  0  0  0  0
  5 26  1  0  0  0  0
  6 27  1  0  0  0  0
  7 19  1  1  0  0  0
  7 23  1  0  0  0  0
  7 17  1  0  0  0  0
  8 12  1  0  0  0  0
  9 25  1  0  0  0  0
 10 28  1  6  0  0  0
 10 17  1  0  0  0  0
 11  3  2  0  0  0  0
 12 13  1  0  0  0  0
 13 21  2  0  0  0  0
 13 11  1  0  0  0  0
 14 22  2  0  0  0  0
 14 21  1  0  0  0  0
 15  9  1  0  0  0  0
 17  8  1  6  0  0  0
 18  6  2  0  0  0  0
 18 15  1  0  0  0  0
 19 16  1  0  0  0  0
 20  4  2  0  0  0  0
 21 20  1  0  0  0  0
 24  5  2  0  0  0  0
 26 14  1  0  0  0  0
 27  9  2  0  0  0  0
 27 22  1  0  0  0  0
 29 28  1  0  0  0  0
 29 30  1  0  0  0  0
 30 32  1  0  0  0  0
 31 30  2  0  0  0  0
M  END
>  <MODEL>
1

>  <REMARK>
 VINA RESULT:      -7.9      0.000      0.000
  Name = 
  3 active torsions:
  status: ('A' for Active; 'I' for Inactive)
    1  A    between atoms: C_10  and  O_20
    2  A    between atoms: O_20  and  C_29
    3  A    between atoms: C_29  and  C_30
                            x       y       z     vdW  Elec       q    Type
                         _______ _______ _______ _____ _____    ______ ____

>  <TORSDO>
F 3

$$$$
=
 OpenBabel11112416363D

 32 37  0  0  1  0  0  0  0  0999 V2000
  191.6680  173.7850  145.1730 S   0  0  0  0  0  0  0  0  0  0  0  0
  187.8510  177.3170  143.2910 C   0  0  1  0  0  3  0  0  0  0  0  0
  186.6920  178.2820  148.0080 C   0  0  0  0  0  3  0  0  0  0  0  0
  185.3400  178.3560  147.6680 C   0  0  0  0  0  3  0  0  0  0  0  0
  186.0990  177.6590  141.6160 C   0  0  0  0  0  0  0  0  0  0  0  0
  184.7760  177.9140  141.2630 C   0  0  0  0  0  0  0  0  0  0  0  0
  189.5030  175.5140  143.4380 N   0  0  1  0  0  0  0  0  0  0  0  0
  189.6270  177.4480  144.9890 C   0  0  0  0  0  2  0  0  0  0  0  0
  182.5670  178.4070  141.8120 C   0  0  0  0  0  0  0  0  0  0  0  0
  191.3120  175.5890  145.1730 C   0  0  2  0  0  3  0  0  0  0  0  0
  187.6520  178.0850  147.0140 C   0  0  0  0  0  3  0  0  0  0  0  0
  188.2440  177.7470  144.6350 N   0  0  0  0  0  0  0  0  0  0  0  0
  187.2670  177.9550  145.6680 C   0  0  0  0  0  0  0  0  0  0  0  0
  185.5190  177.9410  143.9140 C   0  0  0  0  0  0  0  0  0  0  0  0
  182.6120  178.2890  140.1370 S   0  0  0  0  0  0  0  0  0  0  0  0
  189.6840  173.0990  144.7730 S   0  0  0  0  0  0  0  0  0  0  0  0
  189.8640  175.9450  144.8100 C   0  0  2  0  0  3  0  0  0  0  0  0
  184.2580  177.9370  139.9670 C   0  0  0  0  0  3  0  0  0  0  0  0
  189.6630  174.0670  143.2240 C   0  0  0  0  0  2  0  0  0  0  0  0
  184.9510  178.2340  146.3320 C   0  0  0  0  0  3  0  0  0  0  0  0
  185.9110  178.0320  145.3300 C   0  0  0  0  0  0  0  0  0  0  0  0
  184.2220  178.1880  143.5700 N   0  0  0  0  0  0  0  0  0  0  0  0
  188.0910  175.8120  143.1820 C   0  0  0  0  0  2  0  0  0  0  0  0
  186.9550  177.4240  140.7170 O   0  0  0  0  0  0  0  0  0  0  0  0
  181.3630  178.7140  142.6330 C   0  0  0  0  0  1  0  0  0  0  0  0
  186.4590  177.6640  142.9430 N   0  0  0  0  0  0  0  0  0  0  0  0
  183.8490  178.1700  142.2710 C   0  0  0  0  0  0  0  0  0  0  0  0
  192.2070  176.2360  144.3160 O   0  0  0  0  0  0  0  0  0  0  0  0
  193.1230  176.8650  145.1620 C   0  0  0  0  0  2  0  0  0  0  0  0
  194.4770  176.2910  144.9440 C   0  0  0  0  0  0  0  0  0  0  0  0
  195.1370  176.6070  143.9200 O   0  0  0  0  0  0  0  0  0  0  0  0
  195.0450  175.4170  145.9120 N   0  0  0  0  0  1  0  0  0  0  0  0
  1 10  1  0  0  0  0
  2 23  1  1  0  0  0
  2 12  1  0  0  0  0
  4  3  1  0  0  0  0
  5 26  1  0  0  0  0
  6  5  1  0  0  0  0
  6 27  1  0  0  0  0
  7 23  1  1  0  0  0
  7 17  1  0  0  0  0
  9 27  2  0  0  0  0
  9 25  1  0  0  0  0
 10 28  1  6  0  0  0
 11  3  2  0  0  0  0
 12  8  1  0  0  0  0
 12 13  1  0  0  0  0
 13 11  1  0  0  0  0
 14 21  1  0  0  0  0
 15  9  1  0  0  0  0
 16  1  1  0  0  0  0
 17  8  1  6  0  0  0
 17 10  1  0  0  0  0
 18 15  1  0  0  0  0
 18  6  2  0  0  0  0
 19  7  1  0  0  0  0
 19 16  1  0  0  0  0
 20  4  2  0  0  0  0
 21 13  2  0  0  0  0
 21 20  1  0  0  0  0
 22 14  2  0  0  0  0
 24  5  2  0  0  0  0
 26  2  1  0  0  0  0
 26 14  1  0  0  0  0
 27 22  1  0  0  0  0
 28 29  1  0  0  0  0
 30 29  1  0  0  0  0
 30 32  1  0  0  0  0
 31 30  2  0  0  0  0
M  END
>  <MODEL>
2

>  <REMARK>
 VINA RESULT:      -7.4      2.619      4.014
  Name = 
  3 active torsions:
  status: ('A' for Active; 'I' for Inactive)
    1  A    between atoms: C_10  and  O_20
    2  A    between atoms: O_20  and  C_29
    3  A    between atoms: C_29  and  C_30
                            x       y       z     vdW  Elec       q    Type
                         _______ _______ _______ _____ _____    ______ ____

>  <TORSDO>
F 3

$$$$
=
 OpenBabel11112416363D

 32 37  0  0  1  0  0  0  0  0999 V2000
  191.8180  171.4530  140.9300 S   0  0  0  0  0  0  0  0  0  0  0  0
  189.3820  176.0740  142.7450 C   0  0  1  0  0  3  0  0  0  0  0  0
  192.5740  176.0450  146.5300 C   0  0  0  0  0  3  0  0  0  0  0  0
  191.5680  176.4890  147.3910 C   0  0  0  0  0  3  0  0  0  0  0  0
  187.2340  177.1920  143.1010 C   0  0  0  0  0  0  0  0  0  0  0  0
  186.2940  177.8040  143.9290 C   0  0  0  0  0  0  0  0  0  0  0  0
  189.8450  173.9830  141.5550 N   0  0  1  0  0  0  0  0  0  0  0  0
  191.7170  175.3920  142.3760 C   0  0  0  0  0  2  0  0  0  0  0  0
  185.6020  178.6020  146.0040 C   0  0  0  0  0  0  0  0  0  0  0  0
  192.2090  173.2310  141.1840 C   0  0  2  0  0  3  0  0  0  0  0  0
  192.3140  175.9050  145.1660 C   0  0  0  0  0  3  0  0  0  0  0  0
  190.7570  176.0580  143.2480 N   0  0  0  0  0  0  0  0  0  0  0  0
  191.0410  176.2020  144.6500 C   0  0  0  0  0  0  0  0  0  0  0  0
  188.7180  177.0040  144.9610 C   0  0  0  0  0  0  0  0  0  0  0  0
  184.3320  178.9030  144.9460 S   0  0  0  0  0  0  0  0  0  0  0  0
  190.1560  171.3290  142.2660 S   0  0  0  0  0  0  0  0  0  0  0  0
  191.2230  173.9680  142.1010 C   0  0  2  0  0  3  0  0  0  0  0  0
  185.0330  178.2620  143.5450 C   0  0  0  0  0  3  0  0  0  0  0  0
  189.3000  172.6370  141.3210 C   0  0  0  0  0  2  0  0  0  0  0  0
  190.3030  176.7930  146.8840 C   0  0  0  0  0  3  0  0  0  0  0  0
  190.0350  176.6490  145.5140 C   0  0  0  0  0  0  0  0  0  0  0  0
  187.7970  177.6000  145.7730 N   0  0  0  0  0  0  0  0  0  0  0  0
  188.9420  174.6300  142.5110 C   0  0  0  0  0  2  0  0  0  0  0  0
  186.9720  177.0140  141.8780 O   0  0  0  0  0  0  0  0  0  0  0  0
  185.6290  178.9410  147.4530 C   0  0  0  0  0  1  0  0  0  0  0  0
  188.4370  176.7860  143.6280 N   0  0  0  0  0  0  0  0  0  0  0  0
  186.6030  177.9900  145.2740 C   0  0  0  0  0  0  0  0  0  0  0  0
  192.2920  173.8680  139.9410 O   0  0  0  0  0  0  0  0  0  0  0  0
  192.3290  172.8290  139.0090 C   0  0  0  0  0  2  0  0  0  0  0  0
  192.4080  173.3960  137.6360 C   0  0  0  0  0  0  0  0  0  0  0  0
  191.8380  174.4870  137.3730 O   0  0  0  0  0  0  0  0  0  0  0  0
  193.1610  172.7280  136.6320 N   0  0  0  0  0  1  0  0  0  0  0  0
  1 10  1  0  0  0  0
  1 16  1  0  0  0  0
  2 23  1  1  0  0  0
  2 12  1  0  0  0  0
  2 26  1  0  0  0  0
  3  4  1  0  0  0  0
  5 26  1  0  0  0  0
  5  6  1  0  0  0  0
  6 27  1  0  0  0  0
  7 19  1  1  0  0  0
  7 17  1  0  0  0  0
  7 23  1  0  0  0  0
  8 12  1  0  0  0  0
  9 25  1  0  0  0  0
 10 28  1  6  0  0  0
 10 17  1  0  0  0  0
 11  3  2  0  0  0  0
 12 13  1  0  0  0  0
 13 11  1  0  0  0  0
 13 21  2  0  0  0  0
 14 21  1  0  0  0  0
 14 22  2  0  0  0  0
 15  9  1  0  0  0  0
 17  8  1  6  0  0  0
 18  6  2  0  0  0  0
 18 15  1  0  0  0  0
 19 16  1  0  0  0  0
 20  4  2  0  0  0  0
 21 20  1  0  0  0  0
 24  5  2  0  0  0  0
 26 14  1  0  0  0  0
 27 22  1  0  0  0  0
 27  9  2  0  0  0  0
 29 28  1  0  0  0  0
 30 29  1  0  0  0  0
 31 30  2  0  0  0  0
 32 30  1  0  0  0  0
M  END
>  <MODEL>
3

>  <REMARK>
 VINA RESULT:      -7.4      1.885      2.149
  Name = 
  3 active torsions:
  status: ('A' for Active; 'I' for Inactive)
    1  A    between atoms: C_10  and  O_20
    2  A    between atoms: O_20  and  C_29
    3  A    between atoms: C_29  and  C_30
                            x       y       z     vdW  Elec       q    Type
                         _______ _______ _______ _____ _____    ______ ____

>  <TORSDO>
F 3

$$$$
=
 OpenBabel11112416363D

 32 37  0  0  1  0  0  0  0  0999 V2000
  195.4330  174.4560  144.6800 S   0  0  0  0  0  0  0  0  0  0  0  0
  189.9460  174.9230  145.1830 C   0  0  1  0  0  3  0  0  0  0  0  0
  189.5920  173.6700  140.4060 C   0  0  0  0  0  3  0  0  0  0  0  0
  188.5490  174.5830  140.2370 C   0  0  0  0  0  3  0  0  0  0  0  0
  188.1340  176.2740  146.1230 C   0  0  0  0  0  0  0  0  0  0  0  0
  186.9810  177.0430  145.9830 C   0  0  0  0  0  0  0  0  0  0  0  0
  192.3580  175.1020  145.5770 N   0  0  1  0  0  0  0  0  0  0  0  0
  191.4480  173.2130  144.2490 C   0  0  0  0  0  2  0  0  0  0  0  0
  185.2750  177.9630  144.6910 C   0  0  0  0  0  0  0  0  0  0  0  0
  193.9300  173.4000  144.6180 C   0  0  2  0  0  3  0  0  0  0  0  0
  190.1440  173.4680  141.6720 C   0  0  0  0  0  3  0  0  0  0  0  0
  190.2240  173.9890  144.0900 N   0  0  0  0  0  0  0  0  0  0  0  0
  189.6620  174.1830  142.7820 C   0  0  0  0  0  0  0  0  0  0  0  0
  188.0830  175.8070  143.7830 C   0  0  0  0  0  0  0  0  0  0  0  0
  184.9960  178.4840  146.2640 S   0  0  0  0  0  0  0  0  0  0  0  0
  194.4840  176.3340  144.3100 S   0  0  0  0  0  0  0  0  0  0  0  0
  192.6200  174.1810  144.4460 C   0  0  2  0  0  3  0  0  0  0  0  0
  186.3130  177.7210  147.0040 C   0  0  0  0  0  3  0  0  0  0  0  0
  193.4290  176.0900  145.7810 C   0  0  0  0  0  2  0  0  0  0  0  0
  188.0600  175.2920  141.3360 C   0  0  0  0  0  3  0  0  0  0  0  0
  188.6150  175.0960  142.6090 C   0  0  0  0  0  0  0  0  0  0  0  0
  186.9550  176.5630  143.6440 N   0  0  0  0  0  0  0  0  0  0  0  0
  191.1370  175.8710  145.3170 C   0  0  0  0  0  2  0  0  0  0  0  0
  188.6650  176.1400  147.2620 O   0  0  0  0  0  0  0  0  0  0  0  0
  184.4410  178.2910  143.5020 C   0  0  0  0  0  1  0  0  0  0  0  0
  188.6830  175.6700  145.0170 N   0  0  0  0  0  0  0  0  0  0  0  0
  186.4120  177.1780  144.7190 C   0  0  0  0  0  0  0  0  0  0  0  0
  193.8790  172.6010  145.7640 O   0  0  0  0  0  0  0  0  0  0  0  0
  194.9970  171.7700  145.6710 C   0  0  0  0  0  2  0  0  0  0  0  0
  194.5670  170.3480  145.7560 C   0  0  0  0  0  0  0  0  0  0  0  0
  194.8850  169.6540  146.7570 O   0  0  0  0  0  0  0  0  0  0  0  0
  193.7630  169.7850  144.7280 N   0  0  0  0  0  1  0  0  0  0  0  0
  2 23  1  6  0  0  0
  3 11  1  0  0  0  0
  4  3  2  0  0  0  0
  4 20  1  0  0  0  0
  5 24  2  0  0  0  0
  6  5  1  0  0  0  0
  6 18  2  0  0  0  0
  7 23  1  6  0  0  0
  7 19  1  0  0  0  0
  9 27  2  0  0  0  0
  9 15  1  0  0  0  0
 10  1  1  0  0  0  0
 10 28  1  1  0  0  0
 11 13  2  0  0  0  0
 12  8  1  0  0  0  0
 12  2  1  0  0  0  0
 13 12  1  0  0  0  0
 14 26  1  0  0  0  0
 15 18  1  0  0  0  0
 16  1  1  0  0  0  0
 16 19  1  0  0  0  0
 17  8  1  1  0  0  0
 17 10  1  0  0  0  0
 17  7  1  0  0  0  0
 20 21  2  0  0  0  0
 21 13  1  0  0  0  0
 21 14  1  0  0  0  0
 22 14  2  0  0  0  0
 22 27  1  0  0  0  0
 25  9  1  0  0  0  0
 26  2  1  0  0  0  0
 26  5  1  0  0  0  0
 27  6  1  0  0  0  0
 29 30  1  0  0  0  0
 29 28  1  0  0  0  0
 30 31  2  0  0  0  0
 32 30  1  0  0  0  0
M  END
>  <MODEL>
4

>  <REMARK>
 VINA RESULT:      -7.3      3.419      4.860
  Name = 
  3 active torsions:
  status: ('A' for Active; 'I' for Inactive)
    1  A    between atoms: C_10  and  O_20
    2  A    between atoms: O_20  and  C_29
    3  A    between atoms: C_29  and  C_30
                            x       y       z     vdW  Elec       q    Type
                         _______ _______ _______ _____ _____    ______ ____

>  <TORSDO>
F 3

$$$$
=
 OpenBabel11112416363D

 32 37  0  0  1  0  0  0  0  0999 V2000
  186.7430  178.5100  143.3420 S   0  0  0  0  0  0  0  0  0  0  0  0
  189.6910  173.9500  144.3890 C   0  0  1  0  0  3  0  0  0  0  0  0
  192.8040  176.7890  146.9910 C   0  0  0  0  0  3  0  0  0  0  0  0
  193.8880  176.0500  146.5130 C   0  0  0  0  0  3  0  0  0  0  0  0
  190.5960  171.8910  143.4240 C   0  0  0  0  0  0  0  0  0  0  0  0
  191.6640  171.0560  143.1010 C   0  0  0  0  0  0  0  0  0  0  0  0
  188.1110  175.5420  143.4040 N   0  0  1  0  0  0  0  0  0  0  0  0
  188.8130  175.7860  145.7730 C   0  0  0  0  0  2  0  0  0  0  0  0
  193.9310  170.5240  143.1300 C   0  0  0  0  0  0  0  0  0  0  0  0
  187.2140  177.4480  144.7660 C   0  0  2  0  0  3  0  0  0  0  0  0
  191.5020  176.4150  146.6540 C   0  0  0  0  0  3  0  0  0  0  0  0
  189.9380  174.9080  145.4690 N   0  0  0  0  0  0  0  0  0  0  0  0
  191.2720  175.3010  145.8290 C   0  0  0  0  0  0  0  0  0  0  0  0
  192.1120  173.3680  144.5280 C   0  0  0  0  0  0  0  0  0  0  0  0
  193.1750  169.2800  142.2910 S   0  0  0  0  0  0  0  0  0  0  0  0
  188.3100  177.9230  142.0130 S   0  0  0  0  0  0  0  0  0  0  0  0
  188.3980  176.5110  144.4880 C   0  0  2  0  0  3  0  0  0  0  0  0
  191.5870  169.8570  142.3910 C   0  0  0  0  0  3  0  0  0  0  0  0
  187.7570  176.1860  142.1290 C   0  0  0  0  0  2  0  0  0  0  0  0
  193.6670  174.9380  145.6980 C   0  0  0  0  0  3  0  0  0  0  0  0
  192.3610  174.5610  145.3530 C   0  0  0  0  0  0  0  0  0  0  0  0
  193.1580  172.5520  144.2100 N   0  0  0  0  0  0  0  0  0  0  0  0
  189.3030  174.7330  143.1360 C   0  0  0  0  0  2  0  0  0  0  0  0
  189.4250  171.5790  143.0670 O   0  0  0  0  0  0  0  0  0  0  0  0
  195.3890  170.6250  143.4140 C   0  0  0  0  0  1  0  0  0  0  0  0
  190.8310  173.0490  144.1270 N   0  0  0  0  0  0  0  0  0  0  0  0
  192.9470  171.4190  143.5040 C   0  0  0  0  0  0  0  0  0  0  0  0
  186.0990  176.7170  145.1850 O   0  0  0  0  0  0  0  0  0  0  0  0
  185.2530  177.6590  145.7740 C   0  0  0  0  0  2  0  0  0  0  0  0
  185.7150  177.9460  147.1580 C   0  0  0  0  0  0  0  0  0  0  0  0
  185.9410  176.9980  147.9550 O   0  0  0  0  0  0  0  0  0  0  0  0
  185.9410  179.2890  147.5700 N   0  0  0  0  0  1  0  0  0  0  0  0
  1 10  1  0  0  0  0
  2 23  1  6  0  0  0
  2 12  1  0  0  0  0
  4  3  2  0  0  0  0
  5 26  1  0  0  0  0
  6  5  1  0  0  0  0
  6 27  1  0  0  0  0
  7 19  1  6  0  0  0
  7 17  1  0  0  0  0
  9 25  1  0  0  0  0
  9 27  2  0  0  0  0
 10 28  1  6  0  0  0
 11  3  1  0  0  0  0
 12  8  1  0  0  0  0
 12 13  1  0  0  0  0
 13 11  2  0  0  0  0
 14 21  1  0  0  0  0
 15 18  1  0  0  0  0
 15  9  1  0  0  0  0
 16 19  1  0  0  0  0
 16  1  1  0  0  0  0
 17 10  1  0  0  0  0
 17  8  1  1  0  0  0
 18  6  2  0  0  0  0
 20  4  1  0  0  0  0
 21 20  2  0  0  0  0
 21 13  1  0  0  0  0
 22 14  2  0  0  0  0
 23  7  1  0  0  0  0
 24  5  2  0  0  0  0
 26  2  1  0  0  0  0
 26 14  1  0  0  0  0
 27 22  1  0  0  0  0
 28 29  1  0  0  0  0
 29 30  1  0  0  0  0
 30 32  1  0  0  0  0
 30 31  2  0  0  0  0
M  END
>  <MODEL>
5

>  <REMARK>
 VINA RESULT:      -7.2      3.176      7.810
  Name = 
  3 active torsions:
  status: ('A' for Active; 'I' for Inactive)
    1  A    between atoms: C_10  and  O_20
    2  A    between atoms: O_20  and  C_29
    3  A    between atoms: C_29  and  C_30
                            x       y       z     vdW  Elec       q    Type
                         _______ _______ _______ _____ _____    ______ ____

>  <TORSDO>
F 3

$$$$
=
 OpenBabel11112416363D

 32 37  0  0  1  0  0  0  0  0999 V2000
  185.4070  177.6900  146.2490 S   0  0  0  0  0  0  0  0  0  0  0  0
  190.3070  176.5530  143.9530 C   0  0  1  0  0  3  0  0  0  0  0  0
  188.1620  172.6690  141.7530 C   0  0  0  0  0  3  0  0  0  0  0  0
  189.3170  171.9100  141.9530 C   0  0  0  0  0  3  0  0  0  0  0  0
  192.7180  176.4210  144.3530 C   0  0  0  0  0  0  0  0  0  0  0  0
  193.9180  175.7130  144.3830 C   0  0  0  0  0  0  0  0  0  0  0  0
  188.5560  177.4580  145.4080 N   0  0  1  0  0  0  0  0  0  0  0  0
  188.0090  176.7430  143.0950 C   0  0  0  0  0  2  0  0  0  0  0  0
  195.1650  173.7800  144.0230 C   0  0  0  0  0  0  0  0  0  0  0  0
  186.1930  177.6410  144.5880 C   0  0  2  0  0  3  0  0  0  0  0  0
  188.1400  174.0150  142.1230 C   0  0  0  0  0  3  0  0  0  0  0  0
  189.2610  175.9970  143.0910 N   0  0  0  0  0  0  0  0  0  0  0  0
  189.2720  174.6140  142.7010 C   0  0  0  0  0  0  0  0  0  0  0  0
  191.6260  174.4950  143.4610 C   0  0  0  0  0  0  0  0  0  0  0  0
  196.2400  174.9160  144.6370 S   0  0  0  0  0  0  0  0  0  0  0  0
  186.7900  176.4160  147.2620 S   0  0  0  0  0  0  0  0  0  0  0  0
  187.5140  176.8600  144.5410 C   0  0  2  0  0  3  0  0  0  0  0  0
  195.1510  176.1990  144.8170 C   0  0  0  0  0  3  0  0  0  0  0  0
  188.1540  177.5470  146.8210 C   0  0  0  0  0  2  0  0  0  0  0  0
  190.4480  172.5000  142.5210 C   0  0  0  0  0  3  0  0  0  0  0  0
  190.4290  173.8510  142.8980 C   0  0  0  0  0  0  0  0  0  0  0  0
  192.8000  173.8000  143.4930 N   0  0  0  0  0  0  0  0  0  0  0  0
  189.7620  176.6250  145.3790 C   0  0  0  0  0  2  0  0  0  0  0  0
  192.6890  177.6230  144.7430 O   0  0  0  0  0  0  0  0  0  0  0  0
  195.5010  172.3830  143.6320 C   0  0  0  0  0  1  0  0  0  0  0  0
  191.5770  175.8010  143.9020 N   0  0  0  0  0  0  0  0  0  0  0  0
  193.9270  174.3890  143.9490 C   0  0  0  0  0  0  0  0  0  0  0  0
  186.3790  178.9480  144.1270 O   0  0  0  0  0  0  0  0  0  0  0  0
  185.1190  179.3540  143.6830 C   0  0  0  0  0  2  0  0  0  0  0  0
  184.7530  178.5920  142.4590 C   0  0  0  0  0  0  0  0  0  0  0  0
  183.6920  177.9160  142.4330 O   0  0  0  0  0  0  0  0  0  0  0  0
  185.5800  178.6610  141.3040 N   0  0  0  0  0  1  0  0  0  0  0  0
  1 16  1  0  0  0  0
  2 23  1  1  0  0  0
  3  4  2  0  0  0  0
  3 11  1  0  0  0  0
  4 20  1  0  0  0  0
  5  6  1  0  0  0  0
  5 24  2  0  0  0  0
  6 18  2  0  0  0  0
  7 23  1  1  0  0  0
  7 19  1  0  0  0  0
  9 15  1  0  0  0  0
 10 28  1  1  0  0  0
 10  1  1  0  0  0  0
 11 13  2  0  0  0  0
 12  8  1  0  0  0  0
 12  2  1  0  0  0  0
 13 21  1  0  0  0  0
 13 12  1  0  0  0  0
 14 22  2  0  0  0  0
 14 26  1  0  0  0  0
 15 18  1  0  0  0  0
 17  8  1  6  0  0  0
 17 10  1  0  0  0  0
 17  7  1  0  0  0  0
 19 16  1  0  0  0  0
 20 21  2  0  0  0  0
 21 14  1  0  0  0  0
 22 27  1  0  0  0  0
 25  9  1  0  0  0  0
 26  2  1  0  0  0  0
 26  5  1  0  0  0  0
 27  9  2  0  0  0  0
 27  6  1  0  0  0  0
 29 28  1  0  0  0  0
 30 29  1  0  0  0  0
 31 30  2  0  0  0  0
 32 30  1  0  0  0  0
M  END
>  <MODEL>
6

>  <REMARK>
 VINA RESULT:      -7.1      2.771      8.017
  Name = 
  3 active torsions:
  status: ('A' for Active; 'I' for Inactive)
    1  A    between atoms: C_10  and  O_20
    2  A    between atoms: O_20  and  C_29
    3  A    between atoms: C_29  and  C_30
                            x       y       z     vdW  Elec       q    Type
                         _______ _______ _______ _____ _____    ______ ____

>  <TORSDO>
F 3

$$$$
=
 OpenBabel11112416363D

 32 37  0  0  1  0  0  0  0  0999 V2000
  185.5100  178.9820  143.9880 S   0  0  0  0  0  0  0  0  0  0  0  0
  188.5760  174.5990  142.5840 C   0  0  1  0  0  3  0  0  0  0  0  0
  192.4550  176.8930  144.6380 C   0  0  0  0  0  3  0  0  0  0  0  0
  193.2840  176.4160  143.6210 C   0  0  0  0  0  3  0  0  0  0  0  0
  189.0460  172.9740  140.8150 C   0  0  0  0  0  0  0  0  0  0  0  0
  189.9150  172.3610  139.9150 C   0  0  0  0  0  0  0  0  0  0  0  0
  186.7690  176.2480  142.7140 N   0  0  1  0  0  0  0  0  0  0  0  0
  188.2790  175.8990  144.6520 C   0  0  0  0  0  2  0  0  0  0  0  0
  192.0330  172.0510  138.9980 C   0  0  0  0  0  0  0  0  0  0  0  0
  186.4480  177.6190  144.7890 C   0  0  2  0  0  3  0  0  0  0  0  0
  191.1130  176.5080  144.6830 C   0  0  0  0  0  3  0  0  0  0  0  0
  189.2070  175.2450  143.7380 N   0  0  0  0  0  0  0  0  0  0  0  0
  190.5870  175.6450  143.7070 C   0  0  0  0  0  0  0  0  0  0  0  0
  190.8770  174.2260  141.6970 C   0  0  0  0  0  0  0  0  0  0  0  0
  191.0100  171.0200  138.1550 S   0  0  0  0  0  0  0  0  0  0  0  0
  186.4850  178.9270  142.0890 S   0  0  0  0  0  0  0  0  0  0  0  0
  187.4400  176.9060  143.8600 C   0  0  2  0  0  3  0  0  0  0  0  0
  189.5720  171.4000  138.9630 C   0  0  0  0  0  3  0  0  0  0  0  0
  185.9880  177.1810  141.8850 C   0  0  0  0  0  2  0  0  0  0  0  0
  192.7700  175.5530  142.6510 C   0  0  0  0  0  3  0  0  0  0  0  0
  191.4220  175.1660  142.6900 C   0  0  0  0  0  0  0  0  0  0  0  0
  191.7280  173.6280  140.8140 N   0  0  0  0  0  0  0  0  0  0  0  0
  187.7730  175.6560  141.8260 C   0  0  0  0  0  2  0  0  0  0  0  0
  187.8210  172.6660  140.8150 O   0  0  0  0  0  0  0  0  0  0  0  0
  193.4970  172.2050  138.7720 C   0  0  0  0  0  1  0  0  0  0  0  0
  189.5330  173.9130  141.6940 N   0  0  0  0  0  0  0  0  0  0  0  0
  191.2610  172.7160  139.9320 C   0  0  0  0  0  0  0  0  0  0  0  0
  185.5480  176.7020  145.3420 O   0  0  0  0  0  0  0  0  0  0  0  0
  184.9650  177.3750  146.4170 C   0  0  0  0  0  2  0  0  0  0  0  0
  185.9410  177.4670  147.5350 C   0  0  0  0  0  0  0  0  0  0  0  0
  186.4500  176.4200  148.0130 O   0  0  0  0  0  0  0  0  0  0  0  0
  186.3310  178.7390  148.0370 N   0  0  0  0  0  1  0  0  0  0  0  0
  1 10  1  0  0  0  0
  2 23  1  6  0  0  0
  2 12  1  0  0  0  0
  3 11  1  0  0  0  0
  4  3  2  0  0  0  0
  5 24  2  0  0  0  0
  5 26  1  0  0  0  0
  6 27  1  0  0  0  0
  6  5  1  0  0  0  0
  7 23  1  6  0  0  0
  7 17  1  0  0  0  0
  9 27  2  0  0  0  0
 10 28  1  6  0  0  0
 12  8  1  0  0  0  0
 13 12  1  0  0  0  0
 13 11  2  0  0  0  0
 14 21  1  0  0  0  0
 15 18  1  0  0  0  0
 15  9  1  0  0  0  0
 16  1  1  0  0  0  0
 17  8  1  1  0  0  0
 17 10  1  0  0  0  0
 18  6  2  0  0  0  0
 19 16  1  0  0  0  0
 19  7  1  0  0  0  0
 20 21  2  0  0  0  0
 20  4  1  0  0  0  0
 21 13  1  0  0  0  0
 22 14  2  0  0  0  0
 25  9  1  0  0  0  0
 26 14  1  0  0  0  0
 26  2  1  0  0  0  0
 27 22  1  0  0  0  0
 28 29  1  0  0  0  0
 29 30  1  0  0  0  0
 30 31  2  0  0  0  0
 30 32  1  0  0  0  0
M  END
>  <MODEL>
7

>  <REMARK>
 VINA RESULT:      -6.7      3.038      7.768
  Name = 
  3 active torsions:
  status: ('A' for Active; 'I' for Inactive)
    1  A    between atoms: C_10  and  O_20
    2  A    between atoms: O_20  and  C_29
    3  A    between atoms: C_29  and  C_30
                            x       y       z     vdW  Elec       q    Type
                         _______ _______ _______ _____ _____    ______ ____

>  <TORSDO>
F 3

$$$$
=
 OpenBabel11112416363D

 32 37  0  0  1  0  0  0  0  0999 V2000
  196.4440  174.6630  141.7980 S   0  0  0  0  0  0  0  0  0  0  0  0
  191.3570  174.6710  143.9680 C   0  0  1  0  0  3  0  0  0  0  0  0
  189.6600  173.3290  139.5140 C   0  0  0  0  0  3  0  0  0  0  0  0
  188.5430  174.1480  139.6850 C   0  0  0  0  0  3  0  0  0  0  0  0
  189.8140  175.8750  145.4370 C   0  0  0  0  0  0  0  0  0  0  0  0
  188.6130  176.5420  145.6680 C   0  0  0  0  0  0  0  0  0  0  0  0
  193.7490  175.0580  143.6050 N   0  0  1  0  0  0  0  0  0  0  0  0
  192.6390  173.0820  142.5940 C   0  0  0  0  0  2  0  0  0  0  0  0
  186.5220  177.2970  144.9760 C   0  0  0  0  0  0  0  0  0  0  0  0
  195.0890  173.4830  142.1860 C   0  0  2  0  0  3  0  0  0  0  0  0
  190.5900  173.1920  140.5460 C   0  0  0  0  0  3  0  0  0  0  0  0
  191.3640  173.7500  142.8290 N   0  0  0  0  0  0  0  0  0  0  0  0
  190.4130  173.8780  141.7600 C   0  0  0  0  0  0  0  0  0  0  0  0
  189.0860  175.3750  143.2200 C   0  0  0  0  0  0  0  0  0  0  0  0
  186.6960  177.8130  146.5650 S   0  0  0  0  0  0  0  0  0  0  0  0
  195.2710  176.4490  141.7630 S   0  0  0  0  0  0  0  0  0  0  0  0
  193.7280  174.1480  142.4360 C   0  0  2  0  0  3  0  0  0  0  0  0
  188.2360  177.1740  146.8540 C   0  0  0  0  0  3  0  0  0  0  0  0
  194.7440  176.1360  143.4830 C   0  0  0  0  0  2  0  0  0  0  0  0
  188.3560  174.8280  140.8910 C   0  0  0  0  0  3  0  0  0  0  0  0
  189.2900  174.6960  141.9300 C   0  0  0  0  0  0  0  0  0  0  0  0
  187.9110  176.0310  143.4440 N   0  0  0  0  0  0  0  0  0  0  0  0
  192.4470  175.7170  143.7420 C   0  0  0  0  0  2  0  0  0  0  0  0
  190.6780  175.8020  146.3560 O   0  0  0  0  0  0  0  0  0  0  0  0
  185.3380  177.5380  144.1050 C   0  0  0  0  0  1  0  0  0  0  0  0
  190.0460  175.3050  144.2080 N   0  0  0  0  0  0  0  0  0  0  0  0
  187.6740  176.6120  144.6420 C   0  0  0  0  0  0  0  0  0  0  0  0
  195.4600  172.6980  143.2820 O   0  0  0  0  0  0  0  0  0  0  0  0
  196.7990  173.0200  143.5160 C   0  0  0  0  0  2  0  0  0  0  0  0
  197.0410  173.0990  144.9820 C   0  0  0  0  0  0  0  0  0  0  0  0
  197.6090  174.1100  145.4710 O   0  0  0  0  0  0  0  0  0  0  0  0
  196.5940  172.0530  145.8350 N   0  0  0  0  0  1  0  0  0  0  0  0
  1 10  1  0  0  0  0
  2 23  1  6  0  0  0
  2 26  1  0  0  0  0
  3  4  2  0  0  0  0
  3 11  1  0  0  0  0
  4 20  1  0  0  0  0
  5  6  1  0  0  0  0
  5 24  2  0  0  0  0
  6 18  2  0  0  0  0
  7 19  1  6  0  0  0
  7 23  1  0  0  0  0
  8 12  1  0  0  0  0
  9 15  1  0  0  0  0
 10 17  1  0  0  0  0
 10 28  1  1  0  0  0
 11 13  2  0  0  0  0
 12  2  1  0  0  0  0
 13 21  1  0  0  0  0
 13 12  1  0  0  0  0
 14 22  2  0  0  0  0
 14 26  1  0  0  0  0
 15 18  1  0  0  0  0
 16  1  1  0  0  0  0
 16 19  1  0  0  0  0
 17  8  1  1  0  0  0
 17  7  1  0  0  0  0
 20 21  2  0  0  0  0
 21 14  1  0  0  0  0
 22 27  1  0  0  0  0
 25  9  1  0  0  0  0
 26  5  1  0  0  0  0
 27  9  2  0  0  0  0
 27  6  1  0  0  0  0
 28 29  1  0  0  0  0
 29 30  1  0  0  0  0
 30 31  2  0  0  0  0
 30 32  1  0  0  0  0
M  END
>  <MODEL>
8

>  <REMARK>
 VINA RESULT:      -6.5      2.821      4.562
  Name = 
  3 active torsions:
  status: ('A' for Active; 'I' for Inactive)
    1  A    between atoms: C_10  and  O_20
    2  A    between atoms: O_20  and  C_29
    3  A    between atoms: C_29  and  C_30
                            x       y       z     vdW  Elec       q    Type
                         _______ _______ _______ _____ _____    ______ ____

>  <TORSDO>
F 3

$$$$
=
 OpenBabel11112416363D

 32 37  0  0  1  0  0  0  0  0999 V2000
  186.7060  176.9480  146.4190 S   0  0  0  0  0  0  0  0  0  0  0  0
  191.4510  176.0670  143.7190 C   0  0  1  0  0  3  0  0  0  0  0  0
  189.2490  172.2360  141.4850 C   0  0  0  0  0  3  0  0  0  0  0  0
  190.4340  171.5020  141.5610 C   0  0  0  0  0  3  0  0  0  0  0  0
  193.8880  175.9860  143.9370 C   0  0  0  0  0  0  0  0  0  0  0  0
  195.1040  175.3120  143.8430 C   0  0  0  0  0  0  0  0  0  0  0  0
  189.7900  176.8490  145.3420 N   0  0  1  0  0  0  0  0  0  0  0  0
  189.0920  176.2330  143.0410 C   0  0  0  0  0  2  0  0  0  0  0  0
  196.3700  173.4360  143.2960 C   0  0  0  0  0  0  0  0  0  0  0  0
  187.3690  177.0030  144.7050 C   0  0  2  0  0  3  0  0  0  0  0  0
  189.2200  173.5610  141.9230 C   0  0  0  0  0  3  0  0  0  0  0  0
  190.3590  175.5250  142.9080 N   0  0  0  0  0  0  0  0  0  0  0  0
  190.3760  174.1630  142.4480 C   0  0  0  0  0  0  0  0  0  0  0  0
  192.7820  174.0750  143.0290 C   0  0  0  0  0  0  0  0  0  0  0  0
  197.4580  174.5720  143.8880 S   0  0  0  0  0  0  0  0  0  0  0  0
  188.1910  175.6660  147.2630 S   0  0  0  0  0  0  0  0  0  0  0  0
  188.7020  176.2640  144.5220 C   0  0  2  0  0  3  0  0  0  0  0  0
  196.3530  175.8120  144.2120 C   0  0  0  0  0  3  0  0  0  0  0  0
  189.4900  176.8560  146.7820 C   0  0  0  0  0  2  0  0  0  0  0  0
  191.5890  172.0950  142.0760 C   0  0  0  0  0  3  0  0  0  0  0  0
  191.5630  173.4250  142.5210 C   0  0  0  0  0  0  0  0  0  0  0  0
  193.9720  173.4140  142.9400 N   0  0  0  0  0  0  0  0  0  0  0  0
  191.0110  176.0540  145.1820 C   0  0  0  0  0  2  0  0  0  0  0  0
  193.8570  177.1660  144.3880 O   0  0  0  0  0  0  0  0  0  0  0  0
  196.7120  172.0710  142.8110 C   0  0  0  0  0  1  0  0  0  0  0  0
  192.7320  175.3560  143.5380 N   0  0  0  0  0  0  0  0  0  0  0  0
  195.1150  174.0120  143.3430 C   0  0  0  0  0  0  0  0  0  0  0  0
  187.4870  178.3360  144.2990 O   0  0  0  0  0  0  0  0  0  0  0  0
  186.1790  178.8240  144.2880 C   0  0  0  0  0  2  0  0  0  0  0  0
  185.5740  178.5950  142.9480 C   0  0  0  0  0  0  0  0  0  0  0  0
  186.2880  178.6660  141.9150 O   0  0  0  0  0  0  0  0  0  0  0  0
  184.1970  178.2550  142.8380 N   0  0  0  0  0  1  0  0  0  0  0  0
  1 16  1  0  0  0  0
  2 23  1  1  0  0  0
  3  4  2  0  0  0  0
  3 11  1  0  0  0  0
  4 20  1  0  0  0  0
  5 24  2  0  0  0  0
  6  5  1  0  0  0  0
  6 18  2  0  0  0  0
  7 23  1  1  0  0  0
  7 19  1  0  0  0  0
  9 27  2  0  0  0  0
  9 15  1  0  0  0  0
 10 28  1  1  0  0  0
 10  1  1  0  0  0  0
 11 13  2  0  0  0  0
 12  8  1  0  0  0  0
 12  2  1  0  0  0  0
 13 21  1  0  0  0  0
 13 12  1  0  0  0  0
 14 26  1  0  0  0  0
 15 18  1  0  0  0  0
 17  8  1  6  0  0  0
 17 10  1  0  0  0  0
 17  7  1  0  0  0  0
 19 16  1  0  0  0  0
 20 21  2  0  0  0  0
 21 14  1  0  0  0  0
 22 14  2  0  0  0  0
 22 27  1  0  0  0  0
 25  9  1  0  0  0  0
 26  2  1  0  0  0  0
 26  5  1  0  0  0  0
 27  6  1  0  0  0  0
 29 28  1  0  0  0  0
 30 29  1  0  0  0  0
 31 30  2  0  0  0  0
 32 30  1  0  0  0  0
M  END
>  <MODEL>
9

>  <REMARK>
 VINA RESULT:      -6.5      2.672      8.161
  Name = 
  3 active torsions:
  status: ('A' for Active; 'I' for Inactive)
    1  A    between atoms: C_10  and  O_20
    2  A    between atoms: O_20  and  C_29
    3  A    between atoms: C_29  and  C_30
                            x       y       z     vdW  Elec       q    Type
                         _______ _______ _______ _____ _____    ______ ____

>  <TORSDO>
F 3

$$$$
