=
 OpenBabel11112416133D

 30 35  0  0  1  0  0  0  0  0999 V2000
  186.5390  177.6830  143.6840 C   0  0  0  0  0  0  0  0  0  0  0  0
  184.7710  178.7420  145.1010 C   0  0  0  0  0  0  0  0  0  0  0  0
  188.3510  175.8640  147.0970 C   0  0  0  0  0  2  0  0  0  0  0  0
  187.6780  176.8320  143.5720 C   0  0  0  0  0  0  0  0  0  0  0  0
  186.0570  178.4050  142.4560 C   0  0  0  0  0  2  0  0  0  0  0  0
  187.5960  176.2880  139.9630 O   0  0  0  0  0  0  0  0  0  0  0  0
  190.5500  176.1650  142.7670 C   0  0  1  0  0  3  0  0  0  0  0  0
  187.3150  176.7560  141.1020 C   0  0  0  0  0  0  0  0  0  0  0  0
  190.5500  175.5470  144.1070 C   0  0  0  0  0  0  0  0  0  0  0  0
  189.5110  175.1650  146.3840 C   0  0  1  0  0  3  0  0  0  0  0  0
  186.1510  177.5670  141.2690 N   0  0  0  0  0  0  0  0  0  0  0  0
  188.1510  176.4640  142.2390 N   0  0  0  0  0  0  0  0  0  0  0  0
  184.2060  178.9370  146.3640 C   0  0  0  0  0  3  0  0  0  0  0  0
  191.6520  174.8460  144.3260 C   0  0  0  0  0  3  0  0  0  0  0  0
  191.8500  175.6740  142.2200 C   0  0  0  0  0  3  0  0  0  0  0  0
  184.1640  179.3430  144.0470 F   0  0  0  0  0  0  0  0  0  0  0  0
  187.6190  176.5440  145.9900 C   0  0  0  0  0  0  0  0  0  0  0  0
  184.7630  178.3400  147.4920 C   0  0  0  0  0  3  0  0  0  0  0  0
  185.9250  177.9290  144.9480 C   0  0  0  0  0  0  0  0  0  0  0  0
  188.2310  176.3250  144.7810 C   0  0  0  0  0  0  0  0  0  0  0  0
  189.3470  173.6610  146.5120 C   0  0  0  0  0  1  0  0  0  0  0  0
  189.4170  175.5580  144.9780 N   0  0  0  0  0  0  0  0  0  0  0  0
  192.4780  174.9410  143.1300 C   0  0  0  0  0  3  0  0  0  0  0  0
  189.0700  174.1780  142.0380 C   0  0  0  0  0  1  0  0  0  0  0  0
  185.8940  177.5390  147.3650 C   0  0  0  0  0  3  0  0  0  0  0  0
  186.4770  177.3290  146.1090 C   0  0  0  0  0  0  0  0  0  0  0  0
  189.3550  175.6790  141.9590 C   0  0  2  0  0  3  0  0  0  0  0  0
  185.1910  177.7010  140.1740 C   0  0  0  0  0  2  0  0  0  0  0  0
  183.0230  178.0470  140.4000 C   0  0  0  0  0  1  0  0  0  0  0  0
  184.2530  178.7010  140.4410 O   0  0  0  0  0  0  0  0  0  0  0  0
  1 19  1  0  0  0  0
  2 13  1  0  0  0  0
  4  1  2  0  0  0  0
  4 20  1  0  0  0  0
  5  1  1  0  0  0  0
  6  8  2  0  0  0  0
  7 15  1  6  0  0  0
  7  9  1  0  0  0  0
  8 11  1  0  0  0  0
  8 12  1  0  0  0  0
  9 14  2  0  0  0  0
  9 22  1  0  0  0  0
 10 21  1  6  0  0  0
 10  3  1  0  0  0  0
 11  5  1  0  0  0  0
 12  4  1  0  0  0  0
 13 18  2  0  0  0  0
 15 23  2  0  0  0  0
 16  2  1  0  0  0  0
 17 26  1  0  0  0  0
 17  3  1  0  0  0  0
 19  2  2  0  0  0  0
 19 26  1  0  0  0  0
 20 22  1  0  0  0  0
 20 17  2  0  0  0  0
 22 10  1  0  0  0  0
 23 14  1  0  0  0  0
 25 18  1  0  0  0  0
 26 25  2  0  0  0  0
 27 24  1  1  0  0  0
 27 12  1  0  0  0  0
 27  7  1  0  0  0  0
 28 30  1  0  0  0  0
 28 11  1  0  0  0  0
 29 30  1  0  0  0  0
M  END
>  <MODEL>
1

>  <REMARK>
 VINA RESULT:      -8.8      0.000      0.000
  Name = 
  2 active torsions:
  status: ('A' for Active; 'I' for Inactive)
    1  A    between atoms: N_11  and  C_28
    2  A    between atoms: C_28  and  O_30
                            x       y       z     vdW  Elec       q    Type
                         _______ _______ _______ _____ _____    ______ ____

>  <TORSDO>
F 2

$$$$
=
 OpenBabel11112416133D

 30 35  0  0  1  0  0  0  0  0999 V2000
  188.4770  176.1470  143.1300 C   0  0  0  0  0  0  0  0  0  0  0  0
  186.1380  176.9640  143.4720 C   0  0  0  0  0  0  0  0  0  0  0  0
  189.5540  177.1950  147.1280 C   0  0  0  0  0  2  0  0  0  0  0  0
  189.7800  175.8950  143.6530 C   0  0  0  0  0  0  0  0  0  0  0  0
  188.2270  175.8910  141.6700 C   0  0  0  0  0  2  0  0  0  0  0  0
  190.9800  173.6310  141.0530 O   0  0  0  0  0  0  0  0  0  0  0  0
  192.8270  176.1290  143.6900 C   0  0  1  0  0  3  0  0  0  0  0  0
  190.2420  174.4500  141.6690 C   0  0  0  0  0  0  0  0  0  0  0  0
  192.5760  176.3290  145.1300 C   0  0  0  0  0  0  0  0  0  0  0  0
  191.0220  176.7650  147.0800 C   0  0  1  0  0  3  0  0  0  0  0  0
  188.9100  174.6900  141.2110 N   0  0  0  0  0  0  0  0  0  0  0  0
  190.7270  175.1320  142.8420 N   0  0  0  0  0  0  0  0  0  0  0  0
  185.1760  177.5210  144.3190 C   0  0  0  0  0  3  0  0  0  0  0  0
  193.7010  176.3430  145.8280 C   0  0  0  0  0  3  0  0  0  0  0  0
  194.3140  175.9980  143.6690 C   0  0  0  0  0  3  0  0  0  0  0  0
  185.7520  176.6510  142.2100 F   0  0  0  0  0  0  0  0  0  0  0  0
  189.0490  176.8660  145.7640 C   0  0  0  0  0  0  0  0  0  0  0  0
  185.4930  177.8540  145.6330 C   0  0  0  0  0  3  0  0  0  0  0  0
  187.4560  176.7250  143.9420 C   0  0  0  0  0  0  0  0  0  0  0  0
  190.0430  176.3350  144.9800 C   0  0  0  0  0  0  0  0  0  0  0  0
  191.2400  175.6110  148.0430 C   0  0  0  0  0  1  0  0  0  0  0  0
  191.2690  176.3210  145.7090 N   0  0  0  0  0  0  0  0  0  0  0  0
  194.8010  176.1450  144.8940 C   0  0  0  0  0  3  0  0  0  0  0  0
  192.2450  173.6470  144.1070 C   0  0  0  0  0  1  0  0  0  0  0  0
  186.7800  177.6300  146.1140 C   0  0  0  0  0  3  0  0  0  0  0  0
  187.7600  177.0700  145.2850 C   0  0  0  0  0  0  0  0  0  0  0  0
  192.1230  174.8720  143.1990 C   0  0  2  0  0  3  0  0  0  0  0  0
  188.3410  173.8570  140.1510 C   0  0  0  0  0  2  0  0  0  0  0  0
  188.6530  173.6020  137.9810 C   0  0  0  0  0  1  0  0  0  0  0  0
  188.2870  174.5480  138.9380 O   0  0  0  0  0  0  0  0  0  0  0  0
  1  4  2  0  0  0  0
  1 19  1  0  0  0  0
  2 19  2  0  0  0  0
  2 13  1  0  0  0  0
  4 20  1  0  0  0  0
  5  1  1  0  0  0  0
  6  8  2  0  0  0  0
  7 15  1  1  0  0  0
  7  9  1  0  0  0  0
  8 12  1  0  0  0  0
  9 22  1  0  0  0  0
  9 14  2  0  0  0  0
 10  3  1  0  0  0  0
 10 21  1  1  0  0  0
 11  8  1  0  0  0  0
 11  5  1  0  0  0  0
 12 27  1  0  0  0  0
 12  4  1  0  0  0  0
 13 18  2  0  0  0  0
 15 23  2  0  0  0  0
 16  2  1  0  0  0  0
 17  3  1  0  0  0  0
 18 25  1  0  0  0  0
 19 26  1  0  0  0  0
 20 22  1  0  0  0  0
 20 17  2  0  0  0  0
 22 10  1  0  0  0  0
 23 14  1  0  0  0  0
 26 17  1  0  0  0  0
 26 25  2  0  0  0  0
 27  7  1  0  0  0  0
 27 24  1  1  0  0  0
 28 11  1  0  0  0  0
 29 30  1  0  0  0  0
 30 28  1  0  0  0  0
M  END
>  <MODEL>
2

>  <REMARK>
 VINA RESULT:      -8.4      2.284      3.332
  Name = 
  2 active torsions:
  status: ('A' for Active; 'I' for Inactive)
    1  A    between atoms: N_11  and  C_28
    2  A    between atoms: C_28  and  O_30
                            x       y       z     vdW  Elec       q    Type
                         _______ _______ _______ _____ _____    ______ ____

>  <TORSDO>
F 2

$$$$
=
 OpenBabel11112416133D

 30 35  0  0  1  0  0  0  0  0999 V2000
  187.7460  176.2830  145.7990 C   0  0  0  0  0  0  0  0  0  0  0  0
  186.0790  177.5210  147.1940 C   0  0  0  0  0  0  0  0  0  0  0  0
  185.7360  177.3960  142.1990 C   0  0  0  0  0  2  0  0  0  0  0  0
  188.2330  175.9030  144.5130 C   0  0  0  0  0  0  0  0  0  0  0  0
  188.4230  175.7210  147.0190 C   0  0  0  0  0  2  0  0  0  0  0  0
  191.5740  174.8130  145.4970 O   0  0  0  0  0  0  0  0  0  0  0  0
  189.1130  173.8980  142.3820 C   0  0  1  0  0  3  0  0  0  0  0  0
  190.3780  175.2090  145.5860 C   0  0  0  0  0  0  0  0  0  0  0  0
  188.3110  174.7910  141.5220 C   0  0  0  0  0  0  0  0  0  0  0  0
  186.6480  176.6730  141.2050 C   0  0  1  0  0  3  0  0  0  0  0  0
  189.8670  175.6500  146.8450 N   0  0  0  0  0  0  0  0  0  0  0  0
  189.5290  175.2340  144.4230 N   0  0  0  0  0  0  0  0  0  0  0  0
  184.9400  178.3260  147.2650 C   0  0  0  0  0  3  0  0  0  0  0  0
  188.4410  174.4870  140.2410 C   0  0  0  0  0  3  0  0  0  0  0  0
  189.7670  173.0240  141.3630 C   0  0  0  0  0  3  0  0  0  0  0  0
  186.6820  177.1890  148.3630 F   0  0  0  0  0  0  0  0  0  0  0  0
  186.3480  177.0870  143.5230 C   0  0  0  0  0  0  0  0  0  0  0  0
  184.2760  178.7220  146.1070 C   0  0  0  0  0  3  0  0  0  0  0  0
  186.5800  177.0940  145.9360 C   0  0  0  0  0  0  0  0  0  0  0  0
  187.4520  176.2840  143.3860 C   0  0  0  0  0  0  0  0  0  0  0  0
  187.3510  177.6970  140.3310 C   0  0  0  0  0  1  0  0  0  0  0  0
  187.6310  175.9490  142.0110 N   0  0  0  0  0  0  0  0  0  0  0  0
  189.3560  173.3570  140.1470 C   0  0  0  0  0  3  0  0  0  0  0  0
  190.8680  175.7930  142.4210 C   0  0  0  0  0  1  0  0  0  0  0  0
  184.7490  178.3140  144.8630 C   0  0  0  0  0  3  0  0  0  0  0  0
  185.8900  177.5080  144.7670 C   0  0  0  0  0  0  0  0  0  0  0  0
  190.1190  174.7050  143.1910 C   0  0  2  0  0  3  0  0  0  0  0  0
  190.7720  175.8190  147.9820 C   0  0  0  0  0  2  0  0  0  0  0  0
  191.4750  177.5900  149.0960 C   0  0  0  0  0  1  0  0  0  0  0  0
  191.5450  176.9750  147.8470 O   0  0  0  0  0  0  0  0  0  0  0  0
  1 19  1  0  0  0  0
  1  5  1  0  0  0  0
  2 13  1  0  0  0  0
  2 16  1  0  0  0  0
  3 17  1  0  0  0  0
  4  1  2  0  0  0  0
  6  8  2  0  0  0  0
  7 15  1  6  0  0  0
  7 27  1  0  0  0  0
  8 11  1  0  0  0  0
  9 22  1  0  0  0  0
  9  7  1  0  0  0  0
 10 21  1  6  0  0  0
 10 22  1  0  0  0  0
 10  3  1  0  0  0  0
 11  5  1  0  0  0  0
 11 28  1  0  0  0  0
 12  4  1  0  0  0  0
 12  8  1  0  0  0  0
 14  9  2  0  0  0  0
 17 26  1  0  0  0  0
 18 13  2  0  0  0  0
 19  2  2  0  0  0  0
 20 17  2  0  0  0  0
 20  4  1  0  0  0  0
 22 20  1  0  0  0  0
 23 14  1  0  0  0  0
 23 15  2  0  0  0  0
 25 18  1  0  0  0  0
 26 25  2  0  0  0  0
 26 19  1  0  0  0  0
 27 24  1  6  0  0  0
 27 12  1  0  0  0  0
 30 28  1  0  0  0  0
 30 29  1  0  0  0  0
M  END
>  <MODEL>
3

>  <REMARK>
 VINA RESULT:      -8.4      2.684      5.257
  Name = 
  2 active torsions:
  status: ('A' for Active; 'I' for Inactive)
    1  A    between atoms: N_11  and  C_28
    2  A    between atoms: C_28  and  O_30
                            x       y       z     vdW  Elec       q    Type
                         _______ _______ _______ _____ _____    ______ ____

>  <TORSDO>
F 2

$$$$
=
 OpenBabel11112416133D

 30 35  0  0  1  0  0  0  0  0999 V2000
  187.1700  176.7000  142.1330 C   0  0  0  0  0  0  0  0  0  0  0  0
  185.1070  177.6080  141.0480 C   0  0  0  0  0  0  0  0  0  0  0  0
  185.8980  178.0760  145.9710 C   0  0  0  0  0  2  0  0  0  0  0  0
  187.9350  176.4620  143.3140 C   0  0  0  0  0  0  0  0  0  0  0  0
  187.7620  176.3200  140.8040 C   0  0  0  0  0  2  0  0  0  0  0  0
  190.2140  173.9400  141.9830 O   0  0  0  0  0  0  0  0  0  0  0  0
  190.4460  176.6150  145.0470 C   0  0  1  0  0  3  0  0  0  0  0  0
  189.3200  174.8310  142.0250 C   0  0  0  0  0  0  0  0  0  0  0  0
  189.4480  176.9520  146.0810 C   0  0  0  0  0  0  0  0  0  0  0  0
  187.1050  177.6040  146.7850 C   0  0  1  0  0  3  0  0  0  0  0  0
  188.4950  175.0650  140.8830 N   0  0  0  0  0  0  0  0  0  0  0  0
  189.1140  175.6040  143.2240 N   0  0  0  0  0  0  0  0  0  0  0  0
  183.8800  178.2650  141.1700 C   0  0  0  0  0  3  0  0  0  0  0  0
  189.9860  176.9990  147.2890 C   0  0  0  0  0  3  0  0  0  0  0  0
  191.6760  176.4430  145.8760 C   0  0  0  0  0  3  0  0  0  0  0  0
  185.4720  177.1930  139.8090 F   0  0  0  0  0  0  0  0  0  0  0  0
  186.2210  177.6390  144.5830 C   0  0  0  0  0  0  0  0  0  0  0  0
  183.4310  178.7060  142.4110 C   0  0  0  0  0  3  0  0  0  0  0  0
  185.9150  177.3770  142.1920 C   0  0  0  0  0  0  0  0  0  0  0  0
  187.4410  177.0130  144.5290 C   0  0  0  0  0  0  0  0  0  0  0  0
  186.6620  176.5360  147.7700 C   0  0  0  0  0  1  0  0  0  0  0  0
  188.0440  177.0320  145.8210 N   0  0  0  0  0  0  0  0  0  0  0  0
  191.4030  176.6870  147.1510 C   0  0  0  0  0  3  0  0  0  0  0  0
  189.5510  174.1990  145.2110 C   0  0  0  0  0  1  0  0  0  0  0  0
  184.2070  178.4920  143.5470 C   0  0  0  0  0  3  0  0  0  0  0  0
  185.4390  177.8330  143.4490 C   0  0  0  0  0  0  0  0  0  0  0  0
  190.0480  175.3390  144.3210 C   0  0  2  0  0  3  0  0  0  0  0  0
  188.5580  174.1550  139.7380 C   0  0  0  0  0  2  0  0  0  0  0  0
  188.5320  174.0680  137.5330 C   0  0  0  0  0  1  0  0  0  0  0  0
  187.9320  174.7060  138.6170 O   0  0  0  0  0  0  0  0  0  0  0  0
  1 19  2  0  0  0  0
  1  4  1  0  0  0  0
  2 13  2  0  0  0  0
  2 19  1  0  0  0  0
  3 10  1  0  0  0  0
  4 20  2  0  0  0  0
  5 11  1  0  0  0  0
  5  1  1  0  0  0  0
  6  8  2  0  0  0  0
  7 15  1  1  0  0  0
  7  9  1  0  0  0  0
  8 12  1  0  0  0  0
  9 14  2  0  0  0  0
 10 21  1  1  0  0  0
 11  8  1  0  0  0  0
 12  4  1  0  0  0  0
 12 27  1  0  0  0  0
 13 18  1  0  0  0  0
 15 23  2  0  0  0  0
 16  2  1  0  0  0  0
 17  3  1  0  0  0  0
 18 25  2  0  0  0  0
 19 26  1  0  0  0  0
 20 17  1  0  0  0  0
 20 22  1  0  0  0  0
 22  9  1  0  0  0  0
 22 10  1  0  0  0  0
 23 14  1  0  0  0  0
 26 25  1  0  0  0  0
 26 17  2  0  0  0  0
 27  7  1  0  0  0  0
 27 24  1  1  0  0  0
 28 11  1  0  0  0  0
 29 30  1  0  0  0  0
 30 28  1  0  0  0  0
M  END
>  <MODEL>
4

>  <REMARK>
 VINA RESULT:      -8.3      2.085      3.780
  Name = 
  2 active torsions:
  status: ('A' for Active; 'I' for Inactive)
    1  A    between atoms: N_11  and  C_28
    2  A    between atoms: C_28  and  O_30
                            x       y       z     vdW  Elec       q    Type
                         _______ _______ _______ _____ _____    ______ ____

>  <TORSDO>
F 2

$$$$
=
 OpenBabel11112416133D

 30 35  0  0  1  0  0  0  0  0999 V2000
  188.0240  175.8160  142.1970 C   0  0  0  0  0  0  0  0  0  0  0  0
  185.9910  177.2470  141.9160 C   0  0  0  0  0  0  0  0  0  0  0  0
  188.0870  176.5300  146.4070 C   0  0  0  0  0  2  0  0  0  0  0  0
  188.9950  175.2150  143.0520 C   0  0  0  0  0  0  0  0  0  0  0  0
  188.1650  175.6380  140.7110 C   0  0  0  0  0  2  0  0  0  0  0  0
  190.2790  172.7060  140.7330 O   0  0  0  0  0  0  0  0  0  0  0  0
  191.8390  174.6000  143.9850 C   0  0  1  0  0  3  0  0  0  0  0  0
  189.6330  173.6970  141.1740 C   0  0  0  0  0  0  0  0  0  0  0  0
  191.2300  174.8630  145.3040 C   0  0  0  0  0  0  0  0  0  0  0  0
  189.3340  175.7120  146.7510 C   0  0  1  0  0  3  0  0  0  0  0  0
  188.6130  174.2950  140.3720 N   0  0  0  0  0  0  0  0  0  0  0  0
  189.9060  174.2200  142.4880 N   0  0  0  0  0  0  0  0  0  0  0  0
  185.0020  178.0490  142.4910 C   0  0  0  0  0  3  0  0  0  0  0  0
  192.0550  174.5670  146.2950 C   0  0  0  0  0  3  0  0  0  0  0  0
  193.1750  174.0640  144.3840 C   0  0  0  0  0  3  0  0  0  0  0  0
  185.9340  177.0510  140.5740 F   0  0  0  0  0  0  0  0  0  0  0  0
  187.9470  176.3520  144.9340 C   0  0  0  0  0  0  0  0  0  0  0  0
  184.9860  178.2820  143.8630 C   0  0  0  0  0  3  0  0  0  0  0  0
  186.9960  176.6550  142.7250 C   0  0  0  0  0  0  0  0  0  0  0  0
  188.9540  175.5670  144.4290 C   0  0  0  0  0  0  0  0  0  0  0  0
  188.9420  174.5430  147.6380 C   0  0  0  0  0  1  0  0  0  0  0  0
  189.8560  175.2160  145.4770 N   0  0  0  0  0  0  0  0  0  0  0  0
  193.2920  174.0730  145.7050 C   0  0  0  0  0  3  0  0  0  0  0  0
  190.5280  172.3760  144.0120 C   0  0  0  0  0  1  0  0  0  0  0  0
  185.9620  177.7120  144.6760 C   0  0  0  0  0  3  0  0  0  0  0  0
  186.9620  176.9030  144.1210 C   0  0  0  0  0  0  0  0  0  0  0  0
  191.0100  173.5850  143.2110 C   0  0  2  0  0  3  0  0  0  0  0  0
  188.1900  173.6500  139.1280 C   0  0  0  0  0  2  0  0  0  0  0  0
  189.1950  174.1660  137.2320 C   0  0  0  0  0  1  0  0  0  0  0  0
  188.1550  174.5630  138.0710 O   0  0  0  0  0  0  0  0  0  0  0  0
  1 19  2  0  0  0  0
  1  4  1  0  0  0  0
  2 13  2  0  0  0  0
  2 19  1  0  0  0  0
  3 10  1  0  0  0  0
  4 20  2  0  0  0  0
  5  1  1  0  0  0  0
  6  8  2  0  0  0  0
  7 15  1  1  0  0  0
  7  9  1  0  0  0  0
  8 12  1  0  0  0  0
  9 22  1  0  0  0  0
  9 14  2  0  0  0  0
 10 21  1  1  0  0  0
 11  5  1  0  0  0  0
 11  8  1  0  0  0  0
 12  4  1  0  0  0  0
 12 27  1  0  0  0  0
 13 18  1  0  0  0  0
 15 23  2  0  0  0  0
 16  2  1  0  0  0  0
 17  3  1  0  0  0  0
 18 25  2  0  0  0  0
 19 26  1  0  0  0  0
 20 17  1  0  0  0  0
 20 22  1  0  0  0  0
 22 10  1  0  0  0  0
 23 14  1  0  0  0  0
 26 25  1  0  0  0  0
 26 17  2  0  0  0  0
 27  7  1  0  0  0  0
 27 24  1  1  0  0  0
 28 11  1  0  0  0  0
 29 30  1  0  0  0  0
 30 28  1  0  0  0  0
M  END
>  <MODEL>
5

>  <REMARK>
 VINA RESULT:      -8.1      2.277      3.433
  Name = 
  2 active torsions:
  status: ('A' for Active; 'I' for Inactive)
    1  A    between atoms: N_11  and  C_28
    2  A    between atoms: C_28  and  O_30
                            x       y       z     vdW  Elec       q    Type
                         _______ _______ _______ _____ _____    ______ ____

>  <TORSDO>
F 2

$$$$
=
 OpenBabel11112416133D

 30 35  0  0  1  0  0  0  0  0999 V2000
  188.0200  176.2540  142.2730 C   0  0  0  0  0  0  0  0  0  0  0  0
  186.2980  177.1530  140.6970 C   0  0  0  0  0  0  0  0  0  0  0  0
  186.2810  178.3580  145.5580 C   0  0  0  0  0  2  0  0  0  0  0  0
  188.5360  176.1460  143.5980 C   0  0  0  0  0  0  0  0  0  0  0  0
  188.7820  175.6070  141.1500 C   0  0  0  0  0  2  0  0  0  0  0  0
  190.6920  173.2420  143.1060 O   0  0  0  0  0  0  0  0  0  0  0  0
  190.7120  176.3560  145.7330 C   0  0  1  0  0  3  0  0  0  0  0  0
  189.9170  174.2050  142.8480 C   0  0  0  0  0  0  0  0  0  0  0  0
  189.5980  176.9490  146.4990 C   0  0  0  0  0  0  0  0  0  0  0  0
  187.2650  177.9200  146.6460 C   0  0  1  0  0  3  0  0  0  0  0  0
  189.3340  174.3200  141.5480 N   0  0  0  0  0  0  0  0  0  0  0  0
  189.6020  175.1810  143.8600 N   0  0  0  0  0  0  0  0  0  0  0  0
  185.1560  177.9310  140.4870 C   0  0  0  0  0  3  0  0  0  0  0  0
  189.9230  177.1460  147.7670 C   0  0  0  0  0  3  0  0  0  0  0  0
  191.7520  176.2120  146.7960 C   0  0  0  0  0  3  0  0  0  0  0  0
  186.8180  176.5070  139.6230 F   0  0  0  0  0  0  0  0  0  0  0  0
  186.7830  177.6690  144.3350 C   0  0  0  0  0  0  0  0  0  0  0  0
  184.5560  178.6110  141.5430 C   0  0  0  0  0  3  0  0  0  0  0  0
  186.8640  177.0430  141.9940 C   0  0  0  0  0  0  0  0  0  0  0  0
  187.9100  176.9340  144.6040 C   0  0  0  0  0  0  0  0  0  0  0  0
  186.5340  177.0750  147.6750 C   0  0  0  0  0  1  0  0  0  0  0  0
  188.2800  177.1120  145.9700 N   0  0  0  0  0  0  0  0  0  0  0  0
  191.2940  176.6890  147.9460 C   0  0  0  0  0  3  0  0  0  0  0  0
  189.5190  174.0920  146.0770 C   0  0  0  0  0  1  0  0  0  0  0  0
  185.0940  178.5180  142.8230 C   0  0  0  0  0  3  0  0  0  0  0  0
  186.2370  177.7430  143.0580 C   0  0  0  0  0  0  0  0  0  0  0  0
  190.2950  175.0180  145.1400 C   0  0  2  0  0  3  0  0  0  0  0  0
  189.4840  173.2320  140.5820 C   0  0  0  0  0  2  0  0  0  0  0  0
  188.4930  172.8380  138.6500 C   0  0  0  0  0  1  0  0  0  0  0  0
  188.2540  172.8780  140.0220 O   0  0  0  0  0  0  0  0  0  0  0  0
  1  4  1  0  0  0  0
  2 19  1  0  0  0  0
  3 10  1  0  0  0  0
  4 12  1  0  0  0  0
  4 20  2  0  0  0  0
  5 11  1  0  0  0  0
  5  1  1  0  0  0  0
  7  9  1  0  0  0  0
  7 15  1  1  0  0  0
  8  6  2  0  0  0  0
  8 12  1  0  0  0  0
  9 14  2  0  0  0  0
 10 21  1  1  0  0  0
 11  8  1  0  0  0  0
 12 27  1  0  0  0  0
 13  2  2  0  0  0  0
 13 18  1  0  0  0  0
 14 23  1  0  0  0  0
 15 23  2  0  0  0  0
 16  2  1  0  0  0  0
 17 20  1  0  0  0  0
 17  3  1  0  0  0  0
 18 25  2  0  0  0  0
 19  1  2  0  0  0  0
 19 26  1  0  0  0  0
 20 22  1  0  0  0  0
 22  9  1  0  0  0  0
 22 10  1  0  0  0  0
 25 26  1  0  0  0  0
 26 17  2  0  0  0  0
 27  7  1  0  0  0  0
 27 24  1  1  0  0  0
 28 11  1  0  0  0  0
 29 30  1  0  0  0  0
 30 28  1  0  0  0  0
M  END
>  <MODEL>
6

>  <REMARK>
 VINA RESULT:      -8.0      2.448      4.432
  Name = 
  2 active torsions:
  status: ('A' for Active; 'I' for Inactive)
    1  A    between atoms: N_11  and  C_28
    2  A    between atoms: C_28  and  O_30
                            x       y       z     vdW  Elec       q    Type
                         _______ _______ _______ _____ _____    ______ ____

>  <TORSDO>
F 2

$$$$
=
 OpenBabel11112416133D

 30 35  0  0  1  0  0  0  0  0999 V2000
  188.1580  175.6860  142.4990 C   0  0  0  0  0  0  0  0  0  0  0  0
  190.0180  174.1990  141.7350 C   0  0  0  0  0  0  0  0  0  0  0  0
  189.7690  175.8680  146.4500 C   0  0  0  0  0  2  0  0  0  0  0  0
  187.5510  176.4670  143.5270 C   0  0  0  0  0  0  0  0  0  0  0  0
  187.4440  175.5520  141.1820 C   0  0  0  0  0  2  0  0  0  0  0  0
  185.3060  178.4550  141.4470 O   0  0  0  0  0  0  0  0  0  0  0  0
  185.2510  177.3050  145.3560 C   0  0  1  0  0  3  0  0  0  0  0  0
  186.1380  177.5680  141.7880 C   0  0  0  0  0  0  0  0  0  0  0  0
  186.3370  177.3140  146.3550 C   0  0  0  0  0  0  0  0  0  0  0  0
  188.6960  176.7580  147.0840 C   0  0  1  0  0  3  0  0  0  0  0  0
  186.8100  176.8020  140.7870 N   0  0  0  0  0  0  0  0  0  0  0  0
  186.4290  177.3350  143.1800 N   0  0  0  0  0  0  0  0  0  0  0  0
  191.2050  173.5200  142.0250 C   0  0  0  0  0  3  0  0  0  0  0  0
  185.9380  177.8230  147.5100 C   0  0  0  0  0  3  0  0  0  0  0  0
  184.1380  177.9320  146.1290 C   0  0  0  0  0  3  0  0  0  0  0  0
  189.5420  174.1090  140.4680 F   0  0  0  0  0  0  0  0  0  0  0  0
  189.3180  175.7320  145.0360 C   0  0  0  0  0  0  0  0  0  0  0  0
  191.7640  173.5780  143.2980 C   0  0  0  0  0  3  0  0  0  0  0  0
  189.3640  174.9620  142.7380 C   0  0  0  0  0  0  0  0  0  0  0  0
  188.1440  176.4090  144.8200 C   0  0  0  0  0  0  0  0  0  0  0  0
  189.3190  178.0800  147.4970 C   0  0  0  0  0  1  0  0  0  0  0  0
  187.6930  176.9850  146.0440 N   0  0  0  0  0  0  0  0  0  0  0  0
  184.5390  178.2010  147.3650 C   0  0  0  0  0  3  0  0  0  0  0  0
  186.3160  179.4660  144.4270 C   0  0  0  0  0  1  0  0  0  0  0  0
  191.1390  174.3190  144.2970 C   0  0  0  0  0  3  0  0  0  0  0  0
  189.9500  175.0090  144.0290 C   0  0  0  0  0  0  0  0  0  0  0  0
  185.6460  178.1230  144.1350 C   0  0  2  0  0  3  0  0  0  0  0  0
  186.6760  177.1660  139.3760 C   0  0  0  0  0  2  0  0  0  0  0  0
  186.3110  176.2890  137.3840 C   0  0  0  0  0  1  0  0  0  0  0  0
  187.0670  176.1160  138.5420 O   0  0  0  0  0  0  0  0  0  0  0  0
  1 19  2  0  0  0  0
  1  4  1  0  0  0  0
  2 13  2  0  0  0  0
  2 19  1  0  0  0  0
  3 10  1  0  0  0  0
  4 20  2  0  0  0  0
  5  1  1  0  0  0  0
  6  8  2  0  0  0  0
  7 15  1  1  0  0  0
  7  9  1  0  0  0  0
  8 12  1  0  0  0  0
  9 14  2  0  0  0  0
 10 21  1  6  0  0  0
 11  5  1  0  0  0  0
 11  8  1  0  0  0  0
 12  4  1  0  0  0  0
 12 27  1  0  0  0  0
 13 18  1  0  0  0  0
 15 23  2  0  0  0  0
 16  2  1  0  0  0  0
 17  3  1  0  0  0  0
 18 25  2  0  0  0  0
 19 26  1  0  0  0  0
 20 17  1  0  0  0  0
 20 22  1  0  0  0  0
 22  9  1  0  0  0  0
 22 10  1  0  0  0  0
 23 14  1  0  0  0  0
 26 25  1  0  0  0  0
 26 17  2  0  0  0  0
 27 24  1  1  0  0  0
 27  7  1  0  0  0  0
 28 11  1  0  0  0  0
 29 30  1  0  0  0  0
 30 28  1  0  0  0  0
M  END
>  <MODEL>
7

>  <REMARK>
 VINA RESULT:      -7.7      2.082      5.423
  Name = 
  2 active torsions:
  status: ('A' for Active; 'I' for Inactive)
    1  A    between atoms: N_11  and  C_28
    2  A    between atoms: C_28  and  O_30
                            x       y       z     vdW  Elec       q    Type
                         _______ _______ _______ _____ _____    ______ ____

>  <TORSDO>
F 2

$$$$
=
 OpenBabel11112416133D

 30 35  0  0  1  0  0  0  0  0999 V2000
  188.8410  173.8030  141.8490 C   0  0  0  0  0  0  0  0  0  0  0  0
  190.3450  171.8060  141.9340 C   0  0  0  0  0  0  0  0  0  0  0  0
  189.8580  174.8840  145.8540 C   0  0  0  0  0  2  0  0  0  0  0  0
  188.3150  174.9720  142.4730 C   0  0  0  0  0  0  0  0  0  0  0  0
  188.3140  173.4100  140.4970 C   0  0  0  0  0  2  0  0  0  0  0  0
  186.9810  176.6200  139.5020 O   0  0  0  0  0  0  0  0  0  0  0  0
  186.0700  176.7910  143.4690 C   0  0  1  0  0  3  0  0  0  0  0  0
  187.4990  175.7360  140.2400 C   0  0  0  0  0  0  0  0  0  0  0  0
  186.9660  176.8920  144.6380 C   0  0  0  0  0  0  0  0  0  0  0  0
  188.9720  176.1260  145.9780 C   0  0  1  0  0  3  0  0  0  0  0  0
  188.0870  174.5740  139.6520 N   0  0  0  0  0  0  0  0  0  0  0  0
  187.5160  175.8970  141.6720 N   0  0  0  0  0  0  0  0  0  0  0  0
  191.2620  171.0260  142.6430 C   0  0  0  0  0  3  0  0  0  0  0  0
  186.5500  177.8070  145.4990 C   0  0  0  0  0  3  0  0  0  0  0  0
  185.0570  177.8410  143.7880 C   0  0  0  0  0  3  0  0  0  0  0  0
  190.0480  171.4210  140.6660 F   0  0  0  0  0  0  0  0  0  0  0  0
  189.5960  174.4060  144.4660 C   0  0  0  0  0  0  0  0  0  0  0  0
  191.6280  171.3660  143.9430 C   0  0  0  0  0  3  0  0  0  0  0  0
  189.7720  172.9610  142.5280 C   0  0  0  0  0  0  0  0  0  0  0  0
  188.6800  175.2040  143.8290 C   0  0  0  0  0  0  0  0  0  0  0  0
  189.8490  177.3550  146.1410 C   0  0  0  0  0  1  0  0  0  0  0  0
  188.2210  176.2140  144.7260 N   0  0  0  0  0  0  0  0  0  0  0  0
  185.3320  178.3970  144.9600 C   0  0  0  0  0  3  0  0  0  0  0  0
  187.7790  178.2880  142.2420 C   0  0  0  0  0  1  0  0  0  0  0  0
  191.0780  172.4940  144.5460 C   0  0  0  0  0  3  0  0  0  0  0  0
  190.1580  173.2910  143.8530 C   0  0  0  0  0  0  0  0  0  0  0  0
  186.8340  177.0860  142.1870 C   0  0  2  0  0  3  0  0  0  0  0  0
  188.2560  174.4960  138.2000 C   0  0  0  0  0  2  0  0  0  0  0  0
  189.5650  173.3280  136.8620 C   0  0  0  0  0  1  0  0  0  0  0  0
  188.5360  173.1900  137.7910 O   0  0  0  0  0  0  0  0  0  0  0  0
  1  4  2  0  0  0  0
  1 19  1  0  0  0  0
  2 19  2  0  0  0  0
  2 13  1  0  0  0  0
  3 10  1  0  0  0  0
  4 20  1  0  0  0  0
  5  1  1  0  0  0  0
  6  8  2  0  0  0  0
  7 15  1  1  0  0  0
  7  9  1  0  0  0  0
  8 12  1  0  0  0  0
  9 22  1  0  0  0  0
  9 14  2  0  0  0  0
 10 21  1  6  0  0  0
 11  8  1  0  0  0  0
 11  5  1  0  0  0  0
 12 27  1  0  0  0  0
 12  4  1  0  0  0  0
 13 18  2  0  0  0  0
 15 23  2  0  0  0  0
 16  2  1  0  0  0  0
 17  3  1  0  0  0  0
 18 25  1  0  0  0  0
 19 26  1  0  0  0  0
 20 17  2  0  0  0  0
 20 22  1  0  0  0  0
 22 10  1  0  0  0  0
 23 14  1  0  0  0  0
 26 17  1  0  0  0  0
 26 25  2  0  0  0  0
 27 24  1  1  0  0  0
 27  7  1  0  0  0  0
 28 11  1  0  0  0  0
 29 30  1  0  0  0  0
 30 28  1  0  0  0  0
M  END
>  <MODEL>
8

>  <REMARK>
 VINA RESULT:      -7.6      2.925      5.960
  Name = 
  2 active torsions:
  status: ('A' for Active; 'I' for Inactive)
    1  A    between atoms: N_11  and  C_28
    2  A    between atoms: C_28  and  O_30
                            x       y       z     vdW  Elec       q    Type
                         _______ _______ _______ _____ _____    ______ ____

>  <TORSDO>
F 2

$$$$
=
 OpenBabel11112416133D

 30 35  0  0  1  0  0  0  0  0999 V2000
  189.4810  175.1790  142.8400 C   0  0  0  0  0  0  0  0  0  0  0  0
  187.1650  176.0780  142.5490 C   0  0  0  0  0  0  0  0  0  0  0  0
  189.7930  176.9170  146.7290 C   0  0  0  0  0  2  0  0  0  0  0  0
  190.6400  175.0070  143.6540 C   0  0  0  0  0  0  0  0  0  0  0  0
  189.5130  174.6670  141.4270 C   0  0  0  0  0  2  0  0  0  0  0  0
  192.2160  172.2930  141.7900 O   0  0  0  0  0  0  0  0  0  0  0  0
  193.6260  175.2000  144.2730 C   0  0  1  0  0  3  0  0  0  0  0  0
  191.4120  173.2210  142.0900 C   0  0  0  0  0  0  0  0  0  0  0  0
  193.1040  175.6610  145.5740 C   0  0  0  0  0  0  0  0  0  0  0  0
  191.2180  176.4650  147.0580 C   0  0  1  0  0  3  0  0  0  0  0  0
  190.2120  173.3930  141.3340 N   0  0  0  0  0  0  0  0  0  0  0  0
  191.6890  174.0970  143.1990 N   0  0  0  0  0  0  0  0  0  0  0  0
  186.0840  176.7930  143.0700 C   0  0  0  0  0  3  0  0  0  0  0  0
  194.0670  175.7850  146.4740 C   0  0  0  0  0  3  0  0  0  0  0  0
  195.0790  175.0460  144.5800 C   0  0  0  0  0  3  0  0  0  0  0  0
  187.0220  175.5470  141.3080 F   0  0  0  0  0  0  0  0  0  0  0  0
  189.5540  176.3550  145.3690 C   0  0  0  0  0  0  0  0  0  0  0  0
  186.1490  177.3530  144.3430 C   0  0  0  0  0  3  0  0  0  0  0  0
  188.3500  175.9100  143.3130 C   0  0  0  0  0  0  0  0  0  0  0  0
  190.6550  175.6760  144.9100 C   0  0  0  0  0  0  0  0  0  0  0  0
  191.1810  175.5010  148.2310 C   0  0  0  0  0  1  0  0  0  0  0  0
  191.7100  175.7770  145.8650 N   0  0  0  0  0  0  0  0  0  0  0  0
  195.3200  175.4060  145.8330 C   0  0  0  0  0  3  0  0  0  0  0  0
  192.8480  172.8440  144.9870 C   0  0  0  0  0  1  0  0  0  0  0  0
  187.3020  177.2010  145.1090 C   0  0  0  0  0  3  0  0  0  0  0  0
  188.3970  176.4870  144.6080 C   0  0  0  0  0  0  0  0  0  0  0  0
  192.9710  173.8850  143.8740 C   0  0  2  0  0  3  0  0  0  0  0  0
  189.8240  172.3900  140.3410 C   0  0  0  0  0  2  0  0  0  0  0  0
  189.2980  172.4200  138.1980 C   0  0  0  0  0  1  0  0  0  0  0  0
  190.3400  172.6990  139.0800 O   0  0  0  0  0  0  0  0  0  0  0  0
  1 19  2  0  0  0  0
  1  4  1  0  0  0  0
  2 13  2  0  0  0  0
  2 19  1  0  0  0  0
  3 10  1  0  0  0  0
  4 20  2  0  0  0  0
  5  1  1  0  0  0  0
  6  8  2  0  0  0  0
  7 15  1  1  0  0  0
  7  9  1  0  0  0  0
  8 12  1  0  0  0  0
  9 22  1  0  0  0  0
  9 14  2  0  0  0  0
 10 21  1  1  0  0  0
 11  5  1  0  0  0  0
 11  8  1  0  0  0  0
 12  4  1  0  0  0  0
 12 27  1  0  0  0  0
 13 18  1  0  0  0  0
 15 23  2  0  0  0  0
 16  2  1  0  0  0  0
 17  3  1  0  0  0  0
 18 25  2  0  0  0  0
 19 26  1  0  0  0  0
 20 17  1  0  0  0  0
 20 22  1  0  0  0  0
 22 10  1  0  0  0  0
 23 14  1  0  0  0  0
 26 25  1  0  0  0  0
 26 17  2  0  0  0  0
 27  7  1  0  0  0  0
 27 24  1  1  0  0  0
 28 11  1  0  0  0  0
 29 30  1  0  0  0  0
 30 28  1  0  0  0  0
M  END
>  <MODEL>
9

>  <REMARK>
 VINA RESULT:      -7.4      3.060      4.586
  Name = 
  2 active torsions:
  status: ('A' for Active; 'I' for Inactive)
    1  A    between atoms: N_11  and  C_28
    2  A    between atoms: C_28  and  O_30
                            x       y       z     vdW  Elec       q    Type
                         _______ _______ _______ _____ _____    ______ ____

>  <TORSDO>
F 2

$$$$
