=
 OpenBabel11112417393D

 28 32  0  0  1  0  0  0  0  0999 V2000
  186.2010  176.9500  143.8240 C   0  0  0  0  0  0  0  0  0  0  0  0
  189.7960  173.9650  144.8300 C   0  0  0  0  0  1  0  0  0  0  0  0
  190.8160  176.3660  147.9540 O   0  0  0  0  0  0  0  0  0  0  0  0
  186.6210  178.6660  141.6490 C   0  0  0  0  0  3  0  0  0  0  0  0
  191.4990  176.6590  145.7230 N   0  0  0  0  0  0  0  0  0  0  0  0
  185.9510  176.0640  145.0100 C   0  0  0  0  0  2  0  0  0  0  0  0
  188.4120  173.8240  142.9080 O   0  0  0  0  0  1  0  0  0  0  0  0
  189.6250  174.3440  143.3610 C   0  0  1  0  0  0  0  0  0  0  0  0
  192.0700  174.3680  142.8560 C   0  0  0  0  0  0  0  0  0  0  0  0
  189.6260  175.8680  143.1410 C   0  0  2  0  0  3  0  0  0  0  0  0
  186.5290  178.5470  147.7530 C   0  0  0  0  0  1  0  0  0  0  0  0
  189.5020  177.6510  144.8680 C   0  0  2  0  0  3  0  0  0  0  0  0
  192.1460  175.6210  143.1890 N   0  0  0  0  0  0  0  0  0  0  0  0
  190.7520  173.7250  142.5420 C   0  0  0  0  0  2  0  0  0  0  0  0
  186.8620  177.6620  146.5690 C   0  0  1  0  0  3  0  0  0  0  0  0
  187.5140  177.2170  143.3840 C   0  0  0  0  0  0  0  0  0  0  0  0
  190.5750  176.7750  146.7870 C   0  0  0  0  0  0  0  0  0  0  0  0
  193.2600  173.5950  142.7630 N   0  0  0  0  0  1  0  0  0  0  0  0
  188.0850  176.8080  146.8880 C   0  0  0  0  0  2  0  0  0  0  0  0
  187.7120  178.0830  142.2970 C   0  0  0  0  0  3  0  0  0  0  0  0
  185.1140  177.5410  143.1720 C   0  0  0  0  0  3  0  0  0  0  0  0
  185.3220  178.3940  142.0860 C   0  0  0  0  0  3  0  0  0  0  0  0
  185.7030  176.8370  146.2310 N   0  0  0  0  0  2  0  0  0  0  0  0
  190.9840  177.3710  144.5610 C   0  0  2  0  0  3  0  0  0  0  0  0
  189.3540  177.5130  146.4060 C   0  0  2  0  0  3  0  0  0  0  0  0
  190.9970  176.5320  143.2830 C   0  0  2  0  0  3  0  0  0  0  0  0
  192.9170  176.4160  145.9440 C   0  0  0  0  0  1  0  0  0  0  0  0
  188.6900  176.6050  144.0920 C   0  0  1  0  0  3  0  0  0  0  0  0
  1  6  1  0  0  0  0
  4 22  2  0  0  0  0
  4 20  1  0  0  0  0
  5 27  1  0  0  0  0
  5 17  1  0  0  0  0
  6 23  1  0  0  0  0
  7  8  1  0  0  0  0
  8  2  1  1  0  0  0
  9 13  2  0  0  0  0
 10 26  1  0  0  0  0
 10  8  1  0  0  0  0
 10 28  1  0  0  0  0
 12 25  1  0  0  0  0
 13 26  1  0  0  0  0
 14  9  1  0  0  0  0
 14  8  1  0  0  0  0
 15 19  1  0  0  0  0
 15 11  1  0  0  0  0
 16  1  1  0  0  0  0
 16 28  1  0  0  0  0
 17  3  2  0  0  0  0
 18  9  1  0  0  0  0
 20 16  2  0  0  0  0
 21  1  2  0  0  0  0
 22 21  1  0  0  0  0
 23 15  1  0  0  0  0
 24 12  1  0  0  0  0
 24  5  1  0  0  0  0
 25 17  1  0  0  0  0
 25 19  1  0  0  0  0
 26 24  1  0  0  0  0
 28 12  1  0  0  0  0
M  END
>  <MODEL>
1

>  <REMARK>
 VINA RESULT:      -8.3      0.000      0.000
  Name = 
  0 active torsions:
  status: ('A' for Active; 'I' for Inactive)
                            x       y       z     vdW  Elec       q    Type
                         _______ _______ _______ _____ _____    ______ ____

>  <TORSDO>
F 0

$$$$
=
 OpenBabel11112417393D

 28 32  0  0  1  0  0  0  0  0999 V2000
  186.2800  178.6300  145.4660 C   0  0  0  0  0  0  0  0  0  0  0  0
  190.0090  177.9210  142.5610 C   0  0  0  0  0  1  0  0  0  0  0  0
  187.4840  176.2240  139.8560 O   0  0  0  0  0  0  0  0  0  0  0  0
  186.0610  176.8480  147.6180 C   0  0  0  0  0  3  0  0  0  0  0  0
  188.5020  175.1140  141.6630 N   0  0  0  0  0  0  0  0  0  0  0  0
  186.3500  179.5860  144.3100 C   0  0  0  0  0  2  0  0  0  0  0  0
  190.1580  178.7130  144.7920 O   0  0  0  0  0  1  0  0  0  0  0  0
  190.2150  177.5480  144.0270 C   0  0  1  0  0  0  0  0  0  0  0  0
  191.6680  175.5750  143.5480 C   0  0  0  0  0  0  0  0  0  0  0  0
  189.1490  176.5620  144.5410 C   0  0  2  0  0  3  0  0  0  0  0  0
  183.6840  178.1060  142.1360 C   0  0  0  0  0  1  0  0  0  0  0  0
  187.0510  175.8670  143.4040 C   0  0  2  0  0  3  0  0  0  0  0  0
  190.6270  174.8010  143.4800 N   0  0  0  0  0  0  0  0  0  0  0  0
  191.5940  176.9220  144.2030 C   0  0  0  0  0  2  0  0  0  0  0  0
  184.9960  178.1850  142.8890 C   0  0  1  0  0  3  0  0  0  0  0  0
  186.9350  177.3820  145.4130 C   0  0  0  0  0  0  0  0  0  0  0  0
  187.5110  175.9410  141.0840 C   0  0  0  0  0  0  0  0  0  0  0  0
  192.9090  175.1290  143.0150 N   0  0  0  0  0  1  0  0  0  0  0  0
  186.1520  177.8400  141.9570 C   0  0  0  0  0  2  0  0  0  0  0  0
  186.8130  176.4950  146.4950 C   0  0  0  0  0  3  0  0  0  0  0  0
  185.5250  178.9740  146.5920 C   0  0  0  0  0  3  0  0  0  0  0  0
  185.4190  178.0880  147.6660 C   0  0  0  0  0  3  0  0  0  0  0  0
  185.1520  179.5190  143.4680 N   0  0  0  0  0  2  0  0  0  0  0  0
  188.1560  174.8530  143.0540 C   0  0  2  0  0  3  0  0  0  0  0  0
  186.4690  176.3460  142.0490 C   0  0  2  0  0  3  0  0  0  0  0  0
  189.3040  175.1300  144.0250 C   0  0  2  0  0  3  0  0  0  0  0  0
  189.3350  174.2230  140.8700 C   0  0  0  0  0  1  0  0  0  0  0  0
  187.7290  176.9930  144.1980 C   0  0  1  0  0  3  0  0  0  0  0  0
  1 21  1  0  0  0  0
  3 17  2  0  0  0  0
  4 22  1  0  0  0  0
  5 24  1  0  0  0  0
  6  1  1  0  0  0  0
  8  2  1  6  0  0  0
  8 14  1  0  0  0  0
  8 10  1  0  0  0  0
  8  7  1  0  0  0  0
  9 14  1  0  0  0  0
 11 15  1  0  0  0  0
 12 28  1  0  0  0  0
 13  9  2  0  0  0  0
 13 26  1  0  0  0  0
 15 23  1  0  0  0  0
 16  1  2  0  0  0  0
 16 20  1  0  0  0  0
 17  5  1  0  0  0  0
 17 25  1  0  0  0  0
 18  9  1  0  0  0  0
 19 25  1  0  0  0  0
 19 15  1  0  0  0  0
 20  4  2  0  0  0  0
 21 22  2  0  0  0  0
 23  6  1  0  0  0  0
 24 12  1  0  0  0  0
 24 26  1  0  0  0  0
 25 12  1  0  0  0  0
 26 10  1  0  0  0  0
 27  5  1  0  0  0  0
 28 10  1  0  0  0  0
 28 16  1  0  0  0  0
M  END
>  <MODEL>
2

>  <REMARK>
 VINA RESULT:      -8.2      2.051      4.511
  Name = 
  0 active torsions:
  status: ('A' for Active; 'I' for Inactive)
                            x       y       z     vdW  Elec       q    Type
                         _______ _______ _______ _____ _____    ______ ____

>  <TORSDO>
F 0

$$$$
=
 OpenBabel11112417393D

 28 32  0  0  1  0  0  0  0  0999 V2000
  188.9300  175.8460  145.7050 C   0  0  0  0  0  0  0  0  0  0  0  0
  192.4140  173.0150  144.0640 C   0  0  0  0  0  1  0  0  0  0  0  0
  195.1080  175.2520  146.1380 O   0  0  0  0  0  0  0  0  0  0  0  0
  187.9360  177.7280  143.8830 C   0  0  0  0  0  3  0  0  0  0  0  0
  194.2960  175.7370  143.9840 N   0  0  0  0  0  0  0  0  0  0  0  0
  189.4560  174.8680  146.7160 C   0  0  0  0  0  2  0  0  0  0  0  0
  190.1490  172.9250  143.3640 O   0  0  0  0  0  1  0  0  0  0  0  0
  191.3850  173.4830  143.0380 C   0  0  1  0  0  0  0  0  0  0  0  0
  193.0220  173.6850  141.1630 C   0  0  0  0  0  0  0  0  0  0  0  0
  191.2440  175.0160  143.0000 C   0  0  2  0  0  3  0  0  0  0  0  0
  191.5660  177.1880  148.7630 C   0  0  0  0  0  1  0  0  0  0  0  0
  192.1840  176.6670  144.6030 C   0  0  2  0  0  3  0  0  0  0  0  0
  193.2780  174.9150  141.4930 N   0  0  0  0  0  0  0  0  0  0  0  0
  191.7870  172.9880  141.6520 C   0  0  0  0  0  2  0  0  0  0  0  0
  191.1180  176.4070  147.5450 C   0  0  1  0  0  3  0  0  0  0  0  0
  189.7060  176.2190  144.5880 C   0  0  0  0  0  0  0  0  0  0  0  0
  194.2060  175.7260  145.3960 C   0  0  0  0  0  0  0  0  0  0  0  0
  193.9160  172.9910  140.3010 N   0  0  0  0  0  1  0  0  0  0  0  0
  192.2870  175.6060  146.9820 C   0  0  0  0  0  2  0  0  0  0  0  0
  189.1990  177.1670  143.6850 C   0  0  0  0  0  3  0  0  0  0  0  0
  187.6670  176.4160  145.8990 C   0  0  0  0  0  3  0  0  0  0  0  0
  187.1700  177.3510  144.9900 C   0  0  0  0  0  3  0  0  0  0  0  0
  189.9950  175.5410  147.9020 N   0  0  0  0  0  2  0  0  0  0  0  0
  193.1780  176.4960  143.4390 C   0  0  2  0  0  3  0  0  0  0  0  0
  193.0010  176.4160  145.8970 C   0  0  2  0  0  3  0  0  0  0  0  0
  192.4170  175.7480  142.3430 C   0  0  2  0  0  3  0  0  0  0  0  0
  195.5580  175.5630  143.2810 C   0  0  0  0  0  1  0  0  0  0  0  0
  191.0730  175.6300  144.3840 C   0  0  1  0  0  3  0  0  0  0  0  0
  1 21  1  0  0  0  0
  1  6  1  0  0  0  0
  4 22  1  0  0  0  0
  5 17  1  0  0  0  0
  6 23  1  0  0  0  0
  8  7  1  0  0  0  0
  8  2  1  1  0  0  0
  9 13  2  0  0  0  0
  9 14  1  0  0  0  0
 10  8  1  0  0  0  0
 10 28  1  0  0  0  0
 12 25  1  0  0  0  0
 13 26  1  0  0  0  0
 14  8  1  0  0  0  0
 15 23  1  0  0  0  0
 15 11  1  0  0  0  0
 16  1  2  0  0  0  0
 17 25  1  0  0  0  0
 17  3  2  0  0  0  0
 18  9  1  0  0  0  0
 19 15  1  0  0  0  0
 20  4  2  0  0  0  0
 20 16  1  0  0  0  0
 22 21  2  0  0  0  0
 24  5  1  0  0  0  0
 24 12  1  0  0  0  0
 25 19  1  0  0  0  0
 26 10  1  0  0  0  0
 26 24  1  0  0  0  0
 27  5  1  0  0  0  0
 28 16  1  0  0  0  0
 28 12  1  0  0  0  0
M  END
>  <MODEL>
3

>  <REMARK>
 VINA RESULT:      -7.5      2.209      3.334
  Name = 
  0 active torsions:
  status: ('A' for Active; 'I' for Inactive)
                            x       y       z     vdW  Elec       q    Type
                         _______ _______ _______ _____ _____    ______ ____

>  <TORSDO>
F 0

$$$$
=
 OpenBabel11112417393D

 28 32  0  0  1  0  0  0  0  0999 V2000
  189.3960  176.5220  144.8810 C   0  0  0  0  0  0  0  0  0  0  0  0
  193.9700  175.8560  143.6650 C   0  0  0  0  0  1  0  0  0  0  0  0
  192.7600  173.1280  140.8980 O   0  0  0  0  0  0  0  0  0  0  0  0
  188.5810  175.2910  147.2630 C   0  0  0  0  0  3  0  0  0  0  0  0
  193.1550  172.6860  143.1740 N   0  0  0  0  0  0  0  0  0  0  0  0
  189.7900  177.1740  143.5870 C   0  0  0  0  0  2  0  0  0  0  0  0
  193.2300  177.1660  145.4990 O   0  0  0  0  0  1  0  0  0  0  0  0
  193.6670  175.8860  145.1610 C   0  0  1  0  0  0  0  0  0  0  0  0
  195.3710  174.1620  145.7630 C   0  0  0  0  0  0  0  0  0  0  0  0
  192.5840  174.8670  145.5640 C   0  0  2  0  0  3  0  0  0  0  0  0
  188.2370  174.7520  141.1910 C   0  0  0  0  0  1  0  0  0  0  0  0
  191.1100  173.5440  144.0620 C   0  0  2  0  0  3  0  0  0  0  0  0
  194.5010  173.2130  145.5880 N   0  0  0  0  0  0  0  0  0  0  0  0
  194.9410  175.5880  145.9440 C   0  0  0  0  0  2  0  0  0  0  0  0
  189.1750  175.2490  142.2710 C   0  0  1  0  0  3  0  0  0  0  0  0
  190.1380  175.4410  145.4020 C   0  0  0  0  0  0  0  0  0  0  0  0
  192.3680  173.1530  142.0950 C   0  0  0  0  0  0  0  0  0  0  0  0
  196.7560  173.8420  145.8090 N   0  0  0  0  0  1  0  0  0  0  0  0
  190.6160  174.9160  141.9000 C   0  0  0  0  0  2  0  0  0  0  0  0
  189.7170  174.8290  146.5940 C   0  0  0  0  0  3  0  0  0  0  0  0
  188.2570  176.9760  145.5560 C   0  0  0  0  0  3  0  0  0  0  0  0
  187.8530  176.3650  146.7440 C   0  0  0  0  0  3  0  0  0  0  0  0
  188.9880  176.6870  142.4610 N   0  0  0  0  0  2  0  0  0  0  0  0
  192.3560  172.7010  144.3920 C   0  0  2  0  0  3  0  0  0  0  0  0
  191.0160  173.5720  142.5140 C   0  0  2  0  0  3  0  0  0  0  0  0
  193.0460  173.4090  145.5590 C   0  0  2  0  0  3  0  0  0  0  0  0
  194.2970  171.8050  142.9820 C   0  0  0  0  0  1  0  0  0  0  0  0
  191.3490  174.9320  144.6730 C   0  0  1  0  0  3  0  0  0  0  0  0
  1 16  2  0  0  0  0
  1 21  1  0  0  0  0
  3 17  2  0  0  0  0
  5 24  1  0  0  0  0
  6  1  1  0  0  0  0
  8  2  1  6  0  0  0
  8  7  1  0  0  0  0
  8 10  1  0  0  0  0
  8 14  1  0  0  0  0
  9 18  1  0  0  0  0
  9 14  1  0  0  0  0
 11 15  1  0  0  0  0
 12 24  1  0  0  0  0
 12 28  1  0  0  0  0
 13  9  2  0  0  0  0
 15 23  1  0  0  0  0
 16 20  1  0  0  0  0
 17 25  1  0  0  0  0
 17  5  1  0  0  0  0
 19 15  1  0  0  0  0
 19 25  1  0  0  0  0
 20  4  2  0  0  0  0
 21 22  2  0  0  0  0
 22  4  1  0  0  0  0
 23  6  1  0  0  0  0
 24 26  1  0  0  0  0
 25 12  1  0  0  0  0
 26 10  1  0  0  0  0
 26 13  1  0  0  0  0
 27  5  1  0  0  0  0
 28 16  1  0  0  0  0
 28 10  1  0  0  0  0
M  END
>  <MODEL>
4

>  <REMARK>
 VINA RESULT:      -7.4      2.683      5.275
  Name = 
  0 active torsions:
  status: ('A' for Active; 'I' for Inactive)
                            x       y       z     vdW  Elec       q    Type
                         _______ _______ _______ _____ _____    ______ ____

>  <TORSDO>
F 0

$$$$
=
 OpenBabel11112417393D

 28 32  0  0  1  0  0  0  0  0999 V2000
  188.3480  176.3370  144.1450 C   0  0  0  0  0  0  0  0  0  0  0  0
  192.9300  175.8290  142.8810 C   0  0  0  0  0  1  0  0  0  0  0  0
  192.0830  172.0560  141.6100 O   0  0  0  0  0  0  0  0  0  0  0  0
  187.8150  176.1270  146.8880 C   0  0  0  0  0  3  0  0  0  0  0  0
  192.6150  172.6690  143.8170 N   0  0  0  0  0  0  0  0  0  0  0  0
  188.5920  176.4290  142.6660 C   0  0  0  0  0  2  0  0  0  0  0  0
  192.0480  177.6800  144.0750 O   0  0  0  0  0  1  0  0  0  0  0  0
  192.6730  176.4450  144.2540 C   0  0  1  0  0  0  0  0  0  0  0  0
  194.6470  175.3760  145.3460 C   0  0  0  0  0  0  0  0  0  0  0  0
  191.7780  175.5590  145.1410 C   0  0  2  0  0  3  0  0  0  0  0  0
  187.3710  173.0410  141.6380 C   0  0  0  0  0  1  0  0  0  0  0  0
  190.4890  173.5450  144.4640 C   0  0  2  0  0  3  0  0  0  0  0  0
  193.9350  174.3360  145.6600 N   0  0  0  0  0  0  0  0  0  0  0  0
  194.0020  176.6750  144.9650 C   0  0  0  0  0  2  0  0  0  0  0  0
  188.2520  174.0660  142.3230 C   0  0  1  0  0  3  0  0  0  0  0  0
  189.2690  175.6840  144.9910 C   0  0  0  0  0  0  0  0  0  0  0  0
  191.7300  172.5310  142.7220 C   0  0  0  0  0  0  0  0  0  0  0  0
  196.0660  175.2910  145.3880 N   0  0  0  0  0  1  0  0  0  0  0  0
  189.7150  173.8010  141.9870 C   0  0  0  0  0  2  0  0  0  0  0  0
  188.9880  175.5800  146.3630 C   0  0  0  0  0  3  0  0  0  0  0  0
  187.1740  176.8780  144.6780 C   0  0  0  0  0  3  0  0  0  0  0  0
  186.9090  176.7770  146.0450 C   0  0  0  0  0  3  0  0  0  0  0  0
  187.8430  175.4120  141.9220 N   0  0  0  0  0  2  0  0  0  0  0  0
  191.8620  173.0910  144.9920 C   0  0  2  0  0  3  0  0  0  0  0  0
  190.3420  172.9060  143.0580 C   0  0  2  0  0  3  0  0  0  0  0  0
  192.4670  174.3080  145.6920 C   0  0  2  0  0  3  0  0  0  0  0  0
  193.8760  171.9480  143.8970 C   0  0  0  0  0  1  0  0  0  0  0  0
  190.5220  175.0790  144.4240 C   0  0  1  0  0  3  0  0  0  0  0  0
  1 21  2  0  0  0  0
  1 16  1  0  0  0  0
  3 17  2  0  0  0  0
  5 27  1  0  0  0  0
  5 24  1  0  0  0  0
  6  1  1  0  0  0  0
  7  8  1  0  0  0  0
  8  2  1  6  0  0  0
  8 14  1  0  0  0  0
  8 10  1  0  0  0  0
  9 18  1  0  0  0  0
  9 13  2  0  0  0  0
 10 26  1  0  0  0  0
 11 15  1  0  0  0  0
 12 24  1  0  0  0  0
 13 26  1  0  0  0  0
 14  9  1  0  0  0  0
 16 20  2  0  0  0  0
 17 25  1  0  0  0  0
 17  5  1  0  0  0  0
 19 15  1  0  0  0  0
 19 25  1  0  0  0  0
 20  4  1  0  0  0  0
 21 22  1  0  0  0  0
 22  4  2  0  0  0  0
 23 15  1  0  0  0  0
 23  6  1  0  0  0  0
 24 26  1  0  0  0  0
 25 12  1  0  0  0  0
 28 12  1  0  0  0  0
 28 16  1  0  0  0  0
 28 10  1  0  0  0  0
M  END
>  <MODEL>
5

>  <REMARK>
 VINA RESULT:      -7.4      2.401      4.797
  Name = 
  0 active torsions:
  status: ('A' for Active; 'I' for Inactive)
                            x       y       z     vdW  Elec       q    Type
                         _______ _______ _______ _____ _____    ______ ____

>  <TORSDO>
F 0

$$$$
=
 OpenBabel11112417393D

 28 32  0  0  1  0  0  0  0  0999 V2000
  188.6400  175.4760  146.3380 C   0  0  0  0  0  0  0  0  0  0  0  0
  191.3040  172.2700  143.9990 C   0  0  0  0  0  1  0  0  0  0  0  0
  194.5490  174.6600  144.5710 O   0  0  0  0  0  0  0  0  0  0  0  0
  187.0260  177.1130  144.7360 C   0  0  0  0  0  3  0  0  0  0  0  0
  192.9960  174.8570  142.8160 N   0  0  0  0  0  0  0  0  0  0  0  0
  189.5110  174.6350  147.2260 C   0  0  0  0  0  2  0  0  0  0  0  0
  188.9420  172.1850  144.1980 O   0  0  0  0  0  1  0  0  0  0  0  0
  189.9650  172.6290  143.3600 C   0  0  1  0  0  0  0  0  0  0  0  0
  190.7950  172.4720  141.0110 C   0  0  0  0  0  0  0  0  0  0  0  0
  189.8040  174.1450  143.1380 C   0  0  2  0  0  3  0  0  0  0  0  0
  192.2020  177.1300  147.9730 C   0  0  0  0  0  1  0  0  0  0  0  0
  191.2510  175.9680  144.0100 C   0  0  2  0  0  3  0  0  0  0  0  0
  191.1420  173.7240  141.0290 N   0  0  0  0  0  0  0  0  0  0  0  0
  189.8340  171.9160  142.0190 C   0  0  0  0  0  2  0  0  0  0  0  0
  191.3450  176.1990  147.1400 C   0  0  1  0  0  3  0  0  0  0  0  0
  188.9460  175.6420  144.9710 C   0  0  0  0  0  0  0  0  0  0  0  0
  193.4330  175.0600  144.1460 C   0  0  0  0  0  0  0  0  0  0  0  0
  191.3160  171.6160  140.0010 N   0  0  0  0  0  1  0  0  0  0  0  0
  192.2330  175.2690  146.3210 C   0  0  0  0  0  2  0  0  0  0  0  0
  188.1330  176.4690  144.1800 C   0  0  0  0  0  3  0  0  0  0  0  0
  187.5310  176.1280  146.8880 C   0  0  0  0  0  3  0  0  0  0  0  0
  186.7240  176.9410  146.0900 C   0  0  0  0  0  3  0  0  0  0  0  0
  190.4420  175.4500  148.0130 N   0  0  0  0  0  2  0  0  0  0  0  0
  191.7480  175.5790  142.6050 C   0  0  2  0  0  3  0  0  0  0  0  0
  192.4890  175.8730  144.9390 C   0  0  2  0  0  3  0  0  0  0  0  0
  190.6450  174.7140  141.9940 C   0  0  2  0  0  3  0  0  0  0  0  0
  193.9130  174.5210  141.7370 C   0  0  0  0  0  1  0  0  0  0  0  0
  190.1480  174.9650  144.3760 C   0  0  1  0  0  3  0  0  0  0  0  0
  1 21  1  0  0  0  0
  1  6  1  0  0  0  0
  4 22  1  0  0  0  0
  5 17  1  0  0  0  0
  6 23  1  0  0  0  0
  8  2  1  1  0  0  0
  8  7  1  0  0  0  0
  9 13  2  0  0  0  0
  9 14  1  0  0  0  0
 10  8  1  0  0  0  0
 10 28  1  0  0  0  0
 12 28  1  0  0  0  0
 12 25  1  0  0  0  0
 13 26  1  0  0  0  0
 14  8  1  0  0  0  0
 15 11  1  0  0  0  0
 15 23  1  0  0  0  0
 16  1  2  0  0  0  0
 17  3  2  0  0  0  0
 17 25  1  0  0  0  0
 18  9  1  0  0  0  0
 19 15  1  0  0  0  0
 20  4  2  0  0  0  0
 20 16  1  0  0  0  0
 22 21  2  0  0  0  0
 24  5  1  0  0  0  0
 24 12  1  0  0  0  0
 25 19  1  0  0  0  0
 26 24  1  0  0  0  0
 26 10  1  0  0  0  0
 27  5  1  0  0  0  0
 28 16  1  0  0  0  0
M  END
>  <MODEL>
6

>  <REMARK>
 VINA RESULT:      -7.4      2.249      3.690
  Name = 
  0 active torsions:
  status: ('A' for Active; 'I' for Inactive)
                            x       y       z     vdW  Elec       q    Type
                         _______ _______ _______ _____ _____    ______ ____

>  <TORSDO>
F 0

$$$$
=
 OpenBabel11112417393D

 28 32  0  0  1  0  0  0  0  0999 V2000
  194.3910  174.4190  144.8300 C   0  0  0  0  0  0  0  0  0  0  0  0
  189.7470  175.0940  145.7370 C   0  0  0  0  0  1  0  0  0  0  0  0
  188.8920  171.9300  143.3230 O   0  0  0  0  0  0  0  0  0  0  0  0
  195.5440  176.2070  143.0070 C   0  0  0  0  0  3  0  0  0  0  0  0
  189.2180  174.1470  142.6100 N   0  0  0  0  0  0  0  0  0  0  0  0
  193.8010  173.4260  145.7900 C   0  0  0  0  0  2  0  0  0  0  0  0
  191.4900  176.5480  146.4260 O   0  0  0  0  0  1  0  0  0  0  0  0
  190.5590  176.3440  145.4080 C   0  0  1  0  0  0  0  0  0  0  0  0
  188.7140  177.4810  144.1670 C   0  0  0  0  0  0  0  0  0  0  0  0
  191.3060  176.2260  144.0660 C   0  0  2  0  0  3  0  0  0  0  0  0
  193.4800  170.4820  143.4980 C   0  0  0  0  0  1  0  0  0  0  0  0
  191.6060  174.1910  142.6690 C   0  0  2  0  0  3  0  0  0  0  0  0
  189.0910  176.9230  143.0560 N   0  0  0  0  0  0  0  0  0  0  0  0
  189.6310  177.5530  145.3520 C   0  0  0  0  0  2  0  0  0  0  0  0
  193.2180  171.8720  144.0410 C   0  0  1  0  0  3  0  0  0  0  0  0
  193.5700  175.1330  143.9320 C   0  0  0  0  0  0  0  0  0  0  0  0
  189.6720  172.8720  143.0180 C   0  0  0  0  0  0  0  0  0  0  0  0
  187.4170  178.0590  144.2560 N   0  0  0  0  0  1  0  0  0  0  0  0
  191.7180  172.0900  144.2080 C   0  0  0  0  0  2  0  0  0  0  0  0
  194.1600  176.0230  143.0200 C   0  0  0  0  0  3  0  0  0  0  0  0
  195.7770  174.6070  144.8070 C   0  0  0  0  0  3  0  0  0  0  0  0
  196.3530  175.5000  143.9020 C   0  0  0  0  0  3  0  0  0  0  0  0
  193.9310  172.0490  145.3050 N   0  0  0  0  0  2  0  0  0  0  0  0
  190.3580  174.9450  142.1740 C   0  0  2  0  0  3  0  0  0  0  0  0
  191.1410  172.7380  142.9480 C   0  0  2  0  0  3  0  0  0  0  0  0
  190.4130  176.3260  142.8280 C   0  0  2  0  0  3  0  0  0  0  0  0
  187.8590  174.3800  142.1430 C   0  0  0  0  0  1  0  0  0  0  0  0
  192.0830  174.9210  143.9330 C   0  0  1  0  0  3  0  0  0  0  0  0
  1  6  1  0  0  0  0
  4 20  2  0  0  0  0
  4 22  1  0  0  0  0
  5 17  1  0  0  0  0
  8  2  1  1  0  0  0
  8  7  1  0  0  0  0
  9 18  1  0  0  0  0
  9 14  1  0  0  0  0
 10  8  1  0  0  0  0
 11 15  1  0  0  0  0
 12 25  1  0  0  0  0
 12 28  1  0  0  0  0
 13  9  2  0  0  0  0
 14  8  1  0  0  0  0
 15 19  1  0  0  0  0
 15 23  1  0  0  0  0
 16 28  1  0  0  0  0
 16  1  2  0  0  0  0
 17  3  2  0  0  0  0
 20 16  1  0  0  0  0
 21  1  1  0  0  0  0
 22 21  2  0  0  0  0
 23  6  1  0  0  0  0
 24  5  1  0  0  0  0
 24 12  1  0  0  0  0
 24 26  1  0  0  0  0
 25 17  1  0  0  0  0
 25 19  1  0  0  0  0
 26 13  1  0  0  0  0
 26 10  1  0  0  0  0
 27  5  1  0  0  0  0
 28 10  1  0  0  0  0
M  END
>  <MODEL>
7

>  <REMARK>
 VINA RESULT:      -7.2      2.469      6.834
  Name = 
  0 active torsions:
  status: ('A' for Active; 'I' for Inactive)
                            x       y       z     vdW  Elec       q    Type
                         _______ _______ _______ _____ _____    ______ ____

>  <TORSDO>
F 0

$$$$
=
 OpenBabel11112417393D

 28 32  0  0  1  0  0  0  0  0999 V2000
  194.1140  174.0030  145.0200 C   0  0  0  0  0  0  0  0  0  0  0  0
  189.4890  174.4150  146.1550 C   0  0  0  0  0  1  0  0  0  0  0  0
  188.5430  172.5470  142.6650 O   0  0  0  0  0  0  0  0  0  0  0  0
  195.3460  176.3370  144.0800 C   0  0  0  0  0  3  0  0  0  0  0  0
  188.9540  174.8490  142.9180 N   0  0  0  0  0  0  0  0  0  0  0  0
  193.4810  172.7270  145.4950 C   0  0  0  0  0  2  0  0  0  0  0  0
  191.2760  175.3980  147.3670 O   0  0  0  0  0  1  0  0  0  0  0  0
  190.3470  175.6610  146.3600 C   0  0  1  0  0  0  0  0  0  0  0  0
  188.5550  177.2710  145.7040 C   0  0  0  0  0  0  0  0  0  0  0  0
  191.1020  176.0740  145.0820 C   0  0  2  0  0  3  0  0  0  0  0  0
  193.0750  170.9900  142.2030 C   0  0  0  0  0  1  0  0  0  0  0  0
  191.3410  174.7780  142.9740 C   0  0  2  0  0  3  0  0  0  0  0  0
  188.9210  177.2020  144.4600 N   0  0  0  0  0  0  0  0  0  0  0  0
  189.4640  176.8190  146.8090 C   0  0  0  0  0  2  0  0  0  0  0  0
  192.8580  172.0450  143.2680 C   0  0  1  0  0  3  0  0  0  0  0  0
  193.3270  175.0510  144.4990 C   0  0  0  0  0  0  0  0  0  0  0  0
  189.3590  173.5020  142.7660 C   0  0  0  0  0  0  0  0  0  0  0  0
  187.2790  177.8080  146.0300 N   0  0  0  0  0  1  0  0  0  0  0  0
  191.3650  172.2290  143.5190 C   0  0  0  0  0  2  0  0  0  0  0  0
  193.9560  176.2130  144.0260 C   0  0  0  0  0  3  0  0  0  0  0  0
  195.5060  174.1340  145.0680 C   0  0  0  0  0  3  0  0  0  0  0  0
  196.1200  175.2980  144.6020 C   0  0  0  0  0  3  0  0  0  0  0  0
  193.5660  171.6640  144.4890 N   0  0  0  0  0  2  0  0  0  0  0  0
  190.1240  175.7130  142.8380 C   0  0  2  0  0  3  0  0  0  0  0  0
  190.8220  173.3560  142.6380 C   0  0  2  0  0  3  0  0  0  0  0  0
  190.2240  176.7040  143.9990 C   0  0  2  0  0  3  0  0  0  0  0  0
  187.6080  175.3000  142.5960 C   0  0  0  0  0  1  0  0  0  0  0  0
  191.8320  174.9110  144.4220 C   0  0  1  0  0  3  0  0  0  0  0  0
  1 21  1  0  0  0  0
  1  6  1  0  0  0  0
  3 17  2  0  0  0  0
  4 22  1  0  0  0  0
  8  2  1  6  0  0  0
  8 14  1  0  0  0  0
  8  7  1  0  0  0  0
  9 18  1  0  0  0  0
  9 14  1  0  0  0  0
 10  8  1  0  0  0  0
 11 15  1  0  0  0  0
 12 28  1  0  0  0  0
 13  9  2  0  0  0  0
 15 19  1  0  0  0  0
 15 23  1  0  0  0  0
 16  1  2  0  0  0  0
 17  5  1  0  0  0  0
 20  4  2  0  0  0  0
 20 16  1  0  0  0  0
 22 21  2  0  0  0  0
 23  6  1  0  0  0  0
 24  5  1  0  0  0  0
 24 12  1  0  0  0  0
 24 26  1  0  0  0  0
 25 17  1  0  0  0  0
 25 12  1  0  0  0  0
 25 19  1  0  0  0  0
 26 13  1  0  0  0  0
 26 10  1  0  0  0  0
 27  5  1  0  0  0  0
 28 16  1  0  0  0  0
 28 10  1  0  0  0  0
M  END
>  <MODEL>
8

>  <REMARK>
 VINA RESULT:      -7.1      2.216      6.823
  Name = 
  0 active torsions:
  status: ('A' for Active; 'I' for Inactive)
                            x       y       z     vdW  Elec       q    Type
                         _______ _______ _______ _____ _____    ______ ____

>  <TORSDO>
F 0

$$$$
=
 OpenBabel11112417393D

 28 32  0  0  1  0  0  0  0  0999 V2000
  189.8100  176.6270  144.6710 C   0  0  0  0  0  0  0  0  0  0  0  0
  192.9040  173.6650  142.5470 C   0  0  0  0  0  1  0  0  0  0  0  0
  189.9620  172.5700  139.9560 O   0  0  0  0  0  0  0  0  0  0  0  0
  188.7570  175.7370  147.1090 C   0  0  0  0  0  3  0  0  0  0  0  0
  190.3230  171.6440  142.0880 N   0  0  0  0  0  0  0  0  0  0  0  0
  190.3340  177.1240  143.3540 C   0  0  0  0  0  2  0  0  0  0  0  0
  193.3310  174.8680  144.5470 O   0  0  0  0  0  1  0  0  0  0  0  0
  192.8800  173.6360  144.0740 C   0  0  1  0  0  0  0  0  0  0  0  0
  193.3060  171.1820  144.2510 C   0  0  0  0  0  0  0  0  0  0  0  0
  191.4720  173.3700  144.6370 C   0  0  2  0  0  3  0  0  0  0  0  0
  187.3490  176.4150  141.2070 C   0  0  0  0  0  1  0  0  0  0  0  0
  189.3160  173.3680  143.3990 C   0  0  2  0  0  3  0  0  0  0  0  0
  192.0310  170.9380  144.2090 N   0  0  0  0  0  0  0  0  0  0  0  0
  193.8270  172.5500  144.5760 C   0  0  0  0  0  2  0  0  0  0  0  0
  188.5350  176.1190  142.1010 C   0  0  1  0  0  3  0  0  0  0  0  0
  189.8370  175.2520  144.9870 C   0  0  0  0  0  0  0  0  0  0  0  0
  189.8250  172.6330  141.2070 C   0  0  0  0  0  0  0  0  0  0  0  0
  194.2290  170.1270  144.0090 N   0  0  0  0  0  1  0  0  0  0  0  0
  189.4390  175.0840  141.4400 C   0  0  0  0  0  2  0  0  0  0  0  0
  189.3010  174.8180  146.2090 C   0  0  0  0  0  3  0  0  0  0  0  0
  189.2600  177.5400  145.5760 C   0  0  0  0  0  3  0  0  0  0  0  0
  188.7370  177.0980  146.7930 C   0  0  0  0  0  3  0  0  0  0  0  0
  189.2570  177.3590  142.3880 N   0  0  0  0  0  2  0  0  0  0  0  0
  189.8580  171.9270  143.4390 C   0  0  2  0  0  3  0  0  0  0  0  0
  189.0490  173.6790  141.9030 C   0  0  2  0  0  3  0  0  0  0  0  0
  190.9820  171.9300  144.4770 C   0  0  2  0  0  3  0  0  0  0  0  0
  190.6900  170.3100  141.6360 C   0  0  0  0  0  1  0  0  0  0  0  0
  190.4050  174.2610  144.0110 C   0  0  1  0  0  3  0  0  0  0  0  0
  1 16  2  0  0  0  0
  1 21  1  0  0  0  0
  3 17  2  0  0  0  0
  5 24  1  0  0  0  0
  6  1  1  0  0  0  0
  8  2  1  6  0  0  0
  8  7  1  0  0  0  0
  8 14  1  0  0  0  0
  8 10  1  0  0  0  0
  9 14  1  0  0  0  0
 11 15  1  0  0  0  0
 12 24  1  0  0  0  0
 12 28  1  0  0  0  0
 13  9  2  0  0  0  0
 13 26  1  0  0  0  0
 15 23  1  0  0  0  0
 16 20  1  0  0  0  0
 17 25  1  0  0  0  0
 17  5  1  0  0  0  0
 18  9  1  0  0  0  0
 19 25  1  0  0  0  0
 19 15  1  0  0  0  0
 20  4  2  0  0  0  0
 21 22  2  0  0  0  0
 22  4  1  0  0  0  0
 23  6  1  0  0  0  0
 24 26  1  0  0  0  0
 25 12  1  0  0  0  0
 26 10  1  0  0  0  0
 27  5  1  0  0  0  0
 28 10  1  0  0  0  0
 28 16  1  0  0  0  0
M  END
>  <MODEL>
9

>  <REMARK>
 VINA RESULT:      -7.1      2.631      5.325
  Name = 
  0 active torsions:
  status: ('A' for Active; 'I' for Inactive)
                            x       y       z     vdW  Elec       q    Type
                         _______ _______ _______ _____ _____    ______ ____

>  <TORSDO>
F 0

$$$$
