=
 OpenBabel11112416563D

 31 35  0  0  1  0  0  0  0  0999 V2000
  184.6030  178.5240  146.2720 C   0  0  0  0  0  0  0  0  0  0  0  0
  187.1250  177.1350  143.7980 C   0  0  0  0  0  0  0  0  0  0  0  0
  186.6310  177.2890  142.4830 C   0  0  0  0  0  0  0  0  0  0  0  0
  190.4320  175.4830  147.5630 O   0  0  0  0  0  0  0  0  0  0  0  0
  191.0400  175.5740  146.4750 C   0  0  0  0  0  0  0  0  0  0  0  0
  184.9710  178.0430  140.8880 C   0  0  0  0  0  0  0  0  0  0  0  0
  186.4900  177.5770  145.0190 C   0  0  0  0  0  0  0  0  0  0  0  0
  185.3140  178.3680  147.4570 C   0  0  0  0  0  3  0  0  0  0  0  0
  185.3630  177.8240  142.2120 C   0  0  0  0  0  3  0  0  0  0  0  0
  189.0280  176.4350  145.1390 C   0  0  0  0  0  0  0  0  0  0  0  0
  183.3210  179.0400  146.3230 F   0  0  0  0  0  0  0  0  0  0  0  0
  188.5230  176.0920  141.6300 N   0  0  0  0  0  0  0  0  0  0  0  0
  183.3500  178.6350  140.5190 Cl  0  0  0  0  0  0  0  0  0  0  0  0
  188.4120  176.8800  146.2810 N   0  0  0  0  0  0  0  0  0  0  0  0
  188.3500  176.5080  143.9550 C   0  0  0  0  0  0  0  0  0  0  0  0
  190.3370  175.9080  145.2630 N   0  0  0  0  0  2  0  0  0  0  0  0
  185.2170  178.1220  145.0650 C   0  0  0  0  0  3  0  0  0  0  0  0
  185.7730  177.6040  139.8280 C   0  0  0  0  0  3  0  0  0  0  0  0
  187.1880  177.4210  146.2490 C   0  0  0  0  0  0  0  0  0  0  0  0
  186.5970  177.8650  147.4440 C   0  0  0  0  0  3  0  0  0  0  0  0
  189.0190  176.0330  142.8240 N   0  0  0  0  0  0  0  0  0  0  0  0
  187.4250  176.8420  141.3740 C   0  0  0  0  0  0  0  0  0  0  0  0
  187.0160  177.0210  140.0560 C   0  0  0  0  0  3  0  0  0  0  0  0
  193.8410  175.6730  143.7920 C   0  0  1  0  0  3  0  0  0  0  0  0
  193.5880  176.0670  146.3870 C   0  0  0  0  0  2  0  0  0  0  0  0
  191.5630  173.0850  145.2730 O   0  0  0  0  0  1  0  0  0  0  0  0
  193.5220  176.5350  142.7240 O   0  0  0  0  0  1  0  0  0  0  0  0
  193.8830  176.6630  145.0200 C   0  0  0  0  0  2  0  0  0  0  0  0
  192.6420  173.9830  145.2770 C   0  0  2  0  0  3  0  0  0  0  0  0
  192.4410  175.0560  146.3930 C   0  0  2  0  0  3  0  0  0  0  0  0
  192.6610  174.7130  143.8900 C   0  0  0  0  0  2  0  0  0  0  0  0
  1 11  1  0  0  0  0
  1  8  1  0  0  0  0
  2 15  1  0  0  0  0
  2  7  1  0  0  0  0
  3  2  2  0  0  0  0
  5  4  2  0  0  0  0
  6  9  2  0  0  0  0
  7 17  1  0  0  0  0
  7 19  2  0  0  0  0
  9  3  1  0  0  0  0
 10 16  1  0  0  0  0
 10 14  2  0  0  0  0
 12 21  1  0  0  0  0
 13  6  1  0  0  0  0
 15 10  1  0  0  0  0
 16  5  1  0  0  0  0
 17  1  2  0  0  0  0
 18 23  2  0  0  0  0
 18  6  1  0  0  0  0
 19 14  1  0  0  0  0
 19 20  1  0  0  0  0
 20  8  2  0  0  0  0
 21 15  2  0  0  0  0
 22 12  2  0  0  0  0
 22  3  1  0  0  0  0
 23 22  1  0  0  0  0
 24 27  1  6  0  0  0
 24 31  1  0  0  0  0
 24 28  1  0  0  0  0
 25 30  1  0  0  0  0
 28 25  1  0  0  0  0
 29 26  1  6  0  0  0
 29 30  1  0  0  0  0
 30  5  1  6  0  0  0
 31 29  1  0  0  0  0
M  END
>  <MODEL>
1

>  <REMARK>
 VINA RESULT:     -10.0      0.000      0.000
  Name = 
  1 active torsions:
  status: ('A' for Active; 'I' for Inactive)
    1  A    between atoms: C_5  and  C_30
                            x       y       z     vdW  Elec       q    Type
                         _______ _______ _______ _____ _____    ______ ____

>  <TORSDO>
F 1

$$$$
=
 OpenBabel11112416563D

 31 35  0  0  1  0  0  0  0  0999 V2000
  184.9400  178.1030  146.8980 C   0  0  0  0  0  0  0  0  0  0  0  0
  186.8740  177.5680  143.6750 C   0  0  0  0  0  0  0  0  0  0  0  0
  186.0060  177.7250  142.5710 C   0  0  0  0  0  0  0  0  0  0  0  0
  191.3750  176.3860  146.1630 O   0  0  0  0  0  0  0  0  0  0  0  0
  191.6170  176.7140  144.9820 C   0  0  0  0  0  0  0  0  0  0  0  0
  183.8460  178.2180  141.5930 C   0  0  0  0  0  0  0  0  0  0  0  0
  186.5390  177.7370  145.0720 C   0  0  0  0  0  0  0  0  0  0  0  0
  185.9760  178.0080  147.8210 C   0  0  0  0  0  3  0  0  0  0  0  0
  184.6330  177.9740  142.7210 C   0  0  0  0  0  3  0  0  0  0  0  0
  189.1800  177.2060  144.3570 C   0  0  0  0  0  0  0  0  0  0  0  0
  183.6510  178.3020  147.3560 F   0  0  0  0  0  0  0  0  0  0  0  0
  187.7730  177.0800  141.0870 N   0  0  0  0  0  0  0  0  0  0  0  0
  182.1030  178.4510  141.7490 Cl  0  0  0  0  0  0  0  0  0  0  0  0
  188.8400  177.3900  145.6740 N   0  0  0  0  0  0  0  0  0  0  0  0
  188.1910  177.2290  143.4140 C   0  0  0  0  0  0  0  0  0  0  0  0
  190.5460  176.9870  144.0570 N   0  0  0  0  0  2  0  0  0  0  0  0
  185.2510  177.9670  145.5270 C   0  0  0  0  0  3  0  0  0  0  0  0
  184.3820  178.0760  140.3080 C   0  0  0  0  0  3  0  0  0  0  0  0
  187.5760  177.6350  146.0410 C   0  0  0  0  0  0  0  0  0  0  0  0
  187.2740  177.8180  147.4020 C   0  0  0  0  0  3  0  0  0  0  0  0
  188.5900  177.0280  142.0890 N   0  0  0  0  0  0  0  0  0  0  0  0
  186.5220  177.5770  141.2400 C   0  0  0  0  0  0  0  0  0  0  0  0
  185.7280  177.7770  140.1160 C   0  0  0  0  0  3  0  0  0  0  0  0
  194.1600  173.7850  144.8820 C   0  0  1  0  0  3  0  0  0  0  0  0
  193.2260  175.6350  143.2520 C   0  0  0  0  0  2  0  0  0  0  0  0
  193.8210  177.0490  146.6990 O   0  0  0  0  0  1  0  0  0  0  0  0
  193.5760  172.5620  145.2710 O   0  0  0  0  0  1  0  0  0  0  0  0
  193.3270  174.1570  143.5940 C   0  0  0  0  0  2  0  0  0  0  0  0
  194.0550  176.2330  145.5810 C   0  0  2  0  0  3  0  0  0  0  0  0
  193.0090  176.5430  144.4640 C   0  0  2  0  0  3  0  0  0  0  0  0
  193.8700  174.7430  146.0310 C   0  0  0  0  0  2  0  0  0  0  0  0
  1 11  1  0  0  0  0
  1  8  1  0  0  0  0
  2  7  1  0  0  0  0
  3  9  1  0  0  0  0
  3  2  2  0  0  0  0
  5  4  2  0  0  0  0
  6 13  1  0  0  0  0
  6  9  2  0  0  0  0
  7 17  1  0  0  0  0
  7 19  2  0  0  0  0
 10 14  2  0  0  0  0
 12 22  2  0  0  0  0
 12 21  1  0  0  0  0
 14 19  1  0  0  0  0
 15  2  1  0  0  0  0
 15 10  1  0  0  0  0
 16 10  1  0  0  0  0
 16  5  1  0  0  0  0
 17  1  2  0  0  0  0
 18  6  1  0  0  0  0
 19 20  1  0  0  0  0
 20  8  2  0  0  0  0
 21 15  2  0  0  0  0
 22  3  1  0  0  0  0
 23 18  2  0  0  0  0
 23 22  1  0  0  0  0
 24 27  1  1  0  0  0
 24 31  1  0  0  0  0
 25 28  1  0  0  0  0
 25 30  1  0  0  0  0
 28 24  1  0  0  0  0
 29 31  1  0  0  0  0
 29 26  1  1  0  0  0
 30  5  1  1  0  0  0
 30 29  1  0  0  0  0
M  END
>  <MODEL>
2

>  <REMARK>
 VINA RESULT:      -9.6      1.351      1.979
  Name = 
  1 active torsions:
  status: ('A' for Active; 'I' for Inactive)
    1  A    between atoms: C_5  and  C_30
                            x       y       z     vdW  Elec       q    Type
                         _______ _______ _______ _____ _____    ______ ____

>  <TORSDO>
F 1

$$$$
=
 OpenBabel11112416563D

 31 35  0  0  1  0  0  0  0  0999 V2000
  185.0170  177.6800  146.6440 C   0  0  0  0  0  0  0  0  0  0  0  0
  187.0430  176.9140  143.5260 C   0  0  0  0  0  0  0  0  0  0  0  0
  186.2850  177.2390  142.3790 C   0  0  0  0  0  0  0  0  0  0  0  0
  191.1190  174.9440  146.2360 O   0  0  0  0  0  0  0  0  0  0  0  0
  191.4880  175.2570  145.0850 C   0  0  0  0  0  0  0  0  0  0  0  0
  184.3030  178.1060  141.2910 C   0  0  0  0  0  0  0  0  0  0  0  0
  186.6500  177.1010  144.9050 C   0  0  0  0  0  0  0  0  0  0  0  0
  185.9610  177.3920  147.6230 C   0  0  0  0  0  3  0  0  0  0  0  0
  184.9650  177.7080  142.4540 C   0  0  0  0  0  3  0  0  0  0  0  0
  189.2090  176.1600  144.3320 C   0  0  0  0  0  0  0  0  0  0  0  0
  183.7500  178.0770  147.0300 F   0  0  0  0  0  0  0  0  0  0  0  0
  188.0170  176.3500  140.9810 N   0  0  0  0  0  0  0  0  0  0  0  0
  182.6150  178.6190  141.3500 Cl  0  0  0  0  0  0  0  0  0  0  0  0
  188.8190  176.3650  145.6320 N   0  0  0  0  0  0  0  0  0  0  0  0
  188.3010  176.3700  143.3330 C   0  0  0  0  0  0  0  0  0  0  0  0
  190.5390  175.7260  144.1080 N   0  0  0  0  0  2  0  0  0  0  0  0
  185.3900  177.5280  145.2900 C   0  0  0  0  0  3  0  0  0  0  0  0
  184.8910  177.9090  140.0360 C   0  0  0  0  0  3  0  0  0  0  0  0
  187.5910  176.8050  145.9310 C   0  0  0  0  0  0  0  0  0  0  0  0
  187.2360  177.0010  147.2770 C   0  0  0  0  0  3  0  0  0  0  0  0
  188.7470  176.1380  142.0280 N   0  0  0  0  0  0  0  0  0  0  0  0
  186.8560  177.0410  141.0760 C   0  0  0  0  0  0  0  0  0  0  0  0
  186.1800  177.3980  139.9140 C   0  0  0  0  0  3  0  0  0  0  0  0
  193.1140  174.3210  141.6890 C   0  0  1  0  0  3  0  0  0  0  0  0
  193.6460  175.8520  143.7680 C   0  0  0  0  0  2  0  0  0  0  0  0
  192.2000  172.5440  144.8640 O   0  0  0  0  0  1  0  0  0  0  0  0
  192.2490  174.5620  140.6020 O   0  0  0  0  0  1  0  0  0  0  0  0
  193.3070  175.7670  142.2890 C   0  0  0  0  0  2  0  0  0  0  0  0
  192.9510  173.4240  144.0690 C   0  0  2  0  0  3  0  0  0  0  0  0
  192.8650  174.8720  144.6450 C   0  0  2  0  0  3  0  0  0  0  0  0
  192.3210  173.4260  142.6330 C   0  0  0  0  0  2  0  0  0  0  0  0
  1 11  1  0  0  0  0
  1  8  1  0  0  0  0
  2  7  1  0  0  0  0
  3  9  1  0  0  0  0
  3  2  2  0  0  0  0
  5  4  2  0  0  0  0
  6 13  1  0  0  0  0
  6  9  2  0  0  0  0
  7 17  1  0  0  0  0
  7 19  2  0  0  0  0
 10 14  2  0  0  0  0
 12 22  2  0  0  0  0
 12 21  1  0  0  0  0
 14 19  1  0  0  0  0
 15  2  1  0  0  0  0
 15 10  1  0  0  0  0
 16 10  1  0  0  0  0
 16  5  1  0  0  0  0
 17  1  2  0  0  0  0
 18  6  1  0  0  0  0
 19 20  1  0  0  0  0
 20  8  2  0  0  0  0
 21 15  2  0  0  0  0
 22  3  1  0  0  0  0
 23 18  2  0  0  0  0
 23 22  1  0  0  0  0
 24 27  1  6  0  0  0
 24 28  1  0  0  0  0
 24 31  1  0  0  0  0
 25 30  1  0  0  0  0
 28 25  1  0  0  0  0
 29 30  1  0  0  0  0
 29 26  1  1  0  0  0
 30  5  1  6  0  0  0
 31 29  1  0  0  0  0
M  END
>  <MODEL>
3

>  <REMARK>
 VINA RESULT:      -9.0      1.180      1.419
  Name = 
  1 active torsions:
  status: ('A' for Active; 'I' for Inactive)
    1  A    between atoms: C_5  and  C_30
                            x       y       z     vdW  Elec       q    Type
                         _______ _______ _______ _____ _____    ______ ____

>  <TORSDO>
F 1

$$$$
=
 OpenBabel11112416563D

 31 35  0  0  1  0  0  0  0  0999 V2000
  188.1390  176.9550  141.6390 C   0  0  0  0  0  0  0  0  0  0  0  0
  185.6890  178.0760  144.3150 C   0  0  0  0  0  0  0  0  0  0  0  0
  186.3460  178.1290  145.5650 C   0  0  0  0  0  0  0  0  0  0  0  0
  181.6030  178.2730  140.9820 O   0  0  0  0  0  0  0  0  0  0  0  0
  181.3520  178.9520  142.0000 C   0  0  0  0  0  0  0  0  0  0  0  0
  188.3080  177.9160  146.9690 C   0  0  0  0  0  0  0  0  0  0  0  0
  186.2810  177.7420  143.0380 C   0  0  0  0  0  0  0  0  0  0  0  0
  187.3350  177.0690  140.5110 C   0  0  0  0  0  3  0  0  0  0  0  0
  187.6860  177.7470  145.7290 C   0  0  0  0  0  3  0  0  0  0  0  0
  183.6130  178.5370  143.1370 C   0  0  0  0  0  0  0  0  0  0  0  0
  189.4320  176.4880  141.4960 F   0  0  0  0  0  0  0  0  0  0  0  0
  184.2680  178.6550  146.6360 N   0  0  0  0  0  0  0  0  0  0  0  0
  189.9650  177.3650  147.2230 Cl  0  0  0  0  0  0  0  0  0  0  0  0
  184.2030  178.2340  141.9360 N   0  0  0  0  0  0  0  0  0  0  0  0
  184.3390  178.3840  144.2840 C   0  0  0  0  0  0  0  0  0  0  0  0
  182.2680  178.9800  143.1120 N   0  0  0  0  0  2  0  0  0  0  0  0
  187.5870  177.3020  142.8930 C   0  0  0  0  0  3  0  0  0  0  0  0
  187.5680  178.3280  148.0840 C   0  0  0  0  0  3  0  0  0  0  0  0
  185.4810  177.8390  141.8660 C   0  0  0  0  0  0  0  0  0  0  0  0
  186.0440  177.5400  140.6140 C   0  0  0  0  0  3  0  0  0  0  0  0
  183.6880  178.6980  145.4800 N   0  0  0  0  0  0  0  0  0  0  0  0
  185.6150  178.5390  146.7300 C   0  0  0  0  0  0  0  0  0  0  0  0
  186.2230  178.6660  147.9740 C   0  0  0  0  0  3  0  0  0  0  0  0
  177.8430  178.0130  140.6360 C   0  0  1  0  0  3  0  0  0  0  0  0
  178.9480  178.6660  142.9390 C   0  0  0  0  0  2  0  0  0  0  0  0
  180.3170  180.7890  140.1380 O   0  0  0  0  0  1  0  0  0  0  0  0
  177.8500  176.7750  139.9630 O   0  0  0  0  0  1  0  0  0  0  0  0
  178.2620  177.6000  142.1000 C   0  0  0  0  0  2  0  0  0  0  0  0
  179.3550  180.0550  140.8480 C   0  0  2  0  0  3  0  0  0  0  0  0
  179.9720  179.5020  142.1710 C   0  0  2  0  0  3  0  0  0  0  0  0
  178.9300  178.8370  139.9560 C   0  0  0  0  0  2  0  0  0  0  0  0
  1 17  1  0  0  0  0
  2  3  1  0  0  0  0
  3  9  2  0  0  0  0
  3 22  1  0  0  0  0
  4  5  2  0  0  0  0
  5 16  1  0  0  0  0
  6 13  1  0  0  0  0
  6 18  2  0  0  0  0
  7  2  1  0  0  0  0
  8 20  1  0  0  0  0
  8  1  2  0  0  0  0
  9  6  1  0  0  0  0
 10 15  1  0  0  0  0
 11  1  1  0  0  0  0
 12 22  1  0  0  0  0
 14 10  2  0  0  0  0
 15  2  2  0  0  0  0
 15 21  1  0  0  0  0
 16 10  1  0  0  0  0
 17  7  2  0  0  0  0
 19 14  1  0  0  0  0
 19  7  1  0  0  0  0
 20 19  2  0  0  0  0
 21 12  2  0  0  0  0
 22 23  2  0  0  0  0
 23 18  1  0  0  0  0
 24 27  1  6  0  0  0
 24 28  1  0  0  0  0
 28 25  1  0  0  0  0
 29 26  1  6  0  0  0
 29 30  1  0  0  0  0
 30  5  1  6  0  0  0
 30 25  1  0  0  0  0
 31 24  1  0  0  0  0
 31 29  1  0  0  0  0
M  END
>  <MODEL>
4

>  <REMARK>
 VINA RESULT:      -8.8      5.908      9.799
  Name = 
  1 active torsions:
  status: ('A' for Active; 'I' for Inactive)
    1  A    between atoms: C_5  and  C_30
                            x       y       z     vdW  Elec       q    Type
                         _______ _______ _______ _____ _____    ______ ____

>  <TORSDO>
F 1

$$$$
=
 OpenBabel11112416563D

 31 35  0  0  1  0  0  0  0  0999 V2000
  186.7590  176.7520  141.2540 C   0  0  0  0  0  0  0  0  0  0  0  0
  187.9980  176.9070  144.8400 C   0  0  0  0  0  0  0  0  0  0  0  0
  187.0050  177.4930  145.6570 C   0  0  0  0  0  0  0  0  0  0  0  0
  192.7410  174.9220  143.6550 O   0  0  0  0  0  0  0  0  0  0  0  0
  192.5230  174.7970  144.8780 C   0  0  0  0  0  0  0  0  0  0  0  0
  184.8120  178.4560  146.0140 C   0  0  0  0  0  0  0  0  0  0  0  0
  187.8990  176.6260  143.4240 C   0  0  0  0  0  0  0  0  0  0  0  0
  187.8160  176.0710  140.6620 C   0  0  0  0  0  3  0  0  0  0  0  0
  185.7940  177.9800  145.1420 C   0  0  0  0  0  3  0  0  0  0  0  0
  190.1760  175.8280  144.8180 C   0  0  0  0  0  0  0  0  0  0  0  0
  185.7020  177.1660  140.4650 F   0  0  0  0  0  0  0  0  0  0  0  0
  188.5030  177.4260  147.5260 N   0  0  0  0  0  0  0  0  0  0  0  0
  183.3170  179.1520  145.3860 Cl  0  0  0  0  0  0  0  0  0  0  0  0
  190.0490  175.5540  143.4800 N   0  0  0  0  0  0  0  0  0  0  0  0
  189.1940  176.5480  145.4380 C   0  0  0  0  0  0  0  0  0  0  0  0
  191.3360  175.3530  145.4770 N   0  0  0  0  0  2  0  0  0  0  0  0
  186.8250  177.0150  142.6410 C   0  0  0  0  0  3  0  0  0  0  0  0
  185.0780  178.5840  147.3820 C   0  0  0  0  0  3  0  0  0  0  0  0
  188.9700  175.9380  142.7870 C   0  0  0  0  0  0  0  0  0  0  0  0
  188.8830  175.6350  141.4180 C   0  0  0  0  0  3  0  0  0  0  0  0
  189.3760  176.8060  146.7990 N   0  0  0  0  0  0  0  0  0  0  0  0
  187.2490  177.6470  147.0640 C   0  0  0  0  0  0  0  0  0  0  0  0
  186.2870  178.1610  147.9260 C   0  0  0  0  0  3  0  0  0  0  0  0
  196.2840  174.0050  144.3480 C   0  0  1  0  0  3  0  0  0  0  0  0
  194.7710  175.2910  146.0830 C   0  0  0  0  0  2  0  0  0  0  0  0
  193.1480  172.0570  145.0130 O   0  0  0  0  0  1  0  0  0  0  0  0
  196.7410  174.4230  143.0820 O   0  0  0  0  0  1  0  0  0  0  0  0
  195.8460  175.3690  145.0120 C   0  0  0  0  0  2  0  0  0  0  0  0
  194.2010  172.9250  145.3420 C   0  0  2  0  0  3  0  0  0  0  0  0
  193.6350  174.3200  145.7580 C   0  0  2  0  0  3  0  0  0  0  0  0
  195.0830  173.1130  144.0600 C   0  0  0  0  0  2  0  0  0  0  0  0
  1 17  1  0  0  0  0
  2 15  2  0  0  0  0
  2  3  1  0  0  0  0
  3 22  1  0  0  0  0
  4  5  2  0  0  0  0
  5 16  1  0  0  0  0
  6 18  2  0  0  0  0
  7  2  1  0  0  0  0
  8  1  2  0  0  0  0
  8 20  1  0  0  0  0
  9  3  2  0  0  0  0
  9  6  1  0  0  0  0
 10 15  1  0  0  0  0
 10 16  1  0  0  0  0
 11  1  1  0  0  0  0
 13  6  1  0  0  0  0
 14 10  2  0  0  0  0
 15 21  1  0  0  0  0
 17  7  2  0  0  0  0
 18 23  1  0  0  0  0
 19  7  1  0  0  0  0
 19 14  1  0  0  0  0
 20 19  2  0  0  0  0
 21 12  2  0  0  0  0
 22 12  1  0  0  0  0
 22 23  2  0  0  0  0
 24 27  1  6  0  0  0
 24 28  1  0  0  0  0
 28 25  1  0  0  0  0
 29 26  1  6  0  0  0
 29 30  1  0  0  0  0
 30  5  1  6  0  0  0
 30 25  1  0  0  0  0
 31 24  1  0  0  0  0
 31 29  1  0  0  0  0
M  END
>  <MODEL>
5

>  <REMARK>
 VINA RESULT:      -8.5      2.135      4.352
  Name = 
  1 active torsions:
  status: ('A' for Active; 'I' for Inactive)
    1  A    between atoms: C_5  and  C_30
                            x       y       z     vdW  Elec       q    Type
                         _______ _______ _______ _____ _____    ______ ____

>  <TORSDO>
F 1

$$$$
=
 OpenBabel11112416563D

 31 35  0  0  1  0  0  0  0  0999 V2000
  191.2260  176.5440  147.2720 C   0  0  0  0  0  0  0  0  0  0  0  0
  189.0280  175.8590  144.2530 C   0  0  0  0  0  0  0  0  0  0  0  0
  187.8070  176.5570  144.3890 C   0  0  0  0  0  0  0  0  0  0  0  0
  192.4660  172.4990  142.0770 O   0  0  0  0  0  0  0  0  0  0  0  0
  191.6660  172.9080  141.2090 C   0  0  0  0  0  0  0  0  0  0  0  0
  186.3150  178.0640  145.5600 C   0  0  0  0  0  0  0  0  0  0  0  0
  190.1510  175.8930  145.1630 C   0  0  0  0  0  0  0  0  0  0  0  0
  192.3780  175.8650  146.8930 C   0  0  0  0  0  3  0  0  0  0  0  0
  187.4950  177.3170  145.5270 C   0  0  0  0  0  3  0  0  0  0  0  0
  190.3690  174.4630  142.7810 C   0  0  0  0  0  0  0  0  0  0  0  0
  191.1910  177.1690  148.5050 F   0  0  0  0  0  0  0  0  0  0  0  0
  186.9920  175.5260  142.3860 N   0  0  0  0  0  0  0  0  0  0  0  0
  185.8610  178.9600  147.0110 Cl  0  0  0  0  0  0  0  0  0  0  0  0
  191.4270  174.5280  143.6520 N   0  0  0  0  0  0  0  0  0  0  0  0
  189.1920  175.0630  143.1320 C   0  0  0  0  0  0  0  0  0  0  0  0
  190.5610  173.7610  141.5670 N   0  0  0  0  0  2  0  0  0  0  0  0
  190.1260  176.5440  146.3850 C   0  0  0  0  0  3  0  0  0  0  0  0
  185.3740  177.9500  144.5300 C   0  0  0  0  0  3  0  0  0  0  0  0
  191.3420  175.1990  144.8070 C   0  0  0  0  0  0  0  0  0  0  0  0
  192.4520  175.2380  145.6680 C   0  0  0  0  0  3  0  0  0  0  0  0
  188.1430  174.9600  142.2140 N   0  0  0  0  0  0  0  0  0  0  0  0
  186.8160  176.4550  143.3550 C   0  0  0  0  0  0  0  0  0  0  0  0
  185.6220  177.1660  143.4080 C   0  0  0  0  0  3  0  0  0  0  0  0
  189.2580  172.8360  138.1680 C   0  0  1  0  0  3  0  0  0  0  0  0
  191.8280  173.1900  138.6320 C   0  0  0  0  0  2  0  0  0  0  0  0
  190.4410  170.4120  140.7760 O   0  0  0  0  0  1  0  0  0  0  0  0
  188.1910  173.7460  138.3140 O   0  0  0  0  0  1  0  0  0  0  0  0
  190.5140  173.7910  138.1630 C   0  0  0  0  0  2  0  0  0  0  0  0
  190.5730  171.2180  139.6340 C   0  0  2  0  0  3  0  0  0  0  0  0
  191.6980  172.2780  139.8530 C   0  0  2  0  0  3  0  0  0  0  0  0
  189.2160  171.9750  139.4250 C   0  0  0  0  0  2  0  0  0  0  0  0
  1 11  1  0  0  0  0
  2  3  1  0  0  0  0
  2  7  1  0  0  0  0
  3  9  1  0  0  0  0
  5 16  1  0  0  0  0
  5  4  2  0  0  0  0
  6 13  1  0  0  0  0
  7 17  1  0  0  0  0
  8  1  1  0  0  0  0
  9  6  2  0  0  0  0
 10 15  1  0  0  0  0
 10 14  2  0  0  0  0
 12 22  1  0  0  0  0
 14 19  1  0  0  0  0
 15  2  2  0  0  0  0
 16 10  1  0  0  0  0
 17  1  2  0  0  0  0
 18  6  1  0  0  0  0
 19  7  2  0  0  0  0
 19 20  1  0  0  0  0
 20  8  2  0  0  0  0
 21 12  2  0  0  0  0
 21 15  1  0  0  0  0
 22 23  1  0  0  0  0
 22  3  2  0  0  0  0
 23 18  2  0  0  0  0
 24 27  1  1  0  0  0
 24 31  1  0  0  0  0
 25 30  1  0  0  0  0
 28 24  1  0  0  0  0
 28 25  1  0  0  0  0
 29 30  1  0  0  0  0
 29 26  1  1  0  0  0
 30  5  1  1  0  0  0
 31 29  1  0  0  0  0
M  END
>  <MODEL>
6

>  <REMARK>
 VINA RESULT:      -8.4      3.776      5.632
  Name = 
  1 active torsions:
  status: ('A' for Active; 'I' for Inactive)
    1  A    between atoms: C_5  and  C_30
                            x       y       z     vdW  Elec       q    Type
                         _______ _______ _______ _____ _____    ______ ____

>  <TORSDO>
F 1

$$$$
=
 OpenBabel11112416563D

 31 35  0  0  1  0  0  0  0  0999 V2000
  194.4030  175.7010  145.2860 C   0  0  0  0  0  0  0  0  0  0  0  0
  191.0060  175.3240  143.6330 C   0  0  0  0  0  0  0  0  0  0  0  0
  191.1590  174.6970  142.3760 C   0  0  0  0  0  0  0  0  0  0  0  0
  188.4500  177.8110  147.5220 O   0  0  0  0  0  0  0  0  0  0  0  0
  187.6440  177.1290  146.8540 C   0  0  0  0  0  0  0  0  0  0  0  0
  192.4950  173.6470  140.6500 C   0  0  0  0  0  0  0  0  0  0  0  0
  192.0500  175.6060  144.5930 C   0  0  0  0  0  0  0  0  0  0  0  0
  194.0180  176.2290  146.5130 C   0  0  0  0  0  3  0  0  0  0  0  0
  192.4150  174.3540  141.8520 C   0  0  0  0  0  3  0  0  0  0  0  0
  189.4020  176.1680  145.2530 C   0  0  0  0  0  0  0  0  0  0  0  0
  195.7490  175.5200  145.0260 F   0  0  0  0  0  0  0  0  0  0  0  0
  188.8230  174.9980  141.9390 N   0  0  0  0  0  0  0  0  0  0  0  0
  194.0630  173.2780  139.9290 Cl  0  0  0  0  0  0  0  0  0  0  0  0
  190.4080  176.4070  146.1540 N   0  0  0  0  0  0  0  0  0  0  0  0
  189.7290  175.7060  144.0100 C   0  0  0  0  0  0  0  0  0  0  0  0
  188.0740  176.4310  145.6690 N   0  0  0  0  0  2  0  0  0  0  0  0
  193.3960  175.3950  144.3430 C   0  0  0  0  0  3  0  0  0  0  0  0
  191.3440  173.4030  139.8910 C   0  0  0  0  0  3  0  0  0  0  0  0
  191.6890  176.1560  145.8550 C   0  0  0  0  0  0  0  0  0  0  0  0
  192.6860  176.4160  146.8100 C   0  0  0  0  0  3  0  0  0  0  0  0
  188.6680  175.4870  143.1270 N   0  0  0  0  0  0  0  0  0  0  0  0
  190.0000  174.4400  141.5690 C   0  0  0  0  0  0  0  0  0  0  0  0
  190.0840  173.7740  140.3510 C   0  0  0  0  0  3  0  0  0  0  0  0
  184.7280  179.0850  145.2030 C   0  0  1  0  0  3  0  0  0  0  0  0
  185.1910  176.6640  146.1380 C   0  0  0  0  0  2  0  0  0  0  0  0
  186.7000  179.2900  148.3880 O   0  0  0  0  0  1  0  0  0  0  0  0
  185.1020  179.6500  143.9660 O   0  0  0  0  0  1  0  0  0  0  0  0
  184.9020  177.5410  144.9300 C   0  0  0  0  0  2  0  0  0  0  0  0
  185.7620  178.7320  147.5050 C   0  0  2  0  0  3  0  0  0  0  0  0
  186.1820  177.2750  147.1300 C   0  0  2  0  0  3  0  0  0  0  0  0
  185.7630  179.5970  146.1980 C   0  0  0  0  0  2  0  0  0  0  0  0
  1  8  1  0  0  0  0
  2 15  1  0  0  0  0
  2  7  1  0  0  0  0
  3  2  2  0  0  0  0
  5  4  2  0  0  0  0
  6  9  2  0  0  0  0
  7 19  2  0  0  0  0
  8 20  2  0  0  0  0
  9  3  1  0  0  0  0
 10 16  1  0  0  0  0
 10 14  2  0  0  0  0
 11  1  1  0  0  0  0
 12 21  1  0  0  0  0
 13  6  1  0  0  0  0
 15 10  1  0  0  0  0
 16  5  1  0  0  0  0
 17  7  1  0  0  0  0
 17  1  2  0  0  0  0
 18 23  2  0  0  0  0
 18  6  1  0  0  0  0
 19 14  1  0  0  0  0
 19 20  1  0  0  0  0
 21 15  2  0  0  0  0
 22 12  2  0  0  0  0
 22  3  1  0  0  0  0
 23 22  1  0  0  0  0
 24 27  1  6  0  0  0
 24 31  1  0  0  0  0
 25 30  1  0  0  0  0
 28 24  1  0  0  0  0
 28 25  1  0  0  0  0
 29 26  1  1  0  0  0
 30  5  1  6  0  0  0
 30 29  1  0  0  0  0
 31 29  1  0  0  0  0
M  END
>  <MODEL>
7

>  <REMARK>
 VINA RESULT:      -8.4      4.128      7.121
  Name = 
  1 active torsions:
  status: ('A' for Active; 'I' for Inactive)
    1  A    between atoms: C_5  and  C_30
                            x       y       z     vdW  Elec       q    Type
                         _______ _______ _______ _____ _____    ______ ____

>  <TORSDO>
F 1

$$$$
=
 OpenBabel11112416563D

 31 35  0  0  1  0  0  0  0  0999 V2000
  185.8270  177.5410  141.0530 C   0  0  0  0  0  0  0  0  0  0  0  0
  187.6740  177.0880  144.3390 C   0  0  0  0  0  0  0  0  0  0  0  0
  186.8400  177.4830  145.4090 C   0  0  0  0  0  0  0  0  0  0  0  0
  192.1390  175.5070  142.0120 O   0  0  0  0  0  0  0  0  0  0  0  0
  192.1390  175.1560  143.2110 C   0  0  0  0  0  0  0  0  0  0  0  0
  184.7420  178.2930  146.3080 C   0  0  0  0  0  0  0  0  0  0  0  0
  187.3300  177.0630  142.9350 C   0  0  0  0  0  0  0  0  0  0  0  0
  186.7650  177.0120  140.1730 C   0  0  0  0  0  3  0  0  0  0  0  0
  185.5570  178.0150  145.2080 C   0  0  0  0  0  3  0  0  0  0  0  0
  189.8160  176.1030  143.7460 C   0  0  0  0  0  0  0  0  0  0  0  0
  184.6470  178.0550  140.5470 F   0  0  0  0  0  0  0  0  0  0  0  0
  188.6420  177.1300  146.9480 N   0  0  0  0  0  0  0  0  0  0  0  0
  183.1590  179.0410  146.0850 Cl  0  0  0  0  0  0  0  0  0  0  0  0
  189.4570  176.0710  142.4220 N   0  0  0  0  0  0  0  0  0  0  0  0
  188.9570  176.6660  144.6460 C   0  0  0  0  0  0  0  0  0  0  0  0
  191.0740  175.5550  144.0970 N   0  0  0  0  0  2  0  0  0  0  0  0
  186.1340  177.5510  142.4320 C   0  0  0  0  0  3  0  0  0  0  0  0
  185.2440  178.1820  147.6100 C   0  0  0  0  0  3  0  0  0  0  0  0
  188.2730  176.5370  142.0080 C   0  0  0  0  0  0  0  0  0  0  0  0
  187.9470  176.4830  140.6420 C   0  0  0  0  0  3  0  0  0  0  0  0
  189.3750  176.6810  145.9800 N   0  0  0  0  0  0  0  0  0  0  0  0
  187.3270  177.3890  146.7560 C   0  0  0  0  0  0  0  0  0  0  0  0
  186.5300  177.7080  147.8510 C   0  0  0  0  0  3  0  0  0  0  0  0
  194.5480  176.1170  146.0960 C   0  0  1  0  0  3  0  0  0  0  0  0
  193.3280  173.9640  145.1880 C   0  0  0  0  0  2  0  0  0  0  0  0
  194.6600  176.0580  142.3470 O   0  0  0  0  0  1  0  0  0  0  0  0
  194.0370  177.1660  146.8880 O   0  0  0  0  0  1  0  0  0  0  0  0
  193.4710  174.9840  146.3060 C   0  0  0  0  0  2  0  0  0  0  0  0
  194.6390  175.4860  143.6290 C   0  0  2  0  0  3  0  0  0  0  0  0
  193.3880  174.5650  143.7830 C   0  0  2  0  0  3  0  0  0  0  0  0
  194.5240  176.6530  144.6700 C   0  0  0  0  0  2  0  0  0  0  0  0
  1 17  1  0  0  0  0
  2 15  2  0  0  0  0
  2  3  1  0  0  0  0
  3 22  1  0  0  0  0
  4  5  2  0  0  0  0
  5 16  1  0  0  0  0
  6 18  2  0  0  0  0
  7  2  1  0  0  0  0
  8 20  1  0  0  0  0
  8  1  2  0  0  0  0
  9  3  2  0  0  0  0
  9  6  1  0  0  0  0
 10 16  1  0  0  0  0
 10 15  1  0  0  0  0
 11  1  1  0  0  0  0
 13  6  1  0  0  0  0
 14 10  2  0  0  0  0
 15 21  1  0  0  0  0
 17  7  2  0  0  0  0
 18 23  1  0  0  0  0
 19 14  1  0  0  0  0
 19  7  1  0  0  0  0
 20 19  2  0  0  0  0
 21 12  2  0  0  0  0
 22 12  1  0  0  0  0
 22 23  2  0  0  0  0
 24 28  1  0  0  0  0
 24 27  1  1  0  0  0
 25 28  1  0  0  0  0
 29 26  1  6  0  0  0
 29 30  1  0  0  0  0
 29 31  1  0  0  0  0
 30  5  1  1  0  0  0
 30 25  1  0  0  0  0
 31 24  1  0  0  0  0
M  END
>  <MODEL>
8

>  <REMARK>
 VINA RESULT:      -8.4      2.004      4.512
  Name = 
  1 active torsions:
  status: ('A' for Active; 'I' for Inactive)
    1  A    between atoms: C_5  and  C_30
                            x       y       z     vdW  Elec       q    Type
                         _______ _______ _______ _____ _____    ______ ____

>  <TORSDO>
F 1

$$$$
=
 OpenBabel11112416563D

 31 35  0  0  1  0  0  0  0  0999 V2000
  191.0540  176.4490  147.2750 C   0  0  0  0  0  0  0  0  0  0  0  0
  188.5360  176.2670  144.4390 C   0  0  0  0  0  0  0  0  0  0  0  0
  187.4040  177.0470  144.7620 C   0  0  0  0  0  0  0  0  0  0  0  0
  191.4310  172.8730  141.6210 O   0  0  0  0  0  0  0  0  0  0  0  0
  190.5980  173.4350  140.8800 C   0  0  0  0  0  0  0  0  0  0  0  0
  186.1730  178.5460  146.2140 C   0  0  0  0  0  0  0  0  0  0  0  0
  189.7360  176.1120  145.2310 C   0  0  0  0  0  0  0  0  0  0  0  0
  192.0980  175.7180  146.7190 C   0  0  0  0  0  3  0  0  0  0  0  0
  187.2700  177.7090  145.9920 C   0  0  0  0  0  3  0  0  0  0  0  0
  189.6010  174.9230  142.7150 C   0  0  0  0  0  0  0  0  0  0  0  0
  191.1910  176.9430  148.5580 F   0  0  0  0  0  0  0  0  0  0  0  0
  186.3160  176.3010  142.7620 N   0  0  0  0  0  0  0  0  0  0  0  0
  185.9390  179.3210  147.7810 Cl  0  0  0  0  0  0  0  0  0  0  0  0
  190.7350  174.8080  143.4770 N   0  0  0  0  0  0  0  0  0  0  0  0
  188.5220  175.5800  143.2370 C   0  0  0  0  0  0  0  0  0  0  0  0
  189.6150  174.3360  141.4260 N   0  0  0  0  0  2  0  0  0  0  0  0
  189.8830  176.6330  146.5060 C   0  0  0  0  0  3  0  0  0  0  0  0
  185.1350  178.6190  145.2770 C   0  0  0  0  0  3  0  0  0  0  0  0
  190.8190  175.3600  144.6940 C   0  0  0  0  0  0  0  0  0  0  0  0
  192.0020  175.2170  145.4390 C   0  0  0  0  0  3  0  0  0  0  0  0
  187.3890  175.6620  142.4220 N   0  0  0  0  0  0  0  0  0  0  0  0
  186.3180  177.1370  143.8280 C   0  0  0  0  0  0  0  0  0  0  0  0
  185.2040  177.9360  144.0660 C   0  0  0  0  0  3  0  0  0  0  0  0
  192.0120  170.4430  138.8540 C   0  0  1  0  0  3  0  0  0  0  0  0
  189.6930  171.6380  139.2370 C   0  0  0  0  0  2  0  0  0  0  0  0
  192.4750  174.1660  138.9170 O   0  0  0  0  0  1  0  0  0  0  0  0
  192.6840  169.5170  139.6760 O   0  0  0  0  0  1  0  0  0  0  0  0
  190.5410  170.3910  139.4250 C   0  0  0  0  0  2  0  0  0  0  0  0
  191.7790  172.9740  138.6610 C   0  0  2  0  0  3  0  0  0  0  0  0
  190.4470  172.9480  139.4740 C   0  0  2  0  0  3  0  0  0  0  0  0
  192.6760  171.7840  139.1460 C   0  0  0  0  0  2  0  0  0  0  0  0
  1 11  1  0  0  0  0
  2  3  1  0  0  0  0
  2  7  1  0  0  0  0
  3  9  1  0  0  0  0
  5 16  1  0  0  0  0
  5  4  2  0  0  0  0
  6 13  1  0  0  0  0
  7 17  1  0  0  0  0
  8  1  1  0  0  0  0
  9  6  2  0  0  0  0
 10 15  1  0  0  0  0
 10 14  2  0  0  0  0
 12 22  1  0  0  0  0
 14 19  1  0  0  0  0
 15  2  2  0  0  0  0
 16 10  1  0  0  0  0
 17  1  2  0  0  0  0
 18  6  1  0  0  0  0
 19  7  2  0  0  0  0
 19 20  1  0  0  0  0
 20  8  2  0  0  0  0
 21 12  2  0  0  0  0
 21 15  1  0  0  0  0
 22 23  1  0  0  0  0
 22  3  2  0  0  0  0
 23 18  2  0  0  0  0
 24 31  1  0  0  0  0
 24 28  1  0  0  0  0
 24 27  1  1  0  0  0
 25 28  1  0  0  0  0
 25 30  1  0  0  0  0
 29 26  1  1  0  0  0
 29 31  1  0  0  0  0
 29 30  1  0  0  0  0
 30  5  1  1  0  0  0
M  END
>  <MODEL>
9

>  <REMARK>
 VINA RESULT:      -8.3      3.931      5.784
  Name = 
  1 active torsions:
  status: ('A' for Active; 'I' for Inactive)
    1  A    between atoms: C_5  and  C_30
                            x       y       z     vdW  Elec       q    Type
                         _______ _______ _______ _____ _____    ______ ____

>  <TORSDO>
F 1

$$$$
