=
 OpenBabel11112416303D

 32 37  0  0  1  0  0  0  0  0999 V2000
  185.6320  177.8690  144.5440 C   0  0  0  0  0  2  0  0  0  0  0  0
  190.3210  174.7360  145.0040 C   0  0  1  0  0  3  0  0  0  0  0  0
  189.9670  170.7800  142.2410 O   0  0  0  0  0  0  0  0  0  0  0  0
  191.3280  170.7330  141.8890 C   0  0  0  0  0  2  0  0  0  0  0  0
  192.3030  174.7100  146.6890 C   0  0  1  0  0  3  0  0  0  0  0  0
  193.2750  175.6440  145.9590 C   0  0  2  0  0  3  0  0  0  0  0  0
  188.3460  176.3100  145.2100 C   0  0  1  0  0  3  0  0  0  0  0  0
  188.5550  174.7430  143.2630 C   0  0  0  0  0  3  0  0  0  0  0  0
  194.2850  176.1960  143.9510 C   0  0  0  0  0  0  0  0  0  0  0  0
  187.1370  176.6760  142.8800 C   0  0  0  0  0  2  0  0  0  0  0  0
  189.5670  172.1320  142.1680 C   0  0  0  0  0  2  0  0  0  0  0  0
  189.4920  173.8630  144.0460 C   0  0  1  0  0  3  0  0  0  0  0  0
  190.3850  173.0490  143.1060 C   0  0  1  0  0  3  0  0  0  0  0  0
  192.2720  173.1160  144.7940 C   0  0  1  0  0  3  0  0  0  0  0  0
  193.5170  177.3270  144.3180 N   0  0  0  0  0  2  0  0  0  0  0  0
  185.7830  176.6470  145.4500 C   0  0  0  0  0  2  0  0  0  0  0  0
  187.9880  175.8350  143.7960 C   0  0  0  0  0  0  0  0  0  0  0  0
  192.6770  176.9570  145.4420 C   0  0  0  0  0  2  0  0  0  0  0  0
  187.1480  176.5790  146.1370 C   0  0  0  0  0  2  0  0  0  0  0  0
  186.7500  178.0140  143.5050 C   0  0  1  0  0  3  0  0  0  0  0  0
  192.2000  171.2740  143.0310 C   0  0  0  0  0  2  0  0  0  0  0  0
  191.3920  172.2240  143.9200 C   0  0  2  0  0  3  0  0  0  0  0  0
  193.1160  174.0720  143.9400 C   0  0  0  0  0  2  0  0  0  0  0  0
  189.3320  175.4020  145.9540 C   0  0  0  0  0  2  0  0  0  0  0  0
  191.6170  175.3590  147.8810 C   0  0  0  0  0  1  0  0  0  0  0  0
  195.1090  176.2180  142.9990 O   0  0  0  0  0  0  0  0  0  0  0  0
  191.3790  173.9000  145.7680 C   0  0  2  0  0  3  0  0  0  0  0  0
  194.0130  174.9970  144.7740 C   0  0  2  0  0  3  0  0  0  0  0  0
  186.3280  178.9810  142.4110 C   0  0  0  0  0  2  0  0  0  0  0  0
  185.4170  178.3130  141.4380 C   0  0  0  0  0  0  0  0  0  0  0  0
  185.9070  177.9130  140.1640 N   0  0  0  0  0  1  0  0  0  0  0  0
  184.2090  178.1250  141.7340 O   0  0  0  0  0  0  0  0  0  0  0  0
  1 16  1  0  0  0  0
  2 27  1  0  0  0  0
  2 24  1  1  0  0  0
  4  3  1  0  0  0  0
  4 21  1  0  0  0  0
  5 25  1  1  0  0  0
  6 18  1  6  0  0  0
  6  5  1  0  0  0  0
  7 24  1  1  0  0  0
  7 19  1  0  0  0  0
  8 17  2  0  0  0  0
  9 15  1  0  0  0  0
  9 28  1  0  0  0  0
 10 20  1  0  0  0  0
 10 17  1  0  0  0  0
 11  3  1  0  0  0  0
 12  8  1  6  0  0  0
 12  2  1  0  0  0  0
 13 11  1  1  0  0  0
 13 22  1  0  0  0  0
 13 12  1  0  0  0  0
 14 23  1  6  0  0  0
 14 27  1  0  0  0  0
 15 18  1  0  0  0  0
 16 19  1  0  0  0  0
 17  7  1  0  0  0  0
 20 29  1  6  0  0  0
 20  1  1  0  0  0  0
 22 21  1  6  0  0  0
 22 14  1  0  0  0  0
 23 28  1  0  0  0  0
 26  9  2  0  0  0  0
 27  5  1  0  0  0  0
 28  6  1  0  0  0  0
 30 32  2  0  0  0  0
 30 29  1  0  0  0  0
 31 30  1  0  0  0  0
M  END
>  <MODEL>
1

>  <REMARK>
 VINA RESULT:      -8.2      0.000      0.000
  Name = 
  2 active torsions:
  status: ('A' for Active; 'I' for Inactive)
    1  A    between atoms: C_20  and  C_29
    2  A    between atoms: C_29  and  C_30
                            x       y       z     vdW  Elec       q    Type
                         _______ _______ _______ _____ _____    ______ ____

>  <TORSDO>
F 2

$$$$
=
 OpenBabel11112416303D

 32 37  0  0  1  0  0  0  0  0999 V2000
  195.2320  175.4210  145.6690 C   0  0  0  0  0  2  0  0  0  0  0  0
  190.2780  174.3890  143.1360 C   0  0  1  0  0  3  0  0  0  0  0  0
  187.2760  178.1340  143.7450 O   0  0  0  0  0  0  0  0  0  0  0  0
  186.6580  178.0230  142.4870 C   0  0  0  0  0  2  0  0  0  0  0  0
  189.1530  172.2350  142.2060 C   0  0  1  0  0  3  0  0  0  0  0  0
  189.6220  172.3080  140.7490 C   0  0  2  0  0  3  0  0  0  0  0  0
  192.5420  174.3900  144.2750 C   0  0  1  0  0  3  0  0  0  0  0  0
  191.2950  176.5280  143.8710 C   0  0  0  0  0  3  0  0  0  0  0  0
  189.8870  173.6300  138.8670 C   0  0  0  0  0  0  0  0  0  0  0  0
  193.6920  176.7760  144.1690 C   0  0  0  0  0  2  0  0  0  0  0  0
  188.6600  177.9400  143.5440 C   0  0  0  0  0  2  0  0  0  0  0  0
  189.9990  175.7730  143.7470 C   0  0  1  0  0  3  0  0  0  0  0  0
  188.9850  176.5650  142.9170 C   0  0  1  0  0  3  0  0  0  0  0  0
  187.9860  174.4130  142.0330 C   0  0  1  0  0  3  0  0  0  0  0  0
  191.1920  173.2220  139.2370 N   0  0  0  0  0  2  0  0  0  0  0  0
  193.9770  174.9090  146.3760 C   0  0  0  0  0  2  0  0  0  0  0  0
  192.4530  175.9170  144.1590 C   0  0  0  0  0  0  0  0  0  0  0  0
  191.1140  172.5890  140.5400 C   0  0  0  0  0  2  0  0  0  0  0  0
  193.2150  173.8660  145.5570 C   0  0  0  0  0  2  0  0  0  0  0  0
  194.9740  175.9520  144.2540 C   0  0  1  0  0  3  0  0  0  0  0  0
  186.6030  176.5550  142.0400 C   0  0  0  0  0  2  0  0  0  0  0  0
  187.7020  175.7430  142.7290 C   0  0  2  0  0  3  0  0  0  0  0  0
  188.5470  174.6320  140.6210 C   0  0  0  0  0  2  0  0  0  0  0  0
  191.2030  173.6610  144.1060 C   0  0  0  0  0  2  0  0  0  0  0  0
  189.8970  171.1970  143.0320 C   0  0  0  0  0  1  0  0  0  0  0  0
  189.6460  174.2140  137.7780 O   0  0  0  0  0  0  0  0  0  0  0  0
  188.9690  173.5990  142.8880 C   0  0  2  0  0  3  0  0  0  0  0  0
  188.8560  173.3230  139.8820 C   0  0  2  0  0  3  0  0  0  0  0  0
  196.1500  176.7950  143.7880 C   0  0  0  0  0  2  0  0  0  0  0  0
  196.6430  176.3270  142.4610 C   0  0  0  0  0  0  0  0  0  0  0  0
  196.0470  176.8160  141.2660 N   0  0  0  0  0  1  0  0  0  0  0  0
  197.5720  175.4800  142.3990 O   0  0  0  0  0  0  0  0  0  0  0  0
  1 16  1  0  0  0  0
  2 12  1  0  0  0  0
  2 24  1  1  0  0  0
  4  3  1  0  0  0  0
  5 27  1  0  0  0  0
  5 25  1  1  0  0  0
  6 18  1  1  0  0  0
  6  5  1  0  0  0  0
  7 24  1  1  0  0  0
  7 19  1  0  0  0  0
  8 17  2  0  0  0  0
  9 15  1  0  0  0  0
  9 28  1  0  0  0  0
 10 20  1  0  0  0  0
 11  3  1  0  0  0  0
 12  8  1  6  0  0  0
 13 11  1  1  0  0  0
 13 12  1  0  0  0  0
 14 23  1  6  0  0  0
 14 22  1  0  0  0  0
 14 27  1  0  0  0  0
 15 18  1  0  0  0  0
 17 10  1  0  0  0  0
 17  7  1  0  0  0  0
 19 16  1  0  0  0  0
 20 29  1  1  0  0  0
 20  1  1  0  0  0  0
 21  4  1  0  0  0  0
 22 21  1  6  0  0  0
 22 13  1  0  0  0  0
 26  9  2  0  0  0  0
 27  2  1  0  0  0  0
 28 23  1  0  0  0  0
 28  6  1  0  0  0  0
 30 29  1  0  0  0  0
 31 30  1  0  0  0  0
 32 30  2  0  0  0  0
M  END
>  <MODEL>
2

>  <REMARK>
 VINA RESULT:      -7.7      2.538      7.226
  Name = 
  2 active torsions:
  status: ('A' for Active; 'I' for Inactive)
    1  A    between atoms: C_20  and  C_29
    2  A    between atoms: C_29  and  C_30
                            x       y       z     vdW  Elec       q    Type
                         _______ _______ _______ _____ _____    ______ ____

>  <TORSDO>
F 2

$$$$
=
 OpenBabel11112416303D

 32 37  0  0  1  0  0  0  0  0999 V2000
  187.7270  176.2120  144.0020 C   0  0  0  0  0  2  0  0  0  0  0  0
  192.9360  174.1610  144.8230 C   0  0  1  0  0  3  0  0  0  0  0  0
  192.8780  169.3260  144.6400 O   0  0  0  0  0  0  0  0  0  0  0  0
  194.1420  169.1940  144.0390 C   0  0  0  0  0  2  0  0  0  0  0  0
  195.1440  175.1850  145.7410 C   0  0  1  0  0  3  0  0  0  0  0  0
  195.7810  175.6460  144.4240 C   0  0  2  0  0  3  0  0  0  0  0  0
  190.7620  175.4530  144.6770 C   0  0  1  0  0  3  0  0  0  0  0  0
  190.9310  173.1040  143.8160 C   0  0  0  0  0  3  0  0  0  0  0  0
  196.3110  175.1000  142.2380 C   0  0  0  0  0  0  0  0  0  0  0  0
  189.1260  174.4210  142.8650 C   0  0  0  0  0  2  0  0  0  0  0  0
  192.2210  170.3940  143.9900 C   0  0  0  0  0  2  0  0  0  0  0  0
  192.1380  172.8530  144.6790 C   0  0  1  0  0  3  0  0  0  0  0  0
  192.9960  171.7260  144.0980 C   0  0  1  0  0  3  0  0  0  0  0  0
  195.0950  172.8240  144.9940 C   0  0  1  0  0  3  0  0  0  0  0  0
  195.4150  176.1930  142.1550 N   0  0  0  0  0  2  0  0  0  0  0  0
  188.2610  175.6840  145.3340 C   0  0  0  0  0  2  0  0  0  0  0  0
  190.2650  174.2680  143.8400 C   0  0  0  0  0  0  0  0  0  0  0  0
  194.8650  176.4280  143.4770 C   0  0  0  0  0  2  0  0  0  0  0  0
  189.7090  176.0940  145.6010 C   0  0  0  0  0  2  0  0  0  0  0  0
  188.6040  175.8540  142.7960 C   0  0  1  0  0  3  0  0  0  0  0  0
  195.0760  170.3250  144.4930 C   0  0  0  0  0  2  0  0  0  0  0  0
  194.2660  171.5430  144.9420 C   0  0  2  0  0  3  0  0  0  0  0  0
  195.5830  173.2280  143.5960 C   0  0  0  0  0  2  0  0  0  0  0  0
  192.0150  175.1610  145.5120 C   0  0  0  0  0  2  0  0  0  0  0  0
  194.5590  176.3240  146.5630 C   0  0  0  0  0  1  0  0  0  0  0  0
  196.9410  174.6650  141.2390 O   0  0  0  0  0  0  0  0  0  0  0  0
  194.2480  173.9440  145.6180 C   0  0  2  0  0  3  0  0  0  0  0  0
  196.4160  174.5170  143.5930 C   0  0  2  0  0  3  0  0  0  0  0  0
  187.8250  176.0470  141.5050 C   0  0  0  0  0  2  0  0  0  0  0  0
  187.5960  177.4960  141.2380 C   0  0  0  0  0  0  0  0  0  0  0  0
  186.3390  177.9380  140.7410 N   0  0  0  0  0  1  0  0  0  0  0  0
  188.5230  178.3250  141.4280 O   0  0  0  0  0  0  0  0  0  0  0  0
  1 16  1  0  0  0  0
  2 24  1  1  0  0  0
  2 27  1  0  0  0  0
  4 21  1  0  0  0  0
  4  3  1  0  0  0  0
  5 25  1  6  0  0  0
  6 18  1  6  0  0  0
  6  5  1  0  0  0  0
  7 24  1  1  0  0  0
  7 19  1  0  0  0  0
  8 17  2  0  0  0  0
  9 28  1  0  0  0  0
 10 17  1  0  0  0  0
 11  3  1  0  0  0  0
 12  8  1  6  0  0  0
 12  2  1  0  0  0  0
 13 11  1  1  0  0  0
 13 12  1  0  0  0  0
 13 22  1  0  0  0  0
 14 23  1  6  0  0  0
 14 27  1  0  0  0  0
 15  9  1  0  0  0  0
 15 18  1  0  0  0  0
 16 19  1  0  0  0  0
 17  7  1  0  0  0  0
 20 29  1  6  0  0  0
 20 10  1  0  0  0  0
 20  1  1  0  0  0  0
 22 21  1  6  0  0  0
 22 14  1  0  0  0  0
 26  9  2  0  0  0  0
 27  5  1  0  0  0  0
 28 23  1  0  0  0  0
 28  6  1  0  0  0  0
 30 32  2  0  0  0  0
 30 29  1  0  0  0  0
 31 30  1  0  0  0  0
M  END
>  <MODEL>
3

>  <REMARK>
 VINA RESULT:      -7.5      2.075      3.024
  Name = 
  2 active torsions:
  status: ('A' for Active; 'I' for Inactive)
    1  A    between atoms: C_20  and  C_29
    2  A    between atoms: C_29  and  C_30
                            x       y       z     vdW  Elec       q    Type
                         _______ _______ _______ _____ _____    ______ ____

>  <TORSDO>
F 2

$$$$
=
 OpenBabel11112416303D

 32 37  0  0  1  0  0  0  0  0999 V2000
  187.9070  176.9480  146.0280 C   0  0  0  0  0  2  0  0  0  0  0  0
  192.2090  173.8380  144.0690 C   0  0  1  0  0  3  0  0  0  0  0  0
  190.5470  169.7720  142.0420 O   0  0  0  0  0  0  0  0  0  0  0  0
  191.5220  169.7110  141.0310 C   0  0  0  0  0  2  0  0  0  0  0  0
  194.7800  173.8820  144.4640 C   0  0  1  0  0  3  0  0  0  0  0  0
  195.2050  174.7850  143.3010 C   0  0  2  0  0  3  0  0  0  0  0  0
  190.6010  175.4190  145.2250 C   0  0  1  0  0  3  0  0  0  0  0  0
  189.7930  173.7730  143.5140 C   0  0  0  0  0  3  0  0  0  0  0  0
  195.0010  175.2550  141.0430 C   0  0  0  0  0  0  0  0  0  0  0  0
  188.3420  175.6880  143.8640 C   0  0  0  0  0  2  0  0  0  0  0  0
  190.1380  171.1200  142.1420 C   0  0  0  0  0  2  0  0  0  0  0  0
  191.0200  172.9270  143.7190 C   0  0  1  0  0  3  0  0  0  0  0  0
  191.3060  172.0740  142.4790 C   0  0  1  0  0  3  0  0  0  0  0  0
  193.7950  172.2110  142.9240 C   0  0  1  0  0  3  0  0  0  0  0  0
  194.5140  176.4000  141.7190 N   0  0  0  0  0  2  0  0  0  0  0  0
  188.5370  175.7640  146.7620 C   0  0  0  0  0  2  0  0  0  0  0  0
  189.5650  174.8860  144.2270 C   0  0  0  0  0  0  0  0  0  0  0  0
  194.3960  176.0760  143.1290 C   0  0  0  0  0  2  0  0  0  0  0  0
  190.0600  175.7260  146.6330 C   0  0  0  0  0  2  0  0  0  0  0  0
  188.3120  177.0510  144.5530 C   0  0  1  0  0  3  0  0  0  0  0  0
  192.8510  170.2990  141.5260 C   0  0  0  0  0  2  0  0  0  0  0  0
  192.6080  171.2840  142.6730 C   0  0  2  0  0  3  0  0  0  0  0  0
  194.0460  173.1320  141.7220 C   0  0  0  0  0  2  0  0  0  0  0  0
  191.8510  174.5430  145.3730 C   0  0  0  0  0  2  0  0  0  0  0  0
  194.8060  174.5790  145.8160 C   0  0  0  0  0  1  0  0  0  0  0  0
  195.2020  175.2380  139.8010 O   0  0  0  0  0  0  0  0  0  0  0  0
  193.5280  173.0350  144.1930 C   0  0  2  0  0  3  0  0  0  0  0  0
  195.2260  174.0910  141.9280 C   0  0  2  0  0  3  0  0  0  0  0  0
  187.3580  177.9720  143.8090 C   0  0  0  0  0  2  0  0  0  0  0  0
  187.7240  178.0590  142.3670 C   0  0  0  0  0  0  0  0  0  0  0  0
  186.7370  177.8350  141.3670 N   0  0  0  0  0  1  0  0  0  0  0  0
  188.9120  178.3070  142.0330 O   0  0  0  0  0  0  0  0  0  0  0  0
  1 16  1  0  0  0  0
  2 27  1  0  0  0  0
  2 24  1  1  0  0  0
  3 11  1  0  0  0  0
  4 21  1  0  0  0  0
  4  3  1  0  0  0  0
  5 25  1  1  0  0  0
  6 18  1  6  0  0  0
  6  5  1  0  0  0  0
  7 24  1  1  0  0  0
  7 19  1  0  0  0  0
  8 17  2  0  0  0  0
  9 15  1  0  0  0  0
  9 28  1  0  0  0  0
 10 17  1  0  0  0  0
 10 20  1  0  0  0  0
 12  8  1  6  0  0  0
 12  2  1  0  0  0  0
 13 11  1  1  0  0  0
 13 22  1  0  0  0  0
 13 12  1  0  0  0  0
 14 23  1  6  0  0  0
 14 27  1  0  0  0  0
 15 18  1  0  0  0  0
 17  7  1  0  0  0  0
 19 16  1  0  0  0  0
 20 29  1  6  0  0  0
 20  1  1  0  0  0  0
 22 21  1  6  0  0  0
 22 14  1  0  0  0  0
 23 28  1  0  0  0  0
 26  9  2  0  0  0  0
 27  5  1  0  0  0  0
 28  6  1  0  0  0  0
 30 29  1  0  0  0  0
 31 30  1  0  0  0  0
 32 30  2  0  0  0  0
M  END
>  <MODEL>
4

>  <REMARK>
 VINA RESULT:      -7.4      1.789      2.629
  Name = 
  2 active torsions:
  status: ('A' for Active; 'I' for Inactive)
    1  A    between atoms: C_20  and  C_29
    2  A    between atoms: C_29  and  C_30
                            x       y       z     vdW  Elec       q    Type
                         _______ _______ _______ _____ _____    ______ ____

>  <TORSDO>
F 2

$$$$
=
 OpenBabel11112416303D

 32 37  0  0  1  0  0  0  0  0999 V2000
  186.3810  177.9210  144.9980 C   0  0  0  0  0  2  0  0  0  0  0  0
  190.8850  175.2250  142.8860 C   0  0  1  0  0  3  0  0  0  0  0  0
  194.9640  177.2080  144.5730 O   0  0  0  0  0  0  0  0  0  0  0  0
  195.6870  176.0040  144.6390 C   0  0  0  0  0  2  0  0  0  0  0  0
  191.2210  173.5690  140.9080 C   0  0  1  0  0  3  0  0  0  0  0  0
  191.0620  172.2400  141.6550 C   0  0  2  0  0  3  0  0  0  0  0  0
  188.6470  176.2640  143.4620 C   0  0  1  0  0  3  0  0  0  0  0  0
  190.6750  176.6950  144.8720 C   0  0  0  0  0  3  0  0  0  0  0  0
  191.6430  170.9830  143.5100 C   0  0  0  0  0  0  0  0  0  0  0  0
  188.5500  177.0450  145.9930 C   0  0  0  0  0  2  0  0  0  0  0  0
  193.6660  176.9380  145.0600 C   0  0  0  0  0  2  0  0  0  0  0  0
  191.5760  176.3100  143.7310 C   0  0  1  0  0  3  0  0  0  0  0  0
  192.9390  175.8420  144.2490 C   0  0  1  0  0  3  0  0  0  0  0  0
  193.1540  174.2280  142.3090 C   0  0  1  0  0  3  0  0  0  0  0  0
  190.2420  171.1650  143.5930 N   0  0  0  0  0  2  0  0  0  0  0  0
  187.2040  178.3960  143.8010 C   0  0  0  0  0  2  0  0  0  0  0  0
  189.3400  176.7260  144.7500 C   0  0  0  0  0  0  0  0  0  0  0  0
  189.8530  172.1390  142.5910 C   0  0  0  0  0  2  0  0  0  0  0  0
  187.6230  177.2530  142.8750 C   0  0  0  0  0  2  0  0  0  0  0  0
  187.0520  176.8070  145.8110 C   0  0  1  0  0  3  0  0  0  0  0  0
  195.2390  175.0430  143.5290 C   0  0  0  0  0  2  0  0  0  0  0  0
  193.8140  175.3710  143.0770 C   0  0  2  0  0  3  0  0  0  0  0  0
  192.9610  172.9940  143.2020 C   0  0  0  0  0  2  0  0  0  0  0  0
  189.6050  175.8470  142.3390 C   0  0  0  0  0  2  0  0  0  0  0  0
  190.0070  173.9430  140.0710 C   0  0  0  0  0  1  0  0  0  0  0  0
  192.2680  170.1920  144.2650 O   0  0  0  0  0  0  0  0  0  0  0  0
  191.8060  174.7110  141.7520 C   0  0  2  0  0  3  0  0  0  0  0  0
  192.2930  171.8190  142.4770 C   0  0  2  0  0  3  0  0  0  0  0  0
  186.3910  176.6790  147.1730 C   0  0  0  0  0  2  0  0  0  0  0  0
  185.8790  178.0000  147.6380 C   0  0  0  0  0  0  0  0  0  0  0  0
  186.7560  178.9170  148.2810 N   0  0  0  0  0  1  0  0  0  0  0  0
  184.6650  178.2940  147.4840 O   0  0  0  0  0  0  0  0  0  0  0  0
  1 20  1  0  0  0  0
  2 24  1  6  0  0  0
  2 12  1  0  0  0  0
  3  4  1  0  0  0  0
  3 11  1  0  0  0  0
  5 25  1  1  0  0  0
  5  6  1  0  0  0  0
  5 27  1  0  0  0  0
  6 28  1  0  0  0  0
  6 18  1  1  0  0  0
  7 24  1  6  0  0  0
  7 17  1  0  0  0  0
  9 15  1  0  0  0  0
  9 26  2  0  0  0  0
 12 13  1  0  0  0  0
 12  8  1  1  0  0  0
 13 11  1  6  0  0  0
 14 22  1  0  0  0  0
 14 23  1  1  0  0  0
 16  1  1  0  0  0  0
 17  8  2  0  0  0  0
 17 10  1  0  0  0  0
 18 15  1  0  0  0  0
 19  7  1  0  0  0  0
 19 16  1  0  0  0  0
 20 10  1  0  0  0  0
 20 29  1  1  0  0  0
 21  4  1  0  0  0  0
 22 21  1  1  0  0  0
 22 13  1  0  0  0  0
 27 14  1  0  0  0  0
 27  2  1  0  0  0  0
 28 23  1  0  0  0  0
 28  9  1  0  0  0  0
 29 30  1  0  0  0  0
 30 31  1  0  0  0  0
 32 30  2  0  0  0  0
M  END
>  <MODEL>
5

>  <REMARK>
 VINA RESULT:      -7.3      2.747      5.103
  Name = 
  2 active torsions:
  status: ('A' for Active; 'I' for Inactive)
    1  A    between atoms: C_20  and  C_29
    2  A    between atoms: C_29  and  C_30
                            x       y       z     vdW  Elec       q    Type
                         _______ _______ _______ _____ _____    ______ ____

>  <TORSDO>
F 2

$$$$
=
 OpenBabel11112416303D

 32 37  0  0  1  0  0  0  0  0999 V2000
  188.7110  172.3760  142.0430 C   0  0  0  0  0  2  0  0  0  0  0  0
  193.6640  173.2940  144.6200 C   0  0  1  0  0  3  0  0  0  0  0  0
  195.8800  169.0900  145.5310 O   0  0  0  0  0  0  0  0  0  0  0  0
  197.1840  169.5720  145.3220 C   0  0  0  0  0  2  0  0  0  0  0  0
  194.7090  175.3540  145.8170 C   0  0  1  0  0  3  0  0  0  0  0  0
  195.4670  175.9790  144.6400 C   0  0  2  0  0  3  0  0  0  0  0  0
  191.3320  173.3010  143.6300 C   0  0  1  0  0  3  0  0  0  0  0  0
  192.8310  171.3040  143.3980 C   0  0  0  0  0  3  0  0  0  0  0  0
  196.8870  175.6230  142.8470 C   0  0  0  0  0  0  0  0  0  0  0  0
  191.0620  171.4610  141.7420 C   0  0  0  0  0  2  0  0  0  0  0  0
  195.0700  169.6330  144.5090 C   0  0  0  0  0  2  0  0  0  0  0  0
  193.6500  171.7560  144.5760 C   0  0  1  0  0  3  0  0  0  0  0  0
  195.0660  171.1780  144.5070 C   0  0  1  0  0  3  0  0  0  0  0  0
  195.9950  173.2440  145.6390 C   0  0  1  0  0  3  0  0  0  0  0  0
  195.6790  176.1070  142.2900 N   0  0  0  0  0  2  0  0  0  0  0  0
  188.9440  172.2840  143.5510 C   0  0  0  0  0  2  0  0  0  0  0  0
  191.7430  171.9710  142.9850 C   0  0  0  0  0  0  0  0  0  0  0  0
  194.6740  176.1240  143.3370 C   0  0  0  0  0  2  0  0  0  0  0  0
  189.8620  173.3860  144.0810 C   0  0  0  0  0  2  0  0  0  0  0  0
  190.0020  172.4260  141.2170 C   0  0  1  0  0  3  0  0  0  0  0  0
  197.2870  171.0480  145.7310 C   0  0  0  0  0  2  0  0  0  0  0  0
  195.9130  171.7200  145.6690 C   0  0  2  0  0  3  0  0  0  0  0  0
  196.6840  173.7400  144.3600 C   0  0  0  0  0  2  0  0  0  0  0  0
  192.2180  173.7390  144.8030 C   0  0  0  0  0  2  0  0  0  0  0  0
  193.4330  176.0960  146.1810 C   0  0  0  0  0  1  0  0  0  0  0  0
  197.9400  175.4960  142.1690 O   0  0  0  0  0  0  0  0  0  0  0  0
  194.5770  173.8250  145.7540 C   0  0  2  0  0  3  0  0  0  0  0  0
  196.7840  175.2700  144.2800 C   0  0  2  0  0  3  0  0  0  0  0  0
  189.7060  172.1100  139.7610 C   0  0  0  0  0  2  0  0  0  0  0  0
  189.6180  173.3610  138.9550 C   0  0  0  0  0  0  0  0  0  0  0  0
  188.4110  174.1130  138.9370 N   0  0  0  0  0  1  0  0  0  0  0  0
  190.6040  173.7400  138.2710 O   0  0  0  0  0  0  0  0  0  0  0  0
  1 16  1  0  0  0  0
  2 24  1  1  0  0  0
  2 27  1  0  0  0  0
  4  3  1  0  0  0  0
  4 21  1  0  0  0  0
  5 25  1  6  0  0  0
  6 18  1  6  0  0  0
  6  5  1  0  0  0  0
  7 19  1  1  0  0  0
  7 24  1  0  0  0  0
  9 28  1  0  0  0  0
 10 17  1  0  0  0  0
 11  3  1  0  0  0  0
 12  8  1  6  0  0  0
 12  2  1  0  0  0  0
 13 11  1  1  0  0  0
 13 12  1  0  0  0  0
 13 22  1  0  0  0  0
 14 23  1  6  0  0  0
 14 22  1  0  0  0  0
 14 27  1  0  0  0  0
 15  9  1  0  0  0  0
 15 18  1  0  0  0  0
 16 19  1  0  0  0  0
 17  8  2  0  0  0  0
 17  7  1  0  0  0  0
 20 29  1  6  0  0  0
 20 10  1  0  0  0  0
 20  1  1  0  0  0  0
 22 21  1  6  0  0  0
 26  9  2  0  0  0  0
 27  5  1  0  0  0  0
 28 23  1  0  0  0  0
 28  6  1  0  0  0  0
 30 29  1  0  0  0  0
 31 30  1  0  0  0  0
 32 30  2  0  0  0  0
M  END
>  <MODEL>
6

>  <REMARK>
 VINA RESULT:      -7.0      3.672      5.164
  Name = 
  2 active torsions:
  status: ('A' for Active; 'I' for Inactive)
    1  A    between atoms: C_20  and  C_29
    2  A    between atoms: C_29  and  C_30
                            x       y       z     vdW  Elec       q    Type
                         _______ _______ _______ _____ _____    ______ ____

>  <TORSDO>
F 2

$$$$
=
 OpenBabel11112416303D

 32 37  0  0  1  0  0  0  0  0999 V2000
  190.0000  176.1560  145.1820 C   0  0  0  0  0  2  0  0  0  0  0  0
  195.3130  174.4950  144.1640 C   0  0  1  0  0  3  0  0  0  0  0  0
  196.2380  170.3440  146.4710 O   0  0  0  0  0  0  0  0  0  0  0  0
  197.0810  169.8160  145.4760 C   0  0  0  0  0  2  0  0  0  0  0  0
  197.4100  175.6880  143.1930 C   0  0  1  0  0  3  0  0  0  0  0  0
  197.2550  175.3180  141.7130 C   0  0  2  0  0  3  0  0  0  0  0  0
  193.0890  175.6610  144.5100 C   0  0  1  0  0  3  0  0  0  0  0  0
  193.3560  173.2130  144.9860 C   0  0  0  0  0  3  0  0  0  0  0  0
  196.8290  173.6440  140.1730 C   0  0  0  0  0  0  0  0  0  0  0  0
  191.0760  173.9370  144.5660 C   0  0  0  0  0  2  0  0  0  0  0  0
  195.1400  170.9380  145.8100 C   0  0  0  0  0  2  0  0  0  0  0  0
  194.8450  173.3790  145.1140 C   0  0  1  0  0  3  0  0  0  0  0  0
  195.5660  172.0570  144.8330 C   0  0  1  0  0  3  0  0  0  0  0  0
  197.5430  173.3080  143.8650 C   0  0  1  0  0  3  0  0  0  0  0  0
  195.7800  174.5810  140.0200 N   0  0  0  0  0  2  0  0  0  0  0  0
  191.1850  176.3910  146.1170 C   0  0  0  0  0  2  0  0  0  0  0  0
  192.5380  174.2510  144.7590 C   0  0  0  0  0  0  0  0  0  0  0  0
  195.8610  175.5310  141.1140 C   0  0  0  0  0  2  0  0  0  0  0  0
  192.4660  176.7730  145.3730 C   0  0  0  0  0  2  0  0  0  0  0  0
  190.2810  175.1410  144.0660 C   0  0  1  0  0  3  0  0  0  0  0  0
  197.8450  170.9410  144.7640 C   0  0  0  0  0  2  0  0  0  0  0  0
  197.0860  172.2660  144.8830 C   0  0  2  0  0  3  0  0  0  0  0  0
  197.2350  172.8580  142.4300 C   0  0  0  0  0  2  0  0  0  0  0  0
  194.6150  175.7730  144.6160 C   0  0  0  0  0  2  0  0  0  0  0  0
  197.0340  177.1290  143.5010 C   0  0  0  0  0  1  0  0  0  0  0  0
  197.0090  172.6940  139.3670 O   0  0  0  0  0  0  0  0  0  0  0  0
  196.8540  174.6460  144.1740 C   0  0  2  0  0  3  0  0  0  0  0  0
  197.6690  173.8770  141.3680 C   0  0  2  0  0  3  0  0  0  0  0  0
  188.9760  174.6650  143.4490 C   0  0  0  0  0  2  0  0  0  0  0  0
  188.9540  174.9380  141.9830 C   0  0  0  0  0  0  0  0  0  0  0  0
  189.6760  174.0970  141.0920 N   0  0  0  0  0  1  0  0  0  0  0  0
  188.3170  175.9270  141.5380 O   0  0  0  0  0  0  0  0  0  0  0  0
  1 16  1  0  0  0  0
  2 27  1  0  0  0  0
  2 24  1  1  0  0  0
  2 12  1  0  0  0  0
  4  3  1  0  0  0  0
  5 25  1  6  0  0  0
  5 27  1  0  0  0  0
  6 18  1  1  0  0  0
  6  5  1  0  0  0  0
  7 24  1  1  0  0  0
  7 17  1  0  0  0  0
  7 19  1  0  0  0  0
  9 28  1  0  0  0  0
 10 17  1  0  0  0  0
 11  3  1  0  0  0  0
 12  8  1  6  0  0  0
 13 22  1  0  0  0  0
 13 12  1  0  0  0  0
 13 11  1  1  0  0  0
 14 23  1  6  0  0  0
 14 27  1  0  0  0  0
 14 22  1  0  0  0  0
 15  9  1  0  0  0  0
 15 18  1  0  0  0  0
 17  8  2  0  0  0  0
 19 16  1  0  0  0  0
 20 29  1  1  0  0  0
 20 10  1  0  0  0  0
 20  1  1  0  0  0  0
 21  4  1  0  0  0  0
 22 21  1  6  0  0  0
 26  9  2  0  0  0  0
 28  6  1  0  0  0  0
 28 23  1  0  0  0  0
 30 29  1  0  0  0  0
 31 30  1  0  0  0  0
 32 30  2  0  0  0  0
M  END
>  <MODEL>
7

>  <REMARK>
 VINA RESULT:      -7.0      3.642      5.570
  Name = 
  2 active torsions:
  status: ('A' for Active; 'I' for Inactive)
    1  A    between atoms: C_20  and  C_29
    2  A    between atoms: C_29  and  C_30
                            x       y       z     vdW  Elec       q    Type
                         _______ _______ _______ _____ _____    ______ ____

>  <TORSDO>
F 2

$$$$
=
 OpenBabel11112416303D

 32 37  0  0  1  0  0  0  0  0999 V2000
  190.5360  171.7010  138.9690 C   0  0  0  0  0  2  0  0  0  0  0  0
  193.0400  174.6940  143.0660 C   0  0  1  0  0  3  0  0  0  0  0  0
  189.9040  175.5850  146.6410 O   0  0  0  0  0  0  0  0  0  0  0  0
  190.8480  175.4990  147.6800 C   0  0  0  0  0  2  0  0  0  0  0  0
  195.2500  176.0600  143.1950 C   0  0  1  0  0  3  0  0  0  0  0  0
  196.1930  174.9750  143.7280 C   0  0  2  0  0  3  0  0  0  0  0  0
  192.2510  173.5270  140.9600 C   0  0  1  0  0  3  0  0  0  0  0  0
  190.9740  173.3230  143.1080 C   0  0  0  0  0  3  0  0  0  0  0  0
  196.5170  173.2830  145.2740 C   0  0  0  0  0  0  0  0  0  0  0  0
  190.5810  171.5430  141.5050 C   0  0  0  0  0  2  0  0  0  0  0  0
  190.1780  174.5280  145.7450 C   0  0  0  0  0  2  0  0  0  0  0  0
  191.6130  174.5800  143.6320 C   0  0  1  0  0  3  0  0  0  0  0  0
  191.6080  174.5960  145.1630 C   0  0  1  0  0  3  0  0  0  0  0  0
  193.7860  175.8880  145.1860 C   0  0  1  0  0  3  0  0  0  0  0  0
  196.5560  172.6560  144.0050 N   0  0  0  0  0  2  0  0  0  0  0  0
  190.4300  173.2170  139.1360 C   0  0  0  0  0  2  0  0  0  0  0  0
  191.2180  172.8570  141.8740 C   0  0  0  0  0  0  0  0  0  0  0  0
  196.1260  173.6220  143.0110 C   0  0  0  0  0  2  0  0  0  0  0  0
  191.7540  173.8660  139.5430 C   0  0  0  0  0  2  0  0  0  0  0  0
  191.1190  170.9810  140.1910 C   0  0  1  0  0  3  0  0  0  0  0  0
  192.2240  175.9820  147.1990 C   0  0  0  0  0  2  0  0  0  0  0  0
  192.3410  175.8420  145.6790 C   0  0  2  0  0  3  0  0  0  0  0  0
  194.5910  174.6900  145.7080 C   0  0  0  0  0  2  0  0  0  0  0  0
  192.9030  174.7830  141.5500 C   0  0  0  0  0  2  0  0  0  0  0  0
  195.4390  176.3560  141.7160 C   0  0  0  0  0  1  0  0  0  0  0  0
  196.8380  172.6840  146.3340 O   0  0  0  0  0  0  0  0  0  0  0  0
  193.7900  175.9180  143.6490 C   0  0  2  0  0  3  0  0  0  0  0  0
  196.0500  174.6860  145.2320 C   0  0  2  0  0  3  0  0  0  0  0  0
  190.8190  169.4930  140.1160 C   0  0  0  0  0  2  0  0  0  0  0  0
  191.5100  168.7590  141.2140 C   0  0  0  0  0  0  0  0  0  0  0  0
  192.9310  168.7040  141.2500 N   0  0  0  0  0  1  0  0  0  0  0  0
  190.8360  168.1660  142.0960 O   0  0  0  0  0  0  0  0  0  0  0  0
  1 16  1  0  0  0  0
  1 20  1  0  0  0  0
  2 24  1  6  0  0  0
  2 12  1  0  0  0  0
  2 27  1  0  0  0  0
  3  4  1  0  0  0  0
  5 25  1  6  0  0  0
  5 27  1  0  0  0  0
  5  6  1  0  0  0  0
  6 18  1  6  0  0  0
  6 28  1  0  0  0  0
  7 19  1  6  0  0  0
  7 24  1  0  0  0  0
  7 17  1  0  0  0  0
  9 26  2  0  0  0  0
 10 17  1  0  0  0  0
 11  3  1  0  0  0  0
 12  8  1  1  0  0  0
 12 13  1  0  0  0  0
 13 22  1  0  0  0  0
 13 11  1  6  0  0  0
 14 22  1  0  0  0  0
 14 23  1  6  0  0  0
 15  9  1  0  0  0  0
 16 19  1  0  0  0  0
 17  8  2  0  0  0  0
 18 15  1  0  0  0  0
 20 29  1  6  0  0  0
 20 10  1  0  0  0  0
 21  4  1  0  0  0  0
 22 21  1  1  0  0  0
 27 14  1  0  0  0  0
 28  9  1  0  0  0  0
 28 23  1  0  0  0  0
 29 30  1  0  0  0  0
 30 31  1  0  0  0  0
 30 32  2  0  0  0  0
M  END
>  <MODEL>
8

>  <REMARK>
 VINA RESULT:      -6.7      4.103      6.640
  Name = 
  2 active torsions:
  status: ('A' for Active; 'I' for Inactive)
    1  A    between atoms: C_20  and  C_29
    2  A    between atoms: C_29  and  C_30
                            x       y       z     vdW  Elec       q    Type
                         _______ _______ _______ _____ _____    ______ ____

>  <TORSDO>
F 2

$$$$
=
 OpenBabel11112416303D

 32 37  0  0  1  0  0  0  0  0999 V2000
  190.4380  176.6510  146.9770 C   0  0  0  0  0  2  0  0  0  0  0  0
  194.7930  174.4100  144.1440 C   0  0  1  0  0  3  0  0  0  0  0  0
  195.2720  169.7230  145.2480 O   0  0  0  0  0  0  0  0  0  0  0  0
  195.6940  169.3210  143.9680 C   0  0  0  0  0  2  0  0  0  0  0  0
  196.8010  175.4280  142.8410 C   0  0  1  0  0  3  0  0  0  0  0  0
  196.2000  175.4660  141.4300 C   0  0  2  0  0  3  0  0  0  0  0  0
  193.0610  175.8160  145.3440 C   0  0  1  0  0  3  0  0  0  0  0  0
  192.8600  173.3180  145.2490 C   0  0  0  0  0  3  0  0  0  0  0  0
  195.0270  174.3200  139.7970 C   0  0  0  0  0  0  0  0  0  0  0  0
  190.7810  174.5030  145.6640 C   0  0  0  0  0  2  0  0  0  0  0  0
  194.2140  170.6400  145.0650 C   0  0  0  0  0  2  0  0  0  0  0  0
  194.3310  173.1910  144.9610 C   0  0  1  0  0  3  0  0  0  0  0  0
  194.6310  171.8760  144.2360 C   0  0  1  0  0  3  0  0  0  0  0  0
  196.5390  172.9700  142.9820 C   0  0  1  0  0  3  0  0  0  0  0  0
  194.2200  175.4320  140.1410 N   0  0  0  0  0  2  0  0  0  0  0  0
  191.8410  176.4430  147.5480 C   0  0  0  0  0  2  0  0  0  0  0  0
  192.2760  174.5050  145.4730 C   0  0  0  0  0  0  0  0  0  0  0  0
  194.7900  176.0550  141.3210 C   0  0  0  0  0  2  0  0  0  0  0  0
  192.9480  176.7720  146.5460 C   0  0  0  0  0  2  0  0  0  0  0  0
  190.1890  175.9100  145.6580 C   0  0  1  0  0  3  0  0  0  0  0  0
  196.4970  170.4390  143.2880 C   0  0  0  0  0  2  0  0  0  0  0  0
  196.1210  171.8030  143.8730 C   0  0  2  0  0  3  0  0  0  0  0  0
  195.7880  172.9460  141.6440 C   0  0  0  0  0  2  0  0  0  0  0  0
  194.5480  175.6370  145.0140 C   0  0  0  0  0  2  0  0  0  0  0  0
  196.8590  176.7920  143.5120 C   0  0  0  0  0  1  0  0  0  0  0  0
  194.7740  173.5820  138.8100 O   0  0  0  0  0  0  0  0  0  0  0  0
  196.2800  174.2880  143.7270 C   0  0  2  0  0  3  0  0  0  0  0  0
  196.1680  174.1050  140.7130 C   0  0  2  0  0  3  0  0  0  0  0  0
  188.6980  175.8300  145.3750 C   0  0  0  0  0  2  0  0  0  0  0  0
  188.3830  176.4010  144.0340 C   0  0  0  0  0  0  0  0  0  0  0  0
  187.1130  176.1630  143.4390 N   0  0  0  0  0  1  0  0  0  0  0  0
  189.2500  177.0740  143.4180 O   0  0  0  0  0  0  0  0  0  0  0  0
  1 16  1  0  0  0  0
  2 12  1  0  0  0  0
  2 24  1  1  0  0  0
  4  3  1  0  0  0  0
  5 25  1  1  0  0  0
  5 27  1  0  0  0  0
  6 18  1  1  0  0  0
  6  5  1  0  0  0  0
  7 24  1  1  0  0  0
  7 17  1  0  0  0  0
  7 19  1  0  0  0  0
  8 17  2  0  0  0  0
  9 15  1  0  0  0  0
  9 28  1  0  0  0  0
 11  3  1  0  0  0  0
 12  8  1  6  0  0  0
 13 12  1  0  0  0  0
 13 11  1  1  0  0  0
 14 23  1  6  0  0  0
 14 27  1  0  0  0  0
 14 22  1  0  0  0  0
 15 18  1  0  0  0  0
 17 10  1  0  0  0  0
 19 16  1  0  0  0  0
 20 29  1  1  0  0  0
 20 10  1  0  0  0  0
 20  1  1  0  0  0  0
 21  4  1  0  0  0  0
 22 21  1  6  0  0  0
 22 13  1  0  0  0  0
 26  9  2  0  0  0  0
 27  2  1  0  0  0  0
 28  6  1  0  0  0  0
 28 23  1  0  0  0  0
 30 29  1  0  0  0  0
 31 30  1  0  0  0  0
 32 30  2  0  0  0  0
M  END
>  <MODEL>
9

>  <REMARK>
 VINA RESULT:      -6.6      3.155      5.095
  Name = 
  2 active torsions:
  status: ('A' for Active; 'I' for Inactive)
    1  A    between atoms: C_20  and  C_29
    2  A    between atoms: C_29  and  C_30
                            x       y       z     vdW  Elec       q    Type
                         _______ _______ _______ _____ _____    ______ ____

>  <TORSDO>
F 2

$$$$
