=
 OpenBabel11112416123D

 30 35  0  0  1  0  0  0  0  0999 V2000
  187.8150  176.9950  145.4970 C   0  0  0  0  0  0  0  0  0  0  0  0
  185.8910  177.9360  146.8060 C   0  0  0  0  0  0  0  0  0  0  0  0
  185.8470  177.7760  141.8590 N   0  0  0  0  0  2  0  0  0  0  0  0
  188.3920  176.7270  144.2330 C   0  0  0  0  0  0  0  0  0  0  0  0
  188.5200  176.4780  146.7220 C   0  0  0  0  0  2  0  0  0  0  0  0
  191.8430  176.0080  145.2850 O   0  0  0  0  0  0  0  0  0  0  0  0
  188.6720  174.2990  142.6590 C   0  0  1  0  0  3  0  0  0  0  0  0
  190.6000  176.2150  145.3420 C   0  0  0  0  0  0  0  0  0  0  0  0
  187.9980  175.1090  141.5510 C   0  0  2  0  0  3  0  0  0  0  0  0
  186.8240  177.2160  140.9830 C   0  0  0  0  0  0  0  0  0  0  0  0
  189.9770  176.5330  146.5950 N   0  0  0  0  0  0  0  0  0  0  0  0
  189.7950  176.1960  144.0760 C   0  0  1  0  0  3  0  0  0  0  0  0
  184.6260  178.5310  146.8110 C   0  0  0  0  0  3  0  0  0  0  0  0
  188.5210  174.6850  140.3240 O   0  0  0  0  0  0  0  0  0  0  0  0
  188.9660  173.0010  141.9610 C   0  0  0  0  0  2  0  0  0  0  0  0
  186.4960  177.6900  148.0330 O   0  0  0  0  0  1  0  0  0  0  0  0
  186.4250  177.6060  143.1440 C   0  0  0  0  0  0  0  0  0  0  0  0
  183.9660  178.8200  145.6190 C   0  0  0  0  0  3  0  0  0  0  0  0
  186.5240  177.6130  145.5760 C   0  0  0  0  0  0  0  0  0  0  0  0
  187.6620  177.0210  143.0850 C   0  0  0  0  0  0  0  0  0  0  0  0
  186.6840  177.2140  139.7320 O   0  0  0  0  0  0  0  0  0  0  0  0
  188.0170  176.6390  141.6870 C   0  0  1  0  0  3  0  0  0  0  0  0
  188.7360  173.3050  140.4880 C   0  0  0  0  0  2  0  0  0  0  0  0
  191.0670  175.1060  142.2210 C   0  0  0  0  0  1  0  0  0  0  0  0
  184.5670  178.5180  144.4000 C   0  0  0  0  0  3  0  0  0  0  0  0
  185.8320  177.9250  144.3650 C   0  0  0  0  0  0  0  0  0  0  0  0
  189.9680  174.9020  143.2580 C   0  0  2  0  0  3  0  0  0  0  0  0
  190.8170  176.7410  147.7760 C   0  0  0  0  0  2  0  0  0  0  0  0
  191.4310  178.0320  149.4580 C   0  0  0  0  0  1  0  0  0  0  0  0
  190.5530  177.9750  148.3780 O   0  0  0  0  0  0  0  0  0  0  0  0
  1 19  1  0  0  0  0
  1  5  1  0  0  0  0
  2 13  1  0  0  0  0
  2 16  1  0  0  0  0
  3 17  1  0  0  0  0
  4  1  2  0  0  0  0
  6  8  2  0  0  0  0
  7 15  1  6  0  0  0
  7 27  1  0  0  0  0
  8 11  1  0  0  0  0
  9 14  1  6  0  0  0
  9 22  1  0  0  0  0
  9  7  1  0  0  0  0
 10  3  1  0  0  0  0
 11  5  1  0  0  0  0
 11 28  1  0  0  0  0
 12  4  1  1  0  0  0
 12  8  1  0  0  0  0
 14 23  1  0  0  0  0
 17 26  1  0  0  0  0
 18 13  2  0  0  0  0
 19  2  2  0  0  0  0
 20 17  2  0  0  0  0
 20  4  1  0  0  0  0
 21 10  2  0  0  0  0
 22 10  1  6  0  0  0
 22 20  1  0  0  0  0
 23 15  1  0  0  0  0
 25 18  1  0  0  0  0
 26 25  2  0  0  0  0
 26 19  1  0  0  0  0
 27 24  1  6  0  0  0
 27 12  1  0  0  0  0
 28 30  1  0  0  0  0
 30 29  1  0  0  0  0
M  END
>  <MODEL>
1

>  <REMARK>
 VINA RESULT:      -9.2      0.000      0.000
  Name = 
  2 active torsions:
  status: ('A' for Active; 'I' for Inactive)
    1  A    between atoms: N_11  and  C_28
    2  A    between atoms: C_28  and  O_30
                            x       y       z     vdW  Elec       q    Type
                         _______ _______ _______ _____ _____    ______ ____

>  <TORSDO>
F 2

$$$$
=
 OpenBabel11112416123D

 30 35  0  0  1  0  0  0  0  0999 V2000
  186.4250  177.5760  143.7980 C   0  0  0  0  0  0  0  0  0  0  0  0
  184.6510  178.7380  145.1410 C   0  0  0  0  0  0  0  0  0  0  0  0
  188.0700  175.8650  147.2740 N   0  0  0  0  0  2  0  0  0  0  0  0
  187.5280  176.6910  143.7760 C   0  0  0  0  0  0  0  0  0  0  0  0
  186.0610  178.2900  142.5230 C   0  0  0  0  0  2  0  0  0  0  0  0
  187.7240  176.0630  140.1560 O   0  0  0  0  0  0  0  0  0  0  0  0
  190.3970  177.1100  143.5660 C   0  0  1  0  0  3  0  0  0  0  0  0
  187.4010  176.5850  141.2580 C   0  0  0  0  0  0  0  0  0  0  0  0
  190.4700  176.2700  144.8420 C   0  0  2  0  0  3  0  0  0  0  0  0
  189.1730  175.1980  146.6610 C   0  0  0  0  0  0  0  0  0  0  0  0
  186.2620  177.4560  141.3380 N   0  0  0  0  0  0  0  0  0  0  0  0
  188.1740  176.2310  142.4930 C   0  0  1  0  0  3  0  0  0  0  0  0
  184.0740  179.0000  146.3880 C   0  0  0  0  0  3  0  0  0  0  0  0
  191.6580  175.5310  144.8080 O   0  0  0  0  0  0  0  0  0  0  0  0
  191.8510  177.3490  143.2690 C   0  0  0  0  0  2  0  0  0  0  0  0
  184.0760  179.3350  144.0250 O   0  0  0  0  0  1  0  0  0  0  0  0
  187.3990  176.4620  146.1750 C   0  0  0  0  0  0  0  0  0  0  0  0
  184.5870  178.4260  147.5480 C   0  0  0  0  0  3  0  0  0  0  0  0
  185.7790  177.8810  145.0410 C   0  0  0  0  0  0  0  0  0  0  0  0
  188.0010  176.1760  144.9780 C   0  0  0  0  0  0  0  0  0  0  0  0
  189.9960  174.5110  147.3210 O   0  0  0  0  0  0  0  0  0  0  0  0
  189.2550  175.3910  145.1750 C   0  0  1  0  0  3  0  0  0  0  0  0
  192.5880  176.3820  144.1840 C   0  0  0  0  0  2  0  0  0  0  0  0
  190.3530  175.1540  141.9070 C   0  0  0  0  0  1  0  0  0  0  0  0
  185.6890  177.5770  147.4770 C   0  0  0  0  0  3  0  0  0  0  0  0
  186.2840  177.2970  146.2440 C   0  0  0  0  0  0  0  0  0  0  0  0
  189.6920  176.4550  142.3520 C   0  0  2  0  0  3  0  0  0  0  0  0
  185.4090  177.6240  140.1600 C   0  0  0  0  0  2  0  0  0  0  0  0
  183.2550  178.0600  140.3580 C   0  0  0  0  0  1  0  0  0  0  0  0
  184.5050  178.6750  140.3330 O   0  0  0  0  0  0  0  0  0  0  0  0
  1 19  1  0  0  0  0
  2 13  1  0  0  0  0
  4  1  2  0  0  0  0
  4 20  1  0  0  0  0
  5  1  1  0  0  0  0
  6  8  2  0  0  0  0
  7 15  1  6  0  0  0
  7  9  1  0  0  0  0
  8 11  1  0  0  0  0
  9 14  1  6  0  0  0
  9 22  1  0  0  0  0
 10  3  1  0  0  0  0
 10 21  2  0  0  0  0
 11  5  1  0  0  0  0
 12  8  1  6  0  0  0
 12  4  1  0  0  0  0
 13 18  2  0  0  0  0
 15 23  1  0  0  0  0
 16  2  1  0  0  0  0
 17 26  1  0  0  0  0
 17  3  1  0  0  0  0
 19  2  2  0  0  0  0
 19 26  1  0  0  0  0
 20 17  2  0  0  0  0
 22 20  1  1  0  0  0
 22 10  1  0  0  0  0
 23 14  1  0  0  0  0
 25 18  1  0  0  0  0
 26 25  2  0  0  0  0
 27 24  1  1  0  0  0
 27 12  1  0  0  0  0
 27  7  1  0  0  0  0
 28 30  1  0  0  0  0
 28 11  1  0  0  0  0
 30 29  1  0  0  0  0
M  END
>  <MODEL>
2

>  <REMARK>
 VINA RESULT:      -9.0      1.901      5.353
  Name = 
  2 active torsions:
  status: ('A' for Active; 'I' for Inactive)
    1  A    between atoms: N_11  and  C_28
    2  A    between atoms: C_28  and  O_30
                            x       y       z     vdW  Elec       q    Type
                         _______ _______ _______ _____ _____    ______ ____

>  <TORSDO>
F 2

$$$$
=
 OpenBabel11112416123D

 30 35  0  0  1  0  0  0  0  0999 V2000
  188.7560  175.8230  142.3130 C   0  0  0  0  0  0  0  0  0  0  0  0
  190.3650  174.0710  141.5120 C   0  0  0  0  0  0  0  0  0  0  0  0
  190.8830  176.2640  145.9180 N   0  0  0  0  0  2  0  0  0  0  0  0
  188.3980  176.7580  143.3120 C   0  0  0  0  0  0  0  0  0  0  0  0
  187.8020  175.6070  141.1680 C   0  0  0  0  0  2  0  0  0  0  0  0
  185.9040  178.7130  141.4410 O   0  0  0  0  0  0  0  0  0  0  0  0
  186.3850  176.7390  145.4100 C   0  0  1  0  0  3  0  0  0  0  0  0
  186.7020  177.7870  141.7510 C   0  0  0  0  0  0  0  0  0  0  0  0
  187.5580  177.0440  146.3420 C   0  0  2  0  0  3  0  0  0  0  0  0
  190.0220  177.2200  146.5380 C   0  0  0  0  0  0  0  0  0  0  0  0
  187.1290  176.8400  140.7590 N   0  0  0  0  0  0  0  0  0  0  0  0
  187.2550  177.7280  143.1440 C   0  0  1  0  0  3  0  0  0  0  0  0
  191.5120  173.3050  141.7440 C   0  0  0  0  0  3  0  0  0  0  0  0
  187.0880  177.8570  147.3800 O   0  0  0  0  0  0  0  0  0  0  0  0
  185.2180  176.7770  146.3560 C   0  0  0  0  0  2  0  0  0  0  0  0
  189.6930  173.8810  140.3100 O   0  0  0  0  0  1  0  0  0  0  0  0
  190.2810  176.0580  144.6500 C   0  0  0  0  0  0  0  0  0  0  0  0
  192.2440  173.4500  142.9190 C   0  0  0  0  0  3  0  0  0  0  0  0
  189.9260  175.0120  142.4810 C   0  0  0  0  0  0  0  0  0  0  0  0
  189.1630  176.8300  144.4710 C   0  0  0  0  0  0  0  0  0  0  0  0
  190.2500  177.6880  147.6840 O   0  0  0  0  0  0  0  0  0  0  0  0
  188.8360  177.6060  145.7030 C   0  0  1  0  0  3  0  0  0  0  0  0
  185.7810  177.3990  147.6250 C   0  0  0  0  0  2  0  0  0  0  0  0
  185.9180  179.1590  144.6980 C   0  0  0  0  0  1  0  0  0  0  0  0
  191.8380  174.3700  143.8830 C   0  0  0  0  0  3  0  0  0  0  0  0
  190.6970  175.1510  143.6760 C   0  0  0  0  0  0  0  0  0  0  0  0
  186.1670  177.7270  144.2360 C   0  0  2  0  0  3  0  0  0  0  0  0
  186.7310  177.0400  139.3650 C   0  0  0  0  0  2  0  0  0  0  0  0
  186.4620  176.1850  137.3480 C   0  0  0  0  0  1  0  0  0  0  0  0
  187.0770  175.9400  138.5740 O   0  0  0  0  0  0  0  0  0  0  0  0
  1 19  2  0  0  0  0
  1  4  1  0  0  0  0
  2 13  2  0  0  0  0
  2 19  1  0  0  0  0
  3 10  1  0  0  0  0
  4 20  2  0  0  0  0
  5  1  1  0  0  0  0
  6  8  2  0  0  0  0
  7  9  1  0  0  0  0
  7 15  1  1  0  0  0
  9 14  1  1  0  0  0
 10 21  2  0  0  0  0
 11  5  1  0  0  0  0
 11  8  1  0  0  0  0
 12  8  1  6  0  0  0
 12  4  1  0  0  0  0
 12 27  1  0  0  0  0
 13 18  1  0  0  0  0
 14 23  1  0  0  0  0
 15 23  1  0  0  0  0
 16  2  1  0  0  0  0
 17  3  1  0  0  0  0
 18 25  2  0  0  0  0
 19 26  1  0  0  0  0
 20 17  1  0  0  0  0
 22 20  1  6  0  0  0
 22  9  1  0  0  0  0
 22 10  1  0  0  0  0
 26 25  1  0  0  0  0
 26 17  2  0  0  0  0
 27 24  1  1  0  0  0
 27  7  1  0  0  0  0
 28 11  1  0  0  0  0
 29 30  1  0  0  0  0
 30 28  1  0  0  0  0
M  END
>  <MODEL>
3

>  <REMARK>
 VINA RESULT:      -8.7      1.511      7.186
  Name = 
  2 active torsions:
  status: ('A' for Active; 'I' for Inactive)
    1  A    between atoms: N_11  and  C_28
    2  A    between atoms: C_28  and  O_30
                            x       y       z     vdW  Elec       q    Type
                         _______ _______ _______ _____ _____    ______ ____

>  <TORSDO>
F 2

$$$$
=
 OpenBabel11112416123D

 30 35  0  0  1  0  0  0  0  0999 V2000
  188.5100  176.8270  145.6310 C   0  0  0  0  0  0  0  0  0  0  0  0
  186.5890  178.1780  146.5170 C   0  0  0  0  0  0  0  0  0  0  0  0
  186.8330  176.7970  141.7710 N   0  0  0  0  0  2  0  0  0  0  0  0
  189.1400  176.2190  144.5200 C   0  0  0  0  0  0  0  0  0  0  0  0
  189.0960  176.5890  146.9970 C   0  0  0  0  0  2  0  0  0  0  0  0
  192.4540  175.5770  145.9830 O   0  0  0  0  0  0  0  0  0  0  0  0
  189.3260  173.4640  143.6120 C   0  0  1  0  0  3  0  0  0  0  0  0
  191.2300  175.8660  145.8900 C   0  0  0  0  0  0  0  0  0  0  0  0
  188.7860  174.0120  142.2910 C   0  0  2  0  0  3  0  0  0  0  0  0
  187.8160  175.9790  141.1360 C   0  0  0  0  0  0  0  0  0  0  0  0
  190.5580  176.5230  146.9750 N   0  0  0  0  0  0  0  0  0  0  0  0
  190.5040  175.5820  144.6080 C   0  0  1  0  0  3  0  0  0  0  0  0
  185.3750  178.8310  146.2780 C   0  0  0  0  0  3  0  0  0  0  0  0
  189.3480  173.2660  141.2480 O   0  0  0  0  0  0  0  0  0  0  0  0
  189.5590  172.0180  143.2760 C   0  0  0  0  0  2  0  0  0  0  0  0
  187.0960  178.2090  147.8110 O   0  0  0  0  0  1  0  0  0  0  0  0
  187.3170  176.9170  143.1000 C   0  0  0  0  0  0  0  0  0  0  0  0
  184.8130  178.8540  145.0040 C   0  0  0  0  0  3  0  0  0  0  0  0
  187.2680  177.5220  145.4560 C   0  0  0  0  0  0  0  0  0  0  0  0
  188.5060  176.2620  143.2820 C   0  0  0  0  0  0  0  0  0  0  0  0
  187.7530  175.6740  139.9170 O   0  0  0  0  0  0  0  0  0  0  0  0
  188.9150  175.5240  142.0510 C   0  0  1  0  0  3  0  0  0  0  0  0
  189.4440  171.9590  141.7600 C   0  0  0  0  0  2  0  0  0  0  0  0
  191.7980  173.9910  143.1800 C   0  0  0  0  0  1  0  0  0  0  0  0
  185.4620  178.2230  143.9460 C   0  0  0  0  0  3  0  0  0  0  0  0
  186.6780  177.5650  144.1560 C   0  0  0  0  0  0  0  0  0  0  0  0
  190.6250  174.1170  144.1460 C   0  0  2  0  0  3  0  0  0  0  0  0
  191.3380  176.9670  148.1320 C   0  0  0  0  0  2  0  0  0  0  0  0
  191.5220  178.2910  149.8880 C   0  0  0  0  0  1  0  0  0  0  0  0
  190.7440  178.0690  148.7540 O   0  0  0  0  0  0  0  0  0  0  0  0
  1  5  1  0  0  0  0
  2 16  1  0  0  0  0
  3 17  1  0  0  0  0
  4  1  2  0  0  0  0
  7 15  1  6  0  0  0
  7 27  1  0  0  0  0
  8  6  2  0  0  0  0
  8 11  1  0  0  0  0
  9 14  1  6  0  0  0
  9  7  1  0  0  0  0
 10  3  1  0  0  0  0
 11  5  1  0  0  0  0
 11 28  1  0  0  0  0
 12  4  1  1  0  0  0
 12  8  1  0  0  0  0
 13  2  1  0  0  0  0
 14 23  1  0  0  0  0
 17 20  2  0  0  0  0
 17 26  1  0  0  0  0
 18 13  2  0  0  0  0
 19  1  1  0  0  0  0
 19  2  2  0  0  0  0
 20  4  1  0  0  0  0
 21 10  2  0  0  0  0
 22 10  1  6  0  0  0
 22  9  1  0  0  0  0
 22 20  1  0  0  0  0
 23 15  1  0  0  0  0
 25 26  2  0  0  0  0
 25 18  1  0  0  0  0
 26 19  1  0  0  0  0
 27 24  1  6  0  0  0
 27 12  1  0  0  0  0
 28 30  1  0  0  0  0
 30 29  1  0  0  0  0
M  END
>  <MODEL>
4

>  <REMARK>
 VINA RESULT:      -8.3      1.048      1.217
  Name = 
  2 active torsions:
  status: ('A' for Active; 'I' for Inactive)
    1  A    between atoms: N_11  and  C_28
    2  A    between atoms: C_28  and  O_30
                            x       y       z     vdW  Elec       q    Type
                         _______ _______ _______ _____ _____    ______ ____

>  <TORSDO>
F 2

$$$$
=
 OpenBabel11112416123D

 30 35  0  0  1  0  0  0  0  0999 V2000
  187.0550  176.3790  142.0600 C   0  0  0  0  0  0  0  0  0  0  0  0
  185.3590  177.6150  140.6820 C   0  0  0  0  0  0  0  0  0  0  0  0
  185.1750  177.5860  145.6270 N   0  0  0  0  0  2  0  0  0  0  0  0
  187.4980  175.9760  143.3410 C   0  0  0  0  0  0  0  0  0  0  0  0
  187.9280  176.0630  140.8750 C   0  0  0  0  0  2  0  0  0  0  0  0
  189.9090  173.3770  142.3550 O   0  0  0  0  0  0  0  0  0  0  0  0
  189.6400  176.8980  145.0770 C   0  0  1  0  0  3  0  0  0  0  0  0
  189.1120  174.3520  142.2800 C   0  0  0  0  0  0  0  0  0  0  0  0
  188.5360  177.0440  146.1240 C   0  0  2  0  0  3  0  0  0  0  0  0
  186.0950  176.9930  146.5440 C   0  0  0  0  0  0  0  0  0  0  0  0
  188.6020  174.7700  141.0050 N   0  0  0  0  0  0  0  0  0  0  0  0
  188.6490  175.0210  143.5400 C   0  0  1  0  0  3  0  0  0  0  0  0
  184.2130  178.4140  140.6300 C   0  0  0  0  0  3  0  0  0  0  0  0
  189.0900  176.7670  147.3800 O   0  0  0  0  0  0  0  0  0  0  0  0
  190.8660  177.2710  145.8620 C   0  0  0  0  0  2  0  0  0  0  0  0
  185.9480  177.2510  139.4770 O   0  0  0  0  0  1  0  0  0  0  0  0
  185.6890  177.2090  144.3590 C   0  0  0  0  0  0  0  0  0  0  0  0
  183.5610  178.8060  141.7970 C   0  0  0  0  0  3  0  0  0  0  0  0
  185.8800  177.1910  141.9340 C   0  0  0  0  0  0  0  0  0  0  0  0
  186.8100  176.4270  144.4630 C   0  0  0  0  0  0  0  0  0  0  0  0
  185.9510  177.0780  147.7910 O   0  0  0  0  0  0  0  0  0  0  0  0
  187.2330  176.2690  145.8850 C   0  0  1  0  0  3  0  0  0  0  0  0
  190.4000  177.2740  147.3100 C   0  0  0  0  0  2  0  0  0  0  0  0
  190.1140  174.4080  145.4700 C   0  0  0  0  0  1  0  0  0  0  0  0
  184.0480  178.4000  143.0370 C   0  0  0  0  0  3  0  0  0  0  0  0
  185.1910  177.5990  143.1170 C   0  0  0  0  0  0  0  0  0  0  0  0
  189.8040  175.4930  144.4440 C   0  0  2  0  0  3  0  0  0  0  0  0
  188.9130  173.9750  139.8160 C   0  0  0  0  0  2  0  0  0  0  0  0
  188.5160  173.5130  137.6950 C   0  0  0  0  0  1  0  0  0  0  0  0
  188.1990  174.4230  138.7020 O   0  0  0  0  0  0  0  0  0  0  0  0
  1  4  1  0  0  0  0
  2 19  1  0  0  0  0
  3 10  1  0  0  0  0
  4 12  1  0  0  0  0
  4 20  2  0  0  0  0
  5 11  1  0  0  0  0
  5  1  1  0  0  0  0
  7 15  1  1  0  0  0
  7  9  1  0  0  0  0
  8  6  2  0  0  0  0
  9 14  1  1  0  0  0
 10 21  2  0  0  0  0
 11  8  1  0  0  0  0
 12  8  1  6  0  0  0
 12 27  1  0  0  0  0
 13  2  2  0  0  0  0
 13 18  1  0  0  0  0
 15 23  1  0  0  0  0
 16  2  1  0  0  0  0
 17 20  1  0  0  0  0
 17  3  1  0  0  0  0
 18 25  2  0  0  0  0
 19  1  2  0  0  0  0
 19 26  1  0  0  0  0
 22 20  1  6  0  0  0
 22  9  1  0  0  0  0
 22 10  1  0  0  0  0
 23 14  1  0  0  0  0
 25 26  1  0  0  0  0
 26 17  2  0  0  0  0
 27  7  1  0  0  0  0
 27 24  1  1  0  0  0
 28 11  1  0  0  0  0
 29 30  1  0  0  0  0
 30 28  1  0  0  0  0
M  END
>  <MODEL>
5

>  <REMARK>
 VINA RESULT:      -8.2      1.886      5.784
  Name = 
  2 active torsions:
  status: ('A' for Active; 'I' for Inactive)
    1  A    between atoms: N_11  and  C_28
    2  A    between atoms: C_28  and  O_30
                            x       y       z     vdW  Elec       q    Type
                         _______ _______ _______ _____ _____    ______ ____

>  <TORSDO>
F 2

$$$$
=
 OpenBabel11112416123D

 30 35  0  0  1  0  0  0  0  0999 V2000
  188.5470  175.6640  144.1200 C   0  0  0  0  0  0  0  0  0  0  0  0
  186.4090  176.9640  143.9200 C   0  0  0  0  0  0  0  0  0  0  0  0
  189.5630  177.7000  147.6620 N   0  0  0  0  0  2  0  0  0  0  0  0
  189.7160  175.3820  144.8650 C   0  0  0  0  0  0  0  0  0  0  0  0
  188.3980  175.0260  142.7650 C   0  0  0  0  0  2  0  0  0  0  0  0
  190.7650  172.2790  143.1890 O   0  0  0  0  0  0  0  0  0  0  0  0
  192.5000  176.1550  144.5470 C   0  0  1  0  0  3  0  0  0  0  0  0
  190.1550  173.3580  143.4230 C   0  0  0  0  0  0  0  0  0  0  0  0
  192.3810  176.6480  145.9890 C   0  0  2  0  0  3  0  0  0  0  0  0
  190.8390  177.0950  147.8770 C   0  0  0  0  0  0  0  0  0  0  0  0
  188.9400  173.6670  142.7230 N   0  0  0  0  0  0  0  0  0  0  0  0
  190.6730  174.2780  144.4890 C   0  0  1  0  0  3  0  0  0  0  0  0
  185.5490  177.9380  144.4360 C   0  0  0  0  0  3  0  0  0  0  0  0
  193.6200  176.4650  146.6150 O   0  0  0  0  0  0  0  0  0  0  0  0
  193.9500  176.4160  144.2490 C   0  0  0  0  0  2  0  0  0  0  0  0
  186.0330  176.3270  142.7430 O   0  0  0  0  0  1  0  0  0  0  0  0
  189.0890  177.0540  146.4900 C   0  0  0  0  0  0  0  0  0  0  0  0
  185.8530  178.6080  145.6180 C   0  0  0  0  0  3  0  0  0  0  0  0
  187.6160  176.6450  144.5970 C   0  0  0  0  0  0  0  0  0  0  0  0
  189.9660  176.1100  146.0250 C   0  0  0  0  0  0  0  0  0  0  0  0
  191.5650  177.3870  148.8620 O   0  0  0  0  0  0  0  0  0  0  0  0
  191.2230  176.0900  146.8290 C   0  0  1  0  0  3  0  0  0  0  0  0
  194.5670  176.7160  145.6060 C   0  0  0  0  0  2  0  0  0  0  0  0
  193.0280  173.7060  145.0990 C   0  0  0  0  0  1  0  0  0  0  0  0
  187.0280  178.3090  146.3050 C   0  0  0  0  0  3  0  0  0  0  0  0
  187.9050  177.3380  145.8130 C   0  0  0  0  0  0  0  0  0  0  0  0
  192.1520  174.6650  144.3000 C   0  0  2  0  0  3  0  0  0  0  0  0
  188.3530  172.6620  141.8360 C   0  0  0  0  0  2  0  0  0  0  0  0
  189.2930  172.6690  139.8390 C   0  0  0  0  0  1  0  0  0  0  0  0
  188.1930  173.1590  140.5390 O   0  0  0  0  0  0  0  0  0  0  0  0
  1 19  2  0  0  0  0
  1  4  1  0  0  0  0
  2 13  2  0  0  0  0
  2 19  1  0  0  0  0
  3 10  1  0  0  0  0
  4 20  2  0  0  0  0
  5  1  1  0  0  0  0
  6  8  2  0  0  0  0
  7 15  1  1  0  0  0
  7  9  1  0  0  0  0
  9 14  1  1  0  0  0
  9 22  1  0  0  0  0
 10 21  2  0  0  0  0
 11  5  1  0  0  0  0
 11  8  1  0  0  0  0
 12  8  1  6  0  0  0
 12  4  1  0  0  0  0
 13 18  1  0  0  0  0
 15 23  1  0  0  0  0
 16  2  1  0  0  0  0
 17  3  1  0  0  0  0
 18 25  2  0  0  0  0
 19 26  1  0  0  0  0
 20 17  1  0  0  0  0
 22 20  1  6  0  0  0
 22 10  1  0  0  0  0
 23 14  1  0  0  0  0
 26 25  1  0  0  0  0
 26 17  2  0  0  0  0
 27 12  1  0  0  0  0
 27  7  1  0  0  0  0
 27 24  1  1  0  0  0
 28 11  1  0  0  0  0
 29 30  1  0  0  0  0
 30 28  1  0  0  0  0
M  END
>  <MODEL>
6

>  <REMARK>
 VINA RESULT:      -8.1      2.141      5.727
  Name = 
  2 active torsions:
  status: ('A' for Active; 'I' for Inactive)
    1  A    between atoms: N_11  and  C_28
    2  A    between atoms: C_28  and  O_30
                            x       y       z     vdW  Elec       q    Type
                         _______ _______ _______ _____ _____    ______ ____

>  <TORSDO>
F 2

$$$$
=
 OpenBabel11112416123D

 30 35  0  0  1  0  0  0  0  0999 V2000
  189.6350  175.0000  143.7900 C   0  0  0  0  0  0  0  0  0  0  0  0
  191.4660  173.2890  143.9270 C   0  0  0  0  0  0  0  0  0  0  0  0
  190.9510  176.8340  147.3420 N   0  0  0  0  0  2  0  0  0  0  0  0
  189.0290  176.1570  144.3320 C   0  0  0  0  0  0  0  0  0  0  0  0
  188.9490  174.3120  142.6390 C   0  0  0  0  0  2  0  0  0  0  0  0
  186.8680  177.0890  141.5030 O   0  0  0  0  0  0  0  0  0  0  0  0
  186.6340  176.5760  145.9250 C   0  0  1  0  0  3  0  0  0  0  0  0
  187.6350  176.4150  142.2430 C   0  0  0  0  0  0  0  0  0  0  0  0
  187.5730  177.3040  146.8870 C   0  0  2  0  0  3  0  0  0  0  0  0
  189.9310  177.8280  147.4390 C   0  0  0  0  0  0  0  0  0  0  0  0
  188.3070  175.2570  141.7240 N   0  0  0  0  0  0  0  0  0  0  0  0
  187.8930  176.8770  143.6470 C   0  0  1  0  0  3  0  0  0  0  0  0
  192.5810  172.7830  144.6020 C   0  0  0  0  0  3  0  0  0  0  0  0
  186.8570  178.3460  147.4880 O   0  0  0  0  0  0  0  0  0  0  0  0
  185.2980  176.7780  146.5840 C   0  0  0  0  0  2  0  0  0  0  0  0
  191.0660  172.6420  142.7640 O   0  0  0  0  0  1  0  0  0  0  0  0
  190.6340  176.1580  146.1350 C   0  0  0  0  0  0  0  0  0  0  0  0
  193.0490  173.3870  145.7660 C   0  0  0  0  0  3  0  0  0  0  0  0
  190.7880  174.4340  144.4250 C   0  0  0  0  0  0  0  0  0  0  0  0
  189.5360  176.6910  145.5120 C   0  0  0  0  0  0  0  0  0  0  0  0
  189.8940  178.6650  148.3780 O   0  0  0  0  0  0  0  0  0  0  0  0
  188.9220  177.7790  146.3290 C   0  0  1  0  0  3  0  0  0  0  0  0
  185.5540  177.8390  147.6420 C   0  0  0  0  0  2  0  0  0  0  0  0
  186.1910  178.5620  144.3620 C   0  0  0  0  0  1  0  0  0  0  0  0
  192.4050  174.5140  146.2730 C   0  0  0  0  0  3  0  0  0  0  0  0
  191.2890  175.0420  145.6170 C   0  0  0  0  0  0  0  0  0  0  0  0
  186.6070  177.0980  144.4660 C   0  0  2  0  0  3  0  0  0  0  0  0
  188.1930  174.9460  140.2990 C   0  0  0  0  0  2  0  0  0  0  0  0
  188.1910  172.9850  139.2850 C   0  0  0  0  0  1  0  0  0  0  0  0
  189.0290  173.8850  139.9400 O   0  0  0  0  0  0  0  0  0  0  0  0
  1  4  2  0  0  0  0
  1 19  1  0  0  0  0
  2 19  2  0  0  0  0
  2 13  1  0  0  0  0
  3 10  1  0  0  0  0
  4 20  1  0  0  0  0
  5  1  1  0  0  0  0
  6  8  2  0  0  0  0
  7 15  1  1  0  0  0
  7  9  1  0  0  0  0
  9 14  1  6  0  0  0
 10 21  2  0  0  0  0
 11  8  1  0  0  0  0
 11  5  1  0  0  0  0
 12  8  1  6  0  0  0
 12  4  1  0  0  0  0
 12 27  1  0  0  0  0
 13 18  2  0  0  0  0
 14 23  1  0  0  0  0
 15 23  1  0  0  0  0
 16  2  1  0  0  0  0
 17  3  1  0  0  0  0
 18 25  1  0  0  0  0
 19 26  1  0  0  0  0
 20 17  2  0  0  0  0
 22 20  1  6  0  0  0
 22  9  1  0  0  0  0
 22 10  1  0  0  0  0
 26 17  1  0  0  0  0
 26 25  2  0  0  0  0
 27 24  1  1  0  0  0
 27  7  1  0  0  0  0
 28 11  1  0  0  0  0
 29 30  1  0  0  0  0
 30 28  1  0  0  0  0
M  END
>  <MODEL>
7

>  <REMARK>
 VINA RESULT:      -8.1      1.819      7.037
  Name = 
  2 active torsions:
  status: ('A' for Active; 'I' for Inactive)
    1  A    between atoms: N_11  and  C_28
    2  A    between atoms: C_28  and  O_30
                            x       y       z     vdW  Elec       q    Type
                         _______ _______ _______ _____ _____    ______ ____

>  <TORSDO>
F 2

$$$$
=
 OpenBabel11112416123D

 30 35  0  0  1  0  0  0  0  0999 V2000
  187.7500  176.6600  142.7230 C   0  0  0  0  0  0  0  0  0  0  0  0
  186.0950  178.5260  143.0060 C   0  0  0  0  0  0  0  0  0  0  0  0
  188.2900  176.3790  146.8880 N   0  0  0  0  0  2  0  0  0  0  0  0
  188.5950  175.7020  143.3290 C   0  0  0  0  0  0  0  0  0  0  0  0
  187.8010  176.8060  141.2250 C   0  0  0  0  0  2  0  0  0  0  0  0
  189.2780  173.5680  140.4110 O   0  0  0  0  0  0  0  0  0  0  0  0
  191.4710  175.5730  143.7340 C   0  0  1  0  0  3  0  0  0  0  0  0
  188.8970  174.5510  141.1040 C   0  0  0  0  0  0  0  0  0  0  0  0
  191.1110  175.3560  145.2040 C   0  0  2  0  0  3  0  0  0  0  0  0
  189.2930  175.3630  146.8870 C   0  0  0  0  0  0  0  0  0  0  0  0
  188.0040  175.5260  140.5450 N   0  0  0  0  0  0  0  0  0  0  0  0
  189.3310  174.6500  142.5370 C   0  0  1  0  0  3  0  0  0  0  0  0
  185.3840  179.3750  143.8610 C   0  0  0  0  0  3  0  0  0  0  0  0
  192.0750  174.5110  145.7670 O   0  0  0  0  0  0  0  0  0  0  0  0
  192.9680  175.4500  143.7590 C   0  0  0  0  0  2  0  0  0  0  0  0
  185.8880  178.6650  141.6390 O   0  0  0  0  0  1  0  0  0  0  0  0
  187.9880  176.5400  145.5100 C   0  0  0  0  0  0  0  0  0  0  0  0
  185.5300  179.2840  145.2430 C   0  0  0  0  0  3  0  0  0  0  0  0
  186.9840  177.5560  143.5400 C   0  0  0  0  0  0  0  0  0  0  0  0
  188.7090  175.6870  144.7160 C   0  0  0  0  0  0  0  0  0  0  0  0
  189.7950  174.9130  147.9500 O   0  0  0  0  0  0  0  0  0  0  0  0
  189.6820  174.8890  145.5170 C   0  0  1  0  0  3  0  0  0  0  0  0
  193.2770  174.8710  145.1320 C   0  0  0  0  0  2  0  0  0  0  0  0
  191.2560  173.1250  142.9980 C   0  0  0  0  0  1  0  0  0  0  0  0
  186.3910  178.3370  145.7920 C   0  0  0  0  0  3  0  0  0  0  0  0
  187.1120  177.4750  144.9610 C   0  0  0  0  0  0  0  0  0  0  0  0
  190.8580  174.5710  142.7230 C   0  0  2  0  0  3  0  0  0  0  0  0
  187.4410  175.2970  139.2140 C   0  0  0  0  0  2  0  0  0  0  0  0
  186.6750  176.1970  137.3500 C   0  0  0  0  0  1  0  0  0  0  0  0
  186.8400  176.4530  138.7090 O   0  0  0  0  0  0  0  0  0  0  0  0
  1  4  2  0  0  0  0
  1 19  1  0  0  0  0
  2 19  2  0  0  0  0
  2 13  1  0  0  0  0
  4 20  1  0  0  0  0
  5  1  1  0  0  0  0
  6  8  2  0  0  0  0
  7 15  1  1  0  0  0
  7  9  1  0  0  0  0
  9 22  1  0  0  0  0
  9 14  1  6  0  0  0
 10  3  1  0  0  0  0
 10 21  2  0  0  0  0
 11  8  1  0  0  0  0
 11  5  1  0  0  0  0
 12  8  1  6  0  0  0
 12 27  1  0  0  0  0
 12  4  1  0  0  0  0
 13 18  2  0  0  0  0
 15 23  1  0  0  0  0
 16  2  1  0  0  0  0
 17  3  1  0  0  0  0
 18 25  1  0  0  0  0
 19 26  1  0  0  0  0
 20 17  2  0  0  0  0
 22 20  1  6  0  0  0
 22 10  1  0  0  0  0
 23 14  1  0  0  0  0
 26 17  1  0  0  0  0
 26 25  2  0  0  0  0
 27 24  1  1  0  0  0
 27  7  1  0  0  0  0
 28 11  1  0  0  0  0
 29 30  1  0  0  0  0
 30 28  1  0  0  0  0
M  END
>  <MODEL>
8

>  <REMARK>
 VINA RESULT:      -8.0      1.844      5.611
  Name = 
  2 active torsions:
  status: ('A' for Active; 'I' for Inactive)
    1  A    between atoms: N_11  and  C_28
    2  A    between atoms: C_28  and  O_30
                            x       y       z     vdW  Elec       q    Type
                         _______ _______ _______ _____ _____    ______ ____

>  <TORSDO>
F 2

$$$$
=
 OpenBabel11112416123D

 30 35  0  0  1  0  0  0  0  0999 V2000
  188.2220  176.1310  142.6380 C   0  0  0  0  0  0  0  0  0  0  0  0
  186.2460  177.6540  142.3500 C   0  0  0  0  0  0  0  0  0  0  0  0
  188.8300  177.5080  146.5690 N   0  0  0  0  0  2  0  0  0  0  0  0
  189.2360  175.6270  143.4850 C   0  0  0  0  0  0  0  0  0  0  0  0
  188.2360  175.7190  141.1900 C   0  0  0  0  0  2  0  0  0  0  0  0
  190.2910  172.7180  141.4950 O   0  0  0  0  0  0  0  0  0  0  0  0
  192.0870  176.1570  143.6920 C   0  0  1  0  0  3  0  0  0  0  0  0
  189.7370  173.8060  141.8110 C   0  0  0  0  0  0  0  0  0  0  0  0
  191.7830  176.4400  145.1630 C   0  0  2  0  0  3  0  0  0  0  0  0
  190.0060  176.7540  146.8610 C   0  0  0  0  0  0  0  0  0  0  0  0
  188.6730  174.3350  141.0060 N   0  0  0  0  0  0  0  0  0  0  0  0
  190.1520  174.5010  143.0740 C   0  0  1  0  0  3  0  0  0  0  0  0
  185.3940  178.6210  142.8900 C   0  0  0  0  0  3  0  0  0  0  0  0
  192.8920  176.0440  145.9200 O   0  0  0  0  0  0  0  0  0  0  0  0
  193.5810  176.3130  143.6480 C   0  0  0  0  0  2  0  0  0  0  0  0
  186.0100  177.2390  141.0450 O   0  0  0  0  0  1  0  0  0  0  0  0
  188.4950  177.0940  145.2530 C   0  0  0  0  0  0  0  0  0  0  0  0
  185.5620  179.0750  144.1960 C   0  0  0  0  0  3  0  0  0  0  0  0
  187.3060  177.1190  143.1310 C   0  0  0  0  0  0  0  0  0  0  0  0
  189.3580  176.1460  144.7700 C   0  0  0  0  0  0  0  0  0  0  0  0
  190.5910  176.8230  147.9730 O   0  0  0  0  0  0  0  0  0  0  0  0
  190.4700  175.8820  145.7300 C   0  0  1  0  0  3  0  0  0  0  0  0
  194.0010  176.3450  145.1090 C   0  0  0  0  0  2  0  0  0  0  0  0
  192.3330  173.6130  143.9100 C   0  0  0  0  0  1  0  0  0  0  0  0
  186.5890  178.5620  144.9840 C   0  0  0  0  0  3  0  0  0  0  0  0
  187.4550  177.5920  144.4700 C   0  0  0  0  0  0  0  0  0  0  0  0
  191.6680  174.7620  143.1610 C   0  0  2  0  0  3  0  0  0  0  0  0
  188.1550  173.5360  139.8940 C   0  0  0  0  0  2  0  0  0  0  0  0
  189.3030  173.8290  138.0320 C   0  0  0  0  0  1  0  0  0  0  0  0
  188.1600  174.2620  138.7000 O   0  0  0  0  0  0  0  0  0  0  0  0
  1 19  2  0  0  0  0
  1  4  1  0  0  0  0
  2 13  2  0  0  0  0
  2 19  1  0  0  0  0
  3 10  1  0  0  0  0
  4 20  2  0  0  0  0
  5  1  1  0  0  0  0
  6  8  2  0  0  0  0
  7 15  1  1  0  0  0
  7  9  1  0  0  0  0
  9 22  1  0  0  0  0
  9 14  1  1  0  0  0
 10 21  2  0  0  0  0
 11  5  1  0  0  0  0
 11  8  1  0  0  0  0
 12  8  1  6  0  0  0
 12 27  1  0  0  0  0
 12  4  1  0  0  0  0
 13 18  1  0  0  0  0
 15 23  1  0  0  0  0
 16  2  1  0  0  0  0
 17  3  1  0  0  0  0
 18 25  2  0  0  0  0
 19 26  1  0  0  0  0
 20 17  1  0  0  0  0
 22 20  1  6  0  0  0
 22 10  1  0  0  0  0
 23 14  1  0  0  0  0
 26 25  1  0  0  0  0
 26 17  2  0  0  0  0
 27  7  1  0  0  0  0
 27 24  1  1  0  0  0
 28 11  1  0  0  0  0
 29 30  1  0  0  0  0
 30 28  1  0  0  0  0
M  END
>  <MODEL>
9

>  <REMARK>
 VINA RESULT:      -7.9      1.792      5.713
  Name = 
  2 active torsions:
  status: ('A' for Active; 'I' for Inactive)
    1  A    between atoms: N_11  and  C_28
    2  A    between atoms: C_28  and  O_30
                            x       y       z     vdW  Elec       q    Type
                         _______ _______ _______ _____ _____    ______ ____

>  <TORSDO>
F 2

$$$$
