=
 OpenBabel11112418013D

 34 42  0  0  1  0  0  0  0  0999 V2000
  189.2640  175.1080  142.8720 C   0  0  0  0  0  0  0  0  0  0  0  0
  191.3440  173.7070  142.7330 C   0  0  0  0  0  3  0  0  0  0  0  0
  184.7840  178.5100  146.4730 C   0  0  1  0  0  0  0  0  0  0  0  0
  187.2460  176.4440  143.2610 C   0  0  0  0  0  0  0  0  0  0  0  0
  186.7540  177.1150  145.5230 C   0  0  0  0  0  0  0  0  0  0  0  0
  186.0370  177.9400  147.8600 C   0  0  1  0  0  3  0  0  0  0  0  0
  184.8640  178.6850  147.8870 O   0  0  0  0  0  0  0  0  0  0  0  0
  184.1790  178.5150  144.1110 C   0  0  0  0  0  3  0  0  0  0  0  0
  190.6400  174.5110  144.7000 C   0  0  0  0  0  0  0  0  0  0  0  0
  192.6600  175.1030  146.8660 C   0  0  0  0  0  3  0  0  0  0  0  0
  187.8560  176.4830  145.9180 O   0  0  0  0  0  0  0  0  0  0  0  0
  185.1780  177.7980  143.5690 C   0  0  0  0  0  2  0  0  0  0  0  0
  189.8250  175.1990  145.6000 C   0  0  0  0  0  0  0  0  0  0  0  0
  192.2120  173.2340  143.6270 C   0  0  0  0  0  3  0  0  0  0  0  0
  186.3880  177.1270  144.1510 C   0  0  0  0  0  0  0  0  0  0  0  0
  183.9560  178.8800  145.5170 C   0  0  0  0  0  3  0  0  0  0  0  0
  192.8950  174.4850  145.6960 C   0  0  0  0  0  0  0  0  0  0  0  0
  188.3970  175.7970  143.7580 C   0  0  0  0  0  0  0  0  0  0  0  0
  186.0280  177.7200  146.4480 C   0  0  0  0  0  0  0  0  0  0  0  0
  188.6710  175.8350  145.0890 C   0  0  0  0  0  0  0  0  0  0  0  0
  187.8420  175.7110  141.0100 C   0  0  0  0  0  3  0  0  0  0  0  0
  191.3680  175.2120  147.5800 C   0  0  0  0  0  3  0  0  0  0  0  0
  186.9830  176.3910  141.8800 C   0  0  0  0  0  3  0  0  0  0  0  0
  190.1430  175.2600  147.0400 C   0  0  0  0  0  3  0  0  0  0  0  0
  191.8250  173.6760  145.0180 C   0  0  1  0  0  3  0  0  0  0  0  0
  188.9780  175.0680  141.5030 C   0  0  0  0  0  3  0  0  0  0  0  0
  190.3560  174.4860  143.3900 N   0  0  0  0  0  0  0  0  0  0  0  0
  194.1730  174.5260  145.1230 O   0  0  0  0  0  0  0  0  0  0  0  0
  195.2950  175.1300  145.7550 C   0  0  0  0  0  2  0  0  0  0  0  0
  197.2230  172.0850  145.4820 C   0  0  0  0  0  2  0  0  0  0  0  0
  196.3840  173.7640  143.9790 C   0  0  0  0  0  2  0  0  0  0  0  0
  196.5710  174.4300  145.3250 C   0  0  0  0  0  3  0  0  0  0  0  0
  197.2420  172.5230  144.0340 C   0  0  0  0  0  2  0  0  0  0  0  0
  196.9120  173.3230  146.3050 C   0  0  0  0  0  2  0  0  0  0  0  0
  1 27  1  0  0  0  0
  1 18  1  0  0  0  0
  2 27  1  0  0  0  0
  2 14  2  0  0  0  0
  3 16  1  6  0  0  0
  3  6  1  0  0  0  0
  3  7  1  0  0  0  0
  4 18  1  0  0  0  0
  4 15  2  0  0  0  0
  5 11  1  0  0  0  0
  5 19  2  0  0  0  0
  6 19  1  1  0  0  0
  6  7  1  0  0  0  0
  8 16  2  0  0  0  0
  9 25  1  0  0  0  0
  9 13  2  0  0  0  0
 10 22  1  0  0  0  0
 12  8  1  0  0  0  0
 12 15  1  0  0  0  0
 13 24  1  0  0  0  0
 15  5  1  0  0  0  0
 17 10  2  0  0  0  0
 18 20  2  0  0  0  0
 19  3  1  0  0  0  0
 20 13  1  0  0  0  0
 20 11  1  0  0  0  0
 21 26  1  0  0  0  0
 21 23  2  0  0  0  0
 23  4  1  0  0  0  0
 24 22  2  0  0  0  0
 25 14  1  6  0  0  0
 25 17  1  0  0  0  0
 26  1  2  0  0  0  0
 27  9  1  0  0  0  0
 28 17  1  0  0  0  0
 28 29  1  0  0  0  0
 30 34  1  0  0  0  0
 31 33  1  0  0  0  0
 31 32  1  0  0  0  0
 32 29  1  0  0  0  0
 32 34  1  0  0  0  0
 33 30  1  0  0  0  0
M  END
>  <MODEL>
1

>  <REMARK>
 VINA RESULT:      -9.8      0.000      0.000
  Name = 
  3 active torsions:
  status: ('A' for Active; 'I' for Inactive)
    1  A    between atoms: C_17  and  O_28
    2  A    between atoms: O_28  and  C_29
    3  A    between atoms: C_29  and  C_32
                            x       y       z     vdW  Elec       q    Type
                         _______ _______ _______ _____ _____    ______ ____

>  <TORSDO>
F 3

$$$$
=
 OpenBabel11112418013D

 34 42  0  0  1  0  0  0  0  0999 V2000
  188.6410  177.2750  146.3010 C   0  0  0  0  0  0  0  0  0  0  0  0
  190.8310  176.8170  147.4420 C   0  0  0  0  0  3  0  0  0  0  0  0
  185.0290  177.9430  140.7230 C   0  0  2  0  0  0  0  0  0  0  0  0
  186.6350  177.7320  144.9670 C   0  0  0  0  0  0  0  0  0  0  0  0
  186.8110  177.5690  142.5700 C   0  0  0  0  0  0  0  0  0  0  0  0
  186.7740  177.4520  139.9920 C   0  0  2  0  0  3  0  0  0  0  0  0
  185.5470  177.7430  139.4070 O   0  0  0  0  0  0  0  0  0  0  0  0
  183.6680  178.3950  142.6930 C   0  0  0  0  0  3  0  0  0  0  0  0
  190.6640  176.7110  145.2130 C   0  0  0  0  0  0  0  0  0  0  0  0
  192.4760  174.8450  143.6790 C   0  0  0  0  0  3  0  0  0  0  0  0
  188.0930  177.2410  142.7160 O   0  0  0  0  0  0  0  0  0  0  0  0
  184.5530  178.2130  143.6880 C   0  0  0  0  0  2  0  0  0  0  0  0
  190.0620  176.7800  143.9550 C   0  0  0  0  0  0  0  0  0  0  0  0
  192.0630  176.5330  147.0200 C   0  0  0  0  0  3  0  0  0  0  0  0
  186.0060  177.8350  143.7080 C   0  0  0  0  0  0  0  0  0  0  0  0
  183.8640  178.2720  141.2430 C   0  0  0  0  0  3  0  0  0  0  0  0
  192.5460  175.1350  144.9880 C   0  0  0  0  0  0  0  0  0  0  0  0
  188.0000  177.3800  145.0400 C   0  0  0  0  0  0  0  0  0  0  0  0
  186.3320  177.6330  141.3390 C   0  0  0  0  0  0  0  0  0  0  0  0
  188.6970  177.1420  143.8970 C   0  0  0  0  0  0  0  0  0  0  0  0
  186.5710  177.8670  147.4040 C   0  0  0  0  0  3  0  0  0  0  0  0
  191.8620  175.6630  142.6080 C   0  0  0  0  0  3  0  0  0  0  0  0
  185.9350  177.9720  146.1630 C   0  0  0  0  0  3  0  0  0  0  0  0
  190.8180  176.4940  142.7200 C   0  0  0  0  0  3  0  0  0  0  0  0
  192.0970  176.4720  145.5110 C   0  0  1  0  0  3  0  0  0  0  0  0
  187.9210  177.5210  147.4750 C   0  0  0  0  0  3  0  0  0  0  0  0
  189.9600  176.9450  146.3290 N   0  0  0  0  0  0  0  0  0  0  0  0
  193.1110  174.2170  145.8840 O   0  0  0  0  0  0  0  0  0  0  0  0
  193.5300  172.9110  145.5060 C   0  0  0  0  0  2  0  0  0  0  0  0
  197.0160  173.4300  146.3060 C   0  0  0  0  0  2  0  0  0  0  0  0
  195.6740  171.6460  145.4140 C   0  0  0  0  0  2  0  0  0  0  0  0
  194.9780  172.9420  145.0570 C   0  0  0  0  0  3  0  0  0  0  0  0
  197.1000  172.0370  145.7200 C   0  0  0  0  0  2  0  0  0  0  0  0
  195.7260  174.0410  145.7880 C   0  0  0  0  0  2  0  0  0  0  0  0
  1 27  1  0  0  0  0
  1 26  2  0  0  0  0
  3 16  1  6  0  0  0
  3 19  1  0  0  0  0
  4 18  1  0  0  0  0
  4 23  1  0  0  0  0
  5 11  1  0  0  0  0
  5 15  1  0  0  0  0
  6  7  1  1  0  0  0
  6  3  1  0  0  0  0
  6 19  1  0  0  0  0
  7  3  1  0  0  0  0
  8 12  1  0  0  0  0
  9 25  1  0  0  0  0
  9 27  1  0  0  0  0
 10 17  2  0  0  0  0
 11 20  1  0  0  0  0
 12 15  1  0  0  0  0
 13  9  2  0  0  0  0
 14  2  2  0  0  0  0
 15  4  2  0  0  0  0
 16  8  2  0  0  0  0
 17 25  1  0  0  0  0
 17 28  1  0  0  0  0
 18  1  1  0  0  0  0
 19  5  2  0  0  0  0
 20 13  1  0  0  0  0
 20 18  2  0  0  0  0
 21 26  1  0  0  0  0
 22 24  2  0  0  0  0
 22 10  1  0  0  0  0
 23 21  2  0  0  0  0
 24 13  1  0  0  0  0
 25 14  1  1  0  0  0
 27  2  1  0  0  0  0
 29 28  1  0  0  0  0
 31 33  1  0  0  0  0
 32 31  1  0  0  0  0
 32 29  1  0  0  0  0
 32 34  1  0  0  0  0
 33 30  1  0  0  0  0
 34 30  1  0  0  0  0
M  END
>  <MODEL>
2

>  <REMARK>
 VINA RESULT:      -9.3      2.139      4.035
  Name = 
  3 active torsions:
  status: ('A' for Active; 'I' for Inactive)
    1  A    between atoms: C_17  and  O_28
    2  A    between atoms: O_28  and  C_29
    3  A    between atoms: C_29  and  C_32
                            x       y       z     vdW  Elec       q    Type
                         _______ _______ _______ _____ _____    ______ ____

>  <TORSDO>
F 3

$$$$
=
 OpenBabel11112418013D

 34 42  0  0  1  0  0  0  0  0999 V2000
  192.1610  176.1550  145.5490 C   0  0  0  0  0  0  0  0  0  0  0  0
  189.8840  176.0110  146.5990 C   0  0  0  0  0  3  0  0  0  0  0  0
  196.1650  175.4590  140.2480 C   0  0  1  0  0  0  0  0  0  0  0  0
  194.2830  176.1740  144.3210 C   0  0  0  0  0  0  0  0  0  0  0  0
  194.2410  175.5940  141.9830 C   0  0  0  0  0  0  0  0  0  0  0  0
  194.4260  175.0080  139.4770 C   0  0  1  0  0  3  0  0  0  0  0  0
  195.7120  175.0730  138.9510 O   0  0  0  0  0  0  0  0  0  0  0  0
  197.4410  176.1330  142.2130 C   0  0  0  0  0  3  0  0  0  0  0  0
  190.1670  175.5610  144.4250 C   0  0  0  0  0  0  0  0  0  0  0  0
  187.8980  176.0740  142.4990 C   0  0  0  0  0  3  0  0  0  0  0  0
  192.9250  175.4210  142.0810 O   0  0  0  0  0  0  0  0  0  0  0  0
  196.4810  176.2170  143.1500 C   0  0  0  0  0  2  0  0  0  0  0  0
  190.8430  175.3930  143.2150 C   0  0  0  0  0  0  0  0  0  0  0  0
  188.6750  175.6630  146.1610 C   0  0  0  0  0  3  0  0  0  0  0  0
  194.9980  175.9870  143.1190 C   0  0  0  0  0  0  0  0  0  0  0  0
  197.3230  175.7680  140.7950 C   0  0  0  0  0  3  0  0  0  0  0  0
  187.8450  176.1490  143.8390 C   0  0  0  0  0  0  0  0  0  0  0  0
  192.8870  175.9690  144.3450 C   0  0  0  0  0  0  0  0  0  0  0  0
  194.8010  175.3890  140.8020 C   0  0  0  0  0  0  0  0  0  0  0  0
  192.2410  175.5930  143.2090 C   0  0  0  0  0  0  0  0  0  0  0  0
  194.2090  176.7460  146.6930 C   0  0  0  0  0  3  0  0  0  0  0  0
  188.8590  175.3030  141.6790 C   0  0  0  0  0  3  0  0  0  0  0  0
  194.9290  176.5630  145.5090 C   0  0  0  0  0  3  0  0  0  0  0  0
  190.1310  175.0110  141.9790 C   0  0  0  0  0  3  0  0  0  0  0  0
  188.7340  175.2920  144.6980 C   0  0  1  0  0  3  0  0  0  0  0  0
  192.8290  176.5400  146.7160 C   0  0  0  0  0  3  0  0  0  0  0  0
  190.8200  175.9360  145.5340 N   0  0  0  0  0  0  0  0  0  0  0  0
  186.9030  176.9780  144.4630 O   0  0  0  0  0  0  0  0  0  0  0  0
  186.6420  178.3140  144.0480 C   0  0  0  0  0  2  0  0  0  0  0  0
  183.8370  178.6080  146.3090 C   0  0  0  0  0  2  0  0  0  0  0  0
  186.2280  178.4390  146.5020 C   0  0  0  0  0  2  0  0  0  0  0  0
  185.9380  179.0720  145.1580 C   0  0  0  0  0  3  0  0  0  0  0  0
  184.9710  178.6440  147.3120 C   0  0  0  0  0  2  0  0  0  0  0  0
  184.4350  178.9940  144.9670 C   0  0  0  0  0  2  0  0  0  0  0  0
  1 26  2  0  0  0  0
  3 16  1  6  0  0  0
  3 19  1  0  0  0  0
  4 18  1  0  0  0  0
  4 23  1  0  0  0  0
  5 11  1  0  0  0  0
  5 15  1  0  0  0  0
  6  7  1  1  0  0  0
  6  3  1  0  0  0  0
  6 19  1  0  0  0  0
  7  3  1  0  0  0  0
  8 12  1  0  0  0  0
  9 25  1  0  0  0  0
  9 27  1  0  0  0  0
 10 17  2  0  0  0  0
 11 20  1  0  0  0  0
 13  9  2  0  0  0  0
 14  2  2  0  0  0  0
 15 12  1  0  0  0  0
 15  4  2  0  0  0  0
 16  8  2  0  0  0  0
 17 28  1  0  0  0  0
 17 25  1  0  0  0  0
 18  1  1  0  0  0  0
 19  5  2  0  0  0  0
 20 13  1  0  0  0  0
 20 18  2  0  0  0  0
 21 26  1  0  0  0  0
 22 24  2  0  0  0  0
 22 10  1  0  0  0  0
 23 21  2  0  0  0  0
 24 13  1  0  0  0  0
 25 14  1  1  0  0  0
 27  1  1  0  0  0  0
 27  2  1  0  0  0  0
 29 28  1  0  0  0  0
 29 32  1  0  0  0  0
 30 33  1  0  0  0  0
 31 33  1  0  0  0  0
 32 31  1  0  0  0  0
 34 32  1  0  0  0  0
 34 30  1  0  0  0  0
M  END
>  <MODEL>
3

>  <REMARK>
 VINA RESULT:      -9.1      2.484      9.244
  Name = 
  3 active torsions:
  status: ('A' for Active; 'I' for Inactive)
    1  A    between atoms: C_17  and  O_28
    2  A    between atoms: O_28  and  C_29
    3  A    between atoms: C_29  and  C_32
                            x       y       z     vdW  Elec       q    Type
                         _______ _______ _______ _____ _____    ______ ____

>  <TORSDO>
F 3

$$$$
=
 OpenBabel11112418013D

 34 42  0  0  1  0  0  0  0  0999 V2000
  192.2980  175.9020  145.4550 C   0  0  0  0  0  0  0  0  0  0  0  0
  190.2630  177.3620  145.2640 C   0  0  0  0  0  3  0  0  0  0  0  0
  195.2660  169.9600  144.7580 C   0  0  1  0  0  0  0  0  0  0  0  0
  194.1290  174.2780  145.5930 C   0  0  0  0  0  0  0  0  0  0  0  0
  193.7070  172.0320  144.8310 C   0  0  0  0  0  0  0  0  0  0  0  0
  193.4760  169.5770  144.0720 C   0  0  2  0  0  3  0  0  0  0  0  0
  194.6210  168.8030  144.2260 O   0  0  0  0  0  0  0  0  0  0  0  0
  196.8080  171.5900  145.7100 C   0  0  0  0  0  3  0  0  0  0  0  0
  190.1970  175.2250  144.6050 C   0  0  0  0  0  0  0  0  0  0  0  0
  188.3160  174.4160  142.3850 C   0  0  0  0  0  3  0  0  0  0  0  0
  192.4640  172.3990  144.5310 O   0  0  0  0  0  0  0  0  0  0  0  0
  196.0410  172.6930  145.7700 C   0  0  0  0  0  2  0  0  0  0  0  0
  190.6590  173.9290  144.3660 C   0  0  0  0  0  0  0  0  0  0  0  0
  189.0070  177.1660  144.8650 C   0  0  0  0  0  3  0  0  0  0  0  0
  194.6170  172.9700  145.3870 C   0  0  0  0  0  0  0  0  0  0  0  0
  196.4640  170.2470  145.2250 C   0  0  0  0  0  3  0  0  0  0  0  0
  188.3720  175.6120  142.9940 C   0  0  0  0  0  0  0  0  0  0  0  0
  192.7960  174.5910  145.2500 C   0  0  0  0  0  0  0  0  0  0  0  0
  194.0510  170.7770  144.5930 C   0  0  0  0  0  0  0  0  0  0  0  0
  191.9930  173.6290  144.7230 C   0  0  0  0  0  0  0  0  0  0  0  0
  194.4450  176.5820  146.3360 C   0  0  0  0  0  3  0  0  0  0  0  0
  188.7760  173.1140  142.9190 C   0  0  0  0  0  3  0  0  0  0  0  0
  194.9420  175.2910  146.1370 C   0  0  0  0  0  3  0  0  0  0  0  0
  189.7890  172.8970  143.7670 C   0  0  0  0  0  3  0  0  0  0  0  0
  188.8150  175.7330  144.4260 C   0  0  1  0  0  3  0  0  0  0  0  0
  193.1270  176.8890  145.9990 C   0  0  0  0  0  3  0  0  0  0  0  0
  191.0050  176.1610  145.1220 N   0  0  0  0  0  0  0  0  0  0  0  0
  187.9450  176.7660  142.3220 O   0  0  0  0  0  0  0  0  0  0  0  0
  186.7190  176.8440  141.6040 C   0  0  0  0  0  2  0  0  0  0  0  0
  185.3620  178.1480  144.6910 C   0  0  0  0  0  2  0  0  0  0  0  0
  186.4900  179.0370  142.7630 C   0  0  0  0  0  2  0  0  0  0  0  0
  185.7650  177.7880  142.3110 C   0  0  0  0  0  3  0  0  0  0  0  0
  185.8110  179.4430  144.0490 C   0  0  0  0  0  2  0  0  0  0  0  0
  185.2220  177.1340  143.5680 C   0  0  0  0  0  2  0  0  0  0  0  0
  1 26  2  0  0  0  0
  3 16  1  6  0  0  0
  4 23  1  0  0  0  0
  5 15  1  0  0  0  0
  6  7  1  6  0  0  0
  6 19  1  0  0  0  0
  6  3  1  0  0  0  0
  7  3  1  0  0  0  0
  8 12  1  0  0  0  0
  9 27  1  0  0  0  0
 10 22  1  0  0  0  0
 10 17  2  0  0  0  0
 11 20  1  0  0  0  0
 11  5  1  0  0  0  0
 13  9  2  0  0  0  0
 13 20  1  0  0  0  0
 14  2  2  0  0  0  0
 15  4  2  0  0  0  0
 15 12  1  0  0  0  0
 16  8  2  0  0  0  0
 17 25  1  0  0  0  0
 18  1  1  0  0  0  0
 18  4  1  0  0  0  0
 19  3  1  0  0  0  0
 19  5  2  0  0  0  0
 20 18  2  0  0  0  0
 22 24  2  0  0  0  0
 23 21  2  0  0  0  0
 24 13  1  0  0  0  0
 25  9  1  0  0  0  0
 25 14  1  6  0  0  0
 26 21  1  0  0  0  0
 27  2  1  0  0  0  0
 27  1  1  0  0  0  0
 28 17  1  0  0  0  0
 29 32  1  0  0  0  0
 29 28  1  0  0  0  0
 31 33  1  0  0  0  0
 32 31  1  0  0  0  0
 32 34  1  0  0  0  0
 33 30  1  0  0  0  0
 34 30  1  0  0  0  0
M  END
>  <MODEL>
4

>  <REMARK>
 VINA RESULT:      -9.1      2.128      9.177
  Name = 
  3 active torsions:
  status: ('A' for Active; 'I' for Inactive)
    1  A    between atoms: C_17  and  O_28
    2  A    between atoms: O_28  and  C_29
    3  A    between atoms: C_29  and  C_32
                            x       y       z     vdW  Elec       q    Type
                         _______ _______ _______ _____ _____    ______ ____

>  <TORSDO>
F 3

$$$$
=
 OpenBabel11112418013D

 34 42  0  0  1  0  0  0  0  0999 V2000
  189.7620  174.6480  144.7570 C   0  0  0  0  0  0  0  0  0  0  0  0
  191.4870  173.3180  143.5070 C   0  0  0  0  0  3  0  0  0  0  0  0
  184.3710  178.5910  144.7900 C   0  0  2  0  0  0  0  0  0  0  0  0
  188.0060  176.0410  145.7510 C   0  0  0  0  0  0  0  0  0  0  0  0
  186.3960  177.0540  144.2720 C   0  0  0  0  0  0  0  0  0  0  0  0
  184.5720  178.2320  142.8780 C   0  0  2  0  0  3  0  0  0  0  0  0
  183.6590  178.9800  143.6150 O   0  0  0  0  0  0  0  0  0  0  0  0
  185.1980  178.2380  147.0550 C   0  0  0  0  0  3  0  0  0  0  0  0
  189.8340  174.3560  142.4120 C   0  0  0  0  0  0  0  0  0  0  0  0
  188.8380  173.2090  139.8010 C   0  0  0  0  0  3  0  0  0  0  0  0
  187.0220  176.4820  143.2470 O   0  0  0  0  0  0  0  0  0  0  0  0
  186.2580  177.4400  146.8410 C   0  0  0  0  0  2  0  0  0  0  0  0
  188.6920  175.1390  142.2310 C   0  0  0  0  0  0  0  0  0  0  0  0
  191.7230  173.0730  142.2180 C   0  0  0  0  0  3  0  0  0  0  0  0
  186.8650  176.8580  145.5980 C   0  0  0  0  0  0  0  0  0  0  0  0
  184.2600  178.8150  146.0830 C   0  0  0  0  0  3  0  0  0  0  0  0
  189.9080  172.7990  140.5020 C   0  0  0  0  0  0  0  0  0  0  0  0
  188.6150  175.4700  144.6130 C   0  0  0  0  0  0  0  0  0  0  0  0
  185.3360  177.7990  144.0060 C   0  0  0  0  0  0  0  0  0  0  0  0
  188.0980  175.7110  143.3790 C   0  0  0  0  0  0  0  0  0  0  0  0
  189.6890  174.9650  147.1550 C   0  0  0  0  0  3  0  0  0  0  0  0
  188.1920  174.5410  139.8450 C   0  0  0  0  0  3  0  0  0  0  0  0
  188.5590  175.7760  147.0180 C   0  0  0  0  0  3  0  0  0  0  0  0
  188.1200  175.3740  140.8910 C   0  0  0  0  0  3  0  0  0  0  0  0
  190.6890  173.7580  141.3570 C   0  0  1  0  0  3  0  0  0  0  0  0
  190.2920  174.4030  146.0290 C   0  0  0  0  0  3  0  0  0  0  0  0
  190.3270  174.1260  143.6360 N   0  0  0  0  0  0  0  0  0  0  0  0
  190.3600  171.4770  140.3880 O   0  0  0  0  0  0  0  0  0  0  0  0
  190.4380  170.7820  139.1490 C   0  0  0  0  0  2  0  0  0  0  0  0
  193.6200  172.4350  138.6960 C   0  0  0  0  0  2  0  0  0  0  0  0
  192.8120  170.4820  139.8410 C   0  0  0  0  0  2  0  0  0  0  0  0
  191.8790  170.7270  138.6760 C   0  0  0  0  0  3  0  0  0  0  0  0
  194.0750  171.2350  139.4980 C   0  0  0  0  0  2  0  0  0  0  0  0
  192.2820  172.0630  138.0820 C   0  0  0  0  0  2  0  0  0  0  0  0
  1 26  2  0  0  0  0
  2 27  1  0  0  0  0
  3 16  1  6  0  0  0
  4 23  1  0  0  0  0
  5 15  1  0  0  0  0
  6  7  1  1  0  0  0
  6 19  1  0  0  0  0
  6  3  1  0  0  0  0
  7  3  1  0  0  0  0
  9 27  1  0  0  0  0
 10 22  1  0  0  0  0
 10 17  2  0  0  0  0
 11 20  1  0  0  0  0
 11  5  1  0  0  0  0
 12  8  1  0  0  0  0
 13  9  2  0  0  0  0
 13 20  1  0  0  0  0
 14  2  2  0  0  0  0
 15  4  2  0  0  0  0
 15 12  1  0  0  0  0
 16  8  2  0  0  0  0
 17 25  1  0  0  0  0
 18  1  1  0  0  0  0
 18  4  1  0  0  0  0
 19  5  2  0  0  0  0
 19  3  1  0  0  0  0
 20 18  2  0  0  0  0
 22 24  2  0  0  0  0
 23 21  2  0  0  0  0
 24 13  1  0  0  0  0
 25 14  1  1  0  0  0
 25  9  1  0  0  0  0
 26 21  1  0  0  0  0
 27  1  1  0  0  0  0
 28 17  1  0  0  0  0
 29 28  1  0  0  0  0
 30 33  1  0  0  0  0
 32 29  1  0  0  0  0
 32 31  1  0  0  0  0
 33 31  1  0  0  0  0
 34 32  1  0  0  0  0
 34 30  1  0  0  0  0
M  END
>  <MODEL>
5

>  <REMARK>
 VINA RESULT:      -8.9      2.933      5.116
  Name = 
  3 active torsions:
  status: ('A' for Active; 'I' for Inactive)
    1  A    between atoms: C_17  and  O_28
    2  A    between atoms: O_28  and  C_29
    3  A    between atoms: C_29  and  C_32
                            x       y       z     vdW  Elec       q    Type
                         _______ _______ _______ _____ _____    ______ ____

>  <TORSDO>
F 3

$$$$
=
 OpenBabel11112418013D

 34 42  0  0  1  0  0  0  0  0999 V2000
  191.0170  174.5010  142.6630 C   0  0  0  0  0  0  0  0  0  0  0  0
  193.3490  173.5700  142.6610 C   0  0  0  0  0  3  0  0  0  0  0  0
  186.0640  177.7510  145.7470 C   0  0  2  0  0  0  0  0  0  0  0  0
  188.7710  175.4520  142.9140 C   0  0  0  0  0  0  0  0  0  0  0  0
  188.2500  176.5860  144.9750 C   0  0  0  0  0  0  0  0  0  0  0  0
  187.4780  177.8400  147.0940 C   0  0  2  0  0  3  0  0  0  0  0  0
  186.1700  178.3100  147.0570 O   0  0  0  0  0  0  0  0  0  0  0  0
  185.3620  177.0030  143.5360 C   0  0  0  0  0  3  0  0  0  0  0  0
  192.5780  174.7070  144.4270 C   0  0  0  0  0  0  0  0  0  0  0  0
  194.5140  176.2550  146.1530 C   0  0  0  0  0  3  0  0  0  0  0  0
  189.4830  176.3220  145.3980 O   0  0  0  0  0  0  0  0  0  0  0  0
  186.4700  176.3870  143.0890 C   0  0  0  0  0  2  0  0  0  0  0  0
  191.6720  175.4290  145.2070 C   0  0  0  0  0  0  0  0  0  0  0  0
  194.3430  173.5390  143.5490 C   0  0  0  0  0  3  0  0  0  0  0  0
  187.8260  176.1570  143.6900 C   0  0  0  0  0  0  0  0  0  0  0  0
  185.1300  177.6760  144.8210 C   0  0  0  0  0  3  0  0  0  0  0  0
  194.8250  175.4100  145.1570 C   0  0  0  0  0  0  0  0  0  0  0  0
  190.0610  175.2090  143.4340 C   0  0  0  0  0  0  0  0  0  0  0  0
  187.4520  177.2550  145.7910 C   0  0  0  0  0  0  0  0  0  0  0  0
  190.3820  175.6570  144.6770 C   0  0  0  0  0  0  0  0  0  0  0  0
  189.4090  174.2830  140.8680 C   0  0  0  0  0  3  0  0  0  0  0  0
  193.2650  176.2840  146.9490 C   0  0  0  0  0  3  0  0  0  0  0  0
  188.4630  174.9800  141.6250 C   0  0  0  0  0  3  0  0  0  0  0  0
  192.0370  175.9360  146.5450 C   0  0  0  0  0  3  0  0  0  0  0  0
  193.9330  174.2480  144.8180 C   0  0  1  0  0  3  0  0  0  0  0  0
  190.6830  174.0410  141.3840 C   0  0  0  0  0  3  0  0  0  0  0  0
  192.2450  174.2770  143.2020 N   0  0  0  0  0  0  0  0  0  0  0  0
  196.0330  175.5560  144.4610 O   0  0  0  0  0  0  0  0  0  0  0  0
  196.4030  176.7490  143.7790 C   0  0  0  0  0  2  0  0  0  0  0  0
  197.2330  174.3060  141.2480 C   0  0  0  0  0  2  0  0  0  0  0  0
  196.1530  176.4530  141.3180 C   0  0  0  0  0  2  0  0  0  0  0  0
  197.1160  176.4060  142.4850 C   0  0  0  0  0  3  0  0  0  0  0  0
  196.6340  175.3830  140.3690 C   0  0  0  0  0  2  0  0  0  0  0  0
  197.6440  174.9850  142.5440 C   0  0  0  0  0  2  0  0  0  0  0  0
  1 27  1  0  0  0  0
  1 18  1  0  0  0  0
  2 27  1  0  0  0  0
  2 14  2  0  0  0  0
  3 16  1  1  0  0  0
  3 19  1  0  0  0  0
  3  7  1  0  0  0  0
  3  6  1  0  0  0  0
  4 18  1  0  0  0  0
  4 15  2  0  0  0  0
  5 11  1  0  0  0  0
  5 19  2  0  0  0  0
  6 19  1  6  0  0  0
  7  6  1  0  0  0  0
  8 16  2  0  0  0  0
  9 25  1  0  0  0  0
  9 13  2  0  0  0  0
 10 22  1  0  0  0  0
 12  8  1  0  0  0  0
 12 15  1  0  0  0  0
 13 24  1  0  0  0  0
 15  5  1  0  0  0  0
 17 10  2  0  0  0  0
 18 20  2  0  0  0  0
 20 13  1  0  0  0  0
 20 11  1  0  0  0  0
 21 26  1  0  0  0  0
 21 23  2  0  0  0  0
 23  4  1  0  0  0  0
 24 22  2  0  0  0  0
 25 14  1  6  0  0  0
 25 17  1  0  0  0  0
 26  1  2  0  0  0  0
 27  9  1  0  0  0  0
 28 17  1  0  0  0  0
 29 28  1  0  0  0  0
 30 34  1  0  0  0  0
 31 32  1  0  0  0  0
 32 34  1  0  0  0  0
 32 29  1  0  0  0  0
 33 30  1  0  0  0  0
 33 31  1  0  0  0  0
M  END
>  <MODEL>
6

>  <REMARK>
 VINA RESULT:      -8.8      1.787      2.442
  Name = 
  3 active torsions:
  status: ('A' for Active; 'I' for Inactive)
    1  A    between atoms: C_17  and  O_28
    2  A    between atoms: O_28  and  C_29
    3  A    between atoms: C_29  and  C_32
                            x       y       z     vdW  Elec       q    Type
                         _______ _______ _______ _____ _____    ______ ____

>  <TORSDO>
F 3

$$$$
=
 OpenBabel11112418013D

 34 42  0  0  1  0  0  0  0  0999 V2000
  190.4080  175.6260  144.7770 C   0  0  0  0  0  0  0  0  0  0  0  0
  192.2550  174.3640  143.6350 C   0  0  0  0  0  3  0  0  0  0  0  0
  184.4210  178.5810  144.5980 C   0  0  2  0  0  0  0  0  0  0  0  0
  188.5030  176.8920  145.6590 C   0  0  0  0  0  0  0  0  0  0  0  0
  186.6470  177.3150  144.1820 C   0  0  0  0  0  0  0  0  0  0  0  0
  184.5580  177.8810  142.7770 C   0  0  2  0  0  3  0  0  0  0  0  0
  183.5770  178.6060  143.4460 O   0  0  0  0  0  0  0  0  0  0  0  0
  185.4420  178.8290  146.7970 C   0  0  0  0  0  3  0  0  0  0  0  0
  190.3790  174.8830  142.5330 C   0  0  0  0  0  0  0  0  0  0  0  0
  189.4320  173.0890  140.2940 C   0  0  0  0  0  3  0  0  0  0  0  0
  187.2960  176.6560  143.2260 O   0  0  0  0  0  0  0  0  0  0  0  0
  186.6100  178.1840  146.6330 C   0  0  0  0  0  2  0  0  0  0  0  0
  189.1080  175.4200  142.3210 C   0  0  0  0  0  0  0  0  0  0  0  0
  192.4470  173.9050  142.3990 C   0  0  0  0  0  3  0  0  0  0  0  0
  187.2290  177.4680  145.4680 C   0  0  0  0  0  0  0  0  0  0  0  0
  184.3560  179.0410  145.8300 C   0  0  0  0  0  3  0  0  0  0  0  0
  190.6020  173.0050  140.9510 C   0  0  0  0  0  0  0  0  0  0  0  0
  189.1280  176.2080  144.5950 C   0  0  0  0  0  0  0  0  0  0  0  0
  185.4580  177.8120  143.8850 C   0  0  0  0  0  0  0  0  0  0  0  0
  188.4980  176.1090  143.3940 C   0  0  0  0  0  0  0  0  0  0  0  0
  190.4360  176.4040  147.0680 C   0  0  0  0  0  3  0  0  0  0  0  0
  188.5670  174.2810  140.1510 C   0  0  0  0  0  3  0  0  0  0  0  0
  189.1740  176.9800  146.8930 C   0  0  0  0  0  3  0  0  0  0  0  0
  188.4180  175.2860  141.0230 C   0  0  0  0  0  3  0  0  0  0  0  0
  191.2550  174.2290  141.5300 C   0  0  1  0  0  3  0  0  0  0  0  0
  191.0550  175.7310  146.0140 C   0  0  0  0  0  3  0  0  0  0  0  0
  190.9830  174.9860  143.7240 N   0  0  0  0  0  0  0  0  0  0  0  0
  191.2710  171.7770  141.0430 O   0  0  0  0  0  0  0  0  0  0  0  0
  190.8080  170.6910  141.8380 C   0  0  0  0  0  2  0  0  0  0  0  0
  194.3160  170.6930  142.7100 C   0  0  0  0  0  2  0  0  0  0  0  0
  192.2210  170.6130  143.8880 C   0  0  0  0  0  2  0  0  0  0  0  0
  191.9810  170.0120  142.5200 C   0  0  0  0  0  3  0  0  0  0  0  0
  193.7160  170.5400  144.0910 C   0  0  0  0  0  2  0  0  0  0  0  0
  193.2510  170.2450  141.7240 C   0  0  0  0  0  2  0  0  0  0  0  0
  1 26  2  0  0  0  0
  2 27  1  0  0  0  0
  3 16  1  6  0  0  0
  4 23  1  0  0  0  0
  5 15  1  0  0  0  0
  6  7  1  1  0  0  0
  6 19  1  0  0  0  0
  6  3  1  0  0  0  0
  7  3  1  0  0  0  0
  9 27  1  0  0  0  0
 10 17  2  0  0  0  0
 11 20  1  0  0  0  0
 11  5  1  0  0  0  0
 12  8  1  0  0  0  0
 13  9  2  0  0  0  0
 13 20  1  0  0  0  0
 14  2  2  0  0  0  0
 15  4  2  0  0  0  0
 15 12  1  0  0  0  0
 16  8  2  0  0  0  0
 17 28  1  0  0  0  0
 17 25  1  0  0  0  0
 18  1  1  0  0  0  0
 18  4  1  0  0  0  0
 19  5  2  0  0  0  0
 19  3  1  0  0  0  0
 20 18  2  0  0  0  0
 22 10  1  0  0  0  0
 22 24  2  0  0  0  0
 23 21  2  0  0  0  0
 24 13  1  0  0  0  0
 25 14  1  1  0  0  0
 25  9  1  0  0  0  0
 26 21  1  0  0  0  0
 27  1  1  0  0  0  0
 28 29  1  0  0  0  0
 29 32  1  0  0  0  0
 30 33  1  0  0  0  0
 31 33  1  0  0  0  0
 32 31  1  0  0  0  0
 34 32  1  0  0  0  0
 34 30  1  0  0  0  0
M  END
>  <MODEL>
7

>  <REMARK>
 VINA RESULT:      -8.7      2.420      4.458
  Name = 
  3 active torsions:
  status: ('A' for Active; 'I' for Inactive)
    1  A    between atoms: C_17  and  O_28
    2  A    between atoms: O_28  and  C_29
    3  A    between atoms: C_29  and  C_32
                            x       y       z     vdW  Elec       q    Type
                         _______ _______ _______ _____ _____    ______ ____

>  <TORSDO>
F 3

$$$$
=
 OpenBabel11112418013D

 34 42  0  0  1  0  0  0  0  0999 V2000
  187.7900  176.1580  141.6130 C   0  0  0  0  0  0  0  0  0  0  0  0
  185.9330  177.1620  140.2530 C   0  0  0  0  0  3  0  0  0  0  0  0
  191.4390  175.9580  147.2040 C   0  0  1  0  0  0  0  0  0  0  0  0
  189.5710  175.3730  143.1040 C   0  0  0  0  0  0  0  0  0  0  0  0
  189.7630  176.4020  145.2740 C   0  0  0  0  0  0  0  0  0  0  0  0
  190.1490  177.3620  147.6380 C   0  0  1  0  0  3  0  0  0  0  0  0
  191.2080  176.7940  148.3380 O   0  0  0  0  0  0  0  0  0  0  0  0
  192.2500  174.3280  145.5830 C   0  0  0  0  0  3  0  0  0  0  0  0
  186.3430  177.8850  142.3300 C   0  0  0  0  0  0  0  0  0  0  0  0
  184.0750  178.9950  143.9870 C   0  0  0  0  0  3  0  0  0  0  0  0
  188.7220  177.1720  144.9680 O   0  0  0  0  0  0  0  0  0  0  0  0
  191.4070  174.5200  144.5540 C   0  0  0  0  0  2  0  0  0  0  0  0
  186.9760  177.9650  143.5720 C   0  0  0  0  0  0  0  0  0  0  0  0
  185.0560  178.1460  140.4510 C   0  0  0  0  0  3  0  0  0  0  0  0
  190.2470  175.4480  144.3400 C   0  0  0  0  0  0  0  0  0  0  0  0
  192.2940  175.0080  146.8850 C   0  0  0  0  0  3  0  0  0  0  0  0
  184.0300  178.6600  142.6870 C   0  0  0  0  0  0  0  0  0  0  0  0
  188.4750  176.2250  142.8530 C   0  0  0  0  0  0  0  0  0  0  0  0
  190.3160  176.5630  146.4650 C   0  0  0  0  0  0  0  0  0  0  0  0
  188.0780  177.1120  143.8050 C   0  0  0  0  0  0  0  0  0  0  0  0
  189.2840  174.4010  140.8830 C   0  0  0  0  0  3  0  0  0  0  0  0
  185.2710  179.3550  144.7810 C   0  0  0  0  0  3  0  0  0  0  0  0
  189.9630  174.4640  142.1030 C   0  0  0  0  0  3  0  0  0  0  0  0
  186.5220  178.9100  144.6110 C   0  0  0  0  0  3  0  0  0  0  0  0
  185.2540  178.7550  141.8200 C   0  0  1  0  0  3  0  0  0  0  0  0
  188.2020  175.2460  140.6350 C   0  0  0  0  0  3  0  0  0  0  0  0
  186.7460  177.0030  141.4050 N   0  0  0  0  0  0  0  0  0  0  0  0
  182.8150  178.2840  142.0970 O   0  0  0  0  0  0  0  0  0  0  0  0
  181.5640  178.8640  142.4480 C   0  0  0  0  0  2  0  0  0  0  0  0
  178.1470  179.0500  141.2810 C   0  0  0  0  0  2  0  0  0  0  0  0
  180.2990  179.8040  140.5180 C   0  0  0  0  0  2  0  0  0  0  0  0
  180.5390  178.5740  141.3670 C   0  0  0  0  0  3  0  0  0  0  0  0
  178.8440  179.7300  140.1220 C   0  0  0  0  0  2  0  0  0  0  0  0
  179.2040  178.2250  141.9970 C   0  0  0  0  0  2  0  0  0  0  0  0
  1 18  1  0  0  0  0
  2 14  2  0  0  0  0
  2 27  1  0  0  0  0
  3 16  1  1  0  0  0
  3  6  1  0  0  0  0
  3  7  1  0  0  0  0
  4 15  2  0  0  0  0
  5 19  2  0  0  0  0
  6 19  1  6  0  0  0
  6  7  1  0  0  0  0
  8 16  2  0  0  0  0
  9 13  2  0  0  0  0
 10 22  1  0  0  0  0
 11  5  1  0  0  0  0
 12  8  1  0  0  0  0
 13 20  1  0  0  0  0
 13 24  1  0  0  0  0
 15 12  1  0  0  0  0
 15  5  1  0  0  0  0
 17 10  2  0  0  0  0
 18  4  1  0  0  0  0
 18 20  2  0  0  0  0
 19  3  1  0  0  0  0
 20 11  1  0  0  0  0
 21 23  2  0  0  0  0
 23  4  1  0  0  0  0
 24 22  2  0  0  0  0
 25 14  1  6  0  0  0
 25  9  1  0  0  0  0
 25 17  1  0  0  0  0
 26 21  1  0  0  0  0
 26  1  2  0  0  0  0
 27  1  1  0  0  0  0
 27  9  1  0  0  0  0
 28 29  1  0  0  0  0
 28 17  1  0  0  0  0
 30 34  1  0  0  0  0
 31 32  1  0  0  0  0
 32 34  1  0  0  0  0
 32 29  1  0  0  0  0
 33 31  1  0  0  0  0
 33 30  1  0  0  0  0
M  END
>  <MODEL>
8

>  <REMARK>
 VINA RESULT:      -8.7      3.008      9.640
  Name = 
  3 active torsions:
  status: ('A' for Active; 'I' for Inactive)
    1  A    between atoms: C_17  and  O_28
    2  A    between atoms: O_28  and  C_29
    3  A    between atoms: C_29  and  C_32
                            x       y       z     vdW  Elec       q    Type
                         _______ _______ _______ _____ _____    ______ ____

>  <TORSDO>
F 3

$$$$
=
 OpenBabel11112418013D

 34 42  0  0  1  0  0  0  0  0999 V2000
  192.8440  175.1990  145.2440 C   0  0  0  0  0  0  0  0  0  0  0  0
  190.7310  175.0080  146.5880 C   0  0  0  0  0  3  0  0  0  0  0  0
  196.0060  175.1640  139.3610 C   0  0  1  0  0  0  0  0  0  0  0  0
  194.7700  175.3050  143.7310 C   0  0  0  0  0  0  0  0  0  0  0  0
  194.3580  175.1170  141.3640 C   0  0  0  0  0  0  0  0  0  0  0  0
  194.1470  174.9390  138.7980 C   0  0  2  0  0  3  0  0  0  0  0  0
  195.3490  175.0200  138.1020 O   0  0  0  0  0  0  0  0  0  0  0  0
  197.5900  175.4390  141.1930 C   0  0  0  0  0  3  0  0  0  0  0  0
  190.6730  174.9040  144.3540 C   0  0  0  0  0  0  0  0  0  0  0  0
  188.2040  175.8440  142.8910 C   0  0  0  0  0  3  0  0  0  0  0  0
  193.0590  175.0010  141.6300 O   0  0  0  0  0  0  0  0  0  0  0  0
  196.7790  175.4210  142.2640 C   0  0  0  0  0  2  0  0  0  0  0  0
  191.1590  174.8990  143.0450 C   0  0  0  0  0  0  0  0  0  0  0  0
  189.4490  174.8010  146.2890 C   0  0  0  0  0  3  0  0  0  0  0  0
  195.2930  175.2780  142.4200 C   0  0  0  0  0  0  0  0  0  0  0  0
  197.2490  175.3170  139.7690 C   0  0  0  0  0  3  0  0  0  0  0  0
  188.3440  175.7020  144.2190 C   0  0  0  0  0  0  0  0  0  0  0  0
  193.3790  175.1740  143.9310 C   0  0  0  0  0  0  0  0  0  0  0  0
  194.7310  175.0780  140.0960 C   0  0  0  0  0  0  0  0  0  0  0  0
  192.5540  175.0230  142.8600 C   0  0  0  0  0  0  0  0  0  0  0  0
  195.0700  175.4850  146.1470 C   0  0  0  0  0  3  0  0  0  0  0  0
  188.9800  175.1670  141.8280 C   0  0  0  0  0  3  0  0  0  0  0  0
  195.6030  175.4600  144.8540 C   0  0  0  0  0  3  0  0  0  0  0  0
  190.2550  174.7630  141.8860 C   0  0  0  0  0  3  0  0  0  0  0  0
  189.2760  174.6710  144.7940 C   0  0  1  0  0  3  0  0  0  0  0  0
  193.6950  175.3520  146.3440 C   0  0  0  0  0  3  0  0  0  0  0  0
  191.5000  175.0570  145.3970 N   0  0  0  0  0  0  0  0  0  0  0  0
  187.5650  176.4680  145.0970 O   0  0  0  0  0  0  0  0  0  0  0  0
  187.6150  177.8890  145.1500 C   0  0  0  0  0  2  0  0  0  0  0  0
  184.0880  178.6650  145.3070 C   0  0  0  0  0  2  0  0  0  0  0  0
  185.6300  177.2790  146.5250 C   0  0  0  0  0  2  0  0  0  0  0  0
  186.4320  178.4200  145.9380 C   0  0  0  0  0  3  0  0  0  0  0  0
  184.1980  177.7600  146.5150 C   0  0  0  0  0  2  0  0  0  0  0  0
  185.4900  179.1730  145.0170 C   0  0  0  0  0  2  0  0  0  0  0  0
  1 27  1  0  0  0  0
  1 26  2  0  0  0  0
  3 16  1  6  0  0  0
  3 19  1  0  0  0  0
  4 18  1  0  0  0  0
  4 23  1  0  0  0  0
  5 11  1  0  0  0  0
  5 15  1  0  0  0  0
  6  7  1  6  0  0  0
  6  3  1  0  0  0  0
  6 19  1  0  0  0  0
  7  3  1  0  0  0  0
  8 12  1  0  0  0  0
  9 25  1  0  0  0  0
  9 27  1  0  0  0  0
 10 17  2  0  0  0  0
 11 20  1  0  0  0  0
 12 15  1  0  0  0  0
 13  9  2  0  0  0  0
 14  2  2  0  0  0  0
 15  4  2  0  0  0  0
 16  8  2  0  0  0  0
 17 25  1  0  0  0  0
 17 28  1  0  0  0  0
 18  1  1  0  0  0  0
 19  5  2  0  0  0  0
 20 13  1  0  0  0  0
 20 18  2  0  0  0  0
 21 26  1  0  0  0  0
 22 24  2  0  0  0  0
 22 10  1  0  0  0  0
 23 21  2  0  0  0  0
 24 13  1  0  0  0  0
 25 14  1  1  0  0  0
 27  2  1  0  0  0  0
 28 29  1  0  0  0  0
 29 32  1  0  0  0  0
 30 33  1  0  0  0  0
 32 31  1  0  0  0  0
 33 31  1  0  0  0  0
 34 30  1  0  0  0  0
 34 32  1  0  0  0  0
M  END
>  <MODEL>
9

>  <REMARK>
 VINA RESULT:      -8.6      2.573      9.281
  Name = 
  3 active torsions:
  status: ('A' for Active; 'I' for Inactive)
    1  A    between atoms: C_17  and  O_28
    2  A    between atoms: O_28  and  C_29
    3  A    between atoms: C_29  and  C_32
                            x       y       z     vdW  Elec       q    Type
                         _______ _______ _______ _____ _____    ______ ____

>  <TORSDO>
F 3

$$$$
