=
 OpenBabel11112417533D

 34 41  0  0  1  0  0  0  0  0999 V2000
  189.3420  174.0970  143.6740 C   0  0  1  0  0  3  0  0  0  0  0  0
  191.6010  173.2310  143.7550 C   0  0  0  0  0  2  0  0  0  0  0  0
  184.6280  178.6750  144.6950 C   0  0  0  0  0  0  0  0  0  0  0  0
  187.7070  175.8860  143.0480 C   0  0  0  0  0  0  0  0  0  0  0  0
  186.7320  177.4080  144.8590 C   0  0  2  0  0  3  0  0  0  0  0  0
  185.5700  178.6810  146.6630 C   0  0  0  0  0  2  0  0  0  0  0  0
  184.1750  178.6630  146.1370 C   0  0  0  0  0  2  0  0  0  0  0  0
  185.1780  178.6660  142.3850 C   0  0  0  0  0  2  0  0  0  0  0  0
  190.8530  174.6330  145.3760 C   0  0  2  0  0  3  0  0  0  0  0  0
  192.7680  176.7920  146.6670 C   0  0  0  0  0  2  0  0  0  0  0  0
  188.1280  177.3640  145.4610 C   0  0  0  0  0  2  0  0  0  0  0  0
  186.0950  177.5220  142.4090 N   0  0  0  0  0  0  0  0  0  0  0  0
  190.1920  175.9680  145.7610 C   0  0  1  0  0  3  0  0  0  0  0  0
  192.7680  173.3860  144.7210 C   0  0  0  0  0  2  0  0  0  0  0  0
  186.8140  177.0180  143.3820 C   0  0  0  0  0  0  0  0  0  0  0  0
  184.1530  178.6070  143.4660 C   0  0  0  0  0  3  0  0  0  0  0  0
  193.1820  175.6740  145.6880 C   0  0  2  0  0  3  0  0  0  0  0  0
  188.5200  175.3390  143.9780 C   0  0  0  0  0  0  0  0  0  0  0  0
  186.0290  178.7120  145.2400 C   0  0  2  0  0  3  0  0  0  0  0  0
  188.7020  175.9480  145.3630 C   0  0  2  0  0  3  0  0  0  0  0  0
  188.8030  174.6040  141.2570 C   0  0  0  0  0  2  0  0  0  0  0  0
  191.7920  176.3330  147.7510 C   0  0  0  0  0  2  0  0  0  0  0  0
  187.7230  175.3980  141.7360 O   0  0  0  0  0  0  0  0  0  0  0  0
  190.3400  176.2840  147.2560 C   0  0  0  0  0  2  0  0  0  0  0  0
  192.3110  174.4010  145.7570 C   0  0  1  0  0  3  0  0  0  0  0  0
  189.1070  173.5130  142.2680 C   0  0  0  0  0  2  0  0  0  0  0  0
  190.7500  174.3980  143.9430 N   0  0  2  0  0  0  0  0  0  0  0  0
  194.5210  175.3460  145.9180 O   0  0  0  0  0  0  0  0  0  0  0  0
  195.2520  176.2940  145.1980 C   0  0  0  0  0  2  0  0  0  0  0  0
  197.3840  176.8010  143.1380 O   0  0  0  0  0  0  0  0  0  0  0  0
  196.6980  174.7420  143.9080 C   0  0  0  0  0  2  0  0  0  0  0  0
  195.5920  175.7480  143.8200 C   0  0  2  0  0  3  0  0  0  0  0  0
  197.7790  175.4590  143.1730 C   0  0  0  0  0  2  0  0  0  0  0  0
  196.0630  176.7830  142.9970 O   0  0  0  0  0  0  0  0  0  0  0  0
  1 26  1  6  0  0  0
  1 27  1  0  0  0  0
  1 18  1  0  0  0  0
  2 27  1  0  0  0  0
  2 14  1  0  0  0  0
  3 19  1  0  0  0  0
  3  7  1  0  0  0  0
  4 15  1  0  0  0  0
  4 18  2  0  0  0  0
  5 19  1  0  0  0  0
  5 11  1  6  0  0  0
  7  6  1  0  0  0  0
  8 12  1  0  0  0  0
  8 16  1  0  0  0  0
  9 25  1  0  0  0  0
  9 13  1  0  0  0  0
 10 22  1  0  0  0  0
 12 15  2  0  0  0  0
 13 24  1  0  0  0  0
 14 25  1  0  0  0  0
 15  5  1  0  0  0  0
 16  3  2  0  0  0  0
 17 25  1  0  0  0  0
 17 28  1  0  0  0  0
 17 10  1  0  0  0  0
 18 20  1  0  0  0  0
 19  6  1  0  0  0  0
 20 11  1  0  0  0  0
 20 13  1  0  0  0  0
 21 23  1  0  0  0  0
 21 26  1  0  0  0  0
 23  4  1  0  0  0  0
 24 22  1  0  0  0  0
 27  9  1  0  0  0  0
 29 28  1  0  0  0  0
 30 33  1  0  0  0  0
 32 31  1  0  0  0  0
 32 29  1  0  0  0  0
 33 31  1  0  0  0  0
 34 30  1  0  0  0  0
 34 32  1  0  0  0  0
M  END
>  <MODEL>
1

>  <REMARK>
 VINA RESULT:      -9.6      0.000      0.000
  Name = 
  3 active torsions:
  status: ('A' for Active; 'I' for Inactive)
    1  A    between atoms: C_17  and  O_28
    2  A    between atoms: O_28  and  C_29
    3  A    between atoms: C_29  and  C_32
                            x       y       z     vdW  Elec       q    Type
                         _______ _______ _______ _____ _____    ______ ____

>  <TORSDO>
F 3

$$$$
=
 OpenBabel11112417533D

 34 41  0  0  1  0  0  0  0  0999 V2000
  189.1110  174.6710  142.8470 C   0  0  1  0  0  3  0  0  0  0  0  0
  191.2980  173.9280  142.1230 C   0  0  0  0  0  2  0  0  0  0  0  0
  184.8960  178.6710  146.0810 C   0  0  0  0  0  0  0  0  0  0  0  0
  187.3810  176.4650  143.0940 C   0  0  0  0  0  0  0  0  0  0  0  0
  186.9530  177.5110  145.3900 C   0  0  2  0  0  3  0  0  0  0  0  0
  186.3430  178.3060  147.6740 C   0  0  0  0  0  2  0  0  0  0  0  0
  184.8570  178.3280  147.5530 C   0  0  0  0  0  2  0  0  0  0  0  0
  184.7900  179.1840  143.7660 C   0  0  0  0  0  2  0  0  0  0  0  0
  191.0350  174.9100  144.1530 C   0  0  2  0  0  3  0  0  0  0  0  0
  193.2500  176.8410  145.3210 C   0  0  0  0  0  2  0  0  0  0  0  0
  188.4610  177.4130  145.5680 C   0  0  0  0  0  2  0  0  0  0  0  0
  185.6690  178.1120  143.2890 N   0  0  0  0  0  0  0  0  0  0  0  0
  190.5160  176.0950  144.9850 C   0  0  1  0  0  3  0  0  0  0  0  0
  192.6860  173.9340  142.7480 C   0  0  0  0  0  2  0  0  0  0  0  0
  186.6230  177.4500  143.8960 C   0  0  0  0  0  0  0  0  0  0  0  0
  184.1020  178.8420  145.0430 C   0  0  0  0  0  3  0  0  0  0  0  0
  193.3690  175.9810  144.0460 C   0  0  2  0  0  3  0  0  0  0  0  0
  188.4140  175.7740  143.6260 C   0  0  0  0  0  0  0  0  0  0  0  0
  186.3930  178.6650  146.2230 C   0  0  2  0  0  3  0  0  0  0  0  0
  188.9740  176.0820  145.0090 C   0  0  2  0  0  3  0  0  0  0  0  0
  187.9320  175.6540  140.8380 C   0  0  0  0  0  2  0  0  0  0  0  0
  192.6040  176.1100  146.5000 C   0  0  0  0  0  2  0  0  0  0  0  0
  187.0320  176.2690  141.7520 O   0  0  0  0  0  0  0  0  0  0  0  0
  191.0720  176.0920  146.4160 C   0  0  0  0  0  2  0  0  0  0  0  0
  192.5400  174.6800  144.0650 C   0  0  1  0  0  3  0  0  0  0  0  0
  188.4940  174.3890  141.4630 C   0  0  0  0  0  2  0  0  0  0  0  0
  190.5410  174.9810  142.7850 N   0  0  2  0  0  0  0  0  0  0  0  0
  194.7170  175.6830  143.8280 O   0  0  0  0  0  0  0  0  0  0  0  0
  195.1260  175.0040  144.9780 C   0  0  0  0  0  2  0  0  0  0  0  0
  197.2040  173.4420  146.4920 O   0  0  0  0  0  0  0  0  0  0  0  0
  195.7400  172.5990  144.9270 C   0  0  0  0  0  2  0  0  0  0  0  0
  196.2030  173.9900  144.6250 C   0  0  2  0  0  3  0  0  0  0  0  0
  196.6740  172.2330  146.0300 C   0  0  0  0  0  2  0  0  0  0  0  0
  197.3430  174.2090  145.4150 O   0  0  0  0  0  0  0  0  0  0  0  0
  1 26  1  6  0  0  0
  1 18  1  0  0  0  0
  2 14  1  0  0  0  0
  2 27  1  0  0  0  0
  3 19  1  0  0  0  0
  3  7  1  0  0  0  0
  4 18  2  0  0  0  0
  4 15  1  0  0  0  0
  5 11  1  6  0  0  0
  5 19  1  0  0  0  0
  7  6  1  0  0  0  0
  8 16  1  0  0  0  0
  9 13  1  0  0  0  0
 10 22  1  0  0  0  0
 12  8  1  0  0  0  0
 12 15  2  0  0  0  0
 13 20  1  0  0  0  0
 13 24  1  0  0  0  0
 14 25  1  0  0  0  0
 15  5  1  0  0  0  0
 16  3  2  0  0  0  0
 17 25  1  0  0  0  0
 17 10  1  0  0  0  0
 18 20  1  0  0  0  0
 19  6  1  0  0  0  0
 20 11  1  0  0  0  0
 21 26  1  0  0  0  0
 21 23  1  0  0  0  0
 23  4  1  0  0  0  0
 24 22  1  0  0  0  0
 25  9  1  0  0  0  0
 27  1  1  0  0  0  0
 27  9  1  0  0  0  0
 28 17  1  0  0  0  0
 28 29  1  0  0  0  0
 31 33  1  0  0  0  0
 32 31  1  0  0  0  0
 32 29  1  0  0  0  0
 32 34  1  0  0  0  0
 33 30  1  0  0  0  0
 34 30  1  0  0  0  0
M  END
>  <MODEL>
2

>  <REMARK>
 VINA RESULT:      -9.1      1.501      1.863
  Name = 
  3 active torsions:
  status: ('A' for Active; 'I' for Inactive)
    1  A    between atoms: C_17  and  O_28
    2  A    between atoms: O_28  and  C_29
    3  A    between atoms: C_29  and  C_32
                            x       y       z     vdW  Elec       q    Type
                         _______ _______ _______ _____ _____    ______ ____

>  <TORSDO>
F 3

$$$$
=
 OpenBabel11112417533D

 34 41  0  0  1  0  0  0  0  0999 V2000
  188.7310  174.7190  142.7370 C   0  0  1  0  0  3  0  0  0  0  0  0
  190.8680  173.8170  142.0420 C   0  0  0  0  0  2  0  0  0  0  0  0
  184.7710  178.7610  146.2300 C   0  0  0  0  0  0  0  0  0  0  0  0
  187.1970  176.6590  143.1210 C   0  0  0  0  0  0  0  0  0  0  0  0
  186.7310  177.4600  145.5060 C   0  0  2  0  0  3  0  0  0  0  0  0
  186.0570  178.0360  147.8380 C   0  0  0  0  0  2  0  0  0  0  0  0
  184.5940  178.2470  147.6410 C   0  0  0  0  0  2  0  0  0  0  0  0
  184.8810  179.5620  143.9980 C   0  0  0  0  0  2  0  0  0  0  0  0
  190.5770  174.5680  144.1640 C   0  0  2  0  0  3  0  0  0  0  0  0
  192.9050  176.0670  145.6900 C   0  0  0  0  0  2  0  0  0  0  0  0
  188.2030  177.1640  145.7500 C   0  0  0  0  0  2  0  0  0  0  0  0
  185.6670  178.4600  143.4350 N   0  0  0  0  0  0  0  0  0  0  0  0
  190.1360  175.6950  145.1140 C   0  0  1  0  0  3  0  0  0  0  0  0
  192.2020  173.5830  142.7370 C   0  0  0  0  0  2  0  0  0  0  0  0
  186.4990  177.6210  144.0020 C   0  0  0  0  0  0  0  0  0  0  0  0
  184.0730  179.1500  145.1810 C   0  0  0  0  0  3  0  0  0  0  0  0
  193.0160  175.3620  144.3230 C   0  0  2  0  0  3  0  0  0  0  0  0
  188.1090  175.7920  143.6140 C   0  0  0  0  0  0  0  0  0  0  0  0
  186.2450  178.5610  146.4500 C   0  0  2  0  0  3  0  0  0  0  0  0
  188.6030  175.8610  145.0530 C   0  0  2  0  0  3  0  0  0  0  0  0
  187.8080  176.0710  140.8120 C   0  0  0  0  0  2  0  0  0  0  0  0
  192.1040  175.2790  146.7280 C   0  0  0  0  0  2  0  0  0  0  0  0
  186.9210  176.6720  141.7480 O   0  0  0  0  0  0  0  0  0  0  0  0
  190.5890  175.4520  146.5600 C   0  0  0  0  0  2  0  0  0  0  0  0
  192.0490  174.1740  144.1290 C   0  0  1  0  0  3  0  0  0  0  0  0
  188.1830  174.6820  141.2980 C   0  0  0  0  0  2  0  0  0  0  0  0
  190.1880  174.8630  142.7930 N   0  0  2  0  0  0  0  0  0  0  0  0
  194.3350  174.9360  144.1410 O   0  0  0  0  0  0  0  0  0  0  0  0
  194.9400  175.9490  143.3930 C   0  0  0  0  0  2  0  0  0  0  0  0
  197.1910  173.9860  143.7500 O   0  0  0  0  0  0  0  0  0  0  0  0
  197.2570  175.9200  142.5020 C   0  0  0  0  0  2  0  0  0  0  0  0
  196.4180  176.0330  143.7370 C   0  0  2  0  0  3  0  0  0  0  0  0
  197.9410  174.6190  142.7520 C   0  0  0  0  0  2  0  0  0  0  0  0
  196.7800  174.9550  144.5610 O   0  0  0  0  0  0  0  0  0  0  0  0
  1 26  1  6  0  0  0
  1 27  1  0  0  0  0
  1 18  1  0  0  0  0
  2 14  1  0  0  0  0
  2 27  1  0  0  0  0
  3 19  1  0  0  0  0
  3  7  1  0  0  0  0
  4 18  2  0  0  0  0
  4 15  1  0  0  0  0
  5 11  1  6  0  0  0
  5 19  1  0  0  0  0
  7  6  1  0  0  0  0
  8 16  1  0  0  0  0
  9 13  1  0  0  0  0
 10 22  1  0  0  0  0
 12  8  1  0  0  0  0
 12 15  2  0  0  0  0
 13 24  1  0  0  0  0
 14 25  1  0  0  0  0
 15  5  1  0  0  0  0
 16  3  2  0  0  0  0
 17 10  1  0  0  0  0
 18 20  1  0  0  0  0
 19  6  1  0  0  0  0
 20 13  1  0  0  0  0
 20 11  1  0  0  0  0
 21 26  1  0  0  0  0
 21 23  1  0  0  0  0
 23  4  1  0  0  0  0
 24 22  1  0  0  0  0
 25  9  1  0  0  0  0
 25 17  1  0  0  0  0
 27  9  1  0  0  0  0
 28 17  1  0  0  0  0
 29 32  1  0  0  0  0
 29 28  1  0  0  0  0
 30 34  1  0  0  0  0
 31 33  1  0  0  0  0
 31 32  1  0  0  0  0
 32 34  1  0  0  0  0
 33 30  1  0  0  0  0
M  END
>  <MODEL>
3

>  <REMARK>
 VINA RESULT:      -9.0      1.271      1.527
  Name = 
  3 active torsions:
  status: ('A' for Active; 'I' for Inactive)
    1  A    between atoms: C_17  and  O_28
    2  A    between atoms: O_28  and  C_29
    3  A    between atoms: C_29  and  C_32
                            x       y       z     vdW  Elec       q    Type
                         _______ _______ _______ _____ _____    ______ ____

>  <TORSDO>
F 3

$$$$
=
 OpenBabel11112417533D

 34 41  0  0  1  0  0  0  0  0999 V2000
  191.1500  176.5530  144.4720 C   0  0  1  0  0  3  0  0  0  0  0  0
  192.7630  174.9810  143.5850 C   0  0  0  0  0  2  0  0  0  0  0  0
  185.0160  178.7740  145.7630 C   0  0  0  0  0  0  0  0  0  0  0  0
  189.1450  177.0690  145.8800 C   0  0  0  0  0  0  0  0  0  0  0  0
  186.8910  177.5340  144.7610 C   0  0  2  0  0  3  0  0  0  0  0  0
  184.7830  178.2730  143.6510 C   0  0  0  0  0  2  0  0  0  0  0  0
  184.4110  179.4160  144.5350 C   0  0  0  0  0  2  0  0  0  0  0  0
  185.9420  177.9140  147.7730 C   0  0  0  0  0  2  0  0  0  0  0  0
  190.7600  175.2690  142.5570 C   0  0  2  0  0  3  0  0  0  0  0  0
  189.2450  172.8270  141.2400 C   0  0  0  0  0  2  0  0  0  0  0  0
  187.2950  176.4310  143.7940 C   0  0  0  0  0  2  0  0  0  0  0  0
  187.2870  177.6330  147.2620 N   0  0  0  0  0  0  0  0  0  0  0  0
  189.2250  175.3070  142.6510 C   0  0  1  0  0  3  0  0  0  0  0  0
  192.7930  174.0490  142.3810 C   0  0  0  0  0  2  0  0  0  0  0  0
  187.7120  177.3940  146.0460 C   0  0  0  0  0  0  0  0  0  0  0  0
  185.2630  179.0170  147.0350 C   0  0  0  0  0  3  0  0  0  0  0  0
  190.6750  172.8100  141.8170 C   0  0  2  0  0  3  0  0  0  0  0  0
  189.6570  176.7600  144.6680 C   0  0  0  0  0  0  0  0  0  0  0  0
  185.3680  177.6220  144.8640 C   0  0  2  0  0  3  0  0  0  0  0  0
  188.7790  176.5550  143.4400 C   0  0  2  0  0  3  0  0  0  0  0  0
  191.2320  176.3940  146.9930 C   0  0  0  0  0  2  0  0  0  0  0  0
  188.9310  174.0700  140.4060 C   0  0  0  0  0  2  0  0  0  0  0  0
  189.9750  177.0590  147.0080 O   0  0  0  0  0  0  0  0  0  0  0  0
  188.5550  175.2810  141.2700 C   0  0  0  0  0  2  0  0  0  0  0  0
  191.4170  174.1610  141.7430 C   0  0  1  0  0  3  0  0  0  0  0  0
  191.9920  176.7900  145.7400 C   0  0  0  0  0  2  0  0  0  0  0  0
  191.3600  175.2280  143.8840 N   0  0  2  0  0  0  0  0  0  0  0  0
  191.4150  171.8240  141.1580 O   0  0  0  0  0  0  0  0  0  0  0  0
  190.4750  170.8620  140.7790 C   0  0  0  0  0  2  0  0  0  0  0  0
  189.7290  171.5150  137.9390 O   0  0  0  0  0  0  0  0  0  0  0  0
  191.8600  171.1660  138.7410 C   0  0  0  0  0  2  0  0  0  0  0  0
  190.8230  170.3140  139.4040 C   0  0  2  0  0  3  0  0  0  0  0  0
  191.0710  171.7200  137.6020 C   0  0  0  0  0  2  0  0  0  0  0  0
  189.6910  170.3480  138.5740 O   0  0  0  0  0  0  0  0  0  0  0  0
  1 18  1  0  0  0  0
  1 26  1  1  0  0  0
  2 27  1  0  0  0  0
  3 16  2  0  0  0  0
  4 15  1  0  0  0  0
  4 23  1  0  0  0  0
  5 11  1  6  0  0  0
  5 19  1  0  0  0  0
  5 15  1  0  0  0  0
  6  7  1  0  0  0  0
  6 19  1  0  0  0  0
  7  3  1  0  0  0  0
  9 13  1  0  0  0  0
  9 27  1  0  0  0  0
 10 17  1  0  0  0  0
 12  8  1  0  0  0  0
 13 20  1  0  0  0  0
 14  2  1  0  0  0  0
 15 12  2  0  0  0  0
 16  8  1  0  0  0  0
 18  4  2  0  0  0  0
 19  3  1  0  0  0  0
 20 11  1  0  0  0  0
 20 18  1  0  0  0  0
 21 23  1  0  0  0  0
 22 10  1  0  0  0  0
 22 24  1  0  0  0  0
 24 13  1  0  0  0  0
 25 17  1  0  0  0  0
 25 14  1  0  0  0  0
 25  9  1  0  0  0  0
 26 21  1  0  0  0  0
 27  1  1  0  0  0  0
 28 17  1  0  0  0  0
 29 28  1  0  0  0  0
 30 34  1  0  0  0  0
 31 32  1  0  0  0  0
 32 29  1  0  0  0  0
 33 30  1  0  0  0  0
 33 31  1  0  0  0  0
 34 32  1  0  0  0  0
M  END
>  <MODEL>
4

>  <REMARK>
 VINA RESULT:      -8.5      2.939      5.516
  Name = 
  3 active torsions:
  status: ('A' for Active; 'I' for Inactive)
    1  A    between atoms: C_17  and  O_28
    2  A    between atoms: O_28  and  C_29
    3  A    between atoms: C_29  and  C_32
                            x       y       z     vdW  Elec       q    Type
                         _______ _______ _______ _____ _____    ______ ____

>  <TORSDO>
F 3

$$$$
=
 OpenBabel11112417533D

 34 41  0  0  1  0  0  0  0  0999 V2000
  189.7260  174.8740  142.1630 C   0  0  1  0  0  3  0  0  0  0  0  0
  187.3800  175.4700  142.2060 C   0  0  0  0  0  2  0  0  0  0  0  0
  195.5940  173.3880  144.9180 C   0  0  0  0  0  0  0  0  0  0  0  0
  191.6220  173.3990  142.8710 C   0  0  0  0  0  0  0  0  0  0  0  0
  193.3050  174.2370  144.6070 C   0  0  2  0  0  3  0  0  0  0  0  0
  195.0950  175.1740  146.0690 C   0  0  0  0  0  2  0  0  0  0  0  0
  196.3030  174.6430  145.3740 C   0  0  0  0  0  2  0  0  0  0  0  0
  194.6170  171.3830  144.1060 C   0  0  0  0  0  2  0  0  0  0  0  0
  188.7790  176.2070  143.8350 C   0  0  2  0  0  3  0  0  0  0  0  0
  187.8020  176.4420  146.8320 C   0  0  0  0  0  2  0  0  0  0  0  0
  192.0940  174.8630  145.2830 C   0  0  0  0  0  2  0  0  0  0  0  0
  193.4520  171.9860  143.4510 N   0  0  0  0  0  0  0  0  0  0  0  0
  189.8340  175.8880  144.9080 C   0  0  1  0  0  3  0  0  0  0  0  0
  186.5120  176.3120  143.1300 C   0  0  0  0  0  2  0  0  0  0  0  0
  192.8310  173.1190  143.6750 C   0  0  0  0  0  0  0  0  0  0  0  0
  195.7810  172.3100  144.1820 C   0  0  0  0  0  3  0  0  0  0  0  0
  186.9210  176.1210  145.6070 C   0  0  2  0  0  3  0  0  0  0  0  0
  190.8920  174.5190  143.0710 C   0  0  0  0  0  0  0  0  0  0  0  0
  194.3900  173.9270  145.6390 C   0  0  2  0  0  3  0  0  0  0  0  0
  191.1570  175.4670  144.2340 C   0  0  2  0  0  3  0  0  0  0  0  0
  189.8930  172.4750  141.3850 C   0  0  0  0  0  2  0  0  0  0  0  0
  188.8150  177.5600  146.5870 C   0  0  0  0  0  2  0  0  0  0  0  0
  191.2170  172.4700  141.9050 O   0  0  0  0  0  0  0  0  0  0  0  0
  190.0730  177.0690  145.8600 C   0  0  0  0  0  2  0  0  0  0  0  0
  187.4170  176.7280  144.2780 C   0  0  1  0  0  3  0  0  0  0  0  0
  189.5150  173.8930  140.9940 C   0  0  0  0  0  2  0  0  0  0  0  0
  188.5310  175.0460  142.9920 N   0  0  2  0  0  0  0  0  0  0  0  0
  185.6150  176.5470  145.8660 O   0  0  0  0  0  0  0  0  0  0  0  0
  185.7120  177.3170  147.0280 C   0  0  0  0  0  2  0  0  0  0  0  0
  185.9120  179.6420  145.1300 O   0  0  0  0  0  0  0  0  0  0  0  0
  183.9840  178.5330  145.7250 C   0  0  0  0  0  2  0  0  0  0  0  0
  184.9820  178.6370  146.8360 C   0  0  2  0  0  3  0  0  0  0  0  0
  184.5830  179.4690  144.7310 C   0  0  0  0  0  2  0  0  0  0  0  0
  185.8920  179.6370  146.4600 O   0  0  0  0  0  0  0  0  0  0  0  0
  1 26  1  6  0  0  0
  1 27  1  0  0  0  0
  1 18  1  0  0  0  0
  2 27  1  0  0  0  0
  2 14  1  0  0  0  0
  3  7  1  0  0  0  0
  3 19  1  0  0  0  0
  4 18  2  0  0  0  0
  4 15  1  0  0  0  0
  5 11  1  1  0  0  0
  5 19  1  0  0  0  0
  7  6  1  0  0  0  0
  8 16  1  0  0  0  0
  9 25  1  0  0  0  0
  9 13  1  0  0  0  0
 12 15  2  0  0  0  0
 12  8  1  0  0  0  0
 13 24  1  0  0  0  0
 14 25  1  0  0  0  0
 15  5  1  0  0  0  0
 16  3  2  0  0  0  0
 17 28  1  0  0  0  0
 17 10  1  0  0  0  0
 18 20  1  0  0  0  0
 19  6  1  0  0  0  0
 20 13  1  0  0  0  0
 20 11  1  0  0  0  0
 21 23  1  0  0  0  0
 22 10  1  0  0  0  0
 23  4  1  0  0  0  0
 24 22  1  0  0  0  0
 25 17  1  0  0  0  0
 26 21  1  0  0  0  0
 27  9  1  0  0  0  0
 28 29  1  0  0  0  0
 30 34  1  0  0  0  0
 31 32  1  0  0  0  0
 32 29  1  0  0  0  0
 33 30  1  0  0  0  0
 33 31  1  0  0  0  0
 34 32  1  0  0  0  0
M  END
>  <MODEL>
5

>  <REMARK>
 VINA RESULT:      -8.4      2.664      8.147
  Name = 
  3 active torsions:
  status: ('A' for Active; 'I' for Inactive)
    1  A    between atoms: C_17  and  O_28
    2  A    between atoms: O_28  and  C_29
    3  A    between atoms: C_29  and  C_32
                            x       y       z     vdW  Elec       q    Type
                         _______ _______ _______ _____ _____    ______ ____

>  <TORSDO>
F 3

$$$$
=
 OpenBabel11112417533D

 34 41  0  0  1  0  0  0  0  0999 V2000
  190.5520  173.6210  141.7900 C   0  0  1  0  0  3  0  0  0  0  0  0
  188.3930  174.6070  141.3150 C   0  0  0  0  0  2  0  0  0  0  0  0
  195.9600  172.5090  145.4980 C   0  0  0  0  0  0  0  0  0  0  0  0
  192.0810  172.3200  143.2860 C   0  0  0  0  0  0  0  0  0  0  0  0
  193.9100  173.5350  144.6010 C   0  0  2  0  0  3  0  0  0  0  0  0
  195.8650  174.6850  145.6390 C   0  0  0  0  0  2  0  0  0  0  0  0
  196.9260  173.6660  145.3930 C   0  0  0  0  0  2  0  0  0  0  0  0
  194.5660  170.5900  145.6080 C   0  0  0  0  0  2  0  0  0  0  0  0
  189.9230  175.7400  142.5530 C   0  0  2  0  0  3  0  0  0  0  0  0
  189.0270  177.5470  144.9870 C   0  0  0  0  0  2  0  0  0  0  0  0
  192.8670  174.6270  144.7850 C   0  0  0  0  0  2  0  0  0  0  0  0
  193.5600  171.0250  144.6350 N   0  0  0  0  0  0  0  0  0  0  0  0
  190.8850  175.7690  143.7530 C   0  0  1  0  0  3  0  0  0  0  0  0
  187.7320  175.9360  141.6530 C   0  0  0  0  0  2  0  0  0  0  0  0
  193.2020  172.2250  144.2470 C   0  0  0  0  0  0  0  0  0  0  0  0
  195.9050  171.1980  145.3650 C   0  0  0  0  0  3  0  0  0  0  0  0
  188.0940  176.8630  143.9660 C   0  0  2  0  0  3  0  0  0  0  0  0
  191.6150  173.5190  142.8720 C   0  0  0  0  0  0  0  0  0  0  0  0
  194.9040  173.5460  145.7640 C   0  0  2  0  0  3  0  0  0  0  0  0
  192.0820  174.8320  143.4870 C   0  0  2  0  0  3  0  0  0  0  0  0
  190.1890  171.1580  142.2280 C   0  0  0  0  0  2  0  0  0  0  0  0
  190.2590  178.1970  144.3580 C   0  0  0  0  0  2  0  0  0  0  0  0
  191.4810  171.1420  142.8230 O   0  0  0  0  0  0  0  0  0  0  0  0
  191.3790  177.1870  144.0710 C   0  0  0  0  0  2  0  0  0  0  0  0
  188.7090  176.6610  142.5650 C   0  0  1  0  0  3  0  0  0  0  0  0
  190.1290  172.2660  141.1910 C   0  0  0  0  0  2  0  0  0  0  0  0
  189.4250  174.3910  142.3200 N   0  0  2  0  0  0  0  0  0  0  0  0
  186.9140  177.6050  143.8660 O   0  0  0  0  0  0  0  0  0  0  0  0
  185.9470  176.8310  144.5110 C   0  0  0  0  0  2  0  0  0  0  0  0
  185.5540  177.6950  147.3660 O   0  0  0  0  0  0  0  0  0  0  0  0
  185.5920  179.0720  145.5200 C   0  0  0  0  0  2  0  0  0  0  0  0
  184.9750  177.7330  145.2560 C   0  0  2  0  0  3  0  0  0  0  0  0
  185.6870  179.0410  147.0080 C   0  0  0  0  0  2  0  0  0  0  0  0
  184.6750  177.1810  146.5110 O   0  0  0  0  0  0  0  0  0  0  0  0
  1 26  1  1  0  0  0
  1 27  1  0  0  0  0
  1 18  1  0  0  0  0
  2 14  1  0  0  0  0
  2 27  1  0  0  0  0
  3 19  1  0  0  0  0
  4 15  1  0  0  0  0
  5 11  1  1  0  0  0
  5 19  1  0  0  0  0
  6 19  1  0  0  0  0
  7  3  1  0  0  0  0
  7  6  1  0  0  0  0
  9 25  1  0  0  0  0
  9 13  1  0  0  0  0
 12  8  1  0  0  0  0
 13 24  1  0  0  0  0
 14 25  1  0  0  0  0
 15  5  1  0  0  0  0
 15 12  2  0  0  0  0
 16  3  2  0  0  0  0
 16  8  1  0  0  0  0
 17 10  1  0  0  0  0
 18  4  2  0  0  0  0
 18 20  1  0  0  0  0
 20 13  1  0  0  0  0
 20 11  1  0  0  0  0
 21 23  1  0  0  0  0
 22 10  1  0  0  0  0
 23  4  1  0  0  0  0
 24 22  1  0  0  0  0
 25 17  1  0  0  0  0
 26 21  1  0  0  0  0
 27  9  1  0  0  0  0
 28 17  1  0  0  0  0
 28 29  1  0  0  0  0
 29 32  1  0  0  0  0
 31 33  1  0  0  0  0
 32 31  1  0  0  0  0
 32 34  1  0  0  0  0
 33 30  1  0  0  0  0
 34 30  1  0  0  0  0
M  END
>  <MODEL>
6

>  <REMARK>
 VINA RESULT:      -8.4      2.923      8.409
  Name = 
  3 active torsions:
  status: ('A' for Active; 'I' for Inactive)
    1  A    between atoms: C_17  and  O_28
    2  A    between atoms: O_28  and  C_29
    3  A    between atoms: C_29  and  C_32
                            x       y       z     vdW  Elec       q    Type
                         _______ _______ _______ _____ _____    ______ ____

>  <TORSDO>
F 3

$$$$
=
 OpenBabel11112417533D

 34 41  0  0  1  0  0  0  0  0999 V2000
  191.0910  176.4840  144.2190 C   0  0  1  0  0  3  0  0  0  0  0  0
  192.6240  174.8740  143.2630 C   0  0  0  0  0  2  0  0  0  0  0  0
  185.0820  178.8000  145.8810 C   0  0  0  0  0  0  0  0  0  0  0  0
  189.1950  177.0570  145.7510 C   0  0  0  0  0  0  0  0  0  0  0  0
  186.8710  177.5150  144.7820 C   0  0  2  0  0  3  0  0  0  0  0  0
  184.6960  178.2460  143.8050 C   0  0  0  0  0  2  0  0  0  0  0  0
  184.3970  179.4150  144.6820 C   0  0  0  0  0  2  0  0  0  0  0  0
  186.1400  177.9830  147.8420 C   0  0  0  0  0  2  0  0  0  0  0  0
  190.5550  175.1550  142.3710 C   0  0  2  0  0  3  0  0  0  0  0  0
  188.9300  172.6950  141.2300 C   0  0  0  0  0  2  0  0  0  0  0  0
  187.1960  176.3830  143.8190 C   0  0  0  0  0  2  0  0  0  0  0  0
  187.4440  177.6750  147.2460 N   0  0  0  0  0  0  0  0  0  0  0  0
  189.0310  175.2100  142.5730 C   0  0  1  0  0  3  0  0  0  0  0  0
  192.5600  173.9110  142.0850 C   0  0  0  0  0  2  0  0  0  0  0  0
  187.7790  177.4000  146.0090 C   0  0  0  0  0  0  0  0  0  0  0  0
  185.4200  179.0730  147.1260 C   0  0  0  0  0  3  0  0  0  0  0  0
  190.3980  172.6780  141.7050 C   0  0  2  0  0  3  0  0  0  0  0  0
  189.6170  176.7110  144.5140 C   0  0  0  0  0  0  0  0  0  0  0  0
  185.3600  177.6200  144.9900 C   0  0  2  0  0  3  0  0  0  0  0  0
  188.6520  176.4830  143.3580 C   0  0  2  0  0  3  0  0  0  0  0  0
  191.3500  176.3900  146.7320 C   0  0  0  0  0  2  0  0  0  0  0  0
  188.5680  173.9190  140.3880 C   0  0  0  0  0  2  0  0  0  0  0  0
  190.1020  177.0680  146.8180 O   0  0  0  0  0  0  0  0  0  0  0  0
  188.2640  175.1550  141.2430 C   0  0  0  0  0  2  0  0  0  0  0  0
  191.1440  174.0190  141.5430 C   0  0  1  0  0  3  0  0  0  0  0  0
  192.0230  176.7460  145.4170 C   0  0  0  0  0  2  0  0  0  0  0  0
  191.2470  175.1430  143.6530 N   0  0  2  0  0  0  0  0  0  0  0  0
  191.0810  171.6680  141.0220 O   0  0  0  0  0  0  0  0  0  0  0  0
  190.9890  170.5470  141.8510 C   0  0  0  0  0  2  0  0  0  0  0  0
  192.6910  169.8230  144.2230 O   0  0  0  0  0  0  0  0  0  0  0  0
  192.2640  168.4880  142.3950 C   0  0  0  0  0  2  0  0  0  0  0  0
  192.3680  169.9440  142.0620 C   0  0  2  0  0  3  0  0  0  0  0  0
  192.7670  168.4920  143.7990 C   0  0  0  0  0  2  0  0  0  0  0  0
  192.9960  170.5580  143.1580 O   0  0  0  0  0  0  0  0  0  0  0  0
  1 18  1  0  0  0  0
  1 26  1  1  0  0  0
  2 27  1  0  0  0  0
  3 16  2  0  0  0  0
  4 15  1  0  0  0  0
  4 23  1  0  0  0  0
  5 11  1  6  0  0  0
  5 19  1  0  0  0  0
  5 15  1  0  0  0  0
  6  7  1  0  0  0  0
  6 19  1  0  0  0  0
  7  3  1  0  0  0  0
  9 13  1  0  0  0  0
  9 27  1  0  0  0  0
 10 17  1  0  0  0  0
 12  8  1  0  0  0  0
 13 20  1  0  0  0  0
 14  2  1  0  0  0  0
 15 12  2  0  0  0  0
 16  8  1  0  0  0  0
 18  4  2  0  0  0  0
 19  3  1  0  0  0  0
 20 11  1  0  0  0  0
 20 18  1  0  0  0  0
 21 23  1  0  0  0  0
 22 10  1  0  0  0  0
 22 24  1  0  0  0  0
 24 13  1  0  0  0  0
 25 17  1  0  0  0  0
 25 14  1  0  0  0  0
 25  9  1  0  0  0  0
 26 21  1  0  0  0  0
 27  1  1  0  0  0  0
 28 17  1  0  0  0  0
 28 29  1  0  0  0  0
 29 32  1  0  0  0  0
 31 33  1  0  0  0  0
 32 31  1  0  0  0  0
 32 34  1  0  0  0  0
 33 30  1  0  0  0  0
 34 30  1  0  0  0  0
M  END
>  <MODEL>
7

>  <REMARK>
 VINA RESULT:      -8.3      2.926      5.152
  Name = 
  3 active torsions:
  status: ('A' for Active; 'I' for Inactive)
    1  A    between atoms: C_17  and  O_28
    2  A    between atoms: O_28  and  C_29
    3  A    between atoms: C_29  and  C_32
                            x       y       z     vdW  Elec       q    Type
                         _______ _______ _______ _____ _____    ______ ____

>  <TORSDO>
F 3

$$$$
=
 OpenBabel11112417533D

 34 41  0  0  1  0  0  0  0  0999 V2000
  192.6880  175.6790  145.6930 C   0  0  1  0  0  3  0  0  0  0  0  0
  190.8060  176.4450  147.0110 C   0  0  0  0  0  2  0  0  0  0  0  0
  195.9550  174.4750  140.0280 C   0  0  0  0  0  0  0  0  0  0  0  0
  194.4060  176.0520  143.9110 C   0  0  0  0  0  0  0  0  0  0  0  0
  194.1420  174.9180  141.6330 C   0  0  2  0  0  3  0  0  0  0  0  0
  194.0280  173.5770  139.5330 C   0  0  0  0  0  2  0  0  0  0  0  0
  195.4630  173.1960  139.3890 C   0  0  0  0  0  2  0  0  0  0  0  0
  196.8830  176.4160  141.0310 C   0  0  0  0  0  2  0  0  0  0  0  0
  190.4710  175.5150  144.9670 C   0  0  2  0  0  3  0  0  0  0  0  0
  188.2010  176.5890  143.0470 C   0  0  0  0  0  2  0  0  0  0  0  0
  192.6610  175.2170  141.8040 C   0  0  0  0  0  2  0  0  0  0  0  0
  196.1110  176.3780  142.2770 N   0  0  0  0  0  0  0  0  0  0  0  0
  190.7980  175.4840  143.4640 C   0  0  1  0  0  3  0  0  0  0  0  0
  189.2970  176.4500  146.8100 C   0  0  0  0  0  2  0  0  0  0  0  0
  194.9460  175.8420  142.5500 C   0  0  0  0  0  0  0  0  0  0  0  0
  197.0650  175.0680  140.4230 C   0  0  0  0  0  3  0  0  0  0  0  0
  188.4300  177.0080  144.5130 C   0  0  2  0  0  3  0  0  0  0  0  0
  193.1900  175.5780  144.2620 C   0  0  0  0  0  0  0  0  0  0  0  0
  194.5050  174.8540  140.1480 C   0  0  2  0  0  3  0  0  0  0  0  0
  192.2330  174.9600  143.2510 C   0  0  2  0  0  3  0  0  0  0  0  0
  194.5650  177.3440  145.9980 C   0  0  0  0  0  2  0  0  0  0  0  0
  188.3360  175.0840  142.8070 C   0  0  0  0  0  2  0  0  0  0  0  0
  195.1630  176.7790  144.8380 O   0  0  0  0  0  0  0  0  0  0  0  0
  189.7970  174.6370  142.6660 C   0  0  0  0  0  2  0  0  0  0  0  0
  189.0680  175.9210  145.4040 C   0  0  1  0  0  3  0  0  0  0  0  0
  193.7010  176.2960  146.6760 C   0  0  0  0  0  2  0  0  0  0  0  0
  191.4000  176.3780  145.6830 N   0  0  2  0  0  0  0  0  0  0  0  0
  187.2100  177.4160  145.0610 O   0  0  0  0  0  0  0  0  0  0  0  0
  186.7260  178.3860  144.1800 C   0  0  0  0  0  2  0  0  0  0  0  0
  183.7990  178.6670  144.8110 O   0  0  0  0  0  0  0  0  0  0  0  0
  185.5390  178.8760  146.3050 C   0  0  0  0  0  2  0  0  0  0  0  0
  185.8620  179.3840  144.9340 C   0  0  2  0  0  3  0  0  0  0  0  0
  184.0650  178.6810  146.1840 C   0  0  0  0  0  2  0  0  0  0  0  0
  184.6350  179.5500  144.2730 O   0  0  0  0  0  0  0  0  0  0  0  0
  1 26  1  1  0  0  0
  3 19  1  0  0  0  0
  3 16  2  0  0  0  0
  4 18  2  0  0  0  0
  4 23  1  0  0  0  0
  5 11  1  6  0  0  0
  5 15  1  0  0  0  0
  6 19  1  0  0  0  0
  7  6  1  0  0  0  0
  7  3  1  0  0  0  0
  8 12  1  0  0  0  0
  9 25  1  0  0  0  0
  9 27  1  0  0  0  0
 10 17  1  0  0  0  0
 11 20  1  0  0  0  0
 12 15  2  0  0  0  0
 13  9  1  0  0  0  0
 14  2  1  0  0  0  0
 15  4  1  0  0  0  0
 16  8  1  0  0  0  0
 17 28  1  0  0  0  0
 17 25  1  0  0  0  0
 18  1  1  0  0  0  0
 19  5  1  0  0  0  0
 20 13  1  0  0  0  0
 20 18  1  0  0  0  0
 21 26  1  0  0  0  0
 22 10  1  0  0  0  0
 23 21  1  0  0  0  0
 24 22  1  0  0  0  0
 24 13  1  0  0  0  0
 25 14  1  0  0  0  0
 27  1  1  0  0  0  0
 27  2  1  0  0  0  0
 29 32  1  0  0  0  0
 29 28  1  0  0  0  0
 30 33  1  0  0  0  0
 32 31  1  0  0  0  0
 33 31  1  0  0  0  0
 34 30  1  0  0  0  0
 34 32  1  0  0  0  0
M  END
>  <MODEL>
8

>  <REMARK>
 VINA RESULT:      -8.3      2.795      8.834
  Name = 
  3 active torsions:
  status: ('A' for Active; 'I' for Inactive)
    1  A    between atoms: C_17  and  O_28
    2  A    between atoms: O_28  and  C_29
    3  A    between atoms: C_29  and  C_32
                            x       y       z     vdW  Elec       q    Type
                         _______ _______ _______ _____ _____    ______ ____

>  <TORSDO>
F 3

$$$$
=
 OpenBabel11112417533D

 34 41  0  0  1  0  0  0  0  0999 V2000
  191.6280  176.3880  145.2060 C   0  0  1  0  0  3  0  0  0  0  0  0
  193.2930  174.7160  144.6640 C   0  0  0  0  0  2  0  0  0  0  0  0
  185.4560  178.8500  145.4640 C   0  0  0  0  0  0  0  0  0  0  0  0
  189.4660  177.0550  146.2780 C   0  0  0  0  0  0  0  0  0  0  0  0
  187.4070  177.4940  144.8230 C   0  0  2  0  0  3  0  0  0  0  0  0
  185.5010  178.2040  143.3800 C   0  0  0  0  0  2  0  0  0  0  0  0
  185.0500  179.4160  144.1220 C   0  0  0  0  0  2  0  0  0  0  0  0
  186.0620  178.1140  147.6380 C   0  0  0  0  0  2  0  0  0  0  0  0
  191.4640  174.9790  143.3470 C   0  0  2  0  0  3  0  0  0  0  0  0
  190.0620  172.4880  141.9970 C   0  0  0  0  0  2  0  0  0  0  0  0
  187.9020  176.3140  144.0000 C   0  0  0  0  0  2  0  0  0  0  0  0
  187.4550  177.7630  147.3430 N   0  0  0  0  0  0  0  0  0  0  0  0
  189.9320  175.0620  143.2200 C   0  0  1  0  0  3  0  0  0  0  0  0
  193.4570  173.7000  143.5430 C   0  0  0  0  0  2  0  0  0  0  0  0
  188.0360  177.4260  146.2180 C   0  0  0  0  0  0  0  0  0  0  0  0
  185.5310  179.1770  146.7390 C   0  0  0  0  0  3  0  0  0  0  0  0
  191.3960  172.4760  142.7700 C   0  0  2  0  0  3  0  0  0  0  0  0
  190.1310  176.6460  145.1740 C   0  0  0  0  0  0  0  0  0  0  0  0
  185.8880  177.6270  144.7040 C   0  0  2  0  0  3  0  0  0  0  0  0
  189.4250  176.3750  143.8520 C   0  0  2  0  0  3  0  0  0  0  0  0
  191.3530  176.4090  147.7180 C   0  0  0  0  0  2  0  0  0  0  0  0
  189.9100  173.6750  141.0450 C   0  0  0  0  0  2  0  0  0  0  0  0
  190.1300  177.1050  147.5110 O   0  0  0  0  0  0  0  0  0  0  0  0
  189.4600  174.9540  141.7630 C   0  0  0  0  0  2  0  0  0  0  0  0
  192.1890  173.7990  142.7100 C   0  0  1  0  0  3  0  0  0  0  0  0
  192.2940  176.6950  146.5610 C   0  0  0  0  0  2  0  0  0  0  0  0
  191.8710  175.0190  144.7440 N   0  0  2  0  0  0  0  0  0  0  0  0
  192.1860  171.4270  142.2910 O   0  0  0  0  0  0  0  0  0  0  0  0
  191.9410  170.3650  143.1650 C   0  0  0  0  0  2  0  0  0  0  0  0
  194.4470  170.5300  144.8220 O   0  0  0  0  0  0  0  0  0  0  0  0
  193.1130  168.6720  144.5530 C   0  0  0  0  0  2  0  0  0  0  0  0
  193.2010  169.5290  143.3280 C   0  0  2  0  0  3  0  0  0  0  0  0
  194.1910  169.2770  145.3880 C   0  0  0  0  0  2  0  0  0  0  0  0
  194.3120  170.3670  143.5090 O   0  0  0  0  0  0  0  0  0  0  0  0
  1 26  1  1  0  0  0
  2 27  1  0  0  0  0
  3 16  2  0  0  0  0
  4 23  1  0  0  0  0
  5 11  1  6  0  0  0
  5 15  1  0  0  0  0
  6  7  1  0  0  0  0
  6 19  1  0  0  0  0
  7  3  1  0  0  0  0
  9 27  1  0  0  0  0
 10 17  1  0  0  0  0
 12  8  1  0  0  0  0
 13  9  1  0  0  0  0
 13 20  1  0  0  0  0
 14  2  1  0  0  0  0
 15  4  1  0  0  0  0
 15 12  2  0  0  0  0
 16  8  1  0  0  0  0
 18  1  1  0  0  0  0
 18  4  2  0  0  0  0
 19  5  1  0  0  0  0
 19  3  1  0  0  0  0
 20 11  1  0  0  0  0
 20 18  1  0  0  0  0
 22 24  1  0  0  0  0
 22 10  1  0  0  0  0
 23 21  1  0  0  0  0
 24 13  1  0  0  0  0
 25 17  1  0  0  0  0
 25  9  1  0  0  0  0
 25 14  1  0  0  0  0
 26 21  1  0  0  0  0
 27  1  1  0  0  0  0
 28 17  1  0  0  0  0
 28 29  1  0  0  0  0
 29 32  1  0  0  0  0
 30 33  1  0  0  0  0
 31 33  1  0  0  0  0
 32 34  1  0  0  0  0
 32 31  1  0  0  0  0
 34 30  1  0  0  0  0
M  END
>  <MODEL>
9

>  <REMARK>
 VINA RESULT:      -8.1      2.790      4.818
  Name = 
  3 active torsions:
  status: ('A' for Active; 'I' for Inactive)
    1  A    between atoms: C_17  and  O_28
    2  A    between atoms: O_28  and  C_29
    3  A    between atoms: C_29  and  C_32
                            x       y       z     vdW  Elec       q    Type
                         _______ _______ _______ _____ _____    ______ ____

>  <TORSDO>
F 3

$$$$
