=
 OpenBabel10262421303D

 32 36  0  0  1  0  0  0  0  0999 V2000
  187.3830  178.0320  142.2180 C   0  0  0  0  0  0  0  0  0  0  0  0
  183.6160  179.1300  145.1190 C   0  0  0  0  0  3  0  0  0  0  0  0
  184.3460  178.8310  146.2020 C   0  0  0  0  0  3  0  0  0  0  0  0
  189.6630  177.5110  143.2020 C   0  0  2  0  0  3  0  0  0  0  0  0
  190.1960  176.7800  144.4230 C   0  0  1  0  0  3  0  0  0  0  0  0
  187.1240  178.0070  139.6930 C   0  0  2  0  0  3  0  0  0  0  0  0
  185.1210  178.5420  141.1510 C   0  0  0  0  0  2  0  0  0  0  0  0
  190.7530  176.9350  146.6140 C   0  0  0  0  0  0  0  0  0  0  0  0
  183.9170  178.4810  143.7950 C   0  0  0  0  0  2  0  0  0  0  0  0
  185.9990  178.3040  142.3560 C   0  0  0  0  0  0  0  0  0  0  0  0
  185.4020  178.2540  143.6270 C   0  0  0  0  0  0  0  0  0  0  0  0
  187.5420  177.6760  144.6430 C   0  0  0  0  0  0  0  0  0  0  0  0
  191.9030  176.3260  145.8920 C   0  0  0  0  0  2  0  0  0  0  0  0
  185.8960  178.9070  139.8810 C   0  0  2  0  0  3  0  0  0  0  0  0
  191.6400  176.5660  144.4690 N   0  0  0  0  0  2  0  0  0  0  0  0
  185.4790  177.8420  146.1070 C   0  0  0  0  0  2  0  0  0  0  0  0
  186.1700  177.9390  144.7650 C   0  0  0  0  0  0  0  0  0  0  0  0
  188.3290  177.2560  145.8790 C   0  0  0  0  0  2  0  0  0  0  0  0
  188.0680  178.1690  140.8790 C   0  0  0  0  0  2  0  0  0  0  0  0
  190.3080  178.7420  143.0500 O   0  0  0  0  0  1  0  0  0  0  0  0
  190.6530  176.9960  147.8280 O   0  0  0  0  0  0  0  0  0  0  0  0
  188.1600  177.7290  143.3560 C   0  0  0  0  0  0  0  0  0  0  0  0
  189.8050  177.5290  145.6620 C   0  0  2  0  0  3  0  0  0  0  0  0
  189.3620  178.4420  138.5750 C   0  0  0  0  0  1  0  0  0  0  0  0
  187.8610  178.2830  138.3810 C   0  0  0  0  0  2  0  0  0  0  0  0
  185.0630  178.9840  138.7410 O   0  0  0  0  0  0  0  0  0  0  0  0
  183.9060  179.7160  139.0610 C   0  0  0  0  0  2  0  0  0  0  0  0
  182.6920  179.0180  138.4870 C   0  0  0  0  0  2  0  0  0  0  0  0
  181.8620  178.5240  139.5710 N   0  0  0  0  0  2  0  0  0  0  0  0
  181.4920  177.1580  139.2410 C   0  0  1  0  0  3  0  0  0  0  0  0
  182.6510  176.2340  139.5490 C   0  0  0  0  0  1  0  0  0  0  0  0
  180.3830  176.7740  139.9970 O   0  0  0  0  0  1  0  0  0  0  0  0
  1 10  2  0  0  0  0
  1 22  1  0  0  0  0
  2  3  2  0  0  0  0
  4 20  1  1  0  0  0
  4 22  1  0  0  0  0
  4  5  1  0  0  0  0
  5 15  1  6  0  0  0
  5 23  1  0  0  0  0
  6 25  1  6  0  0  0
  6 14  1  0  0  0  0
  6 19  1  0  0  0  0
  7 10  1  0  0  0  0
  8 21  2  0  0  0  0
  9  2  1  0  0  0  0
 10 11  1  0  0  0  0
 11  9  1  0  0  0  0
 11 17  2  0  0  0  0
 12 17  1  0  0  0  0
 12 18  1  0  0  0  0
 13  8  1  0  0  0  0
 14 26  1  6  0  0  0
 14  7  1  0  0  0  0
 15 13  1  0  0  0  0
 16  3  1  0  0  0  0
 17 16  1  0  0  0  0
 19  1  1  0  0  0  0
 22 12  2  0  0  0  0
 23 18  1  1  0  0  0
 23  8  1  0  0  0  0
 25 24  1  0  0  0  0
 26 27  1  0  0  0  0
 28 27  1  0  0  0  0
 28 29  1  0  0  0  0
 30 31  1  1  0  0  0
 30 29  1  0  0  0  0
 30 32  1  0  0  0  0
M  END
>  <MODEL>
1

>  <REMARK>
 VINA RESULT:      -9.4      0.000      0.000
  Name = 
  6 active torsions:
  status: ('A' for Active; 'I' for Inactive)
    1  A    between atoms: C_1  and  N_10
    2  A    between atoms: C_2  and  O_12
    3  A    between atoms: C_2  and  C_24
    4  A    between atoms: C_8  and  C_23
    5  A    between atoms: N_10  and  C_24
    6  A    between atoms: O_12  and  C_21
                            x       y       z     vdW  Elec       q    Type
                         _______ _______ _______ _____ _____    ______ ____

>  <TORSDO>
F 6

$$$$
=
 OpenBabel10262421303D

 32 36  0  0  1  0  0  0  0  0999 V2000
  187.9260  177.9660  142.2340 C   0  0  0  0  0  0  0  0  0  0  0  0
  183.4330  179.2920  143.6010 C   0  0  0  0  0  3  0  0  0  0  0  0
  183.7620  179.1240  144.8890 C   0  0  0  0  0  3  0  0  0  0  0  0
  189.7460  177.5960  143.9620 C   0  0  2  0  0  3  0  0  0  0  0  0
  189.8360  177.0100  145.3620 C   0  0  1  0  0  3  0  0  0  0  0  0
  188.5110  177.6670  139.7820 C   0  0  2  0  0  3  0  0  0  0  0  0
  186.1490  178.3150  140.4340 C   0  0  0  0  0  2  0  0  0  0  0  0
  189.6450  177.4070  147.5840 C   0  0  0  0  0  0  0  0  0  0  0  0
  184.1420  178.5120  142.5270 C   0  0  0  0  0  2  0  0  0  0  0  0
  186.5790  178.2230  141.8790 C   0  0  0  0  0  0  0  0  0  0  0  0
  185.5960  178.2970  142.8820 C   0  0  0  0  0  0  0  0  0  0  0  0
  187.2730  177.8720  144.6000 C   0  0  0  0  0  0  0  0  0  0  0  0
  190.9570  176.7470  147.3500 C   0  0  0  0  0  2  0  0  0  0  0  0
  187.3050  178.5590  139.4590 C   0  0  2  0  0  3  0  0  0  0  0  0
  191.1810  176.8290  145.9020 N   0  0  0  0  0  2  0  0  0  0  0  0
  184.8460  178.1530  145.2780 C   0  0  0  0  0  2  0  0  0  0  0  0
  185.9410  178.1200  144.2360 C   0  0  0  0  0  0  0  0  0  0  0  0
  187.6030  177.6010  146.0630 C   0  0  0  0  0  2  0  0  0  0  0  0
  189.0150  177.9730  141.1880 C   0  0  0  0  0  2  0  0  0  0  0  0
  190.4260  178.8160  143.9000 O   0  0  0  0  0  1  0  0  0  0  0  0
  189.1520  177.5950  148.6840 O   0  0  0  0  0  0  0  0  0  0  0  0
  188.2800  177.8000  143.5890 C   0  0  0  0  0  0  0  0  0  0  0  0
  189.0720  177.8790  146.3160 C   0  0  2  0  0  3  0  0  0  0  0  0
  190.6560  176.6830  138.8440 C   0  0  0  0  0  1  0  0  0  0  0  0
  189.6440  177.8160  138.7630 C   0  0  0  0  0  2  0  0  0  0  0  0
  186.8940  178.4970  138.1070 O   0  0  0  0  0  0  0  0  0  0  0  0
  185.6620  177.8240  138.0280 C   0  0  0  0  0  2  0  0  0  0  0  0
  185.7820  176.6650  137.0620 C   0  0  0  0  0  2  0  0  0  0  0  0
  186.8490  176.9330  136.1150 N   0  0  0  0  0  2  0  0  0  0  0  0
  187.6440  175.7210  136.0090 C   0  0  1  0  0  3  0  0  0  0  0  0
  189.0140  176.0650  135.4640 C   0  0  0  0  0  1  0  0  0  0  0  0
  187.7820  175.1360  137.2680 O   0  0  0  0  0  1  0  0  0  0  0  0
  1 22  1  0  0  0  0
  2  3  2  0  0  0  0
  3 16  1  0  0  0  0
  4 20  1  1  0  0  0
  4  5  1  0  0  0  0
  5 15  1  1  0  0  0
  5 23  1  0  0  0  0
  6 25  1  6  0  0  0
  6 19  1  0  0  0  0
  7 10  1  0  0  0  0
  8 21  2  0  0  0  0
  9 11  1  0  0  0  0
  9  2  1  0  0  0  0
 10  1  2  0  0  0  0
 10 11  1  0  0  0  0
 11 17  2  0  0  0  0
 12 18  1  0  0  0  0
 13  8  1  0  0  0  0
 14 26  1  6  0  0  0
 14  6  1  0  0  0  0
 14  7  1  0  0  0  0
 15 13  1  0  0  0  0
 17 12  1  0  0  0  0
 17 16  1  0  0  0  0
 19  1  1  0  0  0  0
 22  4  1  0  0  0  0
 22 12  2  0  0  0  0
 23 18  1  1  0  0  0
 23  8  1  0  0  0  0
 25 24  1  0  0  0  0
 27 26  1  0  0  0  0
 28 27  1  0  0  0  0
 29 28  1  0  0  0  0
 30 31  1  1  0  0  0
 30 29  1  0  0  0  0
 30 32  1  0  0  0  0
M  END
>  <MODEL>
2

>  <REMARK>
 VINA RESULT:      -9.3      2.292      2.962
  Name = 
  6 active torsions:
  status: ('A' for Active; 'I' for Inactive)
    1  A    between atoms: C_1  and  N_10
    2  A    between atoms: C_2  and  O_12
    3  A    between atoms: C_2  and  C_24
    4  A    between atoms: C_8  and  C_23
    5  A    between atoms: N_10  and  C_24
    6  A    between atoms: O_12  and  C_21
                            x       y       z     vdW  Elec       q    Type
                         _______ _______ _______ _____ _____    ______ ____

>  <TORSDO>
F 6

$$$$
=
 OpenBabel10262421303D

 32 36  0  0  1  0  0  0  0  0999 V2000
  187.9700  177.9490  142.3480 C   0  0  0  0  0  0  0  0  0  0  0  0
  183.4620  179.2650  143.6750 C   0  0  0  0  0  3  0  0  0  0  0  0
  183.7870  179.1210  144.9670 C   0  0  0  0  0  3  0  0  0  0  0  0
  189.7870  177.6220  144.0890 C   0  0  2  0  0  3  0  0  0  0  0  0
  189.8750  177.0600  145.4980 C   0  0  1  0  0  3  0  0  0  0  0  0
  188.5680  177.6150  139.9030 C   0  0  2  0  0  3  0  0  0  0  0  0
  186.1980  178.2560  140.5360 C   0  0  0  0  0  2  0  0  0  0  0  0
  189.6720  177.4920  147.7120 C   0  0  0  0  0  0  0  0  0  0  0  0
  184.1810  178.4720  142.6170 C   0  0  0  0  0  2  0  0  0  0  0  0
  186.6230  178.1910  141.9840 C   0  0  0  0  0  0  0  0  0  0  0  0
  185.6350  178.2740  142.9810 C   0  0  0  0  0  0  0  0  0  0  0  0
  187.3090  177.8900  144.7130 C   0  0  0  0  0  0  0  0  0  0  0  0
  190.9900  176.8390  147.4950 C   0  0  0  0  0  2  0  0  0  0  0  0
  187.3560  178.4920  139.5610 C   0  0  2  0  0  3  0  0  0  0  0  0
  191.2190  176.8990  146.0470 N   0  0  0  0  0  2  0  0  0  0  0  0
  184.8770  178.1640  145.3760 C   0  0  0  0  0  2  0  0  0  0  0  0
  185.9760  178.1220  144.3390 C   0  0  0  0  0  0  0  0  0  0  0  0
  187.6340  177.6460  146.1810 C   0  0  0  0  0  2  0  0  0  0  0  0
  189.0630  177.9470  141.3060 C   0  0  0  0  0  2  0  0  0  0  0  0
  190.4570  178.8460  144.0090 O   0  0  0  0  0  1  0  0  0  0  0  0
  189.1730  177.6950  148.8080 O   0  0  0  0  0  0  0  0  0  0  0  0
  188.3210  177.8090  143.7070 C   0  0  0  0  0  0  0  0  0  0  0  0
  189.1010  177.9390  146.4340 C   0  0  2  0  0  3  0  0  0  0  0  0
  190.8450  176.7840  139.1470 C   0  0  0  0  0  1  0  0  0  0  0  0
  189.7030  177.7550  138.8870 C   0  0  0  0  0  2  0  0  0  0  0  0
  186.9510  178.4040  138.2080 O   0  0  0  0  0  0  0  0  0  0  0  0
  185.5590  178.2130  138.1530 C   0  0  0  0  0  2  0  0  0  0  0  0
  185.2430  177.0810  137.2010 C   0  0  0  0  0  2  0  0  0  0  0  0
  183.8050  176.8870  137.1410 N   0  0  0  0  0  2  0  0  0  0  0  0
  183.2770  177.1730  138.4640 C   0  0  1  0  0  3  0  0  0  0  0  0
  181.9870  177.9530  138.3330 C   0  0  0  0  0  1  0  0  0  0  0  0
  183.0270  175.9780  139.1400 O   0  0  0  0  0  1  0  0  0  0  0  0
  1 22  1  0  0  0  0
  2  3  2  0  0  0  0
  3 16  1  0  0  0  0
  4 20  1  1  0  0  0
  4  5  1  0  0  0  0
  5 15  1  1  0  0  0
  5 23  1  0  0  0  0
  6 25  1  6  0  0  0
  6 19  1  0  0  0  0
  7 10  1  0  0  0  0
  8 21  2  0  0  0  0
  9 11  1  0  0  0  0
  9  2  1  0  0  0  0
 10  1  2  0  0  0  0
 10 11  1  0  0  0  0
 11 17  2  0  0  0  0
 12 18  1  0  0  0  0
 13  8  1  0  0  0  0
 14 26  1  6  0  0  0
 14  6  1  0  0  0  0
 14  7  1  0  0  0  0
 15 13  1  0  0  0  0
 17 12  1  0  0  0  0
 17 16  1  0  0  0  0
 19  1  1  0  0  0  0
 22  4  1  0  0  0  0
 22 12  2  0  0  0  0
 23 18  1  1  0  0  0
 23  8  1  0  0  0  0
 25 24  1  0  0  0  0
 27 26  1  0  0  0  0
 28 27  1  0  0  0  0
 29 28  1  0  0  0  0
 29 30  1  0  0  0  0
 30 31  1  6  0  0  0
 30 32  1  0  0  0  0
M  END
>  <MODEL>
3

>  <REMARK>
 VINA RESULT:      -9.2      1.494      1.717
  Name = 
  6 active torsions:
  status: ('A' for Active; 'I' for Inactive)
    1  A    between atoms: C_1  and  N_10
    2  A    between atoms: C_2  and  O_12
    3  A    between atoms: C_2  and  C_24
    4  A    between atoms: C_8  and  C_23
    5  A    between atoms: N_10  and  C_24
    6  A    between atoms: O_12  and  C_21
                            x       y       z     vdW  Elec       q    Type
                         _______ _______ _______ _____ _____    ______ ____

>  <TORSDO>
F 6

$$$$
=
 OpenBabel10262421303D

 32 36  0  0  1  0  0  0  0  0999 V2000
  186.7860  178.1950  143.2350 C   0  0  0  0  0  0  0  0  0  0  0  0
  189.5370  177.1070  139.3540 C   0  0  0  0  0  3  0  0  0  0  0  0
  190.5800  176.8400  140.1520 C   0  0  0  0  0  3  0  0  0  0  0  0
  187.6530  177.7970  145.5870 C   0  0  2  0  0  3  0  0  0  0  0  0
  188.9860  177.9220  146.3070 C   0  0  1  0  0  3  0  0  0  0  0  0
  184.4440  179.1330  142.9560 C   0  0  2  0  0  3  0  0  0  0  0  0
  185.8430  178.6280  140.9030 C   0  0  0  0  0  2  0  0  0  0  0  0
  190.9410  176.9090  146.8370 C   0  0  0  0  0  0  0  0  0  0  0  0
  188.4710  178.0740  139.7930 C   0  0  0  0  0  2  0  0  0  0  0  0
  186.9660  178.2290  141.8310 C   0  0  0  0  0  0  0  0  0  0  0  0
  188.2380  177.9860  141.2840 C   0  0  0  0  0  0  0  0  0  0  0  0
  189.1680  177.6610  143.5160 C   0  0  0  0  0  0  0  0  0  0  0  0
  190.3440  177.4350  148.0940 C   0  0  0  0  0  2  0  0  0  0  0  0
  184.4530  178.5410  141.5410 C   0  0  2  0  0  3  0  0  0  0  0  0
  188.9540  177.7600  147.7580 N   0  0  0  0  0  2  0  0  0  0  0  0
  190.6970  177.5040  141.4990 C   0  0  0  0  0  2  0  0  0  0  0  0
  189.3340  177.7060  142.1230 C   0  0  0  0  0  0  0  0  0  0  0  0
  190.3870  177.4400  144.4010 C   0  0  0  0  0  2  0  0  0  0  0  0
  185.4140  178.3610  143.8430 C   0  0  0  0  0  2  0  0  0  0  0  0
  187.0470  176.5740  145.8920 O   0  0  0  0  0  1  0  0  0  0  0  0
  192.0740  176.4660  146.7410 O   0  0  0  0  0  0  0  0  0  0  0  0
  187.8770  177.9020  144.0800 C   0  0  0  0  0  0  0  0  0  0  0  0
  189.9480  176.9140  145.7540 C   0  0  2  0  0  3  0  0  0  0  0  0
  183.0790  179.0020  145.0930 C   0  0  0  0  0  1  0  0  0  0  0  0
  183.0470  179.1510  143.5790 C   0  0  0  0  0  2  0  0  0  0  0  0
  183.4380  179.0550  140.6990 O   0  0  0  0  0  0  0  0  0  0  0  0
  182.7240  177.9860  140.1300 C   0  0  0  0  0  2  0  0  0  0  0  0
  181.2470  178.1630  140.4070 C   0  0  0  0  0  2  0  0  0  0  0  0
  180.9600  179.5700  140.6220 N   0  0  0  0  0  2  0  0  0  0  0  0
  179.8370  179.6440  141.5420 C   0  0  1  0  0  3  0  0  0  0  0  0
  179.6960  178.3260  142.2710 C   0  0  0  0  0  1  0  0  0  0  0  0
  180.0550  180.6640  142.4690 O   0  0  0  0  0  1  0  0  0  0  0  0
  1 19  1  0  0  0  0
  1 22  1  0  0  0  0
  2  9  1  0  0  0  0
  2  3  2  0  0  0  0
  3 16  1  0  0  0  0
  4 20  1  6  0  0  0
  4  5  1  0  0  0  0
  5 15  1  1  0  0  0
  6 25  1  1  0  0  0
  6 19  1  0  0  0  0
  7 14  1  0  0  0  0
  7 10  1  0  0  0  0
  8 13  1  0  0  0  0
  9 11  1  0  0  0  0
 10  1  2  0  0  0  0
 11 10  1  0  0  0  0
 11 17  2  0  0  0  0
 12 22  2  0  0  0  0
 12 18  1  0  0  0  0
 14 26  1  6  0  0  0
 14  6  1  0  0  0  0
 15 13  1  0  0  0  0
 16 17  1  0  0  0  0
 17 12  1  0  0  0  0
 21  8  2  0  0  0  0
 22  4  1  0  0  0  0
 23 18  1  6  0  0  0
 23  5  1  0  0  0  0
 23  8  1  0  0  0  0
 25 24  1  0  0  0  0
 27 28  1  0  0  0  0
 27 26  1  0  0  0  0
 28 29  1  0  0  0  0
 29 30  1  0  0  0  0
 30 31  1  1  0  0  0
 30 32  1  0  0  0  0
M  END
>  <MODEL>
4

>  <REMARK>
 VINA RESULT:      -8.7      2.033      4.346
  Name = 
  6 active torsions:
  status: ('A' for Active; 'I' for Inactive)
    1  A    between atoms: C_1  and  N_10
    2  A    between atoms: C_2  and  O_12
    3  A    between atoms: C_2  and  C_24
    4  A    between atoms: C_8  and  C_23
    5  A    between atoms: N_10  and  C_24
    6  A    between atoms: O_12  and  C_21
                            x       y       z     vdW  Elec       q    Type
                         _______ _______ _______ _____ _____    ______ ____

>  <TORSDO>
F 6

$$$$
=
 OpenBabel10262421303D

 32 36  0  0  1  0  0  0  0  0999 V2000
  185.7390  178.3080  141.6820 C   0  0  0  0  0  0  0  0  0  0  0  0
  186.0840  177.8790  146.5310 C   0  0  0  0  0  3  0  0  0  0  0  0
  184.7730  178.1220  146.6590 C   0  0  0  0  0  3  0  0  0  0  0  0
  183.4740  178.5520  140.5640 C   0  0  2  0  0  3  0  0  0  0  0  0
  182.1630  179.2570  140.8710 C   0  0  1  0  0  3  0  0  0  0  0  0
  187.8100  178.2540  140.2150 C   0  0  2  0  0  3  0  0  0  0  0  0
  188.0540  178.0690  142.7310 C   0  0  0  0  0  2  0  0  0  0  0  0
  180.1570  179.1260  141.9150 C   0  0  0  0  0  0  0  0  0  0  0  0
  186.8480  178.4180  145.3510 C   0  0  0  0  0  2  0  0  0  0  0  0
  186.5570  178.2380  142.8370 C   0  0  0  0  0  0  0  0  0  0  0  0
  185.9880  178.4290  144.1080 C   0  0  0  0  0  0  0  0  0  0  0  0
  183.7870  178.7500  143.1070 C   0  0  0  0  0  0  0  0  0  0  0  0
  179.9120  179.5360  140.5060 C   0  0  0  0  0  2  0  0  0  0  0  0
  188.5230  177.5420  141.3710 C   0  0  2  0  0  3  0  0  0  0  0  0
  181.1700  179.2700  139.8000 N   0  0  0  0  0  2  0  0  0  0  0  0
  184.0460  178.9390  145.6220 C   0  0  0  0  0  2  0  0  0  0  0  0
  184.6100  178.6860  144.2420 C   0  0  0  0  0  0  0  0  0  0  0  0
  182.3170  179.1120  143.2770 C   0  0  0  0  0  2  0  0  0  0  0  0
  186.3070  178.0160  140.3140 C   0  0  0  0  0  2  0  0  0  0  0  0
  183.2370  177.2380  140.1510 O   0  0  0  0  0  1  0  0  0  0  0  0
  179.3110  179.1360  142.7950 O   0  0  0  0  0  0  0  0  0  0  0  0
  184.3560  178.5530  141.8110 C   0  0  0  0  0  0  0  0  0  0  0  0
  181.5290  178.6270  142.0750 C   0  0  2  0  0  3  0  0  0  0  0  0
  189.0550  178.9380  138.1100 C   0  0  0  0  0  1  0  0  0  0  0  0
  188.3310  177.8180  138.8430 C   0  0  0  0  0  2  0  0  0  0  0  0
  189.9330  177.5310  141.2520 O   0  0  0  0  0  0  0  0  0  0  0  0
  190.4490  176.4390  141.9720 C   0  0  0  0  0  2  0  0  0  0  0  0
  191.4640  176.9330  142.9790 C   0  0  0  0  0  2  0  0  0  0  0  0
  191.5490  175.9920  144.0810 N   0  0  0  0  0  2  0  0  0  0  0  0
  191.5230  176.7650  145.3110 C   0  0  1  0  0  3  0  0  0  0  0  0
  190.0930  177.1360  145.6410 C   0  0  0  0  0  1  0  0  0  0  0  0
  192.0550  176.0070  146.3550 O   0  0  0  0  0  1  0  0  0  0  0  0
  1 22  2  0  0  0  0
  1 10  1  0  0  0  0
  2  3  2  0  0  0  0
  4 20  1  1  0  0  0
  4  5  1  0  0  0  0
  4 22  1  0  0  0  0
  5 15  1  6  0  0  0
  5 23  1  0  0  0  0
  6 25  1  6  0  0  0
  6 19  1  0  0  0  0
  6 14  1  0  0  0  0
  7 10  1  0  0  0  0
  8 23  1  0  0  0  0
  8 21  2  0  0  0  0
  9  2  1  0  0  0  0
 10 11  2  0  0  0  0
 11 17  1  0  0  0  0
 11  9  1  0  0  0  0
 12 18  1  0  0  0  0
 12 17  2  0  0  0  0
 13  8  1  0  0  0  0
 14 26  1  6  0  0  0
 14  7  1  0  0  0  0
 15 13  1  0  0  0  0
 16  3  1  0  0  0  0
 17 16  1  0  0  0  0
 19  1  1  0  0  0  0
 22 12  1  0  0  0  0
 23 18  1  1  0  0  0
 24 25  1  0  0  0  0
 26 27  1  0  0  0  0
 27 28  1  0  0  0  0
 28 29  1  0  0  0  0
 29 30  1  0  0  0  0
 30 31  1  1  0  0  0
 30 32  1  0  0  0  0
M  END
>  <MODEL>
5

>  <REMARK>
 VINA RESULT:      -8.6      1.740      7.413
  Name = 
  6 active torsions:
  status: ('A' for Active; 'I' for Inactive)
    1  A    between atoms: C_1  and  N_10
    2  A    between atoms: C_2  and  O_12
    3  A    between atoms: C_2  and  C_24
    4  A    between atoms: C_8  and  C_23
    5  A    between atoms: N_10  and  C_24
    6  A    between atoms: O_12  and  C_21
                            x       y       z     vdW  Elec       q    Type
                         _______ _______ _______ _____ _____    ______ ____

>  <TORSDO>
F 6

$$$$
=
 OpenBabel10262421303D

 32 36  0  0  1  0  0  0  0  0999 V2000
  185.4360  178.2090  142.7290 C   0  0  0  0  0  0  0  0  0  0  0  0
  185.7510  178.7970  147.5630 C   0  0  0  0  0  3  0  0  0  0  0  0
  187.0740  178.5890  147.5150 C   0  0  0  0  0  3  0  0  0  0  0  0
  187.5310  177.9810  141.3160 C   0  0  2  0  0  3  0  0  0  0  0  0
  188.8920  177.3200  141.4590 C   0  0  1  0  0  3  0  0  0  0  0  0
  183.1820  178.1630  141.5620 C   0  0  2  0  0  3  0  0  0  0  0  0
  183.2810  178.4280  144.0810 C   0  0  0  0  0  2  0  0  0  0  0  0
  191.0180  177.5340  142.2100 C   0  0  0  0  0  0  0  0  0  0  0  0
  184.8480  178.1990  146.5180 C   0  0  0  0  0  2  0  0  0  0  0  0
  184.7830  178.2990  143.9830 C   0  0  0  0  0  0  0  0  0  0  0  0
  185.5280  178.1660  145.1680 C   0  0  0  0  0  0  0  0  0  0  0  0
  187.5780  177.8640  143.8820 C   0  0  0  0  0  0  0  0  0  0  0  0
  191.0780  177.0820  140.7930 C   0  0  0  0  0  2  0  0  0  0  0  0
  182.6140  178.8960  142.7840 C   0  0  2  0  0  3  0  0  0  0  0  0
  189.7270  177.2930  140.2620 N   0  0  0  0  0  2  0  0  0  0  0  0
  187.6740  177.7550  146.4130 C   0  0  0  0  0  2  0  0  0  0  0  0
  186.9180  177.9470  145.1170 C   0  0  0  0  0  0  0  0  0  0  0  0
  189.0670  177.5430  143.8570 C   0  0  0  0  0  2  0  0  0  0  0  0
  184.6770  178.4400  141.4450 C   0  0  0  0  0  2  0  0  0  0  0  0
  187.6710  179.2860  140.8330 O   0  0  0  0  0  1  0  0  0  0  0  0
  191.9770  177.5760  142.9630 O   0  0  0  0  0  0  0  0  0  0  0  0
  186.8300  178.0030  142.6720 C   0  0  0  0  0  0  0  0  0  0  0  0
  189.6670  178.0060  142.5430 C   0  0  2  0  0  3  0  0  0  0  0  0
  183.3020  179.4450  139.3730 C   0  0  0  0  0  1  0  0  0  0  0  0
  182.4640  178.5380  140.2640 C   0  0  0  0  0  2  0  0  0  0  0  0
  181.2020  178.8700  142.8620 O   0  0  0  0  0  0  0  0  0  0  0  0
  180.7150  180.1880  142.8860 C   0  0  0  0  0  2  0  0  0  0  0  0
  179.4210  180.2620  142.1040 C   0  0  0  0  0  2  0  0  0  0  0  0
  179.3970  181.4870  141.3250 N   0  0  0  0  0  2  0  0  0  0  0  0
  179.0920  181.1180  139.9530 C   0  0  1  0  0  3  0  0  0  0  0  0
  180.2240  181.5600  139.0500 C   0  0  0  0  0  1  0  0  0  0  0  0
  178.9400  179.7340  139.8600 O   0  0  0  0  0  1  0  0  0  0  0  0
  1 10  1  0  0  0  0
  3  2  2  0  0  0  0
  4 20  1  1  0  0  0
  4  5  1  0  0  0  0
  4 22  1  0  0  0  0
  5 15  1  6  0  0  0
  5 23  1  0  0  0  0
  6 25  1  6  0  0  0
  6 14  1  0  0  0  0
  8 23  1  0  0  0  0
  8 21  2  0  0  0  0
  9  2  1  0  0  0  0
 10  7  1  0  0  0  0
 10 11  2  0  0  0  0
 11  9  1  0  0  0  0
 12 17  2  0  0  0  0
 13  8  1  0  0  0  0
 14 26  1  1  0  0  0
 14  7  1  0  0  0  0
 15 13  1  0  0  0  0
 16  3  1  0  0  0  0
 17 11  1  0  0  0  0
 17 16  1  0  0  0  0
 18 12  1  0  0  0  0
 19  6  1  0  0  0  0
 19  1  1  0  0  0  0
 22  1  2  0  0  0  0
 22 12  1  0  0  0  0
 23 18  1  1  0  0  0
 24 25  1  0  0  0  0
 26 27  1  0  0  0  0
 28 27  1  0  0  0  0
 29 28  1  0  0  0  0
 30 31  1  6  0  0  0
 30 29  1  0  0  0  0
 32 30  1  0  0  0  0
M  END
>  <MODEL>
6

>  <REMARK>
 VINA RESULT:      -8.6      2.420      3.908
  Name = 
  6 active torsions:
  status: ('A' for Active; 'I' for Inactive)
    1  A    between atoms: C_1  and  N_10
    2  A    between atoms: C_2  and  O_12
    3  A    between atoms: C_2  and  C_24
    4  A    between atoms: C_8  and  C_23
    5  A    between atoms: N_10  and  C_24
    6  A    between atoms: O_12  and  C_21
                            x       y       z     vdW  Elec       q    Type
                         _______ _______ _______ _____ _____    ______ ____

>  <TORSDO>
F 6

$$$$
=
 OpenBabel10262421303D

 32 36  0  0  1  0  0  0  0  0999 V2000
  186.8960  178.2020  143.1090 C   0  0  0  0  0  0  0  0  0  0  0  0
  189.5470  177.0970  139.1640 C   0  0  0  0  0  3  0  0  0  0  0  0
  190.6010  176.8070  139.9380 C   0  0  0  0  0  3  0  0  0  0  0  0
  187.8050  177.7720  145.4390 C   0  0  2  0  0  3  0  0  0  0  0  0
  189.1540  177.8690  146.1330 C   0  0  1  0  0  3  0  0  0  0  0  0
  184.5650  179.1820  142.8860 C   0  0  2  0  0  3  0  0  0  0  0  0
  185.9120  178.6680  140.8010 C   0  0  0  0  0  2  0  0  0  0  0  0
  191.1020  176.8190  146.6140 C   0  0  0  0  0  0  0  0  0  0  0  0
  188.5070  178.0790  139.6320 C   0  0  0  0  0  2  0  0  0  0  0  0
  187.0470  178.2440  141.7020 C   0  0  0  0  0  0  0  0  0  0  0  0
  188.3040  177.9840  141.1270 C   0  0  0  0  0  0  0  0  0  0  0  0
  189.2740  177.6270  143.3360 C   0  0  0  0  0  0  0  0  0  0  0  0
  190.5410  177.3450  147.8870 C   0  0  0  0  0  2  0  0  0  0  0  0
  184.5340  178.6000  141.4660 C   0  0  2  0  0  3  0  0  0  0  0  0
  189.1500  177.6970  147.5820 N   0  0  0  0  0  2  0  0  0  0  0  0
  190.7580  177.4590  141.2870 C   0  0  0  0  0  2  0  0  0  0  0  0
  189.4120  177.6790  141.9410 C   0  0  0  0  0  0  0  0  0  0  0  0
  190.5080  177.3770  144.1940 C   0  0  0  0  0  2  0  0  0  0  0  0
  185.5400  178.3860  143.7470 C   0  0  0  0  0  2  0  0  0  0  0  0
  187.1850  176.5570  145.7480 O   0  0  0  0  0  1  0  0  0  0  0  0
  192.2260  176.3580  146.4920 O   0  0  0  0  0  0  0  0  0  0  0  0
  187.9990  177.8850  143.9290 C   0  0  0  0  0  0  0  0  0  0  0  0
  190.0870  176.8490  145.5530 C   0  0  2  0  0  3  0  0  0  0  0  0
  183.2260  178.8900  145.0230 C   0  0  0  0  0  1  0  0  0  0  0  0
  183.1810  179.2180  143.5380 C   0  0  0  0  0  2  0  0  0  0  0  0
  183.5120  179.1370  140.6500 O   0  0  0  0  0  0  0  0  0  0  0  0
  184.0040  179.3090  139.3450 C   0  0  0  0  0  2  0  0  0  0  0  0
  182.9440  178.8940  138.3480 C   0  0  0  0  0  2  0  0  0  0  0  0
  183.3150  177.6250  137.7480 N   0  0  0  0  0  2  0  0  0  0  0  0
  182.2650  176.6730  138.0700 C   0  0  1  0  0  3  0  0  0  0  0  0
  182.6340  175.9250  139.3320 C   0  0  0  0  0  1  0  0  0  0  0  0
  181.0610  177.3510  138.2700 O   0  0  0  0  0  1  0  0  0  0  0  0
  1 19  1  0  0  0  0
  1 22  1  0  0  0  0
  2  9  1  0  0  0  0
  2  3  2  0  0  0  0
  3 16  1  0  0  0  0
  4 20  1  6  0  0  0
  4  5  1  0  0  0  0
  5 15  1  1  0  0  0
  6 25  1  1  0  0  0
  6 19  1  0  0  0  0
  7 14  1  0  0  0  0
  7 10  1  0  0  0  0
  8 13  1  0  0  0  0
  9 11  1  0  0  0  0
 10  1  2  0  0  0  0
 11 10  1  0  0  0  0
 11 17  2  0  0  0  0
 12 22  2  0  0  0  0
 12 18  1  0  0  0  0
 14 26  1  6  0  0  0
 14  6  1  0  0  0  0
 15 13  1  0  0  0  0
 16 17  1  0  0  0  0
 17 12  1  0  0  0  0
 21  8  2  0  0  0  0
 22  4  1  0  0  0  0
 23 18  1  6  0  0  0
 23  5  1  0  0  0  0
 23  8  1  0  0  0  0
 25 24  1  0  0  0  0
 27 26  1  0  0  0  0
 28 27  1  0  0  0  0
 29 30  1  0  0  0  0
 29 28  1  0  0  0  0
 30 32  1  0  0  0  0
 30 31  1  1  0  0  0
M  END
>  <MODEL>
7

>  <REMARK>
 VINA RESULT:      -8.5      1.651      4.131
  Name = 
  6 active torsions:
  status: ('A' for Active; 'I' for Inactive)
    1  A    between atoms: C_1  and  N_10
    2  A    between atoms: C_2  and  O_12
    3  A    between atoms: C_2  and  C_24
    4  A    between atoms: C_8  and  C_23
    5  A    between atoms: N_10  and  C_24
    6  A    between atoms: O_12  and  C_21
                            x       y       z     vdW  Elec       q    Type
                         _______ _______ _______ _____ _____    ______ ____

>  <TORSDO>
F 6

$$$$
=
 OpenBabel10262421303D

 32 36  0  0  1  0  0  0  0  0999 V2000
  186.3640  178.2640  143.1240 C   0  0  0  0  0  0  0  0  0  0  0  0
  189.8550  177.2720  139.8630 C   0  0  0  0  0  3  0  0  0  0  0  0
  190.7410  177.0820  140.8500 C   0  0  0  0  0  3  0  0  0  0  0  0
  186.7910  177.9610  145.6080 C   0  0  2  0  0  3  0  0  0  0  0  0
  187.9540  178.1790  146.5610 C   0  0  1  0  0  3  0  0  0  0  0  0
  184.0680  179.0550  142.3830 C   0  0  2  0  0  3  0  0  0  0  0  0
  185.8560  178.5970  140.6450 C   0  0  0  0  0  2  0  0  0  0  0  0
  189.8270  177.2940  147.4780 C   0  0  0  0  0  0  0  0  0  0  0  0
  188.6730  178.1820  140.0650 C   0  0  0  0  0  2  0  0  0  0  0  0
  186.8040  178.2830  141.7780 C   0  0  0  0  0  0  0  0  0  0  0  0
  188.1680  178.1070  141.4880 C   0  0  0  0  0  0  0  0  0  0  0  0
  188.6750  177.8790  143.8620 C   0  0  0  0  0  0  0  0  0  0  0  0
  188.9750  177.8060  148.5850 C   0  0  0  0  0  2  0  0  0  0  0  0
  184.3780  178.4380  141.0130 C   0  0  2  0  0  3  0  0  0  0  0  0
  187.6580  178.0410  147.9840 N   0  0  0  0  0  2  0  0  0  0  0  0
  190.5640  177.7770  142.1750 C   0  0  0  0  0  2  0  0  0  0  0  0
  189.0990  177.9080  142.5250 C   0  0  0  0  0  0  0  0  0  0  0  0
  189.7160  177.7460  144.9670 C   0  0  0  0  0  2  0  0  0  0  0  0
  184.8940  178.3580  143.4590 C   0  0  0  0  0  2  0  0  0  0  0  0
  186.2070  176.7100  145.8290 O   0  0  0  0  0  1  0  0  0  0  0  0
  190.9810  176.9180  147.6100 O   0  0  0  0  0  0  0  0  0  0  0  0
  187.2900  178.0520  144.1680 C   0  0  0  0  0  0  0  0  0  0  0  0
  189.0580  177.2200  146.2290 C   0  0  2  0  0  3  0  0  0  0  0  0
  182.3310  178.9690  144.2330 C   0  0  0  0  0  1  0  0  0  0  0  0
  182.5790  179.0000  142.7320 C   0  0  0  0  0  2  0  0  0  0  0  0
  183.5140  178.8750  139.9810 O   0  0  0  0  0  0  0  0  0  0  0  0
  182.9590  177.7560  139.3370 C   0  0  0  0  0  2  0  0  0  0  0  0
  183.5490  177.6300  137.9490 C   0  0  0  0  0  2  0  0  0  0  0  0
  184.2530  176.3650  137.8360 N   0  0  0  0  0  2  0  0  0  0  0  0
  185.3550  176.5680  136.9100 C   0  0  1  0  0  3  0  0  0  0  0  0
  186.0460  177.8770  137.2290 C   0  0  0  0  0  1  0  0  0  0  0  0
  186.2710  175.5210  137.0320 O   0  0  0  0  0  1  0  0  0  0  0  0
  1 19  1  0  0  0  0
  1 22  1  0  0  0  0
  2  9  1  0  0  0  0
  2  3  2  0  0  0  0
  3 16  1  0  0  0  0
  4 20  1  1  0  0  0
  4  5  1  0  0  0  0
  5 15  1  1  0  0  0
  6 25  1  1  0  0  0
  6 19  1  0  0  0  0
  7 14  1  0  0  0  0
  7 10  1  0  0  0  0
  8 21  2  0  0  0  0
  8 13  1  0  0  0  0
  9 11  1  0  0  0  0
 10  1  2  0  0  0  0
 11 10  1  0  0  0  0
 11 17  2  0  0  0  0
 12 22  2  0  0  0  0
 12 18  1  0  0  0  0
 14 26  1  6  0  0  0
 14  6  1  0  0  0  0
 15 13  1  0  0  0  0
 16 17  1  0  0  0  0
 17 12  1  0  0  0  0
 22  4  1  0  0  0  0
 23 18  1  6  0  0  0
 23  5  1  0  0  0  0
 23  8  1  0  0  0  0
 25 24  1  0  0  0  0
 27 26  1  0  0  0  0
 28 27  1  0  0  0  0
 29 28  1  0  0  0  0
 30 32  1  0  0  0  0
 30 31  1  1  0  0  0
 30 29  1  0  0  0  0
M  END
>  <MODEL>
8

>  <REMARK>
 VINA RESULT:      -8.4      2.159      4.472
  Name = 
  6 active torsions:
  status: ('A' for Active; 'I' for Inactive)
    1  A    between atoms: C_1  and  N_10
    2  A    between atoms: C_2  and  O_12
    3  A    between atoms: C_2  and  C_24
    4  A    between atoms: C_8  and  C_23
    5  A    between atoms: N_10  and  C_24
    6  A    between atoms: O_12  and  C_21
                            x       y       z     vdW  Elec       q    Type
                         _______ _______ _______ _____ _____    ______ ____

>  <TORSDO>
F 6

$$$$
=
 OpenBabel10262421303D

 32 36  0  0  1  0  0  0  0  0999 V2000
  187.2500  178.0400  141.1540 C   0  0  0  0  0  0  0  0  0  0  0  0
  188.7640  177.8380  145.7890 C   0  0  0  0  0  3  0  0  0  0  0  0
  189.9990  177.5110  145.3840 C   0  0  0  0  0  3  0  0  0  0  0  0
  188.9060  177.8270  139.2430 C   0  0  2  0  0  3  0  0  0  0  0  0
  190.1610  177.0200  138.9560 C   0  0  1  0  0  3  0  0  0  0  0  0
  184.8000  178.3990  140.5940 C   0  0  2  0  0  3  0  0  0  0  0  0
  185.5210  178.2600  143.0200 C   0  0  0  0  0  2  0  0  0  0  0  0
  192.4130  176.9030  139.1700 C   0  0  0  0  0  0  0  0  0  0  0  0
  187.5700  177.5020  144.9370 C   0  0  0  0  0  2  0  0  0  0  0  0
  186.9270  177.9990  142.5330 C   0  0  0  0  0  0  0  0  0  0  0  0
  187.9040  177.6110  143.4670 C   0  0  0  0  0  0  0  0  0  0  0  0
  189.5360  177.3100  141.6800 C   0  0  0  0  0  0  0  0  0  0  0  0
  192.0780  176.6720  137.7390 C   0  0  0  0  0  2  0  0  0  0  0  0
  184.6380  178.9870  142.0020 C   0  0  2  0  0  3  0  0  0  0  0  0
  190.6810  177.0960  137.5940 N   0  0  0  0  0  2  0  0  0  0  0  0
  190.2070  176.8020  144.0710 C   0  0  0  0  0  2  0  0  0  0  0  0
  189.2010  177.2660  143.0420 C   0  0  0  0  0  0  0  0  0  0  0  0
  190.9210  176.8510  141.2410 C   0  0  0  0  0  2  0  0  0  0  0  0
  186.2490  178.5410  140.1410 C   0  0  0  0  0  2  0  0  0  0  0  0
  189.1030  179.1700  138.9090 O   0  0  0  0  0  1  0  0  0  0  0  0
  193.5190  176.7320  139.6580 O   0  0  0  0  0  0  0  0  0  0  0  0
  188.5510  177.7080  140.7230 C   0  0  0  0  0  0  0  0  0  0  0  0
  191.2540  177.4500  139.8880 C   0  0  2  0  0  3  0  0  0  0  0  0
  182.8370  178.0550  139.0200 C   0  0  0  0  0  1  0  0  0  0  0  0
  183.8550  179.0400  139.5750 C   0  0  0  0  0  2  0  0  0  0  0  0
  183.2930  179.0890  142.4280 O   0  0  0  0  0  0  0  0  0  0  0  0
  183.2320  178.8930  143.8180 C   0  0  0  0  0  2  0  0  0  0  0  0
  181.7840  178.8230  144.2540 C   0  0  0  0  0  2  0  0  0  0  0  0
  180.9450  179.4420  143.2430 N   0  0  0  0  0  2  0  0  0  0  0  0
  179.7860  178.5850  143.0620 C   0  0  1  0  0  3  0  0  0  0  0  0
  179.9050  177.8490  141.7450 C   0  0  0  0  0  1  0  0  0  0  0  0
  179.7180  177.6580  144.1040 O   0  0  0  0  0  1  0  0  0  0  0  0
  1 10  1  0  0  0  0
  3  2  2  0  0  0  0
  4 20  1  1  0  0  0
  4 22  1  0  0  0  0
  5 15  1  6  0  0  0
  5  4  1  0  0  0  0
  5 23  1  0  0  0  0
  6 25  1  6  0  0  0
  6 14  1  0  0  0  0
  8 21  2  0  0  0  0
  8 23  1  0  0  0  0
  9  2  1  0  0  0  0
 10  7  1  0  0  0  0
 10 11  2  0  0  0  0
 11  9  1  0  0  0  0
 12 17  2  0  0  0  0
 13  8  1  0  0  0  0
 14 26  1  1  0  0  0
 14  7  1  0  0  0  0
 15 13  1  0  0  0  0
 16  3  1  0  0  0  0
 17 11  1  0  0  0  0
 17 16  1  0  0  0  0
 18 12  1  0  0  0  0
 19  6  1  0  0  0  0
 19  1  1  0  0  0  0
 22  1  2  0  0  0  0
 22 12  1  0  0  0  0
 23 18  1  1  0  0  0
 24 25  1  0  0  0  0
 26 27  1  0  0  0  0
 27 28  1  0  0  0  0
 29 28  1  0  0  0  0
 30 31  1  6  0  0  0
 30 29  1  0  0  0  0
 30 32  1  0  0  0  0
M  END
>  <MODEL>
9

>  <REMARK>
 VINA RESULT:      -8.4      2.702      4.836
  Name = 
  6 active torsions:
  status: ('A' for Active; 'I' for Inactive)
    1  A    between atoms: C_1  and  N_10
    2  A    between atoms: C_2  and  O_12
    3  A    between atoms: C_2  and  C_24
    4  A    between atoms: C_8  and  C_23
    5  A    between atoms: N_10  and  C_24
    6  A    between atoms: O_12  and  C_21
                            x       y       z     vdW  Elec       q    Type
                         _______ _______ _______ _____ _____    ______ ____

>  <TORSDO>
F 6

$$$$
