=
 OpenBabel10262422193D

 43 48  0  0  1  0  0  0  0  0999 V2000
  187.8310  177.8270  148.4240 C   0  0  0  0  0  0  0  0  0  0  0  0
  186.2400  178.4870  143.6270 C   0  0  0  0  0  0  0  0  0  0  0  0
  188.3110  177.5510  141.7520 C   0  0  0  0  0  0  0  0  0  0  0  0
  186.5680  178.4670  146.4240 C   0  0  0  0  0  0  0  0  0  0  0  0
  188.7190  177.1250  147.7210 C   0  0  0  0  0  3  0  0  0  0  0  0
  187.9710  177.9370  149.7660 F   0  0  0  0  0  0  0  0  0  0  0  0
  187.4810  177.7590  145.6090 C   0  0  0  0  0  0  0  0  0  0  0  0
  186.7110  178.5030  147.7520 C   0  0  0  0  0  3  0  0  0  0  0  0
  188.6050  176.9570  146.2290 C   0  0  0  0  0  3  0  0  0  0  0  0
  188.1670  176.5170  143.2140 S   0  0  0  0  0  0  0  0  0  0  0  0
  187.2880  177.7360  144.2110 C   0  0  0  0  0  0  0  0  0  0  0  0
  185.3260  179.1410  144.4640 C   0  0  0  0  0  3  0  0  0  0  0  0
  186.1520  178.6680  142.2910 C   0  0  2  0  0  3  0  0  0  0  0  0
  187.2980  178.3450  141.4060 C   0  0  0  0  0  3  0  0  0  0  0  0
  185.4840  179.1280  145.8480 C   0  0  0  0  0  3  0  0  0  0  0  0
  189.4620  177.4330  140.9000 N   0  0  0  0  0  0  0  0  0  0  0  0
  189.3620  177.1800  139.5070 C   0  0  0  0  0  3  0  0  0  0  0  0
  190.8350  177.5150  141.3840 C   0  0  0  0  0  2  0  0  0  0  0  0
  190.5240  177.0910  138.8930 C   0  0  0  0  0  0  0  0  0  0  0  0
  191.9480  177.2690  139.9530 S   0  0  0  0  0  0  0  0  0  0  0  0
  190.6480  176.7760  137.4400 C   0  0  0  0  0  2  0  0  0  0  0  0
  190.0510  175.4020  137.1150 C   0  0  2  0  0  3  0  0  0  0  0  0
  190.2100  175.1340  134.7630 O   0  0  0  0  0  0  0  0  0  0  0  0
  191.1690  174.4400  136.8440 C   0  0  0  0  0  2  0  0  0  0  0  0
  189.2840  175.3770  135.7960 C   0  0  1  0  0  0  0  0  0  0  0  0
  188.3600  174.3280  135.8380 O   0  0  0  0  0  1  0  0  0  0  0  0
  191.2840  174.4210  135.3340 C   0  0  0  0  0  2  0  0  0  0  0  0
  188.5270  176.6820  135.5310 C   0  0  0  0  0  2  0  0  0  0  0  0
  187.0950  176.4950  135.6980 N   0  0  0  0  0  0  0  0  0  0  0  0
  185.2010  177.2450  137.1180 C   0  0  0  0  0  2  0  0  0  0  0  0
  184.9120  177.1770  134.7520 C   0  0  0  0  0  2  0  0  0  0  0  0
  184.5060  176.5700  136.0210 N   0  0  0  0  0  2  0  0  0  0  0  0
  186.4410  177.1970  134.5940 C   0  0  0  0  0  2  0  0  0  0  0  0
  186.7260  177.1460  136.9560 C   0  0  0  0  0  2  0  0  0  0  0  0
  185.0220  179.3240  141.7690 O   0  0  0  0  0  0  0  0  0  0  0  0
  184.6790  179.7180  139.5040 O   0  0  0  0  0  0  0  0  0  0  0  0
  184.4090  179.0510  140.5390 C   0  0  0  0  0  0  0  0  0  0  0  0
  183.4210  177.9400  140.4520 C   0  0  0  0  0  2  0  0  0  0  0  0
  182.3250  178.5370  142.9970 F   0  0  0  0  0  0  0  0  0  0  0  0
  181.5490  178.7050  141.8940 C   0  0  0  0  0  0  0  0  0  0  0  0
  182.0330  178.4530  140.6730 C   0  0  0  0  0  3  0  0  0  0  0  0
  179.3940  178.3520  142.9220 N   0  0  0  0  0  1  0  0  0  0  0  0
  180.1610  179.2300  142.0530 C   0  0  0  0  0  2  0  0  0  0  0  0
  1  6  1  0  0  0  0
  2 11  2  0  0  0  0
  2 12  1  0  0  0  0
  3 10  1  0  0  0  0
  4  8  2  0  0  0  0
  5  1  2  0  0  0  0
  7  9  2  0  0  0  0
  7  4  1  0  0  0  0
  8  1  1  0  0  0  0
  9  5  1  0  0  0  0
 10 11  1  0  0  0  0
 11  7  1  0  0  0  0
 12 15  2  0  0  0  0
 13 35  1  1  0  0  0
 13  2  1  0  0  0  0
 14  3  2  0  0  0  0
 14 13  1  0  0  0  0
 15  4  1  0  0  0  0
 16 18  1  0  0  0  0
 16  3  1  0  0  0  0
 17 16  1  0  0  0  0
 19 17  2  0  0  0  0
 19 20  1  0  0  0  0
 20 18  1  0  0  0  0
 21 19  1  0  0  0  0
 22 21  1  6  0  0  0
 23 27  1  0  0  0  0
 23 25  1  0  0  0  0
 24 22  1  0  0  0  0
 25 26  1  1  0  0  0
 25 22  1  0  0  0  0
 27 24  1  0  0  0  0
 28 29  1  0  0  0  0
 28 25  1  0  0  0  0
 29 34  1  0  0  0  0
 31 32  1  0  0  0  0
 32 30  1  0  0  0  0
 33 31  1  0  0  0  0
 33 29  1  0  0  0  0
 34 30  1  0  0  0  0
 36 37  2  0  0  0  0
 37 35  1  0  0  0  0
 38 37  1  0  0  0  0
 38 41  1  0  0  0  0
 40 43  1  0  0  0  0
 40 39  1  0  0  0  0
 41 40  2  0  0  0  0
 43 42  1  0  0  0  0
M  END
>  <MODEL>
1

>  <REMARK>
 VINA RESULT:      -9.2      0.000      0.000
  Name = 
  10 active torsions:
  status: ('A' for Active; 'I' for Inactive)
    1  A    between atoms: O_1  and  C_34
    2  A    between atoms: O_1  and  C_35
    3  A    between atoms: N_2  and  C_13
    4  A    between atoms: C_3  and  C_4
    5  A    between atoms: C_3  and  C_12
    6  A    between atoms: N_11  and  C_14
    7  A    between atoms: C_14  and  C_22
    8  A    between atoms: C_19  and  C_37
    9  A    between atoms: C_28  and  C_35
   10  A    between atoms: C_28  and  C_39
                            x       y       z     vdW  Elec       q    Type
                         _______ _______ _______ _____ _____    ______ ____

>  <TORSDO>
F 10

$$$$
=
 OpenBabel10262422193D

 43 48  0  0  1  0  0  0  0  0999 V2000
  191.6100  176.7650  147.7330 C   0  0  0  0  0  0  0  0  0  0  0  0
  187.4740  177.3440  144.8110 C   0  0  0  0  0  0  0  0  0  0  0  0
  188.2330  177.1940  141.9670 C   0  0  0  0  0  0  0  0  0  0  0  0
  189.3380  177.1840  146.9160 C   0  0  0  0  0  0  0  0  0  0  0  0
  192.0500  176.4050  146.5270 C   0  0  0  0  0  3  0  0  0  0  0  0
  192.4680  176.7970  148.7800 F   0  0  0  0  0  0  0  0  0  0  0  0
  189.7340  176.8360  145.6040 C   0  0  0  0  0  0  0  0  0  0  0  0
  190.2050  177.1500  147.9320 C   0  0  0  0  0  3  0  0  0  0  0  0
  191.1380  176.3370  145.3310 C   0  0  0  0  0  3  0  0  0  0  0  0
  189.1470  176.0440  143.0010 S   0  0  0  0  0  0  0  0  0  0  0  0
  188.7860  176.8760  144.5600 C   0  0  0  0  0  0  0  0  0  0  0  0
  187.1000  177.6400  146.1290 C   0  0  0  0  0  3  0  0  0  0  0  0
  186.6070  177.6030  143.8080 C   0  0  2  0  0  3  0  0  0  0  0  0
  187.0770  177.6940  142.4040 C   0  0  0  0  0  3  0  0  0  0  0  0
  188.0200  177.5560  147.1720 C   0  0  0  0  0  3  0  0  0  0  0  0
  188.6880  177.4790  140.6350 N   0  0  0  0  0  0  0  0  0  0  0  0
  189.8020  176.8250  140.0480 C   0  0  0  0  0  3  0  0  0  0  0  0
  188.0860  178.4930  139.7780 C   0  0  0  0  0  2  0  0  0  0  0  0
  190.0780  177.2270  138.8250 C   0  0  0  0  0  0  0  0  0  0  0  0
  189.0190  178.5240  138.2050 S   0  0  0  0  0  0  0  0  0  0  0  0
  191.2400  176.7090  138.0460 C   0  0  0  0  0  2  0  0  0  0  0  0
  190.7840  176.0370  136.7460 C   0  0  2  0  0  3  0  0  0  0  0  0
  191.4080  173.7540  136.9090 O   0  0  0  0  0  0  0  0  0  0  0  0
  189.5390  175.2460  137.0190 C   0  0  0  0  0  2  0  0  0  0  0  0
  191.7450  174.9560  136.2580 C   0  0  1  0  0  0  0  0  0  0  0  0
  191.5730  174.7960  134.8800 O   0  0  0  0  0  1  0  0  0  0  0  0
  190.0380  173.8320  137.2310 C   0  0  0  0  0  2  0  0  0  0  0  0
  193.2120  175.3090  136.5270 C   0  0  0  0  0  2  0  0  0  0  0  0
  193.8740  174.2480  137.2680 N   0  0  0  0  0  0  0  0  0  0  0  0
  195.6280  172.5100  137.0050 C   0  0  0  0  0  2  0  0  0  0  0  0
  195.6210  173.8540  138.9760 C   0  0  0  0  0  2  0  0  0  0  0  0
  195.4110  172.5020  138.4530 N   0  0  0  0  0  2  0  0  0  0  0  0
  194.7680  174.8920  138.2300 C   0  0  0  0  0  2  0  0  0  0  0  0
  194.6780  173.4950  136.3040 C   0  0  0  0  0  2  0  0  0  0  0  0
  185.2830  177.9530  144.1310 O   0  0  0  0  0  0  0  0  0  0  0  0
  184.8670  180.2230  143.8490 O   0  0  0  0  0  0  0  0  0  0  0  0
  184.5620  179.0270  143.5910 C   0  0  0  0  0  0  0  0  0  0  0  0
  183.4130  178.7470  142.6850 C   0  0  0  0  0  2  0  0  0  0  0  0
  183.3820  176.8880  140.5450 F   0  0  0  0  0  0  0  0  0  0  0  0
  183.7550  178.1710  140.2940 C   0  0  0  0  0  0  0  0  0  0  0  0
  183.7650  179.0850  141.2710 C   0  0  0  0  0  3  0  0  0  0  0  0
  184.6930  179.8960  138.8900 N   0  0  0  0  0  1  0  0  0  0  0  0
  184.1020  178.5680  138.8980 C   0  0  0  0  0  2  0  0  0  0  0  0
  1  8  1  0  0  0  0
  1  6  1  0  0  0  0
  2 12  1  0  0  0  0
  3 14  2  0  0  0  0
  3 10  1  0  0  0  0
  4 15  1  0  0  0  0
  4  8  2  0  0  0  0
  5  1  2  0  0  0  0
  7  4  1  0  0  0  0
  9  7  2  0  0  0  0
  9  5  1  0  0  0  0
 10 11  1  0  0  0  0
 11  2  2  0  0  0  0
 11  7  1  0  0  0  0
 12 15  2  0  0  0  0
 13 35  1  1  0  0  0
 13  2  1  0  0  0  0
 14 13  1  0  0  0  0
 16  3  1  0  0  0  0
 17 16  1  0  0  0  0
 18 16  1  0  0  0  0
 19 17  2  0  0  0  0
 20 19  1  0  0  0  0
 20 18  1  0  0  0  0
 21 19  1  0  0  0  0
 22 24  1  0  0  0  0
 22 21  1  1  0  0  0
 23 27  1  0  0  0  0
 24 27  1  0  0  0  0
 25 26  1  6  0  0  0
 25 28  1  0  0  0  0
 25 22  1  0  0  0  0
 25 23  1  0  0  0  0
 28 29  1  0  0  0  0
 29 33  1  0  0  0  0
 30 32  1  0  0  0  0
 32 31  1  0  0  0  0
 33 31  1  0  0  0  0
 34 30  1  0  0  0  0
 34 29  1  0  0  0  0
 37 36  2  0  0  0  0
 37 35  1  0  0  0  0
 38 37  1  0  0  0  0
 40 39  1  0  0  0  0
 40 41  2  0  0  0  0
 41 38  1  0  0  0  0
 42 43  1  0  0  0  0
 43 40  1  0  0  0  0
M  END
>  <MODEL>
2

>  <REMARK>
 VINA RESULT:      -9.0      2.806      4.770
  Name = 
  10 active torsions:
  status: ('A' for Active; 'I' for Inactive)
    1  A    between atoms: O_1  and  C_34
    2  A    between atoms: O_1  and  C_35
    3  A    between atoms: N_2  and  C_13
    4  A    between atoms: C_3  and  C_4
    5  A    between atoms: C_3  and  C_12
    6  A    between atoms: N_11  and  C_14
    7  A    between atoms: C_14  and  C_22
    8  A    between atoms: C_19  and  C_37
    9  A    between atoms: C_28  and  C_35
   10  A    between atoms: C_28  and  C_39
                            x       y       z     vdW  Elec       q    Type
                         _______ _______ _______ _____ _____    ______ ____

>  <TORSDO>
F 10

$$$$
=
 OpenBabel10262422193D

 43 48  0  0  1  0  0  0  0  0999 V2000
  183.6320  178.4620  143.7870 C   0  0  0  0  0  0  0  0  0  0  0  0
  188.6880  177.8580  143.5690 C   0  0  0  0  0  0  0  0  0  0  0  0
  189.5150  177.3720  140.7830 C   0  0  0  0  0  0  0  0  0  0  0  0
  186.0000  178.1810  144.3470 C   0  0  0  0  0  0  0  0  0  0  0  0
  183.8790  178.5300  142.4790 C   0  0  0  0  0  3  0  0  0  0  0  0
  182.3550  178.5220  144.2340 F   0  0  0  0  0  0  0  0  0  0  0  0
  186.3410  178.2230  142.9750 C   0  0  0  0  0  0  0  0  0  0  0  0
  184.7320  178.3000  144.7490 C   0  0  0  0  0  3  0  0  0  0  0  0
  185.2790  178.4830  141.9270 C   0  0  0  0  0  3  0  0  0  0  0  0
  188.1880  178.5740  140.9230 S   0  0  0  0  0  0  0  0  0  0  0  0
  187.6940  178.1040  142.5930 C   0  0  0  0  0  0  0  0  0  0  0  0
  188.3260  177.8670  144.9230 C   0  0  0  0  0  3  0  0  0  0  0  0
  189.9520  177.5240  143.2300 C   0  0  2  0  0  3  0  0  0  0  0  0
  190.2810  177.1110  141.8430 C   0  0  0  0  0  3  0  0  0  0  0  0
  186.9970  178.0310  145.3090 C   0  0  0  0  0  3  0  0  0  0  0  0
  189.8210  176.7850  139.5080 N   0  0  0  0  0  0  0  0  0  0  0  0
  188.8180  176.3400  138.6080 C   0  0  0  0  0  3  0  0  0  0  0  0
  191.1800  176.5470  139.0350 C   0  0  0  0  0  2  0  0  0  0  0  0
  189.2890  175.8170  137.4950 C   0  0  0  0  0  0  0  0  0  0  0  0
  191.0700  175.7520  137.3920 S   0  0  0  0  0  0  0  0  0  0  0  0
  188.4100  175.2390  136.4380 C   0  0  0  0  0  2  0  0  0  0  0  0
  187.3410  174.3220  137.0430 C   0  0  2  0  0  3  0  0  0  0  0  0
  185.8820  173.7230  135.2710 O   0  0  0  0  0  0  0  0  0  0  0  0
  187.6480  172.9040  136.6640 C   0  0  0  0  0  2  0  0  0  0  0  0
  185.9590  174.5220  136.4280 C   0  0  1  0  0  0  0  0  0  0  0  0
  184.9960  174.0930  137.3460 O   0  0  0  0  0  1  0  0  0  0  0  0
  186.7690  172.6440  135.4570 C   0  0  0  0  0  2  0  0  0  0  0  0
  185.6780  175.9870  136.0770 C   0  0  0  0  0  2  0  0  0  0  0  0
  184.8010  176.5980  137.0630 N   0  0  0  0  0  0  0  0  0  0  0  0
  184.6190  178.6150  138.5000 C   0  0  0  0  0  2  0  0  0  0  0  0
  182.7040  177.8940  137.2760 C   0  0  0  0  0  2  0  0  0  0  0  0
  183.2780  178.0410  138.6150 N   0  0  0  0  0  2  0  0  0  0  0  0
  183.6340  177.1050  136.3410 C   0  0  0  0  0  2  0  0  0  0  0  0
  185.5320  177.7300  137.6350 C   0  0  0  0  0  2  0  0  0  0  0  0
  190.9190  177.4090  144.2460 O   0  0  0  0  0  0  0  0  0  0  0  0
  191.8780  175.3270  143.8550 O   0  0  0  0  0  0  0  0  0  0  0  0
  191.5240  176.2190  144.6730 C   0  0  0  0  0  0  0  0  0  0  0  0
  191.7620  176.0090  146.1280 C   0  0  0  0  0  2  0  0  0  0  0  0
  189.3230  175.8800  147.5670 F   0  0  0  0  0  0  0  0  0  0  0  0
  190.0260  177.0430  147.5730 C   0  0  0  0  0  0  0  0  0  0  0  0
  191.1910  177.1410  146.9230 C   0  0  0  0  0  3  0  0  0  0  0  0
  188.1370  177.9560  148.7660 N   0  0  0  0  0  1  0  0  0  0  0  0
  189.5120  178.2010  148.3620 C   0  0  0  0  0  2  0  0  0  0  0  0
  1  6  1  0  0  0  0
  1  8  1  0  0  0  0
  2 12  1  0  0  0  0
  3 10  1  0  0  0  0
  3 14  2  0  0  0  0
  4  8  2  0  0  0  0
  4 15  1  0  0  0  0
  5  1  2  0  0  0  0
  7  4  1  0  0  0  0
  9  5  1  0  0  0  0
  9  7  2  0  0  0  0
 10 11  1  0  0  0  0
 11  7  1  0  0  0  0
 11  2  2  0  0  0  0
 12 15  2  0  0  0  0
 13  2  1  0  0  0  0
 13 35  1  1  0  0  0
 14 13  1  0  0  0  0
 16  3  1  0  0  0  0
 17 16  1  0  0  0  0
 18 16  1  0  0  0  0
 19 17  2  0  0  0  0
 20 19  1  0  0  0  0
 20 18  1  0  0  0  0
 21 19  1  0  0  0  0
 22 21  1  6  0  0  0
 23 27  1  0  0  0  0
 23 25  1  0  0  0  0
 24 22  1  0  0  0  0
 25 22  1  0  0  0  0
 25 26  1  1  0  0  0
 27 24  1  0  0  0  0
 28 25  1  0  0  0  0
 28 29  1  0  0  0  0
 29 34  1  0  0  0  0
 30 32  1  0  0  0  0
 31 32  1  0  0  0  0
 33 29  1  0  0  0  0
 33 31  1  0  0  0  0
 34 30  1  0  0  0  0
 35 37  1  0  0  0  0
 36 37  2  0  0  0  0
 37 38  1  0  0  0  0
 38 41  1  0  0  0  0
 39 40  1  0  0  0  0
 40 43  1  0  0  0  0
 41 40  2  0  0  0  0
 43 42  1  0  0  0  0
M  END
>  <MODEL>
3

>  <REMARK>
 VINA RESULT:      -8.9      2.885      5.546
  Name = 
  10 active torsions:
  status: ('A' for Active; 'I' for Inactive)
    1  A    between atoms: O_1  and  C_34
    2  A    between atoms: O_1  and  C_35
    3  A    between atoms: N_2  and  C_13
    4  A    between atoms: C_3  and  C_4
    5  A    between atoms: C_3  and  C_12
    6  A    between atoms: N_11  and  C_14
    7  A    between atoms: C_14  and  C_22
    8  A    between atoms: C_19  and  C_37
    9  A    between atoms: C_28  and  C_35
   10  A    between atoms: C_28  and  C_39
                            x       y       z     vdW  Elec       q    Type
                         _______ _______ _______ _____ _____    ______ ____

>  <TORSDO>
F 10

$$$$
=
 OpenBabel10262422193D

 43 48  0  0  1  0  0  0  0  0999 V2000
  191.2920  177.0990  147.6570 C   0  0  0  0  0  0  0  0  0  0  0  0
  186.7690  177.8910  145.4460 C   0  0  0  0  0  0  0  0  0  0  0  0
  187.0310  177.6430  142.5220 C   0  0  0  0  0  0  0  0  0  0  0  0
  188.9460  177.6490  147.2170 C   0  0  0  0  0  0  0  0  0  0  0  0
  191.5010  176.6900  146.4060 C   0  0  0  0  0  3  0  0  0  0  0  0
  192.3140  177.0940  148.5460 F   0  0  0  0  0  0  0  0  0  0  0  0
  189.0950  177.2530  145.8680 C   0  0  0  0  0  0  0  0  0  0  0  0
  189.9660  177.5770  148.0760 C   0  0  0  0  0  3  0  0  0  0  0  0
  190.4000  176.6600  145.3800 C   0  0  0  0  0  3  0  0  0  0  0  0
  188.0330  176.4550  143.4220 S   0  0  0  0  0  0  0  0  0  0  0  0
  187.9890  177.3350  144.9950 C   0  0  0  0  0  0  0  0  0  0  0  0
  186.6390  178.2340  146.8000 C   0  0  0  0  0  3  0  0  0  0  0  0
  185.7630  178.1880  144.5950 C   0  0  2  0  0  3  0  0  0  0  0  0
  185.9960  178.2240  143.1300 C   0  0  0  0  0  3  0  0  0  0  0  0
  187.7130  178.1100  147.6770 C   0  0  0  0  0  3  0  0  0  0  0  0
  187.2720  177.8750  141.1260 N   0  0  0  0  0  0  0  0  0  0  0  0
  188.5220  177.6100  140.5090 C   0  0  0  0  0  3  0  0  0  0  0  0
  186.2820  178.4450  140.2200 C   0  0  0  0  0  2  0  0  0  0  0  0
  188.5600  177.8980  139.2240 C   0  0  0  0  0  0  0  0  0  0  0  0
  187.0510  178.5890  138.5670 S   0  0  0  0  0  0  0  0  0  0  0  0
  189.7920  177.7460  138.3970 C   0  0  0  0  0  2  0  0  0  0  0  0
  190.5110  176.4280  138.7050 C   0  0  2  0  0  3  0  0  0  0  0  0
  191.8040  175.8980  136.7890 O   0  0  0  0  0  0  0  0  0  0  0  0
  191.9450  176.7230  139.0310 C   0  0  0  0  0  2  0  0  0  0  0  0
  190.6440  175.5160  137.4890 C   0  0  1  0  0  0  0  0  0  0  0  0
  190.7890  174.1990  137.9340 O   0  0  0  0  0  1  0  0  0  0  0  0
  192.6790  176.4790  137.7290 C   0  0  0  0  0  2  0  0  0  0  0  0
  189.4230  175.5860  136.5660 C   0  0  0  0  0  2  0  0  0  0  0  0
  188.5150  174.4800  136.8210 N   0  0  0  0  0  0  0  0  0  0  0  0
  186.1020  173.9970  137.1540 C   0  0  0  0  0  2  0  0  0  0  0  0
  187.3690  172.5940  135.6990 C   0  0  0  0  0  2  0  0  0  0  0  0
  186.6560  172.6540  136.9770 N   0  0  0  0  0  2  0  0  0  0  0  0
  188.4150  173.7130  135.5790 C   0  0  0  0  0  2  0  0  0  0  0  0
  187.2070  175.0650  137.1230 C   0  0  0  0  0  2  0  0  0  0  0  0
  184.5350  178.6280  145.1230 O   0  0  0  0  0  0  0  0  0  0  0  0
  183.6150  180.4210  143.9630 O   0  0  0  0  0  0  0  0  0  0  0  0
  183.5040  179.2440  144.4010 C   0  0  0  0  0  0  0  0  0  0  0  0
  182.2500  178.4840  144.1380 C   0  0  0  0  0  2  0  0  0  0  0  0
  181.9270  178.0260  141.3580 F   0  0  0  0  0  0  0  0  0  0  0  0
  181.2260  179.0330  141.9430 C   0  0  0  0  0  0  0  0  0  0  0  0
  181.3340  179.2720  143.2540 C   0  0  0  0  0  3  0  0  0  0  0  0
  179.7020  180.9050  141.9140 N   0  0  0  0  0  1  0  0  0  0  0  0
  180.2850  179.8420  141.1130 C   0  0  0  0  0  2  0  0  0  0  0  0
  1  8  1  0  0  0  0
  1  6  1  0  0  0  0
  2 12  1  0  0  0  0
  3 14  2  0  0  0  0
  3 10  1  0  0  0  0
  4 15  1  0  0  0  0
  4  8  2  0  0  0  0
  5  1  2  0  0  0  0
  7  4  1  0  0  0  0
  9  7  2  0  0  0  0
  9  5  1  0  0  0  0
 10 11  1  0  0  0  0
 11  2  2  0  0  0  0
 11  7  1  0  0  0  0
 12 15  2  0  0  0  0
 13 35  1  1  0  0  0
 13  2  1  0  0  0  0
 14 13  1  0  0  0  0
 16  3  1  0  0  0  0
 17 16  1  0  0  0  0
 18 16  1  0  0  0  0
 19 17  2  0  0  0  0
 20 19  1  0  0  0  0
 20 18  1  0  0  0  0
 21 19  1  0  0  0  0
 22 21  1  6  0  0  0
 22 24  1  0  0  0  0
 23 25  1  0  0  0  0
 23 27  1  0  0  0  0
 25 26  1  1  0  0  0
 25 22  1  0  0  0  0
 27 24  1  0  0  0  0
 28 29  1  0  0  0  0
 28 25  1  0  0  0  0
 29 34  1  0  0  0  0
 31 32  1  0  0  0  0
 32 30  1  0  0  0  0
 33 31  1  0  0  0  0
 33 29  1  0  0  0  0
 34 30  1  0  0  0  0
 36 37  2  0  0  0  0
 37 35  1  0  0  0  0
 38 37  1  0  0  0  0
 39 40  1  0  0  0  0
 40 41  2  0  0  0  0
 41 38  1  0  0  0  0
 43 42  1  0  0  0  0
 43 40  1  0  0  0  0
M  END
>  <MODEL>
4

>  <REMARK>
 VINA RESULT:      -8.8      2.318      3.029
  Name = 
  10 active torsions:
  status: ('A' for Active; 'I' for Inactive)
    1  A    between atoms: O_1  and  C_34
    2  A    between atoms: O_1  and  C_35
    3  A    between atoms: N_2  and  C_13
    4  A    between atoms: C_3  and  C_4
    5  A    between atoms: C_3  and  C_12
    6  A    between atoms: N_11  and  C_14
    7  A    between atoms: C_14  and  C_22
    8  A    between atoms: C_19  and  C_37
    9  A    between atoms: C_28  and  C_35
   10  A    between atoms: C_28  and  C_39
                            x       y       z     vdW  Elec       q    Type
                         _______ _______ _______ _____ _____    ______ ____

>  <TORSDO>
F 10

$$$$
=
 OpenBabel10262422193D

 43 48  0  0  1  0  0  0  0  0999 V2000
  180.2270  178.2550  140.0030 C   0  0  0  0  0  0  0  0  0  0  0  0
  183.6880  178.8640  143.6950 C   0  0  0  0  0  0  0  0  0  0  0  0
  186.3910  178.4090  142.6140 C   0  0  0  0  0  0  0  0  0  0  0  0
  181.3440  178.5860  142.1590 C   0  0  0  0  0  0  0  0  0  0  0  0
  181.3750  178.2950  139.3260 C   0  0  0  0  0  3  0  0  0  0  0  0
  179.0650  178.0380  139.3440 F   0  0  0  0  0  0  0  0  0  0  0  0
  182.6020  178.6180  141.5140 C   0  0  0  0  0  0  0  0  0  0  0  0
  180.2150  178.4240  141.4640 C   0  0  0  0  0  3  0  0  0  0  0  0
  182.6950  178.5480  140.0050 C   0  0  0  0  0  3  0  0  0  0  0  0
  185.3080  179.2660  141.4650 S   0  0  0  0  0  0  0  0  0  0  0  0
  183.7710  178.8010  142.2840 C   0  0  0  0  0  0  0  0  0  0  0  0
  182.4240  178.8740  144.3010 C   0  0  0  0  0  3  0  0  0  0  0  0
  184.7890  178.8200  144.4760 C   0  0  2  0  0  3  0  0  0  0  0  0
  186.1000  178.4080  143.9150 C   0  0  0  0  0  3  0  0  0  0  0  0
  181.2640  178.7410  143.5420 C   0  0  0  0  0  3  0  0  0  0  0  0
  187.6200  177.8310  142.1480 N   0  0  0  0  0  0  0  0  0  0  0  0
  188.1730  178.1270  140.8750 C   0  0  0  0  0  3  0  0  0  0  0  0
  188.3910  176.8540  142.9080 C   0  0  0  0  0  2  0  0  0  0  0  0
  189.2970  177.4910  140.6160 C   0  0  0  0  0  0  0  0  0  0  0  0
  189.8420  176.3790  141.9010 S   0  0  0  0  0  0  0  0  0  0  0  0
  190.0160  177.6170  139.3150 C   0  0  0  0  0  2  0  0  0  0  0  0
  189.9440  176.3140  138.5110 C   0  0  2  0  0  3  0  0  0  0  0  0
  190.6650  176.8350  136.3120 O   0  0  0  0  0  0  0  0  0  0  0  0
  191.3300  175.7670  138.3480 C   0  0  0  0  0  2  0  0  0  0  0  0
  189.5140  176.5250  137.0620 C   0  0  1  0  0  0  0  0  0  0  0  0
  188.9630  175.3330  136.5820 O   0  0  0  0  0  1  0  0  0  0  0  0
  191.7600  176.2460  136.9770 C   0  0  0  0  0  2  0  0  0  0  0  0
  188.4720  177.6380  136.9130 C   0  0  0  0  0  2  0  0  0  0  0  0
  187.1590  177.0850  136.6220 N   0  0  0  0  0  0  0  0  0  0  0  0
  184.7680  177.3580  137.2330 C   0  0  0  0  0  2  0  0  0  0  0  0
  185.3520  177.1290  134.9320 C   0  0  0  0  0  2  0  0  0  0  0  0
  184.6820  176.4830  136.0630 N   0  0  0  0  0  2  0  0  0  0  0  0
  186.7880  177.5470  135.2850 C   0  0  0  0  0  2  0  0  0  0  0  0
  186.2300  177.6610  137.5960 C   0  0  0  0  0  2  0  0  0  0  0  0
  184.6450  179.0050  145.8630 O   0  0  0  0  0  0  0  0  0  0  0  0
  186.0140  180.0010  147.4570 O   0  0  0  0  0  0  0  0  0  0  0  0
  185.6790  178.9730  146.8090 C   0  0  0  0  0  0  0  0  0  0  0  0
  186.3930  177.6890  147.0590 C   0  0  0  0  0  2  0  0  0  0  0  0
  188.6390  176.3890  148.2000 F   0  0  0  0  0  0  0  0  0  0  0  0
  188.8110  177.1230  147.0680 C   0  0  0  0  0  0  0  0  0  0  0  0
  187.7750  177.7370  146.4870 C   0  0  0  0  0  3  0  0  0  0  0  0
  191.1540  176.6080  147.3360 N   0  0  0  0  0  1  0  0  0  0  0  0
  190.1650  177.1920  146.4450 C   0  0  0  0  0  2  0  0  0  0  0  0
  1  8  1  0  0  0  0
  2 12  1  0  0  0  0
  2 13  1  0  0  0  0
  3 14  2  0  0  0  0
  4 15  1  0  0  0  0
  5  1  2  0  0  0  0
  5  9  1  0  0  0  0
  6  1  1  0  0  0  0
  7  4  1  0  0  0  0
  7 11  1  0  0  0  0
  8  4  2  0  0  0  0
  9  7  2  0  0  0  0
 10 11  1  0  0  0  0
 10  3  1  0  0  0  0
 11  2  2  0  0  0  0
 13 35  1  1  0  0  0
 14 13  1  0  0  0  0
 15 12  2  0  0  0  0
 16  3  1  0  0  0  0
 16 18  1  0  0  0  0
 17 16  1  0  0  0  0
 19 17  2  0  0  0  0
 19 20  1  0  0  0  0
 20 18  1  0  0  0  0
 21 19  1  0  0  0  0
 22 21  1  1  0  0  0
 23 27  1  0  0  0  0
 23 25  1  0  0  0  0
 24 22  1  0  0  0  0
 25 26  1  6  0  0  0
 25 22  1  0  0  0  0
 27 24  1  0  0  0  0
 28 25  1  0  0  0  0
 29 28  1  0  0  0  0
 29 34  1  0  0  0  0
 30 34  1  0  0  0  0
 31 33  1  0  0  0  0
 31 32  1  0  0  0  0
 32 30  1  0  0  0  0
 33 29  1  0  0  0  0
 35 37  1  0  0  0  0
 37 38  1  0  0  0  0
 37 36  2  0  0  0  0
 40 39  1  0  0  0  0
 41 38  1  0  0  0  0
 41 40  2  0  0  0  0
 43 40  1  0  0  0  0
 43 42  1  0  0  0  0
M  END
>  <MODEL>
5

>  <REMARK>
 VINA RESULT:      -8.5      2.303      5.961
  Name = 
  10 active torsions:
  status: ('A' for Active; 'I' for Inactive)
    1  A    between atoms: O_1  and  C_34
    2  A    between atoms: O_1  and  C_35
    3  A    between atoms: N_2  and  C_13
    4  A    between atoms: C_3  and  C_4
    5  A    between atoms: C_3  and  C_12
    6  A    between atoms: N_11  and  C_14
    7  A    between atoms: C_14  and  C_22
    8  A    between atoms: C_19  and  C_37
    9  A    between atoms: C_28  and  C_35
   10  A    between atoms: C_28  and  C_39
                            x       y       z     vdW  Elec       q    Type
                         _______ _______ _______ _____ _____    ______ ____

>  <TORSDO>
F 10

$$$$
=
 OpenBabel10262422193D

 43 48  0  0  1  0  0  0  0  0999 V2000
  191.4600  176.9780  147.6890 C   0  0  0  0  0  0  0  0  0  0  0  0
  187.0380  177.6050  145.2330 C   0  0  0  0  0  0  0  0  0  0  0  0
  187.5010  177.5810  142.3230 C   0  0  0  0  0  0  0  0  0  0  0  0
  189.1110  177.3920  147.1280 C   0  0  0  0  0  0  0  0  0  0  0  0
  191.7770  176.6740  146.4310 C   0  0  0  0  0  3  0  0  0  0  0  0
  192.4210  176.9830  148.6430 F   0  0  0  0  0  0  0  0  0  0  0  0
  189.3740  177.1030  145.7690 C   0  0  0  0  0  0  0  0  0  0  0  0
  190.0780  177.3310  148.0470 C   0  0  0  0  0  3  0  0  0  0  0  0
  190.7480  176.6390  145.3330 C   0  0  0  0  0  3  0  0  0  0  0  0
  188.5310  176.4060  143.2100 S   0  0  0  0  0  0  0  0  0  0  0  0
  188.3220  177.1690  144.8300 C   0  0  0  0  0  0  0  0  0  0  0  0
  186.7980  177.8420  146.5940 C   0  0  0  0  0  3  0  0  0  0  0  0
  186.0690  177.8900  144.3370 C   0  0  2  0  0  3  0  0  0  0  0  0
  186.3900  178.0450  142.8970 C   0  0  0  0  0  3  0  0  0  0  0  0
  187.8220  177.7320  147.5320 C   0  0  0  0  0  3  0  0  0  0  0  0
  187.8120  177.9270  140.9650 N   0  0  0  0  0  0  0  0  0  0  0  0
  186.8420  177.9170  139.9290 C   0  0  0  0  0  3  0  0  0  0  0  0
  189.1530  178.2740  140.5070 C   0  0  0  0  0  2  0  0  0  0  0  0
  187.3150  178.2490  138.7460 C   0  0  0  0  0  0  0  0  0  0  0  0
  189.0660  178.5940  138.7080 S   0  0  0  0  0  0  0  0  0  0  0  0
  186.4780  178.2510  137.5110 C   0  0  0  0  0  2  0  0  0  0  0  0
  186.2220  176.8250  137.0100 C   0  0  2  0  0  3  0  0  0  0  0  0
  184.7710  177.0140  135.1430 O   0  0  0  0  0  0  0  0  0  0  0  0
  187.0400  176.5900  135.7760 C   0  0  0  0  0  2  0  0  0  0  0  0
  184.8020  176.6150  136.4930 C   0  0  1  0  0  0  0  0  0  0  0  0
  184.4930  175.2540  136.5760 O   0  0  0  0  0  1  0  0  0  0  0  0
  186.0770  176.8500  134.6370 C   0  0  0  0  0  2  0  0  0  0  0  0
  183.7600  177.4000  137.2980 C   0  0  0  0  0  2  0  0  0  0  0  0
  182.6680  176.5360  137.7160 N   0  0  0  0  0  0  0  0  0  0  0  0
  181.4770  175.7770  139.7580 C   0  0  0  0  0  2  0  0  0  0  0  0
  180.1990  176.4380  137.8560 C   0  0  0  0  0  2  0  0  0  0  0  0
  180.5870  175.3040  138.6970 N   0  0  0  0  0  2  0  0  0  0  0  0
  181.4240  177.2060  137.3360 C   0  0  0  0  0  2  0  0  0  0  0  0
  182.7310  176.4480  139.1760 C   0  0  0  0  0  2  0  0  0  0  0  0
  184.7810  178.2050  144.8070 O   0  0  0  0  0  0  0  0  0  0  0  0
  184.2050  180.1510  143.6730 O   0  0  0  0  0  0  0  0  0  0  0  0
  183.8570  179.0470  144.1740 C   0  0  0  0  0  0  0  0  0  0  0  0
  182.4320  178.6220  144.0820 C   0  0  0  0  0  2  0  0  0  0  0  0
  179.8640  177.8580  143.1540 F   0  0  0  0  0  0  0  0  0  0  0  0
  180.6150  178.6970  142.3920 C   0  0  0  0  0  0  0  0  0  0  0  0
  181.8240  179.0970  142.8000 C   0  0  0  0  0  3  0  0  0  0  0  0
  181.1160  179.4050  140.1390 N   0  0  0  0  0  1  0  0  0  0  0  0
  180.0510  179.2150  141.1100 C   0  0  0  0  0  2  0  0  0  0  0  0
  1  8  1  0  0  0  0
  1  6  1  0  0  0  0
  2 12  1  0  0  0  0
  3 14  2  0  0  0  0
  3 10  1  0  0  0  0
  4 15  1  0  0  0  0
  4  8  2  0  0  0  0
  5  1  2  0  0  0  0
  7  4  1  0  0  0  0
  9  7  2  0  0  0  0
  9  5  1  0  0  0  0
 10 11  1  0  0  0  0
 11  2  2  0  0  0  0
 11  7  1  0  0  0  0
 12 15  2  0  0  0  0
 13 35  1  1  0  0  0
 13  2  1  0  0  0  0
 14 13  1  0  0  0  0
 16  3  1  0  0  0  0
 17 16  1  0  0  0  0
 18 16  1  0  0  0  0
 19 17  2  0  0  0  0
 20 19  1  0  0  0  0
 20 18  1  0  0  0  0
 21 19  1  0  0  0  0
 22 21  1  6  0  0  0
 23 25  1  0  0  0  0
 24 22  1  0  0  0  0
 25 26  1  1  0  0  0
 25 22  1  0  0  0  0
 25 28  1  0  0  0  0
 27 23  1  0  0  0  0
 27 24  1  0  0  0  0
 28 29  1  0  0  0  0
 29 34  1  0  0  0  0
 31 32  1  0  0  0  0
 32 30  1  0  0  0  0
 33 29  1  0  0  0  0
 33 31  1  0  0  0  0
 34 30  1  0  0  0  0
 36 37  2  0  0  0  0
 37 35  1  0  0  0  0
 38 37  1  0  0  0  0
 40 41  2  0  0  0  0
 40 39  1  0  0  0  0
 41 38  1  0  0  0  0
 42 43  1  0  0  0  0
 43 40  1  0  0  0  0
M  END
>  <MODEL>
6

>  <REMARK>
 VINA RESULT:      -8.2      2.586      3.669
  Name = 
  10 active torsions:
  status: ('A' for Active; 'I' for Inactive)
    1  A    between atoms: O_1  and  C_34
    2  A    between atoms: O_1  and  C_35
    3  A    between atoms: N_2  and  C_13
    4  A    between atoms: C_3  and  C_4
    5  A    between atoms: C_3  and  C_12
    6  A    between atoms: N_11  and  C_14
    7  A    between atoms: C_14  and  C_22
    8  A    between atoms: C_19  and  C_37
    9  A    between atoms: C_28  and  C_35
   10  A    between atoms: C_28  and  C_39
                            x       y       z     vdW  Elec       q    Type
                         _______ _______ _______ _____ _____    ______ ____

>  <TORSDO>
F 10

$$$$
=
 OpenBabel10262422193D

 43 48  0  0  1  0  0  0  0  0999 V2000
  188.6200  177.2460  145.3670 C   0  0  0  0  0  0  0  0  0  0  0  0
  191.0720  177.2050  140.8990 C   0  0  0  0  0  0  0  0  0  0  0  0
  189.1330  176.9050  138.7000 C   0  0  0  0  0  0  0  0  0  0  0  0
  190.3340  177.2070  143.6170 C   0  0  0  0  0  0  0  0  0  0  0  0
  187.6280  177.3840  144.4870 C   0  0  0  0  0  3  0  0  0  0  0  0
  188.3380  177.1520  146.6880 F   0  0  0  0  0  0  0  0  0  0  0  0
  189.3370  177.3310  142.6230 C   0  0  0  0  0  0  0  0  0  0  0  0
  190.0170  177.1730  144.9140 C   0  0  0  0  0  3  0  0  0  0  0  0
  187.8840  177.5090  143.0080 C   0  0  0  0  0  3  0  0  0  0  0  0
  188.5310  177.9500  140.0310 S   0  0  0  0  0  0  0  0  0  0  0  0
  189.7150  177.3730  141.2630 C   0  0  0  0  0  0  0  0  0  0  0  0
  192.0410  177.1280  141.9090 C   0  0  0  0  0  3  0  0  0  0  0  0
  191.4470  177.0220  139.6140 C   0  0  2  0  0  3  0  0  0  0  0  0
  190.4440  176.6940  138.5720 C   0  0  0  0  0  3  0  0  0  0  0  0
  191.6780  177.1340  143.2540 C   0  0  0  0  0  3  0  0  0  0  0  0
  188.2190  176.3980  137.7150 N   0  0  0  0  0  0  0  0  0  0  0  0
  186.8710  176.8320  137.6250 C   0  0  0  0  0  3  0  0  0  0  0  0
  188.5670  175.3630  136.7490 C   0  0  0  0  0  2  0  0  0  0  0  0
  186.1810  176.2460  136.6680 C   0  0  0  0  0  0  0  0  0  0  0  0
  187.0820  175.0180  135.7380 S   0  0  0  0  0  0  0  0  0  0  0  0
  184.7320  176.5150  136.4350 C   0  0  0  0  0  2  0  0  0  0  0  0
  183.8500  175.6040  137.2960 C   0  0  2  0  0  3  0  0  0  0  0  0
  181.6200  176.3600  137.0160 O   0  0  0  0  0  0  0  0  0  0  0  0
  183.1490  174.6240  136.4040 C   0  0  0  0  0  2  0  0  0  0  0  0
  182.6790  176.3380  137.9430 C   0  0  1  0  0  0  0  0  0  0  0  0
  182.2800  175.6260  139.0780 O   0  0  0  0  0  1  0  0  0  0  0  0
  181.7840  175.2400  136.1760 C   0  0  0  0  0  2  0  0  0  0  0  0
  183.0410  177.7650  138.3660 C   0  0  0  0  0  2  0  0  0  0  0  0
  183.4690  177.8030  139.7550 N   0  0  0  0  0  0  0  0  0  0  0  0
  185.0330  179.0040  141.2630 C   0  0  0  0  0  2  0  0  0  0  0  0
  182.7920  178.6290  141.9870 C   0  0  0  0  0  2  0  0  0  0  0  0
  184.1950  178.2760  142.2170 N   0  0  0  0  0  2  0  0  0  0  0  0
  182.3850  178.4160  140.5210 C   0  0  0  0  0  2  0  0  0  0  0  0
  184.6430  178.6750  139.8130 C   0  0  0  0  0  2  0  0  0  0  0  0
  192.8200  176.9790  139.3080 O   0  0  0  0  0  0  0  0  0  0  0  0
  193.7840  177.1280  137.1980 O   0  0  0  0  0  0  0  0  0  0  0  0
  193.3880  176.4140  138.1590 C   0  0  0  0  0  0  0  0  0  0  0  0
  193.5340  174.9340  138.0750 C   0  0  0  0  0  2  0  0  0  0  0  0
  195.6620  174.7850  139.9420 F   0  0  0  0  0  0  0  0  0  0  0  0
  195.9190  174.5230  138.6340 C   0  0  0  0  0  0  0  0  0  0  0  0
  194.9410  174.5640  137.7220 C   0  0  0  0  0  3  0  0  0  0  0  0
  197.9600  175.2510  137.5690 N   0  0  0  0  0  1  0  0  0  0  0  0
  197.3010  174.1340  138.2270 C   0  0  0  0  0  2  0  0  0  0  0  0
  1  6  1  0  0  0  0
  2 11  2  0  0  0  0
  2 12  1  0  0  0  0
  3 10  1  0  0  0  0
  4  8  2  0  0  0  0
  5  1  2  0  0  0  0
  7  9  2  0  0  0  0
  7  4  1  0  0  0  0
  8  1  1  0  0  0  0
  9  5  1  0  0  0  0
 10 11  1  0  0  0  0
 11  7  1  0  0  0  0
 12 15  2  0  0  0  0
 13 35  1  1  0  0  0
 13  2  1  0  0  0  0
 14  3  2  0  0  0  0
 14 13  1  0  0  0  0
 15  4  1  0  0  0  0
 16  3  1  0  0  0  0
 17 16  1  0  0  0  0
 18 16  1  0  0  0  0
 19 17  2  0  0  0  0
 20 19  1  0  0  0  0
 20 18  1  0  0  0  0
 21 19  1  0  0  0  0
 22 21  1  6  0  0  0
 22 25  1  0  0  0  0
 23 25  1  0  0  0  0
 24 22  1  0  0  0  0
 25 28  1  0  0  0  0
 25 26  1  1  0  0  0
 27 24  1  0  0  0  0
 27 23  1  0  0  0  0
 28 29  1  0  0  0  0
 29 34  1  0  0  0  0
 29 33  1  0  0  0  0
 30 32  1  0  0  0  0
 31 32  1  0  0  0  0
 33 31  1  0  0  0  0
 34 30  1  0  0  0  0
 36 37  2  0  0  0  0
 37 35  1  0  0  0  0
 38 37  1  0  0  0  0
 40 39  1  0  0  0  0
 41 38  1  0  0  0  0
 41 40  2  0  0  0  0
 42 43  1  0  0  0  0
 43 40  1  0  0  0  0
M  END
>  <MODEL>
7

>  <REMARK>
 VINA RESULT:      -8.1      3.867      8.139
  Name = 
  10 active torsions:
  status: ('A' for Active; 'I' for Inactive)
    1  A    between atoms: O_1  and  C_34
    2  A    between atoms: O_1  and  C_35
    3  A    between atoms: N_2  and  C_13
    4  A    between atoms: C_3  and  C_4
    5  A    between atoms: C_3  and  C_12
    6  A    between atoms: N_11  and  C_14
    7  A    between atoms: C_14  and  C_22
    8  A    between atoms: C_19  and  C_37
    9  A    between atoms: C_28  and  C_35
   10  A    between atoms: C_28  and  C_39
                            x       y       z     vdW  Elec       q    Type
                         _______ _______ _______ _____ _____    ______ ____

>  <TORSDO>
F 10

$$$$
=
 OpenBabel10262422193D

 43 48  0  0  1  0  0  0  0  0999 V2000
  183.6080  178.8940  144.8200 C   0  0  0  0  0  0  0  0  0  0  0  0
  188.1920  177.2590  143.3050 C   0  0  0  0  0  0  0  0  0  0  0  0
  188.4160  177.4910  140.3760 C   0  0  0  0  0  0  0  0  0  0  0  0
  185.8560  177.9240  144.7320 C   0  0  0  0  0  0  0  0  0  0  0  0
  183.6640  179.3080  143.5540 C   0  0  0  0  0  3  0  0  0  0  0  0
  182.4840  179.1000  145.5450 F   0  0  0  0  0  0  0  0  0  0  0  0
  185.9830  178.3130  143.3780 C   0  0  0  0  0  0  0  0  0  0  0  0
  184.7500  178.1960  145.4290 C   0  0  0  0  0  3  0  0  0  0  0  0
  184.8930  179.1190  142.7040 C   0  0  0  0  0  3  0  0  0  0  0  0
  187.5210  178.8570  141.1240 S   0  0  0  0  0  0  0  0  0  0  0  0
  187.1720  178.0160  142.6800 C   0  0  0  0  0  0  0  0  0  0  0  0
  188.0560  176.9270  144.6600 C   0  0  0  0  0  3  0  0  0  0  0  0
  189.2430  176.7700  142.6110 C   0  0  2  0  0  3  0  0  0  0  0  0
  189.2270  176.7460  141.1280 C   0  0  0  0  0  3  0  0  0  0  0  0
  186.9030  177.2600  145.3680 C   0  0  0  0  0  3  0  0  0  0  0  0
  188.3460  177.2770  138.9580 N   0  0  0  0  0  0  0  0  0  0  0  0
  187.1200  177.2580  138.2440 C   0  0  0  0  0  3  0  0  0  0  0  0
  189.5130  177.0140  138.1230 C   0  0  0  0  0  2  0  0  0  0  0  0
  187.2530  177.0340  136.9530 C   0  0  0  0  0  0  0  0  0  0  0  0
  188.9310  176.7680  136.4070 S   0  0  0  0  0  0  0  0  0  0  0  0
  186.0880  176.9200  136.0270 C   0  0  0  0  0  2  0  0  0  0  0  0
  185.2230  175.7010  136.3680 C   0  0  2  0  0  3  0  0  0  0  0  0
  183.0460  176.1660  135.5520 O   0  0  0  0  0  0  0  0  0  0  0  0
  185.0230  174.8860  135.1260 C   0  0  0  0  0  2  0  0  0  0  0  0
  183.7900  176.0660  136.7430 C   0  0  1  0  0  0  0  0  0  0  0  0
  183.2590  175.0400  137.5300 O   0  0  0  0  0  1  0  0  0  0  0  0
  183.6720  175.3310  134.6040 C   0  0  0  0  0  2  0  0  0  0  0  0
  183.7040  177.3780  137.5310 C   0  0  0  0  0  2  0  0  0  0  0  0
  182.5110  177.4080  138.3610 N   0  0  0  0  0  0  0  0  0  0  0  0
  181.7580  178.0430  140.6400 C   0  0  0  0  0  2  0  0  0  0  0  0
  180.4430  178.7060  138.7640 C   0  0  0  0  0  2  0  0  0  0  0  0
  180.4840  177.8440  139.9460 N   0  0  0  0  0  2  0  0  0  0  0  0
  181.6730  178.4990  137.8660 C   0  0  0  0  0  2  0  0  0  0  0  0
  182.9480  177.7260  139.7210 C   0  0  0  0  0  2  0  0  0  0  0  0
  190.2790  176.1280  143.3140 O   0  0  0  0  0  0  0  0  0  0  0  0
  192.1080  177.5630  143.2950 O   0  0  0  0  0  0  0  0  0  0  0  0
  191.3700  176.7590  143.9260 C   0  0  0  0  0  0  0  0  0  0  0  0
  191.6590  176.4770  145.3600 C   0  0  0  0  0  2  0  0  0  0  0  0
  190.2190  175.7560  147.6930 F   0  0  0  0  0  0  0  0  0  0  0  0
  190.2570  177.0640  147.3240 C   0  0  0  0  0  0  0  0  0  0  0  0
  190.9400  177.4500  146.2410 C   0  0  0  0  0  3  0  0  0  0  0  0
  188.2570  177.5950  148.5670 N   0  0  0  0  0  1  0  0  0  0  0  0
  189.5700  178.0800  148.1750 C   0  0  0  0  0  2  0  0  0  0  0  0
  1  8  1  0  0  0  0
  1  6  1  0  0  0  0
  2 12  1  0  0  0  0
  3 10  1  0  0  0  0
  3 14  2  0  0  0  0
  4 15  1  0  0  0  0
  4  8  2  0  0  0  0
  5  1  2  0  0  0  0
  7  4  1  0  0  0  0
  9  7  2  0  0  0  0
  9  5  1  0  0  0  0
 10 11  1  0  0  0  0
 11  2  2  0  0  0  0
 11  7  1  0  0  0  0
 12 15  2  0  0  0  0
 13  2  1  0  0  0  0
 13 35  1  1  0  0  0
 14 13  1  0  0  0  0
 16  3  1  0  0  0  0
 17 16  1  0  0  0  0
 18 16  1  0  0  0  0
 19 17  2  0  0  0  0
 20 19  1  0  0  0  0
 20 18  1  0  0  0  0
 21 19  1  0  0  0  0
 22 21  1  6  0  0  0
 22 25  1  0  0  0  0
 23 25  1  0  0  0  0
 24 22  1  0  0  0  0
 25 26  1  1  0  0  0
 25 28  1  0  0  0  0
 27 24  1  0  0  0  0
 27 23  1  0  0  0  0
 28 29  1  0  0  0  0
 29 34  1  0  0  0  0
 31 32  1  0  0  0  0
 32 30  1  0  0  0  0
 33 29  1  0  0  0  0
 33 31  1  0  0  0  0
 34 30  1  0  0  0  0
 35 37  1  0  0  0  0
 36 37  2  0  0  0  0
 37 38  1  0  0  0  0
 38 41  1  0  0  0  0
 40 39  1  0  0  0  0
 40 43  1  0  0  0  0
 41 40  2  0  0  0  0
 43 42  1  0  0  0  0
M  END
>  <MODEL>
8

>  <REMARK>
 VINA RESULT:      -8.0      2.990      6.088
  Name = 
  10 active torsions:
  status: ('A' for Active; 'I' for Inactive)
    1  A    between atoms: O_1  and  C_34
    2  A    between atoms: O_1  and  C_35
    3  A    between atoms: N_2  and  C_13
    4  A    between atoms: C_3  and  C_4
    5  A    between atoms: C_3  and  C_12
    6  A    between atoms: N_11  and  C_14
    7  A    between atoms: C_14  and  C_22
    8  A    between atoms: C_19  and  C_37
    9  A    between atoms: C_28  and  C_35
   10  A    between atoms: C_28  and  C_39
                            x       y       z     vdW  Elec       q    Type
                         _______ _______ _______ _____ _____    ______ ____

>  <TORSDO>
F 10

$$$$
=
 OpenBabel10262422193D

 43 48  0  0  1  0  0  0  0  0999 V2000
  188.6680  177.2860  145.3360 C   0  0  0  0  0  0  0  0  0  0  0  0
  191.0440  177.2500  140.8270 C   0  0  0  0  0  0  0  0  0  0  0  0
  189.0560  177.1820  138.6530 C   0  0  0  0  0  0  0  0  0  0  0  0
  190.3490  177.1940  143.5560 C   0  0  0  0  0  0  0  0  0  0  0  0
  187.6760  177.5320  144.4800 C   0  0  0  0  0  3  0  0  0  0  0  0
  188.3990  177.1580  146.6570 F   0  0  0  0  0  0  0  0  0  0  0  0
  189.3490  177.4310  142.5850 C   0  0  0  0  0  0  0  0  0  0  0  0
  190.0490  177.1300  144.8560 C   0  0  0  0  0  3  0  0  0  0  0  0
  187.9180  177.6980  143.0030 C   0  0  0  0  0  3  0  0  0  0  0  0
  188.5520  178.2130  140.0350 S   0  0  0  0  0  0  0  0  0  0  0  0
  189.7080  177.5020  141.2220 C   0  0  0  0  0  0  0  0  0  0  0  0
  192.0200  177.0620  141.8160 C   0  0  0  0  0  3  0  0  0  0  0  0
  191.3850  177.0930  139.5300 C   0  0  2  0  0  3  0  0  0  0  0  0
  190.3450  176.8820  138.4930 C   0  0  0  0  0  3  0  0  0  0  0  0
  191.6780  177.0380  143.1660 C   0  0  0  0  0  3  0  0  0  0  0  0
  188.0920  176.7840  137.6650 N   0  0  0  0  0  0  0  0  0  0  0  0
  186.7150  177.1120  137.7610 C   0  0  0  0  0  3  0  0  0  0  0  0
  188.4210  175.9710  136.5000 C   0  0  0  0  0  2  0  0  0  0  0  0
  185.9820  176.6490  136.7690 C   0  0  0  0  0  0  0  0  0  0  0  0
  186.8770  175.6880  135.5610 S   0  0  0  0  0  0  0  0  0  0  0  0
  184.5030  176.8330  136.7030 C   0  0  0  0  0  2  0  0  0  0  0  0
  183.7740  175.8040  137.5750 C   0  0  2  0  0  3  0  0  0  0  0  0
  181.4690  176.3570  137.4910 O   0  0  0  0  0  0  0  0  0  0  0  0
  183.1010  174.8030  136.6850 C   0  0  0  0  0  2  0  0  0  0  0  0
  182.5920  176.3940  138.3390 C   0  0  1  0  0  0  0  0  0  0  0  0
  182.3450  175.5970  139.4610 O   0  0  0  0  0  1  0  0  0  0  0  0
  181.6730  175.2960  136.5850 C   0  0  0  0  0  2  0  0  0  0  0  0
  182.8520  177.8290  138.8090 C   0  0  0  0  0  2  0  0  0  0  0  0
  183.3600  177.8460  140.1710 N   0  0  0  0  0  0  0  0  0  0  0  0
  185.0170  179.0180  141.6010 C   0  0  0  0  0  2  0  0  0  0  0  0
  182.8190  178.6480  142.4490 C   0  0  0  0  0  2  0  0  0  0  0  0
  184.2300  178.2840  142.5920 N   0  0  0  0  0  2  0  0  0  0  0  0
  182.3260  178.4570  141.0060 C   0  0  0  0  0  2  0  0  0  0  0  0
  184.5420  178.7100  140.1720 C   0  0  0  0  0  2  0  0  0  0  0  0
  192.7460  176.9630  139.1970 O   0  0  0  0  0  0  0  0  0  0  0  0
  193.7150  177.0290  137.0850 O   0  0  0  0  0  0  0  0  0  0  0  0
  193.2560  176.3510  138.0440 C   0  0  0  0  0  0  0  0  0  0  0  0
  193.2610  174.8640  137.9540 C   0  0  0  0  0  2  0  0  0  0  0  0
  190.6780  173.7510  137.5990 F   0  0  0  0  0  0  0  0  0  0  0  0
  191.4910  173.8790  136.5180 C   0  0  0  0  0  0  0  0  0  0  0  0
  192.7100  174.4160  136.6370 C   0  0  0  0  0  3  0  0  0  0  0  0
  189.7770  172.6700  135.3220 N   0  0  0  0  0  1  0  0  0  0  0  0
  190.9880  173.4620  135.1760 C   0  0  0  0  0  2  0  0  0  0  0  0
  1  6  1  0  0  0  0
  2 11  2  0  0  0  0
  2 12  1  0  0  0  0
  3 10  1  0  0  0  0
  4  8  2  0  0  0  0
  5  1  2  0  0  0  0
  7  9  2  0  0  0  0
  7  4  1  0  0  0  0
  8  1  1  0  0  0  0
  9  5  1  0  0  0  0
 10 11  1  0  0  0  0
 11  7  1  0  0  0  0
 12 15  2  0  0  0  0
 13 35  1  1  0  0  0
 13  2  1  0  0  0  0
 14  3  2  0  0  0  0
 14 13  1  0  0  0  0
 15  4  1  0  0  0  0
 16 17  1  0  0  0  0
 16  3  1  0  0  0  0
 18 16  1  0  0  0  0
 19 17  2  0  0  0  0
 20 18  1  0  0  0  0
 20 19  1  0  0  0  0
 21 19  1  0  0  0  0
 22 21  1  6  0  0  0
 22 25  1  0  0  0  0
 23 25  1  0  0  0  0
 24 22  1  0  0  0  0
 25 28  1  0  0  0  0
 25 26  1  1  0  0  0
 27 24  1  0  0  0  0
 27 23  1  0  0  0  0
 28 29  1  0  0  0  0
 29 34  1  0  0  0  0
 29 33  1  0  0  0  0
 30 32  1  0  0  0  0
 31 32  1  0  0  0  0
 33 31  1  0  0  0  0
 34 30  1  0  0  0  0
 36 37  2  0  0  0  0
 37 35  1  0  0  0  0
 38 37  1  0  0  0  0
 40 41  2  0  0  0  0
 40 39  1  0  0  0  0
 41 38  1  0  0  0  0
 43 42  1  0  0  0  0
 43 40  1  0  0  0  0
M  END
>  <MODEL>
9

>  <REMARK>
 VINA RESULT:      -7.8      3.242      7.423
  Name = 
  10 active torsions:
  status: ('A' for Active; 'I' for Inactive)
    1  A    between atoms: O_1  and  C_34
    2  A    between atoms: O_1  and  C_35
    3  A    between atoms: N_2  and  C_13
    4  A    between atoms: C_3  and  C_4
    5  A    between atoms: C_3  and  C_12
    6  A    between atoms: N_11  and  C_14
    7  A    between atoms: C_14  and  C_22
    8  A    between atoms: C_19  and  C_37
    9  A    between atoms: C_28  and  C_35
   10  A    between atoms: C_28  and  C_39
                            x       y       z     vdW  Elec       q    Type
                         _______ _______ _______ _____ _____    ______ ____

>  <TORSDO>
F 10

$$$$
