=
 OpenBabel10262421113D

 32 37  0  0  0  0  0  0  0  0999 V2000
  185.6610  178.1860  144.5660 C   0  0  0  0  0  0  0  0  0  0  0  0
  187.9030  177.6910  144.0680 N   0  0  0  0  0  0  0  0  0  0  0  0
  184.7660  178.5010  145.6090 C   0  0  0  0  0  3  0  0  0  0  0  0
  186.9510  177.9030  144.9410 C   0  0  0  0  0  0  0  0  0  0  0  0
  189.0570  177.5740  144.7130 C   0  0  0  0  0  0  0  0  0  0  0  0
  190.0200  177.4850  139.8280 C   0  0  0  0  0  3  0  0  0  0  0  0
  187.7270  177.7450  142.7440 C   0  0  0  0  0  0  0  0  0  0  0  0
  191.3070  177.3150  141.8800 C   0  0  0  0  0  3  0  0  0  0  0  0
  190.1400  177.4490  142.6360 C   0  0  0  0  0  0  0  0  0  0  0  0
  187.4460  177.9360  146.2100 C   0  0  0  0  0  0  0  0  0  0  0  0
  190.2130  177.4550  144.0110 N   0  0  0  0  0  0  0  0  0  0  0  0
  186.5940  178.2500  147.2710 C   0  0  0  0  0  3  0  0  0  0  0  0
  186.4600  177.9920  142.2770 N   0  0  0  0  0  0  0  0  0  0  0  0
  185.4100  178.1920  143.1600 C   0  0  0  0  0  0  0  0  0  0  0  0
  188.8800  177.6030  141.9580 C   0  0  0  0  0  0  0  0  0  0  0  0
  188.8330  177.7050  146.0940 C   0  0  0  0  0  0  0  0  0  0  0  0
  185.2340  178.5220  146.9560 C   0  0  0  0  0  3  0  0  0  0  0  0
  191.2460  177.3310  140.4830 C   0  0  0  0  0  3  0  0  0  0  0  0
  188.8370  177.6230  140.5610 C   0  0  0  0  0  3  0  0  0  0  0  0
  182.5500  178.9960  140.7910 C   0  0  0  0  0  0  0  0  0  0  0  0
  182.3160  179.2260  139.4740 F   0  0  0  0  0  0  0  0  0  0  0  0
  184.0710  178.4880  142.6200 C   0  0  0  0  0  0  0  0  0  0  0  0
  181.4840  179.0420  141.6920 C   0  0  0  0  0  3  0  0  0  0  0  0
  182.9940  178.5520  143.5140 C   0  0  0  0  0  3  0  0  0  0  0  0
  183.8500  178.7290  141.2460 C   0  0  0  0  0  0  0  0  0  0  0  0
  185.1810  178.7700  140.0920 Cl  0  0  0  0  0  0  0  0  0  0  0  0
  181.7070  178.8310  143.0530 C   0  0  0  0  0  0  0  0  0  0  0  0
  179.7340  177.7680  143.7870 O   0  0  0  0  0  1  0  0  0  0  0  0
  180.5660  178.8650  144.0080 C   0  0  0  0  0  2  0  0  0  0  0  0
  189.8570  177.7730  147.1750 C   0  0  0  0  0  2  0  0  0  0  0  0
  190.6490  176.4810  147.2190 C   0  0  0  0  0  2  0  0  0  0  0  0
  191.9930  176.7510  146.9680 O   0  0  0  0  0  1  0  0  0  0  0  0
  1  4  1  0  0  0  0
  1  3  2  0  0  0  0
  2  5  1  0  0  0  0
  2  4  1  0  0  0  0
  3 17  1  0  0  0  0
  4 10  2  0  0  0  0
  5 16  2  0  0  0  0
  6 18  1  0  0  0  0
  6 19  2  0  0  0  0
  7  2  1  0  0  0  0
  8  9  1  0  0  0  0
  9 11  2  0  0  0  0
 10 12  1  0  0  0  0
 11  5  1  0  0  0  0
 13  7  1  0  0  0  0
 13 14  2  0  0  0  0
 14  1  1  0  0  0  0
 15  9  1  0  0  0  0
 15  7  2  0  0  0  0
 16 10  1  0  0  0  0
 16 30  1  0  0  0  0
 17 12  2  0  0  0  0
 18  8  2  0  0  0  0
 19 15  1  0  0  0  0
 20 25  2  0  0  0  0
 20 23  1  0  0  0  0
 21 20  1  0  0  0  0
 22 14  1  0  0  0  0
 22 24  2  0  0  0  0
 23 27  2  0  0  0  0
 25 22  1  0  0  0  0
 26 25  1  0  0  0  0
 27 24  1  0  0  0  0
 27 29  1  0  0  0  0
 28 29  1  0  0  0  0
 30 31  1  0  0  0  0
 32 31  1  0  0  0  0
M  END
>  <MODEL>
1

>  <REMARK>
 VINA RESULT:     -11.2      0.000      0.000
  Name = 
  4 active torsions:
  status: ('A' for Active; 'I' for Inactive)
    1  A    between atoms: C_13  and  C_18
    2  A    between atoms: C_15  and  C_26
    3  A    between atoms: C_16  and  C_27
    4  A    between atoms: C_18  and  C_29
                            x       y       z     vdW  Elec       q    Type
                         _______ _______ _______ _____ _____    ______ ____

>  <TORSDO>
F 4

$$$$
=
 OpenBabel10262421113D

 32 37  0  0  0  0  0  0  0  0999 V2000
  189.6200  177.2260  142.5750 C   0  0  0  0  0  0  0  0  0  0  0  0
  187.9680  177.7900  144.1480 N   0  0  0  0  0  0  0  0  0  0  0  0
  190.9180  176.6950  142.4230 C   0  0  0  0  0  3  0  0  0  0  0  0
  189.1850  177.3990  143.8650 C   0  0  0  0  0  0  0  0  0  0  0  0
  187.7970  177.7400  145.4630 C   0  0  0  0  0  0  0  0  0  0  0  0
  183.4240  178.9230  143.3940 C   0  0  0  0  0  3  0  0  0  0  0  0
  187.0320  178.0390  143.2260 C   0  0  0  0  0  0  0  0  0  0  0  0
  184.2790  178.6040  145.6450 C   0  0  0  0  0  3  0  0  0  0  0  0
  185.5470  178.3190  145.1340 C   0  0  0  0  0  0  0  0  0  0  0  0
  189.8700  177.0710  144.9970 C   0  0  0  0  0  0  0  0  0  0  0  0
  186.5740  178.0000  145.9940 N   0  0  0  0  0  0  0  0  0  0  0  0
  191.1560  176.5370  144.8890 C   0  0  0  0  0  3  0  0  0  0  0  0
  187.3880  177.9230  141.9060 N   0  0  0  0  0  0  0  0  0  0  0  0
  188.6740  177.5420  141.5540 C   0  0  0  0  0  0  0  0  0  0  0  0
  185.7500  178.3410  143.7090 C   0  0  0  0  0  0  0  0  0  0  0  0
  188.9860  177.3030  146.0710 C   0  0  0  0  0  0  0  0  0  0  0  0
  191.6820  176.3620  143.5800 C   0  0  0  0  0  3  0  0  0  0  0  0
  183.2230  178.9060  144.7780 C   0  0  0  0  0  3  0  0  0  0  0  0
  184.6840  178.6390  142.8570 C   0  0  0  0  0  3  0  0  0  0  0  0
  188.5140  177.6690  137.7590 C   0  0  0  0  0  0  0  0  0  0  0  0
  187.6940  178.0810  136.7600 F   0  0  0  0  0  0  0  0  0  0  0  0
  189.0080  177.3960  140.1250 C   0  0  0  0  0  0  0  0  0  0  0  0
  189.7360  177.0720  137.4370 C   0  0  0  0  0  3  0  0  0  0  0  0
  190.2220  176.7860  139.7870 C   0  0  0  0  0  3  0  0  0  0  0  0
  188.1370  177.8270  139.1010 C   0  0  0  0  0  0  0  0  0  0  0  0
  186.5490  178.5010  139.4640 Cl  0  0  0  0  0  0  0  0  0  0  0  0
  190.5840  176.6210  138.4490 C   0  0  0  0  0  0  0  0  0  0  0  0
  191.7350  174.6210  137.9590 O   0  0  0  0  0  1  0  0  0  0  0  0
  191.8920  176.0000  138.1020 C   0  0  0  0  0  2  0  0  0  0  0  0
  189.2000  176.9770  147.5090 C   0  0  0  0  0  2  0  0  0  0  0  0
  189.1020  178.2380  148.3450 C   0  0  0  0  0  2  0  0  0  0  0  0
  187.9740  178.1670  149.1610 O   0  0  0  0  0  1  0  0  0  0  0  0
  1  4  1  0  0  0  0
  2  5  1  0  0  0  0
  3  1  2  0  0  0  0
  3 17  1  0  0  0  0
  4  2  1  0  0  0  0
  4 10  2  0  0  0  0
  5 11  1  0  0  0  0
  5 16  2  0  0  0  0
  6 18  1  0  0  0  0
  7 15  2  0  0  0  0
  7  2  1  0  0  0  0
  9  8  1  0  0  0  0
  9 11  2  0  0  0  0
 10 16  1  0  0  0  0
 12 10  1  0  0  0  0
 13  7  1  0  0  0  0
 14 13  2  0  0  0  0
 14  1  1  0  0  0  0
 15  9  1  0  0  0  0
 16 30  1  0  0  0  0
 17 12  2  0  0  0  0
 18  8  2  0  0  0  0
 19  6  2  0  0  0  0
 19 15  1  0  0  0  0
 20 25  1  0  0  0  0
 21 20  1  0  0  0  0
 22 14  1  0  0  0  0
 23 20  2  0  0  0  0
 23 27  1  0  0  0  0
 24 22  1  0  0  0  0
 25 26  1  0  0  0  0
 25 22  2  0  0  0  0
 27 24  2  0  0  0  0
 28 29  1  0  0  0  0
 29 27  1  0  0  0  0
 30 31  1  0  0  0  0
 31 32  1  0  0  0  0
M  END
>  <MODEL>
2

>  <REMARK>
 VINA RESULT:     -11.2      2.591      6.322
  Name = 
  4 active torsions:
  status: ('A' for Active; 'I' for Inactive)
    1  A    between atoms: C_13  and  C_18
    2  A    between atoms: C_15  and  C_26
    3  A    between atoms: C_16  and  C_27
    4  A    between atoms: C_18  and  C_29
                            x       y       z     vdW  Elec       q    Type
                         _______ _______ _______ _____ _____    ______ ____

>  <TORSDO>
F 4

$$$$
=
 OpenBabel10262421113D

 32 37  0  0  0  0  0  0  0  0999 V2000
  186.8630  178.1460  143.6890 C   0  0  0  0  0  0  0  0  0  0  0  0
  186.7900  178.4100  141.3560 N   0  0  0  0  0  0  0  0  0  0  0  0
  186.0770  178.1140  144.8590 C   0  0  0  0  0  3  0  0  0  0  0  0
  186.2010  178.4420  142.5240 C   0  0  0  0  0  0  0  0  0  0  0  0
  185.8800  178.6100  140.4110 C   0  0  0  0  0  0  0  0  0  0  0  0
  190.2040  177.5720  138.1720 C   0  0  0  0  0  3  0  0  0  0  0  0
  188.0710  178.0730  141.1760 C   0  0  0  0  0  0  0  0  0  0  0  0
  187.9470  178.1280  137.4700 C   0  0  0  0  0  3  0  0  0  0  0  0
  187.5440  178.2210  138.8040 C   0  0  0  0  0  0  0  0  0  0  0  0
  184.8630  178.6660  142.3930 C   0  0  0  0  0  0  0  0  0  0  0  0
  186.2320  178.5150  139.1030 N   0  0  0  0  0  0  0  0  0  0  0  0
  184.0480  178.6360  143.5270 C   0  0  0  0  0  3  0  0  0  0  0  0
  188.8210  177.7910  142.2900 N   0  0  0  0  0  0  0  0  0  0  0  0
  188.2510  177.8420  143.5530 C   0  0  0  0  0  0  0  0  0  0  0  0
  188.5080  177.9820  139.8460 C   0  0  0  0  0  0  0  0  0  0  0  0
  184.6220  178.7990  141.0090 C   0  0  0  0  0  0  0  0  0  0  0  0
  184.6770  178.3670  144.7740 C   0  0  0  0  0  3  0  0  0  0  0  0
  189.2710  177.8070  137.1560 C   0  0  0  0  0  3  0  0  0  0  0  0
  189.8260  177.6560  139.5150 C   0  0  0  0  0  3  0  0  0  0  0  0
  191.0060  176.4340  145.7610 C   0  0  0  0  0  0  0  0  0  0  0  0
  192.1380  175.6910  145.6750 F   0  0  0  0  0  0  0  0  0  0  0  0
  189.0810  177.4990  144.7230 C   0  0  0  0  0  0  0  0  0  0  0  0
  190.5900  176.9030  147.0090 C   0  0  0  0  0  3  0  0  0  0  0  0
  188.6690  177.9490  145.9830 C   0  0  0  0  0  3  0  0  0  0  0  0
  190.2530  176.7200  144.6120 C   0  0  0  0  0  0  0  0  0  0  0  0
  190.7610  176.0340  143.0700 Cl  0  0  0  0  0  0  0  0  0  0  0  0
  189.4170  177.6500  147.1230 C   0  0  0  0  0  0  0  0  0  0  0  0
  187.8190  177.5080  148.8520 O   0  0  0  0  0  1  0  0  0  0  0  0
  188.9850  178.1610  148.4530 C   0  0  0  0  0  2  0  0  0  0  0  0
  183.3030  178.9210  140.3260 C   0  0  0  0  0  2  0  0  0  0  0  0
  182.6660  177.5530  140.1820 C   0  0  0  0  0  2  0  0  0  0  0  0
  183.0730  176.9760  138.9800 O   0  0  0  0  0  1  0  0  0  0  0  0
  1  3  2  0  0  0  0
  2  4  1  0  0  0  0
  4  1  1  0  0  0  0
  5 16  2  0  0  0  0
  5  2  1  0  0  0  0
  6 19  2  0  0  0  0
  7  2  1  0  0  0  0
  7 13  1  0  0  0  0
  8  9  1  0  0  0  0
  9 11  2  0  0  0  0
  9 15  1  0  0  0  0
 10  4  2  0  0  0  0
 10 12  1  0  0  0  0
 11  5  1  0  0  0  0
 12 17  2  0  0  0  0
 13 14  2  0  0  0  0
 14  1  1  0  0  0  0
 14 22  1  0  0  0  0
 15  7  2  0  0  0  0
 16 10  1  0  0  0  0
 17  3  1  0  0  0  0
 18  8  2  0  0  0  0
 18  6  1  0  0  0  0
 19 15  1  0  0  0  0
 20 23  1  0  0  0  0
 21 20  1  0  0  0  0
 22 24  2  0  0  0  0
 23 27  2  0  0  0  0
 24 27  1  0  0  0  0
 25 22  1  0  0  0  0
 25 20  2  0  0  0  0
 26 25  1  0  0  0  0
 27 29  1  0  0  0  0
 29 28  1  0  0  0  0
 30 16  1  0  0  0  0
 31 30  1  0  0  0  0
 32 31  1  0  0  0  0
M  END
>  <MODEL>
3

>  <REMARK>
 VINA RESULT:     -11.0      3.177      6.676
  Name = 
  4 active torsions:
  status: ('A' for Active; 'I' for Inactive)
    1  A    between atoms: C_13  and  C_18
    2  A    between atoms: C_15  and  C_26
    3  A    between atoms: C_16  and  C_27
    4  A    between atoms: C_18  and  C_29
                            x       y       z     vdW  Elec       q    Type
                         _______ _______ _______ _____ _____    ______ ____

>  <TORSDO>
F 4

$$$$
=
 OpenBabel10262421113D

 32 37  0  0  0  0  0  0  0  0999 V2000
  187.2430  178.0020  141.6860 C   0  0  0  0  0  0  0  0  0  0  0  0
  186.7980  177.9610  143.9930 N   0  0  0  0  0  0  0  0  0  0  0  0
  186.7130  178.3500  140.4270 C   0  0  0  0  0  3  0  0  0  0  0  0
  186.4020  178.1540  142.7600 C   0  0  0  0  0  0  0  0  0  0  0  0
  185.8170  178.3080  144.8170 C   0  0  0  0  0  0  0  0  0  0  0  0
  189.8030  177.1710  147.5770 C   0  0  0  0  0  3  0  0  0  0  0  0
  188.0460  177.6190  144.3310 C   0  0  0  0  0  0  0  0  0  0  0  0
  187.5150  177.8730  147.9920 C   0  0  0  0  0  3  0  0  0  0  0  0
  187.2660  177.9090  146.6180 C   0  0  0  0  0  0  0  0  0  0  0  0
  185.1310  178.6430  142.7240 C   0  0  0  0  0  0  0  0  0  0  0  0
  186.0270  178.2960  146.1590 N   0  0  0  0  0  0  0  0  0  0  0  0
  184.5700  179.0050  141.4970 C   0  0  0  0  0  3  0  0  0  0  0  0
  188.9480  177.4130  143.3180 N   0  0  0  0  0  0  0  0  0  0  0  0
  188.5710  177.5740  141.9940 C   0  0  0  0  0  0  0  0  0  0  0  0
  188.3230  177.5630  145.7050 C   0  0  0  0  0  0  0  0  0  0  0  0
  184.7100  178.7390  144.0660 C   0  0  0  0  0  0  0  0  0  0  0  0
  185.3780  178.8410  140.3380 C   0  0  0  0  0  3  0  0  0  0  0  0
  188.7770  177.5030  148.4680 C   0  0  0  0  0  3  0  0  0  0  0  0
  189.5800  177.2020  146.1970 C   0  0  0  0  0  3  0  0  0  0  0  0
  191.8770  177.2500  140.1470 C   0  0  0  0  0  0  0  0  0  0  0  0
  193.2120  177.3180  140.3740 F   0  0  0  0  0  0  0  0  0  0  0  0
  189.5790  177.3770  140.9360 C   0  0  0  0  0  0  0  0  0  0  0  0
  191.4160  176.9850  138.8550 C   0  0  0  0  0  3  0  0  0  0  0  0
  189.1330  177.1260  139.6330 C   0  0  0  0  0  3  0  0  0  0  0  0
  190.9650  177.4560  141.1940 C   0  0  0  0  0  0  0  0  0  0  0  0
  191.5840  177.8770  142.7890 Cl  0  0  0  0  0  0  0  0  0  0  0  0
  190.0460  176.9350  138.5950 C   0  0  0  0  0  0  0  0  0  0  0  0
  188.1660  176.5810  137.2160 O   0  0  0  0  0  1  0  0  0  0  0  0
  189.5600  176.6370  137.2200 C   0  0  0  0  0  2  0  0  0  0  0  0
  183.4470  179.3410  144.5810 C   0  0  0  0  0  2  0  0  0  0  0  0
  182.2520  178.6280  143.9790 C   0  0  0  0  0  2  0  0  0  0  0  0
  181.5100  179.5280  143.2170 O   0  0  0  0  0  1  0  0  0  0  0  0
  1 14  1  0  0  0  0
  1  4  2  0  0  0  0
  2  7  1  0  0  0  0
  2  5  1  0  0  0  0
  3  1  1  0  0  0  0
  4  2  1  0  0  0  0
  5 11  1  0  0  0  0
  6 18  1  0  0  0  0
  7 15  2  0  0  0  0
  8 18  2  0  0  0  0
  9  8  1  0  0  0  0
 10  4  1  0  0  0  0
 10 16  1  0  0  0  0
 11  9  2  0  0  0  0
 12 10  2  0  0  0  0
 13  7  1  0  0  0  0
 14 13  2  0  0  0  0
 15 19  1  0  0  0  0
 15  9  1  0  0  0  0
 16 30  1  0  0  0  0
 16  5  2  0  0  0  0
 17  3  2  0  0  0  0
 17 12  1  0  0  0  0
 19  6  2  0  0  0  0
 20 21  1  0  0  0  0
 20 25  1  0  0  0  0
 22 25  2  0  0  0  0
 22 14  1  0  0  0  0
 23 20  2  0  0  0  0
 24 22  1  0  0  0  0
 25 26  1  0  0  0  0
 27 23  1  0  0  0  0
 27 24  2  0  0  0  0
 28 29  1  0  0  0  0
 29 27  1  0  0  0  0
 31 30  1  0  0  0  0
 32 31  1  0  0  0  0
M  END
>  <MODEL>
4

>  <REMARK>
 VINA RESULT:     -10.6      3.255      7.077
  Name = 
  4 active torsions:
  status: ('A' for Active; 'I' for Inactive)
    1  A    between atoms: C_13  and  C_18
    2  A    between atoms: C_15  and  C_26
    3  A    between atoms: C_16  and  C_27
    4  A    between atoms: C_18  and  C_29
                            x       y       z     vdW  Elec       q    Type
                         _______ _______ _______ _____ _____    ______ ____

>  <TORSDO>
F 4

$$$$
=
 OpenBabel10262421113D

 32 37  0  0  0  0  0  0  0  0999 V2000
  185.1850  178.3090  143.8820 C   0  0  0  0  0  0  0  0  0  0  0  0
  187.4610  177.8170  143.5740 N   0  0  0  0  0  0  0  0  0  0  0  0
  184.2040  178.6160  144.8470 C   0  0  0  0  0  3  0  0  0  0  0  0
  186.4380  178.0230  144.3640 C   0  0  0  0  0  0  0  0  0  0  0  0
  188.5560  177.6950  144.3140 C   0  0  0  0  0  0  0  0  0  0  0  0
  189.9330  177.6400  139.5290 C   0  0  0  0  0  3  0  0  0  0  0  0
  187.3990  177.8800  142.2400 C   0  0  0  0  0  0  0  0  0  0  0  0
  191.0400  177.4560  141.6830 C   0  0  0  0  0  3  0  0  0  0  0  0
  189.8130  177.5840  142.3370 C   0  0  0  0  0  0  0  0  0  0  0  0
  186.8240  178.0470  145.6710 C   0  0  0  0  0  0  0  0  0  0  0  0
  189.7680  177.5800  143.7130 N   0  0  0  0  0  0  0  0  0  0  0  0
  185.8830  178.3530  146.6570 C   0  0  0  0  0  3  0  0  0  0  0  0
  186.1770  178.1300  141.6690 N   0  0  0  0  0  0  0  0  0  0  0  0
  185.0550  178.3250  142.4600 C   0  0  0  0  0  0  0  0  0  0  0  0
  188.6150  177.7430  141.5540 C   0  0  0  0  0  0  0  0  0  0  0  0
  188.2150  177.8160  145.6720 C   0  0  0  0  0  0  0  0  0  0  0  0
  184.5550  178.6280  146.2290 C   0  0  0  0  0  3  0  0  0  0  0  0
  191.0990  177.4810  140.2860 C   0  0  0  0  0  3  0  0  0  0  0  0
  188.6920  177.7730  140.1590 C   0  0  0  0  0  3  0  0  0  0  0  0
  182.4040  179.1250  139.8570 C   0  0  0  0  0  0  0  0  0  0  0  0
  182.2800  179.3420  138.5240 F   0  0  0  0  0  0  0  0  0  0  0  0
  183.7670  178.6250  141.8100 C   0  0  0  0  0  0  0  0  0  0  0  0
  181.2690  179.1870  140.6680 C   0  0  0  0  0  3  0  0  0  0  0  0
  182.6220  178.7060  142.6120 C   0  0  0  0  0  3  0  0  0  0  0  0
  183.6600  178.8520  140.4200 C   0  0  0  0  0  0  0  0  0  0  0  0
  185.0810  178.8720  139.3780 Cl  0  0  0  0  0  0  0  0  0  0  0  0
  181.3780  178.9900  142.0450 C   0  0  0  0  0  0  0  0  0  0  0  0
  179.4010  177.8900  142.7110 O   0  0  0  0  0  1  0  0  0  0  0  0
  180.1630  179.0420  142.9040 C   0  0  0  0  0  2  0  0  0  0  0  0
  189.1430  177.8770  146.8370 C   0  0  0  0  0  2  0  0  0  0  0  0
  188.5920  177.0490  147.9810 C   0  0  0  0  0  2  0  0  0  0  0  0
  188.3010  177.8820  149.0590 O   0  0  0  0  0  1  0  0  0  0  0  0
  1  4  1  0  0  0  0
  1  3  2  0  0  0  0
  2  5  1  0  0  0  0
  2  4  1  0  0  0  0
  3 17  1  0  0  0  0
  4 10  2  0  0  0  0
  5 16  2  0  0  0  0
  6 19  2  0  0  0  0
  6 18  1  0  0  0  0
  7  2  1  0  0  0  0
  8  9  1  0  0  0  0
  9 11  2  0  0  0  0
 10 16  1  0  0  0  0
 10 12  1  0  0  0  0
 11  5  1  0  0  0  0
 13  7  1  0  0  0  0
 13 14  2  0  0  0  0
 14  1  1  0  0  0  0
 15  7  2  0  0  0  0
 15  9  1  0  0  0  0
 16 30  1  0  0  0  0
 17 12  2  0  0  0  0
 18  8  2  0  0  0  0
 19 15  1  0  0  0  0
 20 25  2  0  0  0  0
 20 23  1  0  0  0  0
 21 20  1  0  0  0  0
 22 14  1  0  0  0  0
 22 24  2  0  0  0  0
 23 27  2  0  0  0  0
 25 22  1  0  0  0  0
 26 25  1  0  0  0  0
 27 24  1  0  0  0  0
 27 29  1  0  0  0  0
 28 29  1  0  0  0  0
 30 31  1  0  0  0  0
 31 32  1  0  0  0  0
M  END
>  <MODEL>
5

>  <REMARK>
 VINA RESULT:     -10.5      1.126      1.171
  Name = 
  4 active torsions:
  status: ('A' for Active; 'I' for Inactive)
    1  A    between atoms: C_13  and  C_18
    2  A    between atoms: C_15  and  C_26
    3  A    between atoms: C_16  and  C_27
    4  A    between atoms: C_18  and  C_29
                            x       y       z     vdW  Elec       q    Type
                         _______ _______ _______ _____ _____    ______ ____

>  <TORSDO>
F 4

$$$$
=
 OpenBabel10262421113D

 32 37  0  0  0  0  0  0  0  0999 V2000
  189.4510  177.5670  142.6230 C   0  0  0  0  0  0  0  0  0  0  0  0
  187.6850  177.9850  141.1300 N   0  0  0  0  0  0  0  0  0  0  0  0
  190.8500  177.4310  142.7260 C   0  0  0  0  0  3  0  0  0  0  0  0
  188.9520  177.7490  141.3570 C   0  0  0  0  0  0  0  0  0  0  0  0
  187.5220  178.2460  139.8390 C   0  0  0  0  0  0  0  0  0  0  0  0
  183.1480  178.9620  142.1080 C   0  0  0  0  0  3  0  0  0  0  0  0
  186.7620  178.0900  142.0920 C   0  0  0  0  0  0  0  0  0  0  0  0
  183.9970  179.0970  139.8360 C   0  0  0  0  0  3  0  0  0  0  0  0
  185.2670  178.7200  140.2770 C   0  0  0  0  0  0  0  0  0  0  0  0
  189.6830  177.8480  140.2100 C   0  0  0  0  0  0  0  0  0  0  0  0
  186.3040  178.6280  139.3760 N   0  0  0  0  0  0  0  0  0  0  0  0
  191.0730  177.7260  140.2710 C   0  0  0  0  0  3  0  0  0  0  0  0
  187.1640  177.8900  143.3880 N   0  0  0  0  0  0  0  0  0  0  0  0
  188.4900  177.6070  143.6790 C   0  0  0  0  0  0  0  0  0  0  0  0
  185.4730  178.4560  141.6770 C   0  0  0  0  0  0  0  0  0  0  0  0
  188.7640  178.1590  139.1860 C   0  0  0  0  0  0  0  0  0  0  0  0
  191.6530  177.5030  141.5500 C   0  0  0  0  0  3  0  0  0  0  0  0
  182.9420  179.2160  140.7470 C   0  0  0  0  0  3  0  0  0  0  0  0
  184.4100  178.5850  142.5760 C   0  0  0  0  0  3  0  0  0  0  0  0
  188.4710  177.5810  147.4790 C   0  0  0  0  0  0  0  0  0  0  0  0
  187.6660  177.9020  148.5230 F   0  0  0  0  0  0  0  0  0  0  0  0
  188.8900  177.4330  145.0870 C   0  0  0  0  0  0  0  0  0  0  0  0
  189.7430  177.0630  147.7320 C   0  0  0  0  0  3  0  0  0  0  0  0
  190.1680  176.9280  145.3570 C   0  0  0  0  0  3  0  0  0  0  0  0
  188.0380  177.7780  146.1590 C   0  0  0  0  0  0  0  0  0  0  0  0
  186.4630  178.5190  145.8830 Cl  0  0  0  0  0  0  0  0  0  0  0  0
  190.5960  176.7480  146.6730 C   0  0  0  0  0  0  0  0  0  0  0  0
  192.4300  176.6820  148.1540 O   0  0  0  0  0  1  0  0  0  0  0  0
  191.9450  176.1810  146.9460 C   0  0  0  0  0  2  0  0  0  0  0  0
  189.0680  178.5040  137.7690 C   0  0  0  0  0  2  0  0  0  0  0  0
  188.6230  177.3780  136.8560 C   0  0  0  0  0  2  0  0  0  0  0  0
  189.4660  176.2810  137.0260 O   0  0  0  0  0  1  0  0  0  0  0  0
  1  3  1  0  0  0  0
  1 14  1  0  0  0  0
  2  4  1  0  0  0  0
  2  7  1  0  0  0  0
  4  1  2  0  0  0  0
  5  2  1  0  0  0  0
  6 19  2  0  0  0  0
  7 13  1  0  0  0  0
  8  9  1  0  0  0  0
  8 18  2  0  0  0  0
  9 15  1  0  0  0  0
 10 12  2  0  0  0  0
 10  4  1  0  0  0  0
 11  5  1  0  0  0  0
 11  9  2  0  0  0  0
 12 17  1  0  0  0  0
 13 14  2  0  0  0  0
 14 22  1  0  0  0  0
 15  7  2  0  0  0  0
 15 19  1  0  0  0  0
 16  5  2  0  0  0  0
 16 10  1  0  0  0  0
 17  3  2  0  0  0  0
 18  6  1  0  0  0  0
 20 23  1  0  0  0  0
 20 21  1  0  0  0  0
 22 24  2  0  0  0  0
 22 25  1  0  0  0  0
 24 27  1  0  0  0  0
 25 20  2  0  0  0  0
 26 25  1  0  0  0  0
 27 29  1  0  0  0  0
 27 23  2  0  0  0  0
 29 28  1  0  0  0  0
 30 16  1  0  0  0  0
 31 32  1  0  0  0  0
 31 30  1  0  0  0  0
M  END
>  <MODEL>
6

>  <REMARK>
 VINA RESULT:     -10.4      3.366      7.610
  Name = 
  4 active torsions:
  status: ('A' for Active; 'I' for Inactive)
    1  A    between atoms: C_13  and  C_18
    2  A    between atoms: C_15  and  C_26
    3  A    between atoms: C_16  and  C_27
    4  A    between atoms: C_18  and  C_29
                            x       y       z     vdW  Elec       q    Type
                         _______ _______ _______ _____ _____    ______ ____

>  <TORSDO>
F 4

$$$$
=
 OpenBabel10262421113D

 32 37  0  0  0  0  0  0  0  0999 V2000
  187.6150  177.8150  141.4680 C   0  0  0  0  0  0  0  0  0  0  0  0
  187.9060  177.5600  143.7860 N   0  0  0  0  0  0  0  0  0  0  0  0
  186.7430  178.3050  140.4750 C   0  0  0  0  0  3  0  0  0  0  0  0
  187.1600  177.8880  142.7610 C   0  0  0  0  0  0  0  0  0  0  0  0
  187.2540  177.8540  144.9030 C   0  0  0  0  0  0  0  0  0  0  0  0
  191.8200  176.3160  146.1600 C   0  0  0  0  0  3  0  0  0  0  0  0
  189.1730  177.1440  143.6830 C   0  0  0  0  0  0  0  0  0  0  0  0
  189.8230  177.0490  147.3320 C   0  0  0  0  0  3  0  0  0  0  0  0
  189.1630  177.2300  146.1150 C   0  0  0  0  0  0  0  0  0  0  0  0
  185.9740  178.4190  143.1690 C   0  0  0  0  0  0  0  0  0  0  0  0
  187.8690  177.7020  146.1040 N   0  0  0  0  0  0  0  0  0  0  0  0
  185.0840  178.9210  142.2160 C   0  0  0  0  0  3  0  0  0  0  0  0
  189.7020  177.0100  142.4240 N   0  0  0  0  0  0  0  0  0  0  0  0
  188.9430  177.3160  141.3050 C   0  0  0  0  0  0  0  0  0  0  0  0
  189.8600  176.9420  144.8900 C   0  0  0  0  0  0  0  0  0  0  0  0
  185.9980  178.3950  144.5790 C   0  0  0  0  0  0  0  0  0  0  0  0
  185.4790  178.8460  140.8520 C   0  0  0  0  0  3  0  0  0  0  0  0
  191.1450  176.5920  147.3540 C   0  0  0  0  0  3  0  0  0  0  0  0
  191.1820  176.4920  144.9280 C   0  0  0  0  0  3  0  0  0  0  0  0
  191.4840  177.0580  138.4910 C   0  0  0  0  0  0  0  0  0  0  0  0
  192.8260  177.0480  138.2910 F   0  0  0  0  0  0  0  0  0  0  0  0
  189.5580  177.1920  139.9710 C   0  0  0  0  0  0  0  0  0  0  0  0
  190.6300  176.9500  137.3910 C   0  0  0  0  0  3  0  0  0  0  0  0
  188.7140  177.0980  138.8570 C   0  0  0  0  0  3  0  0  0  0  0  0
  190.9580  177.1880  139.7850 C   0  0  0  0  0  0  0  0  0  0  0  0
  192.0680  177.4130  141.1350 Cl  0  0  0  0  0  0  0  0  0  0  0  0
  189.2460  176.9820  137.5720 C   0  0  0  0  0  0  0  0  0  0  0  0
  187.0400  177.1990  136.7680 O   0  0  0  0  0  1  0  0  0  0  0  0
  188.3390  176.8510  136.3990 C   0  0  0  0  0  2  0  0  0  0  0  0
  184.9970  178.9840  145.5140 C   0  0  0  0  0  2  0  0  0  0  0  0
  185.3380  178.6050  146.9410 C   0  0  0  0  0  2  0  0  0  0  0  0
  185.7440  179.7410  147.6390 O   0  0  0  0  0  1  0  0  0  0  0  0
  1  4  2  0  0  0  0
  2  5  1  0  0  0  0
  3 17  2  0  0  0  0
  3  1  1  0  0  0  0
  4 10  1  0  0  0  0
  4  2  1  0  0  0  0
  5 11  1  0  0  0  0
  6 18  1  0  0  0  0
  7  2  1  0  0  0  0
  7 15  2  0  0  0  0
  8 18  2  0  0  0  0
  9  8  1  0  0  0  0
 10 16  1  0  0  0  0
 11  9  2  0  0  0  0
 12 10  2  0  0  0  0
 13  7  1  0  0  0  0
 14  1  1  0  0  0  0
 14 13  2  0  0  0  0
 15 19  1  0  0  0  0
 15  9  1  0  0  0  0
 16  5  2  0  0  0  0
 16 30  1  0  0  0  0
 17 12  1  0  0  0  0
 19  6  2  0  0  0  0
 20 25  1  0  0  0  0
 21 20  1  0  0  0  0
 22 14  1  0  0  0  0
 23 27  1  0  0  0  0
 23 20  2  0  0  0  0
 24 22  1  0  0  0  0
 25 22  2  0  0  0  0
 25 26  1  0  0  0  0
 27 24  2  0  0  0  0
 29 28  1  0  0  0  0
 29 27  1  0  0  0  0
 30 31  1  0  0  0  0
 31 32  1  0  0  0  0
M  END
>  <MODEL>
7

>  <REMARK>
 VINA RESULT:     -10.3      3.469      6.356
  Name = 
  4 active torsions:
  status: ('A' for Active; 'I' for Inactive)
    1  A    between atoms: C_13  and  C_18
    2  A    between atoms: C_15  and  C_26
    3  A    between atoms: C_16  and  C_27
    4  A    between atoms: C_18  and  C_29
                            x       y       z     vdW  Elec       q    Type
                         _______ _______ _______ _____ _____    ______ ____

>  <TORSDO>
F 4

$$$$
=
 OpenBabel10262421113D

 32 37  0  0  0  0  0  0  0  0999 V2000
  187.1470  178.1670  141.4760 C   0  0  0  0  0  0  0  0  0  0  0  0
  189.1710  177.6420  142.5480 N   0  0  0  0  0  0  0  0  0  0  0  0
  186.5250  178.3120  140.2190 C   0  0  0  0  0  3  0  0  0  0  0  0
  188.4920  177.8960  141.4580 C   0  0  0  0  0  0  0  0  0  0  0  0
  190.4050  177.2900  142.2120 C   0  0  0  0  0  0  0  0  0  0  0  0
  189.9420  176.7270  147.1380 C   0  0  0  0  0  3  0  0  0  0  0  0
  188.6300  177.6030  143.7710 C   0  0  0  0  0  0  0  0  0  0  0  0
  191.7010  176.4340  145.4900 C   0  0  0  0  0  3  0  0  0  0  0  0
  190.8330  176.8440  144.4750 C   0  0  0  0  0  0  0  0  0  0  0  0
  189.2620  177.7170  140.3480 C   0  0  0  0  0  0  0  0  0  0  0  0
  191.2730  176.8740  143.1710 N   0  0  0  0  0  0  0  0  0  0  0  0
  188.6830  177.8460  139.0840 C   0  0  0  0  0  3  0  0  0  0  0  0
  187.2950  177.8940  143.8890 N   0  0  0  0  0  0  0  0  0  0  0  0
  186.5380  178.2000  142.7680 C   0  0  0  0  0  0  0  0  0  0  0  0
  189.4820  177.2060  144.8130 C   0  0  0  0  0  0  0  0  0  0  0  0
  190.5370  177.3330  140.8140 C   0  0  0  0  0  0  0  0  0  0  0  0
  187.2970  178.1600  139.0310 C   0  0  0  0  0  3  0  0  0  0  0  0
  191.2580  176.3780  146.8150 C   0  0  0  0  0  3  0  0  0  0  0  0
  189.0520  177.1380  146.1410 C   0  0  0  0  0  3  0  0  0  0  0  0
  183.1570  179.0580  144.2760 C   0  0  0  0  0  0  0  0  0  0  0  0
  182.5950  179.3780  145.4690 F   0  0  0  0  0  0  0  0  0  0  0  0
  185.0990  178.4730  142.9320 C   0  0  0  0  0  0  0  0  0  0  0  0
  182.3490  178.9770  143.1400 C   0  0  0  0  0  3  0  0  0  0  0  0
  184.2730  178.3810  141.8050 C   0  0  0  0  0  3  0  0  0  0  0  0
  184.5330  178.8000  144.1840 C   0  0  0  0  0  0  0  0  0  0  0  0
  185.5030  178.8230  145.6560 Cl  0  0  0  0  0  0  0  0  0  0  0  0
  182.9030  178.6280  141.9080 C   0  0  0  0  0  0  0  0  0  0  0  0
  182.5590  179.3860  139.7010 O   0  0  0  0  0  1  0  0  0  0  0  0
  182.0410  178.5580  140.6960 C   0  0  0  0  0  2  0  0  0  0  0  0
  191.7050  176.8900  140.0000 C   0  0  0  0  0  2  0  0  0  0  0  0
  192.8760  177.8260  140.2240 C   0  0  0  0  0  2  0  0  0  0  0  0
  194.0690  177.1280  140.0480 O   0  0  0  0  0  1  0  0  0  0  0  0
  1 14  1  0  0  0  0
  2  7  1  0  0  0  0
  3  1  1  0  0  0  0
  4  1  2  0  0  0  0
  4  2  1  0  0  0  0
  5  2  1  0  0  0  0
  5 11  1  0  0  0  0
  7 13  1  0  0  0  0
  7 15  2  0  0  0  0
  8 18  2  0  0  0  0
  9 15  1  0  0  0  0
  9  8  1  0  0  0  0
 10 16  1  0  0  0  0
 10  4  1  0  0  0  0
 11  9  2  0  0  0  0
 12 10  2  0  0  0  0
 14 22  1  0  0  0  0
 14 13  2  0  0  0  0
 15 19  1  0  0  0  0
 16  5  2  0  0  0  0
 17 12  1  0  0  0  0
 17  3  2  0  0  0  0
 18  6  1  0  0  0  0
 19  6  2  0  0  0  0
 20 21  1  0  0  0  0
 22 25  2  0  0  0  0
 23 20  2  0  0  0  0
 24 27  2  0  0  0  0
 24 22  1  0  0  0  0
 25 20  1  0  0  0  0
 25 26  1  0  0  0  0
 27 23  1  0  0  0  0
 28 29  1  0  0  0  0
 29 27  1  0  0  0  0
 30 31  1  0  0  0  0
 30 16  1  0  0  0  0
 32 31  1  0  0  0  0
M  END
>  <MODEL>
8

>  <REMARK>
 VINA RESULT:     -10.1      2.481      4.823
  Name = 
  4 active torsions:
  status: ('A' for Active; 'I' for Inactive)
    1  A    between atoms: C_13  and  C_18
    2  A    between atoms: C_15  and  C_26
    3  A    between atoms: C_16  and  C_27
    4  A    between atoms: C_18  and  C_29
                            x       y       z     vdW  Elec       q    Type
                         _______ _______ _______ _____ _____    ______ ____

>  <TORSDO>
F 4

$$$$
=
 OpenBabel10262421113D

 32 37  0  0  0  0  0  0  0  0999 V2000
  187.6000  177.9420  142.8750 C   0  0  0  0  0  0  0  0  0  0  0  0
  185.4490  178.2520  141.9840 N   0  0  0  0  0  0  0  0  0  0  0  0
  188.9730  177.9020  142.5560 C   0  0  0  0  0  3  0  0  0  0  0  0
  186.7380  178.1020  141.8190 C   0  0  0  0  0  0  0  0  0  0  0  0
  184.8940  178.5150  140.8080 C   0  0  0  0  0  0  0  0  0  0  0  0
  181.3540  178.9070  144.2890 C   0  0  0  0  0  3  0  0  0  0  0  0
  184.8480  178.2840  143.1790 C   0  0  0  0  0  0  0  0  0  0  0  0
  181.4800  179.1220  141.8730 C   0  0  0  0  0  3  0  0  0  0  0  0
  182.8450  178.8280  141.9070 C   0  0  0  0  0  0  0  0  0  0  0  0
  187.0880  178.2630  140.5120 C   0  0  0  0  0  0  0  0  0  0  0  0
  183.5710  178.8170  140.7370 N   0  0  0  0  0  0  0  0  0  0  0  0
  188.4370  178.2360  140.1550 C   0  0  0  0  0  3  0  0  0  0  0  0
  185.6290  178.1000  144.2920 N   0  0  0  0  0  0  0  0  0  0  0  0
  186.9960  177.9050  144.1690 C   0  0  0  0  0  0  0  0  0  0  0  0
  183.4740  178.5660  143.1750 C   0  0  0  0  0  0  0  0  0  0  0  0
  185.8890  178.5200  139.8150 C   0  0  0  0  0  0  0  0  0  0  0  0
  189.3840  178.0390  141.1980 C   0  0  0  0  0  3  0  0  0  0  0  0
  180.7390  179.1590  143.0580 C   0  0  0  0  0  3  0  0  0  0  0  0
  182.7200  178.6130  144.3510 C   0  0  0  0  0  3  0  0  0  0  0  0
  188.0970  177.8020  147.8050 C   0  0  0  0  0  0  0  0  0  0  0  0
  187.6080  178.0180  149.0520 F   0  0  0  0  0  0  0  0  0  0  0  0
  187.8060  177.7450  145.3900 C   0  0  0  0  0  0  0  0  0  0  0  0
  189.4290  177.4120  147.6520 C   0  0  0  0  0  3  0  0  0  0  0  0
  189.1480  177.3690  145.2520 C   0  0  0  0  0  3  0  0  0  0  0  0
  187.2790  177.9800  146.6790 C   0  0  0  0  0  0  0  0  0  0  0  0
  185.6310  178.5610  146.9090 Cl  0  0  0  0  0  0  0  0  0  0  0  0
  189.9580  177.2060  146.3770 C   0  0  0  0  0  0  0  0  0  0  0  0
  191.9980  176.7400  147.4660 O   0  0  0  0  0  1  0  0  0  0  0  0
  191.3740  176.7750  146.2190 C   0  0  0  0  0  2  0  0  0  0  0  0
  185.7350  178.8980  138.3820 C   0  0  0  0  0  2  0  0  0  0  0  0
  185.7160  177.6530  137.5170 C   0  0  0  0  0  2  0  0  0  0  0  0
  184.4510  177.0720  137.5690 O   0  0  0  0  0  1  0  0  0  0  0  0
  1 14  1  0  0  0  0
  2  7  1  0  0  0  0
  3  1  1  0  0  0  0
  4  2  1  0  0  0  0
  4  1  2  0  0  0  0
  5  2  1  0  0  0  0
  6 19  2  0  0  0  0
  7 13  1  0  0  0  0
  8  9  1  0  0  0  0
  8 18  2  0  0  0  0
  9 15  1  0  0  0  0
 10  4  1  0  0  0  0
 11  5  1  0  0  0  0
 11  9  2  0  0  0  0
 12 10  2  0  0  0  0
 12 17  1  0  0  0  0
 14 13  2  0  0  0  0
 14 22  1  0  0  0  0
 15  7  2  0  0  0  0
 15 19  1  0  0  0  0
 16 10  1  0  0  0  0
 16  5  2  0  0  0  0
 17  3  2  0  0  0  0
 18  6  1  0  0  0  0
 20 21  1  0  0  0  0
 22 25  1  0  0  0  0
 23 20  1  0  0  0  0
 24 22  2  0  0  0  0
 24 27  1  0  0  0  0
 25 26  1  0  0  0  0
 25 20  2  0  0  0  0
 27 23  2  0  0  0  0
 29 27  1  0  0  0  0
 29 28  1  0  0  0  0
 30 16  1  0  0  0  0
 31 32  1  0  0  0  0
 31 30  1  0  0  0  0
M  END
>  <MODEL>
9

>  <REMARK>
 VINA RESULT:     -10.1      3.086      7.897
  Name = 
  4 active torsions:
  status: ('A' for Active; 'I' for Inactive)
    1  A    between atoms: C_13  and  C_18
    2  A    between atoms: C_15  and  C_26
    3  A    between atoms: C_16  and  C_27
    4  A    between atoms: C_18  and  C_29
                            x       y       z     vdW  Elec       q    Type
                         _______ _______ _______ _____ _____    ______ ____

>  <TORSDO>
F 4

$$$$
