=
 OpenBabel10262419573D

 25 25  0  0  1  0  0  0  0  0999 V2000
  188.7010  177.4480  145.3420 C   0  0  0  0  0  0  0  0  0  0  0  0
  187.3910  177.6580  145.1290 C   0  0  0  0  0  3  0  0  0  0  0  0
  189.0230  178.1880  142.9500 C   0  0  0  0  0  2  0  0  0  0  0  0
  189.9520  176.0140  143.7850 C   0  0  0  0  0  3  0  0  0  0  0  0
  190.8100  176.3470  140.2190 O   0  0  0  0  0  1  0  0  0  0  0  0
  190.2470  176.6570  141.4490 C   0  0  0  0  0  0  0  0  0  0  0  0
  190.2550  175.6580  142.5320 C   0  0  0  0  0  3  0  0  0  0  0  0
  189.6640  177.4530  144.1540 C   0  0  2  0  0  0  0  0  0  0  0  0
  189.7100  177.8630  141.6490 C   0  0  0  0  0  3  0  0  0  0  0  0
  191.0170  178.1240  144.4790 C   0  0  0  0  0  2  0  0  0  0  0  0
  191.0450  179.6110  144.1480 C   0  0  0  0  0  1  0  0  0  0  0  0
  189.8930  176.3380  147.0970 O   0  0  0  0  0  0  0  0  0  0  0  0
  189.2380  177.3530  146.7290 C   0  0  0  0  0  0  0  0  0  0  0  0
  189.0200  178.3990  147.6270 O   0  0  0  0  0  0  0  0  0  0  0  0
  188.4160  178.1900  148.8950 C   0  0  0  0  0  1  0  0  0  0  0  0
  186.4570  177.7460  146.1590 O   0  0  0  0  0  0  0  0  0  0  0  0
  185.6770  178.9190  146.3280 C   0  0  0  0  0  2  0  0  0  0  0  0
  183.7990  178.8910  144.6900 C   0  0  0  0  0  3  0  0  0  0  0  0
  184.2560  178.6600  145.9260 C   0  0  0  0  0  3  0  0  0  0  0  0
  184.6480  179.4410  143.5850 C   0  0  0  0  0  2  0  0  0  0  0  0
  185.0660  178.3300  142.6390 C   0  0  0  0  0  2  0  0  0  0  0  0
  185.5450  178.9320  141.3360 C   0  0  0  0  0  2  0  0  0  0  0  0
  184.3510  179.2550  140.4620 C   0  0  0  0  0  2  0  0  0  0  0  0
  184.7930  179.6430  139.1970 O   0  0  0  0  0  0  0  0  0  0  0  0
  185.2350  178.4610  138.6030 C   0  0  0  0  0  1  0  0  0  0  0  0
  1 13  1  0  0  0  0
  2  1  2  0  0  0  0
  2 16  1  0  0  0  0
  3  8  1  0  0  0  0
  4  8  1  0  0  0  0
  5  6  1  0  0  0  0
  6  9  2  0  0  0  0
  6  7  1  0  0  0  0
  7  4  2  0  0  0  0
  8 10  1  1  0  0  0
  8  1  1  0  0  0  0
  9  3  1  0  0  0  0
 11 10  1  0  0  0  0
 13 12  2  0  0  0  0
 13 14  1  0  0  0  0
 14 15  1  0  0  0  0
 16 17  1  0  0  0  0
 18 19  2  0  0  0  0
 19 17  1  0  0  0  0
 20 18  1  0  0  0  0
 21 20  1  0  0  0  0
 22 21  1  0  0  0  0
 23 22  1  0  0  0  0
 24 23  1  0  0  0  0
 25 24  1  0  0  0  0
M  END
>  <MODEL>
1

>  <REMARK>
 VINA RESULT:      -6.8      0.000      0.000
  Name = 
  12 active torsions:
  status: ('A' for Active; 'I' for Inactive)
    1  A    between atoms: C_1  and  C_18
    2  A    between atoms: C_1  and  C_24
    3  A    between atoms: C_2  and  O_7
    4  A    between atoms: C_2  and  C_25
    5  A    between atoms: C_3  and  O_16
    6  A    between atoms: C_6  and  C_15
    7  A    between atoms: C_6  and  C_21
    8  A    between atoms: O_13  and  C_24
    9  A    between atoms: O_16  and  C_23
   10  A    between atoms: C_17  and  C_18
   11  A    between atoms: C_20  and  C_23
   12  A    between atoms: C_21  and  C_25
                            x       y       z     vdW  Elec       q    Type
                         _______ _______ _______ _____ _____    ______ ____

>  <TORSDO>
F 12

$$$$
=
 OpenBabel10262419573D

 25 25  0  0  1  0  0  0  0  0999 V2000
  189.4280  177.3090  143.2530 C   0  0  0  0  0  0  0  0  0  0  0  0
  188.1610  177.3230  143.6990 C   0  0  0  0  0  3  0  0  0  0  0  0
  191.2620  175.9330  144.3110 C   0  0  0  0  0  2  0  0  0  0  0  0
  190.0010  177.6620  145.6170 C   0  0  0  0  0  3  0  0  0  0  0  0
  192.4600  176.0810  147.8570 O   0  0  0  0  0  1  0  0  0  0  0  0
  191.7290  176.3220  146.7030 C   0  0  0  0  0  0  0  0  0  0  0  0
  190.5610  177.2200  146.7480 C   0  0  0  0  0  3  0  0  0  0  0  0
  190.5780  177.3220  144.2610 C   0  0  2  0  0  0  0  0  0  0  0  0
  192.0920  175.7470  145.5540 C   0  0  0  0  0  3  0  0  0  0  0  0
  191.6490  178.3880  143.9370 C   0  0  0  0  0  2  0  0  0  0  0  0
  191.1300  179.8160  144.0530 C   0  0  0  0  0  1  0  0  0  0  0  0
  190.2110  176.0590  141.3670 O   0  0  0  0  0  0  0  0  0  0  0  0
  189.7190  177.1380  141.8010 C   0  0  0  0  0  0  0  0  0  0  0  0
  189.4380  178.1780  140.9130 O   0  0  0  0  0  0  0  0  0  0  0  0
  188.7970  177.9510  139.6660 C   0  0  0  0  0  1  0  0  0  0  0  0
  187.0560  177.2360  142.8560 O   0  0  0  0  0  0  0  0  0  0  0  0
  186.3800  178.4060  142.4250 C   0  0  0  0  0  2  0  0  0  0  0  0
  184.0450  178.6210  143.2680 C   0  0  0  0  0  3  0  0  0  0  0  0
  184.9040  178.1570  142.3530 C   0  0  0  0  0  3  0  0  0  0  0  0
  184.4630  179.4250  144.4610 C   0  0  0  0  0  2  0  0  0  0  0  0
  184.7770  178.5100  145.6300 C   0  0  0  0  0  2  0  0  0  0  0  0
  185.7830  179.1810  146.5390 C   0  0  0  0  0  2  0  0  0  0  0  0
  186.6760  178.1290  147.1640 C   0  0  0  0  0  2  0  0  0  0  0  0
  187.5480  178.7360  148.0680 O   0  0  0  0  0  0  0  0  0  0  0  0
  187.9670  177.6990  148.8990 C   0  0  0  0  0  1  0  0  0  0  0  0
  1  2  2  0  0  0  0
  1  8  1  0  0  0  0
  3  9  1  0  0  0  0
  4  7  2  0  0  0  0
  6  7  1  0  0  0  0
  6  5  1  0  0  0  0
  8 10  1  6  0  0  0
  8  3  1  0  0  0  0
  8  4  1  0  0  0  0
  9  6  2  0  0  0  0
 10 11  1  0  0  0  0
 12 13  2  0  0  0  0
 13  1  1  0  0  0  0
 14 13  1  0  0  0  0
 15 14  1  0  0  0  0
 16  2  1  0  0  0  0
 17 16  1  0  0  0  0
 18 20  1  0  0  0  0
 19 17  1  0  0  0  0
 19 18  2  0  0  0  0
 20 21  1  0  0  0  0
 21 22  1  0  0  0  0
 22 23  1  0  0  0  0
 23 24  1  0  0  0  0
 24 25  1  0  0  0  0
M  END
>  <MODEL>
2

>  <REMARK>
 VINA RESULT:      -6.8      1.797      5.236
  Name = 
  12 active torsions:
  status: ('A' for Active; 'I' for Inactive)
    1  A    between atoms: C_1  and  C_18
    2  A    between atoms: C_1  and  C_24
    3  A    between atoms: C_2  and  O_7
    4  A    between atoms: C_2  and  C_25
    5  A    between atoms: C_3  and  O_16
    6  A    between atoms: C_6  and  C_15
    7  A    between atoms: C_6  and  C_21
    8  A    between atoms: O_13  and  C_24
    9  A    between atoms: O_16  and  C_23
   10  A    between atoms: C_17  and  C_18
   11  A    between atoms: C_20  and  C_23
   12  A    between atoms: C_21  and  C_25
                            x       y       z     vdW  Elec       q    Type
                         _______ _______ _______ _____ _____    ______ ____

>  <TORSDO>
F 12

$$$$
=
 OpenBabel10262419573D

 25 25  0  0  1  0  0  0  0  0999 V2000
  188.4140  177.4480  144.5220 C   0  0  0  0  0  0  0  0  0  0  0  0
  187.2920  177.7320  145.2040 C   0  0  0  0  0  3  0  0  0  0  0  0
  190.6800  176.3680  144.8020 C   0  0  0  0  0  2  0  0  0  0  0  0
  189.5160  177.4870  146.7190 C   0  0  0  0  0  3  0  0  0  0  0  0
  192.7210  176.1420  147.9340 O   0  0  0  0  0  1  0  0  0  0  0  0
  191.6810  176.4130  147.0570 C   0  0  0  0  0  0  0  0  0  0  0  0
  190.4240  176.9900  147.5650 C   0  0  0  0  0  3  0  0  0  0  0  0
  189.7670  177.5450  145.2280 C   0  0  2  0  0  0  0  0  0  0  0  0
  191.8270  176.1570  145.7550 C   0  0  0  0  0  3  0  0  0  0  0  0
  190.5040  178.8710  144.9380 C   0  0  0  0  0  2  0  0  0  0  0  0
  191.3480  178.8240  143.6700 C   0  0  0  0  0  1  0  0  0  0  0  0
  188.2680  175.6610  142.9350 O   0  0  0  0  0  0  0  0  0  0  0  0
  188.3420  176.9050  143.1360 C   0  0  0  0  0  0  0  0  0  0  0  0
  188.3490  177.7820  142.0490 O   0  0  0  0  0  0  0  0  0  0  0  0
  189.1030  177.5200  140.8750 C   0  0  0  0  0  1  0  0  0  0  0  0
  186.0160  177.5960  144.6630 O   0  0  0  0  0  0  0  0  0  0  0  0
  185.2680  178.7380  144.2790 C   0  0  0  0  0  2  0  0  0  0  0  0
  183.3950  178.6840  142.6360 C   0  0  0  0  0  3  0  0  0  0  0  0
  184.6990  178.5490  142.9060 C   0  0  0  0  0  3  0  0  0  0  0  0
  182.3680  179.0250  143.6720 C   0  0  0  0  0  2  0  0  0  0  0  0
  181.0750  179.4610  143.0090 C   0  0  0  0  0  2  0  0  0  0  0  0
  180.0210  178.3950  143.2110 C   0  0  0  0  0  2  0  0  0  0  0  0
  179.3020  178.1440  141.9010 C   0  0  0  0  0  2  0  0  0  0  0  0
  179.3900  176.7900  141.5750 O   0  0  0  0  0  0  0  0  0  0  0  0
  180.1790  176.7590  140.4260 C   0  0  0  0  0  1  0  0  0  0  0  0
  1  2  2  0  0  0  0
  1  8  1  0  0  0  0
  3  8  1  0  0  0  0
  3  9  1  0  0  0  0
  4  7  2  0  0  0  0
  6  7  1  0  0  0  0
  6  5  1  0  0  0  0
  8 10  1  6  0  0  0
  8  4  1  0  0  0  0
  9  6  2  0  0  0  0
 11 10  1  0  0  0  0
 12 13  2  0  0  0  0
 13  1  1  0  0  0  0
 14 13  1  0  0  0  0
 15 14  1  0  0  0  0
 16  2  1  0  0  0  0
 17 16  1  0  0  0  0
 18 19  2  0  0  0  0
 18 20  1  0  0  0  0
 19 17  1  0  0  0  0
 21 22  1  0  0  0  0
 21 20  1  0  0  0  0
 23 22  1  0  0  0  0
 24 23  1  0  0  0  0
 25 24  1  0  0  0  0
M  END
>  <MODEL>
3

>  <REMARK>
 VINA RESULT:      -6.3      2.766      4.406
  Name = 
  12 active torsions:
  status: ('A' for Active; 'I' for Inactive)
    1  A    between atoms: C_1  and  C_18
    2  A    between atoms: C_1  and  C_24
    3  A    between atoms: C_2  and  O_7
    4  A    between atoms: C_2  and  C_25
    5  A    between atoms: C_3  and  O_16
    6  A    between atoms: C_6  and  C_15
    7  A    between atoms: C_6  and  C_21
    8  A    between atoms: O_13  and  C_24
    9  A    between atoms: O_16  and  C_23
   10  A    between atoms: C_17  and  C_18
   11  A    between atoms: C_20  and  C_23
   12  A    between atoms: C_21  and  C_25
                            x       y       z     vdW  Elec       q    Type
                         _______ _______ _______ _____ _____    ______ ____

>  <TORSDO>
F 12

$$$$
=
 OpenBabel10262419573D

 25 25  0  0  1  0  0  0  0  0999 V2000
  190.2850  176.8920  145.1620 C   0  0  0  0  0  0  0  0  0  0  0  0
  189.2160  177.0730  145.9570 C   0  0  0  0  0  3  0  0  0  0  0  0
  188.9040  178.1360  143.4530 C   0  0  0  0  0  2  0  0  0  0  0  0
  190.4560  176.2840  142.7860 C   0  0  0  0  0  3  0  0  0  0  0  0
  188.7960  177.5530  139.7540 O   0  0  0  0  0  1  0  0  0  0  0  0
  189.1040  177.4180  141.1000 C   0  0  0  0  0  0  0  0  0  0  0  0
  189.9420  176.2940  141.5520 C   0  0  0  0  0  3  0  0  0  0  0  0
  190.2610  177.4450  143.7360 C   0  0  2  0  0  0  0  0  0  0  0  0
  188.6470  178.3130  141.9800 C   0  0  0  0  0  3  0  0  0  0  0  0
  191.3960  178.4560  143.4640 C   0  0  0  0  0  2  0  0  0  0  0  0
  191.2560  179.7460  144.2630 C   0  0  0  0  0  1  0  0  0  0  0  0
  192.1220  175.3600  145.0760 O   0  0  0  0  0  0  0  0  0  0  0  0
  191.5360  176.2880  145.7000 C   0  0  0  0  0  0  0  0  0  0  0  0
  192.0690  176.7570  146.9030 O   0  0  0  0  0  0  0  0  0  0  0  0
  192.4850  175.8770  147.9360 C   0  0  0  0  0  1  0  0  0  0  0  0
  189.1820  176.6710  147.2900 O   0  0  0  0  0  0  0  0  0  0  0  0
  188.0680  176.9840  148.1110 C   0  0  0  0  0  2  0  0  0  0  0  0
  186.6330  178.7970  147.1820 C   0  0  0  0  0  3  0  0  0  0  0  0
  187.6770  178.4190  147.9290 C   0  0  0  0  0  3  0  0  0  0  0  0
  185.7560  177.8340  146.4420 C   0  0  0  0  0  2  0  0  0  0  0  0
  185.4390  178.3670  145.0570 C   0  0  0  0  0  2  0  0  0  0  0  0
  184.0440  178.9530  145.0500 C   0  0  0  0  0  2  0  0  0  0  0  0
  183.7020  179.4190  143.6500 C   0  0  0  0  0  2  0  0  0  0  0  0
  182.3530  179.7700  143.5930 O   0  0  0  0  0  0  0  0  0  0  0  0
  181.8070  178.9040  142.6470 C   0  0  0  0  0  1  0  0  0  0  0  0
  1 13  1  0  0  0  0
  1  2  2  0  0  0  0
  2 16  1  0  0  0  0
  3  8  1  0  0  0  0
  4  8  1  0  0  0  0
  5  6  1  0  0  0  0
  6  7  1  0  0  0  0
  6  9  2  0  0  0  0
  7  4  2  0  0  0  0
  8 10  1  6  0  0  0
  8  1  1  0  0  0  0
  9  3  1  0  0  0  0
 10 11  1  0  0  0  0
 12 13  2  0  0  0  0
 13 14  1  0  0  0  0
 14 15  1  0  0  0  0
 16 17  1  0  0  0  0
 18 19  2  0  0  0  0
 19 17  1  0  0  0  0
 20 18  1  0  0  0  0
 21 20  1  0  0  0  0
 22 21  1  0  0  0  0
 23 22  1  0  0  0  0
 24 23  1  0  0  0  0
 25 24  1  0  0  0  0
M  END
>  <MODEL>
4

>  <REMARK>
 VINA RESULT:      -6.3      2.016      2.999
  Name = 
  12 active torsions:
  status: ('A' for Active; 'I' for Inactive)
    1  A    between atoms: C_1  and  C_18
    2  A    between atoms: C_1  and  C_24
    3  A    between atoms: C_2  and  O_7
    4  A    between atoms: C_2  and  C_25
    5  A    between atoms: C_3  and  O_16
    6  A    between atoms: C_6  and  C_15
    7  A    between atoms: C_6  and  C_21
    8  A    between atoms: O_13  and  C_24
    9  A    between atoms: O_16  and  C_23
   10  A    between atoms: C_17  and  C_18
   11  A    between atoms: C_20  and  C_23
   12  A    between atoms: C_21  and  C_25
                            x       y       z     vdW  Elec       q    Type
                         _______ _______ _______ _____ _____    ______ ____

>  <TORSDO>
F 12

$$$$
=
 OpenBabel10262419573D

 25 25  0  0  1  0  0  0  0  0999 V2000
  189.4170  177.8310  141.2750 C   0  0  0  0  0  0  0  0  0  0  0  0
  188.2950  178.4310  140.8420 C   0  0  0  0  0  3  0  0  0  0  0  0
  190.6120  178.7330  143.3080 C   0  0  0  0  0  2  0  0  0  0  0  0
  190.2310  176.2750  142.9950 C   0  0  0  0  0  3  0  0  0  0  0  0
  192.0520  176.7720  146.1570 O   0  0  0  0  0  1  0  0  0  0  0  0
  191.4380  177.0900  144.9540 C   0  0  0  0  0  0  0  0  0  0  0  0
  191.0390  176.0150  144.0280 C   0  0  0  0  0  3  0  0  0  0  0  0
  189.6390  177.6500  142.7770 C   0  0  2  0  0  0  0  0  0  0  0  0
  191.2020  178.3670  144.6440 C   0  0  0  0  0  3  0  0  0  0  0  0
  188.3290  177.7210  143.5920 C   0  0  0  0  0  2  0  0  0  0  0  0
  187.5710  176.3990  143.6280 C   0  0  0  0  0  1  0  0  0  0  0  0
  191.5420  177.6710  140.1830 O   0  0  0  0  0  0  0  0  0  0  0  0
  190.3700  177.2180  140.3070 C   0  0  0  0  0  0  0  0  0  0  0  0
  189.9650  176.1260  139.5350 O   0  0  0  0  0  0  0  0  0  0  0  0
  190.5670  175.8240  138.2850 C   0  0  0  0  0  1  0  0  0  0  0  0
  187.9760  178.5680  139.4930 O   0  0  0  0  0  0  0  0  0  0  0  0
  186.8680  177.8770  138.9390 C   0  0  0  0  0  2  0  0  0  0  0  0
  184.7590  178.9470  139.7240 C   0  0  0  0  0  3  0  0  0  0  0  0
  185.7020  178.8060  138.7860 C   0  0  0  0  0  3  0  0  0  0  0  0
  184.7600  178.1890  141.0160 C   0  0  0  0  0  2  0  0  0  0  0  0
  184.8980  179.1430  142.1880 C   0  0  0  0  0  2  0  0  0  0  0  0
  184.4840  178.4400  143.4620 C   0  0  0  0  0  2  0  0  0  0  0  0
  183.8260  179.4360  144.3940 C   0  0  0  0  0  2  0  0  0  0  0  0
  183.9450  178.9890  145.7110 O   0  0  0  0  0  0  0  0  0  0  0  0
  185.3190  178.8890  145.9230 C   0  0  0  0  0  1  0  0  0  0  0  0
  1  8  1  0  0  0  0
  2  1  2  0  0  0  0
  3  9  1  0  0  0  0
  4  7  2  0  0  0  0
  6  5  1  0  0  0  0
  7  6  1  0  0  0  0
  8  4  1  0  0  0  0
  8  3  1  0  0  0  0
  8 10  1  1  0  0  0
  9  6  2  0  0  0  0
 10 11  1  0  0  0  0
 12 13  2  0  0  0  0
 13  1  1  0  0  0  0
 14 13  1  0  0  0  0
 15 14  1  0  0  0  0
 16  2  1  0  0  0  0
 17 16  1  0  0  0  0
 18 20  1  0  0  0  0
 19 17  1  0  0  0  0
 19 18  2  0  0  0  0
 20 21  1  0  0  0  0
 21 22  1  0  0  0  0
 22 23  1  0  0  0  0
 23 24  1  0  0  0  0
 24 25  1  0  0  0  0
M  END
>  <MODEL>
5

>  <REMARK>
 VINA RESULT:      -6.2      1.873      5.438
  Name = 
  12 active torsions:
  status: ('A' for Active; 'I' for Inactive)
    1  A    between atoms: C_1  and  C_18
    2  A    between atoms: C_1  and  C_24
    3  A    between atoms: C_2  and  O_7
    4  A    between atoms: C_2  and  C_25
    5  A    between atoms: C_3  and  O_16
    6  A    between atoms: C_6  and  C_15
    7  A    between atoms: C_6  and  C_21
    8  A    between atoms: O_13  and  C_24
    9  A    between atoms: O_16  and  C_23
   10  A    between atoms: C_17  and  C_18
   11  A    between atoms: C_20  and  C_23
   12  A    between atoms: C_21  and  C_25
                            x       y       z     vdW  Elec       q    Type
                         _______ _______ _______ _____ _____    ______ ____

>  <TORSDO>
F 12

$$$$
=
 OpenBabel10262419573D

 25 25  0  0  1  0  0  0  0  0999 V2000
  188.4400  177.3870  144.2510 C   0  0  0  0  0  0  0  0  0  0  0  0
  187.2540  177.7900  144.7380 C   0  0  0  0  0  3  0  0  0  0  0  0
  190.7280  176.4590  144.7800 C   0  0  0  0  0  2  0  0  0  0  0  0
  189.2970  177.5080  146.5520 C   0  0  0  0  0  3  0  0  0  0  0  0
  192.4360  176.3810  148.1130 O   0  0  0  0  0  1  0  0  0  0  0  0
  191.4790  176.5790  147.1280 C   0  0  0  0  0  0  0  0  0  0  0  0
  190.1410  177.0740  147.4940 C   0  0  0  0  0  3  0  0  0  0  0  0
  189.7010  177.5760  145.0950 C   0  0  2  0  0  0  0  0  0  0  0  0
  191.7790  176.3280  145.8510 C   0  0  0  0  0  3  0  0  0  0  0  0
  190.3770  178.9460  144.8700 C   0  0  0  0  0  2  0  0  0  0  0  0
  191.3410  178.9530  143.6900 C   0  0  0  0  0  1  0  0  0  0  0  0
  188.3610  175.3820  142.9450 O   0  0  0  0  0  0  0  0  0  0  0  0
  188.5160  176.6350  142.9670 C   0  0  0  0  0  0  0  0  0  0  0  0
  188.7550  177.3240  141.7750 O   0  0  0  0  0  0  0  0  0  0  0  0
  189.8570  177.0150  140.9360 C   0  0  0  0  0  1  0  0  0  0  0  0
  186.0480  177.5880  144.0710 O   0  0  0  0  0  0  0  0  0  0  0  0
  185.2560  178.6900  143.6600 C   0  0  0  0  0  2  0  0  0  0  0  0
  185.0170  178.8910  141.1870 C   0  0  0  0  0  3  0  0  0  0  0  0
  185.6930  179.1680  142.3080 C   0  0  0  0  0  3  0  0  0  0  0  0
  183.7650  178.0690  141.1600 C   0  0  0  0  0  2  0  0  0  0  0  0
  182.6610  178.8150  140.4320 C   0  0  0  0  0  2  0  0  0  0  0  0
  183.2190  179.4330  139.1690 C   0  0  0  0  0  2  0  0  0  0  0  0
  182.2360  180.4510  138.6310 C   0  0  0  0  0  2  0  0  0  0  0  0
  181.5530  179.9080  137.5420 O   0  0  0  0  0  0  0  0  0  0  0  0
  180.2070  180.1240  137.8310 C   0  0  0  0  0  1  0  0  0  0  0  0
  1  2  2  0  0  0  0
  1  8  1  0  0  0  0
  3  8  1  0  0  0  0
  3  9  1  0  0  0  0
  4  7  2  0  0  0  0
  6  7  1  0  0  0  0
  6  5  1  0  0  0  0
  8 10  1  6  0  0  0
  8  4  1  0  0  0  0
  9  6  2  0  0  0  0
 11 10  1  0  0  0  0
 12 13  2  0  0  0  0
 13  1  1  0  0  0  0
 14 13  1  0  0  0  0
 15 14  1  0  0  0  0
 16  2  1  0  0  0  0
 17 16  1  0  0  0  0
 18 19  2  0  0  0  0
 19 17  1  0  0  0  0
 20 18  1  0  0  0  0
 21 20  1  0  0  0  0
 22 21  1  0  0  0  0
 23 22  1  0  0  0  0
 24 25  1  0  0  0  0
 24 23  1  0  0  0  0
M  END
>  <MODEL>
6

>  <REMARK>
 VINA RESULT:      -6.0      2.138      4.164
  Name = 
  12 active torsions:
  status: ('A' for Active; 'I' for Inactive)
    1  A    between atoms: C_1  and  C_18
    2  A    between atoms: C_1  and  C_24
    3  A    between atoms: C_2  and  O_7
    4  A    between atoms: C_2  and  C_25
    5  A    between atoms: C_3  and  O_16
    6  A    between atoms: C_6  and  C_15
    7  A    between atoms: C_6  and  C_21
    8  A    between atoms: O_13  and  C_24
    9  A    between atoms: O_16  and  C_23
   10  A    between atoms: C_17  and  C_18
   11  A    between atoms: C_20  and  C_23
   12  A    between atoms: C_21  and  C_25
                            x       y       z     vdW  Elec       q    Type
                         _______ _______ _______ _____ _____    ______ ____

>  <TORSDO>
F 12

$$$$
=
 OpenBabel10262419573D

 25 25  0  0  1  0  0  0  0  0999 V2000
  189.6840  177.4290  141.1330 C   0  0  0  0  0  0  0  0  0  0  0  0
  188.6580  178.0390  140.5150 C   0  0  0  0  0  3  0  0  0  0  0  0
  188.0490  176.9540  142.9990 C   0  0  0  0  0  2  0  0  0  0  0  0
  190.2370  178.0970  143.4330 C   0  0  0  0  0  3  0  0  0  0  0  0
  188.4260  177.8070  146.6270 O   0  0  0  0  0  1  0  0  0  0  0  0
  188.6710  177.7100  145.2640 C   0  0  0  0  0  0  0  0  0  0  0  0
  189.8450  178.3810  144.6800 C   0  0  0  0  0  3  0  0  0  0  0  0
  189.5450  177.0370  142.6050 C   0  0  2  0  0  0  0  0  0  0  0  0
  187.8450  177.0020  144.4900 C   0  0  0  0  0  3  0  0  0  0  0  0
  190.2170  175.6860  142.9340 C   0  0  0  0  0  2  0  0  0  0  0  0
  191.5510  175.8380  143.6570 C   0  0  0  0  0  1  0  0  0  0  0  0
  191.9860  177.6170  140.5040 O   0  0  0  0  0  0  0  0  0  0  0  0
  190.8890  177.0060  140.3660 C   0  0  0  0  0  0  0  0  0  0  0  0
  190.8060  175.9210  139.4910 O   0  0  0  0  0  0  0  0  0  0  0  0
  191.4150  175.9400  138.2090 C   0  0  0  0  0  1  0  0  0  0  0  0
  188.6690  178.3600  139.1600 O   0  0  0  0  0  0  0  0  0  0  0  0
  188.0550  177.5050  138.2090 C   0  0  0  0  0  2  0  0  0  0  0  0
  186.0810  178.0290  136.7810 C   0  0  0  0  0  3  0  0  0  0  0  0
  187.3270  178.3130  137.1780 C   0  0  0  0  0  3  0  0  0  0  0  0
  185.2880  176.8750  137.3130 C   0  0  0  0  0  2  0  0  0  0  0  0
  183.8540  177.2960  137.5730 C   0  0  0  0  0  2  0  0  0  0  0  0
  183.7340  177.8330  138.9830 C   0  0  0  0  0  2  0  0  0  0  0  0
  183.6610  179.3450  138.9400 C   0  0  0  0  0  2  0  0  0  0  0  0
  184.7500  179.8830  139.6270 O   0  0  0  0  0  0  0  0  0  0  0  0
  185.0540  178.9310  140.5990 C   0  0  0  0  0  1  0  0  0  0  0  0
  1  8  1  0  0  0  0
  2  1  2  0  0  0  0
  3  9  1  0  0  0  0
  4  7  2  0  0  0  0
  6  5  1  0  0  0  0
  7  6  1  0  0  0  0
  8 10  1  1  0  0  0
  8  3  1  0  0  0  0
  8  4  1  0  0  0  0
  9  6  2  0  0  0  0
 10 11  1  0  0  0  0
 13 12  2  0  0  0  0
 13  1  1  0  0  0  0
 14 13  1  0  0  0  0
 15 14  1  0  0  0  0
 16  2  1  0  0  0  0
 17 16  1  0  0  0  0
 18 19  2  0  0  0  0
 18 20  1  0  0  0  0
 19 17  1  0  0  0  0
 20 21  1  0  0  0  0
 21 22  1  0  0  0  0
 23 22  1  0  0  0  0
 23 24  1  0  0  0  0
 24 25  1  0  0  0  0
M  END
>  <MODEL>
7

>  <REMARK>
 VINA RESULT:      -6.0      2.042      5.787
  Name = 
  12 active torsions:
  status: ('A' for Active; 'I' for Inactive)
    1  A    between atoms: C_1  and  C_18
    2  A    between atoms: C_1  and  C_24
    3  A    between atoms: C_2  and  O_7
    4  A    between atoms: C_2  and  C_25
    5  A    between atoms: C_3  and  O_16
    6  A    between atoms: C_6  and  C_15
    7  A    between atoms: C_6  and  C_21
    8  A    between atoms: O_13  and  C_24
    9  A    between atoms: O_16  and  C_23
   10  A    between atoms: C_17  and  C_18
   11  A    between atoms: C_20  and  C_23
   12  A    between atoms: C_21  and  C_25
                            x       y       z     vdW  Elec       q    Type
                         _______ _______ _______ _____ _____    ______ ____

>  <TORSDO>
F 12

$$$$
=
 OpenBabel10262419573D

 25 25  0  0  1  0  0  0  0  0999 V2000
  188.3740  178.0040  141.2240 C   0  0  0  0  0  0  0  0  0  0  0  0
  187.2370  178.3120  141.8710 C   0  0  0  0  0  3  0  0  0  0  0  0
  189.0540  176.4280  143.0760 C   0  0  0  0  0  2  0  0  0  0  0  0
  190.2570  178.5930  142.6900 C   0  0  0  0  0  3  0  0  0  0  0  0
  191.8110  176.9000  145.5680 O   0  0  0  0  0  1  0  0  0  0  0  0
  190.9220  177.1300  144.5280 C   0  0  0  0  0  0  0  0  0  0  0  0
  190.9180  178.4340  143.8420 C   0  0  0  0  0  3  0  0  0  0  0  0
  189.5550  177.4370  142.0120 C   0  0  2  0  0  0  0  0  0  0  0  0
  190.0800  176.1670  144.1470 C   0  0  0  0  0  3  0  0  0  0  0  0
  190.5950  176.7310  141.1140 C   0  0  0  0  0  2  0  0  0  0  0  0
  191.8430  177.5700  140.8670 C   0  0  0  0  0  1  0  0  0  0  0  0
  188.9250  179.0920  139.1640 O   0  0  0  0  0  0  0  0  0  0  0  0
  188.4430  178.0760  139.7370 C   0  0  0  0  0  0  0  0  0  0  0  0
  187.9770  177.0050  138.9710 O   0  0  0  0  0  0  0  0  0  0  0  0
  188.5430  176.6780  137.7110 C   0  0  0  0  0  1  0  0  0  0  0  0
  186.0890  178.7600  141.2220 O   0  0  0  0  0  0  0  0  0  0  0  0
  184.8360  178.1380  141.4580 C   0  0  0  0  0  2  0  0  0  0  0  0
  183.8750  179.3200  143.4310 C   0  0  0  0  0  3  0  0  0  0  0  0
  183.8930  179.1030  142.1100 C   0  0  0  0  0  3  0  0  0  0  0  0
  184.7810  178.6180  144.3950 C   0  0  0  0  0  2  0  0  0  0  0  0
  184.2150  178.6950  145.8010 C   0  0  0  0  0  2  0  0  0  0  0  0
  185.3120  178.4020  146.8020 C   0  0  0  0  0  2  0  0  0  0  0  0
  186.6370  178.2890  146.0760 C   0  0  0  0  0  2  0  0  0  0  0  0
  187.3500  177.2000  146.5780 O   0  0  0  0  0  0  0  0  0  0  0  0
  188.4790  177.7650  147.1700 C   0  0  0  0  0  1  0  0  0  0  0  0
  1  2  2  0  0  0  0
  1  8  1  0  0  0  0
  3  9  1  0  0  0  0
  4  7  2  0  0  0  0
  6  5  1  0  0  0  0
  7  6  1  0  0  0  0
  8 10  1  6  0  0  0
  8  4  1  0  0  0  0
  8  3  1  0  0  0  0
  9  6  2  0  0  0  0
 11 10  1  0  0  0  0
 12 13  2  0  0  0  0
 13  1  1  0  0  0  0
 14 13  1  0  0  0  0
 15 14  1  0  0  0  0
 16 17  1  0  0  0  0
 16  2  1  0  0  0  0
 17 19  1  0  0  0  0
 18 20  1  0  0  0  0
 19 18  2  0  0  0  0
 20 21  1  0  0  0  0
 21 22  1  0  0  0  0
 23 24  1  0  0  0  0
 23 22  1  0  0  0  0
 24 25  1  0  0  0  0
M  END
>  <MODEL>
8

>  <REMARK>
 VINA RESULT:      -5.9      1.783      5.506
  Name = 
  12 active torsions:
  status: ('A' for Active; 'I' for Inactive)
    1  A    between atoms: C_1  and  C_18
    2  A    between atoms: C_1  and  C_24
    3  A    between atoms: C_2  and  O_7
    4  A    between atoms: C_2  and  C_25
    5  A    between atoms: C_3  and  O_16
    6  A    between atoms: C_6  and  C_15
    7  A    between atoms: C_6  and  C_21
    8  A    between atoms: O_13  and  C_24
    9  A    between atoms: O_16  and  C_23
   10  A    between atoms: C_17  and  C_18
   11  A    between atoms: C_20  and  C_23
   12  A    between atoms: C_21  and  C_25
                            x       y       z     vdW  Elec       q    Type
                         _______ _______ _______ _____ _____    ______ ____

>  <TORSDO>
F 12

$$$$
=
 OpenBabel10262419573D

 25 25  0  0  1  0  0  0  0  0999 V2000
  189.1620  177.6450  140.7980 C   0  0  0  0  0  0  0  0  0  0  0  0
  188.0430  178.2490  141.2330 C   0  0  0  0  0  3  0  0  0  0  0  0
  189.0580  179.0010  138.6700 C   0  0  0  0  0  2  0  0  0  0  0  0
  188.7220  176.5170  138.6580 C   0  0  0  0  0  3  0  0  0  0  0  0
  188.3870  177.7480  135.2040 O   0  0  0  0  0  1  0  0  0  0  0  0
  188.5600  177.7860  136.5800 C   0  0  0  0  0  0  0  0  0  0  0  0
  188.3240  176.5730  137.3830 C   0  0  0  0  0  3  0  0  0  0  0  0
  189.4850  177.6530  139.3030 C   0  0  2  0  0  0  0  0  0  0  0  0
  188.9460  178.9200  137.1700 C   0  0  0  0  0  3  0  0  0  0  0  0
  190.9840  177.4230  139.0110 C   0  0  0  0  0  2  0  0  0  0  0  0
  191.3060  175.9880  138.6100 C   0  0  0  0  0  1  0  0  0  0  0  0
  190.1900  175.8610  142.0190 O   0  0  0  0  0  0  0  0  0  0  0  0
  190.1530  177.0970  141.7660 C   0  0  0  0  0  0  0  0  0  0  0  0
  191.0540  177.9600  142.3950 O   0  0  0  0  0  0  0  0  0  0  0  0
  191.6850  177.6250  143.6220 C   0  0  0  0  0  1  0  0  0  0  0  0
  187.7100  178.3570  142.5810 O   0  0  0  0  0  0  0  0  0  0  0  0
  186.7620  177.4770  143.1640 C   0  0  0  0  0  2  0  0  0  0  0  0
  186.0160  178.2610  145.4090 C   0  0  0  0  0  3  0  0  0  0  0  0
  185.8490  178.2330  144.0810 C   0  0  0  0  0  3  0  0  0  0  0  0
  187.1190  177.5370  146.1180 C   0  0  0  0  0  2  0  0  0  0  0  0
  187.4650  178.2430  147.4150 C   0  0  0  0  0  2  0  0  0  0  0  0
  188.4710  177.4170  148.1860 C   0  0  0  0  0  2  0  0  0  0  0  0
  189.5050  176.8620  147.2290 C   0  0  0  0  0  2  0  0  0  0  0  0
  190.7830  177.1180  147.7250 O   0  0  0  0  0  0  0  0  0  0  0  0
  191.6060  176.2140  147.0540 C   0  0  0  0  0  1  0  0  0  0  0  0
  1  2  2  0  0  0  0
  1 13  1  0  0  0  0
  2 16  1  0  0  0  0
  3  8  1  0  0  0  0
  4  8  1  0  0  0  0
  5  6  1  0  0  0  0
  6  9  2  0  0  0  0
  6  7  1  0  0  0  0
  7  4  2  0  0  0  0
  8 10  1  6  0  0  0
  8  1  1  0  0  0  0
  9  3  1  0  0  0  0
 11 10  1  0  0  0  0
 13 12  2  0  0  0  0
 13 14  1  0  0  0  0
 14 15  1  0  0  0  0
 16 17  1  0  0  0  0
 17 19  1  0  0  0  0
 18 20  1  0  0  0  0
 19 18  2  0  0  0  0
 20 21  1  0  0  0  0
 21 22  1  0  0  0  0
 23 24  1  0  0  0  0
 23 22  1  0  0  0  0
 25 24  1  0  0  0  0
M  END
>  <MODEL>
9

>  <REMARK>
 VINA RESULT:      -5.9      2.655      5.900
  Name = 
  12 active torsions:
  status: ('A' for Active; 'I' for Inactive)
    1  A    between atoms: C_1  and  C_18
    2  A    between atoms: C_1  and  C_24
    3  A    between atoms: C_2  and  O_7
    4  A    between atoms: C_2  and  C_25
    5  A    between atoms: C_3  and  O_16
    6  A    between atoms: C_6  and  C_15
    7  A    between atoms: C_6  and  C_21
    8  A    between atoms: O_13  and  C_24
    9  A    between atoms: O_16  and  C_23
   10  A    between atoms: C_17  and  C_18
   11  A    between atoms: C_20  and  C_23
   12  A    between atoms: C_21  and  C_25
                            x       y       z     vdW  Elec       q    Type
                         _______ _______ _______ _____ _____    ______ ____

>  <TORSDO>
F 12

$$$$
