=
 OpenBabel10262421073D

 32 38  0  0  1  0  0  0  0  0999 V2000
  189.8630  177.7440  143.0500 C   0  0  0  0  0  0  0  0  0  0  0  0
  188.1060  176.8980  144.6970 C   0  0  1  0  0  3  0  0  0  0  0  0
  191.1690  178.2070  142.8230 C   0  0  0  0  0  3  0  0  0  0  0  0
  189.4720  177.4220  144.3670 C   0  0  0  0  0  0  0  0  0  0  0  0
  187.6600  177.6240  145.9720 C   0  0  1  0  0  3  0  0  0  0  0  0
  184.2640  179.5190  142.8280 C   0  0  0  0  0  2  0  0  0  0  0  0
  187.0730  176.9390  143.5490 C   0  0  2  0  0  3  0  0  0  0  0  0
  184.4700  179.1240  145.3150 C   0  0  0  0  0  2  0  0  0  0  0  0
  185.3060  177.8870  145.0120 C   0  0  2  0  0  3  0  0  0  0  0  0
  190.3720  177.5990  145.4360 C   0  0  0  0  0  0  0  0  0  0  0  0
  186.1530  177.4400  146.2180 C   0  0  0  0  0  2  0  0  0  0  0  0
  189.9230  177.4630  146.8790 C   0  0  0  0  0  2  0  0  0  0  0  0
  191.6730  178.0370  145.1810 C   0  0  0  0  0  3  0  0  0  0  0  0
  187.7020  176.7860  142.1650 C   0  0  0  0  0  2  0  0  0  0  0  0
  188.8410  177.7810  141.9360 C   0  0  2  0  0  3  0  0  0  0  0  0
  186.1120  178.1130  143.7220 C   0  0  2  0  0  3  0  0  0  0  0  0
  188.4920  177.1470  147.0870 N   0  0  0  0  0  0  0  0  0  0  0  0
  192.0760  178.3280  143.8770 C   0  0  0  0  0  3  0  0  0  0  0  0
  183.5070  179.3760  144.1520 C   0  0  0  0  0  2  0  0  0  0  0  0
  185.1360  178.2910  142.5610 C   0  0  0  0  0  2  0  0  0  0  0  0
  188.3230  176.8510  138.3060 C   0  0  1  0  0  3  0  0  0  0  0  0
  191.9050  176.7880  137.0030 C   0  0  0  0  0  1  0  0  0  0  0  0
  187.7000  177.4440  137.2060 O   0  0  0  0  0  1  0  0  0  0  0  0
  190.6660  175.9230  138.9630 C   0  0  2  0  0  3  0  0  0  0  0  0
  189.4550  177.6230  140.5330 C   0  0  1  0  0  3  0  0  0  0  0  0
  189.6530  176.2100  137.8540 C   0  0  2  0  0  3  0  0  0  0  0  0
  190.1840  176.2780  140.3820 C   0  0  0  0  0  2  0  0  0  0  0  0
  188.4340  177.8320  139.4490 C   0  0  0  0  0  0  0  0  0  0  0  0
  187.6900  178.8020  139.4980 O   0  0  0  0  0  0  0  0  0  0  0  0
  190.8590  177.1240  138.0450 C   0  0  2  0  0  3  0  0  0  0  0  0
  188.1090  177.8650  148.2970 C   0  0  0  0  0  2  0  0  0  0  0  0
  189.3330  178.5100  148.9190 C   0  0  0  0  0  1  0  0  0  0  0  0
  1  4  1  0  0  0  0
  2  4  1  6  0  0  0
  2  5  1  0  0  0  0
  3  1  2  0  0  0  0
  3 18  1  0  0  0  0
  4 10  2  0  0  0  0
  5 11  1  1  0  0  0
  5 17  1  0  0  0  0
  6 19  1  0  0  0  0
  7 14  1  6  0  0  0
  7 16  1  0  0  0  0
  7  2  1  0  0  0  0
  9  8  1  1  0  0  0
  9 11  1  0  0  0  0
 10 12  1  0  0  0  0
 12 17  1  0  0  0  0
 13 10  1  0  0  0  0
 15 14  1  1  0  0  0
 15  1  1  0  0  0  0
 16 20  1  6  0  0  0
 16  9  1  0  0  0  0
 17 31  1  0  0  0  0
 18 13  2  0  0  0  0
 19  8  1  0  0  0  0
 20  6  1  0  0  0  0
 21 23  1  6  0  0  0
 21 28  1  0  0  0  0
 22 30  1  0  0  0  0
 24 27  1  1  0  0  0
 25 27  1  1  0  0  0
 25 15  1  0  0  0  0
 26 30  1  0  0  0  0
 26 21  1  0  0  0  0
 26 24  1  0  0  0  0
 28 29  2  0  0  0  0
 28 25  1  0  0  0  0
 30 24  1  0  0  0  0
 31 32  1  0  0  0  0
M  END
>  <MODEL>
1

>  <REMARK>
 VINA RESULT:      -9.9      0.000      0.000
  Name = 
  2 active torsions:
  status: ('A' for Active; 'I' for Inactive)
    1  A    between atoms: C_13  and  N_29
    2  A    between atoms: C_16  and  C_27
                            x       y       z     vdW  Elec       q    Type
                         _______ _______ _______ _____ _____    ______ ____

>  <TORSDO>
F 2

$$$$
=
 OpenBabel10262421073D

 32 38  0  0  1  0  0  0  0  0999 V2000
  186.9450  178.1550  141.9730 C   0  0  0  0  0  0  0  0  0  0  0  0
  187.9730  176.6950  143.7970 C   0  0  1  0  0  3  0  0  0  0  0  0
  187.0650  178.7580  140.7100 C   0  0  0  0  0  3  0  0  0  0  0  0
  188.0240  177.3940  142.4710 C   0  0  0  0  0  0  0  0  0  0  0  0
  189.3330  176.9330  144.4650 C   0  0  1  0  0  3  0  0  0  0  0  0
  186.4860  179.4990  147.6760 C   0  0  0  0  0  2  0  0  0  0  0  0
  186.7600  177.0330  144.6910 C   0  0  2  0  0  3  0  0  0  0  0  0
  188.7270  178.3330  147.7100 C   0  0  0  0  0  2  0  0  0  0  0  0
  188.1750  177.3260  146.7090 C   0  0  2  0  0  3  0  0  0  0  0  0
  189.2130  177.2780  141.7250 C   0  0  0  0  0  0  0  0  0  0  0  0
  189.2900  176.5720  145.9590 C   0  0  0  0  0  2  0  0  0  0  0  0
  190.4600  176.6480  142.3160 C   0  0  0  0  0  2  0  0  0  0  0  0
  189.2990  177.8670  140.4610 C   0  0  0  0  0  3  0  0  0  0  0  0
  185.5030  177.3850  143.8960 C   0  0  0  0  0  2  0  0  0  0  0  0
  185.7630  178.4790  142.8590 C   0  0  2  0  0  3  0  0  0  0  0  0
  187.1510  178.0150  145.7930 C   0  0  2  0  0  3  0  0  0  0  0  0
  190.3510  176.1800  143.7160 N   0  0  0  0  0  0  0  0  0  0  0  0
  188.2230  178.5940  139.9490 C   0  0  0  0  0  3  0  0  0  0  0  0
  187.5750  178.8800  148.5570 C   0  0  0  0  0  2  0  0  0  0  0  0
  185.9770  178.4920  146.6450 C   0  0  0  0  0  2  0  0  0  0  0  0
  181.9850  178.6560  142.8210 C   0  0  1  0  0  3  0  0  0  0  0  0
  181.2820  179.4040  139.1500 C   0  0  0  0  0  1  0  0  0  0  0  0
  181.0220  179.4830  143.4010 O   0  0  0  0  0  1  0  0  0  0  0  0
  182.6950  177.8440  140.4500 C   0  0  2  0  0  3  0  0  0  0  0  0
  184.4860  178.8300  142.0760 C   0  0  1  0  0  3  0  0  0  0  0  0
  181.5760  178.3400  141.3650 C   0  0  2  0  0  3  0  0  0  0  0  0
  184.0660  177.6880  141.1360 C   0  0  0  0  0  2  0  0  0  0  0  0
  183.3660  179.2440  142.9900 C   0  0  0  0  0  0  0  0  0  0  0  0
  183.5790  180.0610  143.8760 O   0  0  0  0  0  0  0  0  0  0  0  0
  182.2040  179.2820  140.3440 C   0  0  2  0  0  3  0  0  0  0  0  0
  191.6570  176.4360  144.3120 C   0  0  0  0  0  2  0  0  0  0  0  0
  191.9640  177.9200  144.2580 C   0  0  0  0  0  1  0  0  0  0  0  0
  1  4  1  0  0  0  0
  1 15  1  0  0  0  0
  2  4  1  6  0  0  0
  2  5  1  0  0  0  0
  2  7  1  0  0  0  0
  3  1  2  0  0  0  0
  5 11  1  1  0  0  0
  6 19  1  0  0  0  0
  7 14  1  6  0  0  0
  7 16  1  0  0  0  0
  8 19  1  0  0  0  0
  9 11  1  6  0  0  0
  9  8  1  0  0  0  0
 10 12  1  0  0  0  0
 10  4  2  0  0  0  0
 12 17  1  0  0  0  0
 13 10  1  0  0  0  0
 15 14  1  6  0  0  0
 16 20  1  1  0  0  0
 16  9  1  0  0  0  0
 17 31  1  0  0  0  0
 17  5  1  0  0  0  0
 18 13  2  0  0  0  0
 18  3  1  0  0  0  0
 20  6  1  0  0  0  0
 21 28  1  0  0  0  0
 21 23  1  6  0  0  0
 22 30  1  0  0  0  0
 24 27  1  1  0  0  0
 24 26  1  0  0  0  0
 25 27  1  1  0  0  0
 25 15  1  0  0  0  0
 25 28  1  0  0  0  0
 26 21  1  0  0  0  0
 28 29  2  0  0  0  0
 30 24  1  0  0  0  0
 30 26  1  0  0  0  0
 32 31  1  0  0  0  0
M  END
>  <MODEL>
2

>  <REMARK>
 VINA RESULT:      -9.2      2.556      5.664
  Name = 
  2 active torsions:
  status: ('A' for Active; 'I' for Inactive)
    1  A    between atoms: C_13  and  N_29
    2  A    between atoms: C_16  and  C_27
                            x       y       z     vdW  Elec       q    Type
                         _______ _______ _______ _____ _____    ______ ____

>  <TORSDO>
F 2

$$$$
=
 OpenBabel10262421073D

 32 38  0  0  1  0  0  0  0  0999 V2000
  188.2780  177.3510  142.1460 C   0  0  0  0  0  0  0  0  0  0  0  0
  187.4630  178.7430  140.1690 C   0  0  1  0  0  3  0  0  0  0  0  0
  189.2800  176.5480  142.7150 C   0  0  0  0  0  3  0  0  0  0  0  0
  188.4680  177.8580  140.8430 C   0  0  0  0  0  0  0  0  0  0  0  0
  187.3580  178.2530  138.7190 C   0  0  1  0  0  3  0  0  0  0  0  0
  182.7320  177.0890  140.2190 C   0  0  0  0  0  2  0  0  0  0  0  0
  186.1040  178.8900  140.8880 C   0  0  2  0  0  3  0  0  0  0  0  0
  183.9000  177.5950  138.0370 C   0  0  0  0  0  2  0  0  0  0  0  0
  184.8200  178.5450  138.7920 C   0  0  2  0  0  3  0  0  0  0  0  0
  189.6300  177.5300  140.1180 C   0  0  0  0  0  0  0  0  0  0  0  0
  186.1200  178.8410  138.0210 C   0  0  0  0  0  2  0  0  0  0  0  0
  189.7720  177.8820  138.6490 C   0  0  0  0  0  2  0  0  0  0  0  0
  190.6230  176.7500  140.7150 C   0  0  0  0  0  3  0  0  0  0  0  0
  186.2100  178.7730  142.4080 C   0  0  0  0  0  2  0  0  0  0  0  0
  186.9420  177.5020  142.8390 C   0  0  2  0  0  3  0  0  0  0  0  0
  185.0380  178.0240  140.2230 C   0  0  2  0  0  3  0  0  0  0  0  0
  188.6180  178.5750  138.0320 N   0  0  0  0  0  0  0  0  0  0  0  0
  190.4550  176.2710  142.0140 C   0  0  0  0  0  3  0  0  0  0  0  0
  182.5530  177.5200  138.7590 C   0  0  0  0  0  2  0  0  0  0  0  0
  183.6960  178.0230  140.9510 C   0  0  0  0  0  2  0  0  0  0  0  0
  186.0880  179.0030  146.2040 C   0  0  1  0  0  3  0  0  0  0  0  0
  188.1520  176.8360  148.5660 C   0  0  0  0  0  1  0  0  0  0  0  0
  184.9310  179.1240  146.9740 O   0  0  0  0  0  1  0  0  0  0  0  0
  188.4980  178.0400  146.4320 C   0  0  2  0  0  3  0  0  0  0  0  0
  187.0290  177.3920  144.3710 C   0  0  1  0  0  3  0  0  0  0  0  0
  187.2780  178.6480  147.1240 C   0  0  2  0  0  3  0  0  0  0  0  0
  188.3740  177.9160  144.9010 C   0  0  0  0  0  2  0  0  0  0  0  0
  185.8630  178.0590  145.0470 C   0  0  0  0  0  0  0  0  0  0  0  0
  184.7270  177.8340  144.6530 O   0  0  0  0  0  0  0  0  0  0  0  0
  187.5430  177.1490  147.2150 C   0  0  2  0  0  3  0  0  0  0  0  0
  188.5490  178.0710  136.6660 C   0  0  0  0  0  2  0  0  0  0  0  0
  188.7180  176.5650  136.6650 C   0  0  0  0  0  1  0  0  0  0  0  0
  1  3  1  0  0  0  0
  1 15  1  0  0  0  0
  2  4  1  1  0  0  0
  2  7  1  0  0  0  0
  4  1  2  0  0  0  0
  5 11  1  6  0  0  0
  5  2  1  0  0  0  0
  6 20  1  0  0  0  0
  7 14  1  1  0  0  0
  8 19  1  0  0  0  0
  8  9  1  0  0  0  0
  9 11  1  6  0  0  0
  9 16  1  0  0  0  0
 10 13  2  0  0  0  0
 10  4  1  0  0  0  0
 12 10  1  0  0  0  0
 13 18  1  0  0  0  0
 15 14  1  1  0  0  0
 15 25  1  0  0  0  0
 16  7  1  0  0  0  0
 16 20  1  1  0  0  0
 17 12  1  0  0  0  0
 17  5  1  0  0  0  0
 18  3  2  0  0  0  0
 19  6  1  0  0  0  0
 21 23  1  1  0  0  0
 21 26  1  0  0  0  0
 24 27  1  6  0  0  0
 24 26  1  0  0  0  0
 24 30  1  0  0  0  0
 25 27  1  1  0  0  0
 25 28  1  0  0  0  0
 26 30  1  0  0  0  0
 28 21  1  0  0  0  0
 29 28  2  0  0  0  0
 30 22  1  0  0  0  0
 31 17  1  0  0  0  0
 32 31  1  0  0  0  0
M  END
>  <MODEL>
3

>  <REMARK>
 VINA RESULT:      -8.0      3.107      6.988
  Name = 
  2 active torsions:
  status: ('A' for Active; 'I' for Inactive)
    1  A    between atoms: C_13  and  N_29
    2  A    between atoms: C_16  and  C_27
                            x       y       z     vdW  Elec       q    Type
                         _______ _______ _______ _____ _____    ______ ____

>  <TORSDO>
F 2

$$$$
=
 OpenBabel10262421073D

 32 38  0  0  1  0  0  0  0  0999 V2000
  188.8080  176.7490  137.5300 C   0  0  0  0  0  0  0  0  0  0  0  0
  188.1110  178.3640  139.3790 C   0  0  1  0  0  3  0  0  0  0  0  0
  188.4780  176.0650  136.3480 C   0  0  0  0  0  3  0  0  0  0  0  0
  187.8380  177.5780  138.1320 C   0  0  0  0  0  0  0  0  0  0  0  0
  186.8670  178.2180  140.2650 C   0  0  1  0  0  3  0  0  0  0  0  0
  190.1210  175.7820  143.1770 C   0  0  0  0  0  2  0  0  0  0  0  0
  189.4410  178.0460  140.0980 C   0  0  2  0  0  3  0  0  0  0  0  0
  187.9400  177.0240  143.4700 C   0  0  0  0  0  2  0  0  0  0  0  0
  188.3520  177.9410  142.3270 C   0  0  2  0  0  3  0  0  0  0  0  0
  186.5500  177.6840  137.5710 C   0  0  0  0  0  0  0  0  0  0  0  0
  187.1520  178.6790  141.7040 C   0  0  0  0  0  2  0  0  0  0  0  0
  185.4250  178.3950  138.3000 C   0  0  0  0  0  2  0  0  0  0  0  0
  186.2550  177.0130  136.3820 C   0  0  0  0  0  3  0  0  0  0  0  0
  190.5500  177.5990  139.1460 C   0  0  0  0  0  2  0  0  0  0  0  0
  190.1060  176.4460  138.2450 C   0  0  2  0  0  3  0  0  0  0  0  0
  189.2040  177.1560  141.3160 C   0  0  2  0  0  3  0  0  0  0  0  0
  185.7630  178.9530  139.6290 N   0  0  0  0  0  0  0  0  0  0  0  0
  187.2200  176.2160  135.7650 C   0  0  0  0  0  3  0  0  0  0  0  0
  189.1970  176.4970  144.1680 C   0  0  0  0  0  2  0  0  0  0  0  0
  190.4860  176.6990  142.0090 C   0  0  0  0  0  2  0  0  0  0  0  0
  192.8550  173.9550  137.5070 C   0  0  1  0  0  3  0  0  0  0  0  0
  194.6560  175.6290  134.5940 C   0  0  0  0  0  1  0  0  0  0  0  0
  192.9060  172.6320  137.0650 O   0  0  0  0  0  1  0  0  0  0  0  0
  193.7870  176.2870  136.8150 C   0  0  2  0  0  3  0  0  0  0  0  0
  191.2370  175.9990  137.3020 C   0  0  1  0  0  3  0  0  0  0  0  0
  193.9680  174.7690  136.8110 C   0  0  2  0  0  3  0  0  0  0  0  0
  192.5340  176.7830  137.5610 C   0  0  0  0  0  2  0  0  0  0  0  0
  191.4590  174.5130  137.3610 C   0  0  0  0  0  0  0  0  0  0  0  0
  190.5010  173.7550  137.2910 O   0  0  0  0  0  0  0  0  0  0  0  0
  193.4930  175.4870  135.5530 C   0  0  2  0  0  3  0  0  0  0  0  0
  184.5600  178.7830  140.4360 C   0  0  0  0  0  2  0  0  0  0  0  0
  183.5570  177.9260  139.6890 C   0  0  0  0  0  1  0  0  0  0  0  0
  1  4  1  0  0  0  0
  1 15  1  0  0  0  0
  2  4  1  6  0  0  0
  2  7  1  0  0  0  0
  2  5  1  0  0  0  0
  3  1  2  0  0  0  0
  5 11  1  1  0  0  0
  6 19  1  0  0  0  0
  7 14  1  6  0  0  0
  7 16  1  0  0  0  0
  8 19  1  0  0  0  0
  9 11  1  6  0  0  0
  9  8  1  0  0  0  0
 10  4  2  0  0  0  0
 10 12  1  0  0  0  0
 12 17  1  0  0  0  0
 13 10  1  0  0  0  0
 15 14  1  6  0  0  0
 16 20  1  1  0  0  0
 16  9  1  0  0  0  0
 17  5  1  0  0  0  0
 17 31  1  0  0  0  0
 18  3  1  0  0  0  0
 18 13  2  0  0  0  0
 20  6  1  0  0  0  0
 21 23  1  6  0  0  0
 22 30  1  0  0  0  0
 24 27  1  1  0  0  0
 25 28  1  0  0  0  0
 25 27  1  1  0  0  0
 25 15  1  0  0  0  0
 26 24  1  0  0  0  0
 26 21  1  0  0  0  0
 28 21  1  0  0  0  0
 29 28  2  0  0  0  0
 30 26  1  0  0  0  0
 30 24  1  0  0  0  0
 32 31  1  0  0  0  0
M  END
>  <MODEL>
4

>  <REMARK>
 VINA RESULT:      -8.0      3.070      6.409
  Name = 
  2 active torsions:
  status: ('A' for Active; 'I' for Inactive)
    1  A    between atoms: C_13  and  N_29
    2  A    between atoms: C_16  and  C_27
                            x       y       z     vdW  Elec       q    Type
                         _______ _______ _______ _____ _____    ______ ____

>  <TORSDO>
F 2

$$$$
=
 OpenBabel10262421073D

 32 38  0  0  1  0  0  0  0  0999 V2000
  189.4980  177.6860  141.9570 C   0  0  0  0  0  0  0  0  0  0  0  0
  188.8720  176.5220  144.1400 C   0  0  1  0  0  3  0  0  0  0  0  0
  190.5010  178.1190  141.0730 C   0  0  0  0  0  3  0  0  0  0  0  0
  189.8760  177.0390  143.1520 C   0  0  0  0  0  0  0  0  0  0  0  0
  189.4000  176.8960  145.5300 C   0  0  1  0  0  3  0  0  0  0  0  0
  185.3040  179.7630  145.5120 C   0  0  0  0  0  2  0  0  0  0  0  0
  187.4050  176.9320  143.8880 C   0  0  2  0  0  3  0  0  0  0  0  0
  186.8090  178.6930  147.2360 C   0  0  0  0  0  2  0  0  0  0  0  0
  187.0400  177.5420  146.2660 C   0  0  2  0  0  3  0  0  0  0  0  0
  191.2380  176.8670  143.4650 C   0  0  0  0  0  0  0  0  0  0  0  0
  188.3090  176.7360  146.6020 C   0  0  0  0  0  2  0  0  0  0  0  0
  191.6810  176.3680  144.8270 C   0  0  0  0  0  2  0  0  0  0  0  0
  192.2150  177.2850  142.5590 C   0  0  0  0  0  3  0  0  0  0  0  0
  187.0790  177.1280  142.4070 C   0  0  0  0  0  2  0  0  0  0  0  0
  188.0570  178.0830  141.7220 C   0  0  2  0  0  3  0  0  0  0  0  0
  186.9870  178.0660  144.8210 C   0  0  2  0  0  3  0  0  0  0  0  0
  190.5990  176.0870  145.7990 N   0  0  0  0  0  0  0  0  0  0  0  0
  191.8480  177.8980  141.3600 C   0  0  0  0  0  3  0  0  0  0  0  0
  185.4320  179.3060  146.9680 C   0  0  0  0  0  2  0  0  0  0  0  0
  185.5860  178.6080  144.5490 C   0  0  0  0  0  2  0  0  0  0  0  0
  185.4300  177.9070  139.0070 C   0  0  1  0  0  3  0  0  0  0  0  0
  187.5270  178.4250  135.8650 C   0  0  0  0  0  1  0  0  0  0  0  0
  184.3140  178.6670  138.6520 O   0  0  0  0  0  1  0  0  0  0  0  0
  187.6440  177.0610  137.9270 C   0  0  2  0  0  3  0  0  0  0  0  0
  187.7080  178.2790  140.2370 C   0  0  1  0  0  3  0  0  0  0  0  0
  186.1910  177.4910  137.7280 C   0  0  2  0  0  3  0  0  0  0  0  0
  188.1220  177.0630  139.3920 C   0  0  0  0  0  2  0  0  0  0  0  0
  186.2570  178.6280  140.0450 C   0  0  0  0  0  0  0  0  0  0  0  0
  185.7490  179.4990  140.7370 O   0  0  0  0  0  0  0  0  0  0  0  0
  187.3270  178.4420  137.3660 C   0  0  2  0  0  3  0  0  0  0  0  0
  191.1390  176.4680  147.0990 C   0  0  0  0  0  2  0  0  0  0  0  0
  192.3650  175.6320  147.4100 C   0  0  0  0  0  1  0  0  0  0  0  0
  1  4  1  0  0  0  0
  2  4  1  6  0  0  0
  2  5  1  0  0  0  0
  3 18  1  0  0  0  0
  3  1  2  0  0  0  0
  4 10  2  0  0  0  0
  5 17  1  0  0  0  0
  5 11  1  1  0  0  0
  6 19  1  0  0  0  0
  7 14  1  6  0  0  0
  7  2  1  0  0  0  0
  7 16  1  0  0  0  0
  9 11  1  1  0  0  0
  9  8  1  0  0  0  0
 10 12  1  0  0  0  0
 12 17  1  0  0  0  0
 13 10  1  0  0  0  0
 15  1  1  0  0  0  0
 15 14  1  6  0  0  0
 16 20  1  6  0  0  0
 16  9  1  0  0  0  0
 17 31  1  0  0  0  0
 18 13  2  0  0  0  0
 19  8  1  0  0  0  0
 20  6  1  0  0  0  0
 21 23  1  6  0  0  0
 21 28  1  0  0  0  0
 22 30  1  0  0  0  0
 24 27  1  1  0  0  0
 25 27  1  6  0  0  0
 25 15  1  0  0  0  0
 26 24  1  0  0  0  0
 26 21  1  0  0  0  0
 28 25  1  0  0  0  0
 28 29  2  0  0  0  0
 30 26  1  0  0  0  0
 30 24  1  0  0  0  0
 31 32  1  0  0  0  0
M  END
>  <MODEL>
5

>  <REMARK>
 VINA RESULT:      -7.9      1.967      2.710
  Name = 
  2 active torsions:
  status: ('A' for Active; 'I' for Inactive)
    1  A    between atoms: C_13  and  N_29
    2  A    between atoms: C_16  and  C_27
                            x       y       z     vdW  Elec       q    Type
                         _______ _______ _______ _____ _____    ______ ____

>  <TORSDO>
F 2

$$$$
=
 OpenBabel10262421073D

 32 38  0  0  1  0  0  0  0  0999 V2000
  185.2760  178.4380  141.0360 C   0  0  0  0  0  0  0  0  0  0  0  0
  187.6030  178.4520  139.9880 C   0  0  1  0  0  3  0  0  0  0  0  0
  184.4820  178.3710  142.1930 C   0  0  0  0  0  3  0  0  0  0  0  0
  186.6790  178.3630  141.1660 C   0  0  0  0  0  0  0  0  0  0  0  0
  188.6800  177.3810  140.2020 C   0  0  1  0  0  3  0  0  0  0  0  0
  186.5130  175.4310  136.1400 C   0  0  0  0  0  2  0  0  0  0  0  0
  186.9310  178.4050  138.5990 C   0  0  2  0  0  3  0  0  0  0  0  0
  188.7700  175.3200  137.2690 C   0  0  0  0  0  2  0  0  0  0  0  0
  188.5710  176.7590  137.7250 C   0  0  2  0  0  3  0  0  0  0  0  0
  187.2640  178.1870  142.4350 C   0  0  0  0  0  0  0  0  0  0  0  0
  189.4800  177.1310  138.9120 C   0  0  0  0  0  2  0  0  0  0  0  0
  188.7450  177.8950  142.5900 C   0  0  0  0  0  2  0  0  0  0  0  0
  186.4540  178.1480  143.5720 C   0  0  0  0  0  3  0  0  0  0  0  0
  185.5240  179.0030  138.5890 C   0  0  0  0  0  2  0  0  0  0  0  0
  184.6300  178.3920  139.6690 C   0  0  2  0  0  3  0  0  0  0  0  0
  187.0750  177.0220  137.9680 C   0  0  2  0  0  3  0  0  0  0  0  0
  189.5230  177.7960  141.3340 N   0  0  0  0  0  0  0  0  0  0  0  0
  185.0680  178.2530  143.4530 C   0  0  0  0  0  3  0  0  0  0  0  0
  187.9980  175.0950  135.9670 C   0  0  0  0  0  2  0  0  0  0  0  0
  186.3310  176.8630  136.6440 C   0  0  0  0  0  2  0  0  0  0  0  0
  181.1350  178.2660  138.2280 C   0  0  1  0  0  3  0  0  0  0  0  0
  179.6370  181.5140  139.5470 C   0  0  0  0  0  1  0  0  0  0  0  0
  180.0250  177.4340  138.3820 O   0  0  0  0  0  1  0  0  0  0  0  0
  181.7350  180.7910  138.4520 C   0  0  2  0  0  3  0  0  0  0  0  0
  183.2140  178.9940  139.6370 C   0  0  1  0  0  3  0  0  0  0  0  0
  180.6660  179.7360  138.1650 C   0  0  2  0  0  3  0  0  0  0  0  0
  183.1420  180.2240  138.7190 C   0  0  0  0  0  2  0  0  0  0  0  0
  182.1770  177.9650  139.2790 C   0  0  0  0  0  0  0  0  0  0  0  0
  182.1820  176.8800  139.8440 O   0  0  0  0  0  0  0  0  0  0  0  0
  180.7040  180.4410  139.5180 C   0  0  2  0  0  3  0  0  0  0  0  0
  190.5220  176.7630  141.5790 C   0  0  0  0  0  2  0  0  0  0  0  0
  190.1760  176.0030  142.8440 C   0  0  0  0  0  1  0  0  0  0  0  0
  1  4  2  0  0  0  0
  1  3  1  0  0  0  0
  2  5  1  0  0  0  0
  2  4  1  1  0  0  0
  3 18  2  0  0  0  0
  4 10  1  0  0  0  0
  5 11  1  6  0  0  0
  5 17  1  0  0  0  0
  6 20  1  0  0  0  0
  7 14  1  1  0  0  0
  7  2  1  0  0  0  0
  9  8  1  1  0  0  0
  9 16  1  0  0  0  0
  9 11  1  0  0  0  0
 10 12  1  0  0  0  0
 10 13  2  0  0  0  0
 15 14  1  6  0  0  0
 15  1  1  0  0  0  0
 16 20  1  6  0  0  0
 16  7  1  0  0  0  0
 17 31  1  0  0  0  0
 17 12  1  0  0  0  0
 18 13  1  0  0  0  0
 19  6  1  0  0  0  0
 19  8  1  0  0  0  0
 21 23  1  1  0  0  0
 21 28  1  0  0  0  0
 24 27  1  1  0  0  0
 24 30  1  0  0  0  0
 25 27  1  6  0  0  0
 25 15  1  0  0  0  0
 26 21  1  0  0  0  0
 26 24  1  0  0  0  0
 26 30  1  0  0  0  0
 28 25  1  0  0  0  0
 28 29  2  0  0  0  0
 30 22  1  0  0  0  0
 31 32  1  0  0  0  0
M  END
>  <MODEL>
6

>  <REMARK>
 VINA RESULT:      -7.6      3.554      7.358
  Name = 
  2 active torsions:
  status: ('A' for Active; 'I' for Inactive)
    1  A    between atoms: C_13  and  N_29
    2  A    between atoms: C_16  and  C_27
                            x       y       z     vdW  Elec       q    Type
                         _______ _______ _______ _____ _____    ______ ____

>  <TORSDO>
F 2

$$$$
=
 OpenBabel10262421073D

 32 38  0  0  1  0  0  0  0  0999 V2000
  187.6140  177.7020  143.4530 C   0  0  0  0  0  0  0  0  0  0  0  0
  189.0870  178.3500  145.4330 C   0  0  1  0  0  3  0  0  0  0  0  0
  186.3250  177.5540  142.9160 C   0  0  0  0  0  3  0  0  0  0  0  0
  187.7510  178.1400  144.7880 C   0  0  0  0  0  0  0  0  0  0  0  0
  188.9810  177.7680  146.8480 C   0  0  1  0  0  3  0  0  0  0  0  0
  192.3360  174.5590  144.9910 C   0  0  0  0  0  2  0  0  0  0  0  0
  190.3090  177.8500  144.6330 C   0  0  2  0  0  3  0  0  0  0  0  0
  191.6580  175.4190  147.2670 C   0  0  0  0  0  2  0  0  0  0  0  0
  191.3170  176.7540  146.6190 C   0  0  2  0  0  3  0  0  0  0  0  0
  186.6070  178.3850  145.5730 C   0  0  0  0  0  0  0  0  0  0  0  0
  190.3700  177.6040  147.4880 C   0  0  0  0  0  2  0  0  0  0  0  0
  186.7130  178.6510  147.0630 C   0  0  0  0  0  2  0  0  0  0  0  0
  185.3370  178.2520  145.0080 C   0  0  0  0  0  3  0  0  0  0  0  0
  190.1060  177.9140  143.1190 C   0  0  0  0  0  2  0  0  0  0  0  0
  188.8190  177.2150  142.6800 C   0  0  2  0  0  3  0  0  0  0  0  0
  190.8170  176.5200  145.1840 C   0  0  2  0  0  3  0  0  0  0  0  0
  188.0800  178.6260  147.6320 N   0  0  0  0  0  0  0  0  0  0  0  0
  185.1950  177.8510  143.6800 C   0  0  0  0  0  3  0  0  0  0  0  0
  192.7580  174.7330  146.4530 C   0  0  0  0  0  2  0  0  0  0  0  0
  191.9490  175.9010  144.3680 C   0  0  0  0  0  2  0  0  0  0  0  0
  190.3910  177.8280  139.2940 C   0  0  1  0  0  3  0  0  0  0  0  0
  187.3320  177.8960  137.0210 C   0  0  0  0  0  1  0  0  0  0  0  0
  191.2660  177.1280  138.4620 O   0  0  0  0  0  1  0  0  0  0  0  0
  188.0100  178.8800  139.1870 C   0  0  2  0  0  3  0  0  0  0  0  0
  188.6360  177.2770  141.1530 C   0  0  1  0  0  3  0  0  0  0  0  0
  189.2780  178.4720  138.4380 C   0  0  2  0  0  3  0  0  0  0  0  0
  188.0520  178.6270  140.7070 C   0  0  0  0  0  2  0  0  0  0  0  0
  189.9090  176.9480  140.4230 C   0  0  0  0  0  0  0  0  0  0  0  0
  190.5560  175.9620  140.7500 O   0  0  0  0  0  0  0  0  0  0  0  0
  188.0210  177.6150  138.3390 C   0  0  2  0  0  3  0  0  0  0  0  0
  187.9320  178.0570  148.9660 C   0  0  0  0  0  2  0  0  0  0  0  0
  187.5550  176.5920  148.8600 C   0  0  0  0  0  1  0  0  0  0  0  0
  1  4  1  0  0  0  0
  2  4  1  6  0  0  0
  2  5  1  0  0  0  0
  3  1  2  0  0  0  0
  3 18  1  0  0  0  0
  4 10  2  0  0  0  0
  5 11  1  1  0  0  0
  5 17  1  0  0  0  0
  6 19  1  0  0  0  0
  7 14  1  6  0  0  0
  7 16  1  0  0  0  0
  7  2  1  0  0  0  0
  9  8  1  1  0  0  0
  9 11  1  0  0  0  0
 10 12  1  0  0  0  0
 12 17  1  0  0  0  0
 13 10  1  0  0  0  0
 15 14  1  6  0  0  0
 15  1  1  0  0  0  0
 16 20  1  6  0  0  0
 16  9  1  0  0  0  0
 17 31  1  0  0  0  0
 18 13  2  0  0  0  0
 19  8  1  0  0  0  0
 20  6  1  0  0  0  0
 21 23  1  6  0  0  0
 21 28  1  0  0  0  0
 22 30  1  0  0  0  0
 24 27  1  1  0  0  0
 25 27  1  1  0  0  0
 25 15  1  0  0  0  0
 26 24  1  0  0  0  0
 26 21  1  0  0  0  0
 28 29  2  0  0  0  0
 28 25  1  0  0  0  0
 30 26  1  0  0  0  0
 30 24  1  0  0  0  0
 32 31  1  0  0  0  0
M  END
>  <MODEL>
7

>  <REMARK>
 VINA RESULT:      -7.3      1.841      4.704
  Name = 
  2 active torsions:
  status: ('A' for Active; 'I' for Inactive)
    1  A    between atoms: C_13  and  N_29
    2  A    between atoms: C_16  and  C_27
                            x       y       z     vdW  Elec       q    Type
                         _______ _______ _______ _____ _____    ______ ____

>  <TORSDO>
F 2

$$$$
=
 OpenBabel10262421073D

 32 38  0  0  1  0  0  0  0  0999 V2000
  186.3690  177.8480  143.5510 C   0  0  0  0  0  0  0  0  0  0  0  0
  188.4130  178.7230  142.2980 C   0  0  1  0  0  3  0  0  0  0  0  0
  185.8200  177.3270  144.7350 C   0  0  0  0  0  3  0  0  0  0  0  0
  187.7490  178.1420  143.5100 C   0  0  0  0  0  0  0  0  0  0  0  0
  189.7400  177.9740  142.1300 C   0  0  1  0  0  3  0  0  0  0  0  0
  187.4740  176.3780  137.9690 C   0  0  0  0  0  2  0  0  0  0  0  0
  187.5500  178.7790  141.0180 C   0  0  2  0  0  3  0  0  0  0  0  0
  189.8440  176.6690  138.7930 C   0  0  0  0  0  2  0  0  0  0  0  0
  189.3760  177.8700  139.6030 C   0  0  2  0  0  3  0  0  0  0  0  0
  188.5620  177.8780  144.6290 C   0  0  0  0  0  0  0  0  0  0  0  0
  190.3500  178.2270  140.7410 C   0  0  0  0  0  2  0  0  0  0  0  0
  190.0730  177.9830  144.5510 C   0  0  0  0  0  2  0  0  0  0  0  0
  187.9880  177.3820  145.8020 C   0  0  0  0  0  3  0  0  0  0  0  0
  186.0590  178.9510  141.3020 C   0  0  0  0  0  2  0  0  0  0  0  0
  185.5360  177.9070  142.2900 C   0  0  2  0  0  3  0  0  0  0  0  0
  187.9240  177.6510  140.0590 C   0  0  2  0  0  3  0  0  0  0  0  0
  190.6310  178.3650  143.2340 N   0  0  0  0  0  0  0  0  0  0  0  0
  186.6190  177.1190  145.8600 C   0  0  0  0  0  3  0  0  0  0  0  0
  188.9450  176.5110  137.5640 C   0  0  0  0  0  2  0  0  0  0  0  0
  187.0320  177.5670  138.8230 C   0  0  0  0  0  2  0  0  0  0  0  0
  182.1780  179.0760  140.9980 C   0  0  1  0  0  3  0  0  0  0  0  0
  180.0290  178.8860  144.1410 C   0  0  0  0  0  1  0  0  0  0  0  0
  181.2500  178.6020  140.0690 O   0  0  0  0  0  1  0  0  0  0  0  0
  182.2610  179.7510  143.5120 C   0  0  2  0  0  3  0  0  0  0  0  0
  184.0300  178.0850  142.5560 C   0  0  1  0  0  3  0  0  0  0  0  0
  181.4300  179.6180  142.2350 C   0  0  2  0  0  3  0  0  0  0  0  0
  183.7440  179.3650  143.3580 C   0  0  0  0  0  2  0  0  0  0  0  0
  183.2280  178.0280  141.2850 C   0  0  0  0  0  0  0  0  0  0  0  0
  183.4310  177.1280  140.4820 O   0  0  0  0  0  0  0  0  0  0  0  0
  181.2880  178.5900  143.3530 C   0  0  2  0  0  3  0  0  0  0  0  0
  191.8810  177.6230  143.1130 C   0  0  0  0  0  2  0  0  0  0  0  0
  191.6810  176.1990  143.5930 C   0  0  0  0  0  1  0  0  0  0  0  0
  1  3  1  0  0  0  0
  2  4  1  1  0  0  0
  3 18  2  0  0  0  0
  4  1  2  0  0  0  0
  4 10  1  0  0  0  0
  5 11  1  6  0  0  0
  5  2  1  0  0  0  0
  5 17  1  0  0  0  0
  6 20  1  0  0  0  0
  7 14  1  1  0  0  0
  7  2  1  0  0  0  0
  9  8  1  1  0  0  0
  9 16  1  0  0  0  0
  9 11  1  0  0  0  0
 10 13  2  0  0  0  0
 12 10  1  0  0  0  0
 13 18  1  0  0  0  0
 15 14  1  6  0  0  0
 15 25  1  0  0  0  0
 15  1  1  0  0  0  0
 16 20  1  6  0  0  0
 16  7  1  0  0  0  0
 17 12  1  0  0  0  0
 19  6  1  0  0  0  0
 19  8  1  0  0  0  0
 21 23  1  6  0  0  0
 21 28  1  0  0  0  0
 21 26  1  0  0  0  0
 24 27  1  6  0  0  0
 25 27  1  6  0  0  0
 26 30  1  0  0  0  0
 26 24  1  0  0  0  0
 28 25  1  0  0  0  0
 29 28  2  0  0  0  0
 30 24  1  0  0  0  0
 30 22  1  0  0  0  0
 31 17  1  0  0  0  0
 31 32  1  0  0  0  0
M  END
>  <MODEL>
8

>  <REMARK>
 VINA RESULT:      -7.2      2.209      6.541
  Name = 
  2 active torsions:
  status: ('A' for Active; 'I' for Inactive)
    1  A    between atoms: C_13  and  N_29
    2  A    between atoms: C_16  and  C_27
                            x       y       z     vdW  Elec       q    Type
                         _______ _______ _______ _____ _____    ______ ____

>  <TORSDO>
F 2

$$$$
=
 OpenBabel10262421073D

 32 38  0  0  1  0  0  0  0  0999 V2000
  188.3330  177.1270  142.1300 C   0  0  0  0  0  0  0  0  0  0  0  0
  189.0640  178.2000  139.9320 C   0  0  1  0  0  3  0  0  0  0  0  0
  188.6590  176.3390  143.2460 C   0  0  0  0  0  3  0  0  0  0  0  0
  189.3160  177.3520  141.1430 C   0  0  0  0  0  0  0  0  0  0  0  0
  189.6890  177.4570  138.7450 C   0  0  1  0  0  3  0  0  0  0  0  0
  184.8950  177.1320  137.3630 C   0  0  0  0  0  2  0  0  0  0  0  0
  187.5990  178.6350  139.7070 C   0  0  2  0  0  3  0  0  0  0  0  0
  187.1550  177.0770  136.2370 C   0  0  0  0  0  2  0  0  0  0  0  0
  187.6660  178.0430  137.2970 C   0  0  2  0  0  3  0  0  0  0  0  0
  190.5890  176.7620  141.2650 C   0  0  0  0  0  0  0  0  0  0  0  0
  189.2020  178.0370  137.4060 C   0  0  0  0  0  2  0  0  0  0  0  0
  191.5950  176.8090  140.1300 C   0  0  0  0  0  2  0  0  0  0  0  0
  190.8960  176.0020  142.3960 C   0  0  0  0  0  3  0  0  0  0  0  0
  186.8120  178.7990  141.0070 C   0  0  0  0  0  2  0  0  0  0  0  0
  186.9020  177.5580  141.8970 C   0  0  2  0  0  3  0  0  0  0  0  0
  186.9370  177.7840  138.6270 C   0  0  2  0  0  3  0  0  0  0  0  0
  191.1520  177.4970  138.8970 N   0  0  0  0  0  0  0  0  0  0  0  0
  189.9380  175.8020  143.3910 C   0  0  0  0  0  3  0  0  0  0  0  0
  185.6530  177.2940  136.0410 C   0  0  0  0  0  2  0  0  0  0  0  0
  185.4500  178.0740  138.4320 C   0  0  0  0  0  2  0  0  0  0  0  0
  184.1640  179.4160  143.7300 C   0  0  1  0  0  3  0  0  0  0  0  0
  184.6190  178.1440  147.2950 C   0  0  0  0  0  1  0  0  0  0  0  0
  182.7700  179.4350  143.6810 O   0  0  0  0  0  1  0  0  0  0  0  0
  186.0560  179.0080  145.4750 C   0  0  2  0  0  3  0  0  0  0  0  0
  186.0940  177.7340  143.1950 C   0  0  1  0  0  3  0  0  0  0  0  0
  184.6230  179.4700  145.2040 C   0  0  2  0  0  3  0  0  0  0  0  0
  186.8470  178.5990  144.2180 C   0  0  0  0  0  2  0  0  0  0  0  0
  184.7110  178.2610  142.9250 C   0  0  0  0  0  0  0  0  0  0  0  0
  184.0300  177.7490  142.0480 O   0  0  0  0  0  0  0  0  0  0  0  0
  184.8840  178.0920  145.8060 C   0  0  2  0  0  3  0  0  0  0  0  0
  191.7570  176.7530  137.7990 C   0  0  0  0  0  2  0  0  0  0  0  0
  191.4800  175.2720  137.9690 C   0  0  0  0  0  1  0  0  0  0  0  0
  1  3  1  0  0  0  0
  2  4  1  1  0  0  0
  3 18  2  0  0  0  0
  4 10  1  0  0  0  0
  4  1  2  0  0  0  0
  5 11  1  6  0  0  0
  5 17  1  0  0  0  0
  5  2  1  0  0  0  0
  6 20  1  0  0  0  0
  7  2  1  0  0  0  0
  7 14  1  1  0  0  0
  9  8  1  6  0  0  0
  9 11  1  0  0  0  0
  9 16  1  0  0  0  0
 10 13  2  0  0  0  0
 12 10  1  0  0  0  0
 13 18  1  0  0  0  0
 15 14  1  1  0  0  0
 15  1  1  0  0  0  0
 15 25  1  0  0  0  0
 16 20  1  6  0  0  0
 16  7  1  0  0  0  0
 17 12  1  0  0  0  0
 19  8  1  0  0  0  0
 19  6  1  0  0  0  0
 21 23  1  1  0  0  0
 21 26  1  0  0  0  0
 24 27  1  6  0  0  0
 24 30  1  0  0  0  0
 25 27  1  1  0  0  0
 26 24  1  0  0  0  0
 26 30  1  0  0  0  0
 28 25  1  0  0  0  0
 28 21  1  0  0  0  0
 29 28  2  0  0  0  0
 30 22  1  0  0  0  0
 31 32  1  0  0  0  0
 31 17  1  0  0  0  0
M  END
>  <MODEL>
9

>  <REMARK>
 VINA RESULT:      -7.2      2.791      7.071
  Name = 
  2 active torsions:
  status: ('A' for Active; 'I' for Inactive)
    1  A    between atoms: C_13  and  N_29
    2  A    between atoms: C_16  and  C_27
                            x       y       z     vdW  Elec       q    Type
                         _______ _______ _______ _____ _____    ______ ____

>  <TORSDO>
F 2

$$$$
