=
 OpenBabel10262422013D

 30 32  0  0  1  0  0  0  0  0999 V2000
  190.8240  176.0690  143.3670 C   0  0  0  0  0  0  0  0  0  0  0  0
  188.0460  178.3760  145.7840 C   0  0  0  0  0  2  0  0  0  0  0  0
  187.9550  177.2750  144.7470 C   0  0  2  0  0  0  0  0  0  0  0  0
  190.9130  177.0190  144.4190 N   0  0  0  0  0  0  0  0  0  0  0  0
  191.4760  174.9940  143.4280 O   0  0  0  0  0  0  0  0  0  0  0  0
  188.9270  177.1260  145.9250 C   0  0  1  0  0  3  0  0  0  0  0  0
  190.4430  177.4460  145.7700 C   0  0  2  0  0  3  0  0  0  0  0  0
  189.8820  176.3170  142.2270 C   0  0  1  0  0  3  0  0  0  0  0  0
  188.4600  177.6110  143.4070 N   0  0  0  0  0  0  0  0  0  0  0  0
  186.7920  176.5040  144.8250 O   0  0  0  0  0  1  0  0  0  0  0  0
  190.8000  178.4370  144.8780 C   0  0  0  0  0  2  0  0  0  0  0  0
  188.5430  176.4620  142.6700 O   0  0  0  0  0  0  0  0  0  0  0  0
  190.3440  177.4520  141.3020 C   0  0  1  0  0  3  0  0  0  0  0  0
  191.7400  177.5170  141.2770 O   0  0  0  0  0  1  0  0  0  0  0  0
  189.7820  177.2700  139.8870 C   0  0  1  0  0  3  0  0  0  0  0  0
  188.9470  178.4660  139.4290 C   0  0  0  0  0  2  0  0  0  0  0  0
  188.8750  178.6300  137.6150 S   0  0  0  0  0  0  0  0  0  0  0  0
  186.2260  178.1240  137.9720 C   0  0  0  0  0  1  0  0  0  0  0  0
  187.4990  177.4540  137.5010 C   0  0  0  0  0  2  0  0  0  0  0  0
  190.8380  176.8530  138.8680 C   0  0  0  0  0  2  0  0  0  0  0  0
  190.7990  175.4140  138.6750 N   0  0  0  0  0  2  0  0  0  0  0  0
  190.3860  175.6490  136.2760 O   0  0  0  0  0  0  0  0  0  0  0  0
  190.5500  173.5880  137.2620 O   0  0  0  0  0  1  0  0  0  0  0  0
  190.5760  174.8390  137.3890 C   0  0  0  0  0  0  0  0  0  0  0  0
  187.5500  178.5530  142.7410 C   0  0  0  0  0  2  0  0  0  0  0  0
  186.2660  177.8970  142.2420 C   0  0  0  0  0  2  0  0  0  0  0  0
  185.1090  178.8670  142.4010 C   0  0  0  0  0  2  0  0  0  0  0  0
  184.4660  178.7410  143.7740 C   0  0  2  0  0  3  0  0  0  0  0  0
  183.0950  178.9870  143.6950 O   0  0  0  0  0  1  0  0  0  0  0  0
  185.0510  179.6220  144.6660 F   0  0  0  0  0  0  0  0  0  0  0  0
  1  5  2  0  0  0  0
  1  4  1  0  0  0  0
  3 10  1  1  0  0  0
  3  2  1  0  0  0  0
  3  6  1  0  0  0  0
  4 11  1  0  0  0  0
  4  7  1  0  0  0  0
  6  2  1  1  0  0  0
  7 11  1  6  0  0  0
  7  6  1  0  0  0  0
  8 13  1  1  0  0  0
  8 12  1  0  0  0  0
  8  1  1  0  0  0  0
  9  3  1  0  0  0  0
 12  9  1  0  0  0  0
 13 14  1  6  0  0  0
 15 20  1  6  0  0  0
 15 13  1  0  0  0  0
 16 15  1  0  0  0  0
 17 16  1  0  0  0  0
 19 17  1  0  0  0  0
 19 18  1  0  0  0  0
 21 20  1  0  0  0  0
 22 24  2  0  0  0  0
 23 24  1  0  0  0  0
 24 21  1  0  0  0  0
 25  9  1  0  0  0  0
 26 27  1  0  0  0  0
 26 25  1  0  0  0  0
 27 28  1  0  0  0  0
 28 29  1  6  0  0  0
 28 30  1  0  0  0  0
M  END
>  <MODEL>
1

>  <REMARK>
 VINA RESULT:      -6.2      0.000      0.000
  Name = 
  11 active torsions:
  status: ('A' for Active; 'I' for Inactive)
    1  A    between atoms: C_1  and  C_4
    2  A    between atoms: C_1  and  C_22
    3  A    between atoms: C_4  and  C_9
    4  A    between atoms: C_4  and  C_12
    5  A    between atoms: C_7  and  N_23
    6  A    between atoms: C_7  and  C_25
    7  A    between atoms: N_8  and  C_12
    8  A    between atoms: C_9  and  S_21
    9  A    between atoms: C_10  and  C_15
   10  A    between atoms: C_15  and  C_25
   11  A    between atoms: C_17  and  S_21
                            x       y       z     vdW  Elec       q    Type
                         _______ _______ _______ _____ _____    ______ ____

>  <TORSDO>
F 11

$$$$
=
 OpenBabel10262422013D

 30 32  0  0  1  0  0  0  0  0999 V2000
  190.0250  176.1500  143.6150 C   0  0  0  0  0  0  0  0  0  0  0  0
  190.0370  177.6860  147.6800 C   0  0  0  0  0  2  0  0  0  0  0  0
  189.1020  176.8680  146.8130 C   0  0  2  0  0  0  0  0  0  0  0  0
  190.9480  176.8190  144.4650 N   0  0  0  0  0  0  0  0  0  0  0  0
  190.3790  175.1190  142.9850 O   0  0  0  0  0  0  0  0  0  0  0  0
  190.5830  176.4770  146.9080 C   0  0  1  0  0  3  0  0  0  0  0  0
  191.6020  176.8850  145.8040 C   0  0  2  0  0  3  0  0  0  0  0  0
  188.6070  176.6290  143.5450 C   0  0  1  0  0  3  0  0  0  0  0  0
  188.5890  177.5390  145.6090 N   0  0  0  0  0  0  0  0  0  0  0  0
  188.2180  176.0540  147.5270 O   0  0  0  0  0  1  0  0  0  0  0  0
  191.3840  178.0770  145.1420 C   0  0  0  0  0  2  0  0  0  0  0  0
  187.9780  176.6070  144.8160 O   0  0  0  0  0  0  0  0  0  0  0  0
  188.4610  177.9720  142.8160 C   0  0  1  0  0  3  0  0  0  0  0  0
  189.7210  178.5260  142.5680 O   0  0  0  0  0  1  0  0  0  0  0  0
  187.6720  177.8060  141.5110 C   0  0  1  0  0  3  0  0  0  0  0  0
  186.6480  178.9220  141.3000 C   0  0  0  0  0  2  0  0  0  0  0  0
  185.4950  178.5770  139.9320 S   0  0  0  0  0  0  0  0  0  0  0  0
  183.0750  177.5160  140.5820 C   0  0  0  0  0  1  0  0  0  0  0  0
  184.0710  178.5540  141.0540 C   0  0  0  0  0  2  0  0  0  0  0  0
  188.5620  177.5740  140.2940 C   0  0  0  0  0  2  0  0  0  0  0  0
  188.5370  178.7440  139.4330 N   0  0  0  0  0  2  0  0  0  0  0  0
  189.6440  177.5460  137.6110 O   0  0  0  0  0  1  0  0  0  0  0  0
  189.0340  179.7430  137.3970 O   0  0  0  0  0  0  0  0  0  0  0  0
  189.0750  178.7100  138.1130 C   0  0  0  0  0  0  0  0  0  0  0  0
  187.6170  178.5770  145.9800 C   0  0  0  0  0  2  0  0  0  0  0  0
  186.1680  178.1350  145.8000 C   0  0  0  0  0  2  0  0  0  0  0  0
  185.4760  179.0620  144.8180 C   0  0  0  0  0  2  0  0  0  0  0  0
  183.9780  178.7990  144.7700 C   0  0  2  0  0  3  0  0  0  0  0  0
  183.3180  179.8520  144.1370 O   0  0  0  0  0  1  0  0  0  0  0  0
  183.4740  178.6270  146.0470 F   0  0  0  0  0  0  0  0  0  0  0  0
  1  4  1  0  0  0  0
  3  6  1  0  0  0  0
  3 10  1  1  0  0  0
  3  2  1  0  0  0  0
  4 11  1  0  0  0  0
  4  7  1  0  0  0  0
  5  1  2  0  0  0  0
  6  2  1  1  0  0  0
  7 11  1  1  0  0  0
  7  6  1  0  0  0  0
  8 13  1  1  0  0  0
  8  1  1  0  0  0  0
  8 12  1  0  0  0  0
  9 25  1  0  0  0  0
  9  3  1  0  0  0  0
 12  9  1  0  0  0  0
 13 14  1  6  0  0  0
 15 20  1  6  0  0  0
 15 13  1  0  0  0  0
 16 15  1  0  0  0  0
 17 19  1  0  0  0  0
 17 16  1  0  0  0  0
 18 19  1  0  0  0  0
 21 20  1  0  0  0  0
 22 24  1  0  0  0  0
 23 24  2  0  0  0  0
 24 21  1  0  0  0  0
 26 25  1  0  0  0  0
 27 26  1  0  0  0  0
 28 29  1  1  0  0  0
 28 27  1  0  0  0  0
 28 30  1  0  0  0  0
M  END
>  <MODEL>
2

>  <REMARK>
 VINA RESULT:      -5.9      2.185      2.939
  Name = 
  11 active torsions:
  status: ('A' for Active; 'I' for Inactive)
    1  A    between atoms: C_1  and  C_4
    2  A    between atoms: C_1  and  C_22
    3  A    between atoms: C_4  and  C_9
    4  A    between atoms: C_4  and  C_12
    5  A    between atoms: C_7  and  N_23
    6  A    between atoms: C_7  and  C_25
    7  A    between atoms: N_8  and  C_12
    8  A    between atoms: C_9  and  S_21
    9  A    between atoms: C_10  and  C_15
   10  A    between atoms: C_15  and  C_25
   11  A    between atoms: C_17  and  S_21
                            x       y       z     vdW  Elec       q    Type
                         _______ _______ _______ _____ _____    ______ ____

>  <TORSDO>
F 11

$$$$
=
 OpenBabel10262422013D

 30 32  0  0  1  0  0  0  0  0999 V2000
  191.3970  177.2800  140.0430 C   0  0  0  0  0  0  0  0  0  0  0  0
  188.5030  177.3870  136.8040 C   0  0  0  0  0  2  0  0  0  0  0  0
  188.9760  178.3290  137.8920 C   0  0  2  0  0  0  0  0  0  0  0  0
  191.0330  176.4420  138.9550 N   0  0  0  0  0  0  0  0  0  0  0  0
  192.6070  177.5580  140.2500 O   0  0  0  0  0  0  0  0  0  0  0  0
  190.0070  177.6160  137.0080 C   0  0  1  0  0  3  0  0  0  0  0  0
  190.7450  176.3340  137.4950 C   0  0  2  0  0  3  0  0  0  0  0  0
  190.3240  177.8980  140.8880 C   0  0  1  0  0  3  0  0  0  0  0  0
  188.7490  177.8810  139.2740 N   0  0  0  0  0  0  0  0  0  0  0  0
  188.7750  179.6830  137.6100 O   0  0  0  0  0  1  0  0  0  0  0  0
  190.0610  175.4860  138.3430 C   0  0  0  0  0  2  0  0  0  0  0  0
  189.4430  178.7010  140.1200 O   0  0  0  0  0  0  0  0  0  0  0  0
  189.6000  176.8800  141.7810 C   0  0  1  0  0  3  0  0  0  0  0  0
  190.4250  175.7770  142.0230 O   0  0  0  0  0  1  0  0  0  0  0  0
  189.1500  177.5250  143.0970 C   0  0  1  0  0  3  0  0  0  0  0  0
  188.2570  176.6020  143.9270 C   0  0  0  0  0  2  0  0  0  0  0  0
  186.6620  177.3650  144.3670 S   0  0  0  0  0  0  0  0  0  0  0  0
  186.1490  178.4820  146.7940 C   0  0  0  0  0  1  0  0  0  0  0  0
  187.2170  177.6980  146.0600 C   0  0  0  0  0  2  0  0  0  0  0  0
  190.3020  178.1220  143.9000 C   0  0  0  0  0  2  0  0  0  0  0  0
  191.1800  177.0630  144.3680 N   0  0  0  0  0  2  0  0  0  0  0  0
  190.5680  177.4560  146.7030 O   0  0  0  0  0  1  0  0  0  0  0  0
  192.0660  175.8250  146.1210 O   0  0  0  0  0  0  0  0  0  0  0  0
  191.2970  176.7490  145.7540 C   0  0  0  0  0  0  0  0  0  0  0  0
  187.3170  177.9430  139.6010 C   0  0  0  0  0  2  0  0  0  0  0  0
  187.0170  178.8000  140.8270 C   0  0  0  0  0  2  0  0  0  0  0  0
  185.5150  178.9660  140.9720 C   0  0  0  0  0  2  0  0  0  0  0  0
  184.8180  178.8920  139.6220 C   0  0  2  0  0  3  0  0  0  0  0  0
  184.3660  180.1550  139.2380 O   0  0  0  0  0  1  0  0  0  0  0  0
  183.7560  178.0070  139.6710 F   0  0  0  0  0  0  0  0  0  0  0  0
  1  5  2  0  0  0  0
  1  8  1  0  0  0  0
  2  3  1  0  0  0  0
  3 10  1  6  0  0  0
  3  9  1  0  0  0  0
  4  1  1  0  0  0  0
  6  2  1  6  0  0  0
  6  7  1  0  0  0  0
  6  3  1  0  0  0  0
  7 11  1  1  0  0  0
  7  4  1  0  0  0  0
  8 13  1  6  0  0  0
  9 25  1  0  0  0  0
  9 12  1  0  0  0  0
 11  4  1  0  0  0  0
 12  8  1  0  0  0  0
 13 14  1  1  0  0  0
 13 15  1  0  0  0  0
 15 20  1  1  0  0  0
 15 16  1  0  0  0  0
 16 17  1  0  0  0  0
 17 19  1  0  0  0  0
 19 18  1  0  0  0  0
 20 21  1  0  0  0  0
 21 24  1  0  0  0  0
 24 23  2  0  0  0  0
 24 22  1  0  0  0  0
 25 26  1  0  0  0  0
 26 27  1  0  0  0  0
 28 29  1  1  0  0  0
 28 30  1  0  0  0  0
 28 27  1  0  0  0  0
M  END
>  <MODEL>
3

>  <REMARK>
 VINA RESULT:      -5.8      2.804      6.217
  Name = 
  11 active torsions:
  status: ('A' for Active; 'I' for Inactive)
    1  A    between atoms: C_1  and  C_4
    2  A    between atoms: C_1  and  C_22
    3  A    between atoms: C_4  and  C_9
    4  A    between atoms: C_4  and  C_12
    5  A    between atoms: C_7  and  N_23
    6  A    between atoms: C_7  and  C_25
    7  A    between atoms: N_8  and  C_12
    8  A    between atoms: C_9  and  S_21
    9  A    between atoms: C_10  and  C_15
   10  A    between atoms: C_15  and  C_25
   11  A    between atoms: C_17  and  S_21
                            x       y       z     vdW  Elec       q    Type
                         _______ _______ _______ _____ _____    ______ ____

>  <TORSDO>
F 11

$$$$
=
 OpenBabel10262422013D

 30 32  0  0  1  0  0  0  0  0999 V2000
  190.6590  175.9560  143.1890 C   0  0  0  0  0  0  0  0  0  0  0  0
  187.9570  178.2980  145.6570 C   0  0  0  0  0  2  0  0  0  0  0  0
  187.8310  177.3030  144.5220 C   0  0  2  0  0  0  0  0  0  0  0  0
  190.7690  176.8010  144.3260 N   0  0  0  0  0  0  0  0  0  0  0  0
  191.2080  174.8230  143.1870 O   0  0  0  0  0  0  0  0  0  0  0  0
  188.7140  176.9650  145.7310 C   0  0  1  0  0  3  0  0  0  0  0  0
  190.2590  177.1530  145.6840 C   0  0  2  0  0  3  0  0  0  0  0  0
  189.8130  176.3870  142.0300 C   0  0  1  0  0  3  0  0  0  0  0  0
  188.4420  177.7020  143.2460 N   0  0  0  0  0  0  0  0  0  0  0  0
  186.6020  176.6400  144.4700 O   0  0  0  0  0  1  0  0  0  0  0  0
  190.7550  178.1790  144.9040 C   0  0  0  0  0  2  0  0  0  0  0  0
  188.4670  176.6180  142.4140 O   0  0  0  0  0  0  0  0  0  0  0  0
  190.4270  177.5480  141.2350 C   0  0  1  0  0  3  0  0  0  0  0  0
  191.7990  177.6370  141.4920 O   0  0  0  0  0  1  0  0  0  0  0  0
  190.1640  177.3860  139.7330 C   0  0  1  0  0  3  0  0  0  0  0  0
  190.9620  176.2350  139.1190 C   0  0  0  0  0  2  0  0  0  0  0  0
  191.1770  176.4020  137.3170 S   0  0  0  0  0  0  0  0  0  0  0  0
  193.4840  175.0330  137.7740 C   0  0  0  0  0  1  0  0  0  0  0  0
  192.9840  176.4290  137.4720 C   0  0  0  0  0  2  0  0  0  0  0  0
  188.6800  177.3380  139.3830 C   0  0  0  0  0  2  0  0  0  0  0  0
  188.3030  178.5400  138.6600 N   0  0  0  0  0  2  0  0  0  0  0  0
  187.5460  177.2560  136.7220 O   0  0  0  0  0  0  0  0  0  0  0  0
  187.4290  179.5430  136.7570 O   0  0  0  0  0  1  0  0  0  0  0  0
  187.7450  178.4800  137.3500 C   0  0  0  0  0  0  0  0  0  0  0  0
  187.6610  178.7790  142.6210 C   0  0  0  0  0  2  0  0  0  0  0  0
  186.3230  178.3030  142.0630 C   0  0  0  0  0  2  0  0  0  0  0  0
  185.2160  179.2150  142.5590 C   0  0  0  0  0  2  0  0  0  0  0  0
  184.0630  178.4150  143.1470 C   0  0  2  0  0  3  0  0  0  0  0  0
  182.8490  178.8410  142.6070 O   0  0  0  0  0  1  0  0  0  0  0  0
  184.0350  178.5440  144.5240 F   0  0  0  0  0  0  0  0  0  0  0  0
  1  4  1  0  0  0  0
  3 10  1  6  0  0  0
  3  2  1  0  0  0  0
  3  6  1  0  0  0  0
  4 11  1  0  0  0  0
  4  7  1  0  0  0  0
  5  1  2  0  0  0  0
  6  2  1  1  0  0  0
  7 11  1  6  0  0  0
  7  6  1  0  0  0  0
  8 13  1  1  0  0  0
  8 12  1  0  0  0  0
  8  1  1  0  0  0  0
  9  3  1  0  0  0  0
 12  9  1  0  0  0  0
 13 14  1  6  0  0  0
 15 16  1  1  0  0  0
 15 13  1  0  0  0  0
 17 19  1  0  0  0  0
 17 16  1  0  0  0  0
 19 18  1  0  0  0  0
 20 15  1  0  0  0  0
 21 20  1  0  0  0  0
 22 24  2  0  0  0  0
 23 24  1  0  0  0  0
 24 21  1  0  0  0  0
 25  9  1  0  0  0  0
 26 27  1  0  0  0  0
 26 25  1  0  0  0  0
 27 28  1  0  0  0  0
 28 29  1  6  0  0  0
 28 30  1  0  0  0  0
M  END
>  <MODEL>
4

>  <REMARK>
 VINA RESULT:      -5.6      1.689      2.693
  Name = 
  11 active torsions:
  status: ('A' for Active; 'I' for Inactive)
    1  A    between atoms: C_1  and  C_4
    2  A    between atoms: C_1  and  C_22
    3  A    between atoms: C_4  and  C_9
    4  A    between atoms: C_4  and  C_12
    5  A    between atoms: C_7  and  N_23
    6  A    between atoms: C_7  and  C_25
    7  A    between atoms: N_8  and  C_12
    8  A    between atoms: C_9  and  S_21
    9  A    between atoms: C_10  and  C_15
   10  A    between atoms: C_15  and  C_25
   11  A    between atoms: C_17  and  S_21
                            x       y       z     vdW  Elec       q    Type
                         _______ _______ _______ _____ _____    ______ ____

>  <TORSDO>
F 11

$$$$
=
 OpenBabel10262422013D

 30 32  0  0  1  0  0  0  0  0999 V2000
  187.2940  177.3620  137.0770 C   0  0  0  0  0  0  0  0  0  0  0  0
  190.2880  175.1990  134.7890 C   0  0  0  0  0  2  0  0  0  0  0  0
  189.3710  174.9070  135.9590 C   0  0  2  0  0  0  0  0  0  0  0  0
  188.0710  177.5960  135.9110 N   0  0  0  0  0  0  0  0  0  0  0  0
  186.0530  177.5740  137.0630 O   0  0  0  0  0  0  0  0  0  0  0  0
  188.7960  175.5460  134.6880 C   0  0  1  0  0  3  0  0  0  0  0  0
  188.5470  177.0810  134.5940 C   0  0  2  0  0  3  0  0  0  0  0  0
  187.9470  176.7790  138.2930 C   0  0  1  0  0  3  0  0  0  0  0  0
  189.5880  175.7200  137.1640 N   0  0  0  0  0  0  0  0  0  0  0  0
  189.0770  173.5530  136.1370 O   0  0  0  0  0  1  0  0  0  0  0  0
  189.3970  177.9110  135.2970 C   0  0  0  0  0  2  0  0  0  0  0  0
  188.5420  175.5200  138.0220 O   0  0  0  0  0  0  0  0  0  0  0  0
  188.8940  177.7620  138.9970 C   0  0  1  0  0  3  0  0  0  0  0  0
  188.5270  179.0790  138.7040 O   0  0  0  0  0  1  0  0  0  0  0  0
  188.9060  177.5240  140.5120 C   0  0  1  0  0  3  0  0  0  0  0  0
  190.2810  177.1000  141.0270 C   0  0  0  0  0  2  0  0  0  0  0  0
  190.2560  176.5810  142.7740 S   0  0  0  0  0  0  0  0  0  0  0  0
  191.0030  178.9330  143.9190 C   0  0  0  0  0  1  0  0  0  0  0  0
  191.5880  177.7350  143.2020 C   0  0  0  0  0  2  0  0  0  0  0  0
  188.2980  178.6740  141.3080 C   0  0  0  0  0  2  0  0  0  0  0  0
  187.1040  178.2200  142.0010 N   0  0  0  0  0  2  0  0  0  0  0  0
  185.6330  179.3860  140.4340 O   0  0  0  0  0  0  0  0  0  0  0  0
  184.7900  178.1670  142.1810 O   0  0  0  0  0  1  0  0  0  0  0  0
  185.7990  178.5810  141.5550 C   0  0  0  0  0  0  0  0  0  0  0  0
  190.8420  175.3280  137.8240 C   0  0  0  0  0  2  0  0  0  0  0  0
  191.9240  176.4010  137.7450 C   0  0  0  0  0  2  0  0  0  0  0  0
  193.2250  175.7730  137.2810 C   0  0  0  0  0  2  0  0  0  0  0  0
  193.1510  174.2540  137.3220 C   0  0  2  0  0  3  0  0  0  0  0  0
  194.2370  173.7330  138.0270 O   0  0  0  0  0  1  0  0  0  0  0  0
  193.1280  173.7340  136.0410 F   0  0  0  0  0  0  0  0  0  0  0  0
  1  8  1  0  0  0  0
  2  3  1  0  0  0  0
  3 10  1  1  0  0  0
  3  9  1  0  0  0  0
  4  1  1  0  0  0  0
  5  1  2  0  0  0  0
  6  2  1  6  0  0  0
  6  3  1  0  0  0  0
  7  6  1  0  0  0  0
  7 11  1  1  0  0  0
  7  4  1  0  0  0  0
  8 13  1  6  0  0  0
  9 25  1  0  0  0  0
  9 12  1  0  0  0  0
 11  4  1  0  0  0  0
 12  8  1  0  0  0  0
 13 14  1  1  0  0  0
 13 15  1  0  0  0  0
 15 16  1  1  0  0  0
 15 20  1  0  0  0  0
 16 17  1  0  0  0  0
 17 19  1  0  0  0  0
 19 18  1  0  0  0  0
 20 21  1  0  0  0  0
 22 24  2  0  0  0  0
 24 21  1  0  0  0  0
 24 23  1  0  0  0  0
 26 25  1  0  0  0  0
 27 28  1  0  0  0  0
 27 26  1  0  0  0  0
 28 30  1  6  0  0  0
 28 29  1  0  0  0  0
M  END
>  <MODEL>
5

>  <REMARK>
 VINA RESULT:      -5.4      3.698      8.297
  Name = 
  11 active torsions:
  status: ('A' for Active; 'I' for Inactive)
    1  A    between atoms: C_1  and  C_4
    2  A    between atoms: C_1  and  C_22
    3  A    between atoms: C_4  and  C_9
    4  A    between atoms: C_4  and  C_12
    5  A    between atoms: C_7  and  N_23
    6  A    between atoms: C_7  and  C_25
    7  A    between atoms: N_8  and  C_12
    8  A    between atoms: C_9  and  S_21
    9  A    between atoms: C_10  and  C_15
   10  A    between atoms: C_15  and  C_25
   11  A    between atoms: C_17  and  S_21
                            x       y       z     vdW  Elec       q    Type
                         _______ _______ _______ _____ _____    ______ ____

>  <TORSDO>
F 11

$$$$
=
 OpenBabel10262422013D

 30 32  0  0  1  0  0  0  0  0999 V2000
  191.1570  177.4020  140.4360 C   0  0  0  0  0  0  0  0  0  0  0  0
  188.4370  177.2340  137.0520 C   0  0  0  0  0  2  0  0  0  0  0  0
  188.7390  178.2020  138.1770 C   0  0  2  0  0  0  0  0  0  0  0  0
  190.9510  176.5500  139.3170 N   0  0  0  0  0  0  0  0  0  0  0  0
  192.3140  177.8170  140.7100 O   0  0  0  0  0  0  0  0  0  0  0  0
  189.8910  177.6350  137.3370 C   0  0  1  0  0  3  0  0  0  0  0  0
  190.7500  176.4390  137.8430 C   0  0  2  0  0  3  0  0  0  0  0  0
  189.9780  177.8710  141.2330 C   0  0  1  0  0  3  0  0  0  0  0  0
  188.4980  177.7020  139.5390 N   0  0  0  0  0  0  0  0  0  0  0  0
  188.3920  179.5280  137.9050 O   0  0  0  0  0  1  0  0  0  0  0  0
  190.1310  175.4990  138.6420 C   0  0  0  0  0  2  0  0  0  0  0  0
  189.0470  178.5800  140.4310 O   0  0  0  0  0  0  0  0  0  0  0  0
  189.3360  176.7560  142.0710 C   0  0  1  0  0  3  0  0  0  0  0  0
  190.1830  175.6440  142.1260 O   0  0  0  0  0  1  0  0  0  0  0  0
  188.9980  177.2540  143.4810 C   0  0  1  0  0  3  0  0  0  0  0  0
  189.8740  178.4310  143.9120 C   0  0  0  0  0  2  0  0  0  0  0  0
  191.4270  177.9060  144.7090 S   0  0  0  0  0  0  0  0  0  0  0  0
  191.5020  176.2970  146.9020 C   0  0  0  0  0  1  0  0  0  0  0  0
  190.5330  177.1130  146.0730 C   0  0  0  0  0  2  0  0  0  0  0  0
  187.5090  177.5090  143.6900 C   0  0  0  0  0  2  0  0  0  0  0  0
  187.2640  177.9140  145.0640 N   0  0  0  0  0  2  0  0  0  0  0  0
  185.0400  178.7700  144.5180 O   0  0  0  0  0  0  0  0  0  0  0  0
  185.8650  178.8670  146.6520 O   0  0  0  0  0  1  0  0  0  0  0  0
  186.0400  178.5330  145.4530 C   0  0  0  0  0  0  0  0  0  0  0  0
  187.0550  177.5870  139.7910 C   0  0  0  0  0  2  0  0  0  0  0  0
  186.5100  178.6990  140.6820 C   0  0  0  0  0  2  0  0  0  0  0  0
  185.0090  178.5350  140.8350 C   0  0  0  0  0  2  0  0  0  0  0  0
  184.2830  178.8530  139.5360 C   0  0  2  0  0  3  0  0  0  0  0  0
  184.6020  180.1400  139.1020 O   0  0  0  0  0  1  0  0  0  0  0  0
  182.9150  178.7370  139.7030 F   0  0  0  0  0  0  0  0  0  0  0  0
  1  5  2  0  0  0  0
  1  8  1  0  0  0  0
  2  3  1  0  0  0  0
  3 10  1  6  0  0  0
  3  9  1  0  0  0  0
  4  1  1  0  0  0  0
  6  2  1  6  0  0  0
  6  7  1  0  0  0  0
  6  3  1  0  0  0  0
  7 11  1  1  0  0  0
  7  4  1  0  0  0  0
  8 13  1  6  0  0  0
  9 25  1  0  0  0  0
  9 12  1  0  0  0  0
 11  4  1  0  0  0  0
 12  8  1  0  0  0  0
 13 14  1  1  0  0  0
 13 15  1  0  0  0  0
 15 20  1  6  0  0  0
 15 16  1  0  0  0  0
 16 17  1  0  0  0  0
 17 19  1  0  0  0  0
 19 18  1  0  0  0  0
 20 21  1  0  0  0  0
 21 24  1  0  0  0  0
 22 24  2  0  0  0  0
 24 23  1  0  0  0  0
 25 26  1  0  0  0  0
 26 27  1  0  0  0  0
 28 29  1  1  0  0  0
 28 30  1  0  0  0  0
 28 27  1  0  0  0  0
M  END
>  <MODEL>
6

>  <REMARK>
 VINA RESULT:      -5.4      2.719      6.507
  Name = 
  11 active torsions:
  status: ('A' for Active; 'I' for Inactive)
    1  A    between atoms: C_1  and  C_4
    2  A    between atoms: C_1  and  C_22
    3  A    between atoms: C_4  and  C_9
    4  A    between atoms: C_4  and  C_12
    5  A    between atoms: C_7  and  N_23
    6  A    between atoms: C_7  and  C_25
    7  A    between atoms: N_8  and  C_12
    8  A    between atoms: C_9  and  S_21
    9  A    between atoms: C_10  and  C_15
   10  A    between atoms: C_15  and  C_25
   11  A    between atoms: C_17  and  S_21
                            x       y       z     vdW  Elec       q    Type
                         _______ _______ _______ _____ _____    ______ ____

>  <TORSDO>
F 11

$$$$
=
 OpenBabel10262422013D

 30 32  0  0  1  0  0  0  0  0999 V2000
  187.4650  177.5580  137.4140 C   0  0  0  0  0  0  0  0  0  0  0  0
  189.9260  175.0390  134.8680 C   0  0  0  0  0  2  0  0  0  0  0  0
  189.1900  174.8930  136.1840 C   0  0  2  0  0  0  0  0  0  0  0  0
  188.0610  177.6570  136.1280 N   0  0  0  0  0  0  0  0  0  0  0  0
  186.2520  177.8550  137.5740 O   0  0  0  0  0  0  0  0  0  0  0  0
  188.4600  175.4840  134.9710 C   0  0  1  0  0  3  0  0  0  0  0  0
  188.2900  177.0220  134.7970 C   0  0  2  0  0  3  0  0  0  0  0  0
  188.2660  177.0130  138.5570 C   0  0  1  0  0  3  0  0  0  0  0  0
  189.6430  175.7680  137.2750 N   0  0  0  0  0  0  0  0  0  0  0  0
  188.8480  173.5780  136.5100 O   0  0  0  0  0  1  0  0  0  0  0  0
  189.2890  177.8360  135.2950 C   0  0  0  0  0  2  0  0  0  0  0  0
  188.7360  175.7000  138.2960 O   0  0  0  0  0  0  0  0  0  0  0  0
  189.3690  177.9720  139.0290 C   0  0  1  0  0  3  0  0  0  0  0  0
  189.0710  179.2810  138.6370 O   0  0  0  0  0  1  0  0  0  0  0  0
  189.5570  177.8880  140.5490 C   0  0  1  0  0  3  0  0  0  0  0  0
  188.3110  177.3650  141.2650 C   0  0  0  0  0  2  0  0  0  0  0  0
  187.1400  178.6890  141.7110 S   0  0  0  0  0  0  0  0  0  0  0  0
  187.6580  176.7330  143.5300 C   0  0  0  0  0  1  0  0  0  0  0  0
  186.6690  177.8430  143.2430 C   0  0  0  0  0  2  0  0  0  0  0  0
  190.8320  177.1580  140.9590 C   0  0  0  0  0  2  0  0  0  0  0  0
  191.2500  177.5970  142.2800 N   0  0  0  0  0  2  0  0  0  0  0  0
  190.9450  175.3620  143.2250 O   0  0  0  0  0  0  0  0  0  0  0  0
  191.6680  177.1140  144.5120 O   0  0  0  0  0  1  0  0  0  0  0  0
  191.3000  176.6960  143.3840 C   0  0  0  0  0  0  0  0  0  0  0  0
  190.9600  175.3340  137.7630 C   0  0  0  0  0  2  0  0  0  0  0  0
  192.0520  176.3790  137.5550 C   0  0  0  0  0  2  0  0  0  0  0  0
  193.2210  175.7480  136.8220 C   0  0  0  0  0  2  0  0  0  0  0  0
  194.1950  175.0940  137.7920 C   0  0  2  0  0  3  0  0  0  0  0  0
  195.5040  175.2220  137.3280 O   0  0  0  0  0  1  0  0  0  0  0  0
  193.8850  173.7570  137.9640 F   0  0  0  0  0  0  0  0  0  0  0  0
  1  5  2  0  0  0  0
  1  8  1  0  0  0  0
  2  3  1  0  0  0  0
  3 10  1  1  0  0  0
  3  9  1  0  0  0  0
  4  1  1  0  0  0  0
  6  2  1  6  0  0  0
  6  3  1  0  0  0  0
  7  6  1  0  0  0  0
  7 11  1  1  0  0  0
  7  4  1  0  0  0  0
  8 13  1  6  0  0  0
  9 25  1  0  0  0  0
  9 12  1  0  0  0  0
 11  4  1  0  0  0  0
 12  8  1  0  0  0  0
 13 14  1  1  0  0  0
 13 15  1  0  0  0  0
 15 20  1  6  0  0  0
 15 16  1  0  0  0  0
 16 17  1  0  0  0  0
 17 19  1  0  0  0  0
 19 18  1  0  0  0  0
 20 21  1  0  0  0  0
 21 24  1  0  0  0  0
 22 24  2  0  0  0  0
 24 23  1  0  0  0  0
 26 25  1  0  0  0  0
 27 26  1  0  0  0  0
 27 28  1  0  0  0  0
 28 29  1  6  0  0  0
 28 30  1  0  0  0  0
M  END
>  <MODEL>
7

>  <REMARK>
 VINA RESULT:      -5.3      3.480      8.020
  Name = 
  11 active torsions:
  status: ('A' for Active; 'I' for Inactive)
    1  A    between atoms: C_1  and  C_4
    2  A    between atoms: C_1  and  C_22
    3  A    between atoms: C_4  and  C_9
    4  A    between atoms: C_4  and  C_12
    5  A    between atoms: C_7  and  N_23
    6  A    between atoms: C_7  and  C_25
    7  A    between atoms: N_8  and  C_12
    8  A    between atoms: C_9  and  S_21
    9  A    between atoms: C_10  and  C_15
   10  A    between atoms: C_15  and  C_25
   11  A    between atoms: C_17  and  S_21
                            x       y       z     vdW  Elec       q    Type
                         _______ _______ _______ _____ _____    ______ ____

>  <TORSDO>
F 11

$$$$
=
 OpenBabel10262422013D

 30 32  0  0  1  0  0  0  0  0999 V2000
  191.2330  177.0440  139.6540 C   0  0  0  0  0  0  0  0  0  0  0  0
  188.2720  177.5760  136.5190 C   0  0  0  0  0  2  0  0  0  0  0  0
  188.9060  178.4340  137.5930 C   0  0  2  0  0  0  0  0  0  0  0  0
  190.7200  176.2740  138.5750 N   0  0  0  0  0  0  0  0  0  0  0  0
  192.4760  177.1520  139.8190 O   0  0  0  0  0  0  0  0  0  0  0  0
  189.7990  177.5940  136.6700 C   0  0  1  0  0  3  0  0  0  0  0  0
  190.3690  176.2190  137.1260 C   0  0  2  0  0  3  0  0  0  0  0  0
  190.2840  177.7960  140.5380 C   0  0  1  0  0  3  0  0  0  0  0  0
  188.6670  178.0090  138.9800 N   0  0  0  0  0  0  0  0  0  0  0  0
  188.8840  179.8060  137.3240 O   0  0  0  0  0  1  0  0  0  0  0  0
  189.6050  175.4660  137.9940 C   0  0  0  0  0  2  0  0  0  0  0  0
  189.4960  178.7190  139.8050 O   0  0  0  0  0  0  0  0  0  0  0  0
  189.4580  176.8790  141.4510 C   0  0  1  0  0  3  0  0  0  0  0  0
  190.2480  175.8250  141.9210 O   0  0  0  0  0  1  0  0  0  0  0  0
  188.8520  177.6670  142.6180 C   0  0  1  0  0  3  0  0  0  0  0  0
  187.6030  176.9970  143.1920 C   0  0  0  0  0  2  0  0  0  0  0  0
  186.1090  178.0300  143.0390 S   0  0  0  0  0  0  0  0  0  0  0  0
  184.6680  178.9180  145.1690 C   0  0  0  0  0  1  0  0  0  0  0  0
  185.9220  178.1370  144.8390 C   0  0  0  0  0  2  0  0  0  0  0  0
  189.8730  178.0420  143.6880 C   0  0  0  0  0  2  0  0  0  0  0  0
  189.4520  177.5220  144.9780 N   0  0  0  0  0  2  0  0  0  0  0  0
  191.7610  177.2810  145.7440 O   0  0  0  0  0  0  0  0  0  0  0  0
  189.9940  176.7090  147.0840 O   0  0  0  0  0  1  0  0  0  0  0  0
  190.3970  177.1530  145.9790 C   0  0  0  0  0  0  0  0  0  0  0  0
  187.2700  178.2640  139.3570 C   0  0  0  0  0  2  0  0  0  0  0  0
  186.2700  177.8270  138.2910 C   0  0  0  0  0  2  0  0  0  0  0  0
  184.9490  178.5400  138.5140 C   0  0  0  0  0  2  0  0  0  0  0  0
  183.7730  177.5880  138.3520 C   0  0  2  0  0  3  0  0  0  0  0  0
  184.1470  176.4760  137.5970 O   0  0  0  0  0  1  0  0  0  0  0  0
  182.7080  178.2310  137.7480 F   0  0  0  0  0  0  0  0  0  0  0  0
  1  5  2  0  0  0  0
  1  8  1  0  0  0  0
  2  3  1  0  0  0  0
  3 10  1  6  0  0  0
  3  9  1  0  0  0  0
  4  1  1  0  0  0  0
  6  2  1  6  0  0  0
  6  7  1  0  0  0  0
  6  3  1  0  0  0  0
  7 11  1  1  0  0  0
  7  4  1  0  0  0  0
  8 13  1  6  0  0  0
  9 25  1  0  0  0  0
  9 12  1  0  0  0  0
 11  4  1  0  0  0  0
 12  8  1  0  0  0  0
 13 14  1  1  0  0  0
 13 15  1  0  0  0  0
 15 16  1  1  0  0  0
 15 20  1  0  0  0  0
 17 16  1  0  0  0  0
 17 19  1  0  0  0  0
 19 18  1  0  0  0  0
 20 21  1  0  0  0  0
 21 24  1  0  0  0  0
 22 24  2  0  0  0  0
 24 23  1  0  0  0  0
 26 27  1  0  0  0  0
 26 25  1  0  0  0  0
 28 29  1  6  0  0  0
 28 27  1  0  0  0  0
 30 28  1  0  0  0  0
M  END
>  <MODEL>
8

>  <REMARK>
 VINA RESULT:      -5.3      2.919      6.447
  Name = 
  11 active torsions:
  status: ('A' for Active; 'I' for Inactive)
    1  A    between atoms: C_1  and  C_4
    2  A    between atoms: C_1  and  C_22
    3  A    between atoms: C_4  and  C_9
    4  A    between atoms: C_4  and  C_12
    5  A    between atoms: C_7  and  N_23
    6  A    between atoms: C_7  and  C_25
    7  A    between atoms: N_8  and  C_12
    8  A    between atoms: C_9  and  S_21
    9  A    between atoms: C_10  and  C_15
   10  A    between atoms: C_15  and  C_25
   11  A    between atoms: C_17  and  S_21
                            x       y       z     vdW  Elec       q    Type
                         _______ _______ _______ _____ _____    ______ ____

>  <TORSDO>
F 11

$$$$
=
 OpenBabel10262422013D

 30 32  0  0  1  0  0  0  0  0999 V2000
  186.3490  179.4090  147.1690 C   0  0  0  0  0  0  0  0  0  0  0  0
  189.6390  176.6080  146.7120 C   0  0  0  0  0  2  0  0  0  0  0  0
  189.1050  177.8120  145.9650 C   0  0  2  0  0  0  0  0  0  0  0  0
  186.9180  178.3500  147.9280 N   0  0  0  0  0  0  0  0  0  0  0  0
  186.1110  180.5190  147.7120 O   0  0  0  0  0  0  0  0  0  0  0  0
  189.3310  177.9000  147.4810 C   0  0  1  0  0  3  0  0  0  0  0  0
  188.1540  177.7290  148.4870 C   0  0  2  0  0  3  0  0  0  0  0  0
  186.1170  179.2200  145.7010 C   0  0  1  0  0  3  0  0  0  0  0  0
  187.7440  177.6820  145.4250 N   0  0  0  0  0  0  0  0  0  0  0  0
  190.0530  178.4690  145.1770 O   0  0  0  0  0  1  0  0  0  0  0  0
  187.1230  176.8840  148.1270 C   0  0  0  0  0  2  0  0  0  0  0  0
  187.3180  178.9130  145.0110 O   0  0  0  0  0  0  0  0  0  0  0  0
  184.9710  178.2470  145.3930 C   0  0  1  0  0  3  0  0  0  0  0  0
  184.1260  178.1290  146.5010 O   0  0  0  0  0  1  0  0  0  0  0  0
  184.1860  178.6960  144.1550 C   0  0  1  0  0  3  0  0  0  0  0  0
  184.6620  178.0050  142.8770 C   0  0  0  0  0  2  0  0  0  0  0  0
  185.5030  179.1420  141.7270 S   0  0  0  0  0  0  0  0  0  0  0  0
  183.4360  177.6870  140.7200 C   0  0  0  0  0  1  0  0  0  0  0  0
  184.1710  178.9930  140.5060 C   0  0  0  0  0  2  0  0  0  0  0  0
  182.6730  178.6270  144.3420 C   0  0  0  0  0  2  0  0  0  0  0  0
  182.0210  179.5680  143.4480 N   0  0  0  0  0  2  0  0  0  0  0  0
  179.8190  178.5900  143.8680 O   0  0  0  0  0  1  0  0  0  0  0  0
  180.0840  180.3670  142.4480 O   0  0  0  0  0  0  0  0  0  0  0  0
  180.6130  179.5350  143.2280 C   0  0  0  0  0  0  0  0  0  0  0  0
  187.7350  176.7530  144.2860 C   0  0  0  0  0  2  0  0  0  0  0  0
  188.3930  177.3290  143.0360 C   0  0  0  0  0  2  0  0  0  0  0  0
  189.4580  176.3680  142.5380 C   0  0  0  0  0  2  0  0  0  0  0  0
  190.4420  177.0660  141.6110 C   0  0  2  0  0  3  0  0  0  0  0  0
  190.5480  176.3740  140.4040 O   0  0  0  0  0  1  0  0  0  0  0  0
  191.6850  177.1650  142.2080 F   0  0  0  0  0  0  0  0  0  0  0  0
  1  5  2  0  0  0  0
  1  4  1  0  0  0  0
  3 10  1  6  0  0  0
  3  2  1  0  0  0  0
  3  6  1  0  0  0  0
  4 11  1  0  0  0  0
  4  7  1  0  0  0  0
  6  2  1  1  0  0  0
  6  7  1  0  0  0  0
  7 11  1  6  0  0  0
  8 13  1  1  0  0  0
  8  1  1  0  0  0  0
  9  3  1  0  0  0  0
 12  9  1  0  0  0  0
 12  8  1  0  0  0  0
 13 14  1  1  0  0  0
 15 16  1  6  0  0  0
 15 20  1  0  0  0  0
 15 13  1  0  0  0  0
 17 16  1  0  0  0  0
 19 18  1  0  0  0  0
 19 17  1  0  0  0  0
 21 20  1  0  0  0  0
 23 24  2  0  0  0  0
 24 21  1  0  0  0  0
 24 22  1  0  0  0  0
 25  9  1  0  0  0  0
 26 25  1  0  0  0  0
 27 26  1  0  0  0  0
 28 29  1  6  0  0  0
 28 30  1  0  0  0  0
 28 27  1  0  0  0  0
M  END
>  <MODEL>
9

>  <REMARK>
 VINA RESULT:      -5.2      3.326      7.057
  Name = 
  11 active torsions:
  status: ('A' for Active; 'I' for Inactive)
    1  A    between atoms: C_1  and  C_4
    2  A    between atoms: C_1  and  C_22
    3  A    between atoms: C_4  and  C_9
    4  A    between atoms: C_4  and  C_12
    5  A    between atoms: C_7  and  N_23
    6  A    between atoms: C_7  and  C_25
    7  A    between atoms: N_8  and  C_12
    8  A    between atoms: C_9  and  S_21
    9  A    between atoms: C_10  and  C_15
   10  A    between atoms: C_15  and  C_25
   11  A    between atoms: C_17  and  S_21
                            x       y       z     vdW  Elec       q    Type
                         _______ _______ _______ _____ _____    ______ ____

>  <TORSDO>
F 11

$$$$
