=
 OpenBabel10262423033D

 37 39  0  0  1  0  0  0  0  0999 V2000
  183.6240  176.3310  137.0350 C   0  0  0  0  0  0  0  0  0  0  0  0
  181.7730  178.4410  135.7720 C   0  0  0  0  0  2  0  0  0  0  0  0
  182.2260  176.5760  137.5250 C   0  0  2  0  0  3  0  0  0  0  0  0
  181.3810  181.0150  138.0060 C   0  0  0  0  0  0  0  0  0  0  0  0
  184.4940  177.0360  137.7440 C   0  0  0  0  0  0  0  0  0  0  0  0
  181.3070  177.1330  136.4160 C   0  0  2  0  0  3  0  0  0  0  0  0
  183.7780  177.8500  138.7260 C   0  0  0  0  0  0  0  0  0  0  0  0
  183.1270  175.3890  134.7670 C   0  0  0  0  0  2  0  0  0  0  0  0
  180.4670  178.9120  138.5010 O   0  0  0  0  0  0  0  0  0  0  0  0
  180.8230  179.5830  136.1300 C   0  0  0  0  0  2  0  0  0  0  0  0
  184.0080  175.3120  136.0060 C   0  0  0  0  0  2  0  0  0  0  0  0
  182.4740  177.5930  138.6080 C   0  0  0  0  0  0  0  0  0  0  0  0
  180.7870  176.1240  135.3800 C   0  0  1  0  0  3  0  0  0  0  0  0
  180.8860  179.8830  137.5910 C   0  0  0  0  0  0  0  0  0  0  0  0
  181.8590  182.0870  138.3960 O   0  0  0  0  0  0  0  0  0  0  0  0
  181.3850  178.2760  139.3870 C   0  0  2  0  0  3  0  0  0  0  0  0
  181.7140  174.9400  135.1080 C   0  0  0  0  0  2  0  0  0  0  0  0
  184.4120  178.8100  139.6620 C   0  0  0  0  0  0  0  0  0  0  0  0
  184.5660  180.0110  139.3150 O   0  0  0  0  0  0  0  0  0  0  0  0
  184.8340  178.3920  140.9650 N   0  0  0  0  0  2  0  0  0  0  0  0
  185.3990  179.3070  141.9470 C   0  0  0  0  0  2  0  0  0  0  0  0
  185.3470  178.6830  143.3290 C   0  0  0  0  0  1  0  0  0  0  0  0
  180.5030  177.0670  140.4210 S   0  0  0  0  0  0  0  0  0  0  0  0
  180.1360  178.2970  141.7080 C   0  0  2  0  0  3  0  0  0  0  0  0
  181.4190  179.0000  142.1200 C   0  0  0  0  0  1  0  0  0  0  0  0
  179.9280  178.4640  143.9030 C   0  0  0  0  0  1  0  0  0  0  0  0
  179.5800  177.6580  142.8170 O   0  0  0  0  0  0  0  0  0  0  0  0
  179.4250  175.6000  135.8100 C   0  0  0  0  0  2  0  0  0  0  0  0
  178.9310  175.0470  138.0760 O   0  0  0  0  0  1  0  0  0  0  0  0
  179.5690  174.5790  136.9260 C   0  0  1  0  0  3  0  0  0  0  0  0
  178.9550  173.2820  136.4990 C   0  0  0  0  0  3  0  0  0  0  0  0
  179.4670  172.0880  136.8200 C   0  0  0  0  0  3  0  0  0  0  0  0
  181.8290  172.0530  136.8090 F   0  0  0  0  0  0  0  0  0  0  0  0
  180.7180  171.9170  137.6240 C   0  0  0  0  0  2  0  0  0  0  0  0
  185.9730  177.0440  137.5130 C   0  0  0  0  0  2  0  0  0  0  0  0
  186.3000  177.9050  136.3080 C   0  0  0  0  0  2  0  0  0  0  0  0
  187.4320  177.4030  135.6730 O   0  0  0  0  0  1  0  0  0  0  0  0
  1  5  2  0  0  0  0
  2 10  1  0  0  0  0
  3  1  1  6  0  0  0
  3 12  1  0  0  0  0
  4 15  2  0  0  0  0
  5  7  1  0  0  0  0
  6  2  1  6  0  0  0
  6  3  1  0  0  0  0
  7 18  1  0  0  0  0
  8 17  1  0  0  0  0
  8 11  1  0  0  0  0
  9 16  1  0  0  0  0
 10 14  1  0  0  0  0
 11  1  1  0  0  0  0
 12  7  2  0  0  0  0
 12 16  1  0  0  0  0
 13 28  1  1  0  0  0
 13  6  1  0  0  0  0
 14  4  2  0  0  0  0
 14  9  1  0  0  0  0
 16 23  1  6  0  0  0
 17 13  1  0  0  0  0
 18 20  1  0  0  0  0
 19 18  2  0  0  0  0
 20 21  1  0  0  0  0
 21 22  1  0  0  0  0
 23 24  1  0  0  0  0
 24 25  1  1  0  0  0
 24 27  1  0  0  0  0
 27 26  1  0  0  0  0
 28 30  1  0  0  0  0
 30 29  1  1  0  0  0
 31 32  2  0  0  0  0
 31 30  1  0  0  0  0
 32 34  1  0  0  0  0
 33 34  1  0  0  0  0
 35  5  1  0  0  0  0
 36 35  1  0  0  0  0
 37 36  1  0  0  0  0
M  END
>  <MODEL>
1

>  <REMARK>
 VINA RESULT:      -4.8      0.000      0.000
  Name = 
  11 active torsions:
  status: ('A' for Active; 'I' for Inactive)
    1  A    between atoms: S_1  and  C_5
    2  A    between atoms: S_1  and  C_36
    3  A    between atoms: C_2  and  C_35
    4  A    between atoms: C_3  and  N_32
    5  A    between atoms: C_5  and  O_23
    6  A    between atoms: C_6  and  C_31
    7  A    between atoms: C_6  and  C_35
    8  A    between atoms: C_9  and  C_13
    9  A    between atoms: C_9  and  C_16
   10  A    between atoms: C_18  and  C_19
   11  A    between atoms: C_20  and  C_21
                            x       y       z     vdW  Elec       q    Type
                         _______ _______ _______ _____ _____    ______ ____

>  <TORSDO>
F 11

$$$$
=
 OpenBabel10262423033D

 37 39  0  0  1  0  0  0  0  0999 V2000
  184.4040  178.5550  141.7680 C   0  0  0  0  0  0  0  0  0  0  0  0
  183.7000  180.1870  139.2570 C   0  0  0  0  0  2  0  0  0  0  0  0
  183.6840  177.9590  140.5930 C   0  0  2  0  0  3  0  0  0  0  0  0
  180.3000  180.6400  139.1760 C   0  0  0  0  0  0  0  0  0  0  0  0
  183.5380  178.9650  142.6840 C   0  0  0  0  0  0  0  0  0  0  0  0
  184.0130  178.6890  139.2740 C   0  0  2  0  0  3  0  0  0  0  0  0
  182.1750  178.7410  142.2020 C   0  0  0  0  0  0  0  0  0  0  0  0
  186.6350  179.0070  140.7230 C   0  0  0  0  0  2  0  0  0  0  0  0
  181.1830  178.4870  138.8710 O   0  0  0  0  0  0  0  0  0  0  0  0
  182.5530  180.4840  138.2920 C   0  0  0  0  0  2  0  0  0  0  0  0
  185.8890  178.5400  141.9640 C   0  0  0  0  0  2  0  0  0  0  0  0
  182.2490  178.1620  141.0010 C   0  0  0  0  0  0  0  0  0  0  0  0
  185.3710  178.3690  138.6290 C   0  0  1  0  0  3  0  0  0  0  0  0
  181.2810  179.8760  138.7830 C   0  0  0  0  0  0  0  0  0  0  0  0
  179.3750  181.3670  139.5560 O   0  0  0  0  0  0  0  0  0  0  0  0
  181.0700  177.8280  140.1300 C   0  0  2  0  0  3  0  0  0  0  0  0
  186.4790  177.9840  139.6080 C   0  0  0  0  0  2  0  0  0  0  0  0
  180.9400  179.1230  142.9280 C   0  0  0  0  0  0  0  0  0  0  0  0
  180.4120  180.2470  142.7130 O   0  0  0  0  0  0  0  0  0  0  0  0
  180.3280  178.2220  143.8580 N   0  0  0  0  0  2  0  0  0  0  0  0
  179.0800  178.5200  144.5460 C   0  0  0  0  0  2  0  0  0  0  0  0
  178.9390  180.0190  144.7390 C   0  0  0  0  0  1  0  0  0  0  0  0
  180.9710  176.0300  139.8750 S   0  0  0  0  0  0  0  0  0  0  0  0
  180.4290  176.2120  138.1490 C   0  0  2  0  0  3  0  0  0  0  0  0
  178.9320  175.9690  138.0580 C   0  0  0  0  0  1  0  0  0  0  0  0
  181.5280  176.0180  136.2410 C   0  0  0  0  0  1  0  0  0  0  0  0
  181.1000  175.2860  137.3500 O   0  0  0  0  0  0  0  0  0  0  0  0
  185.2040  177.2560  137.6050 C   0  0  0  0  0  2  0  0  0  0  0  0
  186.4280  175.2740  137.0940 O   0  0  0  0  0  1  0  0  0  0  0  0
  186.5510  176.6570  137.2360 C   0  0  1  0  0  3  0  0  0  0  0  0
  187.0290  177.2570  135.9500 C   0  0  0  0  0  3  0  0  0  0  0  0
  188.2030  177.8880  135.8270 C   0  0  0  0  0  3  0  0  0  0  0  0
  188.9900  179.3380  137.5170 F   0  0  0  0  0  0  0  0  0  0  0  0
  189.1580  178.0800  136.9640 C   0  0  0  0  0  2  0  0  0  0  0  0
  183.9110  179.6250  143.9750 C   0  0  0  0  0  2  0  0  0  0  0  0
  183.6200  178.6910  145.1330 C   0  0  0  0  0  2  0  0  0  0  0  0
  184.5520  178.9030  146.1450 O   0  0  0  0  0  1  0  0  0  0  0  0
  1 11  1  0  0  0  0
  1  5  2  0  0  0  0
  3 12  1  1  0  0  0
  3  1  1  0  0  0  0
  4 15  2  0  0  0  0
  5 35  1  0  0  0  0
  6  2  1  1  0  0  0
  6  3  1  0  0  0  0
  7  5  1  0  0  0  0
  7 18  1  0  0  0  0
  8 11  1  0  0  0  0
  9 16  1  0  0  0  0
 10 14  1  0  0  0  0
 10  2  1  0  0  0  0
 12  7  2  0  0  0  0
 13 28  1  6  0  0  0
 13  6  1  0  0  0  0
 13 17  1  0  0  0  0
 14  9  1  0  0  0  0
 14  4  2  0  0  0  0
 16 23  1  6  0  0  0
 16 12  1  0  0  0  0
 17  8  1  0  0  0  0
 18 20  1  0  0  0  0
 19 18  2  0  0  0  0
 20 21  1  0  0  0  0
 21 22  1  0  0  0  0
 24 25  1  1  0  0  0
 24 23  1  0  0  0  0
 26 27  1  0  0  0  0
 27 24  1  0  0  0  0
 30 29  1  6  0  0  0
 30 28  1  0  0  0  0
 31 30  1  0  0  0  0
 32 31  2  0  0  0  0
 32 34  1  0  0  0  0
 34 33  1  0  0  0  0
 35 36  1  0  0  0  0
 36 37  1  0  0  0  0
M  END
>  <MODEL>
2

>  <REMARK>
 VINA RESULT:      -4.7      2.789      6.353
  Name = 
  11 active torsions:
  status: ('A' for Active; 'I' for Inactive)
    1  A    between atoms: S_1  and  C_5
    2  A    between atoms: S_1  and  C_36
    3  A    between atoms: C_2  and  C_35
    4  A    between atoms: C_3  and  N_32
    5  A    between atoms: C_5  and  O_23
    6  A    between atoms: C_6  and  C_31
    7  A    between atoms: C_6  and  C_35
    8  A    between atoms: C_9  and  C_13
    9  A    between atoms: C_9  and  C_16
   10  A    between atoms: C_18  and  C_19
   11  A    between atoms: C_20  and  C_21
                            x       y       z     vdW  Elec       q    Type
                         _______ _______ _______ _____ _____    ______ ____

>  <TORSDO>
F 11

$$$$
=
 OpenBabel10262423033D

 37 39  0  0  1  0  0  0  0  0999 V2000
  184.7790  176.4800  136.9250 C   0  0  0  0  0  0  0  0  0  0  0  0
  182.4480  178.0170  135.6320 C   0  0  0  0  0  2  0  0  0  0  0  0
  183.3500  176.2720  137.3340 C   0  0  2  0  0  3  0  0  0  0  0  0
  181.1960  180.2290  137.9370 C   0  0  0  0  0  0  0  0  0  0  0  0
  185.3640  177.3690  137.7170 C   0  0  0  0  0  0  0  0  0  0  0  0
  182.3620  176.5950  136.1920 C   0  0  2  0  0  3  0  0  0  0  0  0
  184.3900  177.8780  138.6820 C   0  0  0  0  0  0  0  0  0  0  0  0
  184.6990  175.5640  134.5950 C   0  0  0  0  0  2  0  0  0  0  0  0
  180.9280  177.9240  138.2880 O   0  0  0  0  0  0  0  0  0  0  0  0
  181.1840  178.8050  135.9740 C   0  0  0  0  0  2  0  0  0  0  0  0
  185.5000  175.6800  135.8840 C   0  0  0  0  0  2  0  0  0  0  0  0
  183.2290  177.2530  138.4710 C   0  0  0  0  0  0  0  0  0  0  0  0
  182.2190  175.5380  135.0850 C   0  0  1  0  0  3  0  0  0  0  0  0
  181.0830  179.0260  137.4470 C   0  0  0  0  0  0  0  0  0  0  0  0
  181.3130  181.3690  138.4000 O   0  0  0  0  0  0  0  0  0  0  0  0
  181.9490  177.5390  139.2050 C   0  0  2  0  0  3  0  0  0  0  0  0
  183.4690  174.6990  134.8260 C   0  0  0  0  0  2  0  0  0  0  0  0
  184.6610  178.9260  139.6950 C   0  0  0  0  0  0  0  0  0  0  0  0
  184.4760  180.1380  139.4030 O   0  0  0  0  0  0  0  0  0  0  0  0
  185.1130  178.5770  141.0080 N   0  0  0  0  0  2  0  0  0  0  0  0
  185.3300  179.5610  142.0590 C   0  0  0  0  0  2  0  0  0  0  0  0
  184.8130  179.0300  143.3840 C   0  0  0  0  0  1  0  0  0  0  0  0
  181.4180  176.0660  140.1310 S   0  0  0  0  0  0  0  0  0  0  0  0
  179.8550  176.8400  140.6470 C   0  0  2  0  0  3  0  0  0  0  0  0
  180.1390  177.9240  141.6720 C   0  0  0  0  0  1  0  0  0  0  0  0
  179.4950  174.6600  140.7060 C   0  0  0  0  0  1  0  0  0  0  0  0
  179.0210  175.8730  141.2100 O   0  0  0  0  0  0  0  0  0  0  0  0
  181.0560  174.6120  135.4060 C   0  0  0  0  0  2  0  0  0  0  0  0
  181.1360  173.4850  137.5060 O   0  0  0  0  0  1  0  0  0  0  0  0
  181.5360  173.3910  136.1720 C   0  0  1  0  0  3  0  0  0  0  0  0
  180.9550  172.1550  135.5560 C   0  0  0  0  0  3  0  0  0  0  0  0
  181.6590  171.0330  135.3650 C   0  0  0  0  0  3  0  0  0  0  0  0
  183.2440  170.8060  137.1010 F   0  0  0  0  0  0  0  0  0  0  0  0
  183.1050  170.8940  135.7270 C   0  0  0  0  0  2  0  0  0  0  0  0
  186.7820  177.8270  137.5810 C   0  0  0  0  0  2  0  0  0  0  0  0
  187.6650  177.0570  138.5440 C   0  0  0  0  0  2  0  0  0  0  0  0
  188.1400  177.9190  139.5280 O   0  0  0  0  0  1  0  0  0  0  0  0
  1  5  2  0  0  0  0
  2 10  1  0  0  0  0
  3  1  1  6  0  0  0
  3 12  1  0  0  0  0
  4 15  2  0  0  0  0
  5  7  1  0  0  0  0
  6  2  1  6  0  0  0
  6  3  1  0  0  0  0
  7 18  1  0  0  0  0
  8 17  1  0  0  0  0
  8 11  1  0  0  0  0
  9 16  1  0  0  0  0
 10 14  1  0  0  0  0
 11  1  1  0  0  0  0
 12  7  2  0  0  0  0
 12 16  1  0  0  0  0
 13 28  1  1  0  0  0
 13  6  1  0  0  0  0
 14  4  2  0  0  0  0
 14  9  1  0  0  0  0
 16 23  1  6  0  0  0
 17 13  1  0  0  0  0
 18 20  1  0  0  0  0
 19 18  2  0  0  0  0
 20 21  1  0  0  0  0
 21 22  1  0  0  0  0
 23 24  1  0  0  0  0
 24 27  1  0  0  0  0
 24 25  1  1  0  0  0
 26 27  1  0  0  0  0
 28 30  1  0  0  0  0
 30 29  1  1  0  0  0
 31 30  1  0  0  0  0
 32 31  2  0  0  0  0
 32 34  1  0  0  0  0
 34 33  1  0  0  0  0
 35  5  1  0  0  0  0
 35 36  1  0  0  0  0
 36 37  1  0  0  0  0
M  END
>  <MODEL>
3

>  <REMARK>
 VINA RESULT:      -4.6      1.637      1.892
  Name = 
  11 active torsions:
  status: ('A' for Active; 'I' for Inactive)
    1  A    between atoms: S_1  and  C_5
    2  A    between atoms: S_1  and  C_36
    3  A    between atoms: C_2  and  C_35
    4  A    between atoms: C_3  and  N_32
    5  A    between atoms: C_5  and  O_23
    6  A    between atoms: C_6  and  C_31
    7  A    between atoms: C_6  and  C_35
    8  A    between atoms: C_9  and  C_13
    9  A    between atoms: C_9  and  C_16
   10  A    between atoms: C_18  and  C_19
   11  A    between atoms: C_20  and  C_21
                            x       y       z     vdW  Elec       q    Type
                         _______ _______ _______ _____ _____    ______ ____

>  <TORSDO>
F 11

$$$$
=
 OpenBabel10262423033D

 37 39  0  0  1  0  0  0  0  0999 V2000
  180.8410  179.8870  136.8760 C   0  0  0  0  0  0  0  0  0  0  0  0
  180.2970  176.9140  137.4510 C   0  0  0  0  0  2  0  0  0  0  0  0
  181.8550  178.9930  137.5280 C   0  0  2  0  0  3  0  0  0  0  0  0
  179.9940  176.5030  140.8430 C   0  0  0  0  0  0  0  0  0  0  0  0
  180.1370  180.5360  137.7930 C   0  0  0  0  0  0  0  0  0  0  0  0
  181.6690  177.5120  137.1310 C   0  0  2  0  0  3  0  0  0  0  0  0
  180.5610  180.1100  139.1260 C   0  0  0  0  0  0  0  0  0  0  0  0
  180.7620  178.8580  134.5940 C   0  0  0  0  0  2  0  0  0  0  0  0
  182.0790  177.0790  139.9350 O   0  0  0  0  0  0  0  0  0  0  0  0
  180.4160  175.8540  138.5450 C   0  0  0  0  0  2  0  0  0  0  0  0
  180.7440  180.1470  135.4040 C   0  0  0  0  0  2  0  0  0  0  0  0
  181.5490  179.2230  138.9850 C   0  0  0  0  0  0  0  0  0  0  0  0
  182.1760  177.1030  135.7390 C   0  0  1  0  0  3  0  0  0  0  0  0
  180.8250  176.4760  139.8390 C   0  0  0  0  0  0  0  0  0  0  0  0
  179.2000  176.5340  141.7910 O   0  0  0  0  0  0  0  0  0  0  0  0
  182.2170  178.4870  140.1130 C   0  0  2  0  0  3  0  0  0  0  0  0
  182.1350  178.2080  134.6850 C   0  0  0  0  0  2  0  0  0  0  0  0
  179.9640  180.5760  140.4010 C   0  0  0  0  0  0  0  0  0  0  0  0
  179.3570  181.6800  140.4390 O   0  0  0  0  0  0  0  0  0  0  0  0
  180.0530  179.7780  141.5870 N   0  0  0  0  0  2  0  0  0  0  0  0
  179.4280  180.1570  142.8460 C   0  0  0  0  0  2  0  0  0  0  0  0
  179.7240  179.1140  143.9080 C   0  0  0  0  0  1  0  0  0  0  0  0
  183.9800  178.9270  140.1890 S   0  0  0  0  0  0  0  0  0  0  0  0
  184.1960  178.1550  141.8210 C   0  0  2  0  0  3  0  0  0  0  0  0
  183.2970  178.8430  142.8320 C   0  0  0  0  0  1  0  0  0  0  0  0
  185.5030  178.0760  143.6020 C   0  0  0  0  0  1  0  0  0  0  0  0
  185.5270  178.2800  142.2210 O   0  0  0  0  0  0  0  0  0  0  0  0
  183.5970  176.5700  135.8450 C   0  0  0  0  0  2  0  0  0  0  0  0
  182.5000  174.4640  135.6250 O   0  0  0  0  0  1  0  0  0  0  0  0
  183.5930  175.0980  136.2190 C   0  0  1  0  0  3  0  0  0  0  0  0
  184.8640  174.4600  135.7490 C   0  0  0  0  0  3  0  0  0  0  0  0
  185.4980  173.5000  136.4340 C   0  0  0  0  0  3  0  0  0  0  0  0
  184.0530  172.0010  137.5500 F   0  0  0  0  0  0  0  0  0  0  0  0
  185.0190  172.9720  137.7510 C   0  0  0  0  0  2  0  0  0  0  0  0
  179.0290  181.4970  137.4940 C   0  0  0  0  0  2  0  0  0  0  0  0
  179.6070  182.8550  137.1430 C   0  0  0  0  0  2  0  0  0  0  0  0
  180.8120  183.0340  137.8180 O   0  0  0  0  0  1  0  0  0  0  0  0
  1  5  2  0  0  0  0
  2 10  1  0  0  0  0
  3  1  1  6  0  0  0
  3 12  1  0  0  0  0
  4 15  2  0  0  0  0
  5  7  1  0  0  0  0
  6  2  1  6  0  0  0
  6  3  1  0  0  0  0
  7 18  1  0  0  0  0
  8 17  1  0  0  0  0
  8 11  1  0  0  0  0
  9 16  1  0  0  0  0
 10 14  1  0  0  0  0
 11  1  1  0  0  0  0
 12  7  2  0  0  0  0
 12 16  1  0  0  0  0
 13 28  1  1  0  0  0
 13  6  1  0  0  0  0
 14  9  1  0  0  0  0
 14  4  2  0  0  0  0
 16 23  1  6  0  0  0
 17 13  1  0  0  0  0
 18 19  2  0  0  0  0
 18 20  1  0  0  0  0
 20 21  1  0  0  0  0
 21 22  1  0  0  0  0
 23 24  1  0  0  0  0
 24 27  1  0  0  0  0
 24 25  1  1  0  0  0
 27 26  1  0  0  0  0
 28 30  1  0  0  0  0
 30 29  1  6  0  0  0
 31 30  1  0  0  0  0
 31 32  2  0  0  0  0
 32 34  1  0  0  0  0
 33 34  1  0  0  0  0
 35  5  1  0  0  0  0
 36 35  1  0  0  0  0
 36 37  1  0  0  0  0
M  END
>  <MODEL>
4

>  <REMARK>
 VINA RESULT:      -4.3      2.571      4.939
  Name = 
  11 active torsions:
  status: ('A' for Active; 'I' for Inactive)
    1  A    between atoms: S_1  and  C_5
    2  A    between atoms: S_1  and  C_36
    3  A    between atoms: C_2  and  C_35
    4  A    between atoms: C_3  and  N_32
    5  A    between atoms: C_5  and  O_23
    6  A    between atoms: C_6  and  C_31
    7  A    between atoms: C_6  and  C_35
    8  A    between atoms: C_9  and  C_13
    9  A    between atoms: C_9  and  C_16
   10  A    between atoms: C_18  and  C_19
   11  A    between atoms: C_20  and  C_21
                            x       y       z     vdW  Elec       q    Type
                         _______ _______ _______ _____ _____    ______ ____

>  <TORSDO>
F 11

$$$$
=
 OpenBabel10262423033D

 37 39  0  0  1  0  0  0  0  0999 V2000
  183.7360  177.2880  138.8560 C   0  0  0  0  0  0  0  0  0  0  0  0
  183.3320  177.4540  135.8100 C   0  0  0  0  0  2  0  0  0  0  0  0
  184.2030  176.2110  137.9200 C   0  0  2  0  0  3  0  0  0  0  0  0
  180.9900  175.1190  134.8980 C   0  0  0  0  0  0  0  0  0  0  0  0
  182.5340  176.9980  139.3340 C   0  0  0  0  0  0  0  0  0  0  0  0
  184.5030  176.7550  136.5060 C   0  0  2  0  0  3  0  0  0  0  0  0
  182.0600  175.7490  138.7370 C   0  0  0  0  0  0  0  0  0  0  0  0
  185.2620  179.1520  138.1660 C   0  0  0  0  0  2  0  0  0  0  0  0
  183.0810  174.4050  135.6880 O   0  0  0  0  0  0  0  0  0  0  0  0
  182.8590  176.6370  134.6080 C   0  0  0  0  0  2  0  0  0  0  0  0
  184.5690  178.4430  139.3210 C   0  0  0  0  0  2  0  0  0  0  0  0
  183.0130  175.2890  137.9230 C   0  0  0  0  0  0  0  0  0  0  0  0
  185.8280  177.5140  136.3250 C   0  0  1  0  0  3  0  0  0  0  0  0
  182.2650  175.3410  135.0530 C   0  0  0  0  0  0  0  0  0  0  0  0
  179.7790  174.9140  134.7570 O   0  0  0  0  0  0  0  0  0  0  0  0
  182.8930  174.0640  137.0600 C   0  0  2  0  0  3  0  0  0  0  0  0
  186.3290  178.2460  137.5690 C   0  0  0  0  0  2  0  0  0  0  0  0
  180.7340  175.1340  138.9880 C   0  0  0  0  0  0  0  0  0  0  0  0
  179.9120  175.0180  138.0400 O   0  0  0  0  0  0  0  0  0  0  0  0
  180.3840  174.6530  140.2900 N   0  0  0  0  0  2  0  0  0  0  0  0
  179.1240  173.9810  140.5740 C   0  0  0  0  0  2  0  0  0  0  0  0
  179.1590  173.3780  141.9670 C   0  0  0  0  0  1  0  0  0  0  0  0
  184.1290  172.8260  137.5590 S   0  0  0  0  0  0  0  0  0  0  0  0
  183.0380  171.4330  137.1390 C   0  0  2  0  0  3  0  0  0  0  0  0
  183.4240  170.8780  135.7790 C   0  0  0  0  0  1  0  0  0  0  0  0
  181.1220  171.1330  136.0790 C   0  0  0  0  0  1  0  0  0  0  0  0
  181.7140  171.8750  137.1020 O   0  0  0  0  0  0  0  0  0  0  0  0
  186.9070  176.5560  135.8440 C   0  0  0  0  0  2  0  0  0  0  0  0
  187.5250  174.7270  137.2440 O   0  0  0  0  0  1  0  0  0  0  0  0
  187.7630  176.0820  137.0060 C   0  0  1  0  0  3  0  0  0  0  0  0
  189.2100  176.2910  136.6770 C   0  0  0  0  0  3  0  0  0  0  0  0
  190.0510  176.9640  137.4720 C   0  0  0  0  0  3  0  0  0  0  0  0
  189.4160  178.9520  138.5780 F   0  0  0  0  0  0  0  0  0  0  0  0
  189.6370  177.5980  138.7630 C   0  0  0  0  0  2  0  0  0  0  0  0
  181.7620  177.8630  140.2800 C   0  0  0  0  0  2  0  0  0  0  0  0
  180.8040  178.7450  139.5040 C   0  0  0  0  0  2  0  0  0  0  0  0
  181.4190  179.9610  139.2200 O   0  0  0  0  0  1  0  0  0  0  0  0
  1 11  1  0  0  0  0
  1  5  2  0  0  0  0
  3 12  1  6  0  0  0
  3  1  1  0  0  0  0
  4 14  2  0  0  0  0
  5 35  1  0  0  0  0
  6  2  1  1  0  0  0
  6  3  1  0  0  0  0
  7 18  1  0  0  0  0
  7  5  1  0  0  0  0
  8 11  1  0  0  0  0
  9 16  1  0  0  0  0
 10 14  1  0  0  0  0
 10  2  1  0  0  0  0
 12  7  2  0  0  0  0
 13 28  1  1  0  0  0
 13  6  1  0  0  0  0
 13 17  1  0  0  0  0
 14  9  1  0  0  0  0
 15  4  2  0  0  0  0
 16 23  1  1  0  0  0
 16 12  1  0  0  0  0
 17  8  1  0  0  0  0
 18 20  1  0  0  0  0
 19 18  2  0  0  0  0
 20 21  1  0  0  0  0
 21 22  1  0  0  0  0
 24 25  1  6  0  0  0
 24 23  1  0  0  0  0
 26 27  1  0  0  0  0
 27 24  1  0  0  0  0
 28 30  1  0  0  0  0
 30 29  1  6  0  0  0
 31 30  1  0  0  0  0
 31 32  2  0  0  0  0
 32 34  1  0  0  0  0
 33 34  1  0  0  0  0
 36 35  1  0  0  0  0
 37 36  1  0  0  0  0
M  END
>  <MODEL>
5

>  <REMARK>
 VINA RESULT:      -4.1      3.232      7.041
  Name = 
  11 active torsions:
  status: ('A' for Active; 'I' for Inactive)
    1  A    between atoms: S_1  and  C_5
    2  A    between atoms: S_1  and  C_36
    3  A    between atoms: C_2  and  C_35
    4  A    between atoms: C_3  and  N_32
    5  A    between atoms: C_5  and  O_23
    6  A    between atoms: C_6  and  C_31
    7  A    between atoms: C_6  and  C_35
    8  A    between atoms: C_9  and  C_13
    9  A    between atoms: C_9  and  C_16
   10  A    between atoms: C_18  and  C_19
   11  A    between atoms: C_20  and  C_21
                            x       y       z     vdW  Elec       q    Type
                         _______ _______ _______ _____ _____    ______ ____

>  <TORSDO>
F 11

$$$$
=
 OpenBabel10262423033D

 37 39  0  0  1  0  0  0  0  0999 V2000
  184.7080  178.2340  138.7720 C   0  0  0  0  0  0  0  0  0  0  0  0
  182.6650  176.0650  139.5390 C   0  0  0  0  0  2  0  0  0  0  0  0
  183.3150  178.2040  138.2130 C   0  0  2  0  0  3  0  0  0  0  0  0
  182.1690  174.0330  136.8200 C   0  0  0  0  0  0  0  0  0  0  0  0
  185.5510  177.6210  137.9520 C   0  0  0  0  0  0  0  0  0  0  0  0
  182.3190  177.5080  139.1650 C   0  0  2  0  0  3  0  0  0  0  0  0
  184.8140  177.0800  136.8100 C   0  0  0  0  0  0  0  0  0  0  0  0
  184.1990  178.7360  141.1730 C   0  0  0  0  0  2  0  0  0  0  0  0
  181.4280  176.2580  136.7450 O   0  0  0  0  0  0  0  0  0  0  0  0
  181.6490  175.0960  138.9360 C   0  0  0  0  0  2  0  0  0  0  0  0
  185.1280  178.9920  139.9950 C   0  0  0  0  0  2  0  0  0  0  0  0
  183.5280  177.4100  136.9510 C   0  0  0  0  0  0  0  0  0  0  0  0
  181.8360  178.3250  140.3750 C   0  0  1  0  0  3  0  0  0  0  0  0
  181.7430  175.0940  137.4460 C   0  0  0  0  0  0  0  0  0  0  0  0
  182.5820  173.0280  136.2290 O   0  0  0  0  0  0  0  0  0  0  0  0
  182.4210  176.9850  136.0260 C   0  0  2  0  0  3  0  0  0  0  0  0
  182.8360  179.3530  140.9020 C   0  0  0  0  0  2  0  0  0  0  0  0
  185.4090  176.2830  135.7110 C   0  0  0  0  0  0  0  0  0  0  0  0
  185.7790  176.8580  134.6530 O   0  0  0  0  0  0  0  0  0  0  0  0
  185.5870  174.8680  135.8460 N   0  0  0  0  0  2  0  0  0  0  0  0
  186.2260  174.0490  134.8250 C   0  0  0  0  0  2  0  0  0  0  0  0
  186.8140  172.8000  135.4550 C   0  0  0  0  0  1  0  0  0  0  0  0
  181.6670  178.4440  135.2430 S   0  0  0  0  0  0  0  0  0  0  0  0
  180.0500  178.1360  136.0140 C   0  0  2  0  0  3  0  0  0  0  0  0
  179.0100  177.8890  134.9350 C   0  0  0  0  0  1  0  0  0  0  0  0
  179.0470  180.1000  135.8660 C   0  0  0  0  0  1  0  0  0  0  0  0
  179.6780  179.2470  136.7730 O   0  0  0  0  0  0  0  0  0  0  0  0
  180.5320  179.0300  140.0320 C   0  0  0  0  0  2  0  0  0  0  0  0
  179.9830  181.3120  140.4540 O   0  0  0  0  0  1  0  0  0  0  0  0
  180.1970  180.0810  141.0770 C   0  0  1  0  0  3  0  0  0  0  0  0
  178.9660  179.6690  141.8230 C   0  0  0  0  0  3  0  0  0  0  0  0
  178.9970  179.1280  143.0460 C   0  0  0  0  0  3  0  0  0  0  0  0
  180.2400  177.5740  144.3190 F   0  0  0  0  0  0  0  0  0  0  0  0
  180.2650  178.8550  143.7950 C   0  0  0  0  0  2  0  0  0  0  0  0
  187.0150  177.4510  138.2080 C   0  0  0  0  0  2  0  0  0  0  0  0
  187.8110  178.1790  137.1420 C   0  0  0  0  0  2  0  0  0  0  0  0
  188.4700  179.2630  137.7160 O   0  0  0  0  0  1  0  0  0  0  0  0
  1 11  1  0  0  0  0
  3 12  1  6  0  0  0
  3  1  1  0  0  0  0
  3  6  1  0  0  0  0
  4 14  2  0  0  0  0
  5 35  1  0  0  0  0
  5  1  2  0  0  0  0
  6  2  1  1  0  0  0
  6 13  1  0  0  0  0
  7 12  2  0  0  0  0
  7  5  1  0  0  0  0
  9 14  1  0  0  0  0
 10  2  1  0  0  0  0
 11  8  1  0  0  0  0
 13 28  1  6  0  0  0
 13 17  1  0  0  0  0
 14 10  1  0  0  0  0
 15  4  2  0  0  0  0
 16 23  1  1  0  0  0
 16  9  1  0  0  0  0
 16 12  1  0  0  0  0
 17  8  1  0  0  0  0
 18 20  1  0  0  0  0
 18  7  1  0  0  0  0
 19 18  2  0  0  0  0
 21 22  1  0  0  0  0
 21 20  1  0  0  0  0
 23 24  1  0  0  0  0
 24 25  1  6  0  0  0
 24 27  1  0  0  0  0
 26 27  1  0  0  0  0
 28 30  1  0  0  0  0
 30 29  1  6  0  0  0
 30 31  1  0  0  0  0
 31 32  2  0  0  0  0
 32 34  1  0  0  0  0
 34 33  1  0  0  0  0
 36 37  1  0  0  0  0
 36 35  1  0  0  0  0
M  END
>  <MODEL>
6

>  <REMARK>
 VINA RESULT:      -4.1      2.970      6.174
  Name = 
  11 active torsions:
  status: ('A' for Active; 'I' for Inactive)
    1  A    between atoms: S_1  and  C_5
    2  A    between atoms: S_1  and  C_36
    3  A    between atoms: C_2  and  C_35
    4  A    between atoms: C_3  and  N_32
    5  A    between atoms: C_5  and  O_23
    6  A    between atoms: C_6  and  C_31
    7  A    between atoms: C_6  and  C_35
    8  A    between atoms: C_9  and  C_13
    9  A    between atoms: C_9  and  C_16
   10  A    between atoms: C_18  and  C_19
   11  A    between atoms: C_20  and  C_21
                            x       y       z     vdW  Elec       q    Type
                         _______ _______ _______ _____ _____    ______ ____

>  <TORSDO>
F 11

$$$$
=
 OpenBabel10262423033D

 37 39  0  0  1  0  0  0  0  0999 V2000
  184.5510  178.5620  141.8530 C   0  0  0  0  0  0  0  0  0  0  0  0
  183.9600  180.0890  139.2480 C   0  0  0  0  0  2  0  0  0  0  0  0
  183.9540  177.8990  140.6460 C   0  0  2  0  0  3  0  0  0  0  0  0
  180.5580  180.3600  138.8970 C   0  0  0  0  0  0  0  0  0  0  0  0
  183.5970  178.9500  142.6880 C   0  0  0  0  0  0  0  0  0  0  0  0
  184.3470  178.6110  139.3340 C   0  0  2  0  0  3  0  0  0  0  0  0
  182.2890  178.6420  142.1120 C   0  0  0  0  0  0  0  0  0  0  0  0
  186.8300  179.1040  140.9660 C   0  0  0  0  0  2  0  0  0  0  0  0
  181.5690  178.2500  138.7250 O   0  0  0  0  0  0  0  0  0  0  0  0
  182.8770  180.3000  138.1900 C   0  0  0  0  0  2  0  0  0  0  0  0
  186.0160  178.6300  142.1610 C   0  0  0  0  0  2  0  0  0  0  0  0
  182.4830  178.0370  140.9380 C   0  0  0  0  0  0  0  0  0  0  0  0
  185.7650  178.3450  138.8030 C   0  0  1  0  0  3  0  0  0  0  0  0
  181.6040  179.6390  138.6020 C   0  0  0  0  0  0  0  0  0  0  0  0
  179.5710  181.0470  139.1840 O   0  0  0  0  0  0  0  0  0  0  0  0
  181.3930  177.6190  139.9910 C   0  0  2  0  0  3  0  0  0  0  0  0
  186.8110  178.0450  139.8740 C   0  0  0  0  0  2  0  0  0  0  0  0
  180.9830  178.9780  142.7310 C   0  0  0  0  0  0  0  0  0  0  0  0
  180.3150  179.9500  142.2890 O   0  0  0  0  0  0  0  0  0  0  0  0
  180.4640  178.1980  143.8140 N   0  0  0  0  0  2  0  0  0  0  0  0
  179.1600  178.4430  144.4120 C   0  0  0  0  0  2  0  0  0  0  0  0
  178.9320  179.9350  144.5690 C   0  0  0  0  0  1  0  0  0  0  0  0
  181.4060  175.8110  139.7830 S   0  0  0  0  0  0  0  0  0  0  0  0
  179.6000  175.7310  139.5830 C   0  0  2  0  0  3  0  0  0  0  0  0
  178.9330  176.6130  140.6230 C   0  0  0  0  0  1  0  0  0  0  0  0
  179.2830  174.1740  141.1200 C   0  0  0  0  0  1  0  0  0  0  0  0
  179.1730  174.4120  139.7480 O   0  0  0  0  0  0  0  0  0  0  0  0
  185.7330  177.1990  137.8030 C   0  0  0  0  0  2  0  0  0  0  0  0
  187.7820  177.6990  136.6900 O   0  0  0  0  0  1  0  0  0  0  0  0
  186.4020  177.6020  136.5000 C   0  0  1  0  0  3  0  0  0  0  0  0
  186.1070  176.5770  135.4490 C   0  0  0  0  0  3  0  0  0  0  0  0
  184.9220  176.4790  134.8340 C   0  0  0  0  0  3  0  0  0  0  0  0
  183.0500  176.8670  136.2210 F   0  0  0  0  0  0  0  0  0  0  0  0
  183.7570  177.3680  135.1410 C   0  0  0  0  0  2  0  0  0  0  0  0
  183.8360  179.6630  143.9830 C   0  0  0  0  0  2  0  0  0  0  0  0
  184.5560  178.7430  144.9500 C   0  0  0  0  0  2  0  0  0  0  0  0
  183.9980  178.8760  146.2190 O   0  0  0  0  0  1  0  0  0  0  0  0
  1 11  1  0  0  0  0
  1  5  2  0  0  0  0
  3 12  1  1  0  0  0
  3  1  1  0  0  0  0
  4 15  2  0  0  0  0
  5 35  1  0  0  0  0
  6  2  1  1  0  0  0
  6  3  1  0  0  0  0
  7  5  1  0  0  0  0
  7 18  1  0  0  0  0
  8 11  1  0  0  0  0
  9 16  1  0  0  0  0
 10 14  1  0  0  0  0
 10  2  1  0  0  0  0
 12  7  2  0  0  0  0
 13 28  1  6  0  0  0
 13  6  1  0  0  0  0
 13 17  1  0  0  0  0
 14  9  1  0  0  0  0
 14  4  2  0  0  0  0
 16 23  1  6  0  0  0
 16 12  1  0  0  0  0
 17  8  1  0  0  0  0
 18 20  1  0  0  0  0
 19 18  2  0  0  0  0
 20 21  1  0  0  0  0
 21 22  1  0  0  0  0
 24 27  1  0  0  0  0
 24 23  1  0  0  0  0
 24 25  1  1  0  0  0
 27 26  1  0  0  0  0
 30 29  1  1  0  0  0
 30 28  1  0  0  0  0
 31 30  1  0  0  0  0
 32 34  1  0  0  0  0
 32 31  2  0  0  0  0
 34 33  1  0  0  0  0
 35 36  1  0  0  0  0
 36 37  1  0  0  0  0
M  END
>  <MODEL>
7

>  <REMARK>
 VINA RESULT:      -3.9      2.565      5.802
  Name = 
  11 active torsions:
  status: ('A' for Active; 'I' for Inactive)
    1  A    between atoms: S_1  and  C_5
    2  A    between atoms: S_1  and  C_36
    3  A    between atoms: C_2  and  C_35
    4  A    between atoms: C_3  and  N_32
    5  A    between atoms: C_5  and  O_23
    6  A    between atoms: C_6  and  C_31
    7  A    between atoms: C_6  and  C_35
    8  A    between atoms: C_9  and  C_13
    9  A    between atoms: C_9  and  C_16
   10  A    between atoms: C_18  and  C_19
   11  A    between atoms: C_20  and  C_21
                            x       y       z     vdW  Elec       q    Type
                         _______ _______ _______ _____ _____    ______ ____

>  <TORSDO>
F 11

$$$$
=
 OpenBabel10262423033D

 37 39  0  0  1  0  0  0  0  0999 V2000
  183.6690  178.2270  138.0050 C   0  0  0  0  0  0  0  0  0  0  0  0
  182.6540  176.1990  140.0860 C   0  0  0  0  0  2  0  0  0  0  0  0
  182.4800  178.4960  138.8820 C   0  0  2  0  0  3  0  0  0  0  0  0
  179.6550  174.9380  138.9970 C   0  0  0  0  0  0  0  0  0  0  0  0
  183.2830  177.7280  136.8400 C   0  0  0  0  0  0  0  0  0  0  0  0
  182.5500  177.7210  140.2150 C   0  0  2  0  0  3  0  0  0  0  0  0
  181.8290  177.5630  136.8370 C   0  0  0  0  0  0  0  0  0  0  0  0
  185.4830  178.2080  139.7330 C   0  0  0  0  0  2  0  0  0  0  0  0
  179.7920  177.1910  139.6400 O   0  0  0  0  0  0  0  0  0  0  0  0
  181.3800  175.5290  140.5970 C   0  0  0  0  0  2  0  0  0  0  0  0
  185.0790  178.6200  138.3250 C   0  0  0  0  0  2  0  0  0  0  0  0
  181.3590  178.0020  138.0060 C   0  0  0  0  0  0  0  0  0  0  0  0
  183.4940  178.2830  141.2910 C   0  0  1  0  0  3  0  0  0  0  0  0
  180.2200  175.8650  139.7200 C   0  0  0  0  0  0  0  0  0  0  0  0
  179.1280  174.0580  138.3070 O   0  0  0  0  0  0  0  0  0  0  0  0
  179.9190  177.9420  138.4350 C   0  0  2  0  0  3  0  0  0  0  0  0
  184.7130  179.0300  140.7550 C   0  0  0  0  0  2  0  0  0  0  0  0
  181.0390  176.9800  135.7250 C   0  0  0  0  0  0  0  0  0  0  0  0
  180.6740  177.7140  134.7680 O   0  0  0  0  0  0  0  0  0  0  0  0
  180.7020  175.5880  135.7170 N   0  0  0  0  0  2  0  0  0  0  0  0
  179.9860  174.9530  134.6200 C   0  0  0  0  0  2  0  0  0  0  0  0
  179.9140  173.4540  134.8450 C   0  0  0  0  0  1  0  0  0  0  0  0
  179.2720  179.6230  138.6890 S   0  0  0  0  0  0  0  0  0  0  0  0
  180.0140  180.2400  137.1470 C   0  0  2  0  0  3  0  0  0  0  0  0
  180.8230  181.4920  137.4380 C   0  0  0  0  0  1  0  0  0  0  0  0
  179.6010  181.4060  135.3160 C   0  0  0  0  0  1  0  0  0  0  0  0
  179.0030  180.5410  136.2340 O   0  0  0  0  0  0  0  0  0  0  0  0
  182.7200  179.1990  142.2260 C   0  0  0  0  0  2  0  0  0  0  0  0
  182.3960  178.7360  144.5430 O   0  0  0  0  0  1  0  0  0  0  0  0
  183.3340  179.1930  143.6160 C   0  0  1  0  0  3  0  0  0  0  0  0
  184.5350  178.2990  143.6270 C   0  0  0  0  0  3  0  0  0  0  0  0
  185.3770  178.2160  144.6640 C   0  0  0  0  0  3  0  0  0  0  0  0
  184.4940  178.3090  146.8530 F   0  0  0  0  0  0  0  0  0  0  0  0
  185.2240  179.0220  145.9170 C   0  0  0  0  0  2  0  0  0  0  0  0
  184.2100  177.3270  135.7350 C   0  0  0  0  0  2  0  0  0  0  0  0
  184.5900  175.8670  135.8880 C   0  0  0  0  0  2  0  0  0  0  0  0
  185.8690  175.6650  135.3750 O   0  0  0  0  0  1  0  0  0  0  0  0
  1 11  1  0  0  0  0
  2 10  1  0  0  0  0
  3  1  1  6  0  0  0
  3  6  1  0  0  0  0
  4 14  2  0  0  0  0
  5  1  2  0  0  0  0
  6  2  1  6  0  0  0
  6 13  1  0  0  0  0
  7  5  1  0  0  0  0
  7 12  2  0  0  0  0
  8 17  1  0  0  0  0
  9 14  1  0  0  0  0
 11  8  1  0  0  0  0
 12 16  1  0  0  0  0
 12  3  1  0  0  0  0
 13 28  1  1  0  0  0
 14 10  1  0  0  0  0
 15  4  2  0  0  0  0
 16 23  1  1  0  0  0
 16  9  1  0  0  0  0
 17 13  1  0  0  0  0
 18  7  1  0  0  0  0
 19 18  2  0  0  0  0
 20 18  1  0  0  0  0
 21 22  1  0  0  0  0
 21 20  1  0  0  0  0
 24 25  1  1  0  0  0
 24 23  1  0  0  0  0
 26 27  1  0  0  0  0
 27 24  1  0  0  0  0
 28 30  1  0  0  0  0
 30 31  1  0  0  0  0
 30 29  1  1  0  0  0
 31 32  2  0  0  0  0
 32 34  1  0  0  0  0
 34 33  1  0  0  0  0
 35 36  1  0  0  0  0
 35  5  1  0  0  0  0
 37 36  1  0  0  0  0
M  END
>  <MODEL>
8

>  <REMARK>
 VINA RESULT:      -3.6      3.133      6.807
  Name = 
  11 active torsions:
  status: ('A' for Active; 'I' for Inactive)
    1  A    between atoms: S_1  and  C_5
    2  A    between atoms: S_1  and  C_36
    3  A    between atoms: C_2  and  C_35
    4  A    between atoms: C_3  and  N_32
    5  A    between atoms: C_5  and  O_23
    6  A    between atoms: C_6  and  C_31
    7  A    between atoms: C_6  and  C_35
    8  A    between atoms: C_9  and  C_13
    9  A    between atoms: C_9  and  C_16
   10  A    between atoms: C_18  and  C_19
   11  A    between atoms: C_20  and  C_21
                            x       y       z     vdW  Elec       q    Type
                         _______ _______ _______ _____ _____    ______ ____

>  <TORSDO>
F 11

$$$$
=
 OpenBabel10262423033D

 37 39  0  0  1  0  0  0  0  0999 V2000
  185.2630  178.9460  141.1380 C   0  0  0  0  0  0  0  0  0  0  0  0
  183.1840  176.7000  140.8200 C   0  0  0  0  0  2  0  0  0  0  0  0
  183.8800  179.1960  140.6110 C   0  0  2  0  0  3  0  0  0  0  0  0
  182.7120  176.1260  137.4700 C   0  0  0  0  0  0  0  0  0  0  0  0
  186.1130  178.7560  140.1380 C   0  0  0  0  0  0  0  0  0  0  0  0
  182.8600  178.1620  141.1360 C   0  0  2  0  0  3  0  0  0  0  0  0
  185.3900  178.8020  138.8670 C   0  0  0  0  0  0  0  0  0  0  0  0
  184.7200  178.3170  143.5010 C   0  0  0  0  0  2  0  0  0  0  0  0
  181.9960  178.1570  138.4030 O   0  0  0  0  0  0  0  0  0  0  0  0
  182.1680  176.1270  139.8330 C   0  0  0  0  0  2  0  0  0  0  0  0
  185.6700  179.0620  142.5750 C   0  0  0  0  0  2  0  0  0  0  0  0
  184.1050  179.0550  139.1290 C   0  0  0  0  0  0  0  0  0  0  0  0
  182.3660  178.3520  142.5790 C   0  0  1  0  0  3  0  0  0  0  0  0
  182.2870  176.7960  138.5050 C   0  0  0  0  0  0  0  0  0  0  0  0
  183.1240  175.4900  136.4930 O   0  0  0  0  0  0  0  0  0  0  0  0
  183.0090  179.1130  138.1010 C   0  0  2  0  0  3  0  0  0  0  0  0
  183.3680  179.0140  143.5240 C   0  0  0  0  0  2  0  0  0  0  0  0
  185.9950  178.5780  137.5320 C   0  0  0  0  0  0  0  0  0  0  0  0
  186.7620  179.4480  137.0410 O   0  0  0  0  0  0  0  0  0  0  0  0
  185.7330  177.3730  136.8030 N   0  0  0  0  0  2  0  0  0  0  0  0
  186.3540  177.0740  135.5200 C   0  0  0  0  0  2  0  0  0  0  0  0
  187.6930  176.3930  135.7370 C   0  0  0  0  0  1  0  0  0  0  0  0
  182.2850  180.7810  138.0540 S   0  0  0  0  0  0  0  0  0  0  0  0
  180.6750  180.1650  137.4750 C   0  0  2  0  0  3  0  0  0  0  0  0
  180.5360  180.4280  135.9850 C   0  0  0  0  0  1  0  0  0  0  0  0
  180.2530  181.2860  139.3320 C   0  0  0  0  0  1  0  0  0  0  0  0
  179.6520  180.8210  138.1600 O   0  0  0  0  0  0  0  0  0  0  0  0
  181.0750  179.1580  142.5790 C   0  0  0  0  0  2  0  0  0  0  0  0
  178.9310  178.6340  143.4790 O   0  0  0  0  0  1  0  0  0  0  0  0
  179.8670  178.2390  142.5220 C   0  0  1  0  0  3  0  0  0  0  0  0
  179.2540  178.3050  141.1570 C   0  0  0  0  0  3  0  0  0  0  0  0
  178.9330  177.2180  140.4460 C   0  0  0  0  0  3  0  0  0  0  0  0
  179.0700  174.9320  139.8660 F   0  0  0  0  0  0  0  0  0  0  0  0
  179.1680  175.8190  140.9240 C   0  0  0  0  0  2  0  0  0  0  0  0
  187.5710  178.4630  140.3030 C   0  0  0  0  0  2  0  0  0  0  0  0
  187.9250  177.1850  139.5680 C   0  0  0  0  0  2  0  0  0  0  0  0
  189.2280  176.8120  139.8880 O   0  0  0  0  0  1  0  0  0  0  0  0
  1 11  1  0  0  0  0
  3 12  1  6  0  0  0
  3  6  1  0  0  0  0
  3  1  1  0  0  0  0
  4 14  2  0  0  0  0
  5 35  1  0  0  0  0
  5  1  2  0  0  0  0
  6  2  1  1  0  0  0
  6 13  1  0  0  0  0
  7 12  2  0  0  0  0
  7  5  1  0  0  0  0
  8 17  1  0  0  0  0
  9 14  1  0  0  0  0
 10  2  1  0  0  0  0
 11  8  1  0  0  0  0
 13 28  1  6  0  0  0
 13 17  1  0  0  0  0
 14 10  1  0  0  0  0
 15  4  2  0  0  0  0
 16 23  1  1  0  0  0
 16  9  1  0  0  0  0
 16 12  1  0  0  0  0
 18  7  1  0  0  0  0
 19 18  2  0  0  0  0
 20 18  1  0  0  0  0
 21 22  1  0  0  0  0
 21 20  1  0  0  0  0
 24 25  1  6  0  0  0
 24 23  1  0  0  0  0
 24 27  1  0  0  0  0
 27 26  1  0  0  0  0
 30 28  1  0  0  0  0
 30 29  1  1  0  0  0
 31 30  1  0  0  0  0
 32 34  1  0  0  0  0
 32 31  2  0  0  0  0
 33 34  1  0  0  0  0
 36 37  1  0  0  0  0
 36 35  1  0  0  0  0
M  END
>  <MODEL>
9

>  <REMARK>
 VINA RESULT:      -3.5      2.718      5.634
  Name = 
  11 active torsions:
  status: ('A' for Active; 'I' for Inactive)
    1  A    between atoms: S_1  and  C_5
    2  A    between atoms: S_1  and  C_36
    3  A    between atoms: C_2  and  C_35
    4  A    between atoms: C_3  and  N_32
    5  A    between atoms: C_5  and  O_23
    6  A    between atoms: C_6  and  C_31
    7  A    between atoms: C_6  and  C_35
    8  A    between atoms: C_9  and  C_13
    9  A    between atoms: C_9  and  C_16
   10  A    between atoms: C_18  and  C_19
   11  A    between atoms: C_20  and  C_21
                            x       y       z     vdW  Elec       q    Type
                         _______ _______ _______ _____ _____    ______ ____

>  <TORSDO>
F 11

$$$$
