=
 OpenBabel10262419483D

 25 28  0  0  1  0  0  0  0  0999 V2000
  189.2830  177.3250  144.0870 C   0  0  0  0  0  0  0  0  0  0  0  0
  188.2980  177.6640  145.0340 C   0  0  0  0  0  0  0  0  0  0  0  0
  190.8770  176.8640  145.8440 C   0  0  0  0  0  3  0  0  0  0  0  0
  189.1060  177.2930  142.6740 N   0  0  0  0  0  0  0  0  0  0  0  0
  189.4430  177.3030  139.8870 C   0  0  0  0  0  2  0  0  0  0  0  0
  189.9180  177.2050  146.8050 C   0  0  0  0  0  3  0  0  0  0  0  0
  190.2230  176.6220  142.0030 C   0  0  1  0  0  3  0  0  0  0  0  0
  190.5910  177.3460  140.7910 N   0  0  0  0  0  2  0  0  0  0  0  0
  187.6530  177.9350  147.3780 C   0  0  0  0  0  0  0  0  0  0  0  0
  187.9980  177.8850  149.1020 Cl  0  0  0  0  0  0  0  0  0  0  0  0
  187.0030  178.0310  144.6490 C   0  0  0  0  0  3  0  0  0  0  0  0
  188.2020  177.9890  140.4820 C   0  0  0  0  0  2  0  0  0  0  0  0
  190.5380  176.9320  144.4950 C   0  0  0  0  0  0  0  0  0  0  0  0
  191.6490  176.5420  143.1580 S   0  0  0  0  0  0  0  0  0  0  0  0
  186.3700  178.3070  146.9680 C   0  0  0  0  0  3  0  0  0  0  0  0
  188.3360  178.3200  141.9710 C   0  0  0  0  0  2  0  0  0  0  0  0
  186.0440  178.3580  145.6100 C   0  0  0  0  0  0  0  0  0  0  0  0
  188.6270  177.6060  146.4160 C   0  0  0  0  0  0  0  0  0  0  0  0
  184.6660  178.7330  145.1900 C   0  0  0  0  0  2  0  0  0  0  0  0
  184.6870  179.2810  143.7720 C   0  0  0  0  0  2  0  0  0  0  0  0
  183.4570  178.6830  141.6460 C   0  0  0  0  0  0  0  0  0  0  0  0
  184.6910  178.8630  140.8280 C   0  0  0  0  0  1  0  0  0  0  0  0
  182.3910  178.3420  141.0670 O   0  0  0  0  0  0  0  0  0  0  0  0
  183.4700  178.8960  143.0670 N   0  0  0  0  0  0  0  0  0  0  0  0
  182.2330  178.8350  143.8290 C   0  0  0  0  0  1  0  0  0  0  0  0
  1 13  2  0  0  0  0
  1  2  1  0  0  0  0
  2 18  1  0  0  0  0
  3  6  2  0  0  0  0
  4  1  1  0  0  0  0
  5 12  1  0  0  0  0
  5  8  1  0  0  0  0
  7  8  1  6  0  0  0
  7  4  1  0  0  0  0
  7 14  1  0  0  0  0
  9 10  1  0  0  0  0
 11  2  2  0  0  0  0
 11 17  1  0  0  0  0
 12 16  1  0  0  0  0
 13  3  1  0  0  0  0
 14 13  1  0  0  0  0
 15  9  1  0  0  0  0
 16  4  1  0  0  0  0
 17 15  2  0  0  0  0
 18  6  1  0  0  0  0
 18  9  2  0  0  0  0
 19 17  1  0  0  0  0
 20 19  1  0  0  0  0
 21 24  1  0  0  0  0
 22 21  1  0  0  0  0
 23 21  2  0  0  0  0
 24 20  1  0  0  0  0
 24 25  1  0  0  0  0
M  END
>  <MODEL>
1

>  <REMARK>
 VINA RESULT:      -9.8      0.000      0.000
  Name = 
  3 active torsions:
  status: ('A' for Active; 'I' for Inactive)
    1  A    between atoms: C_6  and  C_15
    2  A    between atoms: C_6  and  C_23
    3  A    between atoms: C_15  and  N_21
                            x       y       z     vdW  Elec       q    Type
                         _______ _______ _______ _____ _____    ______ ____

>  <TORSDO>
F 3

$$$$
=
 OpenBabel10262419483D

 25 28  0  0  1  0  0  0  0  0999 V2000
  187.4770  177.9040  145.5470 C   0  0  0  0  0  0  0  0  0  0  0  0
  188.8030  177.5080  145.2890 C   0  0  0  0  0  0  0  0  0  0  0  0
  187.8050  177.6180  147.9240 C   0  0  0  0  0  3  0  0  0  0  0  0
  186.5290  178.3280  144.5720 N   0  0  0  0  0  0  0  0  0  0  0  0
  184.2060  178.9760  143.1330 C   0  0  0  0  0  2  0  0  0  0  0  0
  189.1240  177.2120  147.6940 C   0  0  0  0  0  3  0  0  0  0  0  0
  185.3530  178.9470  145.1910 C   0  0  1  0  0  3  0  0  0  0  0  0
  184.1380  178.5070  144.5160 N   0  0  0  0  0  2  0  0  0  0  0  0
  190.9670  176.7590  146.1480 C   0  0  0  0  0  0  0  0  0  0  0  0
  192.0480  176.3050  147.4590 Cl  0  0  0  0  0  0  0  0  0  0  0  0
  189.3240  177.4800  143.9910 C   0  0  0  0  0  3  0  0  0  0  0  0
  185.4030  178.3840  142.3720 C   0  0  0  0  0  2  0  0  0  0  0  0
  187.0010  177.9580  146.8380 C   0  0  0  0  0  0  0  0  0  0  0  0
  185.3040  178.4810  146.9670 S   0  0  0  0  0  0  0  0  0  0  0  0
  191.4610  176.7310  144.8410 C   0  0  0  0  0  3  0  0  0  0  0  0
  186.4110  177.6640  143.2730 C   0  0  0  0  0  2  0  0  0  0  0  0
  190.6450  177.0870  143.7650 C   0  0  0  0  0  0  0  0  0  0  0  0
  189.6360  177.1520  146.3850 C   0  0  0  0  0  0  0  0  0  0  0  0
  191.1920  177.0750  142.3810 C   0  0  0  0  0  2  0  0  0  0  0  0
  190.0990  176.6980  141.3930 C   0  0  0  0  0  2  0  0  0  0  0  0
  189.3990  178.0180  139.3550 C   0  0  0  0  0  0  0  0  0  0  0  0
  188.0270  178.2260  139.9050 C   0  0  0  0  0  1  0  0  0  0  0  0
  189.6800  178.5090  138.2290 O   0  0  0  0  0  0  0  0  0  0  0  0
  190.3860  177.2700  140.0840 N   0  0  0  0  0  0  0  0  0  0  0  0
  191.6740  176.9740  139.4800 C   0  0  0  0  0  1  0  0  0  0  0  0
  1 13  1  0  0  0  0
  2  1  2  0  0  0  0
  2 18  1  0  0  0  0
  4  7  1  0  0  0  0
  4  1  1  0  0  0  0
  5  8  1  0  0  0  0
  6  3  1  0  0  0  0
  7  8  1  6  0  0  0
  7 14  1  0  0  0  0
  9 18  1  0  0  0  0
  9 10  1  0  0  0  0
 11  2  1  0  0  0  0
 12  5  1  0  0  0  0
 12 16  1  0  0  0  0
 13 14  1  0  0  0  0
 13  3  2  0  0  0  0
 15  9  2  0  0  0  0
 16  4  1  0  0  0  0
 17 11  2  0  0  0  0
 17 15  1  0  0  0  0
 18  6  2  0  0  0  0
 19 17  1  0  0  0  0
 20 19  1  0  0  0  0
 21 22  1  0  0  0  0
 21 24  1  0  0  0  0
 23 21  2  0  0  0  0
 24 20  1  0  0  0  0
 25 24  1  0  0  0  0
M  END
>  <MODEL>
2

>  <REMARK>
 VINA RESULT:      -9.7      2.657      5.467
  Name = 
  3 active torsions:
  status: ('A' for Active; 'I' for Inactive)
    1  A    between atoms: C_6  and  C_15
    2  A    between atoms: C_6  and  C_23
    3  A    between atoms: C_15  and  N_21
                            x       y       z     vdW  Elec       q    Type
                         _______ _______ _______ _____ _____    ______ ____

>  <TORSDO>
F 3

$$$$
=
 OpenBabel10262419483D

 25 28  0  0  1  0  0  0  0  0999 V2000
  187.5560  177.7980  145.6960 C   0  0  0  0  0  0  0  0  0  0  0  0
  186.7680  178.1230  144.5750 C   0  0  0  0  0  0  0  0  0  0  0  0
  185.7150  178.2800  147.1850 C   0  0  0  0  0  3  0  0  0  0  0  0
  188.8990  177.3260  145.6620 N   0  0  0  0  0  0  0  0  0  0  0  0
  191.5590  176.6380  146.2400 C   0  0  0  0  0  2  0  0  0  0  0  0
  184.9140  178.6170  146.0880 C   0  0  0  0  0  3  0  0  0  0  0  0
  189.3240  176.8060  146.9650 C   0  0  1  0  0  3  0  0  0  0  0  0
  190.6890  177.2290  147.2560 N   0  0  0  0  0  2  0  0  0  0  0  0
  184.6200  178.8660  143.6710 C   0  0  0  0  0  0  0  0  0  0  0  0
  182.9530  179.3940  143.8580 Cl  0  0  0  0  0  0  0  0  0  0  0  0
  187.2650  178.0190  143.2700 C   0  0  0  0  0  3  0  0  0  0  0  0
  191.2140  177.1180  144.8210 C   0  0  0  0  0  2  0  0  0  0  0  0
  187.0300  177.8750  146.9660 C   0  0  0  0  0  0  0  0  0  0  0  0
  188.1730  177.4270  148.2550 S   0  0  0  0  0  0  0  0  0  0  0  0
  185.1420  178.7620  142.3790 C   0  0  0  0  0  3  0  0  0  0  0  0
  189.8870  177.8770  144.7340 C   0  0  0  0  0  2  0  0  0  0  0  0
  186.4590  178.3430  142.1770 C   0  0  0  0  0  0  0  0  0  0  0  0
  185.4260  178.5440  144.7800 C   0  0  0  0  0  0  0  0  0  0  0  0
  186.9950  178.2140  140.7940 C   0  0  0  0  0  2  0  0  0  0  0  0
  188.5120  178.3130  140.8120 C   0  0  0  0  0  2  0  0  0  0  0  0
  190.4080  176.8470  140.0100 C   0  0  0  0  0  0  0  0  0  0  0  0
  191.2550  177.2250  141.1790 C   0  0  0  0  0  1  0  0  0  0  0  0
  190.8740  176.0420  139.1600 O   0  0  0  0  0  0  0  0  0  0  0  0
  189.0870  177.3880  139.8440 N   0  0  0  0  0  0  0  0  0  0  0  0
  188.3250  177.1040  138.6390 C   0  0  0  0  0  1  0  0  0  0  0  0
  1 13  1  0  0  0  0
  2 18  1  0  0  0  0
  2  1  2  0  0  0  0
  4  1  1  0  0  0  0
  4  7  1  0  0  0  0
  5  8  1  0  0  0  0
  6  3  1  0  0  0  0
  7  8  1  1  0  0  0
  7 14  1  0  0  0  0
  9 10  1  0  0  0  0
  9 18  1  0  0  0  0
 11  2  1  0  0  0  0
 12  5  1  0  0  0  0
 13  3  2  0  0  0  0
 13 14  1  0  0  0  0
 15  9  2  0  0  0  0
 16 12  1  0  0  0  0
 16  4  1  0  0  0  0
 17 15  1  0  0  0  0
 17 11  2  0  0  0  0
 18  6  2  0  0  0  0
 19 20  1  0  0  0  0
 19 17  1  0  0  0  0
 21 22  1  0  0  0  0
 23 21  2  0  0  0  0
 24 21  1  0  0  0  0
 24 20  1  0  0  0  0
 25 24  1  0  0  0  0
M  END
>  <MODEL>
3

>  <REMARK>
 VINA RESULT:      -9.6      3.162      5.501
  Name = 
  3 active torsions:
  status: ('A' for Active; 'I' for Inactive)
    1  A    between atoms: C_6  and  C_15
    2  A    between atoms: C_6  and  C_23
    3  A    between atoms: C_15  and  N_21
                            x       y       z     vdW  Elec       q    Type
                         _______ _______ _______ _____ _____    ______ ____

>  <TORSDO>
F 3

$$$$
=
 OpenBabel10262419483D

 25 28  0  0  1  0  0  0  0  0999 V2000
  188.4700  177.4290  143.3530 C   0  0  0  0  0  0  0  0  0  0  0  0
  187.1870  177.8200  143.7820 C   0  0  0  0  0  0  0  0  0  0  0  0
  189.2430  177.2950  145.6380 C   0  0  0  0  0  3  0  0  0  0  0  0
  188.8660  177.2090  142.0020 N   0  0  0  0  0  0  0  0  0  0  0  0
  190.2770  176.8930  139.5960 C   0  0  0  0  0  2  0  0  0  0  0  0
  187.9800  177.6910  146.0900 C   0  0  0  0  0  3  0  0  0  0  0  0
  190.1650  176.5330  141.9210 C   0  0  1  0  0  3  0  0  0  0  0  0
  190.9740  177.1220  140.8600 N   0  0  0  0  0  2  0  0  0  0  0  0
  185.6660  178.3390  145.6250 C   0  0  0  0  0  0  0  0  0  0  0  0
  185.3010  178.5270  147.3350 Cl  0  0  0  0  0  0  0  0  0  0  0  0
  186.1460  178.0510  142.8750 C   0  0  0  0  0  3  0  0  0  0  0  0
  188.8960  177.5660  139.5570 C   0  0  0  0  0  2  0  0  0  0  0  0
  189.4660  177.1720  144.2680 C   0  0  0  0  0  0  0  0  0  0  0  0
  191.0180  176.6910  143.5400 S   0  0  0  0  0  0  0  0  0  0  0  0
  184.6450  178.5730  144.7000 C   0  0  0  0  0  3  0  0  0  0  0  0
  188.4270  178.0880  140.9180 C   0  0  0  0  0  2  0  0  0  0  0  0
  184.8820  178.4330  143.3300 C   0  0  0  0  0  0  0  0  0  0  0  0
  186.9440  177.9560  145.1760 C   0  0  0  0  0  0  0  0  0  0  0  0
  183.7800  178.6620  142.3570 C   0  0  0  0  0  2  0  0  0  0  0  0
  182.4960  179.0030  143.0970 C   0  0  0  0  0  2  0  0  0  0  0  0
  180.0380  178.4530  142.8780 C   0  0  0  0  0  0  0  0  0  0  0  0
  179.8220  178.6280  144.3430 C   0  0  0  0  0  1  0  0  0  0  0  0
  179.0560  178.1400  142.1540 O   0  0  0  0  0  0  0  0  0  0  0  0
  181.3390  178.6310  142.2920 N   0  0  0  0  0  0  0  0  0  0  0  0
  181.5550  178.3380  140.8850 C   0  0  0  0  0  1  0  0  0  0  0  0
  1  2  2  0  0  0  0
  1 13  1  0  0  0  0
  2 18  1  0  0  0  0
  3  6  1  0  0  0  0
  4  1  1  0  0  0  0
  5  8  1  0  0  0  0
  7  8  1  6  0  0  0
  7  4  1  0  0  0  0
  7 14  1  0  0  0  0
  9 10  1  0  0  0  0
 11 17  2  0  0  0  0
 11  2  1  0  0  0  0
 12  5  1  0  0  0  0
 12 16  1  0  0  0  0
 13  3  2  0  0  0  0
 14 13  1  0  0  0  0
 15  9  2  0  0  0  0
 16  4  1  0  0  0  0
 17 15  1  0  0  0  0
 18  9  1  0  0  0  0
 18  6  2  0  0  0  0
 19 20  1  0  0  0  0
 19 17  1  0  0  0  0
 21 22  1  0  0  0  0
 23 21  2  0  0  0  0
 24 21  1  0  0  0  0
 24 20  1  0  0  0  0
 25 24  1  0  0  0  0
M  END
>  <MODEL>
4

>  <REMARK>
 VINA RESULT:      -9.3      1.525      2.443
  Name = 
  3 active torsions:
  status: ('A' for Active; 'I' for Inactive)
    1  A    between atoms: C_6  and  C_15
    2  A    between atoms: C_6  and  C_23
    3  A    between atoms: C_15  and  N_21
                            x       y       z     vdW  Elec       q    Type
                         _______ _______ _______ _____ _____    ______ ____

>  <TORSDO>
F 3

$$$$
=
 OpenBabel10262419483D

 25 28  0  0  1  0  0  0  0  0999 V2000
  188.6140  177.3730  143.4520 C   0  0  0  0  0  0  0  0  0  0  0  0
  187.3190  177.7630  143.8440 C   0  0  0  0  0  0  0  0  0  0  0  0
  189.3130  177.2130  145.7600 C   0  0  0  0  0  3  0  0  0  0  0  0
  189.0540  177.1680  142.1130 N   0  0  0  0  0  0  0  0  0  0  0  0
  190.5420  176.8740  139.7500 C   0  0  0  0  0  2  0  0  0  0  0  0
  188.0360  177.6060  146.1750 C   0  0  0  0  0  3  0  0  0  0  0  0
  190.3530  176.4890  142.0670 C   0  0  1  0  0  3  0  0  0  0  0  0
  191.1970  177.0870  141.0400 N   0  0  0  0  0  2  0  0  0  0  0  0
  185.7400  178.2660  145.6430 C   0  0  0  0  0  0  0  0  0  0  0  0
  185.3200  178.4360  147.3420 Cl  0  0  0  0  0  0  0  0  0  0  0  0
  186.3090  178.0060  142.9070 C   0  0  0  0  0  3  0  0  0  0  0  0
  189.1640  177.5510  139.6740 C   0  0  0  0  0  2  0  0  0  0  0  0
  189.5790  177.1040  144.3970 C   0  0  0  0  0  0  0  0  0  0  0  0
  191.1530  176.6270  143.7140 S   0  0  0  0  0  0  0  0  0  0  0  0
  184.7500  178.5120  144.6870 C   0  0  0  0  0  3  0  0  0  0  0  0
  188.6520  178.0590  141.0250 C   0  0  0  0  0  2  0  0  0  0  0  0
  185.0310  178.3860  143.3240 C   0  0  0  0  0  0  0  0  0  0  0  0
  187.0310  177.8840  145.2310 C   0  0  0  0  0  0  0  0  0  0  0  0
  183.9620  178.6290  142.3180 C   0  0  0  0  0  2  0  0  0  0  0  0
  184.5810  178.9770  140.9740 C   0  0  0  0  0  2  0  0  0  0  0  0
  184.1930  178.2140  138.5950 C   0  0  0  0  0  0  0  0  0  0  0  0
  185.6540  178.2500  138.2980 C   0  0  0  0  0  1  0  0  0  0  0  0
  183.3970  177.8630  137.6830 O   0  0  0  0  0  0  0  0  0  0  0  0
  183.6900  178.5760  139.8920 N   0  0  0  0  0  0  0  0  0  0  0  0
  182.2570  178.6540  140.1270 C   0  0  0  0  0  1  0  0  0  0  0  0
  1  2  2  0  0  0  0
  1 13  1  0  0  0  0
  2 18  1  0  0  0  0
  3  6  1  0  0  0  0
  4  1  1  0  0  0  0
  5  8  1  0  0  0  0
  7  8  1  6  0  0  0
  7  4  1  0  0  0  0
  7 14  1  0  0  0  0
  9 10  1  0  0  0  0
 11 17  2  0  0  0  0
 11  2  1  0  0  0  0
 12  5  1  0  0  0  0
 12 16  1  0  0  0  0
 13  3  2  0  0  0  0
 14 13  1  0  0  0  0
 15  9  2  0  0  0  0
 16  4  1  0  0  0  0
 17 15  1  0  0  0  0
 18  9  1  0  0  0  0
 18  6  2  0  0  0  0
 19 17  1  0  0  0  0
 20 19  1  0  0  0  0
 21 24  1  0  0  0  0
 22 21  1  0  0  0  0
 23 21  2  0  0  0  0
 24 25  1  0  0  0  0
 24 20  1  0  0  0  0
M  END
>  <MODEL>
5

>  <REMARK>
 VINA RESULT:      -9.1      1.596      2.251
  Name = 
  3 active torsions:
  status: ('A' for Active; 'I' for Inactive)
    1  A    between atoms: C_6  and  C_15
    2  A    between atoms: C_6  and  C_23
    3  A    between atoms: C_15  and  N_21
                            x       y       z     vdW  Elec       q    Type
                         _______ _______ _______ _____ _____    ______ ____

>  <TORSDO>
F 3

$$$$
=
 OpenBabel10262419483D

 25 28  0  0  1  0  0  0  0  0999 V2000
  186.9890  178.1450  141.5240 C   0  0  0  0  0  0  0  0  0  0  0  0
  186.4010  178.2180  142.8010 C   0  0  0  0  0  0  0  0  0  0  0  0
  184.8880  178.7120  140.4750 C   0  0  0  0  0  3  0  0  0  0  0  0
  188.3610  177.8770  141.2530 N   0  0  0  0  0  0  0  0  0  0  0  0
  190.8190  177.1560  140.1030 C   0  0  0  0  0  2  0  0  0  0  0  0
  184.2770  178.7820  141.7320 C   0  0  0  0  0  3  0  0  0  0  0  0
  188.7040  178.1630  139.8560 C   0  0  1  0  0  3  0  0  0  0  0  0
  189.5790  177.1220  139.3290 N   0  0  0  0  0  2  0  0  0  0  0  0
  184.4150  178.6220  144.1700 C   0  0  0  0  0  0  0  0  0  0  0  0
  182.7100  179.0110  144.3620 Cl  0  0  0  0  0  0  0  0  0  0  0  0
  187.1460  178.0090  143.9680 C   0  0  0  0  0  3  0  0  0  0  0  0
  190.5880  176.8610  141.5940 C   0  0  0  0  0  2  0  0  0  0  0  0
  186.2420  178.3920  140.3950 C   0  0  0  0  0  0  0  0  0  0  0  0
  187.1550  178.2540  138.8730 S   0  0  0  0  0  0  0  0  0  0  0  0
  185.1780  178.4000  145.3200 C   0  0  0  0  0  3  0  0  0  0  0  0
  189.1120  176.8690  142.0010 C   0  0  0  0  0  2  0  0  0  0  0  0
  186.5370  178.0920  145.2220 C   0  0  0  0  0  0  0  0  0  0  0  0
  185.0200  178.5380  142.9020 C   0  0  0  0  0  0  0  0  0  0  0  0
  187.3420  177.8810  146.4560 C   0  0  0  0  0  2  0  0  0  0  0  0
  188.6600  177.2070  146.1080 C   0  0  0  0  0  2  0  0  0  0  0  0
  190.9850  176.9620  147.0710 C   0  0  0  0  0  0  0  0  0  0  0  0
  191.4840  176.3200  145.8200 C   0  0  0  0  0  1  0  0  0  0  0  0
  191.7880  177.1310  148.0270 O   0  0  0  0  0  0  0  0  0  0  0  0
  189.6140  177.3780  147.1960 N   0  0  0  0  0  0  0  0  0  0  0  0
  189.1170  177.8880  148.4630 C   0  0  0  0  0  1  0  0  0  0  0  0
  1  2  1  0  0  0  0
  2 18  2  0  0  0  0
  2 11  1  0  0  0  0
  3  6  2  0  0  0  0
  4  1  1  0  0  0  0
  4 16  1  0  0  0  0
  5 12  1  0  0  0  0
  6 18  1  0  0  0  0
  7 14  1  6  0  0  0
  7  4  1  0  0  0  0
  8  7  1  0  0  0  0
  8  5  1  0  0  0  0
  9 10  1  0  0  0  0
  9 15  2  0  0  0  0
 11 17  2  0  0  0  0
 12 16  1  0  0  0  0
 13  3  1  0  0  0  0
 13  1  2  0  0  0  0
 14 13  1  0  0  0  0
 17 15  1  0  0  0  0
 17 19  1  0  0  0  0
 18  9  1  0  0  0  0
 20 19  1  0  0  0  0
 20 24  1  0  0  0  0
 21 24  1  0  0  0  0
 21 23  2  0  0  0  0
 22 21  1  0  0  0  0
 24 25  1  0  0  0  0
M  END
>  <MODEL>
6

>  <REMARK>
 VINA RESULT:      -9.0      3.414      5.754
  Name = 
  3 active torsions:
  status: ('A' for Active; 'I' for Inactive)
    1  A    between atoms: C_6  and  C_15
    2  A    between atoms: C_6  and  C_23
    3  A    between atoms: C_15  and  N_21
                            x       y       z     vdW  Elec       q    Type
                         _______ _______ _______ _____ _____    ______ ____

>  <TORSDO>
F 3

$$$$
=
 OpenBabel10262419483D

 25 28  0  0  1  0  0  0  0  0999 V2000
  186.7970  177.9630  144.6500 C   0  0  0  0  0  0  0  0  0  0  0  0
  187.9770  177.5880  143.9790 C   0  0  0  0  0  0  0  0  0  0  0  0
  187.8200  177.5110  146.7930 C   0  0  0  0  0  3  0  0  0  0  0  0
  185.6080  178.4500  144.0370 N   0  0  0  0  0  0  0  0  0  0  0  0
  182.9730  179.1920  143.4140 C   0  0  0  0  0  2  0  0  0  0  0  0
  189.0010  177.1260  146.1490 C   0  0  0  0  0  3  0  0  0  0  0  0
  184.6850  179.0220  145.0230 C   0  0  1  0  0  3  0  0  0  0  0  0
  183.3150  178.6260  144.7180 N   0  0  0  0  0  2  0  0  0  0  0  0
  190.2850  176.7870  144.0930 C   0  0  0  0  0  0  0  0  0  0  0  0
  191.7010  176.2450  144.9830 Cl  0  0  0  0  0  0  0  0  0  0  0  0
  188.0820  177.6530  142.5850 C   0  0  0  0  0  3  0  0  0  0  0  0
  183.8740  178.6570  142.2880 C   0  0  0  0  0  2  0  0  0  0  0  0
  186.7330  177.9250  146.0250 C   0  0  0  0  0  0  0  0  0  0  0  0
  185.1640  178.4330  146.6950 S   0  0  0  0  0  0  0  0  0  0  0  0
  190.3620  176.8520  142.6990 C   0  0  0  0  0  3  0  0  0  0  0  0
  185.0920  177.8790  142.7930 C   0  0  0  0  0  2  0  0  0  0  0  0
  189.2660  177.2800  141.9450 C   0  0  0  0  0  0  0  0  0  0  0  0
  189.0940  177.1590  144.7450 C   0  0  0  0  0  0  0  0  0  0  0  0
  189.3710  177.3660  140.4630 C   0  0  0  0  0  2  0  0  0  0  0  0
  188.2670  178.2560  139.9150 C   0  0  0  0  0  2  0  0  0  0  0  0
  186.9270  178.1280  137.7750 C   0  0  0  0  0  0  0  0  0  0  0  0
  185.6410  178.2560  138.5210 C   0  0  0  0  0  1  0  0  0  0  0  0
  186.8920  178.0200  136.5200 O   0  0  0  0  0  0  0  0  0  0  0  0
  188.1870  178.1230  138.4660 N   0  0  0  0  0  0  0  0  0  0  0  0
  189.4210  177.8750  137.7370 C   0  0  0  0  0  1  0  0  0  0  0  0
  1 13  1  0  0  0  0
  2  1  2  0  0  0  0
  2 18  1  0  0  0  0
  4  1  1  0  0  0  0
  4  7  1  0  0  0  0
  5  8  1  0  0  0  0
  6  3  1  0  0  0  0
  7  8  1  6  0  0  0
  7 14  1  0  0  0  0
  9 18  1  0  0  0  0
  9 10  1  0  0  0  0
 11  2  1  0  0  0  0
 12 16  1  0  0  0  0
 12  5  1  0  0  0  0
 13 14  1  0  0  0  0
 13  3  2  0  0  0  0
 15  9  2  0  0  0  0
 16  4  1  0  0  0  0
 17 11  2  0  0  0  0
 17 15  1  0  0  0  0
 18  6  2  0  0  0  0
 19 17  1  0  0  0  0
 20 19  1  0  0  0  0
 21 24  1  0  0  0  0
 21 22  1  0  0  0  0
 23 21  2  0  0  0  0
 24 20  1  0  0  0  0
 25 24  1  0  0  0  0
M  END
>  <MODEL>
7

>  <REMARK>
 VINA RESULT:      -8.9      2.723      5.385
  Name = 
  3 active torsions:
  status: ('A' for Active; 'I' for Inactive)
    1  A    between atoms: C_6  and  C_15
    2  A    between atoms: C_6  and  C_23
    3  A    between atoms: C_15  and  N_21
                            x       y       z     vdW  Elec       q    Type
                         _______ _______ _______ _____ _____    ______ ____

>  <TORSDO>
F 3

$$$$
=
 OpenBabel10262419483D

 25 28  0  0  1  0  0  0  0  0999 V2000
  187.9980  177.5920  145.6530 C   0  0  0  0  0  0  0  0  0  0  0  0
  187.5060  177.7950  144.3490 C   0  0  0  0  0  0  0  0  0  0  0  0
  185.8880  178.2840  146.6050 C   0  0  0  0  0  3  0  0  0  0  0  0
  189.2890  177.0930  145.9880 N   0  0  0  0  0  0  0  0  0  0  0  0
  191.7090  176.4290  147.2470 C   0  0  0  0  0  2  0  0  0  0  0  0
  185.3780  178.5010  145.3210 C   0  0  0  0  0  3  0  0  0  0  0  0
  189.3770  176.7250  147.4050 C   0  0  1  0  0  3  0  0  0  0  0  0
  190.6570  177.1540  147.9570 N   0  0  0  0  0  2  0  0  0  0  0  0
  185.6600  178.4640  142.8900 C   0  0  0  0  0  0  0  0  0  0  0  0
  184.0220  179.0430  142.6200 Cl  0  0  0  0  0  0  0  0  0  0  0  0
  188.2840  177.5240  143.2180 C   0  0  0  0  0  3  0  0  0  0  0  0
  191.7230  176.7420  145.7420 C   0  0  0  0  0  2  0  0  0  0  0  0
  187.1970  177.8310  146.7470 C   0  0  0  0  0  0  0  0  0  0  0  0
  187.9910  177.5190  148.3110 S   0  0  0  0  0  0  0  0  0  0  0  0
  186.4610  178.1960  141.7760 C   0  0  0  0  0  3  0  0  0  0  0  0
  190.4890  177.5100  145.2610 C   0  0  0  0  0  2  0  0  0  0  0  0
  187.7680  177.7300  141.9370 C   0  0  0  0  0  0  0  0  0  0  0  0
  186.1730  178.2620  144.1850 C   0  0  0  0  0  0  0  0  0  0  0  0
  188.6010  177.4260  140.7410 C   0  0  0  0  0  2  0  0  0  0  0  0
  188.4380  178.5220  139.7010 C   0  0  0  0  0  2  0  0  0  0  0  0
  187.2980  177.7710  137.5730 C   0  0  0  0  0  0  0  0  0  0  0  0
  185.9560  178.1450  138.1070 C   0  0  0  0  0  1  0  0  0  0  0  0
  187.3740  177.2850  136.4130 O   0  0  0  0  0  0  0  0  0  0  0  0
  188.4870  177.9530  138.3600 N   0  0  0  0  0  0  0  0  0  0  0  0
  189.7690  177.4710  137.8720 C   0  0  0  0  0  1  0  0  0  0  0  0
  1  4  1  0  0  0  0
  1 13  1  0  0  0  0
  2  1  2  0  0  0  0
  3 13  2  0  0  0  0
  4  7  1  0  0  0  0
  5  8  1  0  0  0  0
  6  3  1  0  0  0  0
  7  8  1  1  0  0  0
  7 14  1  0  0  0  0
  9 18  1  0  0  0  0
 10  9  1  0  0  0  0
 11  2  1  0  0  0  0
 12  5  1  0  0  0  0
 13 14  1  0  0  0  0
 15 17  1  0  0  0  0
 15  9  2  0  0  0  0
 16 12  1  0  0  0  0
 16  4  1  0  0  0  0
 17 11  2  0  0  0  0
 18  2  1  0  0  0  0
 18  6  2  0  0  0  0
 19 17  1  0  0  0  0
 20 19  1  0  0  0  0
 21 22  1  0  0  0  0
 21 24  1  0  0  0  0
 23 21  2  0  0  0  0
 24 20  1  0  0  0  0
 25 24  1  0  0  0  0
M  END
>  <MODEL>
8

>  <REMARK>
 VINA RESULT:      -8.9      3.203      5.542
  Name = 
  3 active torsions:
  status: ('A' for Active; 'I' for Inactive)
    1  A    between atoms: C_6  and  C_15
    2  A    between atoms: C_6  and  C_23
    3  A    between atoms: C_15  and  N_21
                            x       y       z     vdW  Elec       q    Type
                         _______ _______ _______ _____ _____    ______ ____

>  <TORSDO>
F 3

$$$$
=
 OpenBabel10262419483D

 25 28  0  0  1  0  0  0  0  0999 V2000
  186.8430  177.9820  144.7500 C   0  0  0  0  0  0  0  0  0  0  0  0
  187.9840  177.5760  144.0320 C   0  0  0  0  0  0  0  0  0  0  0  0
  187.9520  177.5370  146.8510 C   0  0  0  0  0  3  0  0  0  0  0  0
  185.6380  178.4870  144.1840 N   0  0  0  0  0  0  0  0  0  0  0  0
  182.9920  179.2740  143.6680 C   0  0  0  0  0  2  0  0  0  0  0  0
  189.0950  177.1190  146.1600 C   0  0  0  0  0  3  0  0  0  0  0  0
  184.7710  179.0890  145.2020 C   0  0  1  0  0  3  0  0  0  0  0  0
  183.3810  178.7180  144.9630 N   0  0  0  0  0  2  0  0  0  0  0  0
  190.2790  176.7290  144.0540 C   0  0  0  0  0  0  0  0  0  0  0  0
  191.7220  176.1690  144.8880 Cl  0  0  0  0  0  0  0  0  0  0  0  0
  188.0280  177.6210  142.6340 C   0  0  0  0  0  3  0  0  0  0  0  0
  183.8320  178.7070  142.5110 C   0  0  0  0  0  2  0  0  0  0  0  0
  186.8400  177.9630  146.1270 C   0  0  0  0  0  0  0  0  0  0  0  0
  185.3120  178.5110  146.8590 S   0  0  0  0  0  0  0  0  0  0  0  0
  190.2950  176.7750  142.6570 C   0  0  0  0  0  3  0  0  0  0  0  0
  185.0560  177.9100  142.9710 C   0  0  0  0  0  2  0  0  0  0  0  0
  189.1750  177.2160  141.9470 C   0  0  0  0  0  0  0  0  0  0  0  0
  189.1260  177.1330  144.7530 C   0  0  0  0  0  0  0  0  0  0  0  0
  189.2150  177.2820  140.4610 C   0  0  0  0  0  2  0  0  0  0  0  0
  190.5380  176.7320  139.9510 C   0  0  0  0  0  2  0  0  0  0  0  0
  191.6300  176.3530  137.7030 C   0  0  0  0  0  0  0  0  0  0  0  0
  192.9930  176.5210  138.2870 C   0  0  0  0  0  1  0  0  0  0  0  0
  191.5240  176.1130  136.4710 O   0  0  0  0  0  0  0  0  0  0  0  0
  190.4530  176.4650  138.5210 N   0  0  0  0  0  0  0  0  0  0  0  0
  189.1330  176.4200  137.9150 C   0  0  0  0  0  1  0  0  0  0  0  0
  1 13  1  0  0  0  0
  2  1  2  0  0  0  0
  2 18  1  0  0  0  0
  4  1  1  0  0  0  0
  4  7  1  0  0  0  0
  5  8  1  0  0  0  0
  6  3  1  0  0  0  0
  7  8  1  6  0  0  0
  7 14  1  0  0  0  0
  9 18  1  0  0  0  0
  9 10  1  0  0  0  0
 11  2  1  0  0  0  0
 12 16  1  0  0  0  0
 12  5  1  0  0  0  0
 13  3  2  0  0  0  0
 13 14  1  0  0  0  0
 15  9  2  0  0  0  0
 16  4  1  0  0  0  0
 17 11  2  0  0  0  0
 17 15  1  0  0  0  0
 18  6  2  0  0  0  0
 19 17  1  0  0  0  0
 20 19  1  0  0  0  0
 21 22  1  0  0  0  0
 21 24  1  0  0  0  0
 23 21  2  0  0  0  0
 24 20  1  0  0  0  0
 25 24  1  0  0  0  0
M  END
>  <MODEL>
9

>  <REMARK>
 VINA RESULT:      -8.7      3.237      6.288
  Name = 
  3 active torsions:
  status: ('A' for Active; 'I' for Inactive)
    1  A    between atoms: C_6  and  C_15
    2  A    between atoms: C_6  and  C_23
    3  A    between atoms: C_15  and  N_21
                            x       y       z     vdW  Elec       q    Type
                         _______ _______ _______ _____ _____    ______ ____

>  <TORSDO>
F 3

$$$$
