=
 OpenBabel10262421123D

 32 36  0  0  1  0  0  0  0  0999 V2000
  188.2320  177.9410  142.7710 C   0  0  0  0  0  0  0  0  0  0  0  0
  185.4630  178.4380  142.8850 C   0  0  0  0  0  0  0  0  0  0  0  0
  189.7450  177.9410  142.7420 C   0  0  0  0  0  2  0  0  0  0  0  0
  187.5190  178.1870  141.5700 C   0  0  0  0  0  0  0  0  0  0  0  0
  185.3960  178.8250  140.4980 C   0  0  0  0  0  3  0  0  0  0  0  0
  181.8060  178.5460  144.0590 C   0  0  0  0  0  2  0  0  0  0  0  0
  186.1350  178.4840  141.6380 C   0  0  0  0  0  0  0  0  0  0  0  0
  181.8380  178.9460  141.8150 C   0  0  0  0  0  2  0  0  0  0  0  0
  183.3530  178.9500  141.7780 C   0  0  0  0  0  0  0  0  0  0  0  0
  188.3330  178.3100  140.2630 C   0  0  1  0  0  3  0  0  0  0  0  0
  184.0170  179.0240  140.5610 C   0  0  0  0  0  3  0  0  0  0  0  0
  189.6550  177.5810  140.3020 C   0  0  0  0  0  3  0  0  0  0  0  0
  186.1900  178.1470  144.0400 C   0  0  0  0  0  3  0  0  0  0  0  0
  187.5560  177.8790  144.0100 C   0  0  0  0  0  0  0  0  0  0  0  0
  184.0750  178.6780  142.9580 C   0  0  0  0  0  0  0  0  0  0  0  0
  190.2990  177.3960  141.4550 C   0  0  0  0  0  3  0  0  0  0  0  0
  181.3870  179.4510  143.0520 O   0  0  0  0  0  0  0  0  0  0  0  0
  183.3310  178.6760  144.2820 C   0  0  0  0  0  2  0  0  0  0  0  0
  188.4170  177.5780  147.7380 C   0  0  0  0  0  0  0  0  0  0  0  0
  187.8650  177.8270  148.9930 O   0  0  0  0  0  1  0  0  0  0  0  0
  188.2710  177.6040  145.2960 C   0  0  0  0  0  0  0  0  0  0  0  0
  189.7240  177.0970  147.6660 C   0  0  0  0  0  3  0  0  0  0  0  0
  189.5980  177.1550  145.2500 C   0  0  0  0  0  3  0  0  0  0  0  0
  187.6920  177.8490  146.5630 C   0  0  0  0  0  0  0  0  0  0  0  0
  186.3120  178.4210  146.6900 C   0  0  0  0  0  1  0  0  0  0  0  0
  190.3330  176.9050  146.4170 C   0  0  0  0  0  0  0  0  0  0  0  0
  192.3320  175.6870  147.2580 C   0  0  0  0  0  1  0  0  0  0  0  0
  191.6770  176.5170  146.2930 O   0  0  0  0  0  0  0  0  0  0  0  0
  188.1000  177.1730  138.1550 C   0  0  0  0  0  3  0  0  0  0  0  0
  187.5980  177.9430  139.0640 N   0  0  0  0  0  0  0  0  0  0  0  0
  187.2730  176.7650  136.9710 C   0  0  0  0  0  2  0  0  0  0  0  0
  185.8500  177.2800  137.1060 C   0  0  0  0  0  1  0  0  0  0  0  0
  1 14  1  0  0  0  0
  2 15  1  0  0  0  0
  2 13  1  0  0  0  0
  3  1  1  0  0  0  0
  4  7  1  0  0  0  0
  4  1  2  0  0  0  0
  5 11  2  0  0  0  0
  5  7  1  0  0  0  0
  6 18  1  0  0  0  0
  7  2  2  0  0  0  0
  8 17  1  0  0  0  0
  9  8  1  0  0  0  0
  9 15  2  0  0  0  0
 10 30  1  6  0  0  0
 10 12  1  0  0  0  0
 10  4  1  0  0  0  0
 11  9  1  0  0  0  0
 12 16  2  0  0  0  0
 14 13  2  0  0  0  0
 14 21  1  0  0  0  0
 15 18  1  0  0  0  0
 16  3  1  0  0  0  0
 17  6  1  0  0  0  0
 19 20  1  0  0  0  0
 21 24  1  0  0  0  0
 22 19  1  0  0  0  0
 23 21  2  0  0  0  0
 23 26  1  0  0  0  0
 24 25  1  0  0  0  0
 24 19  2  0  0  0  0
 26 22  2  0  0  0  0
 28 26  1  0  0  0  0
 28 27  1  0  0  0  0
 29 30  2  0  0  0  0
 31 32  1  0  0  0  0
 31 29  1  0  0  0  0
M  END
>  <MODEL>
1

>  <REMARK>
 VINA RESULT:     -11.3      0.000      0.000
  Name = 
  4 active torsions:
  status: ('A' for Active; 'I' for Inactive)
    1  A    between atoms: C_13  and  C_18
    2  A    between atoms: C_14  and  N_29
    3  A    between atoms: O_15  and  C_26
    4  A    between atoms: C_16  and  C_27
                            x       y       z     vdW  Elec       q    Type
                         _______ _______ _______ _____ _____    ______ ____

>  <TORSDO>
F 4

$$$$
=
 OpenBabel10262421123D

 32 36  0  0  1  0  0  0  0  0999 V2000
  186.8230  178.2100  141.7890 C   0  0  0  0  0  0  0  0  0  0  0  0
  187.6870  177.8730  144.4470 C   0  0  0  0  0  0  0  0  0  0  0  0
  186.4490  178.6440  140.3890 C   0  0  0  0  0  2  0  0  0  0  0  0
  185.9150  178.4510  142.8510 C   0  0  0  0  0  0  0  0  0  0  0  0
  185.5480  178.6400  145.2790 C   0  0  0  0  0  3  0  0  0  0  0  0
  189.6560  176.7320  147.5420 C   0  0  0  0  0  2  0  0  0  0  0  0
  186.3690  178.3280  144.1880 C   0  0  0  0  0  0  0  0  0  0  0  0
  187.6330  177.5130  148.2440 C   0  0  0  0  0  2  0  0  0  0  0  0
  187.2520  177.9530  146.8440 C   0  0  0  0  0  0  0  0  0  0  0  0
  184.5280  179.0290  142.4940 C   0  0  1  0  0  3  0  0  0  0  0  0
  185.9710  178.4250  146.5900 C   0  0  0  0  0  3  0  0  0  0  0  0
  184.0830  178.7100  141.0870 C   0  0  0  0  0  3  0  0  0  0  0  0
  188.5360  177.6020  143.3750 C   0  0  0  0  0  3  0  0  0  0  0  0
  188.1300  177.7420  142.0510 C   0  0  0  0  0  0  0  0  0  0  0  0
  188.1320  177.6930  145.7740 C   0  0  0  0  0  0  0  0  0  0  0  0
  184.9760  178.5140  140.1160 C   0  0  0  0  0  3  0  0  0  0  0  0
  189.0250  177.6430  148.4260 O   0  0  0  0  0  0  0  0  0  0  0  0
  189.5490  177.2480  146.0880 C   0  0  0  0  0  2  0  0  0  0  0  0
  191.3830  177.2640  140.0710 C   0  0  0  0  0  0  0  0  0  0  0  0
  192.7640  177.3470  140.2350 O   0  0  0  0  0  1  0  0  0  0  0  0
  189.1100  177.4580  140.9560 C   0  0  0  0  0  0  0  0  0  0  0  0
  190.8770  176.9530  138.8090 C   0  0  0  0  0  3  0  0  0  0  0  0
  188.6270  177.1800  139.6700 C   0  0  0  0  0  3  0  0  0  0  0  0
  190.5110  177.5340  141.1420 C   0  0  0  0  0  0  0  0  0  0  0  0
  191.1000  177.9220  142.4640 C   0  0  0  0  0  1  0  0  0  0  0  0
  189.4920  176.9330  138.5940 C   0  0  0  0  0  0  0  0  0  0  0  0
  187.5240  176.7460  137.0860 C   0  0  0  0  0  1  0  0  0  0  0  0
  188.9350  176.7230  137.3220 O   0  0  0  0  0  0  0  0  0  0  0  0
  182.2440  179.0280  143.2520 C   0  0  0  0  0  3  0  0  0  0  0  0
  183.4760  178.6860  143.4380 N   0  0  0  0  0  0  0  0  0  0  0  0
  181.1850  178.5860  144.2200 C   0  0  0  0  0  2  0  0  0  0  0  0
  179.8150  178.6060  143.5640 C   0  0  0  0  0  1  0  0  0  0  0  0
  1 14  2  0  0  0  0
  1  4  1  0  0  0  0
  2 15  1  0  0  0  0
  3  1  1  0  0  0  0
  4  7  2  0  0  0  0
  5 11  2  0  0  0  0
  6 17  1  0  0  0  0
  7  2  1  0  0  0  0
  7  5  1  0  0  0  0
  8 17  1  0  0  0  0
  9  8  1  0  0  0  0
 10  4  1  0  0  0  0
 10 30  1  1  0  0  0
 11  9  1  0  0  0  0
 12 10  1  0  0  0  0
 13  2  2  0  0  0  0
 14 13  1  0  0  0  0
 15 18  1  0  0  0  0
 15  9  2  0  0  0  0
 16  3  1  0  0  0  0
 16 12  2  0  0  0  0
 18  6  1  0  0  0  0
 19 20  1  0  0  0  0
 19 24  1  0  0  0  0
 21 24  2  0  0  0  0
 21 14  1  0  0  0  0
 22 19  2  0  0  0  0
 23 21  1  0  0  0  0
 24 25  1  0  0  0  0
 26 22  1  0  0  0  0
 26 23  2  0  0  0  0
 27 28  1  0  0  0  0
 28 26  1  0  0  0  0
 29 30  2  0  0  0  0
 29 31  1  0  0  0  0
 32 31  1  0  0  0  0
M  END
>  <MODEL>
2

>  <REMARK>
 VINA RESULT:     -10.5      2.461      6.805
  Name = 
  4 active torsions:
  status: ('A' for Active; 'I' for Inactive)
    1  A    between atoms: C_13  and  C_18
    2  A    between atoms: C_14  and  N_29
    3  A    between atoms: O_15  and  C_26
    4  A    between atoms: C_16  and  C_27
                            x       y       z     vdW  Elec       q    Type
                         _______ _______ _______ _____ _____    ______ ____

>  <TORSDO>
F 4

$$$$
=
 OpenBabel10262421123D

 32 36  0  0  1  0  0  0  0  0999 V2000
  188.3930  177.7090  141.0460 C   0  0  0  0  0  0  0  0  0  0  0  0
  189.6960  177.1600  143.4820 C   0  0  0  0  0  0  0  0  0  0  0  0
  187.8210  178.2410  139.7510 C   0  0  0  0  0  2  0  0  0  0  0  0
  187.7480  178.0270  142.2680 C   0  0  0  0  0  0  0  0  0  0  0  0
  187.8810  178.1710  144.7230 C   0  0  0  0  0  3  0  0  0  0  0  0
  192.0460  175.6520  146.1200 C   0  0  0  0  0  2  0  0  0  0  0  0
  188.4270  177.7940  143.4900 C   0  0  0  0  0  0  0  0  0  0  0  0
  190.3210  176.6660  147.2110 C   0  0  0  0  0  2  0  0  0  0  0  0
  189.7430  177.2050  145.9180 C   0  0  0  0  0  0  0  0  0  0  0  0
  186.4090  178.7960  142.1950 C   0  0  1  0  0  3  0  0  0  0  0  0
  188.5140  177.8520  145.9240 C   0  0  0  0  0  3  0  0  0  0  0  0
  185.6640  178.5920  140.8970 C   0  0  0  0  0  3  0  0  0  0  0  0
  190.2790  176.8210  142.2610 C   0  0  0  0  0  3  0  0  0  0  0  0
  189.6500  177.0620  141.0440 C   0  0  0  0  0  0  0  0  0  0  0  0
  190.3580  176.8730  144.6940 C   0  0  0  0  0  0  0  0  0  0  0  0
  186.3200  178.3180  139.7690 C   0  0  0  0  0  3  0  0  0  0  0  0
  191.7270  176.6040  147.1200 O   0  0  0  0  0  0  0  0  0  0  0  0
  191.7340  176.2320  144.7210 C   0  0  0  0  0  2  0  0  0  0  0  0
  192.3300  176.6010  138.3360 C   0  0  0  0  0  0  0  0  0  0  0  0
  193.6760  176.8710  138.0970 O   0  0  0  0  0  1  0  0  0  0  0  0
  190.3540  176.6940  139.7750 C   0  0  0  0  0  0  0  0  0  0  0  0
  191.5790  176.0040  137.3240 C   0  0  0  0  0  3  0  0  0  0  0  0
  189.6130  176.1270  138.7290 C   0  0  0  0  0  3  0  0  0  0  0  0
  191.7250  176.9640  139.5530 C   0  0  0  0  0  0  0  0  0  0  0  0
  192.5590  177.6570  140.5880 C   0  0  0  0  0  1  0  0  0  0  0  0
  190.2060  175.7840  137.5060 C   0  0  0  0  0  0  0  0  0  0  0  0
  187.9900  175.0330  136.6660 C   0  0  0  0  0  1  0  0  0  0  0  0
  189.3880  175.2780  136.4830 O   0  0  0  0  0  0  0  0  0  0  0  0
  184.5130  179.3250  143.5780 C   0  0  0  0  0  3  0  0  0  0  0  0
  185.5210  178.5590  143.3210 N   0  0  0  0  0  0  0  0  0  0  0  0
  183.5830  178.9950  144.7090 C   0  0  0  0  0  2  0  0  0  0  0  0
  184.3660  178.6300  145.9590 C   0  0  0  0  0  1  0  0  0  0  0  0
  1  4  1  0  0  0  0
  2  7  1  0  0  0  0
  2 15  1  0  0  0  0
  3 16  1  0  0  0  0
  3  1  1  0  0  0  0
  4  7  2  0  0  0  0
  5 11  2  0  0  0  0
  6 17  1  0  0  0  0
  7  5  1  0  0  0  0
  9 11  1  0  0  0  0
  9  8  1  0  0  0  0
 10  4  1  0  0  0  0
 10 30  1  1  0  0  0
 12 10  1  0  0  0  0
 13  2  2  0  0  0  0
 14  1  2  0  0  0  0
 14 13  1  0  0  0  0
 15 18  1  0  0  0  0
 15  9  2  0  0  0  0
 16 12  2  0  0  0  0
 17  8  1  0  0  0  0
 18  6  1  0  0  0  0
 19 24  1  0  0  0  0
 20 19  1  0  0  0  0
 21 14  1  0  0  0  0
 22 26  1  0  0  0  0
 22 19  2  0  0  0  0
 23 21  1  0  0  0  0
 24 21  2  0  0  0  0
 24 25  1  0  0  0  0
 26 23  2  0  0  0  0
 28 27  1  0  0  0  0
 28 26  1  0  0  0  0
 29 31  1  0  0  0  0
 30 29  2  0  0  0  0
 31 32  1  0  0  0  0
M  END
>  <MODEL>
3

>  <REMARK>
 VINA RESULT:     -10.4      2.925      7.658
  Name = 
  4 active torsions:
  status: ('A' for Active; 'I' for Inactive)
    1  A    between atoms: C_13  and  C_18
    2  A    between atoms: C_14  and  N_29
    3  A    between atoms: O_15  and  C_26
    4  A    between atoms: C_16  and  C_27
                            x       y       z     vdW  Elec       q    Type
                         _______ _______ _______ _____ _____    ______ ____

>  <TORSDO>
F 4

$$$$
=
 OpenBabel10262421123D

 32 36  0  0  1  0  0  0  0  0999 V2000
  185.9130  178.2560  144.1760 C   0  0  0  0  0  0  0  0  0  0  0  0
  187.7480  177.9180  142.0670 C   0  0  0  0  0  0  0  0  0  0  0  0
  184.9890  178.6990  145.2890 C   0  0  0  0  0  2  0  0  0  0  0  0
  187.2750  177.9960  144.4730 C   0  0  0  0  0  0  0  0  0  0  0  0
  189.5750  177.7100  143.6410 C   0  0  0  0  0  3  0  0  0  0  0  0
  189.2650  177.1980  138.6120 C   0  0  0  0  0  2  0  0  0  0  0  0
  188.2030  177.8750  143.4100 C   0  0  0  0  0  0  0  0  0  0  0  0
  190.9360  177.0650  140.1560 C   0  0  0  0  0  2  0  0  0  0  0  0
  190.0170  177.5110  141.2760 C   0  0  0  0  0  0  0  0  0  0  0  0
  187.7110  178.0530  145.9550 C   0  0  1  0  0  3  0  0  0  0  0  0
  190.4670  177.4970  142.5890 C   0  0  0  0  0  3  0  0  0  0  0  0
  186.5880  177.7800  146.9270 C   0  0  0  0  0  3  0  0  0  0  0  0
  186.3930  178.1290  141.8150 C   0  0  0  0  0  3  0  0  0  0  0  0
  185.4610  178.2800  142.8380 C   0  0  0  0  0  0  0  0  0  0  0  0
  188.6540  177.7440  141.0000 C   0  0  0  0  0  0  0  0  0  0  0  0
  185.3250  178.0640  146.6090 C   0  0  0  0  0  3  0  0  0  0  0  0
  190.5550  177.6810  138.9470 O   0  0  0  0  0  0  0  0  0  0  0  0
  188.2080  177.8240  139.5510 C   0  0  0  0  0  2  0  0  0  0  0  0
  182.2340  179.0030  140.8890 C   0  0  0  0  0  0  0  0  0  0  0  0
  181.7940  179.2440  139.5890 O   0  0  0  0  0  1  0  0  0  0  0  0
  184.0280  178.5330  142.4850 C   0  0  0  0  0  0  0  0  0  0  0  0
  181.3070  179.0500  141.9290 C   0  0  0  0  0  3  0  0  0  0  0  0
  183.0820  178.6220  143.5150 C   0  0  0  0  0  3  0  0  0  0  0  0
  183.5950  178.7630  141.1580 C   0  0  0  0  0  0  0  0  0  0  0  0
  184.5640  178.7810  140.0150 C   0  0  0  0  0  1  0  0  0  0  0  0
  181.7300  178.8830  143.2550 C   0  0  0  0  0  0  0  0  0  0  0  0
  179.4770  178.6280  144.2770 C   0  0  0  0  0  1  0  0  0  0  0  0
  180.8520  179.0200  144.3430 O   0  0  0  0  0  0  0  0  0  0  0  0
  189.6910  177.5210  147.2140 C   0  0  0  0  0  3  0  0  0  0  0  0
  188.8590  177.2190  146.2730 N   0  0  0  0  0  0  0  0  0  0  0  0
  190.8180  176.5890  147.5510 C   0  0  0  0  0  2  0  0  0  0  0  0
  191.6950  176.3440  146.3360 C   0  0  0  0  0  1  0  0  0  0  0  0
  1  4  1  0  0  0  0
  1  3  1  0  0  0  0
  2  7  1  0  0  0  0
  3 16  1  0  0  0  0
  4 10  1  0  0  0  0
  6 17  1  0  0  0  0
  6 18  1  0  0  0  0
  7  5  1  0  0  0  0
  7  4  2  0  0  0  0
  8  9  1  0  0  0  0
  9 11  1  0  0  0  0
 10 30  1  6  0  0  0
 10 12  1  0  0  0  0
 11  5  2  0  0  0  0
 13  2  2  0  0  0  0
 13 14  1  0  0  0  0
 14  1  2  0  0  0  0
 15  9  2  0  0  0  0
 15  2  1  0  0  0  0
 16 12  2  0  0  0  0
 17  8  1  0  0  0  0
 18 15  1  0  0  0  0
 19 24  2  0  0  0  0
 19 22  1  0  0  0  0
 20 19  1  0  0  0  0
 21 14  1  0  0  0  0
 21 23  2  0  0  0  0
 22 26  2  0  0  0  0
 24 21  1  0  0  0  0
 25 24  1  0  0  0  0
 26 23  1  0  0  0  0
 26 28  1  0  0  0  0
 27 28  1  0  0  0  0
 29 31  1  0  0  0  0
 30 29  2  0  0  0  0
 32 31  1  0  0  0  0
M  END
>  <MODEL>
4

>  <REMARK>
 VINA RESULT:     -10.3      2.643      7.821
  Name = 
  4 active torsions:
  status: ('A' for Active; 'I' for Inactive)
    1  A    between atoms: C_13  and  C_18
    2  A    between atoms: C_14  and  N_29
    3  A    between atoms: O_15  and  C_26
    4  A    between atoms: C_16  and  C_27
                            x       y       z     vdW  Elec       q    Type
                         _______ _______ _______ _____ _____    ______ ____

>  <TORSDO>
F 4

$$$$
=
 OpenBabel10262421123D

 32 36  0  0  1  0  0  0  0  0999 V2000
  189.2160  177.4810  142.2730 C   0  0  0  0  0  0  0  0  0  0  0  0
  186.5390  178.0480  142.9380 C   0  0  0  0  0  0  0  0  0  0  0  0
  190.5730  176.9200  141.9120 C   0  0  0  0  0  2  0  0  0  0  0  0
  188.8350  177.5410  143.6380 C   0  0  0  0  0  0  0  0  0  0  0  0
  187.0230  177.7570  145.2910 C   0  0  0  0  0  3  0  0  0  0  0  0
  182.9060  179.2860  142.7700 C   0  0  0  0  0  2  0  0  0  0  0  0
  187.4770  177.7780  143.9670 C   0  0  0  0  0  0  0  0  0  0  0  0
  183.4320  178.9440  144.9610 C   0  0  0  0  0  2  0  0  0  0  0  0
  184.7930  178.3780  144.6060 C   0  0  0  0  0  0  0  0  0  0  0  0
  189.8900  177.1480  144.6960 C   0  0  1  0  0  3  0  0  0  0  0  0
  185.7060  178.0850  145.6110 C   0  0  0  0  0  3  0  0  0  0  0  0
  191.3140  177.3310  144.2290 C   0  0  0  0  0  3  0  0  0  0  0  0
  186.9610  178.0260  141.6090 C   0  0  0  0  0  3  0  0  0  0  0  0
  188.2820  177.7680  141.2530 C   0  0  0  0  0  0  0  0  0  0  0  0
  185.1960  178.3400  143.2560 C   0  0  0  0  0  0  0  0  0  0  0  0
  191.6260  177.2430  142.9350 C   0  0  0  0  0  3  0  0  0  0  0  0
  182.5000  178.6210  143.9540 O   0  0  0  0  0  0  0  0  0  0  0  0
  184.1570  178.5940  142.1790 C   0  0  0  0  0  2  0  0  0  0  0  0
  188.1330  177.9760  137.4230 C   0  0  0  0  0  0  0  0  0  0  0  0
  187.2350  178.2560  136.3950 O   0  0  0  0  0  1  0  0  0  0  0  0
  188.6500  177.7340  139.8020 C   0  0  0  0  0  0  0  0  0  0  0  0
  189.4310  177.5910  137.0900 C   0  0  0  0  0  3  0  0  0  0  0  0
  189.9370  177.3140  139.4400 C   0  0  0  0  0  3  0  0  0  0  0  0
  187.7300  178.0340  138.7700 C   0  0  0  0  0  0  0  0  0  0  0  0
  186.3070  178.3940  139.0770 C   0  0  0  0  0  1  0  0  0  0  0  0
  190.3370  177.2340  138.0990 C   0  0  0  0  0  0  0  0  0  0  0  0
  192.6770  176.7360  138.7790 C   0  0  0  0  0  1  0  0  0  0  0  0
  191.6220  176.7450  137.8110 O   0  0  0  0  0  0  0  0  0  0  0  0
  189.9160  177.1600  147.1020 C   0  0  0  0  0  3  0  0  0  0  0  0
  189.7050  177.7840  145.9900 N   0  0  0  0  0  0  0  0  0  0  0  0
  189.7810  177.8840  148.4100 C   0  0  0  0  0  2  0  0  0  0  0  0
  188.3190  178.1270  148.7420 C   0  0  0  0  0  1  0  0  0  0  0  0
  1  4  1  0  0  0  0
  2 15  1  0  0  0  0
  2  7  1  0  0  0  0
  3  1  1  0  0  0  0
  3 16  1  0  0  0  0
  4  7  2  0  0  0  0
  4 10  1  0  0  0  0
  5 11  2  0  0  0  0
  6 17  1  0  0  0  0
  7  5  1  0  0  0  0
  9  8  1  0  0  0  0
  9 11  1  0  0  0  0
 10 30  1  1  0  0  0
 12 10  1  0  0  0  0
 13  2  2  0  0  0  0
 14 13  1  0  0  0  0
 14  1  2  0  0  0  0
 15  9  2  0  0  0  0
 16 12  2  0  0  0  0
 17  8  1  0  0  0  0
 18  6  1  0  0  0  0
 18 15  1  0  0  0  0
 19 24  1  0  0  0  0
 20 19  1  0  0  0  0
 21 14  1  0  0  0  0
 22 19  2  0  0  0  0
 22 26  1  0  0  0  0
 23 21  1  0  0  0  0
 24 25  1  0  0  0  0
 24 21  2  0  0  0  0
 26 23  2  0  0  0  0
 28 26  1  0  0  0  0
 28 27  1  0  0  0  0
 29 31  1  0  0  0  0
 30 29  2  0  0  0  0
 31 32  1  0  0  0  0
M  END
>  <MODEL>
5

>  <REMARK>
 VINA RESULT:     -10.3      2.844      6.526
  Name = 
  4 active torsions:
  status: ('A' for Active; 'I' for Inactive)
    1  A    between atoms: C_13  and  C_18
    2  A    between atoms: C_14  and  N_29
    3  A    between atoms: O_15  and  C_26
    4  A    between atoms: C_16  and  C_27
                            x       y       z     vdW  Elec       q    Type
                         _______ _______ _______ _____ _____    ______ ____

>  <TORSDO>
F 4

$$$$
=
 OpenBabel10262421123D

 32 36  0  0  1  0  0  0  0  0999 V2000
  186.2880  177.9670  144.3840 C   0  0  0  0  0  0  0  0  0  0  0  0
  186.6040  178.1550  141.5930 C   0  0  0  0  0  0  0  0  0  0  0  0
  186.0670  177.6060  145.8370 C   0  0  0  0  0  2  0  0  0  0  0  0
  185.1690  178.2980  143.5780 C   0  0  0  0  0  0  0  0  0  0  0  0
  184.2370  178.5730  141.3150 C   0  0  0  0  0  3  0  0  0  0  0  0
  188.1510  178.5810  138.1020 C   0  0  0  0  0  2  0  0  0  0  0  0
  185.3230  178.3430  142.1700 C   0  0  0  0  0  0  0  0  0  0  0  0
  185.9040  178.9180  137.9220 C   0  0  0  0  0  2  0  0  0  0  0  0
  185.6750  178.5540  139.3760 C   0  0  0  0  0  0  0  0  0  0  0  0
  183.7910  178.3990  144.2670 C   0  0  1  0  0  3  0  0  0  0  0  0
  184.4150  178.7100  139.9390 C   0  0  0  0  0  3  0  0  0  0  0  0
  183.8730  178.7300  145.7390 C   0  0  0  0  0  3  0  0  0  0  0  0
  187.6900  177.8770  142.4230 C   0  0  0  0  0  3  0  0  0  0  0  0
  187.5660  177.7980  143.8070 C   0  0  0  0  0  0  0  0  0  0  0  0
  186.7800  178.2530  140.1970 C   0  0  0  0  0  0  0  0  0  0  0  0
  184.9370  178.3770  146.4600 C   0  0  0  0  0  3  0  0  0  0  0  0
  186.9850  178.1750  137.4060 O   0  0  0  0  0  0  0  0  0  0  0  0
  188.1290  178.0180  139.5420 C   0  0  0  0  0  2  0  0  0  0  0  0
  190.9680  176.4320  144.9440 C   0  0  0  0  0  0  0  0  0  0  0  0
  192.0430  175.6850  144.4640 O   0  0  0  0  0  1  0  0  0  0  0  0
  188.7740  177.4670  144.6270 C   0  0  0  0  0  0  0  0  0  0  0  0
  190.9870  176.8520  146.2730 C   0  0  0  0  0  3  0  0  0  0  0  0
  188.8010  177.8460  145.9770 C   0  0  0  0  0  3  0  0  0  0  0  0
  189.8630  176.7190  144.1210 C   0  0  0  0  0  0  0  0  0  0  0  0
  189.8620  176.1950  142.7170 C   0  0  0  0  0  1  0  0  0  0  0  0
  189.8900  177.5440  146.8060 C   0  0  0  0  0  0  0  0  0  0  0  0
  188.5750  178.1430  148.8300 C   0  0  0  0  0  1  0  0  0  0  0  0
  189.8180  177.9010  148.1630 O   0  0  0  0  0  0  0  0  0  0  0  0
  181.6060  179.0030  143.4600 C   0  0  0  0  0  3  0  0  0  0  0  0
  182.8560  179.2960  143.6070 N   0  0  0  0  0  0  0  0  0  0  0  0
  180.6680  179.9950  142.8360 C   0  0  0  0  0  2  0  0  0  0  0  0
  180.4420  179.6730  141.3690 C   0  0  0  0  0  1  0  0  0  0  0  0
  1  3  1  0  0  0  0
  2  7  1  0  0  0  0
  2 13  1  0  0  0  0
  3 16  1  0  0  0  0
  4 10  1  0  0  0  0
  4  1  2  0  0  0  0
  5  7  2  0  0  0  0
  6 18  1  0  0  0  0
  7  4  1  0  0  0  0
  8  9  1  0  0  0  0
  9 11  2  0  0  0  0
  9 15  1  0  0  0  0
 10 30  1  6  0  0  0
 10 12  1  0  0  0  0
 11  5  1  0  0  0  0
 12 16  2  0  0  0  0
 13 14  2  0  0  0  0
 14  1  1  0  0  0  0
 14 21  1  0  0  0  0
 15  2  2  0  0  0  0
 17  8  1  0  0  0  0
 17  6  1  0  0  0  0
 18 15  1  0  0  0  0
 19 22  1  0  0  0  0
 20 19  1  0  0  0  0
 21 23  2  0  0  0  0
 22 26  2  0  0  0  0
 23 26  1  0  0  0  0
 24 21  1  0  0  0  0
 24 19  2  0  0  0  0
 25 24  1  0  0  0  0
 26 28  1  0  0  0  0
 28 27  1  0  0  0  0
 29 30  2  0  0  0  0
 31 29  1  0  0  0  0
 32 31  1  0  0  0  0
M  END
>  <MODEL>
6

>  <REMARK>
 VINA RESULT:     -10.0      2.249      5.163
  Name = 
  4 active torsions:
  status: ('A' for Active; 'I' for Inactive)
    1  A    between atoms: C_13  and  C_18
    2  A    between atoms: C_14  and  N_29
    3  A    between atoms: O_15  and  C_26
    4  A    between atoms: C_16  and  C_27
                            x       y       z     vdW  Elec       q    Type
                         _______ _______ _______ _____ _____    ______ ____

>  <TORSDO>
F 4

$$$$
=
 OpenBabel10262421123D

 32 36  0  0  1  0  0  0  0  0999 V2000
  187.5020  177.9410  143.4690 C   0  0  0  0  0  0  0  0  0  0  0  0
  189.0490  177.5250  141.1530 C   0  0  0  0  0  0  0  0  0  0  0  0
  186.6050  177.9030  144.6870 C   0  0  0  0  0  2  0  0  0  0  0  0
  186.9260  178.1790  142.1950 C   0  0  0  0  0  0  0  0  0  0  0  0
  187.1520  178.0500  139.7470 C   0  0  0  0  0  3  0  0  0  0  0  0
  192.0300  177.1080  138.7650 C   0  0  0  0  0  2  0  0  0  0  0  0
  187.6930  177.9220  141.0320 C   0  0  0  0  0  0  0  0  0  0  0  0
  190.1820  177.5640  137.5120 C   0  0  0  0  0  2  0  0  0  0  0  0
  189.2760  177.5260  138.7270 C   0  0  0  0  0  0  0  0  0  0  0  0
  185.4210  178.5210  142.1400 C   0  0  1  0  0  3  0  0  0  0  0  0
  187.9400  177.8860  138.6080 C   0  0  0  0  0  3  0  0  0  0  0  0
  184.8930  179.1410  143.4120 C   0  0  0  0  0  3  0  0  0  0  0  0
  189.5940  177.3460  142.4250 C   0  0  0  0  0  3  0  0  0  0  0  0
  188.8590  177.5620  143.5860 C   0  0  0  0  0  0  0  0  0  0  0  0
  189.8390  177.3200  140.0030 C   0  0  0  0  0  0  0  0  0  0  0  0
  185.4560  178.8670  144.5900 C   0  0  0  0  0  3  0  0  0  0  0  0
  191.2450  176.6540  137.6760 O   0  0  0  0  0  0  0  0  0  0  0  0
  191.2820  176.8570  140.0950 C   0  0  0  0  0  2  0  0  0  0  0  0
  191.2600  176.3770  146.3350 C   0  0  0  0  0  0  0  0  0  0  0  0
  192.4310  175.6370  146.4950 O   0  0  0  0  0  1  0  0  0  0  0  0
  189.5070  177.3200  144.9140 C   0  0  0  0  0  0  0  0  0  0  0  0
  190.6250  176.8760  147.4710 C   0  0  0  0  0  3  0  0  0  0  0  0
  188.8690  177.7800  146.0730 C   0  0  0  0  0  3  0  0  0  0  0  0
  190.7030  176.5780  145.0590 C   0  0  0  0  0  0  0  0  0  0  0  0
  191.3900  175.9700  143.8730 C   0  0  0  0  0  1  0  0  0  0  0  0
  189.4090  177.5640  147.3490 C   0  0  0  0  0  0  0  0  0  0  0  0
  187.3320  178.4700  148.3730 C   0  0  0  0  0  1  0  0  0  0  0  0
  188.6800  178.0000  148.4680 O   0  0  0  0  0  0  0  0  0  0  0  0
  184.0520  179.0000  140.2190 C   0  0  0  0  0  3  0  0  0  0  0  0
  185.0330  179.3280  140.9950 N   0  0  0  0  0  0  0  0  0  0  0  0
  183.6460  179.9060  139.0940 C   0  0  0  0  0  2  0  0  0  0  0  0
  182.1620  179.7660  138.8000 C   0  0  0  0  0  1  0  0  0  0  0  0
  1 14  1  0  0  0  0
  1  3  1  0  0  0  0
  2 13  1  0  0  0  0
  4  1  2  0  0  0  0
  5  7  2  0  0  0  0
  6 18  1  0  0  0  0
  7  2  1  0  0  0  0
  7  4  1  0  0  0  0
  8 17  1  0  0  0  0
  8  9  1  0  0  0  0
  9 15  1  0  0  0  0
 10 30  1  6  0  0  0
 10  4  1  0  0  0  0
 10 12  1  0  0  0  0
 11  9  2  0  0  0  0
 11  5  1  0  0  0  0
 12 16  2  0  0  0  0
 13 14  2  0  0  0  0
 14 21  1  0  0  0  0
 15 18  1  0  0  0  0
 15  2  2  0  0  0  0
 16  3  1  0  0  0  0
 17  6  1  0  0  0  0
 19 20  1  0  0  0  0
 19 22  1  0  0  0  0
 21 24  1  0  0  0  0
 21 23  2  0  0  0  0
 23 26  1  0  0  0  0
 24 19  2  0  0  0  0
 25 24  1  0  0  0  0
 26 22  2  0  0  0  0
 26 28  1  0  0  0  0
 27 28  1  0  0  0  0
 29 30  2  0  0  0  0
 31 29  1  0  0  0  0
 32 31  1  0  0  0  0
M  END
>  <MODEL>
7

>  <REMARK>
 VINA RESULT:      -9.9      2.217      5.393
  Name = 
  4 active torsions:
  status: ('A' for Active; 'I' for Inactive)
    1  A    between atoms: C_13  and  C_18
    2  A    between atoms: C_14  and  N_29
    3  A    between atoms: O_15  and  C_26
    4  A    between atoms: C_16  and  C_27
                            x       y       z     vdW  Elec       q    Type
                         _______ _______ _______ _____ _____    ______ ____

>  <TORSDO>
F 4

$$$$
=
 OpenBabel10262421123D

 32 36  0  0  1  0  0  0  0  0999 V2000
  184.2640  178.7500  142.1390 C   0  0  0  0  0  0  0  0  0  0  0  0
  186.7560  178.2750  140.9170 C   0  0  0  0  0  0  0  0  0  0  0  0
  182.9930  179.2660  142.7770 C   0  0  0  0  0  2  0  0  0  0  0  0
  185.4090  178.5430  142.9500 C   0  0  0  0  0  0  0  0  0  0  0  0
  187.8480  178.2360  143.0760 C   0  0  0  0  0  3  0  0  0  0  0  0
  189.4580  177.3010  138.3660 C   0  0  0  0  0  2  0  0  0  0  0  0
  186.6690  178.3530  142.3300 C   0  0  0  0  0  0  0  0  0  0  0  0
  190.4190  177.3300  140.4330 C   0  0  0  0  0  2  0  0  0  0  0  0
  189.1500  177.8490  141.0790 C   0  0  0  0  0  0  0  0  0  0  0  0
  185.2520  178.7330  144.4750 C   0  0  1  0  0  3  0  0  0  0  0  0
  189.0690  177.9540  142.4620 C   0  0  0  0  0  3  0  0  0  0  0  0
  183.8420  178.5190  144.9700 C   0  0  0  0  0  3  0  0  0  0  0  0
  185.6000  178.4380  140.1540 C   0  0  0  0  0  3  0  0  0  0  0  0
  184.3520  178.6540  140.7320 C   0  0  0  0  0  0  0  0  0  0  0  0
  187.9960  178.0310  140.2910 C   0  0  0  0  0  0  0  0  0  0  0  0
  182.7960  178.7500  144.1760 C   0  0  0  0  0  3  0  0  0  0  0  0
  190.5310  177.8360  139.1220 O   0  0  0  0  0  0  0  0  0  0  0  0
  188.1320  177.9810  138.7790 C   0  0  0  0  0  2  0  0  0  0  0  0
  181.2370  178.0210  138.5820 C   0  0  0  0  0  0  0  0  0  0  0  0
  180.4220  176.9760  138.1500 O   0  0  0  0  0  1  0  0  0  0  0  0
  183.1630  178.8480  139.8440 C   0  0  0  0  0  0  0  0  0  0  0  0
  180.9690  179.3100  138.1240 C   0  0  0  0  0  3  0  0  0  0  0  0
  182.8940  180.1280  139.3400 C   0  0  0  0  0  3  0  0  0  0  0  0
  182.3370  177.7780  139.4250 C   0  0  0  0  0  0  0  0  0  0  0  0
  182.6200  176.3660  139.8430 C   0  0  0  0  0  1  0  0  0  0  0  0
  181.8120  180.3710  138.4820 C   0  0  0  0  0  0  0  0  0  0  0  0
  180.7380  181.9590  136.8990 C   0  0  0  0  0  1  0  0  0  0  0  0
  181.6430  181.6680  137.9690 O   0  0  0  0  0  0  0  0  0  0  0  0
  186.6550  178.3780  146.3980 C   0  0  0  0  0  3  0  0  0  0  0  0
  186.1830  177.9510  145.2730 N   0  0  0  0  0  0  0  0  0  0  0  0
  187.5560  177.5020  147.2190 C   0  0  0  0  0  2  0  0  0  0  0  0
  188.9440  177.4340  146.6060 C   0  0  0  0  0  1  0  0  0  0  0  0
  1  3  1  0  0  0  0
  1  4  1  0  0  0  0
  2  7  1  0  0  0  0
  3 16  1  0  0  0  0
  4 10  1  0  0  0  0
  6 18  1  0  0  0  0
  6 17  1  0  0  0  0
  7  4  2  0  0  0  0
  7  5  1  0  0  0  0
  8  9  1  0  0  0  0
  9 11  1  0  0  0  0
 10 12  1  0  0  0  0
 10 30  1  1  0  0  0
 11  5  2  0  0  0  0
 13 14  1  0  0  0  0
 13  2  2  0  0  0  0
 14  1  2  0  0  0  0
 15  2  1  0  0  0  0
 15  9  2  0  0  0  0
 16 12  2  0  0  0  0
 17  8  1  0  0  0  0
 18 15  1  0  0  0  0
 19 24  1  0  0  0  0
 20 19  1  0  0  0  0
 21 14  1  0  0  0  0
 22 26  1  0  0  0  0
 22 19  2  0  0  0  0
 23 21  1  0  0  0  0
 24 25  1  0  0  0  0
 24 21  2  0  0  0  0
 26 23  2  0  0  0  0
 27 28  1  0  0  0  0
 28 26  1  0  0  0  0
 29 31  1  0  0  0  0
 30 29  2  0  0  0  0
 32 31  1  0  0  0  0
M  END
>  <MODEL>
8

>  <REMARK>
 VINA RESULT:      -9.9      2.979      8.671
  Name = 
  4 active torsions:
  status: ('A' for Active; 'I' for Inactive)
    1  A    between atoms: C_13  and  C_18
    2  A    between atoms: C_14  and  N_29
    3  A    between atoms: O_15  and  C_26
    4  A    between atoms: C_16  and  C_27
                            x       y       z     vdW  Elec       q    Type
                         _______ _______ _______ _____ _____    ______ ____

>  <TORSDO>
F 4

$$$$
=
 OpenBabel10262421123D

 32 36  0  0  1  0  0  0  0  0999 V2000
  185.7920  178.4360  139.5020 C   0  0  0  0  0  0  0  0  0  0  0  0
  185.7110  178.3220  142.3150 C   0  0  0  0  0  0  0  0  0  0  0  0
  185.7630  178.2380  138.0030 C   0  0  0  0  0  2  0  0  0  0  0  0
  186.9690  178.1000  140.2200 C   0  0  0  0  0  0  0  0  0  0  0  0
  188.0130  177.5790  142.3880 C   0  0  0  0  0  3  0  0  0  0  0  0
  184.6780  178.8680  145.9750 C   0  0  0  0  0  2  0  0  0  0  0  0
  186.9100  177.9960  141.6320 C   0  0  0  0  0  0  0  0  0  0  0  0
  186.8320  178.1220  145.9550 C   0  0  0  0  0  2  0  0  0  0  0  0
  186.8090  177.9180  144.4530 C   0  0  0  0  0  0  0  0  0  0  0  0
  188.2090  177.6700  139.4050 C   0  0  1  0  0  3  0  0  0  0  0  0
  187.9750  177.5710  143.7820 C   0  0  0  0  0  3  0  0  0  0  0  0
  188.2300  178.2210  137.9990 C   0  0  0  0  0  3  0  0  0  0  0  0
  184.5880  178.6930  141.5770 C   0  0  0  0  0  3  0  0  0  0  0  0
  184.6050  178.7770  140.1880 C   0  0  0  0  0  0  0  0  0  0  0  0
  185.6570  178.2760  143.7240 C   0  0  0  0  0  0  0  0  0  0  0  0
  187.0950  178.5000  137.3570 C   0  0  0  0  0  3  0  0  0  0  0  0
  185.5520  177.8780  146.4920 O   0  0  0  0  0  0  0  0  0  0  0  0
  184.3790  178.5800  144.4850 C   0  0  0  0  0  2  0  0  0  0  0  0
  181.2170  178.6220  138.3900 C   0  0  0  0  0  0  0  0  0  0  0  0
  180.2550  177.6990  137.9850 O   0  0  0  0  0  1  0  0  0  0  0  0
  183.3490  179.1550  139.4660 C   0  0  0  0  0  0  0  0  0  0  0  0
  181.0340  179.9650  138.0630 C   0  0  0  0  0  3  0  0  0  0  0  0
  183.1580  180.4930  139.0930 C   0  0  0  0  0  3  0  0  0  0  0  0
  182.3750  178.2070  139.0740 C   0  0  0  0  0  0  0  0  0  0  0  0
  182.5560  176.7450  139.3510 C   0  0  0  0  0  1  0  0  0  0  0  0
  182.0180  180.9090  138.3930 C   0  0  0  0  0  0  0  0  0  0  0  0
  180.8070  182.7680  137.2690 C   0  0  0  0  0  1  0  0  0  0  0  0
  181.9260  182.2540  137.9990 O   0  0  0  0  0  0  0  0  0  0  0  0
  190.4930  177.1450  139.9520 C   0  0  0  0  0  3  0  0  0  0  0  0
  189.4780  177.9370  140.0620 N   0  0  0  0  0  0  0  0  0  0  0  0
  191.8030  177.5030  140.5910 C   0  0  0  0  0  2  0  0  0  0  0  0
  191.6800  177.5030  142.1050 C   0  0  0  0  0  1  0  0  0  0  0  0
  1 14  2  0  0  0  0
  1  4  1  0  0  0  0
  2 15  1  0  0  0  0
  3  1  1  0  0  0  0
  4  7  2  0  0  0  0
  5 11  2  0  0  0  0
  6 17  1  0  0  0  0
  7  2  1  0  0  0  0
  7  5  1  0  0  0  0
  8 17  1  0  0  0  0
  9  8  1  0  0  0  0
 10 30  1  1  0  0  0
 10  4  1  0  0  0  0
 11  9  1  0  0  0  0
 12 10  1  0  0  0  0
 13  2  2  0  0  0  0
 14 13  1  0  0  0  0
 15  9  2  0  0  0  0
 15 18  1  0  0  0  0
 16 12  2  0  0  0  0
 16  3  1  0  0  0  0
 18  6  1  0  0  0  0
 19 24  1  0  0  0  0
 20 19  1  0  0  0  0
 21 14  1  0  0  0  0
 22 19  2  0  0  0  0
 22 26  1  0  0  0  0
 23 21  1  0  0  0  0
 24 25  1  0  0  0  0
 24 21  2  0  0  0  0
 26 23  2  0  0  0  0
 27 28  1  0  0  0  0
 28 26  1  0  0  0  0
 29 30  2  0  0  0  0
 29 31  1  0  0  0  0
 31 32  1  0  0  0  0
M  END
>  <MODEL>
9

>  <REMARK>
 VINA RESULT:      -9.6      2.518      7.536
  Name = 
  4 active torsions:
  status: ('A' for Active; 'I' for Inactive)
    1  A    between atoms: C_13  and  C_18
    2  A    between atoms: C_14  and  N_29
    3  A    between atoms: O_15  and  C_26
    4  A    between atoms: C_16  and  C_27
                            x       y       z     vdW  Elec       q    Type
                         _______ _______ _______ _____ _____    ______ ____

>  <TORSDO>
F 4

$$$$
