=
 OpenBabel10262420533D

 28 32  0  0  1  0  0  0  0  0999 V2000
  189.5660  176.8230  142.4340 N   0  0  0  0  0  0  0  0  0  0  0  0
  184.4920  178.3430  142.4970 C   0  0  0  0  0  2  0  0  0  0  0  0
  188.5990  177.7810  147.0280 O   0  0  0  0  0  0  0  0  0  0  0  0
  184.1230  178.6700  144.9900 C   0  0  0  0  0  0  0  0  0  0  0  0
  186.3440  178.0780  144.2000 C   0  0  0  0  0  0  0  0  0  0  0  0
  182.1910  178.6670  143.3760 C   0  0  1  0  0  3  0  0  0  0  0  0
  185.0010  178.3970  143.9180 C   0  0  0  0  0  0  0  0  0  0  0  0
  185.8830  178.3700  146.5550 C   0  0  0  0  0  3  0  0  0  0  0  0
  182.6960  179.0830  144.7530 C   0  0  0  0  0  2  0  0  0  0  0  0
  189.0840  177.2890  144.7590 C   0  0  0  0  0  0  0  0  0  0  0  0
  187.3100  177.8130  143.0710 C   0  0  0  0  0  2  0  0  0  0  0  0
  184.5900  178.6640  146.2650 N   0  0  0  0  0  0  0  0  0  0  0  0
  191.4390  176.8460  143.9800 C   0  0  0  0  0  2  0  0  0  0  0  0
  188.1810  177.7270  145.8390 C   0  0  0  0  0  0  0  0  0  0  0  0
  190.4490  176.7650  145.1360 C   0  0  0  0  0  2  0  0  0  0  0  0
  180.9550  179.2650  143.1350 O   0  0  0  0  0  1  0  0  0  0  0  0
  183.1850  179.1090  142.3150 C   0  0  0  0  0  2  0  0  0  0  0  0
  186.7870  178.0720  145.5310 C   0  0  0  0  0  0  0  0  0  0  0  0
  190.8240  176.1650  142.7730 C   0  0  0  0  0  2  0  0  0  0  0  0
  188.6650  177.2690  143.4720 C   0  0  0  0  0  0  0  0  0  0  0  0
  189.3080  177.1260  141.0310 C   0  0  0  0  0  2  0  0  0  0  0  0
  190.5460  176.9300  140.2220 C   0  0  0  0  0  0  0  0  0  0  0  0
  192.8540  176.6080  138.6740 C   0  0  0  0  0  0  0  0  0  0  0  0
  191.7370  177.5610  140.5980 C   0  0  0  0  0  3  0  0  0  0  0  0
  190.5090  176.1440  139.0640 C   0  0  0  0  0  3  0  0  0  0  0  0
  191.6640  175.9810  138.2920 C   0  0  0  0  0  3  0  0  0  0  0  0
  193.9990  176.4450  137.9070 O   0  0  0  0  0  1  0  0  0  0  0  0
  192.8900  177.3990  139.8260 C   0  0  0  0  0  3  0  0  0  0  0  0
  1 19  1  0  0  0  0
  1 20  1  0  0  0  0
  2  7  1  0  0  0  0
  4 12  1  0  0  0  0
  5 18  2  0  0  0  0
  6 16  1  6  0  0  0
  6  9  1  0  0  0  0
  7  5  1  0  0  0  0
  7  4  2  0  0  0  0
  9  4  1  0  0  0  0
 10 15  1  0  0  0  0
 10 14  1  0  0  0  0
 11 20  1  0  0  0  0
 11  5  1  0  0  0  0
 12  8  2  0  0  0  0
 13 15  1  0  0  0  0
 14  3  2  0  0  0  0
 17  2  1  0  0  0  0
 17  6  1  0  0  0  0
 18 14  1  0  0  0  0
 18  8  1  0  0  0  0
 19 13  1  0  0  0  0
 20 10  2  0  0  0  0
 21  1  1  0  0  0  0
 22 24  1  0  0  0  0
 22 21  1  0  0  0  0
 23 28  1  0  0  0  0
 25 22  2  0  0  0  0
 26 23  2  0  0  0  0
 26 25  1  0  0  0  0
 27 23  1  0  0  0  0
 28 24  2  0  0  0  0
M  END
>  <MODEL>
1

>  <REMARK>
 VINA RESULT:     -10.6      0.000      0.000
  Name = 
  2 active torsions:
  status: ('A' for Active; 'I' for Inactive)
    1  A    between atoms: N_1  and  C_2
    2  A    between atoms: C_2  and  C_3
                            x       y       z     vdW  Elec       q    Type
                         _______ _______ _______ _____ _____    ______ ____

>  <TORSDO>
F 2

$$$$
=
 OpenBabel10262420533D

 28 32  0  0  1  0  0  0  0  0999 V2000
  187.3520  178.2790  140.9340 N   0  0  0  0  0  0  0  0  0  0  0  0
  190.6960  176.9010  144.8040 C   0  0  0  0  0  2  0  0  0  0  0  0
  184.7270  178.3370  144.9430 O   0  0  0  0  0  0  0  0  0  0  0  0
  189.1880  177.1180  146.8380 C   0  0  0  0  0  0  0  0  0  0  0  0
  188.2410  177.4870  144.6300 C   0  0  0  0  0  0  0  0  0  0  0  0
  191.6750  176.8130  147.0860 C   0  0  1  0  0  3  0  0  0  0  0  0
  189.3450  177.1410  145.4340 C   0  0  0  0  0  0  0  0  0  0  0  0
  186.8990  177.7110  146.6270 C   0  0  0  0  0  3  0  0  0  0  0  0
  190.3070  176.6900  147.7480 C   0  0  0  0  0  2  0  0  0  0  0  0
  186.0200  178.3270  142.9550 C   0  0  0  0  0  0  0  0  0  0  0  0
  188.3740  177.4890  143.1270 C   0  0  0  0  0  2  0  0  0  0  0  0
  187.9750  177.3870  147.3870 N   0  0  0  0  0  0  0  0  0  0  0  0
  184.9510  178.5500  140.6840 C   0  0  0  0  0  2  0  0  0  0  0  0
  185.8530  178.1460  144.4080 C   0  0  0  0  0  0  0  0  0  0  0  0
  184.8640  178.8940  142.1660 C   0  0  0  0  0  2  0  0  0  0  0  0
  192.6350  176.2010  147.8890 O   0  0  0  0  0  1  0  0  0  0  0  0
  191.6440  176.1370  145.7250 C   0  0  0  0  0  2  0  0  0  0  0  0
  187.0070  177.7680  145.2350 C   0  0  0  0  0  0  0  0  0  0  0  0
  186.3150  178.9710  140.1730 C   0  0  0  0  0  2  0  0  0  0  0  0
  187.2110  178.0810  142.3590 C   0  0  0  0  0  0  0  0  0  0  0  0
  188.4640  177.6900  140.1970 C   0  0  0  0  0  2  0  0  0  0  0  0
  188.2250  177.7920  138.7280 C   0  0  0  0  0  0  0  0  0  0  0  0
  187.8180  177.9480  135.9650 C   0  0  0  0  0  0  0  0  0  0  0  0
  187.3070  176.9400  138.1060 C   0  0  0  0  0  3  0  0  0  0  0  0
  188.9460  178.7170  137.9640 C   0  0  0  0  0  3  0  0  0  0  0  0
  188.7410  178.7960  136.5840 C   0  0  0  0  0  3  0  0  0  0  0  0
  187.6150  178.0260  134.5940 O   0  0  0  0  0  1  0  0  0  0  0  0
  187.1020  177.0180  136.7260 C   0  0  0  0  0  3  0  0  0  0  0  0
  1 20  1  0  0  0  0
  2  7  1  0  0  0  0
  2 17  1  0  0  0  0
  4 12  1  0  0  0  0
  4  9  1  0  0  0  0
  5 18  2  0  0  0  0
  5  7  1  0  0  0  0
  6  9  1  0  0  0  0
  6 16  1  1  0  0  0
  7  4  2  0  0  0  0
  8 12  2  0  0  0  0
 10 14  1  0  0  0  0
 11  5  1  0  0  0  0
 13 15  1  0  0  0  0
 14  3  2  0  0  0  0
 14 18  1  0  0  0  0
 15 10  1  0  0  0  0
 17  6  1  0  0  0  0
 18  8  1  0  0  0  0
 19 13  1  0  0  0  0
 19  1  1  0  0  0  0
 20 10  2  0  0  0  0
 20 11  1  0  0  0  0
 21  1  1  0  0  0  0
 22 21  1  0  0  0  0
 23 26  2  0  0  0  0
 23 28  1  0  0  0  0
 24 22  1  0  0  0  0
 25 22  2  0  0  0  0
 26 25  1  0  0  0  0
 27 23  1  0  0  0  0
 28 24  2  0  0  0  0
M  END
>  <MODEL>
2

>  <REMARK>
 VINA RESULT:      -9.9      2.907      5.823
  Name = 
  2 active torsions:
  status: ('A' for Active; 'I' for Inactive)
    1  A    between atoms: N_1  and  C_2
    2  A    between atoms: C_2  and  C_3
                            x       y       z     vdW  Elec       q    Type
                         _______ _______ _______ _____ _____    ______ ____

>  <TORSDO>
F 2

$$$$
=
 OpenBabel10262420533D

 28 32  0  0  1  0  0  0  0  0999 V2000
  183.4880  178.6300  141.1420 N   0  0  0  0  0  0  0  0  0  0  0  0
  188.3880  177.2580  142.6140 C   0  0  0  0  0  2  0  0  0  0  0  0
  183.4960  178.9420  145.9240 O   0  0  0  0  0  0  0  0  0  0  0  0
  188.2480  177.6110  145.1270 C   0  0  0  0  0  0  0  0  0  0  0  0
  186.2500  177.9380  143.7830 C   0  0  0  0  0  0  0  0  0  0  0  0
  190.4580  177.2140  143.9880 C   0  0  1  0  0  3  0  0  0  0  0  0
  187.6080  177.5760  143.8680 C   0  0  0  0  0  0  0  0  0  0  0  0
  186.2280  178.2890  146.1740 C   0  0  0  0  0  3  0  0  0  0  0  0
  189.6760  177.1710  145.2960 C   0  0  0  0  0  2  0  0  0  0  0  0
  183.4860  178.8060  143.5560 C   0  0  0  0  0  0  0  0  0  0  0  0
  185.5350  177.8790  142.4550 C   0  0  0  0  0  2  0  0  0  0  0  0
  187.5400  177.9490  146.2360 N   0  0  0  0  0  0  0  0  0  0  0  0
  181.3480  178.9900  142.2340 C   0  0  0  0  0  2  0  0  0  0  0  0
  184.1410  178.6850  144.8710 C   0  0  0  0  0  0  0  0  0  0  0  0
  182.0940  179.3910  143.5010 C   0  0  0  0  0  2  0  0  0  0  0  0
  191.6930  176.5920  144.1650 O   0  0  0  0  0  1  0  0  0  0  0  0
  189.6750  176.4910  142.9050 C   0  0  0  0  0  2  0  0  0  0  0  0
  185.5550  178.2910  144.9490 C   0  0  0  0  0  0  0  0  0  0  0  0
  182.2140  179.3350  141.0370 C   0  0  0  0  0  2  0  0  0  0  0  0
  184.1500  178.4900  142.4190 C   0  0  0  0  0  0  0  0  0  0  0  0
  184.0050  177.9690  139.9490 C   0  0  0  0  0  2  0  0  0  0  0  0
  182.9080  177.2470  139.2400 C   0  0  0  0  0  0  0  0  0  0  0  0
  180.8890  175.8620  137.8860 C   0  0  0  0  0  0  0  0  0  0  0  0
  182.3040  176.1320  139.8310 C   0  0  0  0  0  3  0  0  0  0  0  0
  182.5050  177.6640  137.9650 C   0  0  0  0  0  3  0  0  0  0  0  0
  181.4950  176.9730  137.2900 C   0  0  0  0  0  3  0  0  0  0  0  0
  179.8860  175.1770  137.2150 O   0  0  0  0  0  1  0  0  0  0  0  0
  181.2950  175.4410  139.1560 C   0  0  0  0  0  3  0  0  0  0  0  0
  1 20  1  0  0  0  0
  2 17  1  0  0  0  0
  2  7  1  0  0  0  0
  4  9  1  0  0  0  0
  4 12  1  0  0  0  0
  5  7  1  0  0  0  0
  5 18  2  0  0  0  0
  6 16  1  1  0  0  0
  6  9  1  0  0  0  0
  7  4  2  0  0  0  0
  8 12  2  0  0  0  0
 10 14  1  0  0  0  0
 11  5  1  0  0  0  0
 13 15  1  0  0  0  0
 14 18  1  0  0  0  0
 14  3  2  0  0  0  0
 15 10  1  0  0  0  0
 17  6  1  0  0  0  0
 18  8  1  0  0  0  0
 19  1  1  0  0  0  0
 19 13  1  0  0  0  0
 20 11  1  0  0  0  0
 20 10  2  0  0  0  0
 21  1  1  0  0  0  0
 22 24  1  0  0  0  0
 22 21  1  0  0  0  0
 23 28  1  0  0  0  0
 25 22  2  0  0  0  0
 26 23  2  0  0  0  0
 26 25  1  0  0  0  0
 27 23  1  0  0  0  0
 28 24  2  0  0  0  0
M  END
>  <MODEL>
3

>  <REMARK>
 VINA RESULT:      -9.8      3.223      7.594
  Name = 
  2 active torsions:
  status: ('A' for Active; 'I' for Inactive)
    1  A    between atoms: N_1  and  C_2
    2  A    between atoms: C_2  and  C_3
                            x       y       z     vdW  Elec       q    Type
                         _______ _______ _______ _____ _____    ______ ____

>  <TORSDO>
F 2

$$$$
=
 OpenBabel10262420533D

 28 32  0  0  1  0  0  0  0  0999 V2000
  184.3380  179.0280  142.6880 N   0  0  0  0  0  0  0  0  0  0  0  0
  189.2280  177.8800  141.0040 C   0  0  0  0  0  2  0  0  0  0  0  0
  186.6700  177.4690  146.5730 O   0  0  0  0  0  0  0  0  0  0  0  0
  190.3410  177.2140  143.1900 C   0  0  0  0  0  0  0  0  0  0  0  0
  187.9720  177.7560  143.1970 C   0  0  0  0  0  0  0  0  0  0  0  0
  191.6940  177.5930  141.1010 C   0  0  1  0  0  3  0  0  0  0  0  0
  189.1730  177.5800  142.4830 C   0  0  0  0  0  0  0  0  0  0  0  0
  189.1290  177.1520  145.2310 C   0  0  0  0  0  3  0  0  0  0  0  0
  191.6380  176.9430  142.4790 C   0  0  0  0  0  2  0  0  0  0  0  0
  185.5110  178.2570  144.6590 C   0  0  0  0  0  0  0  0  0  0  0  0
  186.7040  178.1170  142.4620 C   0  0  0  0  0  2  0  0  0  0  0  0
  190.2800  176.9970  144.5290 N   0  0  0  0  0  0  0  0  0  0  0  0
  183.0210  178.6420  144.6920 C   0  0  0  0  0  2  0  0  0  0  0  0
  186.7080  177.7290  145.3390 C   0  0  0  0  0  0  0  0  0  0  0  0
  184.3120  178.6210  145.5020 C   0  0  0  0  0  2  0  0  0  0  0  0
  192.8130  177.1280  140.4130 O   0  0  0  0  0  1  0  0  0  0  0  0
  190.4360  177.2450  140.3230 C   0  0  0  0  0  2  0  0  0  0  0  0
  187.9520  177.5330  144.5820 C   0  0  0  0  0  0  0  0  0  0  0  0
  183.2260  179.5370  143.4850 C   0  0  0  0  0  2  0  0  0  0  0  0
  185.5210  178.4980  143.3270 C   0  0  0  0  0  0  0  0  0  0  0  0
  184.1670  178.9560  141.2410 C   0  0  0  0  0  2  0  0  0  0  0  0
  182.9440  178.1720  140.9020 C   0  0  0  0  0  0  0  0  0  0  0  0
  180.6460  176.7310  140.2180 C   0  0  0  0  0  0  0  0  0  0  0  0
  183.0540  176.9700  140.1950 C   0  0  0  0  0  3  0  0  0  0  0  0
  181.6800  178.6570  141.2590 C   0  0  0  0  0  3  0  0  0  0  0  0
  180.5320  177.9350  140.9200 C   0  0  0  0  0  3  0  0  0  0  0  0
  179.5050  176.0140  139.8820 O   0  0  0  0  0  1  0  0  0  0  0  0
  181.9070  176.2480  139.8550 C   0  0  0  0  0  3  0  0  0  0  0  0
  1 20  1  0  0  0  0
  1 19  1  0  0  0  0
  2  7  1  0  0  0  0
  4 12  1  0  0  0  0
  5 18  2  0  0  0  0
  6 16  1  6  0  0  0
  6  9  1  0  0  0  0
  7  4  2  0  0  0  0
  7  5  1  0  0  0  0
  9  4  1  0  0  0  0
 10 14  1  0  0  0  0
 10 15  1  0  0  0  0
 11  5  1  0  0  0  0
 11 20  1  0  0  0  0
 12  8  2  0  0  0  0
 13 15  1  0  0  0  0
 14  3  2  0  0  0  0
 17  2  1  0  0  0  0
 17  6  1  0  0  0  0
 18  8  1  0  0  0  0
 18 14  1  0  0  0  0
 19 13  1  0  0  0  0
 20 10  2  0  0  0  0
 21  1  1  0  0  0  0
 22 21  1  0  0  0  0
 22 25  1  0  0  0  0
 23 26  1  0  0  0  0
 24 22  2  0  0  0  0
 26 25  2  0  0  0  0
 27 23  1  0  0  0  0
 28 24  1  0  0  0  0
 28 23  2  0  0  0  0
M  END
>  <MODEL>
4

>  <REMARK>
 VINA RESULT:      -9.7      2.106      7.730
  Name = 
  2 active torsions:
  status: ('A' for Active; 'I' for Inactive)
    1  A    between atoms: N_1  and  C_2
    2  A    between atoms: C_2  and  C_3
                            x       y       z     vdW  Elec       q    Type
                         _______ _______ _______ _____ _____    ______ ____

>  <TORSDO>
F 2

$$$$
=
 OpenBabel10262420533D

 28 32  0  0  1  0  0  0  0  0999 V2000
  189.9860  177.6030  139.7490 N   0  0  0  0  0  0  0  0  0  0  0  0
  191.5680  176.6040  144.7050 C   0  0  0  0  0  2  0  0  0  0  0  0
  186.0800  178.2030  142.4600 O   0  0  0  0  0  0  0  0  0  0  0  0
  189.4360  177.0990  145.9960 C   0  0  0  0  0  0  0  0  0  0  0  0
  189.3960  177.2300  143.5690 C   0  0  0  0  0  0  0  0  0  0  0  0
  191.6290  176.7610  147.1840 C   0  0  1  0  0  3  0  0  0  0  0  0
  190.0990  176.9520  144.7570 C   0  0  0  0  0  0  0  0  0  0  0  0
  187.4310  177.7230  144.8870 C   0  0  0  0  0  3  0  0  0  0  0  0
  190.1090  176.7530  147.2960 C   0  0  0  0  0  2  0  0  0  0  0  0
  188.0110  177.9240  141.1100 C   0  0  0  0  0  0  0  0  0  0  0  0
  190.0730  177.0510  142.2320 C   0  0  0  0  0  2  0  0  0  0  0  0
  188.1270  177.4630  146.0220 N   0  0  0  0  0  0  0  0  0  0  0  0
  187.8700  177.9060  138.5950 C   0  0  0  0  0  2  0  0  0  0  0  0
  187.3080  177.9200  142.4060 C   0  0  0  0  0  0  0  0  0  0  0  0
  187.2680  178.4240  139.8950 C   0  0  0  0  0  2  0  0  0  0  0  0
  192.1820  176.2230  148.3450 O   0  0  0  0  0  1  0  0  0  0  0  0
  192.0560  175.9300  145.9850 C   0  0  0  0  0  2  0  0  0  0  0  0
  188.0480  177.6130  143.6380 C   0  0  0  0  0  0  0  0  0  0  0  0
  189.3530  178.2270  138.5910 C   0  0  0  0  0  2  0  0  0  0  0  0
  189.3170  177.5780  141.0300 C   0  0  0  0  0  0  0  0  0  0  0  0
  191.2490  176.9020  139.5440 C   0  0  0  0  0  2  0  0  0  0  0  0
  191.2310  176.1720  138.2440 C   0  0  0  0  0  0  0  0  0  0  0  0
  191.2280  174.7620  135.8270 C   0  0  0  0  0  0  0  0  0  0  0  0
  190.2120  175.2530  137.9690 C   0  0  0  0  0  3  0  0  0  0  0  0
  192.2540  176.3780  137.3100 C   0  0  0  0  0  3  0  0  0  0  0  0
  192.2510  175.6750  136.1020 C   0  0  0  0  0  3  0  0  0  0  0  0
  191.2260  174.0640  134.6270 O   0  0  0  0  0  1  0  0  0  0  0  0
  190.2090  174.5500  136.7610 C   0  0  0  0  0  3  0  0  0  0  0  0
  1 20  1  0  0  0  0
  2  7  1  0  0  0  0
  2 17  1  0  0  0  0
  4 12  1  0  0  0  0
  4  9  1  0  0  0  0
  5 18  2  0  0  0  0
  5  7  1  0  0  0  0
  6  9  1  0  0  0  0
  6 16  1  1  0  0  0
  7  4  2  0  0  0  0
  8 12  2  0  0  0  0
 10 14  1  0  0  0  0
 11  5  1  0  0  0  0
 13 15  1  0  0  0  0
 14  3  2  0  0  0  0
 14 18  1  0  0  0  0
 15 10  1  0  0  0  0
 17  6  1  0  0  0  0
 18  8  1  0  0  0  0
 19 13  1  0  0  0  0
 19  1  1  0  0  0  0
 20 10  2  0  0  0  0
 20 11  1  0  0  0  0
 21  1  1  0  0  0  0
 22 21  1  0  0  0  0
 23 26  2  0  0  0  0
 23 28  1  0  0  0  0
 24 22  1  0  0  0  0
 25 22  2  0  0  0  0
 26 25  1  0  0  0  0
 27 23  1  0  0  0  0
 28 24  2  0  0  0  0
M  END
>  <MODEL>
5

>  <REMARK>
 VINA RESULT:      -9.6      2.757      5.600
  Name = 
  2 active torsions:
  status: ('A' for Active; 'I' for Inactive)
    1  A    between atoms: N_1  and  C_2
    2  A    between atoms: C_2  and  C_3
                            x       y       z     vdW  Elec       q    Type
                         _______ _______ _______ _____ _____    ______ ____

>  <TORSDO>
F 2

$$$$
=
 OpenBabel10262420533D

 28 32  0  0  1  0  0  0  0  0999 V2000
  186.6460  178.2750  140.2920 N   0  0  0  0  0  0  0  0  0  0  0  0
  188.4740  177.8500  145.2460 C   0  0  0  0  0  2  0  0  0  0  0  0
  182.8310  178.9860  143.1030 O   0  0  0  0  0  0  0  0  0  0  0  0
  186.3750  178.3860  146.5760 C   0  0  0  0  0  0  0  0  0  0  0  0
  186.2300  178.2680  144.1530 C   0  0  0  0  0  0  0  0  0  0  0  0
  188.6290  178.2600  147.6910 C   0  0  1  0  0  3  0  0  0  0  0  0
  186.9940  178.1410  145.3290 C   0  0  0  0  0  0  0  0  0  0  0  0
  184.3010  178.8120  145.5030 C   0  0  0  0  0  3  0  0  0  0  0  0
  187.1160  178.2010  147.8720 C   0  0  0  0  0  2  0  0  0  0  0  0
  184.7160  178.6510  141.7020 C   0  0  0  0  0  0  0  0  0  0  0  0
  186.8590  177.9820  142.8110 C   0  0  0  0  0  2  0  0  0  0  0  0
  185.0540  178.6960  146.6250 N   0  0  0  0  0  0  0  0  0  0  0  0
  184.4730  178.3720  139.2100 C   0  0  0  0  0  2  0  0  0  0  0  0
  184.0670  178.7500  143.0230 C   0  0  0  0  0  0  0  0  0  0  0  0
  183.9010  178.9950  140.4780 C   0  0  0  0  0  2  0  0  0  0  0  0
  189.2530  177.8660  148.8730 O   0  0  0  0  0  1  0  0  0  0  0  0
  189.0430  177.3300  146.5630 C   0  0  0  0  0  2  0  0  0  0  0  0
  184.8700  178.6000  144.2440 C   0  0  0  0  0  0  0  0  0  0  0  0
  185.9380  178.7510  139.1070 C   0  0  0  0  0  2  0  0  0  0  0  0
  186.0320  178.3530  141.5980 C   0  0  0  0  0  0  0  0  0  0  0  0
  187.9290  177.6090  140.1010 C   0  0  0  0  0  2  0  0  0  0  0  0
  188.2870  177.5770  138.6530 C   0  0  0  0  0  0  0  0  0  0  0  0
  189.0060  177.4960  135.9500 C   0  0  0  0  0  0  0  0  0  0  0  0
  187.9830  176.4510  137.8790 C   0  0  0  0  0  3  0  0  0  0  0  0
  188.9590  178.6600  138.0730 C   0  0  0  0  0  3  0  0  0  0  0  0
  189.3160  178.6200  136.7220 C   0  0  0  0  0  3  0  0  0  0  0  0
  189.3610  177.4570  134.6090 O   0  0  0  0  0  1  0  0  0  0  0  0
  188.3400  176.4110  136.5290 C   0  0  0  0  0  3  0  0  0  0  0  0
  1 20  1  0  0  0  0
  2  7  1  0  0  0  0
  2 17  1  0  0  0  0
  4 12  1  0  0  0  0
  4  9  1  0  0  0  0
  5 18  2  0  0  0  0
  5  7  1  0  0  0  0
  6  9  1  0  0  0  0
  6 16  1  1  0  0  0
  7  4  2  0  0  0  0
  8 12  2  0  0  0  0
 10 14  1  0  0  0  0
 11  5  1  0  0  0  0
 13 15  1  0  0  0  0
 14  3  2  0  0  0  0
 14 18  1  0  0  0  0
 15 10  1  0  0  0  0
 17  6  1  0  0  0  0
 18  8  1  0  0  0  0
 19 13  1  0  0  0  0
 19  1  1  0  0  0  0
 20 10  2  0  0  0  0
 20 11  1  0  0  0  0
 21  1  1  0  0  0  0
 22 21  1  0  0  0  0
 23 28  2  0  0  0  0
 23 26  1  0  0  0  0
 24 22  2  0  0  0  0
 25 22  1  0  0  0  0
 26 25  2  0  0  0  0
 27 23  1  0  0  0  0
 28 24  1  0  0  0  0
M  END
>  <MODEL>
6

>  <REMARK>
 VINA RESULT:      -9.6      2.589      5.226
  Name = 
  2 active torsions:
  status: ('A' for Active; 'I' for Inactive)
    1  A    between atoms: N_1  and  C_2
    2  A    between atoms: C_2  and  C_3
                            x       y       z     vdW  Elec       q    Type
                         _______ _______ _______ _____ _____    ______ ____

>  <TORSDO>
F 2

$$$$
=
 OpenBabel10262420533D

 28 32  0  0  1  0  0  0  0  0999 V2000
  183.2050  178.5560  141.7860 N   0  0  0  0  0  0  0  0  0  0  0  0
  188.3700  177.4240  142.0990 C   0  0  0  0  0  2  0  0  0  0  0  0
  184.2410  178.7020  146.4620 O   0  0  0  0  0  0  0  0  0  0  0  0
  188.7640  177.6800  144.5970 C   0  0  0  0  0  0  0  0  0  0  0  0
  186.5070  177.9360  143.7330 C   0  0  0  0  0  0  0  0  0  0  0  0
  190.6890  177.4530  142.9900 C   0  0  1  0  0  3  0  0  0  0  0  0
  187.8680  177.6520  143.5050 C   0  0  0  0  0  0  0  0  0  0  0  0
  186.9900  178.2030  146.0860 C   0  0  0  0  0  3  0  0  0  0  0  0
  190.2150  177.3200  144.4330 C   0  0  0  0  0  2  0  0  0  0  0  0
  183.7210  178.6480  144.1490 C   0  0  0  0  0  0  0  0  0  0  0  0
  185.5240  177.8820  142.5890 C   0  0  0  0  0  2  0  0  0  0  0  0
  188.2990  177.9380  145.8470 N   0  0  0  0  0  0  0  0  0  0  0  0
  181.3400  178.7520  143.3300 C   0  0  0  0  0  2  0  0  0  0  0  0
  184.6520  178.5200  145.2840 C   0  0  0  0  0  0  0  0  0  0  0  0
  182.3240  179.1520  144.4240 C   0  0  0  0  0  2  0  0  0  0  0  0
  191.9620  176.9000  142.8670 O   0  0  0  0  0  1  0  0  0  0  0  0
  189.7260  176.7240  142.0690 C   0  0  0  0  0  2  0  0  0  0  0  0
  186.0670  178.2070  145.0370 C   0  0  0  0  0  0  0  0  0  0  0  0
  181.9050  179.1890  141.9920 C   0  0  0  0  0  2  0  0  0  0  0  0
  184.1350  178.4110  142.8820 C   0  0  0  0  0  0  0  0  0  0  0  0
  183.4810  177.9680  140.4800 C   0  0  0  0  0  2  0  0  0  0  0  0
  182.6830  178.6560  139.4230 C   0  0  0  0  0  0  0  0  0  0  0  0
  181.1470  179.9540  137.4800 C   0  0  0  0  0  0  0  0  0  0  0  0
  182.8440  180.0280  139.2030 C   0  0  0  0  0  3  0  0  0  0  0  0
  181.7450  177.9350  138.6740 C   0  0  0  0  0  3  0  0  0  0  0  0
  180.9790  178.5840  137.7010 C   0  0  0  0  0  3  0  0  0  0  0  0
  180.3860  180.5980  136.5130 O   0  0  0  0  0  1  0  0  0  0  0  0
  182.0790  180.6770  138.2310 C   0  0  0  0  0  3  0  0  0  0  0  0
  1 19  1  0  0  0  0
  1 20  1  0  0  0  0
  2  7  1  0  0  0  0
  4 12  1  0  0  0  0
  5 18  2  0  0  0  0
  6 16  1  1  0  0  0
  6  9  1  0  0  0  0
  7  5  1  0  0  0  0
  7  4  2  0  0  0  0
  9  4  1  0  0  0  0
 10 15  1  0  0  0  0
 10 14  1  0  0  0  0
 11 20  1  0  0  0  0
 11  5  1  0  0  0  0
 12  8  2  0  0  0  0
 13 15  1  0  0  0  0
 14  3  2  0  0  0  0
 17  2  1  0  0  0  0
 17  6  1  0  0  0  0
 18 14  1  0  0  0  0
 18  8  1  0  0  0  0
 19 13  1  0  0  0  0
 20 10  2  0  0  0  0
 21  1  1  0  0  0  0
 22 21  1  0  0  0  0
 23 26  2  0  0  0  0
 23 28  1  0  0  0  0
 24 22  1  0  0  0  0
 25 22  2  0  0  0  0
 26 25  1  0  0  0  0
 27 23  1  0  0  0  0
 28 24  2  0  0  0  0
M  END
>  <MODEL>
7

>  <REMARK>
 VINA RESULT:      -9.5      3.054      7.673
  Name = 
  2 active torsions:
  status: ('A' for Active; 'I' for Inactive)
    1  A    between atoms: N_1  and  C_2
    2  A    between atoms: C_2  and  C_3
                            x       y       z     vdW  Elec       q    Type
                         _______ _______ _______ _____ _____    ______ ____

>  <TORSDO>
F 2

$$$$
=
 OpenBabel10262420533D

 28 32  0  0  1  0  0  0  0  0999 V2000
  189.7640  177.8240  140.0270 N   0  0  0  0  0  0  0  0  0  0  0  0
  185.0610  178.7270  142.2930 C   0  0  0  0  0  2  0  0  0  0  0  0
  190.4580  177.0610  144.7060 O   0  0  0  0  0  0  0  0  0  0  0  0
  185.5790  178.1470  144.7130 C   0  0  0  0  0  0  0  0  0  0  0  0
  187.3780  178.0810  143.0800 C   0  0  0  0  0  0  0  0  0  0  0  0
  183.2110  178.5050  143.9360 C   0  0  1  0  0  3  0  0  0  0  0  0
  186.0290  178.3430  143.3880 C   0  0  0  0  0  0  0  0  0  0  0  0
  187.7610  177.5060  145.3960 C   0  0  0  0  0  3  0  0  0  0  0  0
  184.1690  178.4750  145.1210 C   0  0  0  0  0  2  0  0  0  0  0  0
  190.1220  177.4200  142.3860 C   0  0  0  0  0  0  0  0  0  0  0  0
  187.8900  178.3110  141.6790 C   0  0  0  0  0  2  0  0  0  0  0  0
  186.4550  177.7530  145.6730 N   0  0  0  0  0  0  0  0  0  0  0  0
  192.0540  177.5030  140.7710 C   0  0  0  0  0  2  0  0  0  0  0  0
  189.6560  177.3740  143.7840 C   0  0  0  0  0  0  0  0  0  0  0  0
  191.5190  176.9360  142.0800 C   0  0  0  0  0  2  0  0  0  0  0  0
  181.9840  179.0250  144.3440 O   0  0  0  0  0  1  0  0  0  0  0  0
  183.7920  179.3770  142.8350 C   0  0  0  0  0  2  0  0  0  0  0  0
  188.2500  177.6650  144.0970 C   0  0  0  0  0  0  0  0  0  0  0  0
  191.0440  177.2160  139.6750 C   0  0  0  0  0  2  0  0  0  0  0  0
  189.2860  177.7990  141.3900 C   0  0  0  0  0  0  0  0  0  0  0  0
  189.0480  178.5590  138.9900 C   0  0  0  0  0  2  0  0  0  0  0  0
  188.0610  177.6700  138.3110 C   0  0  0  0  0  0  0  0  0  0  0  0
  186.2250  176.0260  136.9880 C   0  0  0  0  0  0  0  0  0  0  0  0
  188.4460  176.3970  137.8770 C   0  0  0  0  0  3  0  0  0  0  0  0
  186.7570  178.1230  138.0750 C   0  0  0  0  0  3  0  0  0  0  0  0
  185.8400  177.2990  137.4160 C   0  0  0  0  0  3  0  0  0  0  0  0
  185.3140  175.2090  136.3340 O   0  0  0  0  0  1  0  0  0  0  0  0
  187.5290  175.5740  137.2170 C   0  0  0  0  0  3  0  0  0  0  0  0
  1 20  1  0  0  0  0
  2 17  1  0  0  0  0
  2  7  1  0  0  0  0
  4  9  1  0  0  0  0
  4 12  1  0  0  0  0
  5  7  1  0  0  0  0
  5 18  2  0  0  0  0
  6 16  1  1  0  0  0
  6  9  1  0  0  0  0
  7  4  2  0  0  0  0
  8 12  2  0  0  0  0
 10 14  1  0  0  0  0
 11  5  1  0  0  0  0
 13 15  1  0  0  0  0
 14 18  1  0  0  0  0
 14  3  2  0  0  0  0
 15 10  1  0  0  0  0
 17  6  1  0  0  0  0
 18  8  1  0  0  0  0
 19  1  1  0  0  0  0
 19 13  1  0  0  0  0
 20 11  1  0  0  0  0
 20 10  2  0  0  0  0
 21  1  1  0  0  0  0
 22 21  1  0  0  0  0
 23 28  2  0  0  0  0
 23 26  1  0  0  0  0
 24 22  2  0  0  0  0
 25 22  1  0  0  0  0
 26 25  2  0  0  0  0
 27 23  1  0  0  0  0
 28 24  1  0  0  0  0
M  END
>  <MODEL>
8

>  <REMARK>
 VINA RESULT:      -9.5      2.769      3.561
  Name = 
  2 active torsions:
  status: ('A' for Active; 'I' for Inactive)
    1  A    between atoms: N_1  and  C_2
    2  A    between atoms: C_2  and  C_3
                            x       y       z     vdW  Elec       q    Type
                         _______ _______ _______ _____ _____    ______ ____

>  <TORSDO>
F 2

$$$$
=
 OpenBabel10262420533D

 28 32  0  0  1  0  0  0  0  0999 V2000
  188.7500  177.5710  138.5550 N   0  0  0  0  0  0  0  0  0  0  0  0
  185.4810  178.7070  142.5650 C   0  0  0  0  0  2  0  0  0  0  0  0
  191.1530  176.3510  142.5170 O   0  0  0  0  0  0  0  0  0  0  0  0
  186.8460  177.8780  144.5430 C   0  0  0  0  0  0  0  0  0  0  0  0
  187.8250  177.7860  142.3200 C   0  0  0  0  0  0  0  0  0  0  0  0
  184.4260  178.5180  144.8070 C   0  0  1  0  0  3  0  0  0  0  0  0
  186.7520  178.1440  143.1580 C   0  0  0  0  0  0  0  0  0  0  0  0
  189.0270  176.9830  144.2570 C   0  0  0  0  0  3  0  0  0  0  0  0
  185.7650  178.2980  145.5000 C   0  0  0  0  0  2  0  0  0  0  0  0
  189.9660  176.9360  140.5480 C   0  0  0  0  0  0  0  0  0  0  0  0
  187.7610  178.0860  140.8420 C   0  0  0  0  0  2  0  0  0  0  0  0
  187.9790  177.3240  145.0480 N   0  0  0  0  0  0  0  0  0  0  0  0
  191.0910  176.9780  138.2940 C   0  0  0  0  0  2  0  0  0  0  0  0
  190.0940  176.8140  142.0120 C   0  0  0  0  0  0  0  0  0  0  0  0
  191.0580  176.3530  139.6840 C   0  0  0  0  0  2  0  0  0  0  0  0
  183.5330  179.1120  145.6970 O   0  0  0  0  0  1  0  0  0  0  0  0
  184.6200  179.4230  143.6010 C   0  0  0  0  0  2  0  0  0  0  0  0
  188.9740  177.2060  142.8790 C   0  0  0  0  0  0  0  0  0  0  0  0
  189.7030  176.8800  137.6900 C   0  0  0  0  0  2  0  0  0  0  0  0
  188.8550  177.4740  139.9930 C   0  0  0  0  0  0  0  0  0  0  0  0
  187.7740  178.4550  137.9280 C   0  0  0  0  0  2  0  0  0  0  0  0
  186.4540  177.7700  137.8090 C   0  0  0  0  0  0  0  0  0  0  0  0
  183.9700  176.5130  137.5400 C   0  0  0  0  0  0  0  0  0  0  0  0
  186.3530  176.5550  137.1220 C   0  0  0  0  0  3  0  0  0  0  0  0
  185.3080  178.3590  138.3550 C   0  0  0  0  0  3  0  0  0  0  0  0
  184.0670  177.7290  138.2230 C   0  0  0  0  0  3  0  0  0  0  0  0
  182.7370  175.8880  137.4090 O   0  0  0  0  0  1  0  0  0  0  0  0
  185.1130  175.9260  136.9890 C   0  0  0  0  0  3  0  0  0  0  0  0
  1 20  1  0  0  0  0
  2  7  1  0  0  0  0
  2 17  1  0  0  0  0
  4 12  1  0  0  0  0
  4  9  1  0  0  0  0
  5 18  2  0  0  0  0
  5  7  1  0  0  0  0
  6  9  1  0  0  0  0
  6 16  1  1  0  0  0
  7  4  2  0  0  0  0
  8 12  2  0  0  0  0
 10 14  1  0  0  0  0
 11  5  1  0  0  0  0
 13 15  1  0  0  0  0
 14  3  2  0  0  0  0
 14 18  1  0  0  0  0
 15 10  1  0  0  0  0
 17  6  1  0  0  0  0
 18  8  1  0  0  0  0
 19 13  1  0  0  0  0
 19  1  1  0  0  0  0
 20 10  2  0  0  0  0
 20 11  1  0  0  0  0
 21  1  1  0  0  0  0
 22 21  1  0  0  0  0
 22 25  1  0  0  0  0
 23 26  1  0  0  0  0
 24 22  2  0  0  0  0
 26 25  2  0  0  0  0
 27 23  1  0  0  0  0
 28 24  1  0  0  0  0
 28 23  2  0  0  0  0
M  END
>  <MODEL>
9

>  <REMARK>
 VINA RESULT:      -9.5      3.194      5.139
  Name = 
  2 active torsions:
  status: ('A' for Active; 'I' for Inactive)
    1  A    between atoms: N_1  and  C_2
    2  A    between atoms: C_2  and  C_3
                            x       y       z     vdW  Elec       q    Type
                         _______ _______ _______ _____ _____    ______ ____

>  <TORSDO>
F 2

$$$$
