=
 OpenBabel10262420593D

 28 30  0  0  1  0  0  0  0  0999 V2000
  181.2620  174.6630  139.0050 C   0  0  0  0  0  2  0  0  0  0  0  0
  182.2740  174.9210  136.1590 C   0  0  0  0  0  1  0  0  0  0  0  0
  183.0220  175.4790  137.3710 C   0  0  1  0  0  0  0  0  0  0  0  0
  179.2440  176.9570  138.7710 O   0  0  0  0  0  0  0  0  0  0  0  0
  185.1100  175.6310  135.0860 O   0  0  0  0  0  1  0  0  0  0  0  0
  183.8580  174.4720  137.8980 O   0  0  0  0  0  0  0  0  0  0  0  0
  184.3660  177.5400  138.0160 C   0  0  0  0  0  2  0  0  0  0  0  0
  183.1820  178.0950  138.7840 C   0  0  1  0  0  3  0  0  0  0  0  0
  183.9270  176.6140  136.8900 C   0  0  1  0  0  3  0  0  0  0  0  0
  179.9520  179.1280  139.0170 O   0  0  0  0  0  0  0  0  0  0  0  0
  182.4050  176.9530  139.4510 C   0  0  1  0  0  3  0  0  0  0  0  0
  178.9310  175.6810  139.3410 C   0  0  0  0  0  2  0  0  0  0  0  0
  181.2180  177.5320  140.2480 C   0  0  0  0  0  2  0  0  0  0  0  0
  180.0800  177.9220  139.3510 C   0  0  0  0  0  0  0  0  0  0  0  0
  185.1610  175.8790  136.4580 C   0  0  1  0  0  3  0  0  0  0  0  0
  180.1190  174.9550  139.9750 C   0  0  0  0  0  2  0  0  0  0  0  0
  181.9450  175.9060  138.4000 C   0  0  2  0  0  3  0  0  0  0  0  0
  185.0910  174.5650  137.2150 C   0  0  0  0  0  2  0  0  0  0  0  0
  183.6340  179.1670  139.7950 C   0  0  2  0  0  3  0  0  0  0  0  0
  182.8070  180.9250  138.7290 C   0  0  0  0  0  1  0  0  0  0  0  0
  184.0080  180.3450  139.1400 O   0  0  0  0  0  0  0  0  0  0  0  0
  184.7300  178.6860  140.7580 C   0  0  2  0  0  3  0  0  0  0  0  0
  184.2410  178.7400  142.1400 C   0  0  0  0  0  0  0  0  0  0  0  0
  183.8410  178.7860  143.2760 C   0  0  0  0  0  0  0  0  0  0  0  0
  183.3550  178.8410  144.6550 C   0  0  0  0  0  1  0  0  0  0  0  0
  185.8860  179.4650  140.6330 O   0  0  0  0  0  0  0  0  0  0  0  0
  186.9200  178.6520  141.1050 C   0  0  0  0  0  2  0  0  0  0  0  0
  187.9540  178.6260  140.1700 O   0  0  0  0  0  1  0  0  0  0  0  0
  1 16  1  0  0  0  0
  3  2  1  6  0  0  0
  3  6  1  0  0  0  0
  3 17  1  0  0  0  0
  4 12  1  0  0  0  0
  4 14  1  0  0  0  0
  7  8  1  0  0  0  0
  8 11  1  0  0  0  0
  8 19  1  1  0  0  0
  9  3  1  0  0  0  0
  9  7  1  1  0  0  0
 10 14  2  0  0  0  0
 11 13  1  6  0  0  0
 12 16  1  0  0  0  0
 14 13  1  0  0  0  0
 15  5  1  6  0  0  0
 15  9  1  0  0  0  0
 15 18  1  0  0  0  0
 17  1  1  1  0  0  0
 17 11  1  0  0  0  0
 18  6  1  0  0  0  0
 19 21  1  6  0  0  0
 19 22  1  0  0  0  0
 20 21  1  0  0  0  0
 22 23  1  1  0  0  0
 23 24  3  0  0  0  0
 24 25  1  0  0  0  0
 26 22  1  0  0  0  0
 26 27  1  0  0  0  0
 28 27  1  0  0  0  0
M  END
>  <MODEL>
1

>  <REMARK>
 VINA RESULT:      -5.4      0.000      0.000
  Name = 
  6 active torsions:
  status: ('A' for Active; 'I' for Inactive)
    1  A    between atoms: C_9  and  C_12
    2  A    between atoms: C_9  and  C_13
    3  A    between atoms: C_9  and  O_14
    4  A    between atoms: C_10  and  C_13
    5  A    between atoms: C_13  and  O_24
    6  A    between atoms: O_14  and  C_18
                            x       y       z     vdW  Elec       q    Type
                         _______ _______ _______ _____ _____    ______ ____

>  <TORSDO>
F 6

$$$$
=
 OpenBabel10262420593D

 28 30  0  0  1  0  0  0  0  0999 V2000
  183.4160  174.4100  137.1780 C   0  0  0  0  0  2  0  0  0  0  0  0
  185.2770  175.5290  135.0620 C   0  0  0  0  0  1  0  0  0  0  0  0
  185.3270  175.9470  136.5320 C   0  0  1  0  0  0  0  0  0  0  0  0
  181.0440  176.1890  136.4040 O   0  0  0  0  0  0  0  0  0  0  0  0
  187.9620  177.0780  135.3560 O   0  0  0  0  0  1  0  0  0  0  0  0
  186.1690  175.0600  137.2340 O   0  0  0  0  0  0  0  0  0  0  0  0
  185.6670  178.0540  137.9180 C   0  0  0  0  0  2  0  0  0  0  0  0
  184.1770  178.1410  138.1860 C   0  0  1  0  0  3  0  0  0  0  0  0
  185.9670  177.3350  136.6100 C   0  0  1  0  0  3  0  0  0  0  0  0
  180.9380  178.3480  137.1790 O   0  0  0  0  0  0  0  0  0  0  0  0
  183.5840  176.7330  138.3280 C   0  0  1  0  0  3  0  0  0  0  0  0
  180.9360  174.7790  136.6350 C   0  0  0  0  0  2  0  0  0  0  0  0
  182.0740  176.8360  138.6240 C   0  0  0  0  0  2  0  0  0  0  0  0
  181.2840  177.1560  137.3900 C   0  0  0  0  0  0  0  0  0  0  0  0
  187.4310  177.0110  136.6440 C   0  0  1  0  0  3  0  0  0  0  0  0
  181.9670  174.2110  137.6130 C   0  0  0  0  0  2  0  0  0  0  0  0
  183.8730  175.8780  137.0650 C   0  0  2  0  0  3  0  0  0  0  0  0
  187.4790  175.5780  137.1410 C   0  0  0  0  0  2  0  0  0  0  0  0
  183.8880  179.0260  139.4130 C   0  0  2  0  0  3  0  0  0  0  0  0
  182.7260  180.7960  138.7590 C   0  0  0  0  0  1  0  0  0  0  0  0
  184.0170  180.3820  139.0920 O   0  0  0  0  0  0  0  0  0  0  0  0
  184.7230  178.6600  140.6500 C   0  0  2  0  0  3  0  0  0  0  0  0
  183.8790  178.6940  141.8510 C   0  0  0  0  0  0  0  0  0  0  0  0
  183.1880  178.7230  142.8380 C   0  0  0  0  0  0  0  0  0  0  0  0
  182.3490  178.7570  144.0360 C   0  0  0  0  0  1  0  0  0  0  0  0
  185.8030  179.5360  140.8060 O   0  0  0  0  0  0  0  0  0  0  0  0
  186.8230  178.7550  141.3550 C   0  0  0  0  0  2  0  0  0  0  0  0
  187.8900  178.6870  140.4590 O   0  0  0  0  0  1  0  0  0  0  0  0
  1 16  1  0  0  0  0
  3  2  1  6  0  0  0
  3  9  1  0  0  0  0
  3 17  1  0  0  0  0
  3  6  1  0  0  0  0
  4 12  1  0  0  0  0
  4 14  1  0  0  0  0
  7  8  1  0  0  0  0
  8 11  1  0  0  0  0
  8 19  1  1  0  0  0
  9 15  1  0  0  0  0
  9  7  1  1  0  0  0
 10 14  2  0  0  0  0
 11 13  1  6  0  0  0
 12 16  1  0  0  0  0
 14 13  1  0  0  0  0
 15  5  1  6  0  0  0
 15 18  1  0  0  0  0
 17  1  1  1  0  0  0
 17 11  1  0  0  0  0
 18  6  1  0  0  0  0
 19 21  1  6  0  0  0
 19 22  1  0  0  0  0
 20 21  1  0  0  0  0
 22 26  1  0  0  0  0
 22 23  1  1  0  0  0
 23 24  3  0  0  0  0
 24 25  1  0  0  0  0
 26 27  1  0  0  0  0
 28 27  1  0  0  0  0
M  END
>  <MODEL>
2

>  <REMARK>
 VINA RESULT:      -5.4      1.577      2.064
  Name = 
  6 active torsions:
  status: ('A' for Active; 'I' for Inactive)
    1  A    between atoms: C_9  and  C_12
    2  A    between atoms: C_9  and  C_13
    3  A    between atoms: C_9  and  O_14
    4  A    between atoms: C_10  and  C_13
    5  A    between atoms: C_13  and  O_24
    6  A    between atoms: O_14  and  C_18
                            x       y       z     vdW  Elec       q    Type
                         _______ _______ _______ _____ _____    ______ ____

>  <TORSDO>
F 6

$$$$
=
 OpenBabel10262420593D

 28 30  0  0  1  0  0  0  0  0999 V2000
  188.9850  174.8770  135.5620 C   0  0  0  0  0  2  0  0  0  0  0  0
  191.7630  176.0370  135.2050 C   0  0  0  0  0  1  0  0  0  0  0  0
  191.1720  175.6750  136.5690 C   0  0  1  0  0  0  0  0  0  0  0  0
  187.5430  177.5650  135.2730 O   0  0  0  0  0  0  0  0  0  0  0  0
  194.1810  176.1150  137.1660 O   0  0  0  0  0  1  0  0  0  0  0  0
  191.4450  174.3190  136.8420 O   0  0  0  0  0  0  0  0  0  0  0  0
  191.1130  176.5930  138.9400 C   0  0  0  0  0  2  0  0  0  0  0  0
  189.7040  177.1090  138.7270 C   0  0  1  0  0  3  0  0  0  0  0  0
  191.8900  176.5060  137.6330 C   0  0  1  0  0  3  0  0  0  0  0  0
  187.3930  178.9780  137.0780 O   0  0  0  0  0  0  0  0  0  0  0  0
  188.9190  176.1430  137.8300 C   0  0  1  0  0  3  0  0  0  0  0  0
  187.1370  176.3710  134.5940 C   0  0  0  0  0  2  0  0  0  0  0  0
  187.4810  176.6670  137.6390 C   0  0  0  0  0  2  0  0  0  0  0  0
  187.4240  177.7940  136.6520 C   0  0  0  0  0  0  0  0  0  0  0  0
  193.1010  175.6710  137.9290 C   0  0  1  0  0  3  0  0  0  0  0  0
  187.4900  175.0710  135.3200 C   0  0  0  0  0  2  0  0  0  0  0  0
  189.6460  175.9300  136.4740 C   0  0  2  0  0  3  0  0  0  0  0  0
  192.7020  174.2760  137.4840 C   0  0  0  0  0  2  0  0  0  0  0  0
  188.9990  177.3630  140.0730 C   0  0  2  0  0  3  0  0  0  0  0  0
  187.2480  178.6350  140.5500 C   0  0  0  0  0  1  0  0  0  0  0  0
  188.5930  178.6980  140.1800 O   0  0  0  0  0  0  0  0  0  0  0  0
  189.8230  176.9270  141.2940 C   0  0  2  0  0  3  0  0  0  0  0  0
  188.9640  176.8660  142.4820 C   0  0  0  0  0  0  0  0  0  0  0  0
  188.2580  176.8140  143.4570 C   0  0  0  0  0  0  0  0  0  0  0  0
  187.4000  176.7510  144.6410 C   0  0  0  0  0  1  0  0  0  0  0  0
  190.8870  177.8070  141.5240 O   0  0  0  0  0  0  0  0  0  0  0  0
  191.6720  177.1780  142.4920 C   0  0  0  0  0  2  0  0  0  0  0  0
  191.8980  178.0570  143.5510 O   0  0  0  0  0  1  0  0  0  0  0  0
  3  2  1  6  0  0  0
  3  6  1  0  0  0  0
  3  9  1  0  0  0  0
  4 14  1  0  0  0  0
  6 18  1  0  0  0  0
  8  7  1  0  0  0  0
  8 19  1  1  0  0  0
  9 15  1  0  0  0  0
  9  7  1  1  0  0  0
 11 13  1  6  0  0  0
 11  8  1  0  0  0  0
 12  4  1  0  0  0  0
 12 16  1  0  0  0  0
 14 10  2  0  0  0  0
 14 13  1  0  0  0  0
 15  5  1  6  0  0  0
 16  1  1  0  0  0  0
 17  1  1  1  0  0  0
 17  3  1  0  0  0  0
 17 11  1  0  0  0  0
 18 15  1  0  0  0  0
 19 21  1  1  0  0  0
 19 22  1  0  0  0  0
 21 20  1  0  0  0  0
 22 26  1  0  0  0  0
 22 23  1  1  0  0  0
 23 24  3  0  0  0  0
 24 25  1  0  0  0  0
 26 27  1  0  0  0  0
 27 28  1  0  0  0  0
M  END
>  <MODEL>
3

>  <REMARK>
 VINA RESULT:      -5.2      5.150      7.185
  Name = 
  6 active torsions:
  status: ('A' for Active; 'I' for Inactive)
    1  A    between atoms: C_9  and  C_12
    2  A    between atoms: C_9  and  C_13
    3  A    between atoms: C_9  and  O_14
    4  A    between atoms: C_10  and  C_13
    5  A    between atoms: C_13  and  O_24
    6  A    between atoms: O_14  and  C_18
                            x       y       z     vdW  Elec       q    Type
                         _______ _______ _______ _____ _____    ______ ____

>  <TORSDO>
F 6

$$$$
=
 OpenBabel10262420593D

 28 30  0  0  1  0  0  0  0  0999 V2000
  186.7020  177.1870  144.4040 C   0  0  0  0  0  2  0  0  0  0  0  0
  185.2350  179.5950  143.2910 C   0  0  0  0  0  1  0  0  0  0  0  0
  185.8220  178.4890  142.4130 C   0  0  1  0  0  0  0  0  0  0  0  0
  189.3370  178.6820  144.8680 O   0  0  0  0  0  0  0  0  0  0  0  0
  184.0000  180.0780  140.4730 O   0  0  0  0  0  1  0  0  0  0  0  0
  184.8670  177.4620  142.2690 O   0  0  0  0  0  0  0  0  0  0  0  0
  187.0590  178.2450  140.2030 C   0  0  0  0  0  2  0  0  0  0  0  0
  188.3690  178.0370  140.9370 C   0  0  1  0  0  3  0  0  0  0  0  0
  186.0750  179.0710  141.0210 C   0  0  1  0  0  3  0  0  0  0  0  0
  190.7910  178.9990  143.1190 O   0  0  0  0  0  0  0  0  0  0  0  0
  188.1280  177.2520  142.2330 C   0  0  1  0  0  3  0  0  0  0  0  0
  188.7320  177.8200  145.8400 C   0  0  0  0  0  2  0  0  0  0  0  0
  189.4700  177.0260  142.9570 C   0  0  0  0  0  2  0  0  0  0  0  0
  189.9340  178.2610  143.6710 C   0  0  0  0  0  0  0  0  0  0  0  0
  184.7420  178.9020  140.3550 C   0  0  1  0  0  3  0  0  0  0  0  0
  187.8730  176.6980  145.2520 C   0  0  0  0  0  2  0  0  0  0  0  0
  187.0920  177.9740  143.1360 C   0  0  2  0  0  3  0  0  0  0  0  0
  184.0720  177.7960  141.1500 C   0  0  0  0  0  2  0  0  0  0  0  0
  189.4100  177.3610  140.0260 C   0  0  2  0  0  3  0  0  0  0  0  0
  191.5770  176.9760  140.2880 C   0  0  0  0  0  1  0  0  0  0  0  0
  190.6490  178.0050  140.1190 O   0  0  0  0  0  0  0  0  0  0  0  0
  188.9570  177.2240  138.5640 C   0  0  2  0  0  3  0  0  0  0  0  0
  189.5010  175.9900  137.9850 C   0  0  0  0  0  0  0  0  0  0  0  0
  189.9470  174.9760  137.5090 C   0  0  0  0  0  0  0  0  0  0  0  0
  190.4880  173.7450  136.9320 C   0  0  0  0  0  1  0  0  0  0  0  0
  189.3680  178.3250  137.8040 O   0  0  0  0  0  0  0  0  0  0  0  0
  188.4870  178.3620  136.7200 C   0  0  0  0  0  2  0  0  0  0  0  0
  187.5690  179.3950  136.9030 O   0  0  0  0  0  1  0  0  0  0  0  0
  1 16  1  0  0  0  0
  3 17  1  0  0  0  0
  3  2  1  1  0  0  0
  4 12  1  0  0  0  0
  6  3  1  0  0  0  0
  7  8  1  0  0  0  0
  8 19  1  6  0  0  0
  8 11  1  0  0  0  0
  9  7  1  6  0  0  0
  9  3  1  0  0  0  0
 10 14  2  0  0  0  0
 11 13  1  1  0  0  0
 11 17  1  0  0  0  0
 13 14  1  0  0  0  0
 14  4  1  0  0  0  0
 15  5  1  1  0  0  0
 15  9  1  0  0  0  0
 15 18  1  0  0  0  0
 16 12  1  0  0  0  0
 17  1  1  1  0  0  0
 18  6  1  0  0  0  0
 19 21  1  6  0  0  0
 21 20  1  0  0  0  0
 22 23  1  6  0  0  0
 22 19  1  0  0  0  0
 24 23  3  0  0  0  0
 25 24  1  0  0  0  0
 26 22  1  0  0  0  0
 27 28  1  0  0  0  0
 27 26  1  0  0  0  0
M  END
>  <MODEL>
4

>  <REMARK>
 VINA RESULT:      -5.1      3.797      7.843
  Name = 
  6 active torsions:
  status: ('A' for Active; 'I' for Inactive)
    1  A    between atoms: C_9  and  C_12
    2  A    between atoms: C_9  and  C_13
    3  A    between atoms: C_9  and  O_14
    4  A    between atoms: C_10  and  C_13
    5  A    between atoms: C_13  and  O_24
    6  A    between atoms: O_14  and  C_18
                            x       y       z     vdW  Elec       q    Type
                         _______ _______ _______ _____ _____    ______ ____

>  <TORSDO>
F 6

$$$$
=
 OpenBabel10262420593D

 28 30  0  0  1  0  0  0  0  0999 V2000
  179.5020  178.6090  140.9750 C   0  0  0  0  0  2  0  0  0  0  0  0
  179.4150  181.4520  139.9250 C   0  0  0  0  0  1  0  0  0  0  0  0
  180.4050  180.4000  139.4220 C   0  0  1  0  0  0  0  0  0  0  0  0
  181.0390  179.3230  143.5280 O   0  0  0  0  0  0  0  0  0  0  0  0
  180.6380  182.6840  137.3400 O   0  0  0  0  0  1  0  0  0  0  0  0
  179.8080  179.6740  138.3720 O   0  0  0  0  0  0  0  0  0  0  0  0
  182.8470  180.2390  138.7290 C   0  0  0  0  0  2  0  0  0  0  0  0
  183.2020  179.6000  140.0570 C   0  0  1  0  0  3  0  0  0  0  0  0
  181.6160  181.1290  138.8380 C   0  0  1  0  0  3  0  0  0  0  0  0
  183.3210  179.5690  143.4540 O   0  0  0  0  0  0  0  0  0  0  0  0
  182.0590  178.6910  140.5260 C   0  0  1  0  0  3  0  0  0  0  0  0
  179.8790  178.4830  143.5100 C   0  0  0  0  0  2  0  0  0  0  0  0
  182.4430  178.0290  141.8660 C   0  0  0  0  0  2  0  0  0  0  0  0
  182.2990  178.9780  143.0180 C   0  0  0  0  0  0  0  0  0  0  0  0
  181.1780  181.4010  137.4290 C   0  0  1  0  0  3  0  0  0  0  0  0
  179.6650  177.7170  142.2030 C   0  0  0  0  0  2  0  0  0  0  0  0
  180.7260  179.4800  140.6270 C   0  0  2  0  0  3  0  0  0  0  0  0
  180.0910  180.3720  137.1770 C   0  0  0  0  0  2  0  0  0  0  0  0
  184.5470  178.8550  139.9690 C   0  0  2  0  0  3  0  0  0  0  0  0
  186.0150  178.6990  141.6210 C   0  0  0  0  0  1  0  0  0  0  0  0
  185.5560  179.5660  140.6280 O   0  0  0  0  0  0  0  0  0  0  0  0
  184.9610  178.4930  138.5340 C   0  0  2  0  0  3  0  0  0  0  0  0
  184.3310  177.2290  138.1360 C   0  0  0  0  0  0  0  0  0  0  0  0
  183.8130  176.1910  137.8080 C   0  0  0  0  0  0  0  0  0  0  0  0
  183.1830  174.9310  137.4110 C   0  0  0  0  0  1  0  0  0  0  0  0
  186.3520  178.3850  138.4230 O   0  0  0  0  0  0  0  0  0  0  0  0
  186.6060  178.4110  137.0500 C   0  0  0  0  0  2  0  0  0  0  0  0
  187.5310  179.4160  136.7670 O   0  0  0  0  0  1  0  0  0  0  0  0
  1 16  1  0  0  0  0
  3  2  1  1  0  0  0
  3 17  1  0  0  0  0
  6  3  1  0  0  0  0
  7  8  1  0  0  0  0
  8 19  1  6  0  0  0
  8 11  1  0  0  0  0
  9  7  1  6  0  0  0
  9  3  1  0  0  0  0
 11 17  1  0  0  0  0
 11 13  1  1  0  0  0
 12  4  1  0  0  0  0
 13 14  1  0  0  0  0
 14 10  2  0  0  0  0
 14  4  1  0  0  0  0
 15  5  1  1  0  0  0
 15  9  1  0  0  0  0
 16 12  1  0  0  0  0
 17  1  1  6  0  0  0
 18 15  1  0  0  0  0
 18  6  1  0  0  0  0
 19 21  1  6  0  0  0
 21 20  1  0  0  0  0
 22 23  1  1  0  0  0
 22 19  1  0  0  0  0
 24 23  3  0  0  0  0
 25 24  1  0  0  0  0
 26 22  1  0  0  0  0
 27 26  1  0  0  0  0
 28 27  1  0  0  0  0
M  END
>  <MODEL>
5

>  <REMARK>
 VINA RESULT:      -4.9      2.350      5.115
  Name = 
  6 active torsions:
  status: ('A' for Active; 'I' for Inactive)
    1  A    between atoms: C_9  and  C_12
    2  A    between atoms: C_9  and  C_13
    3  A    between atoms: C_9  and  O_14
    4  A    between atoms: C_10  and  C_13
    5  A    between atoms: C_13  and  O_24
    6  A    between atoms: O_14  and  C_18
                            x       y       z     vdW  Elec       q    Type
                         _______ _______ _______ _____ _____    ______ ____

>  <TORSDO>
F 6

$$$$
=
 OpenBabel10262420593D

 28 30  0  0  1  0  0  0  0  0999 V2000
  188.8790  176.3720  144.1590 C   0  0  0  0  0  2  0  0  0  0  0  0
  188.2900  178.6030  146.1250 C   0  0  0  0  0  1  0  0  0  0  0  0
  187.2240  177.9660  145.2330 C   0  0  1  0  0  0  0  0  0  0  0  0
  190.0510  178.2220  142.0140 O   0  0  0  0  0  0  0  0  0  0  0  0
  185.5790  179.5960  147.2920 O   0  0  0  0  0  1  0  0  0  0  0  0
  186.6900  176.8370  145.8890 O   0  0  0  0  0  0  0  0  0  0  0  0
  185.2000  178.6670  143.8600 C   0  0  0  0  0  2  0  0  0  0  0  0
  186.0050  178.5550  142.5810 C   0  0  1  0  0  3  0  0  0  0  0  0
  186.0850  178.9710  145.0620 C   0  0  1  0  0  3  0  0  0  0  0  0
  188.6460  179.3590  140.5980 O   0  0  0  0  0  0  0  0  0  0  0  0
  186.9990  177.3910  142.6830 C   0  0  1  0  0  3  0  0  0  0  0  0
  190.6710  176.9990  142.4320 C   0  0  0  0  0  2  0  0  0  0  0  0
  187.7950  177.2740  141.3670 C   0  0  0  0  0  2  0  0  0  0  0  0
  188.8680  178.3170  141.2680 C   0  0  0  0  0  0  0  0  0  0  0  0
  185.2390  178.7070  146.2730 C   0  0  1  0  0  3  0  0  0  0  0  0
  189.7000  175.9350  142.9480 C   0  0  0  0  0  2  0  0  0  0  0  0
  187.9310  177.5630  143.9140 C   0  0  2  0  0  3  0  0  0  0  0  0
  185.6150  177.2950  146.6820 C   0  0  0  0  0  2  0  0  0  0  0  0
  185.0790  178.4300  141.3560 C   0  0  2  0  0  3  0  0  0  0  0  0
  185.3180  179.0680  139.2470 C   0  0  0  0  0  1  0  0  0  0  0  0
  185.1710  179.5650  140.5420 O   0  0  0  0  0  0  0  0  0  0  0  0
  183.6190  178.1120  141.7130 C   0  0  2  0  0  3  0  0  0  0  0  0
  183.0370  177.2270  140.6980 C   0  0  0  0  0  0  0  0  0  0  0  0
  182.5600  176.5000  139.8630 C   0  0  0  0  0  0  0  0  0  0  0  0
  181.9800  175.6180  138.8500 C   0  0  0  0  0  1  0  0  0  0  0  0
  182.8590  179.2820  141.8150 O   0  0  0  0  0  0  0  0  0  0  0  0
  181.6450  178.8760  142.3730 C   0  0  0  0  0  2  0  0  0  0  0  0
  181.7200  178.9640  143.7630 O   0  0  0  0  0  1  0  0  0  0  0  0
  3  6  1  0  0  0  0
  3  2  1  1  0  0  0
  4 12  1  0  0  0  0
  6 18  1  0  0  0  0
  8 19  1  6  0  0  0
  8 11  1  0  0  0  0
  8  7  1  0  0  0  0
  9  7  1  6  0  0  0
  9  3  1  0  0  0  0
  9 15  1  0  0  0  0
 10 14  2  0  0  0  0
 11 13  1  6  0  0  0
 11 17  1  0  0  0  0
 12 16  1  0  0  0  0
 14 13  1  0  0  0  0
 14  4  1  0  0  0  0
 15 18  1  0  0  0  0
 15  5  1  1  0  0  0
 16  1  1  0  0  0  0
 17  1  1  1  0  0  0
 17  3  1  0  0  0  0
 19 21  1  1  0  0  0
 19 22  1  0  0  0  0
 20 21  1  0  0  0  0
 22 23  1  6  0  0  0
 22 26  1  0  0  0  0
 24 23  3  0  0  0  0
 25 24  1  0  0  0  0
 26 27  1  0  0  0  0
 27 28  1  0  0  0  0
M  END
>  <MODEL>
6

>  <REMARK>
 VINA RESULT:      -4.9      3.200      7.951
  Name = 
  6 active torsions:
  status: ('A' for Active; 'I' for Inactive)
    1  A    between atoms: C_9  and  C_12
    2  A    between atoms: C_9  and  C_13
    3  A    between atoms: C_9  and  O_14
    4  A    between atoms: C_10  and  C_13
    5  A    between atoms: C_13  and  O_24
    6  A    between atoms: O_14  and  C_18
                            x       y       z     vdW  Elec       q    Type
                         _______ _______ _______ _____ _____    ______ ____

>  <TORSDO>
F 6

$$$$
=
 OpenBabel10262420593D

 28 30  0  0  1  0  0  0  0  0999 V2000
  188.6510  173.0560  136.7120 C   0  0  0  0  0  2  0  0  0  0  0  0
  190.9850  174.1000  135.0830 C   0  0  0  0  0  1  0  0  0  0  0  0
  190.5600  174.7010  136.4240 C   0  0  1  0  0  0  0  0  0  0  0  0
  186.5110  174.4550  135.0230 O   0  0  0  0  0  0  0  0  0  0  0  0
  193.3450  175.9570  135.9050 O   0  0  0  0  0  1  0  0  0  0  0  0
  191.2070  174.0050  137.4650 O   0  0  0  0  0  0  0  0  0  0  0  0
  190.3220  176.9880  137.5130 C   0  0  0  0  0  2  0  0  0  0  0  0
  188.8190  176.9440  137.3210 C   0  0  1  0  0  3  0  0  0  0  0  0
  191.0510  176.1480  136.4720 C   0  0  1  0  0  3  0  0  0  0  0  0
  186.0300  176.6700  135.3980 O   0  0  0  0  0  0  0  0  0  0  0  0
  188.3060  175.5090  137.4960 C   0  0  1  0  0  3  0  0  0  0  0  0
  186.4320  173.0820  135.4240 C   0  0  0  0  0  2  0  0  0  0  0  0
  186.7740  175.4830  137.3220 C   0  0  0  0  0  2  0  0  0  0  0  0
  186.3760  175.5580  135.8780 C   0  0  0  0  0  0  0  0  0  0  0  0
  192.4550  175.9940  136.9790 C   0  0  1  0  0  3  0  0  0  0  0  0
  187.1540  172.7560  136.7330 C   0  0  0  0  0  2  0  0  0  0  0  0
  189.0210  174.5400  136.5150 C   0  0  2  0  0  3  0  0  0  0  0  0
  192.4460  174.6480  137.6790 C   0  0  0  0  0  2  0  0  0  0  0  0
  188.1140  177.9390  138.2620 C   0  0  2  0  0  3  0  0  0  0  0  0
  187.7910  179.4000  136.6270 C   0  0  0  0  0  1  0  0  0  0  0  0
  188.3800  179.2590  137.8850 O   0  0  0  0  0  0  0  0  0  0  0  0
  188.4200  177.7060  139.7500 C   0  0  2  0  0  3  0  0  0  0  0  0
  187.3540  178.2830  140.5770 C   0  0  0  0  0  0  0  0  0  0  0  0
  186.4770  178.7540  141.2560 C   0  0  0  0  0  0  0  0  0  0  0  0
  185.4120  179.3270  142.0800 C   0  0  0  0  0  1  0  0  0  0  0  0
  189.6510  178.2700  140.1040 O   0  0  0  0  0  0  0  0  0  0  0  0
  190.0440  177.5810  141.2540 C   0  0  0  0  0  2  0  0  0  0  0  0
  190.3090  176.2510  140.9310 O   0  0  0  0  0  1  0  0  0  0  0  0
  1 16  1  0  0  0  0
  3  2  1  6  0  0  0
  3  9  1  0  0  0  0
  3 17  1  0  0  0  0
  3  6  1  0  0  0  0
  4 12  1  0  0  0  0
  4 14  1  0  0  0  0
  6 18  1  0  0  0  0
  8 11  1  0  0  0  0
  8  7  1  0  0  0  0
  8 19  1  1  0  0  0
  9 15  1  0  0  0  0
  9  7  1  1  0  0  0
 10 14  2  0  0  0  0
 11 13  1  6  0  0  0
 12 16  1  0  0  0  0
 14 13  1  0  0  0  0
 15  5  1  6  0  0  0
 15 18  1  0  0  0  0
 17  1  1  1  0  0  0
 17 11  1  0  0  0  0
 19 21  1  6  0  0  0
 19 22  1  0  0  0  0
 20 21  1  0  0  0  0
 22 26  1  0  0  0  0
 22 23  1  1  0  0  0
 23 24  3  0  0  0  0
 24 25  1  0  0  0  0
 26 27  1  0  0  0  0
 28 27  1  0  0  0  0
M  END
>  <MODEL>
7

>  <REMARK>
 VINA RESULT:      -4.7      4.421      6.512
  Name = 
  6 active torsions:
  status: ('A' for Active; 'I' for Inactive)
    1  A    between atoms: C_9  and  C_12
    2  A    between atoms: C_9  and  C_13
    3  A    between atoms: C_9  and  O_14
    4  A    between atoms: C_10  and  C_13
    5  A    between atoms: C_13  and  O_24
    6  A    between atoms: O_14  and  C_18
                            x       y       z     vdW  Elec       q    Type
                         _______ _______ _______ _____ _____    ______ ____

>  <TORSDO>
F 6

$$$$
=
 OpenBabel10262420593D

 28 30  0  0  1  0  0  0  0  0999 V2000
  183.8890  179.2870  138.3080 C   0  0  0  0  0  2  0  0  0  0  0  0
  181.5000  180.0550  136.6070 C   0  0  0  0  0  1  0  0  0  0  0  0
  181.4900  180.0940  138.1360 C   0  0  1  0  0  0  0  0  0  0  0  0
  183.4320  176.2680  138.0460 O   0  0  0  0  0  0  0  0  0  0  0  0
  178.9310  181.6520  137.3460 O   0  0  0  0  0  1  0  0  0  0  0  0
  181.9690  181.3480  138.5660 O   0  0  0  0  0  0  0  0  0  0  0  0
  179.9200  179.5460  140.0600 C   0  0  0  0  0  2  0  0  0  0  0  0
  180.6690  178.2560  140.3300 C   0  0  1  0  0  3  0  0  0  0  0  0
  180.0400  179.9770  138.6050 C   0  0  1  0  0  3  0  0  0  0  0  0
  181.8940  175.2260  139.3960 O   0  0  0  0  0  0  0  0  0  0  0  0
  182.1680  178.4520  140.0660 C   0  0  1  0  0  3  0  0  0  0  0  0
  184.7090  176.8950  137.8710 C   0  0  0  0  0  2  0  0  0  0  0  0
  182.9220  177.1410  140.3670 C   0  0  0  0  0  2  0  0  0  0  0  0
  182.7540  176.1360  139.2660 C   0  0  0  0  0  0  0  0  0  0  0  0
  179.5720  181.4020  138.5590 C   0  0  1  0  0  3  0  0  0  0  0  0
  184.8950  178.1940  138.6580 C   0  0  0  0  0  2  0  0  0  0  0  0
  182.4170  178.9470  138.6160 C   0  0  2  0  0  3  0  0  0  0  0  0
  180.8540  182.2120  138.6340 C   0  0  0  0  0  2  0  0  0  0  0  0
  180.3870  177.7410  141.7540 C   0  0  2  0  0  3  0  0  0  0  0  0
  179.2830  176.0890  140.7710 C   0  0  0  0  0  1  0  0  0  0  0  0
  179.1830  177.0290  141.7980 O   0  0  0  0  0  0  0  0  0  0  0  0
  180.4310  178.8370  142.8290 C   0  0  2  0  0  3  0  0  0  0  0  0
  181.7330  178.8240  143.5040 C   0  0  0  0  0  0  0  0  0  0  0  0
  182.8030  178.8120  144.0600 C   0  0  0  0  0  0  0  0  0  0  0  0
  184.1010  178.7980  144.7350 C   0  0  0  0  0  1  0  0  0  0  0  0
  179.4080  178.6630  143.7680 O   0  0  0  0  0  0  0  0  0  0  0  0
  178.9380  179.9520  144.0310 C   0  0  0  0  0  2  0  0  0  0  0  0
  178.9330  180.6940  142.8510 O   0  0  0  0  0  1  0  0  0  0  0  0
  1 16  1  0  0  0  0
  3  2  1  6  0  0  0
  3  6  1  0  0  0  0
  3  9  1  0  0  0  0
  3 17  1  0  0  0  0
  4 14  1  0  0  0  0
  6 18  1  0  0  0  0
  7  8  1  0  0  0  0
  8 19  1  1  0  0  0
  9  7  1  1  0  0  0
 11  8  1  0  0  0  0
 11 13  1  6  0  0  0
 12  4  1  0  0  0  0
 12 16  1  0  0  0  0
 14 10  2  0  0  0  0
 14 13  1  0  0  0  0
 15  5  1  6  0  0  0
 15  9  1  0  0  0  0
 15 18  1  0  0  0  0
 17  1  1  1  0  0  0
 17 11  1  0  0  0  0
 19 21  1  6  0  0  0
 19 22  1  0  0  0  0
 20 21  1  0  0  0  0
 22 23  1  1  0  0  0
 22 26  1  0  0  0  0
 23 24  3  0  0  0  0
 24 25  1  0  0  0  0
 26 27  1  0  0  0  0
 28 27  1  0  0  0  0
M  END
>  <MODEL>
8

>  <REMARK>
 VINA RESULT:      -4.5      2.413      5.692
  Name = 
  6 active torsions:
  status: ('A' for Active; 'I' for Inactive)
    1  A    between atoms: C_9  and  C_12
    2  A    between atoms: C_9  and  C_13
    3  A    between atoms: C_9  and  O_14
    4  A    between atoms: C_10  and  C_13
    5  A    between atoms: C_13  and  O_24
    6  A    between atoms: O_14  and  C_18
                            x       y       z     vdW  Elec       q    Type
                         _______ _______ _______ _____ _____    ______ ____

>  <TORSDO>
F 6

$$$$
=
 OpenBabel10262420593D

 28 30  0  0  1  0  0  0  0  0999 V2000
  187.3850  178.8320  140.4750 C   0  0  0  0  0  2  0  0  0  0  0  0
  185.0780  177.5180  141.9380 C   0  0  0  0  0  1  0  0  0  0  0  0
  186.1370  178.3730  142.6350 C   0  0  1  0  0  0  0  0  0  0  0  0
  189.0720  176.2800  140.3060 O   0  0  0  0  0  0  0  0  0  0  0  0
  183.9160  178.0670  144.7740 O   0  0  0  0  0  1  0  0  0  0  0  0
  185.7360  179.7240  142.5930 O   0  0  0  0  0  0  0  0  0  0  0  0
  187.4770  178.3850  144.7970 C   0  0  0  0  0  2  0  0  0  0  0  0
  188.7030  177.8800  144.0630 C   0  0  1  0  0  3  0  0  0  0  0  0
  186.1880  177.9600  144.1060 C   0  0  1  0  0  3  0  0  0  0  0  0
  190.3370  175.6280  142.1090 O   0  0  0  0  0  0  0  0  0  0  0  0
  188.7580  178.4820  142.6530 C   0  0  1  0  0  3  0  0  0  0  0  0
  188.8510  177.1590  139.1970 C   0  0  0  0  0  2  0  0  0  0  0  0
  190.0210  177.9800  141.9250 C   0  0  0  0  0  2  0  0  0  0  0  0
  189.8590  176.5730  141.4300 C   0  0  0  0  0  0  0  0  0  0  0  0
  185.1010  178.7990  144.7130 C   0  0  1  0  0  3  0  0  0  0  0  0
  188.6030  178.6200  139.5790 C   0  0  0  0  0  2  0  0  0  0  0  0
  187.4620  178.1590  141.8600 C   0  0  2  0  0  3  0  0  0  0  0  0
  184.9390  179.9510  143.7370 C   0  0  0  0  0  2  0  0  0  0  0  0
  189.9850  178.1600  144.8700 C   0  0  2  0  0  3  0  0  0  0  0  0
  191.6030  179.5800  144.3440 C   0  0  0  0  0  1  0  0  0  0  0  0
  191.0840  178.3250  144.0220 O   0  0  0  0  0  0  0  0  0  0  0  0
  190.2680  177.1170  145.9620 C   0  0  2  0  0  3  0  0  0  0  0  0
  189.4390  177.3880  147.1420 C   0  0  0  0  0  0  0  0  0  0  0  0
  188.7580  177.6090  148.1110 C   0  0  0  0  0  0  0  0  0  0  0  0
  187.9300  177.8780  149.2870 C   0  0  0  0  0  1  0  0  0  0  0  0
  191.6200  177.1210  146.3230 O   0  0  0  0  0  0  0  0  0  0  0  0
  191.8160  175.9130  146.9980 C   0  0  0  0  0  2  0  0  0  0  0  0
  192.8140  176.0750  147.9580 O   0  0  0  0  0  1  0  0  0  0  0  0
  3  2  1  6  0  0  0
  3  9  1  0  0  0  0
  4 14  1  0  0  0  0
  6  3  1  0  0  0  0
  6 18  1  0  0  0  0
  8  7  1  0  0  0  0
  8 19  1  1  0  0  0
  9 15  1  0  0  0  0
  9  7  1  1  0  0  0
 11 13  1  6  0  0  0
 11  8  1  0  0  0  0
 12 16  1  0  0  0  0
 12  4  1  0  0  0  0
 14 13  1  0  0  0  0
 14 10  2  0  0  0  0
 15  5  1  6  0  0  0
 16  1  1  0  0  0  0
 17  1  1  6  0  0  0
 17  3  1  0  0  0  0
 17 11  1  0  0  0  0
 18 15  1  0  0  0  0
 19 21  1  6  0  0  0
 19 22  1  0  0  0  0
 21 20  1  0  0  0  0
 22 26  1  0  0  0  0
 22 23  1  1  0  0  0
 23 24  3  0  0  0  0
 24 25  1  0  0  0  0
 26 27  1  0  0  0  0
 27 28  1  0  0  0  0
M  END
>  <MODEL>
9

>  <REMARK>
 VINA RESULT:      -4.4      4.796      8.483
  Name = 
  6 active torsions:
  status: ('A' for Active; 'I' for Inactive)
    1  A    between atoms: C_9  and  C_12
    2  A    between atoms: C_9  and  C_13
    3  A    between atoms: C_9  and  O_14
    4  A    between atoms: C_10  and  C_13
    5  A    between atoms: C_13  and  O_24
    6  A    between atoms: O_14  and  C_18
                            x       y       z     vdW  Elec       q    Type
                         _______ _______ _______ _____ _____    ______ ____

>  <TORSDO>
F 6

$$$$
