=
 OpenBabel10262420583D

 28 31  0  0  1  0  0  0  0  0999 V2000
  190.0700  177.5210  141.6650 C   0  0  2  0  0  0  0  0  0  0  0  0
  191.1180  177.9910  143.7900 C   0  0  2  0  0  3  0  0  0  0  0  0
  190.5150  178.6600  142.5480 C   0  0  2  0  0  3  0  0  0  0  0  0
  192.4500  178.3850  143.9200 O   0  0  0  0  0  1  0  0  0  0  0  0
  191.0470  176.5220  143.5300 C   0  0  0  0  0  0  0  0  0  0  0  0
  188.2650  177.5000  143.2410 C   0  0  1  0  0  3  0  0  0  0  0  0
  188.7210  176.0710  142.9520 C   0  0  0  0  0  2  0  0  0  0  0  0
  191.4170  175.6140  144.4330 C   0  0  0  0  0  2  0  0  0  0  0  0
  189.0060  178.4060  142.2580 C   0  0  2  0  0  3  0  0  0  0  0  0
  190.1320  176.2020  142.3980 C   0  0  1  0  0  3  0  0  0  0  0  0
  190.2540  176.6280  139.4350 N   0  0  0  0  0  0  0  0  0  0  0  0
  190.3160  177.6570  140.2000 C   0  0  0  0  0  3  0  0  0  0  0  0
  190.4850  176.7480  138.0190 C   0  0  0  0  0  2  0  0  0  0  0  0
  189.6320  177.8000  137.4510 C   0  0  0  0  0  0  0  0  0  0  0  0
  188.9330  178.6640  136.9840 C   0  0  0  0  0  3  0  0  0  0  0  0
  186.4750  177.6430  142.9840 S   0  0  0  0  0  0  0  0  0  0  0  0
  186.1620  178.1660  144.7070 C   0  0  2  0  0  3  0  0  0  0  0  0
  186.4720  177.0710  145.7350 C   0  0  0  0  0  2  0  0  0  0  0  0
  188.1520  178.5850  148.7790 C   0  0  0  0  0  3  0  0  0  0  0  0
  187.5200  177.4430  146.7350 C   0  0  0  0  0  0  0  0  0  0  0  0
  189.8180  177.3750  147.5050 C   0  0  0  0  0  0  0  0  0  0  0  0
  187.1770  178.2310  147.8400 C   0  0  0  0  0  3  0  0  0  0  0  0
  188.8440  177.0200  146.5660 C   0  0  0  0  0  3  0  0  0  0  0  0
  191.0970  176.9610  147.3410 F   0  0  0  0  0  0  0  0  0  0  0  0
  189.4720  178.1570  148.6110 C   0  0  0  0  0  3  0  0  0  0  0  0
  184.8120  178.8610  144.9090 C   0  0  0  0  0  2  0  0  0  0  0  0
  182.6060  178.9450  143.7870 C   0  0  0  0  0  1  0  0  0  0  0  0
  184.0930  179.1500  143.6010 C   0  0  0  0  0  2  0  0  0  0  0  0
  1 12  1  6  0  0  0
  1  9  1  0  0  0  0
  1 10  1  0  0  0  0
  1  3  1  0  0  0  0
  2  4  1  6  0  0  0
  3  2  1  0  0  0  0
  5  2  1  0  0  0  0
  5  8  2  0  0  0  0
  7  6  1  0  0  0  0
  9  3  1  0  0  0  0
  9  6  1  0  0  0  0
 10  7  1  0  0  0  0
 10  5  1  0  0  0  0
 11 12  2  0  0  0  0
 13 11  1  0  0  0  0
 14 13  1  0  0  0  0
 15 14  3  0  0  0  0
 16  6  1  0  0  0  0
 16 17  1  0  0  0  0
 17 26  1  0  0  0  0
 17 18  1  0  0  0  0
 18 20  1  0  0  0  0
 20 22  1  0  0  0  0
 21 25  2  0  0  0  0
 22 19  2  0  0  0  0
 23 20  2  0  0  0  0
 23 21  1  0  0  0  0
 24 21  1  0  0  0  0
 25 19  1  0  0  0  0
 28 27  1  0  0  0  0
 28 26  1  0  0  0  0
M  END
>  <MODEL>
1

>  <REMARK>
 VINA RESULT:      -7.4      0.000      0.000
  Name = 
  9 active torsions:
  status: ('A' for Active; 'I' for Inactive)
    1  A    between atoms: C_1  and  C_11
    2  A    between atoms: C_6  and  N_8
    3  A    between atoms: C_6  and  C_22
    4  A    between atoms: C_9  and  C_18
    5  A    between atoms: C_10  and  S_14
    6  A    between atoms: C_10  and  C_18
    7  A    between atoms: C_10  and  C_25
    8  A    between atoms: S_14  and  C_17
    9  A    between atoms: C_20  and  C_25
                            x       y       z     vdW  Elec       q    Type
                         _______ _______ _______ _____ _____    ______ ____

>  <TORSDO>
F 9

$$$$
=
 OpenBabel10262420583D

 28 31  0  0  1  0  0  0  0  0999 V2000
  182.8900  177.5390  139.5820 C   0  0  2  0  0  0  0  0  0  0  0  0
  181.5440  179.3040  140.5360 C   0  0  2  0  0  3  0  0  0  0  0  0
  182.0720  177.8880  140.8010 C   0  0  2  0  0  3  0  0  0  0  0  0
  180.1490  179.2820  140.5550 O   0  0  0  0  0  1  0  0  0  0  0  0
  182.0260  179.6630  139.1680 C   0  0  0  0  0  0  0  0  0  0  0  0
  184.4660  178.9600  140.6960 C   0  0  1  0  0  3  0  0  0  0  0  0
  184.4350  179.2850  139.2030 C   0  0  0  0  0  2  0  0  0  0  0  0
  181.8190  180.8630  138.6270 C   0  0  0  0  0  2  0  0  0  0  0  0
  183.6160  177.7030  140.8900 C   0  0  2  0  0  3  0  0  0  0  0  0
  183.1040  178.7460  138.7010 C   0  0  1  0  0  3  0  0  0  0  0  0
  183.5210  175.7530  138.0930 N   0  0  0  0  0  0  0  0  0  0  0  0
  182.7670  176.1500  139.0530 C   0  0  0  0  0  3  0  0  0  0  0  0
  183.4150  174.4130  137.5790 C   0  0  0  0  0  2  0  0  0  0  0  0
  184.7270  173.7550  137.5920 C   0  0  0  0  0  0  0  0  0  0  0  0
  185.8050  173.2160  137.6030 C   0  0  0  0  0  3  0  0  0  0  0  0
  186.1720  178.6390  141.2240 S   0  0  0  0  0  0  0  0  0  0  0  0
  185.7690  178.8270  142.9970 C   0  0  2  0  0  3  0  0  0  0  0  0
  185.9530  177.5330  143.7980 C   0  0  0  0  0  2  0  0  0  0  0  0
  189.4340  177.6520  145.2970 C   0  0  0  0  0  3  0  0  0  0  0  0
  187.0620  177.5810  144.8010 C   0  0  0  0  0  0  0  0  0  0  0  0
  187.8210  177.6250  147.1030 C   0  0  0  0  0  0  0  0  0  0  0  0
  188.3920  177.6100  144.3660 C   0  0  0  0  0  3  0  0  0  0  0  0
  186.7790  177.5830  146.1720 C   0  0  0  0  0  3  0  0  0  0  0  0
  187.5440  177.6320  148.4290 F   0  0  0  0  0  0  0  0  0  0  0  0
  189.1480  177.6600  146.6660 C   0  0  0  0  0  3  0  0  0  0  0  0
  184.4450  179.5520  143.2580 C   0  0  0  0  0  2  0  0  0  0  0  0
  182.2650  178.8630  144.2090 C   0  0  0  0  0  1  0  0  0  0  0  0
  183.7350  179.0570  144.5080 C   0  0  0  0  0  2  0  0  0  0  0  0
  1 12  1  6  0  0  0
  1  3  1  0  0  0  0
  1  9  1  0  0  0  0
  2  4  1  6  0  0  0
  2  3  1  0  0  0  0
  3  9  1  0  0  0  0
  5  2  1  0  0  0  0
  6  9  1  0  0  0  0
  6 16  1  0  0  0  0
  7  6  1  0  0  0  0
  8  5  2  0  0  0  0
 10  5  1  0  0  0  0
 10  7  1  0  0  0  0
 10  1  1  0  0  0  0
 11 12  2  0  0  0  0
 13 14  1  0  0  0  0
 13 11  1  0  0  0  0
 14 15  3  0  0  0  0
 16 17  1  0  0  0  0
 17 26  1  0  0  0  0
 17 18  1  0  0  0  0
 18 20  1  0  0  0  0
 19 25  1  0  0  0  0
 20 23  2  0  0  0  0
 21 24  1  0  0  0  0
 22 20  1  0  0  0  0
 22 19  2  0  0  0  0
 23 21  1  0  0  0  0
 25 21  2  0  0  0  0
 26 28  1  0  0  0  0
 27 28  1  0  0  0  0
M  END
>  <MODEL>
2

>  <REMARK>
 VINA RESULT:      -7.0      4.449      6.407
  Name = 
  9 active torsions:
  status: ('A' for Active; 'I' for Inactive)
    1  A    between atoms: C_1  and  C_11
    2  A    between atoms: C_6  and  N_8
    3  A    between atoms: C_6  and  C_22
    4  A    between atoms: C_9  and  C_18
    5  A    between atoms: C_10  and  S_14
    6  A    between atoms: C_10  and  C_18
    7  A    between atoms: C_10  and  C_25
    8  A    between atoms: S_14  and  C_17
    9  A    between atoms: C_20  and  C_25
                            x       y       z     vdW  Elec       q    Type
                         _______ _______ _______ _____ _____    ______ ____

>  <TORSDO>
F 9

$$$$
=
 OpenBabel10262420583D

 28 31  0  0  1  0  0  0  0  0999 V2000
  182.9280  177.4990  139.5310 C   0  0  2  0  0  0  0  0  0  0  0  0
  181.5680  179.2650  140.4640 C   0  0  2  0  0  3  0  0  0  0  0  0
  182.0980  177.8510  140.7400 C   0  0  2  0  0  3  0  0  0  0  0  0
  180.1730  179.2390  140.4700 O   0  0  0  0  0  1  0  0  0  0  0  0
  182.0630  179.6200  139.1000 C   0  0  0  0  0  0  0  0  0  0  0  0
  184.4890  178.9280  140.6540 C   0  0  1  0  0  3  0  0  0  0  0  0
  184.4730  179.2480  139.1600 C   0  0  0  0  0  2  0  0  0  0  0  0
  181.8590  180.8170  138.5520 C   0  0  0  0  0  2  0  0  0  0  0  0
  183.6410  177.6710  140.8460 C   0  0  2  0  0  3  0  0  0  0  0  0
  183.1480  178.7040  138.6470 C   0  0  1  0  0  3  0  0  0  0  0  0
  183.3860  175.7830  137.9040 N   0  0  0  0  0  0  0  0  0  0  0  0
  182.8140  176.1080  139.0060 C   0  0  0  0  0  3  0  0  0  0  0  0
  183.2870  174.4410  137.3910 C   0  0  0  0  0  2  0  0  0  0  0  0
  184.5560  173.7280  137.5790 C   0  0  0  0  0  0  0  0  0  0  0  0
  185.5980  173.1400  137.7340 C   0  0  0  0  0  3  0  0  0  0  0  0
  186.1910  178.6140  141.2010 S   0  0  0  0  0  0  0  0  0  0  0  0
  185.7690  178.8010  142.9700 C   0  0  2  0  0  3  0  0  0  0  0  0
  185.8940  177.4940  143.7610 C   0  0  0  0  0  2  0  0  0  0  0  0
  187.8410  177.7290  147.0070 C   0  0  0  0  0  3  0  0  0  0  0  0
  187.0270  177.4700  144.7370 C   0  0  0  0  0  0  0  0  0  0  0  0
  189.3830  177.1700  145.2250 C   0  0  0  0  0  0  0  0  0  0  0  0
  186.7860  177.7460  146.0880 C   0  0  0  0  0  3  0  0  0  0  0  0
  188.3290  177.1870  144.3060 C   0  0  0  0  0  3  0  0  0  0  0  0
  190.6410  176.8920  144.8060 F   0  0  0  0  0  0  0  0  0  0  0  0
  189.1400  177.4400  146.5740 C   0  0  0  0  0  3  0  0  0  0  0  0
  184.4670  179.5700  143.2180 C   0  0  0  0  0  2  0  0  0  0  0  0
  182.2780  178.8720  144.1420 C   0  0  0  0  0  1  0  0  0  0  0  0
  183.7360  179.1100  144.4690 C   0  0  0  0  0  2  0  0  0  0  0  0
  1 12  1  6  0  0  0
  1  3  1  0  0  0  0
  1  9  1  0  0  0  0
  2  4  1  6  0  0  0
  2  3  1  0  0  0  0
  3  9  1  0  0  0  0
  5  2  1  0  0  0  0
  6  9  1  0  0  0  0
  6 16  1  0  0  0  0
  7  6  1  0  0  0  0
  8  5  2  0  0  0  0
 10  5  1  0  0  0  0
 10  7  1  0  0  0  0
 10  1  1  0  0  0  0
 11 12  2  0  0  0  0
 13 14  1  0  0  0  0
 13 11  1  0  0  0  0
 14 15  3  0  0  0  0
 16 17  1  0  0  0  0
 17 26  1  0  0  0  0
 17 18  1  0  0  0  0
 18 20  1  0  0  0  0
 20 22  1  0  0  0  0
 21 25  2  0  0  0  0
 22 19  2  0  0  0  0
 23 20  2  0  0  0  0
 23 21  1  0  0  0  0
 24 21  1  0  0  0  0
 25 19  1  0  0  0  0
 26 28  1  0  0  0  0
 27 28  1  0  0  0  0
M  END
>  <MODEL>
3

>  <REMARK>
 VINA RESULT:      -6.9      4.466      6.351
  Name = 
  9 active torsions:
  status: ('A' for Active; 'I' for Inactive)
    1  A    between atoms: C_1  and  C_11
    2  A    between atoms: C_6  and  N_8
    3  A    between atoms: C_6  and  C_22
    4  A    between atoms: C_9  and  C_18
    5  A    between atoms: C_10  and  S_14
    6  A    between atoms: C_10  and  C_18
    7  A    between atoms: C_10  and  C_25
    8  A    between atoms: S_14  and  C_17
    9  A    between atoms: C_20  and  C_25
                            x       y       z     vdW  Elec       q    Type
                         _______ _______ _______ _____ _____    ______ ____

>  <TORSDO>
F 9

$$$$
=
 OpenBabel10262420583D

 28 31  0  0  1  0  0  0  0  0999 V2000
  190.3820  177.4750  142.2880 C   0  0  2  0  0  0  0  0  0  0  0  0
  191.1840  178.4340  144.3550 C   0  0  2  0  0  3  0  0  0  0  0  0
  190.6010  178.7960  142.9810 C   0  0  2  0  0  3  0  0  0  0  0  0
  192.4390  179.0300  144.4890 O   0  0  0  0  0  1  0  0  0  0  0  0
  191.3270  176.9480  144.3510 C   0  0  0  0  0  0  0  0  0  0  0  0
  188.4740  177.4570  143.7370 C   0  0  1  0  0  3  0  0  0  0  0  0
  189.1350  176.0800  143.7290 C   0  0  0  0  0  2  0  0  0  0  0  0
  191.7390  176.2640  145.4180 C   0  0  0  0  0  2  0  0  0  0  0  0
  189.1670  178.2850  142.6540 C   0  0  2  0  0  3  0  0  0  0  0  0
  190.5560  176.3180  143.2420 C   0  0  1  0  0  3  0  0  0  0  0  0
  189.8730  176.9460  139.9930 N   0  0  0  0  0  0  0  0  0  0  0  0
  190.7260  177.4000  140.8380 C   0  0  0  0  0  3  0  0  0  0  0  0
  190.1920  176.8750  138.5910 C   0  0  0  0  0  2  0  0  0  0  0  0
  189.5610  177.9850  137.8670 C   0  0  0  0  0  0  0  0  0  0  0  0
  189.0430  178.8980  137.2730 C   0  0  0  0  0  3  0  0  0  0  0  0
  186.7070  177.2980  143.3570 S   0  0  0  0  0  0  0  0  0  0  0  0
  186.1900  178.0460  144.9420 C   0  0  2  0  0  3  0  0  0  0  0  0
  185.3080  179.2870  144.7630 C   0  0  0  0  0  2  0  0  0  0  0  0
  181.6850  178.7130  143.8030 C   0  0  0  0  0  3  0  0  0  0  0  0
  184.0810  179.0580  143.9390 C   0  0  0  0  0  0  0  0  0  0  0  0
  183.0200  178.7390  141.7820 C   0  0  0  0  0  0  0  0  0  0  0  0
  182.8360  178.9310  144.5660 C   0  0  0  0  0  3  0  0  0  0  0  0
  184.1710  178.9570  142.5460 C   0  0  0  0  0  3  0  0  0  0  0  0
  183.1090  178.6450  140.4340 F   0  0  0  0  0  0  0  0  0  0  0  0
  181.7770  178.6180  142.4110 C   0  0  0  0  0  3  0  0  0  0  0  0
  187.3340  178.2210  145.9470 C   0  0  0  0  0  2  0  0  0  0  0  0
  188.1370  177.8970  148.2660 C   0  0  0  0  0  1  0  0  0  0  0  0
  187.0910  177.4840  147.2540 C   0  0  0  0  0  2  0  0  0  0  0  0
  1 12  1  6  0  0  0
  1  9  1  0  0  0  0
  1  3  1  0  0  0  0
  1 10  1  0  0  0  0
  2  4  1  6  0  0  0
  3  2  1  0  0  0  0
  5  2  1  0  0  0  0
  5  8  2  0  0  0  0
  7  6  1  0  0  0  0
  9  3  1  0  0  0  0
  9  6  1  0  0  0  0
 10  7  1  0  0  0  0
 10  5  1  0  0  0  0
 11 12  2  0  0  0  0
 13 11  1  0  0  0  0
 14 13  1  0  0  0  0
 15 14  3  0  0  0  0
 16  6  1  0  0  0  0
 16 17  1  0  0  0  0
 17 26  1  0  0  0  0
 18 17  1  0  0  0  0
 19 22  1  0  0  0  0
 20 22  2  0  0  0  0
 20 18  1  0  0  0  0
 21 25  1  0  0  0  0
 21 23  2  0  0  0  0
 23 20  1  0  0  0  0
 24 21  1  0  0  0  0
 25 19  2  0  0  0  0
 26 28  1  0  0  0  0
 28 27  1  0  0  0  0
M  END
>  <MODEL>
4

>  <REMARK>
 VINA RESULT:      -6.8      2.213      4.450
  Name = 
  9 active torsions:
  status: ('A' for Active; 'I' for Inactive)
    1  A    between atoms: C_1  and  C_11
    2  A    between atoms: C_6  and  N_8
    3  A    between atoms: C_6  and  C_22
    4  A    between atoms: C_9  and  C_18
    5  A    between atoms: C_10  and  S_14
    6  A    between atoms: C_10  and  C_18
    7  A    between atoms: C_10  and  C_25
    8  A    between atoms: S_14  and  C_17
    9  A    between atoms: C_20  and  C_25
                            x       y       z     vdW  Elec       q    Type
                         _______ _______ _______ _____ _____    ______ ____

>  <TORSDO>
F 9

$$$$
=
 OpenBabel10262420583D

 28 31  0  0  1  0  0  0  0  0999 V2000
  190.1000  176.8210  137.5020 C   0  0  2  0  0  0  0  0  0  0  0  0
  187.7570  176.2840  137.2560 C   0  0  2  0  0  3  0  0  0  0  0  0
  189.1220  175.6780  137.6090 C   0  0  2  0  0  3  0  0  0  0  0  0
  187.2340  175.6170  136.1480 O   0  0  0  0  0  1  0  0  0  0  0  0
  188.0300  177.7110  136.9060 C   0  0  0  0  0  0  0  0  0  0  0  0
  189.1360  177.3520  139.6300 C   0  0  1  0  0  3  0  0  0  0  0  0
  189.2780  178.6210  138.7920 C   0  0  0  0  0  2  0  0  0  0  0  0
  187.0590  178.5760  136.6150 C   0  0  0  0  0  2  0  0  0  0  0  0
  189.8510  176.2370  138.8670 C   0  0  2  0  0  3  0  0  0  0  0  0
  189.3840  178.1430  137.3520 C   0  0  1  0  0  3  0  0  0  0  0  0
  192.3380  175.9300  137.5510 N   0  0  0  0  0  0  0  0  0  0  0  0
  191.4230  176.5310  136.8780 C   0  0  0  0  0  3  0  0  0  0  0  0
  193.6170  175.6400  136.9570 C   0  0  0  0  0  2  0  0  0  0  0  0
  194.4510  174.8740  137.8910 C   0  0  0  0  0  0  0  0  0  0  0  0
  195.1370  174.2470  138.6590 C   0  0  0  0  0  3  0  0  0  0  0  0
  189.9190  177.5890  141.2510 S   0  0  0  0  0  0  0  0  0  0  0  0
  188.3200  177.8210  142.1060 C   0  0  2  0  0  3  0  0  0  0  0  0
  187.9770  176.6740  143.0630 C   0  0  0  0  0  2  0  0  0  0  0  0
  186.5220  177.8450  146.3640 C   0  0  0  0  0  3  0  0  0  0  0  0
  187.8700  177.0800  144.4990 C   0  0  0  0  0  0  0  0  0  0  0  0
  188.8980  177.4790  146.6580 C   0  0  0  0  0  0  0  0  0  0  0  0
  186.6290  177.4610  145.0230 C   0  0  0  0  0  3  0  0  0  0  0  0
  189.0050  177.0950  145.3180 C   0  0  0  0  0  3  0  0  0  0  0  0
  189.9970  177.4890  147.4500 F   0  0  0  0  0  0  0  0  0  0  0  0
  187.6570  177.8530  147.1810 C   0  0  0  0  0  3  0  0  0  0  0  0
  187.1750  178.2360  141.1760 C   0  0  0  0  0  2  0  0  0  0  0  0
  184.8010  178.4190  141.8550 C   0  0  0  0  0  1  0  0  0  0  0  0
  186.1430  179.1160  141.8640 C   0  0  0  0  0  2  0  0  0  0  0  0
  1 12  1  6  0  0  0
  1  3  1  0  0  0  0
  1  9  1  0  0  0  0
  2  4  1  6  0  0  0
  2  3  1  0  0  0  0
  3  9  1  0  0  0  0
  5  2  1  0  0  0  0
  5 10  1  0  0  0  0
  6 16  1  0  0  0  0
  7  6  1  0  0  0  0
  8  5  2  0  0  0  0
  9  6  1  0  0  0  0
 10  1  1  0  0  0  0
 10  7  1  0  0  0  0
 12 11  2  0  0  0  0
 13 11  1  0  0  0  0
 13 14  1  0  0  0  0
 14 15  3  0  0  0  0
 16 17  1  0  0  0  0
 17 18  1  0  0  0  0
 18 20  1  0  0  0  0
 19 25  1  0  0  0  0
 20 22  1  0  0  0  0
 20 23  2  0  0  0  0
 21 25  2  0  0  0  0
 21 24  1  0  0  0  0
 22 19  2  0  0  0  0
 23 21  1  0  0  0  0
 26 28  1  0  0  0  0
 26 17  1  0  0  0  0
 27 28  1  0  0  0  0
M  END
>  <MODEL>
5

>  <REMARK>
 VINA RESULT:      -6.8      2.841      4.874
  Name = 
  9 active torsions:
  status: ('A' for Active; 'I' for Inactive)
    1  A    between atoms: C_1  and  C_11
    2  A    between atoms: C_6  and  N_8
    3  A    between atoms: C_6  and  C_22
    4  A    between atoms: C_9  and  C_18
    5  A    between atoms: C_10  and  S_14
    6  A    between atoms: C_10  and  C_18
    7  A    between atoms: C_10  and  C_25
    8  A    between atoms: S_14  and  C_17
    9  A    between atoms: C_20  and  C_25
                            x       y       z     vdW  Elec       q    Type
                         _______ _______ _______ _____ _____    ______ ____

>  <TORSDO>
F 9

$$$$
=
 OpenBabel10262420583D

 28 31  0  0  1  0  0  0  0  0999 V2000
  188.6930  177.2480  143.7710 C   0  0  2  0  0  0  0  0  0  0  0  0
  190.9310  176.4390  143.3510 C   0  0  2  0  0  3  0  0  0  0  0  0
  189.4560  176.0140  143.3590 C   0  0  2  0  0  3  0  0  0  0  0  0
  191.6410  175.6420  144.2480 O   0  0  0  0  0  1  0  0  0  0  0  0
  190.9420  177.8590  143.8160 C   0  0  0  0  0  0  0  0  0  0  0  0
  189.1170  177.8170  141.4830 C   0  0  1  0  0  3  0  0  0  0  0  0
  189.3620  179.0320  142.3760 C   0  0  0  0  0  2  0  0  0  0  0  0
  192.0550  178.5890  143.8650 C   0  0  0  0  0  2  0  0  0  0  0  0
  188.4960  176.7370  142.3690 C   0  0  2  0  0  3  0  0  0  0  0  0
  189.5830  178.4680  143.7710 C   0  0  1  0  0  3  0  0  0  0  0  0
  187.1200  178.0530  145.4080 N   0  0  0  0  0  0  0  0  0  0  0  0
  187.5570  177.0620  144.7190 C   0  0  0  0  0  3  0  0  0  0  0  0
  186.0200  177.8860  146.3220 C   0  0  0  0  0  2  0  0  0  0  0  0
  184.8040  178.4990  145.7740 C   0  0  0  0  0  0  0  0  0  0  0  0
  183.8040  179.0030  145.3260 C   0  0  0  0  0  3  0  0  0  0  0  0
  187.9690  178.2530  140.1460 S   0  0  0  0  0  0  0  0  0  0  0  0
  189.1210  177.7070  138.8370 C   0  0  2  0  0  3  0  0  0  0  0  0
  190.5050  177.3210  139.3730 C   0  0  0  0  0  2  0  0  0  0  0  0
  191.1740  174.2900  137.1950 C   0  0  0  0  0  3  0  0  0  0  0  0
  191.2240  176.3020  138.5470 C   0  0  0  0  0  0  0  0  0  0  0  0
  193.2740  175.4280  137.5930 C   0  0  0  0  0  0  0  0  0  0  0  0
  190.5080  175.2480  137.9660 C   0  0  0  0  0  3  0  0  0  0  0  0
  192.6090  176.3870  138.3640 C   0  0  0  0  0  3  0  0  0  0  0  0
  194.6140  175.5140  137.4140 F   0  0  0  0  0  0  0  0  0  0  0  0
  192.5570  174.3800  137.0090 C   0  0  0  0  0  3  0  0  0  0  0  0
  189.1500  178.6280  137.6130 C   0  0  0  0  0  2  0  0  0  0  0  0
  189.0560  177.5290  135.3960 C   0  0  0  0  0  1  0  0  0  0  0  0
  188.2310  178.1590  136.4970 C   0  0  0  0  0  2  0  0  0  0  0  0
  1 12  1  1  0  0  0
  2  3  1  0  0  0  0
  2  5  1  0  0  0  0
  2  4  1  1  0  0  0
  3  1  1  0  0  0  0
  5  8  2  0  0  0  0
  6  9  1  0  0  0  0
  6  7  1  0  0  0  0
  7 10  1  0  0  0  0
  9  3  1  0  0  0  0
  9  1  1  0  0  0  0
 10  1  1  0  0  0  0
 10  5  1  0  0  0  0
 11 13  1  0  0  0  0
 12 11  2  0  0  0  0
 14 13  1  0  0  0  0
 15 14  3  0  0  0  0
 16  6  1  0  0  0  0
 17 18  1  0  0  0  0
 17 16  1  0  0  0  0
 19 22  1  0  0  0  0
 20 18  1  0  0  0  0
 21 23  2  0  0  0  0
 22 20  2  0  0  0  0
 23 20  1  0  0  0  0
 24 21  1  0  0  0  0
 25 19  2  0  0  0  0
 25 21  1  0  0  0  0
 26 17  1  0  0  0  0
 27 28  1  0  0  0  0
 28 26  1  0  0  0  0
M  END
>  <MODEL>
6

>  <REMARK>
 VINA RESULT:      -6.6      3.018      7.584
  Name = 
  9 active torsions:
  status: ('A' for Active; 'I' for Inactive)
    1  A    between atoms: C_1  and  C_11
    2  A    between atoms: C_6  and  N_8
    3  A    between atoms: C_6  and  C_22
    4  A    between atoms: C_9  and  C_18
    5  A    between atoms: C_10  and  S_14
    6  A    between atoms: C_10  and  C_18
    7  A    between atoms: C_10  and  C_25
    8  A    between atoms: S_14  and  C_17
    9  A    between atoms: C_20  and  C_25
                            x       y       z     vdW  Elec       q    Type
                         _______ _______ _______ _____ _____    ______ ____

>  <TORSDO>
F 9

$$$$
=
 OpenBabel10262420583D

 28 31  0  0  1  0  0  0  0  0999 V2000
  187.6820  176.7790  137.7990 C   0  0  2  0  0  0  0  0  0  0  0  0
  189.3940  178.1930  136.8490 C   0  0  2  0  0  3  0  0  0  0  0  0
  187.8760  178.0660  137.0370 C   0  0  2  0  0  3  0  0  0  0  0  0
  189.6830  178.2400  135.4840 O   0  0  0  0  0  1  0  0  0  0  0  0
  189.9780  176.9560  137.4480 C   0  0  0  0  0  0  0  0  0  0  0  0
  188.3710  178.1860  139.6120 C   0  0  1  0  0  3  0  0  0  0  0  0
  189.0720  176.8310  139.7080 C   0  0  0  0  0  2  0  0  0  0  0  0
  191.2930  176.7520  137.5340 C   0  0  0  0  0  2  0  0  0  0  0  0
  187.3320  178.0660  138.4960 C   0  0  2  0  0  3  0  0  0  0  0  0
  188.9960  176.2390  138.3090 C   0  0  1  0  0  3  0  0  0  0  0  0
  185.3330  176.3190  137.5200 N   0  0  0  0  0  0  0  0  0  0  0  0
  186.5420  175.9080  137.3880 C   0  0  0  0  0  3  0  0  0  0  0  0
  184.2260  175.4890  137.1210 C   0  0  0  0  0  2  0  0  0  0  0  0
  184.4880  174.0870  137.4690 C   0  0  0  0  0  0  0  0  0  0  0  0
  184.7030  172.9360  137.7560 C   0  0  0  0  0  3  0  0  0  0  0  0
  187.5490  178.5700  141.1830 S   0  0  0  0  0  0  0  0  0  0  0  0
  188.6920  177.5290  142.1570 C   0  0  2  0  0  3  0  0  0  0  0  0
  187.9700  176.5490  143.0880 C   0  0  0  0  0  2  0  0  0  0  0  0
  188.0700  177.6650  146.7110 C   0  0  0  0  0  3  0  0  0  0  0  0
  187.5570  177.1350  144.4010 C   0  0  0  0  0  0  0  0  0  0  0  0
  185.9010  178.2300  145.7930 C   0  0  0  0  0  0  0  0  0  0  0  0
  188.4490  177.1210  145.4800 C   0  0  0  0  0  3  0  0  0  0  0  0
  186.2800  177.6860  144.5620 C   0  0  0  0  0  3  0  0  0  0  0  0
  184.6660  178.7660  145.9450 F   0  0  0  0  0  0  0  0  0  0  0  0
  186.7950  178.2200  146.8670 C   0  0  0  0  0  3  0  0  0  0  0  0
  189.8300  178.3120  142.8210 C   0  0  0  0  0  2  0  0  0  0  0  0
  191.6070  176.7520  143.5530 C   0  0  0  0  0  1  0  0  0  0  0  0
  191.2040  177.7530  142.4920 C   0  0  0  0  0  2  0  0  0  0  0  0
  1 12  1  6  0  0  0
  1 10  1  0  0  0  0
  1  9  1  0  0  0  0
  2  4  1  6  0  0  0
  2  3  1  0  0  0  0
  2  5  1  0  0  0  0
  3  1  1  0  0  0  0
  3  9  1  0  0  0  0
  5  8  2  0  0  0  0
  5 10  1  0  0  0  0
  6  7  1  0  0  0  0
  6 16  1  0  0  0  0
  9  6  1  0  0  0  0
 10  7  1  0  0  0  0
 12 11  2  0  0  0  0
 13 14  1  0  0  0  0
 13 11  1  0  0  0  0
 14 15  3  0  0  0  0
 16 17  1  0  0  0  0
 17 26  1  0  0  0  0
 17 18  1  0  0  0  0
 18 20  1  0  0  0  0
 19 25  1  0  0  0  0
 20 23  2  0  0  0  0
 20 22  1  0  0  0  0
 21 24  1  0  0  0  0
 21 25  2  0  0  0  0
 22 19  2  0  0  0  0
 23 21  1  0  0  0  0
 28 26  1  0  0  0  0
 28 27  1  0  0  0  0
M  END
>  <MODEL>
7

>  <REMARK>
 VINA RESULT:      -6.4      3.410      5.431
  Name = 
  9 active torsions:
  status: ('A' for Active; 'I' for Inactive)
    1  A    between atoms: C_1  and  C_11
    2  A    between atoms: C_6  and  N_8
    3  A    between atoms: C_6  and  C_22
    4  A    between atoms: C_9  and  C_18
    5  A    between atoms: C_10  and  S_14
    6  A    between atoms: C_10  and  C_18
    7  A    between atoms: C_10  and  C_25
    8  A    between atoms: S_14  and  C_17
    9  A    between atoms: C_20  and  C_25
                            x       y       z     vdW  Elec       q    Type
                         _______ _______ _______ _____ _____    ______ ____

>  <TORSDO>
F 9

$$$$
=
 OpenBabel10262420583D

 28 31  0  0  1  0  0  0  0  0999 V2000
  190.5530  177.4750  142.2580 C   0  0  2  0  0  0  0  0  0  0  0  0
  191.2030  178.2920  144.4370 C   0  0  2  0  0  3  0  0  0  0  0  0
  190.7660  178.7490  143.0380 C   0  0  2  0  0  3  0  0  0  0  0  0
  192.4650  178.8180  144.7150 O   0  0  0  0  0  1  0  0  0  0  0  0
  191.2790  176.8020  144.3670 C   0  0  0  0  0  0  0  0  0  0  0  0
  188.5210  177.4810  143.5270 C   0  0  1  0  0  3  0  0  0  0  0  0
  189.1180  176.0750  143.5050 C   0  0  0  0  0  2  0  0  0  0  0  0
  191.5590  176.0480  145.4300 C   0  0  0  0  0  2  0  0  0  0  0  0
  189.3470  178.3250  142.5560 C   0  0  2  0  0  3  0  0  0  0  0  0
  190.5870  176.2660  143.1620 C   0  0  1  0  0  3  0  0  0  0  0  0
  190.4870  176.6600  139.9920 N   0  0  0  0  0  0  0  0  0  0  0  0
  191.0270  177.4550  140.8430 C   0  0  0  0  0  3  0  0  0  0  0  0
  190.9320  176.6360  138.6230 C   0  0  0  0  0  2  0  0  0  0  0  0
  192.3940  176.7510  138.5600 C   0  0  0  0  0  0  0  0  0  0  0  0
  193.5950  176.8450  138.5090 C   0  0  0  0  0  3  0  0  0  0  0  0
  186.7910  177.4280  142.9800 S   0  0  0  0  0  0  0  0  0  0  0  0
  186.1400  177.6500  144.6730 C   0  0  2  0  0  3  0  0  0  0  0  0
  185.2360  178.8800  144.8150 C   0  0  0  0  0  2  0  0  0  0  0  0
  181.5860  178.9490  143.7870 C   0  0  0  0  0  3  0  0  0  0  0  0
  184.0010  178.8390  143.9710 C   0  0  0  0  0  0  0  0  0  0  0  0
  182.9350  178.5980  141.8070 C   0  0  0  0  0  0  0  0  0  0  0  0
  182.7450  178.9890  144.5690 C   0  0  0  0  0  3  0  0  0  0  0  0
  184.0940  178.6380  142.5890 C   0  0  0  0  0  3  0  0  0  0  0  0
  183.0280  178.4060  140.4690 F   0  0  0  0  0  0  0  0  0  0  0  0
  181.6820  178.7540  142.4050 C   0  0  0  0  0  3  0  0  0  0  0  0
  187.2020  177.5140  145.7690 C   0  0  0  0  0  2  0  0  0  0  0  0
  187.8330  177.9570  148.1220 C   0  0  0  0  0  1  0  0  0  0  0  0
  186.8870  178.3410  147.0050 C   0  0  0  0  0  2  0  0  0  0  0  0
  1 12  1  6  0  0  0
  1  9  1  0  0  0  0
  1  3  1  0  0  0  0
  1 10  1  0  0  0  0
  2  4  1  6  0  0  0
  3  2  1  0  0  0  0
  5  2  1  0  0  0  0
  5  8  2  0  0  0  0
  7  6  1  0  0  0  0
  9  3  1  0  0  0  0
  9  6  1  0  0  0  0
 10  7  1  0  0  0  0
 10  5  1  0  0  0  0
 11 12  2  0  0  0  0
 13 11  1  0  0  0  0
 14 13  1  0  0  0  0
 15 14  3  0  0  0  0
 16  6  1  0  0  0  0
 16 17  1  0  0  0  0
 17 18  1  0  0  0  0
 17 26  1  0  0  0  0
 19 22  1  0  0  0  0
 20 22  2  0  0  0  0
 20 18  1  0  0  0  0
 21 25  1  0  0  0  0
 21 23  2  0  0  0  0
 23 20  1  0  0  0  0
 24 21  1  0  0  0  0
 25 19  2  0  0  0  0
 26 28  1  0  0  0  0
 28 27  1  0  0  0  0
M  END
>  <MODEL>
8

>  <REMARK>
 VINA RESULT:      -6.4      2.337      4.567
  Name = 
  9 active torsions:
  status: ('A' for Active; 'I' for Inactive)
    1  A    between atoms: C_1  and  C_11
    2  A    between atoms: C_6  and  N_8
    3  A    between atoms: C_6  and  C_22
    4  A    between atoms: C_9  and  C_18
    5  A    between atoms: C_10  and  S_14
    6  A    between atoms: C_10  and  C_18
    7  A    between atoms: C_10  and  C_25
    8  A    between atoms: S_14  and  C_17
    9  A    between atoms: C_20  and  C_25
                            x       y       z     vdW  Elec       q    Type
                         _______ _______ _______ _____ _____    ______ ____

>  <TORSDO>
F 9

$$$$
=
 OpenBabel10262420583D

 28 31  0  0  1  0  0  0  0  0999 V2000
  188.7610  177.4320  143.9100 C   0  0  2  0  0  0  0  0  0  0  0  0
  190.1830  175.8790  142.7240 C   0  0  2  0  0  3  0  0  0  0  0  0
  188.8210  176.0070  143.4200 C   0  0  2  0  0  3  0  0  0  0  0  0
  190.9270  174.8820  143.3560 O   0  0  0  0  0  1  0  0  0  0  0  0
  190.8520  177.2020  142.9060 C   0  0  0  0  0  0  0  0  0  0  0  0
  188.2640  177.8100  141.5970 C   0  0  1  0  0  3  0  0  0  0  0  0
  189.2570  178.8590  142.0950 C   0  0  0  0  0  2  0  0  0  0  0  0
  192.0350  177.4880  142.3630 C   0  0  0  0  0  2  0  0  0  0  0  0
  187.8030  177.0230  142.8240 C   0  0  2  0  0  3  0  0  0  0  0  0
  189.8910  178.2560  143.3390 C   0  0  1  0  0  3  0  0  0  0  0  0
  186.9430  177.9780  145.3930 N   0  0  0  0  0  0  0  0  0  0  0  0
  188.1810  177.6640  145.2640 C   0  0  0  0  0  3  0  0  0  0  0  0
  186.3710  178.2000  146.6950 C   0  0  0  0  0  2  0  0  0  0  0  0
  187.4160  178.1580  147.7250 C   0  0  0  0  0  0  0  0  0  0  0  0
  188.2740  178.1240  148.5720 C   0  0  0  0  0  3  0  0  0  0  0  0
  186.8430  178.6240  140.8160 S   0  0  0  0  0  0  0  0  0  0  0  0
  187.2870  178.0290  139.1460 C   0  0  2  0  0  3  0  0  0  0  0  0
  188.5940  178.6310  138.6180 C   0  0  0  0  0  2  0  0  0  0  0  0
  191.3290  176.0050  138.7050 C   0  0  0  0  0  3  0  0  0  0  0  0
  189.6020  177.6200  138.1700 C   0  0  0  0  0  0  0  0  0  0  0  0
  190.7230  176.4070  136.3950 C   0  0  0  0  0  0  0  0  0  0  0  0
  190.3830  176.9490  139.1170 C   0  0  0  0  0  3  0  0  0  0  0  0
  189.7770  177.3510  136.8070 C   0  0  0  0  0  3  0  0  0  0  0  0
  190.8880  176.1450  135.0770 F   0  0  0  0  0  0  0  0  0  0  0  0
  191.4980  175.7330  137.3440 C   0  0  0  0  0  3  0  0  0  0  0  0
  186.1250  178.0630  138.1470 C   0  0  0  0  0  2  0  0  0  0  0  0
  186.3010  177.2610  135.8110 C   0  0  0  0  0  1  0  0  0  0  0  0
  186.0810  176.8390  137.2470 C   0  0  0  0  0  2  0  0  0  0  0  0
  1 12  1  1  0  0  0
  2  5  1  0  0  0  0
  2  4  1  1  0  0  0
  2  3  1  0  0  0  0
  3  1  1  0  0  0  0
  5 10  1  0  0  0  0
  6  7  1  0  0  0  0
  6  9  1  0  0  0  0
  7 10  1  0  0  0  0
  8  5  2  0  0  0  0
  9  3  1  0  0  0  0
  9  1  1  0  0  0  0
 10  1  1  0  0  0  0
 11 13  1  0  0  0  0
 12 11  2  0  0  0  0
 13 14  1  0  0  0  0
 14 15  3  0  0  0  0
 16  6  1  0  0  0  0
 17 16  1  0  0  0  0
 18 17  1  0  0  0  0
 19 22  1  0  0  0  0
 20 18  1  0  0  0  0
 20 22  2  0  0  0  0
 21 23  2  0  0  0  0
 21 25  1  0  0  0  0
 23 20  1  0  0  0  0
 24 21  1  0  0  0  0
 25 19  2  0  0  0  0
 26 17  1  0  0  0  0
 27 28  1  0  0  0  0
 28 26  1  0  0  0  0
M  END
>  <MODEL>
9

>  <REMARK>
 VINA RESULT:      -6.3      3.267      7.449
  Name = 
  9 active torsions:
  status: ('A' for Active; 'I' for Inactive)
    1  A    between atoms: C_1  and  C_11
    2  A    between atoms: C_6  and  N_8
    3  A    between atoms: C_6  and  C_22
    4  A    between atoms: C_9  and  C_18
    5  A    between atoms: C_10  and  S_14
    6  A    between atoms: C_10  and  C_18
    7  A    between atoms: C_10  and  C_25
    8  A    between atoms: S_14  and  C_17
    9  A    between atoms: C_20  and  C_25
                            x       y       z     vdW  Elec       q    Type
                         _______ _______ _______ _____ _____    ______ ____

>  <TORSDO>
F 9

$$$$
