=
 OpenBabel10262420353D

 55 60  0  0  1  0  0  0  0  0999 V2000
  185.3690  176.9170  134.9860 N   0  0  0  0  0  0  0  0  0  0  0  0
  187.3560  177.0710  136.8990 C   0  0  0  0  0  0  0  0  0  0  0  0
  186.0120  177.0590  137.2820 C   0  0  0  0  0  3  0  0  0  0  0  0
  186.6720  176.9220  134.5940 C   0  0  0  0  0  3  0  0  0  0  0  0
  185.0220  176.9780  136.3010 C   0  0  0  0  0  0  0  0  0  0  0  0
  187.6900  177.0010  135.5460 C   0  0  0  0  0  3  0  0  0  0  0  0
  183.5890  177.0250  136.6900 C   0  0  0  0  0  2  0  0  0  0  0  0
  183.4350  176.5350  138.1220 C   0  0  0  0  0  2  0  0  0  0  0  0
  179.8980  180.2490  138.3300 C   0  0  0  0  0  2  0  0  0  0  0  0
  179.9320  182.4410  137.1440 C   0  0  0  0  0  1  0  0  0  0  0  0
  182.1740  180.4060  138.6290 C   0  0  0  0  0  0  0  0  0  0  0  0
  181.7180  181.7030  138.5690 O   0  0  0  0  0  0  0  0  0  0  0  0
  180.3050  181.7250  138.4250 C   0  0  2  0  0  3  0  0  0  0  0  0
  181.1920  179.5380  138.5370 C   0  0  0  0  0  0  0  0  0  0  0  0
  183.7790  178.6730  139.4420 C   0  0  2  0  0  3  0  0  0  0  0  0
  183.6120  180.0170  138.7180 C   0  0  0  0  0  2  0  0  0  0  0  0
  181.4190  178.0540  138.4460 C   0  0  1  0  0  3  0  0  0  0  0  0
  182.7760  177.5760  139.0180 C   0  0  1  0  0  3  0  0  0  0  0  0
  185.0890  179.0580  141.5290 C   0  0  0  0  0  3  0  0  0  0  0  0
  184.0480  179.0650  143.7240 C   0  0  0  0  0  0  0  0  0  0  0  0
  182.7040  178.6970  141.7330 C   0  0  0  0  0  3  0  0  0  0  0  0
  182.8050  178.8200  143.1220 C   0  0  0  0  0  3  0  0  0  0  0  0
  185.1890  179.1820  142.9180 C   0  0  0  0  0  3  0  0  0  0  0  0
  183.8490  178.8180  140.9310 C   0  0  0  0  0  0  0  0  0  0  0  0
  184.1590  179.1920  145.1850 C   0  0  0  0  0  0  0  0  0  0  0  0
  183.2510  178.7480  145.9350 O   0  0  0  0  0  1  0  0  0  0  0  0
  185.2730  179.8020  145.7520 O   0  0  0  0  0  0  0  0  0  0  0  0
  179.8390  176.1800  137.8400 C   0  0  0  0  0  1  0  0  0  0  0  0
  180.2030  177.2160  138.8880 C   0  0  1  0  0  3  0  0  0  0  0  0
  179.4480  177.3730  141.3350 C   0  0  0  0  0  1  0  0  0  0  0  0
  180.2420  176.5980  140.2970 C   0  0  0  0  0  3  0  0  0  0  0  0
  179.8480  175.1360  140.3030 C   0  0  0  0  0  1  0  0  0  0  0  0
  188.4350  177.1640  137.9260 C   0  0  0  0  0  2  0  0  0  0  0  0
  189.5010  176.0940  137.7120 C   0  0  0  0  0  2  0  0  0  0  0  0
  191.9700  175.9040  137.3580 C   0  0  0  0  0  1  0  0  0  0  0  0
  190.8760  176.5840  138.1600 C   0  0  2  0  0  3  0  0  0  0  0  0
  191.0850  176.4030  139.6640 C   0  0  0  0  0  2  0  0  0  0  0  0
  190.4970  177.5550  140.4760 C   0  0  0  0  0  2  0  0  0  0  0  0
  190.2310  178.1700  145.1130 C   0  0  2  0  0  3  0  0  0  0  0  0
  189.4050  178.3670  142.6150 C   0  0  1  0  0  3  0  0  0  0  0  0
  188.7730  176.1940  141.5280 C   0  0  0  0  0  1  0  0  0  0  0  0
  192.0450  178.3410  143.4490 O   0  0  0  0  0  0  0  0  0  0  0  0
  191.4610  178.9470  144.5950 C   0  0  0  0  0  2  0  0  0  0  0  0
  189.9330  177.1260  141.8350 C   0  0  1  0  0  0  0  0  0  0  0  0
  191.8570  176.3440  144.9160 C   0  0  0  0  0  2  0  0  0  0  0  0
  190.5780  176.7840  145.4860 N   0  0  0  0  0  0  0  0  0  0  0  0
  190.9820  176.2690  142.5760 C   0  0  0  0  0  2  0  0  0  0  0  0
  188.3180  179.1410  141.8750 C   0  0  0  0  0  1  0  0  0  0  0  0
  192.0300  176.9170  143.5040 C   0  0  1  0  0  3  0  0  0  0  0  0
  189.0550  178.2190  144.1130 C   0  0  1  0  0  3  0  0  0  0  0  0
  187.8830  177.3410  144.4390 C   0  0  0  0  0  0  0  0  0  0  0  0
  187.4290  176.5300  143.5900 O   0  0  0  0  0  0  0  0  0  0  0  0
  187.2710  177.4360  145.7180 N   0  0  0  0  0  1  0  0  0  0  0  0
  190.6440  176.6830  146.9430 C   0  0  0  0  0  2  0  0  0  0  0  0
  191.9630  176.5420  147.3830 O   0  0  0  0  0  1  0  0  0  0  0  0
  1  5  1  0  0  0  0
  2  3  1  0  0  0  0
  2 33  1  0  0  0  0
  4  1  2  0  0  0  0
  4  6  1  0  0  0  0
  5  7  1  0  0  0  0
  5  3  2  0  0  0  0
  6  2  2  0  0  0  0
  7  8  1  0  0  0  0
  9 13  1  0  0  0  0
  9 14  1  0  0  0  0
 11 16  1  0  0  0  0
 12 11  1  0  0  0  0
 13 10  1  6  0  0  0
 13 12  1  0  0  0  0
 14 11  2  0  0  0  0
 15 24  1  1  0  0  0
 16 15  1  0  0  0  0
 17 14  1  0  0  0  0
 17 29  1  1  0  0  0
 17 18  1  0  0  0  0
 18  8  1  6  0  0  0
 18 15  1  0  0  0  0
 19 23  1  0  0  0  0
 20 25  1  0  0  0  0
 21 22  2  0  0  0  0
 22 20  1  0  0  0  0
 23 20  2  0  0  0  0
 24 19  2  0  0  0  0
 24 21  1  0  0  0  0
 25 27  2  0  0  0  0
 25 26  1  0  0  0  0
 29 28  1  6  0  0  0
 29 31  1  0  0  0  0
 31 32  1  0  0  0  0
 31 30  1  0  0  0  0
 34 33  1  0  0  0  0
 34 36  1  0  0  0  0
 36 35  1  6  0  0  0
 36 37  1  0  0  0  0
 37 38  1  0  0  0  0
 38 44  1  0  0  0  0
 39 43  1  6  0  0  0
 39 46  1  0  0  0  0
 40 48  1  6  0  0  0
 40 50  1  0  0  0  0
 42 49  1  0  0  0  0
 42 43  1  0  0  0  0
 44 41  1  6  0  0  0
 44 47  1  0  0  0  0
 44 40  1  0  0  0  0
 45 46  1  0  0  0  0
 46 54  1  0  0  0  0
 49 47  1  6  0  0  0
 49 45  1  0  0  0  0
 50 51  1  6  0  0  0
 50 39  1  0  0  0  0
 51 53  1  0  0  0  0
 52 51  2  0  0  0  0
 54 55  1  0  0  0  0
M  END
>  <MODEL>
1

>  <REMARK>
 VINA RESULT:      -7.3      0.000      0.000
  Name = 
  15 active torsions:
  status: ('A' for Active; 'I' for Inactive)
    1  A    between atoms: C_1  and  C_53
    2  A    between atoms: C_2  and  C_28
    3  A    between atoms: C_2  and  C_49
    4  A    between atoms: C_8  and  C_20
    5  A    between atoms: C_8  and  C_22
    6  A    between atoms: C_10  and  C_32
    7  A    between atoms: C_11  and  N_38
    8  A    between atoms: C_19  and  C_40
    9  A    between atoms: C_22  and  C_43
   10  A    between atoms: C_27  and  C_54
   11  A    between atoms: C_28  and  C_44
   12  A    between atoms: C_33  and  C_52
   13  A    between atoms: C_40  and  C_45
   14  A    between atoms: C_43  and  C_51
   15  A    between atoms: C_51  and  C_54
                            x       y       z     vdW  Elec       q    Type
                         _______ _______ _______ _____ _____    ______ ____

>  <TORSDO>
F 15

$$$$
=
 OpenBabel10262420353D

 55 60  0  0  1  0  0  0  0  0999 V2000
  188.1830  176.4270  134.6120 N   0  0  0  0  0  0  0  0  0  0  0  0
  189.2410  176.4010  137.1640 C   0  0  0  0  0  0  0  0  0  0  0  0
  187.9840  176.9670  136.9310 C   0  0  0  0  0  3  0  0  0  0  0  0
  189.4050  175.8670  134.8200 C   0  0  0  0  0  3  0  0  0  0  0  0
  187.4660  176.9690  135.6340 C   0  0  0  0  0  0  0  0  0  0  0  0
  189.9570  175.8450  136.1020 C   0  0  0  0  0  3  0  0  0  0  0  0
  186.1590  177.6220  135.3610 C   0  0  0  0  0  2  0  0  0  0  0  0
  185.1470  176.5700  134.9290 C   0  0  0  0  0  2  0  0  0  0  0  0
  183.0750  172.2350  136.7320 C   0  0  0  0  0  2  0  0  0  0  0  0
  181.0330  171.0720  135.9010 C   0  0  0  0  0  1  0  0  0  0  0  0
  182.0580  174.2570  136.3200 C   0  0  0  0  0  0  0  0  0  0  0  0
  181.0340  173.3740  136.5810 O   0  0  0  0  0  0  0  0  0  0  0  0
  181.5560  172.0900  136.8920 C   0  0  2  0  0  3  0  0  0  0  0  0
  183.2360  173.6850  136.4250 C   0  0  0  0  0  0  0  0  0  0  0  0
  183.0460  176.5510  136.3480 C   0  0  2  0  0  3  0  0  0  0  0  0
  181.8660  175.6760  135.9010 C   0  0  0  0  0  2  0  0  0  0  0  0
  184.5180  174.3840  136.0690 C   0  0  1  0  0  3  0  0  0  0  0  0
  184.4410  175.9300  136.1170 C   0  0  1  0  0  3  0  0  0  0  0  0
  183.4230  178.3200  138.0670 C   0  0  0  0  0  3  0  0  0  0  0  0
  182.6610  178.0730  140.3610 C   0  0  0  0  0  0  0  0  0  0  0  0
  182.2440  176.3140  138.7380 C   0  0  0  0  0  3  0  0  0  0  0  0
  182.1310  176.8150  140.0370 C   0  0  0  0  0  3  0  0  0  0  0  0
  183.3080  178.8210  139.3680 C   0  0  0  0  0  3  0  0  0  0  0  0
  182.8900  177.0680  137.7460 C   0  0  0  0  0  0  0  0  0  0  0  0
  182.5470  178.6030  141.7280 C   0  0  0  0  0  0  0  0  0  0  0  0
  181.4720  179.1280  142.1210 O   0  0  0  0  0  0  0  0  0  0  0  0
  183.6270  178.5280  142.6010 O   0  0  0  0  0  1  0  0  0  0  0  0
  185.3730  172.9520  137.9660 C   0  0  0  0  0  1  0  0  0  0  0  0
  185.7610  173.7800  136.7540 C   0  0  1  0  0  3  0  0  0  0  0  0
  188.1010  172.7500  136.5410 C   0  0  0  0  0  1  0  0  0  0  0  0
  186.7700  173.0330  135.8650 C   0  0  0  0  0  3  0  0  0  0  0  0
  186.1940  171.7680  135.2660 C   0  0  0  0  0  1  0  0  0  0  0  0
  189.8240  176.3920  138.5380 C   0  0  0  0  0  2  0  0  0  0  0  0
  191.3390  176.5710  138.5010 C   0  0  0  0  0  2  0  0  0  0  0  0
  193.3110  177.2180  139.8960 C   0  0  0  0  0  1  0  0  0  0  0  0
  191.8240  177.4220  139.6720 C   0  0  2  0  0  3  0  0  0  0  0  0
  191.0210  177.1540  140.9450 C   0  0  0  0  0  2  0  0  0  0  0  0
  191.7520  177.6190  142.2030 C   0  0  0  0  0  2  0  0  0  0  0  0
  187.9110  176.6770  144.7140 C   0  0  2  0  0  3  0  0  0  0  0  0
  190.4990  176.6910  144.2020 C   0  0  1  0  0  3  0  0  0  0  0  0
  191.5780  178.9570  144.2310 C   0  0  0  0  0  1  0  0  0  0  0  0
  188.4760  176.5680  142.3140 O   0  0  0  0  0  0  0  0  0  0  0  0
  187.8170  175.8990  143.3830 C   0  0  0  0  0  2  0  0  0  0  0  0
  190.8160  177.9660  143.3660 C   0  0  1  0  0  0  0  0  0  0  0  0
  187.1360  178.4580  143.2150 C   0  0  0  0  0  2  0  0  0  0  0  0
  187.3060  178.0200  144.6060 N   0  0  0  0  0  0  0  0  0  0  0  0
  189.5900  178.7320  142.8240 C   0  0  0  0  0  2  0  0  0  0  0  0
  191.7370  176.0090  144.7770 C   0  0  0  0  0  1  0  0  0  0  0  0
  188.3220  177.9840  142.3650 C   0  0  1  0  0  3  0  0  0  0  0  0
  189.3600  176.7400  145.2450 C   0  0  1  0  0  3  0  0  0  0  0  0
  189.5830  177.6300  146.4310 C   0  0  0  0  0  0  0  0  0  0  0  0
  189.2130  178.8340  146.4140 O   0  0  0  0  0  0  0  0  0  0  0  0
  190.2310  177.1110  147.5850 N   0  0  0  0  0  1  0  0  0  0  0  0
  186.0020  178.0120  145.2660 C   0  0  0  0  0  2  0  0  0  0  0  0
  186.1250  178.2680  146.6350 O   0  0  0  0  0  1  0  0  0  0  0  0
  1  4  2  0  0  0  0
  1  5  1  0  0  0  0
  2 33  1  0  0  0  0
  3  2  1  0  0  0  0
  4  6  1  0  0  0  0
  5  3  2  0  0  0  0
  6  2  2  0  0  0  0
  7  5  1  0  0  0  0
  8  7  1  0  0  0  0
  9 13  1  0  0  0  0
 11 14  2  0  0  0  0
 11 12  1  0  0  0  0
 12 13  1  0  0  0  0
 13 10  1  6  0  0  0
 14  9  1  0  0  0  0
 15 24  1  1  0  0  0
 16 11  1  0  0  0  0
 16 15  1  0  0  0  0
 17 18  1  0  0  0  0
 17 14  1  0  0  0  0
 17 29  1  1  0  0  0
 18  8  1  6  0  0  0
 18 15  1  0  0  0  0
 19 23  1  0  0  0  0
 20 25  1  0  0  0  0
 21 22  2  0  0  0  0
 22 20  1  0  0  0  0
 23 20  2  0  0  0  0
 24 19  2  0  0  0  0
 24 21  1  0  0  0  0
 25 26  2  0  0  0  0
 25 27  1  0  0  0  0
 29 28  1  1  0  0  0
 31 30  1  0  0  0  0
 31 29  1  0  0  0  0
 32 31  1  0  0  0  0
 34 33  1  0  0  0  0
 34 36  1  0  0  0  0
 36 35  1  1  0  0  0
 36 37  1  0  0  0  0
 37 38  1  0  0  0  0
 38 44  1  0  0  0  0
 39 43  1  6  0  0  0
 39 50  1  0  0  0  0
 40 48  1  1  0  0  0
 40 50  1  0  0  0  0
 42 49  1  0  0  0  0
 42 43  1  0  0  0  0
 44 40  1  0  0  0  0
 44 41  1  1  0  0  0
 45 46  1  0  0  0  0
 46 39  1  0  0  0  0
 46 54  1  0  0  0  0
 47 44  1  0  0  0  0
 49 47  1  1  0  0  0
 49 45  1  0  0  0  0
 50 51  1  6  0  0  0
 51 53  1  0  0  0  0
 52 51  2  0  0  0  0
 54 55  1  0  0  0  0
M  END
>  <MODEL>
2

>  <REMARK>
 VINA RESULT:      -6.2      2.656      5.077
  Name = 
  15 active torsions:
  status: ('A' for Active; 'I' for Inactive)
    1  A    between atoms: C_1  and  C_53
    2  A    between atoms: C_2  and  C_28
    3  A    between atoms: C_2  and  C_49
    4  A    between atoms: C_8  and  C_20
    5  A    between atoms: C_8  and  C_22
    6  A    between atoms: C_10  and  C_32
    7  A    between atoms: C_11  and  N_38
    8  A    between atoms: C_19  and  C_40
    9  A    between atoms: C_22  and  C_43
   10  A    between atoms: C_27  and  C_54
   11  A    between atoms: C_28  and  C_44
   12  A    between atoms: C_33  and  C_52
   13  A    between atoms: C_40  and  C_45
   14  A    between atoms: C_43  and  C_51
   15  A    between atoms: C_51  and  C_54
                            x       y       z     vdW  Elec       q    Type
                         _______ _______ _______ _____ _____    ______ ____

>  <TORSDO>
F 15

$$$$
=
 OpenBabel10262420353D

 55 60  0  0  1  0  0  0  0  0999 V2000
  190.8720  177.3210  142.7150 N   0  0  0  0  0  0  0  0  0  0  0  0
  188.1250  177.3400  143.0020 C   0  0  0  0  0  0  0  0  0  0  0  0
  188.6990  177.0760  141.7540 C   0  0  0  0  0  3  0  0  0  0  0  0
  190.3330  177.5750  143.9380 C   0  0  0  0  0  3  0  0  0  0  0  0
  190.0900  177.0690  141.6300 C   0  0  0  0  0  0  0  0  0  0  0  0
  188.9460  177.5900  144.1020 C   0  0  0  0  0  3  0  0  0  0  0  0
  190.7120  176.8490  140.2990 C   0  0  0  0  0  2  0  0  0  0  0  0
  189.7050  177.1790  139.2070 C   0  0  0  0  0  2  0  0  0  0  0  0
  187.9500  174.5820  135.1430 C   0  0  0  0  0  2  0  0  0  0  0  0
  187.1040  172.2380  135.0930 C   0  0  0  0  0  1  0  0  0  0  0  0
  189.5360  173.9490  136.6840 C   0  0  0  0  0  0  0  0  0  0  0  0
  189.2740  172.8220  135.9380 O   0  0  0  0  0  0  0  0  0  0  0  0
  188.3280  173.1120  134.9190 C   0  0  2  0  0  3  0  0  0  0  0  0
  188.8490  174.9850  136.2620 C   0  0  0  0  0  0  0  0  0  0  0  0
  191.0640  175.3770  138.0500 C   0  0  2  0  0  3  0  0  0  0  0  0
  190.4370  173.9860  137.8730 C   0  0  0  0  0  2  0  0  0  0  0  0
  188.8460  176.3090  136.9750 C   0  0  1  0  0  3  0  0  0  0  0  0
  190.0860  176.5590  137.8680 C   0  0  1  0  0  3  0  0  0  0  0  0
  193.5260  175.0970  137.7660 C   0  0  0  0  0  3  0  0  0  0  0  0
  194.6980  175.9050  135.7980 C   0  0  0  0  0  0  0  0  0  0  0  0
  192.2950  176.2010  135.9980 C   0  0  0  0  0  3  0  0  0  0  0  0
  193.4820  176.3710  135.2790 C   0  0  0  0  0  3  0  0  0  0  0  0
  194.7130  175.2670  137.0460 C   0  0  0  0  0  3  0  0  0  0  0  0
  192.3140  175.5590  137.2450 C   0  0  0  0  0  0  0  0  0  0  0  0
  195.9500  176.0850  135.0460 C   0  0  0  0  0  0  0  0  0  0  0  0
  196.6450  175.0890  134.7150 O   0  0  0  0  0  1  0  0  0  0  0  0
  196.3760  177.3610  134.6920 O   0  0  0  0  0  0  0  0  0  0  0  0
  188.8750  177.2550  134.6340 C   0  0  0  0  0  1  0  0  0  0  0  0
  188.4530  177.4950  136.0720 C   0  0  1  0  0  3  0  0  0  0  0  0
  186.1870  177.7440  134.8970 C   0  0  0  0  0  1  0  0  0  0  0  0
  187.0020  178.0000  136.1530 C   0  0  0  0  0  3  0  0  0  0  0  0
  186.2750  177.4880  137.3780 C   0  0  0  0  0  1  0  0  0  0  0  0
  186.6410  177.3630  143.1630 C   0  0  0  0  0  2  0  0  0  0  0  0
  186.1700  178.6700  143.7920 C   0  0  0  0  0  2  0  0  0  0  0  0
  183.6830  178.8930  143.9530 C   0  0  0  0  0  1  0  0  0  0  0  0
  184.9080  179.1910  143.1080 C   0  0  2  0  0  3  0  0  0  0  0  0
  184.7600  178.6420  141.6880 C   0  0  0  0  0  2  0  0  0  0  0  0
  183.4100  177.9630  141.4650 C   0  0  0  0  0  2  0  0  0  0  0  0
  180.2320  176.9400  138.1780 C   0  0  2  0  0  3  0  0  0  0  0  0
  181.2520  178.3190  140.1830 C   0  0  1  0  0  3  0  0  0  0  0  0
  183.3550  179.5820  139.6470 C   0  0  0  0  0  1  0  0  0  0  0  0
  181.5780  175.6020  139.7560 O   0  0  0  0  0  0  0  0  0  0  0  0
  180.2900  175.7610  139.1740 C   0  0  0  0  0  2  0  0  0  0  0  0
  182.8040  178.2350  140.0840 C   0  0  1  0  0  0  0  0  0  0  0  0
  182.2280  175.7710  137.3630 C   0  0  0  0  0  2  0  0  0  0  0  0
  181.1900  176.7650  137.0680 N   0  0  0  0  0  0  0  0  0  0  0  0
  183.3540  177.2050  139.0740 C   0  0  0  0  0  2  0  0  0  0  0  0
  180.7560  179.4000  141.1390 C   0  0  0  0  0  1  0  0  0  0  0  0
  182.6380  175.8590  138.8380 C   0  0  1  0  0  3  0  0  0  0  0  0
  180.4140  178.3010  138.8850 C   0  0  1  0  0  3  0  0  0  0  0  0
  180.5600  179.4920  137.9830 C   0  0  0  0  0  0  0  0  0  0  0  0
  179.6800  180.3920  137.9560 O   0  0  0  0  0  0  0  0  0  0  0  0
  181.7000  179.5980  137.1420 N   0  0  0  0  0  1  0  0  0  0  0  0
  180.4620  176.3550  135.8690 C   0  0  0  0  0  2  0  0  0  0  0  0
  179.2690  175.7030  136.1960 O   0  0  0  0  0  1  0  0  0  0  0  0
  1  4  1  0  0  0  0
  2 33  1  0  0  0  0
  2  6  1  0  0  0  0
  3  2  2  0  0  0  0
  4  6  2  0  0  0  0
  5  3  1  0  0  0  0
  5  1  2  0  0  0  0
  7  5  1  0  0  0  0
  8  7  1  0  0  0  0
  9 14  1  0  0  0  0
 11 16  1  0  0  0  0
 12 11  1  0  0  0  0
 13 10  1  1  0  0  0
 13  9  1  0  0  0  0
 13 12  1  0  0  0  0
 14 11  2  0  0  0  0
 14 17  1  0  0  0  0
 15 24  1  6  0  0  0
 16 15  1  0  0  0  0
 17 29  1  6  0  0  0
 17 18  1  0  0  0  0
 18 15  1  0  0  0  0
 18  8  1  1  0  0  0
 20 23  1  0  0  0  0
 21 24  2  0  0  0  0
 22 20  2  0  0  0  0
 22 21  1  0  0  0  0
 23 19  2  0  0  0  0
 24 19  1  0  0  0  0
 25 20  1  0  0  0  0
 26 25  1  0  0  0  0
 27 25  2  0  0  0  0
 29 28  1  6  0  0  0
 29 31  1  0  0  0  0
 30 31  1  0  0  0  0
 31 32  1  0  0  0  0
 33 34  1  0  0  0  0
 36 34  1  0  0  0  0
 36 35  1  1  0  0  0
 37 36  1  0  0  0  0
 38 37  1  0  0  0  0
 39 50  1  0  0  0  0
 39 43  1  1  0  0  0
 40 48  1  6  0  0  0
 43 42  1  0  0  0  0
 44 41  1  6  0  0  0
 44 40  1  0  0  0  0
 44 38  1  0  0  0  0
 46 45  1  0  0  0  0
 46 39  1  0  0  0  0
 47 44  1  0  0  0  0
 49 45  1  6  0  0  0
 49 47  1  0  0  0  0
 49 42  1  0  0  0  0
 50 51  1  6  0  0  0
 50 40  1  0  0  0  0
 52 51  2  0  0  0  0
 53 51  1  0  0  0  0
 54 55  1  0  0  0  0
 54 46  1  0  0  0  0
M  END
>  <MODEL>
3

>  <REMARK>
 VINA RESULT:      -6.1      3.266     10.450
  Name = 
  15 active torsions:
  status: ('A' for Active; 'I' for Inactive)
    1  A    between atoms: C_1  and  C_53
    2  A    between atoms: C_2  and  C_28
    3  A    between atoms: C_2  and  C_49
    4  A    between atoms: C_8  and  C_20
    5  A    between atoms: C_8  and  C_22
    6  A    between atoms: C_10  and  C_32
    7  A    between atoms: C_11  and  N_38
    8  A    between atoms: C_19  and  C_40
    9  A    between atoms: C_22  and  C_43
   10  A    between atoms: C_27  and  C_54
   11  A    between atoms: C_28  and  C_44
   12  A    between atoms: C_33  and  C_52
   13  A    between atoms: C_40  and  C_45
   14  A    between atoms: C_43  and  C_51
   15  A    between atoms: C_51  and  C_54
                            x       y       z     vdW  Elec       q    Type
                         _______ _______ _______ _____ _____    ______ ____

>  <TORSDO>
F 15

$$$$
=
 OpenBabel10262420353D

 55 60  0  0  1  0  0  0  0  0999 V2000
  186.7000  176.5390  135.3890 N   0  0  0  0  0  0  0  0  0  0  0  0
  187.9630  177.4850  137.6560 C   0  0  0  0  0  0  0  0  0  0  0  0
  186.5880  177.6710  137.4900 C   0  0  0  0  0  3  0  0  0  0  0  0
  188.0390  176.3440  135.5360 C   0  0  0  0  0  3  0  0  0  0  0  0
  185.9670  177.1830  136.3380 C   0  0  0  0  0  0  0  0  0  0  0  0
  188.6950  176.8170  136.6740 C   0  0  0  0  0  3  0  0  0  0  0  0
  184.5170  177.4260  136.1200 C   0  0  0  0  0  2  0  0  0  0  0  0
  183.9070  178.0230  137.3790 C   0  0  0  0  0  2  0  0  0  0  0  0
  179.4850  178.7920  139.8670 C   0  0  0  0  0  2  0  0  0  0  0  0
  179.1270  178.8710  142.3330 C   0  0  0  0  0  1  0  0  0  0  0  0
  181.0400  177.1260  140.1730 C   0  0  0  0  0  0  0  0  0  0  0  0
  180.1610  177.0090  141.2260 O   0  0  0  0  0  0  0  0  0  0  0  0
  179.1240  177.9730  141.1140 C   0  0  2  0  0  3  0  0  0  0  0  0
  180.6940  178.0890  139.3510 C   0  0  0  0  0  0  0  0  0  0  0  0
  182.6440  176.1470  138.5270 C   0  0  2  0  0  3  0  0  0  0  0  0
  182.2790  176.3090  140.0090 C   0  0  0  0  0  2  0  0  0  0  0  0
  181.5460  178.5180  138.1890 C   0  0  1  0  0  3  0  0  0  0  0  0
  182.5340  177.4380  137.6850 C   0  0  1  0  0  3  0  0  0  0  0  0
  182.7000  173.9230  137.3980 C   0  0  0  0  0  3  0  0  0  0  0  0
  180.6820  172.8230  136.6130 C   0  0  0  0  0  0  0  0  0  0  0  0
  180.5470  174.9820  137.7180 C   0  0  0  0  0  3  0  0  0  0  0  0
  179.9220  173.9010  137.0910 C   0  0  0  0  0  3  0  0  0  0  0  0
  182.0740  172.8410  136.7710 C   0  0  0  0  0  3  0  0  0  0  0  0
  181.9410  174.9950  137.8760 C   0  0  0  0  0  0  0  0  0  0  0  0
  180.0290  171.6850  135.9490 C   0  0  0  0  0  0  0  0  0  0  0  0
  180.1790  171.4940  134.7140 O   0  0  0  0  0  0  0  0  0  0  0  0
  179.2390  170.8050  136.6830 O   0  0  0  0  0  1  0  0  0  0  0  0
  181.1250  180.7070  137.0020 C   0  0  0  0  0  1  0  0  0  0  0  0
  180.7560  179.2360  137.0760 C   0  0  1  0  0  3  0  0  0  0  0  0
  179.4270  177.9370  135.3080 C   0  0  0  0  0  1  0  0  0  0  0  0
  180.7480  178.5900  135.6800 C   0  0  0  0  0  3  0  0  0  0  0  0
  181.1990  179.5420  134.5940 C   0  0  0  0  0  1  0  0  0  0  0  0
  188.6550  178.0030  138.8730 C   0  0  0  0  0  2  0  0  0  0  0  0
  189.6120  176.9660  139.4530 C   0  0  0  0  0  2  0  0  0  0  0  0
  191.9310  176.3960  138.7110 C   0  0  0  0  0  1  0  0  0  0  0  0
  191.0600  177.4440  139.3780 C   0  0  2  0  0  3  0  0  0  0  0  0
  191.6040  177.8380  140.7510 C   0  0  0  0  0  2  0  0  0  0  0  0
  191.2000  176.8490  141.8430 C   0  0  0  0  0  2  0  0  0  0  0  0
  187.7600  176.8590  145.0220 C   0  0  2  0  0  3  0  0  0  0  0  0
  190.2100  176.4380  144.1400 C   0  0  1  0  0  3  0  0  0  0  0  0
  191.5170  178.5110  143.5940 C   0  0  0  0  0  1  0  0  0  0  0  0
  187.8960  176.2830  142.6270 O   0  0  0  0  0  0  0  0  0  0  0  0
  187.3600  175.8940  143.8850 C   0  0  0  0  0  2  0  0  0  0  0  0
  190.5180  177.5050  143.0480 C   0  0  1  0  0  0  0  0  0  0  0  0
  186.9400  178.4590  143.3540 C   0  0  0  0  0  2  0  0  0  0  0  0
  187.2940  178.2350  144.7610 N   0  0  0  0  0  0  0  0  0  0  0  0
  189.3070  178.3310  142.5620 C   0  0  0  0  0  2  0  0  0  0  0  0
  191.4470  175.6990  144.6420 C   0  0  0  0  0  1  0  0  0  0  0  0
  187.9070  177.6960  142.4400 C   0  0  1  0  0  3  0  0  0  0  0  0
  189.2760  176.8110  145.3130 C   0  0  1  0  0  3  0  0  0  0  0  0
  189.7910  177.8450  146.2710 C   0  0  0  0  0  0  0  0  0  0  0  0
  190.2420  178.9440  145.8520 O   0  0  0  0  0  0  0  0  0  0  0  0
  189.7810  177.5750  147.6660 N   0  0  0  0  0  1  0  0  0  0  0  0
  186.1270  178.5130  145.5970 C   0  0  0  0  0  2  0  0  0  0  0  0
  185.9200  177.4960  146.5330 O   0  0  0  0  0  1  0  0  0  0  0  0
  1  4  2  0  0  0  0
  1  5  1  0  0  0  0
  2 33  1  0  0  0  0
  3  2  1  0  0  0  0
  4  6  1  0  0  0  0
  5  3  2  0  0  0  0
  6  2  2  0  0  0  0
  7  5  1  0  0  0  0
  7  8  1  0  0  0  0
  9 13  1  0  0  0  0
 11 12  1  0  0  0  0
 13 12  1  0  0  0  0
 13 10  1  1  0  0  0
 14  9  1  0  0  0  0
 14 11  2  0  0  0  0
 15 24  1  6  0  0  0
 15 16  1  0  0  0  0
 16 11  1  0  0  0  0
 17 29  1  6  0  0  0
 17 14  1  0  0  0  0
 18  8  1  1  0  0  0
 18 17  1  0  0  0  0
 18 15  1  0  0  0  0
 19 24  1  0  0  0  0
 20 23  1  0  0  0  0
 20 22  2  0  0  0  0
 21 24  2  0  0  0  0
 22 21  1  0  0  0  0
 23 19  2  0  0  0  0
 25 20  1  0  0  0  0
 25 27  1  0  0  0  0
 26 25  2  0  0  0  0
 29 28  1  6  0  0  0
 30 31  1  0  0  0  0
 31 29  1  0  0  0  0
 32 31  1  0  0  0  0
 33 34  1  0  0  0  0
 36 35  1  1  0  0  0
 36 34  1  0  0  0  0
 36 37  1  0  0  0  0
 37 38  1  0  0  0  0
 38 44  1  0  0  0  0
 39 43  1  6  0  0  0
 39 50  1  0  0  0  0
 40 48  1  1  0  0  0
 40 50  1  0  0  0  0
 42 43  1  0  0  0  0
 44 41  1  1  0  0  0
 44 40  1  0  0  0  0
 45 46  1  0  0  0  0
 46 39  1  0  0  0  0
 46 54  1  0  0  0  0
 47 44  1  0  0  0  0
 49 47  1  1  0  0  0
 49 42  1  0  0  0  0
 49 45  1  0  0  0  0
 50 51  1  6  0  0  0
 51 53  1  0  0  0  0
 52 51  2  0  0  0  0
 54 55  1  0  0  0  0
M  END
>  <MODEL>
4

>  <REMARK>
 VINA RESULT:      -5.3      2.949      5.261
  Name = 
  15 active torsions:
  status: ('A' for Active; 'I' for Inactive)
    1  A    between atoms: C_1  and  C_53
    2  A    between atoms: C_2  and  C_28
    3  A    between atoms: C_2  and  C_49
    4  A    between atoms: C_8  and  C_20
    5  A    between atoms: C_8  and  C_22
    6  A    between atoms: C_10  and  C_32
    7  A    between atoms: C_11  and  N_38
    8  A    between atoms: C_19  and  C_40
    9  A    between atoms: C_22  and  C_43
   10  A    between atoms: C_27  and  C_54
   11  A    between atoms: C_28  and  C_44
   12  A    between atoms: C_33  and  C_52
   13  A    between atoms: C_40  and  C_45
   14  A    between atoms: C_43  and  C_51
   15  A    between atoms: C_51  and  C_54
                            x       y       z     vdW  Elec       q    Type
                         _______ _______ _______ _____ _____    ______ ____

>  <TORSDO>
F 15

$$$$
=
 OpenBabel10262420353D

 55 60  0  0  1  0  0  0  0  0999 V2000
  186.5100  178.5550  139.7730 N   0  0  0  0  0  0  0  0  0  0  0  0
  188.7140  177.8590  138.2610 C   0  0  0  0  0  0  0  0  0  0  0  0
  187.4510  177.9350  137.6670 C   0  0  0  0  0  3  0  0  0  0  0  0
  187.7310  178.4910  140.3680 C   0  0  0  0  0  3  0  0  0  0  0  0
  186.3490  178.2910  138.4470 C   0  0  0  0  0  0  0  0  0  0  0  0
  188.8570  178.1400  139.6200 C   0  0  0  0  0  3  0  0  0  0  0  0
  184.9920  178.3180  137.8420 C   0  0  0  0  0  2  0  0  0  0  0  0
  184.1060  179.2740  138.6260 C   0  0  0  0  0  2  0  0  0  0  0  0
  179.6660  179.9990  141.0960 C   0  0  0  0  0  2  0  0  0  0  0  0
  179.3010  180.0940  143.5600 C   0  0  0  0  0  1  0  0  0  0  0  0
  181.2450  178.3590  141.4210 C   0  0  0  0  0  0  0  0  0  0  0  0
  180.3650  178.2380  142.4720 O   0  0  0  0  0  0  0  0  0  0  0  0
  179.3140  179.1860  142.3490 C   0  0  2  0  0  3  0  0  0  0  0  0
  180.8870  179.3100  140.5890 C   0  0  0  0  0  0  0  0  0  0  0  0
  182.8690  177.3900  139.7870 C   0  0  2  0  0  3  0  0  0  0  0  0
  182.4960  177.5590  141.2680 C   0  0  0  0  0  2  0  0  0  0  0  0
  181.7350  179.7410  139.4260 C   0  0  1  0  0  3  0  0  0  0  0  0
  182.7410  178.6710  138.9340 C   0  0  1  0  0  3  0  0  0  0  0  0
  182.7320  175.6740  137.9810 C   0  0  0  0  0  3  0  0  0  0  0  0
  180.9260  174.0530  137.8750 C   0  0  0  0  0  0  0  0  0  0  0  0
  181.0010  175.6850  139.6730 C   0  0  0  0  0  3  0  0  0  0  0  0
  180.3760  174.6060  139.0410 C   0  0  0  0  0  3  0  0  0  0  0  0
  182.1070  174.5950  137.3490 C   0  0  0  0  0  3  0  0  0  0  0  0
  182.1840  176.2220  139.1450 C   0  0  0  0  0  0  0  0  0  0  0  0
  180.2710  172.9210  137.2040 C   0  0  0  0  0  0  0  0  0  0  0  0
  180.2390  171.7870  137.7510 O   0  0  0  0  0  1  0  0  0  0  0  0
  179.6770  173.0920  135.9580 O   0  0  0  0  0  0  0  0  0  0  0  0
  181.3680  181.8840  138.1420 C   0  0  0  0  0  1  0  0  0  0  0  0
  180.9380  180.4370  138.3040 C   0  0  1  0  0  3  0  0  0  0  0  0
  179.7400  178.6900  136.8580 C   0  0  0  0  0  1  0  0  0  0  0  0
  180.8510  179.7220  136.9450 C   0  0  0  0  0  3  0  0  0  0  0  0
  180.7760  180.6880  135.7820 C   0  0  0  0  0  1  0  0  0  0  0  0
  189.9090  177.4720  137.4530 C   0  0  0  0  0  2  0  0  0  0  0  0
  189.5210  176.5760  136.2800 C   0  0  0  0  0  2  0  0  0  0  0  0
  190.0440  174.3350  137.2610 C   0  0  0  0  0  1  0  0  0  0  0  0
  190.4260  175.3500  136.1980 C   0  0  2  0  0  3  0  0  0  0  0  0
  191.9060  175.7250  136.2840 C   0  0  0  0  0  2  0  0  0  0  0  0
  192.5220  175.3580  137.6330 C   0  0  0  0  0  2  0  0  0  0  0  0
  195.7450  172.9490  135.2340 C   0  0  2  0  0  3  0  0  0  0  0  0
  194.5520  175.1230  136.1310 C   0  0  1  0  0  3  0  0  0  0  0  0
  194.7500  175.5040  138.6050 C   0  0  0  0  0  1  0  0  0  0  0  0
  193.3150  172.7060  135.5850 O   0  0  0  0  0  0  0  0  0  0  0  0
  194.3610  172.6380  134.6240 C   0  0  0  0  0  2  0  0  0  0  0  0
  193.9450  174.7970  137.5280 C   0  0  1  0  0  0  0  0  0  0  0  0
  194.9230  171.2800  136.8330 C   0  0  0  0  0  2  0  0  0  0  0  0
  196.0900  172.0050  136.3160 N   0  0  0  0  0  0  0  0  0  0  0  0
  193.9350  173.3030  137.9190 C   0  0  0  0  0  2  0  0  0  0  0  0
  194.6070  176.6160  135.8200 C   0  0  0  0  0  1  0  0  0  0  0  0
  193.6990  172.2040  136.8630 C   0  0  1  0  0  3  0  0  0  0  0  0
  195.8550  174.4180  135.6950 C   0  0  1  0  0  3  0  0  0  0  0  0
  197.0920  174.7700  136.4690 C   0  0  0  0  0  0  0  0  0  0  0  0
  197.5290  174.0050  137.3690 O   0  0  0  0  0  0  0  0  0  0  0  0
  197.7710  175.9870  136.1900 N   0  0  0  0  0  1  0  0  0  0  0  0
  197.0690  171.0420  135.8180 C   0  0  0  0  0  2  0  0  0  0  0  0
  196.4790  170.1220  134.9460 O   0  0  0  0  0  1  0  0  0  0  0  0
  1  4  1  0  0  0  0
  2  6  1  0  0  0  0
  3  2  2  0  0  0  0
  3  5  1  0  0  0  0
  5  1  2  0  0  0  0
  6  4  2  0  0  0  0
  7  5  1  0  0  0  0
  7  8  1  0  0  0  0
  9 13  1  0  0  0  0
 11 12  1  0  0  0  0
 13 12  1  0  0  0  0
 13 10  1  1  0  0  0
 14  9  1  0  0  0  0
 14 11  2  0  0  0  0
 15 24  1  6  0  0  0
 15 16  1  0  0  0  0
 16 11  1  0  0  0  0
 17 29  1  6  0  0  0
 17 14  1  0  0  0  0
 18  8  1  1  0  0  0
 18 17  1  0  0  0  0
 18 15  1  0  0  0  0
 19 24  1  0  0  0  0
 20 22  2  0  0  0  0
 22 21  1  0  0  0  0
 23 20  1  0  0  0  0
 23 19  2  0  0  0  0
 24 21  2  0  0  0  0
 25 26  1  0  0  0  0
 25 20  1  0  0  0  0
 27 25  2  0  0  0  0
 29 28  1  6  0  0  0
 30 31  1  0  0  0  0
 31 29  1  0  0  0  0
 32 31  1  0  0  0  0
 33  2  1  0  0  0  0
 34 33  1  0  0  0  0
 36 34  1  0  0  0  0
 36 37  1  0  0  0  0
 36 35  1  1  0  0  0
 37 38  1  0  0  0  0
 39 43  1  1  0  0  0
 39 50  1  0  0  0  0
 39 46  1  0  0  0  0
 40 48  1  1  0  0  0
 40 44  1  0  0  0  0
 42 49  1  0  0  0  0
 43 42  1  0  0  0  0
 44 38  1  0  0  0  0
 44 47  1  0  0  0  0
 44 41  1  1  0  0  0
 46 45  1  0  0  0  0
 49 45  1  6  0  0  0
 49 47  1  0  0  0  0
 50 40  1  0  0  0  0
 50 51  1  1  0  0  0
 51 52  2  0  0  0  0
 53 51  1  0  0  0  0
 54 46  1  0  0  0  0
 55 54  1  0  0  0  0
M  END
>  <MODEL>
5

>  <REMARK>
 VINA RESULT:      -5.1      4.677      7.543
  Name = 
  15 active torsions:
  status: ('A' for Active; 'I' for Inactive)
    1  A    between atoms: C_1  and  C_53
    2  A    between atoms: C_2  and  C_28
    3  A    between atoms: C_2  and  C_49
    4  A    between atoms: C_8  and  C_20
    5  A    between atoms: C_8  and  C_22
    6  A    between atoms: C_10  and  C_32
    7  A    between atoms: C_11  and  N_38
    8  A    between atoms: C_19  and  C_40
    9  A    between atoms: C_22  and  C_43
   10  A    between atoms: C_27  and  C_54
   11  A    between atoms: C_28  and  C_44
   12  A    between atoms: C_33  and  C_52
   13  A    between atoms: C_40  and  C_45
   14  A    between atoms: C_43  and  C_51
   15  A    between atoms: C_51  and  C_54
                            x       y       z     vdW  Elec       q    Type
                         _______ _______ _______ _____ _____    ______ ____

>  <TORSDO>
F 15

$$$$
=
 OpenBabel10262420353D

 55 60  0  0  1  0  0  0  0  0999 V2000
  181.9960  177.9610  141.2700 N   0  0  0  0  0  0  0  0  0  0  0  0
  184.3880  178.6980  140.1010 C   0  0  0  0  0  0  0  0  0  0  0  0
  183.4010  178.0660  139.3400 C   0  0  0  0  0  3  0  0  0  0  0  0
  182.9430  178.5800  142.0260 C   0  0  0  0  0  3  0  0  0  0  0  0
  182.1970  177.7030  139.9480 C   0  0  0  0  0  0  0  0  0  0  0  0
  184.1590  178.9580  141.4530 C   0  0  0  0  0  3  0  0  0  0  0  0
  181.1630  176.9780  139.1670 C   0  0  0  0  0  2  0  0  0  0  0  0
  181.5450  175.5090  139.0590 C   0  0  0  0  0  2  0  0  0  0  0  0
  181.2700  172.6020  134.8380 C   0  0  0  0  0  2  0  0  0  0  0  0
  181.5530  170.1310  134.6790 C   0  0  0  0  0  1  0  0  0  0  0  0
  182.9160  172.6610  136.4440 C   0  0  0  0  0  0  0  0  0  0  0  0
  183.2080  171.5710  135.6540 O   0  0  0  0  0  0  0  0  0  0  0  0
  182.2690  171.4630  134.5940 C   0  0  2  0  0  3  0  0  0  0  0  0
  181.8560  173.3060  136.0140 C   0  0  0  0  0  0  0  0  0  0  0  0
  183.6030  174.5490  137.9280 C   0  0  2  0  0  3  0  0  0  0  0  0
  183.6640  173.0350  137.6800 C   0  0  0  0  0  2  0  0  0  0  0  0
  181.2420  174.4570  136.7620 C   0  0  1  0  0  3  0  0  0  0  0  0
  182.2090  175.1860  137.7260 C   0  0  1  0  0  3  0  0  0  0  0  0
  185.9660  174.7780  137.1620 C   0  0  0  0  0  3  0  0  0  0  0  0
  186.7250  176.6890  135.8700 C   0  0  0  0  0  0  0  0  0  0  0  0
  184.4030  176.5290  136.5680 C   0  0  0  0  0  3  0  0  0  0  0  0
  185.4250  177.2170  135.9080 C   0  0  0  0  0  3  0  0  0  0  0  0
  186.9880  175.4660  136.5010 C   0  0  0  0  0  3  0  0  0  0  0  0
  184.6710  175.3030  137.1960 C   0  0  0  0  0  0  0  0  0  0  0  0
  187.8040  177.4110  135.1800 C   0  0  0  0  0  0  0  0  0  0  0  0
  187.6390  178.6020  134.8060 O   0  0  0  0  0  0  0  0  0  0  0  0
  189.0220  176.7840  134.9350 O   0  0  0  0  0  1  0  0  0  0  0  0
  178.9330  174.9900  135.8900 C   0  0  0  0  0  1  0  0  0  0  0  0
  180.3970  175.3900  135.8710 C   0  0  1  0  0  3  0  0  0  0  0  0
  181.4990  177.5620  135.0660 C   0  0  0  0  0  1  0  0  0  0  0  0
  180.5660  176.9060  136.0700 C   0  0  0  0  0  3  0  0  0  0  0  0
  179.2420  177.6380  136.1280 C   0  0  0  0  0  1  0  0  0  0  0  0
  185.6880  179.0900  139.4800 C   0  0  0  0  0  2  0  0  0  0  0  0
  186.6980  177.9480  139.5360 C   0  0  0  0  0  2  0  0  0  0  0  0
  189.1730  177.6250  139.3690 C   0  0  0  0  0  1  0  0  0  0  0  0
  188.0640  178.4400  140.0090 C   0  0  2  0  0  3  0  0  0  0  0  0
  188.1740  178.4410  141.5340 C   0  0  0  0  0  2  0  0  0  0  0  0
  187.4930  177.2290  142.1680 C   0  0  0  0  0  2  0  0  0  0  0  0
  190.5410  178.0160  145.6380 C   0  0  2  0  0  3  0  0  0  0  0  0
  188.2200  178.1930  144.3980 C   0  0  1  0  0  3  0  0  0  0  0  0
  186.9390  176.0410  144.2200 C   0  0  0  0  0  1  0  0  0  0  0  0
  190.6960  177.9900  143.1750 O   0  0  0  0  0  0  0  0  0  0  0  0
  191.0920  178.6770  144.3550 C   0  0  0  0  0  2  0  0  0  0  0  0
  188.0170  176.8910  143.5680 C   0  0  1  0  0  0  0  0  0  0  0  0
  191.5130  176.0630  144.5150 C   0  0  0  0  0  2  0  0  0  0  0  0
  191.0040  176.6200  145.7740 N   0  0  0  0  0  0  0  0  0  0  0  0
  189.2570  175.9790  143.4430 C   0  0  0  0  0  2  0  0  0  0  0  0
  186.9500  179.0240  144.5550 C   0  0  0  0  0  1  0  0  0  0  0  0
  190.6760  176.5740  143.3360 C   0  0  1  0  0  3  0  0  0  0  0  0
  189.0030  178.1230  145.7270 C   0  0  1  0  0  3  0  0  0  0  0  0
  188.3570  177.3500  146.8390 C   0  0  0  0  0  0  0  0  0  0  0  0
  188.7930  176.2170  147.1750 O   0  0  0  0  0  0  0  0  0  0  0  0
  187.2330  177.8990  147.5130 N   0  0  0  0  0  1  0  0  0  0  0  0
  192.0590  176.5620  146.7840 C   0  0  0  0  0  2  0  0  0  0  0  0
  192.2720  175.2510  147.2210 O   0  0  0  0  0  1  0  0  0  0  0  0
  1  4  1  0  0  0  0
  2  6  1  0  0  0  0
  3  5  1  0  0  0  0
  3  2  2  0  0  0  0
  5  1  2  0  0  0  0
  6  4  2  0  0  0  0
  7  5  1  0  0  0  0
  8  7  1  0  0  0  0
  9 14  1  0  0  0  0
 11 16  1  0  0  0  0
 12 11  1  0  0  0  0
 13 10  1  1  0  0  0
 13  9  1  0  0  0  0
 13 12  1  0  0  0  0
 14 11  2  0  0  0  0
 14 17  1  0  0  0  0
 15 24  1  6  0  0  0
 16 15  1  0  0  0  0
 17 29  1  6  0  0  0
 17 18  1  0  0  0  0
 18 15  1  0  0  0  0
 18  8  1  1  0  0  0
 19 24  1  0  0  0  0
 20 22  2  0  0  0  0
 20 23  1  0  0  0  0
 21 24  2  0  0  0  0
 22 21  1  0  0  0  0
 23 19  2  0  0  0  0
 25 20  1  0  0  0  0
 26 25  2  0  0  0  0
 27 25  1  0  0  0  0
 29 28  1  1  0  0  0
 29 31  1  0  0  0  0
 30 31  1  0  0  0  0
 31 32  1  0  0  0  0
 33 34  1  0  0  0  0
 33  2  1  0  0  0  0
 34 36  1  0  0  0  0
 36 35  1  6  0  0  0
 36 37  1  0  0  0  0
 37 38  1  0  0  0  0
 38 44  1  0  0  0  0
 39 43  1  6  0  0  0
 39 50  1  0  0  0  0
 39 46  1  0  0  0  0
 40 48  1  1  0  0  0
 40 50  1  0  0  0  0
 42 49  1  0  0  0  0
 42 43  1  0  0  0  0
 44 41  1  1  0  0  0
 44 40  1  0  0  0  0
 45 46  1  0  0  0  0
 46 54  1  0  0  0  0
 47 44  1  0  0  0  0
 49 47  1  1  0  0  0
 49 45  1  0  0  0  0
 50 51  1  6  0  0  0
 51 52  2  0  0  0  0
 51 53  1  0  0  0  0
 54 55  1  0  0  0  0
M  END
>  <MODEL>
6

>  <REMARK>
 VINA RESULT:      -5.0      3.226      5.841
  Name = 
  15 active torsions:
  status: ('A' for Active; 'I' for Inactive)
    1  A    between atoms: C_1  and  C_53
    2  A    between atoms: C_2  and  C_28
    3  A    between atoms: C_2  and  C_49
    4  A    between atoms: C_8  and  C_20
    5  A    between atoms: C_8  and  C_22
    6  A    between atoms: C_10  and  C_32
    7  A    between atoms: C_11  and  N_38
    8  A    between atoms: C_19  and  C_40
    9  A    between atoms: C_22  and  C_43
   10  A    between atoms: C_27  and  C_54
   11  A    between atoms: C_28  and  C_44
   12  A    between atoms: C_33  and  C_52
   13  A    between atoms: C_40  and  C_45
   14  A    between atoms: C_43  and  C_51
   15  A    between atoms: C_51  and  C_54
                            x       y       z     vdW  Elec       q    Type
                         _______ _______ _______ _____ _____    ______ ____

>  <TORSDO>
F 15

$$$$
=
 OpenBabel10262420353D

 55 60  0  0  1  0  0  0  0  0999 V2000
  190.7670  176.2180  143.0010 N   0  0  0  0  0  0  0  0  0  0  0  0
  188.3990  177.5740  143.4300 C   0  0  0  0  0  0  0  0  0  0  0  0
  188.8270  177.3060  142.1270 C   0  0  0  0  0  3  0  0  0  0  0  0
  190.3640  176.4660  144.2760 C   0  0  0  0  0  3  0  0  0  0  0  0
  190.0260  176.6170  141.9300 C   0  0  0  0  0  0  0  0  0  0  0  0
  189.1710  177.1510  144.5130 C   0  0  0  0  0  3  0  0  0  0  0  0
  190.5240  176.3780  140.5510 C   0  0  0  0  0  2  0  0  0  0  0  0
  189.6080  177.0720  139.5530 C   0  0  0  0  0  2  0  0  0  0  0  0
  187.7070  175.1360  135.1970 C   0  0  0  0  0  2  0  0  0  0  0  0
  186.9050  172.8110  134.7950 C   0  0  0  0  0  1  0  0  0  0  0  0
  189.3780  174.3000  136.5370 C   0  0  0  0  0  0  0  0  0  0  0  0
  189.1020  173.3050  135.6260 O   0  0  0  0  0  0  0  0  0  0  0  0
  188.1020  173.7350  134.7140 C   0  0  2  0  0  3  0  0  0  0  0  0
  188.6510  175.3730  136.3260 C   0  0  0  0  0  0  0  0  0  0  0  0
  190.9430  175.5230  138.0520 C   0  0  2  0  0  3  0  0  0  0  0  0
  190.3360  174.1650  137.6740 C   0  0  0  0  0  2  0  0  0  0  0  0
  188.6580  176.5590  137.2490 C   0  0  1  0  0  3  0  0  0  0  0  0
  189.9350  176.6920  138.1140 C   0  0  1  0  0  3  0  0  0  0  0  0
  193.2380  176.4840  137.8590 C   0  0  0  0  0  3  0  0  0  0  0  0
  194.4240  176.5770  135.7420 C   0  0  0  0  0  0  0  0  0  0  0  0
  192.1970  175.6130  135.8550 C   0  0  0  0  0  3  0  0  0  0  0  0
  193.3290  175.9650  135.1140 C   0  0  0  0  0  3  0  0  0  0  0  0
  194.3700  176.8350  137.1180 C   0  0  0  0  0  3  0  0  0  0  0  0
  192.1490  175.8700  137.2330 C   0  0  0  0  0  0  0  0  0  0  0  0
  195.6160  176.9520  134.9660 C   0  0  0  0  0  0  0  0  0  0  0  0
  195.8090  178.1500  134.6320 O   0  0  0  0  0  1  0  0  0  0  0  0
  196.5440  175.9840  134.5970 O   0  0  0  0  0  0  0  0  0  0  0  0
  188.6620  177.9350  135.1310 C   0  0  0  0  0  1  0  0  0  0  0  0
  188.1980  177.8680  136.5750 C   0  0  1  0  0  3  0  0  0  0  0  0
  185.9250  178.1190  135.4140 C   0  0  0  0  0  1  0  0  0  0  0  0
  186.7140  178.2510  136.7050 C   0  0  0  0  0  3  0  0  0  0  0  0
  186.0200  177.5200  137.8340 C   0  0  0  0  0  1  0  0  0  0  0  0
  187.1260  178.3150  143.6710 C   0  0  0  0  0  2  0  0  0  0  0  0
  186.1160  178.0640  142.5550 C   0  0  0  0  0  2  0  0  0  0  0  0
  184.0460  179.1820  143.4050 C   0  0  0  0  0  1  0  0  0  0  0  0
  185.1700  179.2510  142.3870 C   0  0  2  0  0  3  0  0  0  0  0  0
  184.6320  179.3540  140.9600 C   0  0  0  0  0  2  0  0  0  0  0  0
  184.1400  178.0110  140.4240 C   0  0  0  0  0  2  0  0  0  0  0  0
  180.8170  178.0580  137.1220 C   0  0  2  0  0  3  0  0  0  0  0  0
  182.3880  176.9510  138.9290 C   0  0  1  0  0  3  0  0  0  0  0  0
  181.9060  177.6060  141.3050 C   0  0  0  0  0  1  0  0  0  0  0  0
  183.0070  179.1640  137.3850 O   0  0  0  0  0  0  0  0  0  0  0  0
  182.1480  178.4950  136.4710 C   0  0  0  0  0  2  0  0  0  0  0  0
  182.6550  178.0050  140.0440 C   0  0  1  0  0  0  0  0  0  0  0  0
  180.9000  180.4080  137.8200 C   0  0  0  0  0  2  0  0  0  0  0  0
  180.0660  179.2110  137.6560 N   0  0  0  0  0  0  0  0  0  0  0  0
  182.2050  179.4460  139.7220 C   0  0  0  0  0  2  0  0  0  0  0  0
  182.7820  175.5300  139.3210 C   0  0  0  0  0  1  0  0  0  0  0  0
  182.3040  180.0110  138.2900 C   0  0  1  0  0  3  0  0  0  0  0  0
  181.0300  176.9650  138.1920 C   0  0  1  0  0  3  0  0  0  0  0  0
  179.8250  176.6080  139.0110 C   0  0  0  0  0  0  0  0  0  0  0  0
  179.2170  177.4850  139.6800 O   0  0  0  0  0  0  0  0  0  0  0  0
  179.3720  175.2610  139.0410 N   0  0  0  0  0  1  0  0  0  0  0  0
  178.9580  179.5200  136.7540 C   0  0  0  0  0  2  0  0  0  0  0  0
  179.2350  180.6490  135.9780 O   0  0  0  0  0  1  0  0  0  0  0  0
  1  4  1  0  0  0  0
  2 33  1  0  0  0  0
  2  6  1  0  0  0  0
  3  2  2  0  0  0  0
  4  6  2  0  0  0  0
  5  3  1  0  0  0  0
  5  1  2  0  0  0  0
  7  5  1  0  0  0  0
  8  7  1  0  0  0  0
  9 14  1  0  0  0  0
 11 16  1  0  0  0  0
 12 11  1  0  0  0  0
 13 10  1  1  0  0  0
 13  9  1  0  0  0  0
 13 12  1  0  0  0  0
 14 11  2  0  0  0  0
 14 17  1  0  0  0  0
 15 24  1  6  0  0  0
 15 18  1  0  0  0  0
 16 15  1  0  0  0  0
 17 29  1  6  0  0  0
 17 18  1  0  0  0  0
 18  8  1  1  0  0  0
 20 23  1  0  0  0  0
 21 24  2  0  0  0  0
 22 20  2  0  0  0  0
 22 21  1  0  0  0  0
 23 19  2  0  0  0  0
 24 19  1  0  0  0  0
 25 20  1  0  0  0  0
 26 25  1  0  0  0  0
 27 25  2  0  0  0  0
 29 28  1  6  0  0  0
 29 31  1  0  0  0  0
 30 31  1  0  0  0  0
 31 32  1  0  0  0  0
 34 33  1  0  0  0  0
 36 34  1  0  0  0  0
 36 35  1  1  0  0  0
 37 36  1  0  0  0  0
 38 37  1  0  0  0  0
 39 43  1  1  0  0  0
 39 46  1  0  0  0  0
 39 50  1  0  0  0  0
 40 48  1  1  0  0  0
 40 44  1  0  0  0  0
 42 49  1  0  0  0  0
 43 42  1  0  0  0  0
 44 38  1  0  0  0  0
 44 41  1  1  0  0  0
 46 45  1  0  0  0  0
 47 44  1  0  0  0  0
 49 45  1  6  0  0  0
 49 47  1  0  0  0  0
 50 40  1  0  0  0  0
 50 51  1  1  0  0  0
 51 53  1  0  0  0  0
 51 52  2  0  0  0  0
 54 46  1  0  0  0  0
 55 54  1  0  0  0  0
M  END
>  <MODEL>
7

>  <REMARK>
 VINA RESULT:      -5.0      3.354     10.368
  Name = 
  15 active torsions:
  status: ('A' for Active; 'I' for Inactive)
    1  A    between atoms: C_1  and  C_53
    2  A    between atoms: C_2  and  C_28
    3  A    between atoms: C_2  and  C_49
    4  A    between atoms: C_8  and  C_20
    5  A    between atoms: C_8  and  C_22
    6  A    between atoms: C_10  and  C_32
    7  A    between atoms: C_11  and  N_38
    8  A    between atoms: C_19  and  C_40
    9  A    between atoms: C_22  and  C_43
   10  A    between atoms: C_27  and  C_54
   11  A    between atoms: C_28  and  C_44
   12  A    between atoms: C_33  and  C_52
   13  A    between atoms: C_40  and  C_45
   14  A    between atoms: C_43  and  C_51
   15  A    between atoms: C_51  and  C_54
                            x       y       z     vdW  Elec       q    Type
                         _______ _______ _______ _____ _____    ______ ____

>  <TORSDO>
F 15

$$$$
=
 OpenBabel10262420353D

 55 60  0  0  1  0  0  0  0  0999 V2000
  184.0610  178.4210  141.7660 N   0  0  0  0  0  0  0  0  0  0  0  0
  184.4290  178.6170  144.4970 C   0  0  0  0  0  0  0  0  0  0  0  0
  183.1600  178.3440  143.9780 C   0  0  0  0  0  3  0  0  0  0  0  0
  185.3040  178.6820  142.2530 C   0  0  0  0  0  3  0  0  0  0  0  0
  182.9950  178.2470  142.5950 C   0  0  0  0  0  0  0  0  0  0  0  0
  185.5100  178.7860  143.6300 C   0  0  0  0  0  3  0  0  0  0  0  0
  181.6410  178.0170  142.0260 C   0  0  0  0  0  2  0  0  0  0  0  0
  181.1280  179.3060  141.4010 C   0  0  0  0  0  2  0  0  0  0  0  0
  181.7570  176.2350  137.3370 C   0  0  0  0  0  2  0  0  0  0  0  0
  183.8670  175.1500  136.5700 C   0  0  0  0  0  1  0  0  0  0  0  0
  182.9650  178.0980  137.9370 C   0  0  0  0  0  0  0  0  0  0  0  0
  183.6670  177.5190  136.9040 O   0  0  0  0  0  0  0  0  0  0  0  0
  182.9830  176.3710  136.4240 C   0  0  2  0  0  3  0  0  0  0  0  0
  181.8600  177.4420  138.2050 C   0  0  0  0  0  0  0  0  0  0  0  0
  182.2370  180.0890  139.2590 C   0  0  2  0  0  3  0  0  0  0  0  0
  183.4270  179.2860  138.7130 C   0  0  0  0  0  2  0  0  0  0  0  0
  180.9700  177.7810  139.3690 C   0  0  1  0  0  3  0  0  0  0  0  0
  181.1070  179.2370  139.8790 C   0  0  1  0  0  3  0  0  0  0  0  0
  182.0240  182.4370  138.4440 C   0  0  0  0  0  3  0  0  0  0  0  0
  180.7120  183.0080  136.4810 C   0  0  0  0  0  0  0  0  0  0  0  0
  180.8860  180.6960  137.2060 C   0  0  0  0  0  3  0  0  0  0  0  0
  180.3920  181.6520  136.3150 C   0  0  0  0  0  3  0  0  0  0  0  0
  181.5310  183.3930  137.5510 C   0  0  0  0  0  3  0  0  0  0  0  0
  181.7070  181.0860  138.2740 C   0  0  0  0  0  0  0  0  0  0  0  0
  180.1930  184.0180  135.5470 C   0  0  0  0  0  0  0  0  0  0  0  0
  180.8840  185.0280  135.2500 O   0  0  0  0  0  1  0  0  0  0  0  0
  178.9310  183.8660  134.9810 O   0  0  0  0  0  0  0  0  0  0  0  0
  178.9660  177.6760  137.8370 C   0  0  0  0  0  1  0  0  0  0  0  0
  179.5170  177.2940  139.1980 C   0  0  1  0  0  3  0  0  0  0  0  0
  178.9720  174.9490  138.3110 C   0  0  0  0  0  1  0  0  0  0  0  0
  179.2180  175.8220  139.5310 C   0  0  0  0  0  3  0  0  0  0  0  0
  180.2670  175.2020  140.4300 C   0  0  0  0  0  1  0  0  0  0  0  0
  184.6350  178.7360  145.9710 C   0  0  0  0  0  2  0  0  0  0  0  0
  185.7480  177.8110  146.4530 C   0  0  0  0  0  2  0  0  0  0  0  0
  186.0200  179.7320  148.0330 C   0  0  0  0  0  1  0  0  0  0  0  0
  186.7090  178.5430  147.3880 C   0  0  2  0  0  3  0  0  0  0  0  0
  187.9960  178.9560  146.6750 C   0  0  0  0  0  2  0  0  0  0  0  0
  189.1450  177.9840  146.9370 C   0  0  0  0  0  2  0  0  0  0  0  0
  191.6620  177.4840  143.0170 C   0  0  2  0  0  3  0  0  0  0  0  0
  191.0820  177.0980  145.5620 C   0  0  1  0  0  3  0  0  0  0  0  0
  189.0110  175.7440  145.9880 C   0  0  0  0  0  1  0  0  0  0  0  0
  190.5070  179.3770  144.0980 O   0  0  0  0  0  0  0  0  0  0  0  0
  191.6890  178.9750  143.4190 C   0  0  0  0  0  2  0  0  0  0  0  0
  189.5330  177.1450  145.7140 C   0  0  1  0  0  0  0  0  0  0  0  0
  189.4840  178.2130  142.1550 C   0  0  0  0  0  2  0  0  0  0  0  0
  190.5260  177.1790  142.1260 N   0  0  0  0  0  0  0  0  0  0  0  0
  188.7560  177.6520  144.4800 C   0  0  0  0  0  2  0  0  0  0  0  0
  191.8010  176.5210  146.7780 C   0  0  0  0  0  1  0  0  0  0  0  0
  189.3300  178.7640  143.5780 C   0  0  1  0  0  3  0  0  0  0  0  0
  191.6920  176.5550  144.2500 C   0  0  1  0  0  3  0  0  0  0  0  0
  191.4810  175.0950  143.9730 C   0  0  0  0  0  0  0  0  0  0  0  0
  192.3290  174.2400  144.3410 O   0  0  0  0  0  0  0  0  0  0  0  0
  190.3160  174.6750  143.2770 N   0  0  0  0  0  1  0  0  0  0  0  0
  191.0170  177.0340  140.7570 C   0  0  0  0  0  2  0  0  0  0  0  0
  190.2280  176.1410  140.0260 O   0  0  0  0  0  1  0  0  0  0  0  0
  1  4  2  0  0  0  0
  1  5  1  0  0  0  0
  2 33  1  0  0  0  0
  3  2  1  0  0  0  0
  4  6  1  0  0  0  0
  5  3  2  0  0  0  0
  6  2  2  0  0  0  0
  7  5  1  0  0  0  0
  8  7  1  0  0  0  0
  9 14  1  0  0  0  0
 11 14  2  0  0  0  0
 11 16  1  0  0  0  0
 12 11  1  0  0  0  0
 13 10  1  1  0  0  0
 13 12  1  0  0  0  0
 13  9  1  0  0  0  0
 14 17  1  0  0  0  0
 15 24  1  6  0  0  0
 15 18  1  0  0  0  0
 16 15  1  0  0  0  0
 17 29  1  6  0  0  0
 17 18  1  0  0  0  0
 18  8  1  1  0  0  0
 20 23  1  0  0  0  0
 21 24  2  0  0  0  0
 22 20  2  0  0  0  0
 22 21  1  0  0  0  0
 23 19  2  0  0  0  0
 24 19  1  0  0  0  0
 25 20  1  0  0  0  0
 26 25  1  0  0  0  0
 27 25  2  0  0  0  0
 29 28  1  6  0  0  0
 29 31  1  0  0  0  0
 30 31  1  0  0  0  0
 31 32  1  0  0  0  0
 33 34  1  0  0  0  0
 34 36  1  0  0  0  0
 36 35  1  6  0  0  0
 37 38  1  0  0  0  0
 37 36  1  0  0  0  0
 39 43  1  1  0  0  0
 39 50  1  0  0  0  0
 40 44  1  0  0  0  0
 40 48  1  1  0  0  0
 43 42  1  0  0  0  0
 44 41  1  1  0  0  0
 44 38  1  0  0  0  0
 46 45  1  0  0  0  0
 46 39  1  0  0  0  0
 47 44  1  0  0  0  0
 49 45  1  6  0  0  0
 49 42  1  0  0  0  0
 49 47  1  0  0  0  0
 50 51  1  6  0  0  0
 50 40  1  0  0  0  0
 51 52  2  0  0  0  0
 53 51  1  0  0  0  0
 54 46  1  0  0  0  0
 55 54  1  0  0  0  0
M  END
>  <MODEL>
8

>  <REMARK>
 VINA RESULT:      -4.7      2.678      6.372
  Name = 
  15 active torsions:
  status: ('A' for Active; 'I' for Inactive)
    1  A    between atoms: C_1  and  C_53
    2  A    between atoms: C_2  and  C_28
    3  A    between atoms: C_2  and  C_49
    4  A    between atoms: C_8  and  C_20
    5  A    between atoms: C_8  and  C_22
    6  A    between atoms: C_10  and  C_32
    7  A    between atoms: C_11  and  N_38
    8  A    between atoms: C_19  and  C_40
    9  A    between atoms: C_22  and  C_43
   10  A    between atoms: C_27  and  C_54
   11  A    between atoms: C_28  and  C_44
   12  A    between atoms: C_33  and  C_52
   13  A    between atoms: C_40  and  C_45
   14  A    between atoms: C_43  and  C_51
   15  A    between atoms: C_51  and  C_54
                            x       y       z     vdW  Elec       q    Type
                         _______ _______ _______ _____ _____    ______ ____

>  <TORSDO>
F 15

$$$$
=
 OpenBabel10262420353D

 55 60  0  0  1  0  0  0  0  0999 V2000
  185.1740  177.3060  137.0850 N   0  0  0  0  0  0  0  0  0  0  0  0
  184.9610  178.3940  139.6150 C   0  0  0  0  0  0  0  0  0  0  0  0
  185.9660  178.8290  138.7460 C   0  0  0  0  0  3  0  0  0  0  0  0
  184.1860  176.8740  137.9150 C   0  0  0  0  0  3  0  0  0  0  0  0
  186.0560  178.2690  137.4710 C   0  0  0  0  0  0  0  0  0  0  0  0
  184.0630  177.4110  139.1980 C   0  0  0  0  0  3  0  0  0  0  0  0
  187.1550  178.6770  136.5580 C   0  0  0  0  0  2  0  0  0  0  0  0
  188.4850  178.5870  137.2930 C   0  0  0  0  0  2  0  0  0  0  0  0
  192.8700  175.9310  137.5450 C   0  0  0  0  0  2  0  0  0  0  0  0
  194.8100  176.0590  135.9850 C   0  0  0  0  0  1  0  0  0  0  0  0
  191.4480  176.2020  135.7560 C   0  0  0  0  0  0  0  0  0  0  0  0
  192.5740  175.5940  135.2460 O   0  0  0  0  0  0  0  0  0  0  0  0
  193.5110  175.3400  136.2830 C   0  0  2  0  0  3  0  0  0  0  0  0
  191.5370  176.3860  137.0540 C   0  0  0  0  0  0  0  0  0  0  0  0
  188.9880  176.6370  135.7510 C   0  0  2  0  0  3  0  0  0  0  0  0
  190.2900  176.6640  134.9360 C   0  0  0  0  0  2  0  0  0  0  0  0
  190.5070  177.1430  137.8440 C   0  0  1  0  0  3  0  0  0  0  0  0
  189.1070  177.2000  137.1850 C   0  0  1  0  0  3  0  0  0  0  0  0
  187.5740  174.8980  136.8460 C   0  0  0  0  0  3  0  0  0  0  0  0
  187.0640  172.7830  135.7680 C   0  0  0  0  0  0  0  0  0  0  0  0
  188.4360  174.4350  134.6320 C   0  0  0  0  0  3  0  0  0  0  0  0
  187.8120  173.1840  134.6510 C   0  0  0  0  0  3  0  0  0  0  0  0
  186.9490  173.6480  136.8650 C   0  0  0  0  0  3  0  0  0  0  0  0
  188.3160  175.2980  135.7310 C   0  0  0  0  0  0  0  0  0  0  0  0
  186.4080  171.4670  135.7940 C   0  0  0  0  0  0  0  0  0  0  0  0
  185.1750  171.3720  136.0330 O   0  0  0  0  0  1  0  0  0  0  0  0
  187.1450  170.3120  135.5520 O   0  0  0  0  0  0  0  0  0  0  0  0
  191.7410  177.3110  140.0410 C   0  0  0  0  0  1  0  0  0  0  0  0
  190.4970  176.7880  139.3450 C   0  0  1  0  0  3  0  0  0  0  0  0
  189.1100  176.3720  141.4620 C   0  0  0  0  0  1  0  0  0  0  0  0
  189.2260  177.1210  140.1450 C   0  0  0  0  0  3  0  0  0  0  0  0
  189.0420  178.6080  140.3570 C   0  0  0  0  0  1  0  0  0  0  0  0
  184.8460  178.9700  140.9880 C   0  0  0  0  0  2  0  0  0  0  0  0
  184.8770  177.8780  142.0530 C   0  0  0  0  0  2  0  0  0  0  0  0
  182.8610  179.1370  142.8340 C   0  0  0  0  0  1  0  0  0  0  0  0
  184.0240  178.2590  143.2610 C   0  0  2  0  0  3  0  0  0  0  0  0
  184.8540  178.9200  144.3620 C   0  0  0  0  0  2  0  0  0  0  0  0
  185.5600  177.8980  145.2520 C   0  0  0  0  0  2  0  0  0  0  0  0
  189.6950  176.6570  147.0690 C   0  0  2  0  0  3  0  0  0  0  0  0
  187.8490  176.8120  145.1910 C   0  0  1  0  0  3  0  0  0  0  0  0
  187.4360  179.1190  144.2910 C   0  0  0  0  0  1  0  0  0  0  0  0
  187.3780  176.6990  147.9170 O   0  0  0  0  0  0  0  0  0  0  0  0
  188.5840  175.9470  147.8730 C   0  0  0  0  0  2  0  0  0  0  0  0
  187.0660  178.1420  145.3950 C   0  0  1  0  0  0  0  0  0  0  0  0
  188.9920  178.4780  148.5550 C   0  0  0  0  0  2  0  0  0  0  0  0
  190.0280  177.9750  147.6440 N   0  0  0  0  0  0  0  0  0  0  0  0
  187.3390  178.8810  146.7230 C   0  0  0  0  0  2  0  0  0  0  0  0
  187.6030  176.1570  143.8350 C   0  0  0  0  0  1  0  0  0  0  0  0
  187.6010  178.1020  148.0290 C   0  0  1  0  0  3  0  0  0  0  0  0
  189.3470  176.7560  145.5680 C   0  0  1  0  0  3  0  0  0  0  0  0
  190.2740  177.5920  144.7350 C   0  0  0  0  0  0  0  0  0  0  0  0
  190.1630  178.8450  144.7080 O   0  0  0  0  0  0  0  0  0  0  0  0
  191.2820  176.9580  143.9590 N   0  0  0  0  0  1  0  0  0  0  0  0
  191.2930  177.8760  148.3690 C   0  0  0  0  0  2  0  0  0  0  0  0
  192.0490  176.7870  147.9240 O   0  0  0  0  0  1  0  0  0  0  0  0
  1  5  2  0  0  0  0
  1  4  1  0  0  0  0
  2 33  1  0  0  0  0
  3  2  2  0  0  0  0
  4  6  2  0  0  0  0
  5  3  1  0  0  0  0
  6  2  1  0  0  0  0
  7  8  1  0  0  0  0
  7  5  1  0  0  0  0
 11 14  2  0  0  0  0
 12 11  1  0  0  0  0
 12 13  1  0  0  0  0
 13 10  1  6  0  0  0
 13  9  1  0  0  0  0
 14  9  1  0  0  0  0
 14 17  1  0  0  0  0
 15 24  1  1  0  0  0
 15 18  1  0  0  0  0
 16 15  1  0  0  0  0
 16 11  1  0  0  0  0
 17 29  1  1  0  0  0
 18  8  1  6  0  0  0
 18 17  1  0  0  0  0
 19 23  1  0  0  0  0
 20 25  1  0  0  0  0
 20 23  2  0  0  0  0
 21 22  2  0  0  0  0
 21 24  1  0  0  0  0
 22 20  1  0  0  0  0
 24 19  2  0  0  0  0
 25 26  1  0  0  0  0
 27 25  2  0  0  0  0
 29 28  1  1  0  0  0
 29 31  1  0  0  0  0
 31 32  1  0  0  0  0
 31 30  1  0  0  0  0
 33 34  1  0  0  0  0
 34 36  1  0  0  0  0
 36 35  1  6  0  0  0
 36 37  1  0  0  0  0
 37 38  1  0  0  0  0
 38 44  1  0  0  0  0
 39 46  1  0  0  0  0
 39 43  1  1  0  0  0
 40 48  1  6  0  0  0
 40 44  1  0  0  0  0
 40 50  1  0  0  0  0
 42 49  1  0  0  0  0
 43 42  1  0  0  0  0
 44 41  1  6  0  0  0
 44 47  1  0  0  0  0
 46 54  1  0  0  0  0
 46 45  1  0  0  0  0
 49 47  1  6  0  0  0
 49 45  1  0  0  0  0
 50 51  1  1  0  0  0
 50 39  1  0  0  0  0
 52 51  2  0  0  0  0
 53 51  1  0  0  0  0
 55 54  1  0  0  0  0
M  END
>  <MODEL>
9

>  <REMARK>
 VINA RESULT:      -4.7      3.042      8.162
  Name = 
  15 active torsions:
  status: ('A' for Active; 'I' for Inactive)
    1  A    between atoms: C_1  and  C_53
    2  A    between atoms: C_2  and  C_28
    3  A    between atoms: C_2  and  C_49
    4  A    between atoms: C_8  and  C_20
    5  A    between atoms: C_8  and  C_22
    6  A    between atoms: C_10  and  C_32
    7  A    between atoms: C_11  and  N_38
    8  A    between atoms: C_19  and  C_40
    9  A    between atoms: C_22  and  C_43
   10  A    between atoms: C_27  and  C_54
   11  A    between atoms: C_28  and  C_44
   12  A    between atoms: C_33  and  C_52
   13  A    between atoms: C_40  and  C_45
   14  A    between atoms: C_43  and  C_51
   15  A    between atoms: C_51  and  C_54
                            x       y       z     vdW  Elec       q    Type
                         _______ _______ _______ _____ _____    ______ ____

>  <TORSDO>
F 15

$$$$
