=
 OpenBabel10262421253D

 32 38  0  0  1  0  0  0  0  0999 V2000
  188.5990  176.6900  137.9980 S   0  0  0  0  0  0  0  0  0  0  0  0
  187.6940  177.8430  142.8520 C   0  0  0  0  0  0  0  0  0  0  0  0
  182.9650  179.0090  142.7100 C   0  0  0  0  0  3  0  0  0  0  0  0
  182.9300  179.0140  144.1090 C   0  0  0  0  0  3  0  0  0  0  0  0
  188.4960  177.5400  145.1080 C   0  0  0  0  0  0  0  0  0  0  0  0
  189.7790  177.1130  144.8810 C   0  0  0  0  0  0  0  0  0  0  0  0
  188.9810  177.4390  140.7740 C   0  0  1  0  0  3  0  0  0  0  0  0
  186.6610  178.0620  140.5850 C   0  0  0  0  0  2  0  0  0  0  0  0
  188.6820  177.5310  147.4850 C   0  0  0  0  0  0  0  0  0  0  0  0
  188.0290  178.3000  138.6620 C   0  0  0  0  0  2  0  0  0  0  0  0
  184.1530  178.7170  142.0330 C   0  0  0  0  0  3  0  0  0  0  0  0
  186.5520  178.1460  142.0870 C   0  0  0  0  0  0  0  0  0  0  0  0
  185.3210  178.4250  142.7500 C   0  0  0  0  0  0  0  0  0  0  0  0
  186.4150  178.1230  144.8590 N   0  0  0  0  0  0  0  0  0  0  0  0
  190.0300  177.1210  147.3200 C   0  0  0  0  0  3  0  0  0  0  0  0
  188.0230  178.3660  140.1330 N   0  0  2  0  0  0  0  0  0  0  0  0
  190.5750  176.8970  146.0230 C   0  0  0  0  0  3  0  0  0  0  0  0
  190.3440  177.5110  140.0920 C   0  0  0  0  0  2  0  0  0  0  0  0
  190.2890  176.8570  138.7040 C   0  0  1  0  0  3  0  0  0  0  0  0
  184.0820  178.7260  144.8450 C   0  0  0  0  0  3  0  0  0  0  0  0
  185.2770  178.4290  144.1800 C   0  0  0  0  0  0  0  0  0  0  0  0
  186.6170  178.0840  146.1800 N   0  0  0  0  0  0  0  0  0  0  0  0
  189.0870  177.7750  142.2620 C   0  0  2  0  0  3  0  0  0  0  0  0
  190.2440  176.6390  143.1900 S   0  0  0  0  0  0  0  0  0  0  0  0
  188.1080  177.7380  148.8420 C   0  0  0  0  0  1  0  0  0  0  0  0
  187.5460  177.8160  144.2160 C   0  0  0  0  0  0  0  0  0  0  0  0
  187.9240  177.7250  146.3280 C   0  0  0  0  0  0  0  0  0  0  0  0
  191.0180  175.5880  138.6730 N   0  0  0  0  0  2  0  0  0  0  0  0
  191.6990  175.4260  137.3890 C   0  0  0  0  0  2  0  0  0  0  0  0
  193.2120  175.5120  137.5520 C   0  0  0  0  0  3  0  0  0  0  0  0
  193.8350  174.1300  137.6290 C   0  0  0  0  0  1  0  0  0  0  0  0
  193.8390  176.3090  136.4230 C   0  0  0  0  0  1  0  0  0  0  0  0
  1 10  1  0  0  0  0
  1 19  1  0  0  0  0
  2 26  1  0  0  0  0
  3  4  1  0  0  0  0
  4 20  2  0  0  0  0
  5 27  1  0  0  0  0
  6  5  1  0  0  0  0
  6 17  2  0  0  0  0
  7 18  1  6  0  0  0
  7 23  1  0  0  0  0
  8 12  1  0  0  0  0
  9 25  1  0  0  0  0
 11  3  2  0  0  0  0
 11 13  1  0  0  0  0
 12 13  1  0  0  0  0
 12  2  2  0  0  0  0
 13 21  2  0  0  0  0
 14 22  1  0  0  0  0
 15  9  2  0  0  0  0
 16 10  1  6  0  0  0
 16  8  1  0  0  0  0
 16  7  1  0  0  0  0
 17 15  1  0  0  0  0
 19 28  1  1  0  0  0
 19 18  1  0  0  0  0
 21 20  1  0  0  0  0
 21 14  1  0  0  0  0
 22 27  2  0  0  0  0
 23  2  1  1  0  0  0
 23 24  1  0  0  0  0
 24  6  1  0  0  0  0
 26 14  1  0  0  0  0
 26  5  2  0  0  0  0
 27  9  1  0  0  0  0
 29 30  1  0  0  0  0
 29 28  1  0  0  0  0
 30 31  1  0  0  0  0
 32 30  1  0  0  0  0
M  END
>  <MODEL>
1

>  <REMARK>
 VINA RESULT:     -11.3      0.000      0.000
  Name = 
  3 active torsions:
  status: ('A' for Active; 'I' for Inactive)
    1  A    between atoms: C_1  and  C_10
    2  A    between atoms: C_10  and  N_19
    3  A    between atoms: N_19  and  C_24
                            x       y       z     vdW  Elec       q    Type
                         _______ _______ _______ _____ _____    ______ ____

>  <TORSDO>
F 3

$$$$
=
 OpenBabel10262421253D

 32 38  0  0  1  0  0  0  0  0999 V2000
  187.1610  177.0260  137.4180 S   0  0  0  0  0  0  0  0  0  0  0  0
  187.5350  177.9320  142.3930 C   0  0  0  0  0  0  0  0  0  0  0  0
  182.9280  179.0380  143.5290 C   0  0  0  0  0  3  0  0  0  0  0  0
  183.2540  178.9750  144.8890 C   0  0  0  0  0  3  0  0  0  0  0  0
  188.8920  177.5320  144.3490 C   0  0  0  0  0  0  0  0  0  0  0  0
  190.0730  177.1330  143.7780 C   0  0  0  0  0  0  0  0  0  0  0  0
  188.2450  177.6470  140.0370 C   0  0  1  0  0  3  0  0  0  0  0  0
  185.9530  178.2450  140.4820 C   0  0  0  0  0  2  0  0  0  0  0  0
  189.6830  177.4100  146.5950 C   0  0  0  0  0  0  0  0  0  0  0  0
  186.7800  178.5950  138.2860 C   0  0  0  0  0  2  0  0  0  0  0  0
  183.9020  178.7950  142.5560 C   0  0  0  0  0  3  0  0  0  0  0  0
  186.2350  178.2560  141.9640 C   0  0  0  0  0  0  0  0  0  0  0  0
  185.2160  178.4860  142.9340 C   0  0  0  0  0  0  0  0  0  0  0  0
  186.8160  178.0970  144.6730 N   0  0  0  0  0  0  0  0  0  0  0  0
  190.9440  177.0270  146.0680 C   0  0  0  0  0  3  0  0  0  0  0  0
  187.1530  178.5900  139.7100 N   0  0  2  0  0  0  0  0  0  0  0  0
  191.1370  176.8740  144.6650 C   0  0  0  0  0  3  0  0  0  0  0  0
  189.3860  177.7700  139.0320 C   0  0  0  0  0  2  0  0  0  0  0  0
  188.9760  177.1830  137.6730 C   0  0  1  0  0  3  0  0  0  0  0  0
  184.5580  178.6670  145.2890 C   0  0  0  0  0  3  0  0  0  0  0  0
  185.5410  178.4200  144.3250 C   0  0  0  0  0  0  0  0  0  0  0  0
  187.3520  177.9970  145.8930 N   0  0  0  0  0  0  0  0  0  0  0  0
  188.7300  177.9120  141.4620 C   0  0  2  0  0  3  0  0  0  0  0  0
  190.0880  176.7480  142.0040 S   0  0  0  0  0  0  0  0  0  0  0  0
  189.4770  177.5430  148.0620 C   0  0  0  0  0  1  0  0  0  0  0  0
  187.7440  177.8370  143.7460 C   0  0  0  0  0  0  0  0  0  0  0  0
  188.6530  177.6500  145.6830 C   0  0  0  0  0  0  0  0  0  0  0  0
  189.6730  175.9270  137.3920 N   0  0  0  0  0  2  0  0  0  0  0  0
  190.8250  175.7760  138.2810 C   0  0  0  0  0  2  0  0  0  0  0  0
  192.1240  175.6760  137.4900 C   0  0  0  0  0  3  0  0  0  0  0  0
  193.2540  176.4010  138.1970 C   0  0  0  0  0  1  0  0  0  0  0  0
  192.5010  174.2280  137.2410 C   0  0  0  0  0  1  0  0  0  0  0  0
  1 19  1  0  0  0  0
  1 10  1  0  0  0  0
  2 26  1  0  0  0  0
  3  4  1  0  0  0  0
  4 20  2  0  0  0  0
  5 27  1  0  0  0  0
  6  5  1  0  0  0  0
  6 17  2  0  0  0  0
  7 18  1  6  0  0  0
  7 23  1  0  0  0  0
  8 12  1  0  0  0  0
  9 25  1  0  0  0  0
 11 13  1  0  0  0  0
 11  3  2  0  0  0  0
 12  2  2  0  0  0  0
 12 13  1  0  0  0  0
 13 21  2  0  0  0  0
 14 22  1  0  0  0  0
 15  9  2  0  0  0  0
 16 10  1  6  0  0  0
 16  7  1  0  0  0  0
 16  8  1  0  0  0  0
 17 15  1  0  0  0  0
 19 28  1  1  0  0  0
 19 18  1  0  0  0  0
 21 14  1  0  0  0  0
 21 20  1  0  0  0  0
 23 24  1  1  0  0  0
 23  2  1  0  0  0  0
 24  6  1  0  0  0  0
 26  5  2  0  0  0  0
 26 14  1  0  0  0  0
 27 22  2  0  0  0  0
 27  9  1  0  0  0  0
 28 29  1  0  0  0  0
 30 31  1  0  0  0  0
 30 29  1  0  0  0  0
 32 30  1  0  0  0  0
M  END
>  <MODEL>
2

>  <REMARK>
 VINA RESULT:     -10.8      1.021      1.236
  Name = 
  3 active torsions:
  status: ('A' for Active; 'I' for Inactive)
    1  A    between atoms: C_1  and  C_10
    2  A    between atoms: C_10  and  N_19
    3  A    between atoms: N_19  and  C_24
                            x       y       z     vdW  Elec       q    Type
                         _______ _______ _______ _____ _____    ______ ____

>  <TORSDO>
F 3

$$$$
=
 OpenBabel10262421253D

 32 38  0  0  1  0  0  0  0  0999 V2000
  185.9420  177.5270  137.5780 S   0  0  0  0  0  0  0  0  0  0  0  0
  187.4690  177.9360  142.3960 C   0  0  0  0  0  0  0  0  0  0  0  0
  183.2680  178.9000  144.6680 C   0  0  0  0  0  3  0  0  0  0  0  0
  183.8970  178.7050  145.9030 C   0  0  0  0  0  3  0  0  0  0  0  0
  189.2320  177.3510  143.9370 C   0  0  0  0  0  0  0  0  0  0  0  0
  190.2430  177.0180  143.0730 C   0  0  0  0  0  0  0  0  0  0  0  0
  187.6110  177.8900  139.9230 C   0  0  1  0  0  3  0  0  0  0  0  0
  185.4950  178.4300  140.9420 C   0  0  0  0  0  2  0  0  0  0  0  0
  190.5160  177.0120  145.9160 C   0  0  0  0  0  0  0  0  0  0  0  0
  185.8000  179.0000  138.6590 C   0  0  0  0  0  2  0  0  0  0  0  0
  183.9870  178.7600  143.4780 C   0  0  0  0  0  3  0  0  0  0  0  0
  186.1100  178.2940  142.3130 C   0  0  0  0  0  0  0  0  0  0  0  0
  185.3460  178.4220  143.5090 C   0  0  0  0  0  0  0  0  0  0  0  0
  187.2970  177.8710  144.7850 N   0  0  0  0  0  0  0  0  0  0  0  0
  191.6150  176.6890  145.0780 C   0  0  0  0  0  3  0  0  0  0  0  0
  186.4900  178.8550  139.9520 N   0  0  2  0  0  0  0  0  0  0  0  0
  191.4770  176.6770  143.6600 C   0  0  0  0  0  3  0  0  0  0  0  0
  188.4920  178.1180  138.6990 C   0  0  0  0  0  2  0  0  0  0  0  0
  187.7700  177.6670  137.4210 C   0  0  1  0  0  3  0  0  0  0  0  0
  185.2520  178.3650  145.9590 C   0  0  0  0  0  3  0  0  0  0  0  0
  185.9820  178.2200  144.7740 C   0  0  0  0  0  0  0  0  0  0  0  0
  188.0970  177.6530  145.8330 N   0  0  0  0  0  0  0  0  0  0  0  0
  188.4160  178.0150  141.2170 C   0  0  2  0  0  3  0  0  0  0  0  0
  189.8410  176.8110  141.3140 S   0  0  0  0  0  0  0  0  0  0  0  0
  190.6570  176.9980  147.3970 C   0  0  0  0  0  1  0  0  0  0  0  0
  187.9810  177.7090  143.6480 C   0  0  0  0  0  0  0  0  0  0  0  0
  189.3080  177.3350  145.2950 C   0  0  0  0  0  0  0  0  0  0  0  0
  188.3610  176.4490  136.8650 N   0  0  0  0  0  2  0  0  0  0  0  0
  187.5350  175.2880  137.1940 C   0  0  0  0  0  2  0  0  0  0  0  0
  187.4110  174.3440  136.0040 C   0  0  0  0  0  3  0  0  0  0  0  0
  185.9570  174.1100  135.6380 C   0  0  0  0  0  1  0  0  0  0  0  0
  188.1760  174.8710  134.8060 C   0  0  0  0  0  1  0  0  0  0  0  0
  1 10  1  0  0  0  0
  2 26  1  0  0  0  0
  3  4  1  0  0  0  0
  4 20  2  0  0  0  0
  5 27  1  0  0  0  0
  6 17  2  0  0  0  0
  6  5  1  0  0  0  0
  7 18  1  6  0  0  0
  7 16  1  0  0  0  0
  7 23  1  0  0  0  0
  8 12  1  0  0  0  0
  9 25  1  0  0  0  0
 11 13  1  0  0  0  0
 11  3  2  0  0  0  0
 12  2  2  0  0  0  0
 12 13  1  0  0  0  0
 13 21  2  0  0  0  0
 14 22  1  0  0  0  0
 15  9  2  0  0  0  0
 16 10  1  6  0  0  0
 16  8  1  0  0  0  0
 17 15  1  0  0  0  0
 19 28  1  1  0  0  0
 19  1  1  0  0  0  0
 19 18  1  0  0  0  0
 21 14  1  0  0  0  0
 21 20  1  0  0  0  0
 23 24  1  1  0  0  0
 23  2  1  0  0  0  0
 24  6  1  0  0  0  0
 26  5  2  0  0  0  0
 26 14  1  0  0  0  0
 27 22  2  0  0  0  0
 27  9  1  0  0  0  0
 28 29  1  0  0  0  0
 30 29  1  0  0  0  0
 31 30  1  0  0  0  0
 32 30  1  0  0  0  0
M  END
>  <MODEL>
3

>  <REMARK>
 VINA RESULT:     -10.2      2.456      2.881
  Name = 
  3 active torsions:
  status: ('A' for Active; 'I' for Inactive)
    1  A    between atoms: C_1  and  C_10
    2  A    between atoms: C_10  and  N_19
    3  A    between atoms: N_19  and  C_24
                            x       y       z     vdW  Elec       q    Type
                         _______ _______ _______ _____ _____    ______ ____

>  <TORSDO>
F 3

$$$$
=
 OpenBabel10262421253D

 32 38  0  0  1  0  0  0  0  0999 V2000
  192.0140  177.5030  141.1220 S   0  0  0  0  0  0  0  0  0  0  0  0
  187.5860  177.7810  143.5770 C   0  0  0  0  0  0  0  0  0  0  0  0
  189.0560  177.9260  148.2200 C   0  0  0  0  0  3  0  0  0  0  0  0
  187.7540  178.2510  148.6160 C   0  0  0  0  0  3  0  0  0  0  0  0
  185.2580  178.3670  143.3330 C   0  0  0  0  0  0  0  0  0  0  0  0
  185.1240  178.3710  141.9690 C   0  0  0  0  0  0  0  0  0  0  0  0
  189.1840  177.3370  141.7370 C   0  0  1  0  0  3  0  0  0  0  0  0
  190.0100  177.3330  144.0000 C   0  0  0  0  0  2  0  0  0  0  0  0
  182.9700  178.8730  143.7780 C   0  0  0  0  0  0  0  0  0  0  0  0
  191.3470  176.3010  142.3340 C   0  0  0  0  0  2  0  0  0  0  0  0
  189.3550  177.7250  146.8690 C   0  0  0  0  0  3  0  0  0  0  0  0
  188.6230  177.6280  144.5160 C   0  0  0  0  0  0  0  0  0  0  0  0
  188.3530  177.8490  145.8980 C   0  0  0  0  0  0  0  0  0  0  0  0
  186.0690  178.3230  145.3510 N   0  0  0  0  0  0  0  0  0  0  0  0
  182.7550  178.8570  142.3750 C   0  0  0  0  0  3  0  0  0  0  0  0
  189.9600  176.5790  142.7430 N   0  0  2  0  0  0  0  0  0  0  0  0
  183.8300  178.6220  141.4710 C   0  0  0  0  0  3  0  0  0  0  0  0
  189.3820  176.7480  140.3430 C   0  0  0  0  0  2  0  0  0  0  0  0
  190.7920  177.0550  139.8220 C   0  0  1  0  0  3  0  0  0  0  0  0
  186.7380  178.3810  147.6650 C   0  0  0  0  0  3  0  0  0  0  0  0
  187.0250  178.1860  146.3100 C   0  0  0  0  0  0  0  0  0  0  0  0
  184.7720  178.6090  145.4970 N   0  0  0  0  0  0  0  0  0  0  0  0
  187.7070  177.3350  142.1350 C   0  0  2  0  0  3  0  0  0  0  0  0
  186.6280  178.3010  140.9540 S   0  0  0  0  0  0  0  0  0  0  0  0
  181.8500  179.1450  144.7180 C   0  0  0  0  0  1  0  0  0  0  0  0
  186.3570  178.1590  144.0560 C   0  0  0  0  0  0  0  0  0  0  0  0
  184.2680  178.6280  144.2300 C   0  0  0  0  0  0  0  0  0  0  0  0
  190.7680  178.0390  138.7390 N   0  0  0  0  0  2  0  0  0  0  0  0
  189.4000  178.5010  138.5030 C   0  0  0  0  0  2  0  0  0  0  0  0
  189.0560  178.4700  137.0180 C   0  0  0  0  0  3  0  0  0  0  0  0
  189.5510  177.1930  136.3660 C   0  0  0  0  0  1  0  0  0  0  0  0
  187.5630  178.6280  136.8010 C   0  0  0  0  0  1  0  0  0  0  0  0
  1 10  1  0  0  0  0
  2 26  1  0  0  0  0
  2 12  2  0  0  0  0
  3  4  1  0  0  0  0
  5 26  2  0  0  0  0
  5 27  1  0  0  0  0
  6  5  1  0  0  0  0
  7 18  1  6  0  0  0
  7 23  1  0  0  0  0
  7 16  1  0  0  0  0
  8 12  1  0  0  0  0
  9 27  1  0  0  0  0
  9 25  1  0  0  0  0
 11  3  2  0  0  0  0
 12 13  1  0  0  0  0
 13 21  2  0  0  0  0
 13 11  1  0  0  0  0
 14 22  1  0  0  0  0
 14 21  1  0  0  0  0
 15  9  2  0  0  0  0
 16 10  1  6  0  0  0
 16  8  1  0  0  0  0
 17  6  2  0  0  0  0
 17 15  1  0  0  0  0
 19 28  1  6  0  0  0
 19 18  1  0  0  0  0
 19  1  1  0  0  0  0
 20  4  2  0  0  0  0
 21 20  1  0  0  0  0
 23 24  1  6  0  0  0
 23  2  1  0  0  0  0
 24  6  1  0  0  0  0
 26 14  1  0  0  0  0
 27 22  2  0  0  0  0
 29 28  1  0  0  0  0
 30 29  1  0  0  0  0
 31 30  1  0  0  0  0
 32 30  1  0  0  0  0
M  END
>  <MODEL>
4

>  <REMARK>
 VINA RESULT:      -9.6      1.982      4.942
  Name = 
  3 active torsions:
  status: ('A' for Active; 'I' for Inactive)
    1  A    between atoms: C_1  and  C_10
    2  A    between atoms: C_10  and  N_19
    3  A    between atoms: N_19  and  C_24
                            x       y       z     vdW  Elec       q    Type
                         _______ _______ _______ _____ _____    ______ ____

>  <TORSDO>
F 3

$$$$
=
 OpenBabel10262421253D

 32 38  0  0  1  0  0  0  0  0999 V2000
  181.3680  178.2480  143.1350 S   0  0  0  0  0  0  0  0  0  0  0  0
  186.4280  178.2590  142.8070 C   0  0  0  0  0  0  0  0  0  0  0  0
  187.7050  177.5000  147.4470 C   0  0  0  0  0  3  0  0  0  0  0  0
  189.0280  177.2940  147.0440 C   0  0  0  0  0  3  0  0  0  0  0  0
  188.2810  177.9760  141.2880 C   0  0  0  0  0  0  0  0  0  0  0  0
  187.6580  178.1180  140.0750 C   0  0  0  0  0  0  0  0  0  0  0  0
  184.0710  178.6860  142.1760 C   0  0  1  0  0  3  0  0  0  0  0  0
  184.5980  178.3770  144.5070 C   0  0  0  0  0  2  0  0  0  0  0  0
  190.4680  177.7030  140.3770 C   0  0  0  0  0  0  0  0  0  0  0  0
  182.5250  179.3990  143.9690 C   0  0  0  0  0  2  0  0  0  0  0  0
  186.7150  177.7930  146.5050 C   0  0  0  0  0  3  0  0  0  0  0  0
  186.0560  178.1990  144.1630 C   0  0  0  0  0  0  0  0  0  0  0  0
  187.0390  177.8800  145.1440 C   0  0  0  0  0  0  0  0  0  0  0  0
  188.6860  177.7320  143.4110 N   0  0  0  0  0  0  0  0  0  0  0  0
  189.8920  177.8780  139.0920 C   0  0  0  0  0  3  0  0  0  0  0  0
  183.9250  179.2480  143.5370 N   0  0  2  0  0  0  0  0  0  0  0  0
  188.4890  178.0700  138.9380 C   0  0  0  0  0  3  0  0  0  0  0  0
  183.1250  179.3780  141.2000 C   0  0  0  0  0  2  0  0  0  0  0  0
  181.6720  178.9590  141.4650 C   0  0  1  0  0  3  0  0  0  0  0  0
  189.3750  177.3750  145.6920 C   0  0  0  0  0  3  0  0  0  0  0  0
  188.3930  177.6640  144.7380 C   0  0  0  0  0  0  0  0  0  0  0  0
  189.8690  177.5880  142.8060 N   0  0  0  0  0  0  0  0  0  0  0  0
  185.5260  178.8230  141.7290 C   0  0  2  0  0  3  0  0  0  0  0  0
  185.8430  178.1070  140.0320 S   0  0  0  0  0  0  0  0  0  0  0  0
  191.9300  177.4760  140.5330 C   0  0  0  0  0  1  0  0  0  0  0  0
  187.7370  177.9840  142.5030 C   0  0  0  0  0  0  0  0  0  0  0  0
  189.6100  177.7490  141.4770 C   0  0  0  0  0  0  0  0  0  0  0  0
  181.1550  178.0920  140.4050 N   0  0  0  0  0  2  0  0  0  0  0  0
  181.8270  178.3820  139.1390 C   0  0  0  0  0  2  0  0  0  0  0  0
  182.1920  177.1000  138.4010 C   0  0  0  0  0  3  0  0  0  0  0  0
  183.2530  177.3580  137.3460 C   0  0  0  0  0  1  0  0  0  0  0  0
  182.6600  176.0280  139.3660 C   0  0  0  0  0  1  0  0  0  0  0  0
  1 10  1  0  0  0  0
  2 12  2  0  0  0  0
  4  3  1  0  0  0  0
  5 27  1  0  0  0  0
  5 26  2  0  0  0  0
  6  5  1  0  0  0  0
  7 18  1  6  0  0  0
  7 16  1  0  0  0  0
  9 25  1  0  0  0  0
  9 27  1  0  0  0  0
 11  3  2  0  0  0  0
 12  8  1  0  0  0  0
 12 13  1  0  0  0  0
 13 11  1  0  0  0  0
 14 21  1  0  0  0  0
 15  9  2  0  0  0  0
 16 10  1  1  0  0  0
 16  8  1  0  0  0  0
 17 15  1  0  0  0  0
 17  6  2  0  0  0  0
 18 19  1  0  0  0  0
 19 28  1  6  0  0  0
 19  1  1  0  0  0  0
 20  4  2  0  0  0  0
 21 13  2  0  0  0  0
 21 20  1  0  0  0  0
 22 14  1  0  0  0  0
 23 24  1  6  0  0  0
 23  7  1  0  0  0  0
 23  2  1  0  0  0  0
 24  6  1  0  0  0  0
 26  2  1  0  0  0  0
 26 14  1  0  0  0  0
 27 22  2  0  0  0  0
 29 28  1  0  0  0  0
 30 29  1  0  0  0  0
 30 32  1  0  0  0  0
 31 30  1  0  0  0  0
M  END
>  <MODEL>
5

>  <REMARK>
 VINA RESULT:      -8.9      2.874      6.952
  Name = 
  3 active torsions:
  status: ('A' for Active; 'I' for Inactive)
    1  A    between atoms: C_1  and  C_10
    2  A    between atoms: C_10  and  N_19
    3  A    between atoms: N_19  and  C_24
                            x       y       z     vdW  Elec       q    Type
                         _______ _______ _______ _____ _____    ______ ____

>  <TORSDO>
F 3

$$$$
=
 OpenBabel10262421253D

 32 38  0  0  1  0  0  0  0  0999 V2000
  189.5420  176.9980  138.1910 S   0  0  0  0  0  0  0  0  0  0  0  0
  185.0380  178.3550  140.0840 C   0  0  0  0  0  0  0  0  0  0  0  0
  182.1520  177.8380  136.1920 C   0  0  0  0  0  3  0  0  0  0  0  0
  181.0290  178.0000  137.0110 C   0  0  0  0  0  3  0  0  0  0  0  0
  183.7830  178.6130  142.1290 C   0  0  0  0  0  0  0  0  0  0  0  0
  184.7880  178.6170  143.0620 C   0  0  0  0  0  0  0  0  0  0  0  0
  187.5000  178.1600  139.8930 C   0  0  1  0  0  3  0  0  0  0  0  0
  186.1720  177.9400  137.8940 C   0  0  0  0  0  2  0  0  0  0  0  0
  182.0240  178.9520  143.7030 C   0  0  0  0  0  0  0  0  0  0  0  0
  188.4870  178.3910  137.6390 C   0  0  0  0  0  2  0  0  0  0  0  0
  183.4380  177.8830  136.7390 C   0  0  0  0  0  3  0  0  0  0  0  0
  184.9140  178.1620  138.6950 C   0  0  0  0  0  0  0  0  0  0  0  0
  183.6140  178.0900  138.1140 C   0  0  0  0  0  0  0  0  0  0  0  0
  182.6510  178.4290  140.2800 N   0  0  0  0  0  0  0  0  0  0  0  0
  183.0180  179.0020  144.7150 C   0  0  0  0  0  3  0  0  0  0  0  0
  187.3180  178.6270  138.5010 N   0  0  2  0  0  0  0  0  0  0  0  0
  184.3950  178.8200  144.3990 C   0  0  0  0  0  3  0  0  0  0  0  0
  188.8540  178.6030  140.4400 C   0  0  0  0  0  2  0  0  0  0  0  0
  189.9900  177.8070  139.7820 C   0  0  1  0  0  3  0  0  0  0  0  0
  181.1800  178.2060  138.3850 C   0  0  0  0  0  3  0  0  0  0  0  0
  182.4620  178.2500  138.9450 C   0  0  0  0  0  0  0  0  0  0  0  0
  181.7380  178.6180  141.2380 N   0  0  0  0  0  0  0  0  0  0  0  0
  186.3540  178.6890  140.7560 C   0  0  2  0  0  3  0  0  0  0  0  0
  186.4550  178.1280  142.5350 S   0  0  0  0  0  0  0  0  0  0  0  0
  180.5840  179.1150  144.0390 C   0  0  0  0  0  1  0  0  0  0  0  0
  183.8780  178.4440  140.8110 C   0  0  0  0  0  0  0  0  0  0  0  0
  182.4540  178.7400  142.3910 C   0  0  0  0  0  0  0  0  0  0  0  0
  190.6030  176.8630  140.7160 N   0  0  0  0  0  2  0  0  0  0  0  0
  190.2020  177.1730  142.0880 C   0  0  0  0  0  2  0  0  0  0  0  0
  191.4160  177.3590  142.9910 C   0  0  0  0  0  3  0  0  0  0  0  0
  191.3130  178.6430  143.7920 C   0  0  0  0  0  1  0  0  0  0  0  0
  191.5940  176.1720  143.9180 C   0  0  0  0  0  1  0  0  0  0  0  0
  1 19  1  0  0  0  0
  2 26  1  0  0  0  0
  3 11  2  0  0  0  0
  3  4  1  0  0  0  0
  4 20  2  0  0  0  0
  5 27  1  0  0  0  0
  5  6  1  0  0  0  0
  6 17  2  0  0  0  0
  7 18  1  1  0  0  0
  7 23  1  0  0  0  0
  8 16  1  0  0  0  0
  8 12  1  0  0  0  0
  9 25  1  0  0  0  0
  9 15  2  0  0  0  0
 10  1  1  0  0  0  0
 11 13  1  0  0  0  0
 12  2  2  0  0  0  0
 13 12  1  0  0  0  0
 13 21  2  0  0  0  0
 14 26  1  0  0  0  0
 14 22  1  0  0  0  0
 16 10  1  6  0  0  0
 16  7  1  0  0  0  0
 17 15  1  0  0  0  0
 19 18  1  0  0  0  0
 19 28  1  1  0  0  0
 20 21  1  0  0  0  0
 21 14  1  0  0  0  0
 22 27  2  0  0  0  0
 23  2  1  6  0  0  0
 23 24  1  0  0  0  0
 24  6  1  0  0  0  0
 26  5  2  0  0  0  0
 27  9  1  0  0  0  0
 28 29  1  0  0  0  0
 29 30  1  0  0  0  0
 30 31  1  0  0  0  0
 30 32  1  0  0  0  0
M  END
>  <MODEL>
6

>  <REMARK>
 VINA RESULT:      -8.9      3.285      5.529
  Name = 
  3 active torsions:
  status: ('A' for Active; 'I' for Inactive)
    1  A    between atoms: C_1  and  C_10
    2  A    between atoms: C_10  and  N_19
    3  A    between atoms: N_19  and  C_24
                            x       y       z     vdW  Elec       q    Type
                         _______ _______ _______ _____ _____    ______ ____

>  <TORSDO>
F 3

$$$$
=
 OpenBabel10262421253D

 32 38  0  0  1  0  0  0  0  0999 V2000
  191.6630  176.2310  143.8370 S   0  0  0  0  0  0  0  0  0  0  0  0
  188.1440  177.9400  140.6110 C   0  0  0  0  0  0  0  0  0  0  0  0
  190.1990  176.9350  136.3090 C   0  0  0  0  0  3  0  0  0  0  0  0
  188.9920  177.2360  135.6680 C   0  0  0  0  0  3  0  0  0  0  0  0
  185.8090  178.5120  140.4000 C   0  0  0  0  0  0  0  0  0  0  0  0
  185.4420  178.6280  141.7160 C   0  0  0  0  0  0  0  0  0  0  0  0
  189.3990  177.6670  142.7290 C   0  0  1  0  0  3  0  0  0  0  0  0
  190.5300  177.1920  140.6550 C   0  0  0  0  0  2  0  0  0  0  0  0
  183.6730  179.1100  139.5250 C   0  0  0  0  0  0  0  0  0  0  0  0
  191.8630  177.5530  142.5840 C   0  0  0  0  0  2  0  0  0  0  0  0
  190.3050  177.0300  137.6990 C   0  0  0  0  0  3  0  0  0  0  0  0
  189.2850  177.5540  139.8830 C   0  0  0  0  0  0  0  0  0  0  0  0
  189.2010  177.4270  138.4660 C   0  0  0  0  0  0  0  0  0  0  0  0
  186.9020  178.0910  138.5670 N   0  0  0  0  0  0  0  0  0  0  0  0
  183.2370  179.2820  140.8650 C   0  0  0  0  0  3  0  0  0  0  0  0
  190.6070  177.9350  141.9180 N   0  0  2  0  0  0  0  0  0  0  0  0
  184.1130  179.0280  141.9590 C   0  0  0  0  0  3  0  0  0  0  0  0
  189.5890  178.1540  144.1620 C   0  0  0  0  0  2  0  0  0  0  0  0
  190.5740  177.2490  144.9150 C   0  0  1  0  0  3  0  0  0  0  0  0
  187.8770  177.6320  136.4120 C   0  0  0  0  0  3  0  0  0  0  0  0
  187.9690  177.7280  137.8050 C   0  0  0  0  0  0  0  0  0  0  0  0
  185.6710  178.4350  138.1760 N   0  0  0  0  0  0  0  0  0  0  0  0
  188.1920  178.3370  142.0710 C   0  0  2  0  0  3  0  0  0  0  0  0
  186.5930  178.0340  142.9880 S   0  0  0  0  0  0  0  0  0  0  0  0
  182.7480  179.3500  138.3850 C   0  0  0  0  0  1  0  0  0  0  0  0
  186.9910  178.1560  139.9000 C   0  0  0  0  0  0  0  0  0  0  0  0
  184.9940  178.7040  139.3280 C   0  0  0  0  0  0  0  0  0  0  0  0
  189.8990  176.4340  145.9260 N   0  0  0  0  0  2  0  0  0  0  0  0
  189.8500  177.1470  147.2030 C   0  0  0  0  0  2  0  0  0  0  0  0
  188.4270  177.2130  147.7450 C   0  0  0  0  0  3  0  0  0  0  0  0
  188.3060  178.2520  148.8440 C   0  0  0  0  0  1  0  0  0  0  0  0
  187.4330  177.5000  146.6360 C   0  0  0  0  0  1  0  0  0  0  0  0
  1 19  1  0  0  0  0
  3 11  1  0  0  0  0
  4  3  2  0  0  0  0
  4 20  1  0  0  0  0
  5  6  1  0  0  0  0
  6 17  2  0  0  0  0
  6 24  1  0  0  0  0
  7 18  1  1  0  0  0
  9 15  2  0  0  0  0
 10  1  1  0  0  0  0
 11 13  2  0  0  0  0
 12  2  2  0  0  0  0
 12  8  1  0  0  0  0
 13 12  1  0  0  0  0
 14 26  1  0  0  0  0
 15 17  1  0  0  0  0
 16  8  1  6  0  0  0
 16 10  1  0  0  0  0
 16  7  1  0  0  0  0
 18 19  1  0  0  0  0
 19 28  1  1  0  0  0
 20 21  2  0  0  0  0
 21 13  1  0  0  0  0
 21 14  1  0  0  0  0
 22 14  1  0  0  0  0
 22 27  2  0  0  0  0
 23  2  1  6  0  0  0
 23  7  1  0  0  0  0
 23 24  1  0  0  0  0
 25  9  1  0  0  0  0
 26  5  2  0  0  0  0
 26  2  1  0  0  0  0
 27  9  1  0  0  0  0
 27  5  1  0  0  0  0
 28 29  1  0  0  0  0
 29 30  1  0  0  0  0
 30 31  1  0  0  0  0
 32 30  1  0  0  0  0
M  END
>  <MODEL>
7

>  <REMARK>
 VINA RESULT:      -8.9      2.328      7.646
  Name = 
  3 active torsions:
  status: ('A' for Active; 'I' for Inactive)
    1  A    between atoms: C_1  and  C_10
    2  A    between atoms: C_10  and  N_19
    3  A    between atoms: N_19  and  C_24
                            x       y       z     vdW  Elec       q    Type
                         _______ _______ _______ _____ _____    ______ ____

>  <TORSDO>
F 3

$$$$
=
 OpenBabel10262421253D

 32 38  0  0  1  0  0  0  0  0999 V2000
  183.1340  179.8110  138.6870 S   0  0  0  0  0  0  0  0  0  0  0  0
  186.2680  178.2070  142.3350 C   0  0  0  0  0  0  0  0  0  0  0  0
  190.4230  177.6210  139.8590 C   0  0  0  0  0  3  0  0  0  0  0  0
  191.1130  177.4550  141.0660 C   0  0  0  0  0  3  0  0  0  0  0  0
  186.6080  178.1470  144.7240 C   0  0  0  0  0  0  0  0  0  0  0  0
  185.3500  178.4470  145.1810 C   0  0  0  0  0  0  0  0  0  0  0  0
  184.1380  178.7010  141.1720 C   0  0  1  0  0  3  0  0  0  0  0  0
  186.1230  178.3770  139.8440 C   0  0  0  0  0  2  0  0  0  0  0  0
  187.5620  177.8550  146.8890 C   0  0  0  0  0  0  0  0  0  0  0  0
  184.0240  178.2100  138.7520 C   0  0  0  0  0  2  0  0  0  0  0  0
  189.0450  177.8510  139.8580 C   0  0  0  0  0  3  0  0  0  0  0  0
  186.9300  178.1300  141.0950 C   0  0  0  0  0  0  0  0  0  0  0  0
  188.3390  177.9190  141.0660 C   0  0  0  0  0  0  0  0  0  0  0  0
  188.3520  177.8420  143.4610 N   0  0  0  0  0  0  0  0  0  0  0  0
  186.2770  178.1230  147.4280 C   0  0  0  0  0  3  0  0  0  0  0  0
  184.7240  177.9730  140.0250 N   0  0  2  0  0  0  0  0  0  0  0  0
  185.1760  178.4330  146.5780 C   0  0  0  0  0  3  0  0  0  0  0  0
  182.6200  178.5530  141.1880 C   0  0  0  0  0  2  0  0  0  0  0  0
  181.9840  179.3670  140.0520 C   0  0  1  0  0  3  0  0  0  0  0  0
  190.4300  177.5200  142.2830 C   0  0  0  0  0  3  0  0  0  0  0  0
  189.0500  177.7520  142.2960 C   0  0  0  0  0  0  0  0  0  0  0  0
  188.7930  177.7020  144.7140 N   0  0  0  0  0  0  0  0  0  0  0  0
  184.7600  178.1820  142.4680 C   0  0  2  0  0  3  0  0  0  0  0  0
  184.1230  179.0590  143.9900 S   0  0  0  0  0  0  0  0  0  0  0  0
  188.7150  177.5580  147.7800 C   0  0  0  0  0  1  0  0  0  0  0  0
  187.0380  178.0900  143.4650 C   0  0  0  0  0  0  0  0  0  0  0  0
  187.6950  177.8870  145.5000 C   0  0  0  0  0  0  0  0  0  0  0  0
  181.2670  180.5380  140.5590 N   0  0  0  0  0  2  0  0  0  0  0  0
  179.8360  180.4180  140.2790 C   0  0  0  0  0  2  0  0  0  0  0  0
  179.0650  179.9820  141.5200 C   0  0  0  0  0  3  0  0  0  0  0  0
  178.9320  178.4720  141.5800 C   0  0  0  0  0  1  0  0  0  0  0  0
  179.7230  180.5030  142.7830 C   0  0  0  0  0  1  0  0  0  0  0  0
  1 10  1  0  0  0  0
  1 19  1  0  0  0  0
  2 26  1  0  0  0  0
  3  4  1  0  0  0  0
  4 20  2  0  0  0  0
  5  6  1  0  0  0  0
  5 27  1  0  0  0  0
  6 17  2  0  0  0  0
  7 18  1  1  0  0  0
  7 23  1  0  0  0  0
  8 16  1  0  0  0  0
  8 12  1  0  0  0  0
  9 15  2  0  0  0  0
  9 25  1  0  0  0  0
 11  3  2  0  0  0  0
 11 13  1  0  0  0  0
 12  2  2  0  0  0  0
 13 12  1  0  0  0  0
 13 21  2  0  0  0  0
 14 26  1  0  0  0  0
 14 22  1  0  0  0  0
 16 10  1  6  0  0  0
 16  7  1  0  0  0  0
 17 15  1  0  0  0  0
 19 28  1  1  0  0  0
 19 18  1  0  0  0  0
 20 21  1  0  0  0  0
 21 14  1  0  0  0  0
 22 27  2  0  0  0  0
 23  2  1  6  0  0  0
 23 24  1  0  0  0  0
 24  6  1  0  0  0  0
 26  5  2  0  0  0  0
 27  9  1  0  0  0  0
 29 28  1  0  0  0  0
 29 30  1  0  0  0  0
 30 31  1  0  0  0  0
 30 32  1  0  0  0  0
M  END
>  <MODEL>
8

>  <REMARK>
 VINA RESULT:      -8.7      2.881      7.264
  Name = 
  3 active torsions:
  status: ('A' for Active; 'I' for Inactive)
    1  A    between atoms: C_1  and  C_10
    2  A    between atoms: C_10  and  N_19
    3  A    between atoms: N_19  and  C_24
                            x       y       z     vdW  Elec       q    Type
                         _______ _______ _______ _____ _____    ______ ____

>  <TORSDO>
F 3

$$$$
=
 OpenBabel10262421253D

 32 38  0  0  1  0  0  0  0  0999 V2000
  186.8000  178.3780  147.1230 S   0  0  0  0  0  0  0  0  0  0  0  0
  186.2860  178.1400  142.0840 C   0  0  0  0  0  0  0  0  0  0  0  0
  181.5920  179.3210  141.5280 C   0  0  0  0  0  3  0  0  0  0  0  0
  181.7900  179.4340  140.1470 C   0  0  0  0  0  3  0  0  0  0  0  0
  187.4990  178.1940  139.9990 C   0  0  0  0  0  0  0  0  0  0  0  0
  188.7790  177.9520  140.4260 C   0  0  0  0  0  0  0  0  0  0  0  0
  187.2540  177.7410  144.3300 C   0  0  1  0  0  3  0  0  0  0  0  0
  184.9080  178.2670  144.1670 C   0  0  0  0  0  2  0  0  0  0  0  0
  188.0580  178.2880  137.6830 C   0  0  0  0  0  0  0  0  0  0  0  0
  185.6810  177.2760  146.1790 C   0  0  0  0  0  2  0  0  0  0  0  0
  182.6530  178.9720  142.3690 C   0  0  0  0  0  3  0  0  0  0  0  0
  185.0220  178.3530  142.6650 C   0  0  0  0  0  0  0  0  0  0  0  0
  183.9270  178.7330  141.8360 C   0  0  0  0  0  0  0  0  0  0  0  0
  185.3710  178.6380  139.9270 N   0  0  0  0  0  0  0  0  0  0  0  0
  189.3980  178.0040  138.0540 C   0  0  0  0  0  3  0  0  0  0  0  0
  185.8880  177.3280  144.7220 N   0  0  2  0  0  0  0  0  0  0  0  0
  189.7620  177.8510  139.4230 C   0  0  0  0  0  3  0  0  0  0  0  0
  188.3020  176.9890  145.1440 C   0  0  0  0  0  2  0  0  0  0  0  0
  188.3210  177.4890  146.5950 C   0  0  1  0  0  3  0  0  0  0  0  0
  183.0520  179.2010  139.5940 C   0  0  0  0  0  3  0  0  0  0  0  0
  184.1230  178.8540  140.4240 C   0  0  0  0  0  0  0  0  0  0  0  0
  185.7840  178.6740  138.6560 N   0  0  0  0  0  0  0  0  0  0  0  0
  187.4400  177.5030  142.8310 C   0  0  2  0  0  3  0  0  0  0  0  0
  189.1220  178.0280  142.2080 S   0  0  0  0  0  0  0  0  0  0  0  0
  187.6860  178.4730  136.2540 C   0  0  0  0  0  1  0  0  0  0  0  0
  186.3950  178.3320  140.7300 C   0  0  0  0  0  0  0  0  0  0  0  0
  187.1150  178.3870  138.7080 C   0  0  0  0  0  0  0  0  0  0  0  0
  189.5290  178.2620  146.8870 N   0  0  0  0  0  2  0  0  0  0  0  0
  190.4290  177.4930  147.7460 C   0  0  0  0  0  2  0  0  0  0  0  0
  191.1770  176.4290  146.9500 C   0  0  0  0  0  3  0  0  0  0  0  0
  191.7290  176.9990  145.6560 C   0  0  0  0  0  1  0  0  0  0  0  0
  192.2940  175.8160  147.7740 C   0  0  0  0  0  1  0  0  0  0  0  0
  2 12  2  0  0  0  0
  3 11  1  0  0  0  0
  4  3  2  0  0  0  0
  5  6  1  0  0  0  0
  5 26  2  0  0  0  0
  6 24  1  0  0  0  0
  7 16  1  0  0  0  0
  7 18  1  1  0  0  0
  9 15  2  0  0  0  0
  9 27  1  0  0  0  0
 10  1  1  0  0  0  0
 12  8  1  0  0  0  0
 13 11  2  0  0  0  0
 13 12  1  0  0  0  0
 14 21  1  0  0  0  0
 14 26  1  0  0  0  0
 15 17  1  0  0  0  0
 16  8  1  6  0  0  0
 16 10  1  0  0  0  0
 17  6  2  0  0  0  0
 18 19  1  0  0  0  0
 19 28  1  6  0  0  0
 19  1  1  0  0  0  0
 20  4  1  0  0  0  0
 20 21  2  0  0  0  0
 21 13  1  0  0  0  0
 22 27  2  0  0  0  0
 22 14  1  0  0  0  0
 23  2  1  6  0  0  0
 23  7  1  0  0  0  0
 24 23  1  0  0  0  0
 25  9  1  0  0  0  0
 26  2  1  0  0  0  0
 27  5  1  0  0  0  0
 28 29  1  0  0  0  0
 30 29  1  0  0  0  0
 30 32  1  0  0  0  0
 31 30  1  0  0  0  0
M  END
>  <MODEL>
9

>  <REMARK>
 VINA RESULT:      -8.7      2.423      6.791
  Name = 
  3 active torsions:
  status: ('A' for Active; 'I' for Inactive)
    1  A    between atoms: C_1  and  C_10
    2  A    between atoms: C_10  and  N_19
    3  A    between atoms: N_19  and  C_24
                            x       y       z     vdW  Elec       q    Type
                         _______ _______ _______ _____ _____    ______ ____

>  <TORSDO>
F 3

$$$$
