=
 OpenBabel10262419383D

 31 34  0  0  1  0  0  0  0  0999 V2000
  184.1840  178.7700  145.3520 C   0  0  0  0  0  0  0  0  0  0  0  0
  185.8830  178.1250  142.0080 C   0  0  2  0  0  3  0  0  0  0  0  0
  185.1480  178.9350  140.9380 C   0  0  1  0  0  3  0  0  0  0  0  0
  185.6160  178.2710  143.4660 C   0  0  0  0  0  0  0  0  0  0  0  0
  185.1640  178.2870  146.2250 C   0  0  0  0  0  3  0  0  0  0  0  0
  188.0800  177.2350  142.3450 N   0  0  0  0  0  0  0  0  0  0  0  0
  183.0150  179.2450  145.8420 F   0  0  0  0  0  0  0  0  0  0  0  0
  187.3470  178.5190  140.2980 C   0  0  0  0  0  0  0  0  0  0  0  0
  187.9540  177.2900  143.8220 C   0  0  0  0  0  2  0  0  0  0  0  0
  187.3530  178.3730  141.7740 C   0  0  1  0  0  3  0  0  0  0  0  0
  184.4060  178.7540  143.9720 C   0  0  0  0  0  3  0  0  0  0  0  0
  186.6000  177.7640  144.3430 C   0  0  0  0  0  0  0  0  0  0  0  0
  186.3700  177.7890  145.7210 C   0  0  0  0  0  3  0  0  0  0  0  0
  188.3590  178.4210  139.5560 O   0  0  0  0  0  0  0  0  0  0  0  0
  186.0730  178.9150  139.8110 N   0  0  0  0  0  2  0  0  0  0  0  0
  183.8560  178.2440  140.5230 C   0  0  0  0  0  2  0  0  0  0  0  0
  183.5580  178.4350  139.0440 C   0  0  0  0  0  2  0  0  0  0  0  0
  182.6380  179.5870  138.8290 C   0  0  0  0  0  0  0  0  0  0  0  0
  181.2770  179.3660  138.6620 O   0  0  0  0  0  0  0  0  0  0  0  0
  183.0880  180.7620  138.8270 O   0  0  0  0  0  1  0  0  0  0  0  0
  189.5000  177.4060  142.0700 C   0  0  0  0  0  2  0  0  0  0  0  0
  189.9290  175.2230  142.8400 O   0  0  0  0  0  0  0  0  0  0  0  0
  190.2910  176.3890  142.8250 C   0  0  0  0  0  0  0  0  0  0  0  0
  190.3390  177.0070  146.1780 C   0  0  2  0  0  3  0  0  0  0  0  0
  192.0590  175.7000  144.4770 C   0  0  0  0  0  2  0  0  0  0  0  0
  191.7160  179.2850  143.6090 F   0  0  0  0  0  0  0  0  0  0  0  0
  189.8700  177.3700  147.5720 C   0  0  0  0  0  1  0  0  0  0  0  0
  191.7540  175.8680  146.2860 S   0  0  0  0  0  0  0  0  0  0  0  0
  191.3270  178.1520  144.2490 C   0  0  0  0  0  0  0  0  0  0  0  0
  191.5170  176.8210  143.5720 C   0  0  2  0  0  3  0  0  0  0  0  0
  190.7640  178.2420  145.4570 C   0  0  0  0  0  3  0  0  0  0  0  0
  1  7  1  0  0  0  0
  1  5  1  0  0  0  0
  2  4  1  1  0  0  0
  3 16  1  6  0  0  0
  3  2  1  0  0  0  0
  4 11  1  0  0  0  0
  4 12  2  0  0  0  0
  6  9  1  0  0  0  0
  9 12  1  0  0  0  0
 10  8  1  6  0  0  0
 10  2  1  0  0  0  0
 10  6  1  0  0  0  0
 11  1  2  0  0  0  0
 12 13  1  0  0  0  0
 13  5  2  0  0  0  0
 14  8  2  0  0  0  0
 15  8  1  0  0  0  0
 15  3  1  0  0  0  0
 17 16  1  0  0  0  0
 18 17  1  0  0  0  0
 19 18  2  0  0  0  0
 20 18  1  0  0  0  0
 21  6  1  0  0  0  0
 21 23  1  0  0  0  0
 23 22  2  0  0  0  0
 24 28  1  0  0  0  0
 24 27  1  1  0  0  0
 25 28  1  0  0  0  0
 26 29  1  0  0  0  0
 29 31  2  0  0  0  0
 30 23  1  1  0  0  0
 30 29  1  0  0  0  0
 30 25  1  0  0  0  0
 31 24  1  0  0  0  0
M  END
>  <MODEL>
1

>  <REMARK>
 VINA RESULT:      -8.9      0.000      0.000
  Name = 
  6 active torsions:
  status: ('A' for Active; 'I' for Inactive)
    1  A    between atoms: C_5  and  C_14
    2  A    between atoms: C_9  and  C_22
    3  A    between atoms: C_9  and  C_23
    4  A    between atoms: C_10  and  C_14
    5  A    between atoms: C_10  and  C_18
    6  A    between atoms: N_15  and  C_23
                            x       y       z     vdW  Elec       q    Type
                         _______ _______ _______ _____ _____    ______ ____

>  <TORSDO>
F 6

$$$$
=
 OpenBabel10262419383D

 31 34  0  0  1  0  0  0  0  0999 V2000
  185.2020  178.3320  146.1110 C   0  0  0  0  0  0  0  0  0  0  0  0
  188.2980  177.6300  144.0120 C   0  0  2  0  0  3  0  0  0  0  0  0
  189.2630  176.7920  144.8540 C   0  0  1  0  0  3  0  0  0  0  0  0
  186.9040  177.9390  144.4360 C   0  0  0  0  0  0  0  0  0  0  0  0
  184.3160  178.7520  145.1120 C   0  0  0  0  0  3  0  0  0  0  0  0
  187.8280  177.9730  141.6900 N   0  0  0  0  0  0  0  0  0  0  0  0
  184.8060  178.3210  147.4060 F   0  0  0  0  0  0  0  0  0  0  0  0
  189.6270  176.4430  142.5820 C   0  0  0  0  0  0  0  0  0  0  0  0
  186.4150  178.3350  141.9540 C   0  0  0  0  0  2  0  0  0  0  0  0
  188.2390  176.9560  142.6630 C   0  0  1  0  0  3  0  0  0  0  0  0
  186.4990  177.9350  145.7740 C   0  0  0  0  0  3  0  0  0  0  0  0
  186.0190  178.3800  143.4280 C   0  0  0  0  0  0  0  0  0  0  0  0
  184.7230  178.7710  143.7750 C   0  0  0  0  0  3  0  0  0  0  0  0
  190.2060  176.0790  141.5250 O   0  0  0  0  0  0  0  0  0  0  0  0
  190.2070  176.2810  143.8690 N   0  0  0  0  0  2  0  0  0  0  0  0
  190.0170  177.6650  145.8490 C   0  0  0  0  0  2  0  0  0  0  0  0
  190.1860  176.9780  147.1940 C   0  0  0  0  0  2  0  0  0  0  0  0
  191.5990  176.5520  147.4020 C   0  0  0  0  0  0  0  0  0  0  0  0
  192.3460  177.1070  148.4320 O   0  0  0  0  0  1  0  0  0  0  0  0
  192.1060  175.6670  146.6650 O   0  0  0  0  0  0  0  0  0  0  0  0
  187.8330  177.3730  140.3620 C   0  0  0  0  0  2  0  0  0  0  0  0
  189.0390  179.2900  139.7180 O   0  0  0  0  0  0  0  0  0  0  0  0
  188.3340  178.3600  139.3590 C   0  0  0  0  0  0  0  0  0  0  0  0
  189.2860  175.7210  137.4190 C   0  0  2  0  0  3  0  0  0  0  0  0
  186.9140  177.0780  137.7250 C   0  0  0  0  0  2  0  0  0  0  0  0
  189.6030  179.2700  136.4280 F   0  0  0  0  0  0  0  0  0  0  0  0
  190.0860  174.5460  136.8970 C   0  0  0  0  0  1  0  0  0  0  0  0
  187.5290  175.5000  137.0000 S   0  0  0  0  0  0  0  0  0  0  0  0
  189.1450  178.1340  137.0130 C   0  0  0  0  0  0  0  0  0  0  0  0
  187.9440  178.2040  137.9190 C   0  0  2  0  0  3  0  0  0  0  0  0
  189.7800  176.9810  136.7910 C   0  0  0  0  0  3  0  0  0  0  0  0
  1  7  1  0  0  0  0
  2  4  1  1  0  0  0
  2  3  1  0  0  0  0
  3 16  1  1  0  0  0
  4 11  2  0  0  0  0
  5  1  2  0  0  0  0
  6  9  1  0  0  0  0
  6 10  1  0  0  0  0
  8 15  1  0  0  0  0
  9 12  1  0  0  0  0
 10  8  1  6  0  0  0
 10  2  1  0  0  0  0
 11  1  1  0  0  0  0
 12 13  2  0  0  0  0
 12  4  1  0  0  0  0
 13  5  1  0  0  0  0
 14  8  2  0  0  0  0
 15  3  1  0  0  0  0
 16 17  1  0  0  0  0
 17 18  1  0  0  0  0
 18 19  1  0  0  0  0
 20 18  2  0  0  0  0
 21  6  1  0  0  0  0
 23 22  2  0  0  0  0
 23 21  1  0  0  0  0
 24 27  1  6  0  0  0
 25 30  1  0  0  0  0
 26 29  1  0  0  0  0
 28 24  1  0  0  0  0
 28 25  1  0  0  0  0
 29 30  1  0  0  0  0
 30 23  1  1  0  0  0
 31 29  2  0  0  0  0
 31 24  1  0  0  0  0
M  END
>  <MODEL>
2

>  <REMARK>
 VINA RESULT:      -8.9      3.398      7.095
  Name = 
  6 active torsions:
  status: ('A' for Active; 'I' for Inactive)
    1  A    between atoms: C_5  and  C_14
    2  A    between atoms: C_9  and  C_22
    3  A    between atoms: C_9  and  C_23
    4  A    between atoms: C_10  and  C_14
    5  A    between atoms: C_10  and  C_18
    6  A    between atoms: N_15  and  C_23
                            x       y       z     vdW  Elec       q    Type
                         _______ _______ _______ _____ _____    ______ ____

>  <TORSDO>
F 6

$$$$
=
 OpenBabel10262419383D

 31 34  0  0  1  0  0  0  0  0999 V2000
  185.2920  178.2960  145.8620 C   0  0  0  0  0  0  0  0  0  0  0  0
  188.4780  177.5830  143.9050 C   0  0  2  0  0  3  0  0  0  0  0  0
  189.4040  176.7490  144.7930 C   0  0  1  0  0  3  0  0  0  0  0  0
  187.0670  177.8940  144.2650 C   0  0  0  0  0  0  0  0  0  0  0  0
  184.4520  178.7100  144.8220 C   0  0  0  0  0  3  0  0  0  0  0  0
  188.1110  177.9120  141.5630 N   0  0  0  0  0  0  0  0  0  0  0  0
  184.8400  178.2920  147.1370 F   0  0  0  0  0  0  0  0  0  0  0  0
  189.8690  176.3870  142.5420 C   0  0  0  0  0  0  0  0  0  0  0  0
  186.6880  178.2760  141.7630 C   0  0  0  0  0  2  0  0  0  0  0  0
  188.4780  176.9010  142.5580 C   0  0  1  0  0  3  0  0  0  0  0  0
  186.6030  177.8970  145.5840 C   0  0  0  0  0  3  0  0  0  0  0  0
  186.2270  178.3290  143.2170 C   0  0  0  0  0  0  0  0  0  0  0  0
  184.9170  178.7220  143.5050 C   0  0  0  0  0  3  0  0  0  0  0  0
  190.4930  176.0180  141.5130 O   0  0  0  0  0  0  0  0  0  0  0  0
  190.3910  176.2320  143.8540 N   0  0  0  0  0  2  0  0  0  0  0  0
  190.1140  177.6270  145.8160 C   0  0  0  0  0  2  0  0  0  0  0  0
  190.2090  176.9540  147.1750 C   0  0  0  0  0  2  0  0  0  0  0  0
  191.6020  176.4980  147.4490 C   0  0  0  0  0  0  0  0  0  0  0  0
  192.3260  177.0670  148.4880 O   0  0  0  0  0  1  0  0  0  0  0  0
  192.1110  175.5770  146.7590 O   0  0  0  0  0  0  0  0  0  0  0  0
  188.1750  177.3050  140.2390 C   0  0  0  0  0  2  0  0  0  0  0  0
  188.9120  179.4370  139.5650 O   0  0  0  0  0  0  0  0  0  0  0  0
  188.7960  178.2570  139.2710 C   0  0  0  0  0  0  0  0  0  0  0  0
  186.7020  176.9170  136.9370 C   0  0  2  0  0  3  0  0  0  0  0  0
  188.8110  178.6760  136.7910 C   0  0  0  0  0  2  0  0  0  0  0  0
  189.8640  175.3570  138.0550 F   0  0  0  0  0  0  0  0  0  0  0  0
  185.5040  176.2270  136.3200 C   0  0  0  0  0  1  0  0  0  0  0  0
  187.4120  178.0930  135.7430 S   0  0  0  0  0  0  0  0  0  0  0  0
  188.9300  176.2930  137.7440 C   0  0  0  0  0  0  0  0  0  0  0  0
  189.2550  177.7500  137.9370 C   0  0  2  0  0  3  0  0  0  0  0  0
  187.7360  175.9020  137.2920 C   0  0  0  0  0  3  0  0  0  0  0  0
  1  7  1  0  0  0  0
  2  4  1  1  0  0  0
  2  3  1  0  0  0  0
  3 16  1  1  0  0  0
  4 11  2  0  0  0  0
  5  1  2  0  0  0  0
  6  9  1  0  0  0  0
  6 10  1  0  0  0  0
  8 15  1  0  0  0  0
  9 12  1  0  0  0  0
 10  8  1  6  0  0  0
 10  2  1  0  0  0  0
 11  1  1  0  0  0  0
 12 13  2  0  0  0  0
 12  4  1  0  0  0  0
 13  5  1  0  0  0  0
 14  8  2  0  0  0  0
 15  3  1  0  0  0  0
 16 17  1  0  0  0  0
 17 18  1  0  0  0  0
 18 19  1  0  0  0  0
 20 18  2  0  0  0  0
 21  6  1  0  0  0  0
 23 22  2  0  0  0  0
 23 21  1  0  0  0  0
 24 27  1  6  0  0  0
 24 31  1  0  0  0  0
 25 30  1  0  0  0  0
 28 25  1  0  0  0  0
 28 24  1  0  0  0  0
 29 30  1  0  0  0  0
 29 26  1  0  0  0  0
 30 23  1  1  0  0  0
 31 29  2  0  0  0  0
M  END
>  <MODEL>
3

>  <REMARK>
 VINA RESULT:      -8.8      3.500      7.263
  Name = 
  6 active torsions:
  status: ('A' for Active; 'I' for Inactive)
    1  A    between atoms: C_5  and  C_14
    2  A    between atoms: C_9  and  C_22
    3  A    between atoms: C_9  and  C_23
    4  A    between atoms: C_10  and  C_14
    5  A    between atoms: C_10  and  C_18
    6  A    between atoms: N_15  and  C_23
                            x       y       z     vdW  Elec       q    Type
                         _______ _______ _______ _____ _____    ______ ____

>  <TORSDO>
F 6

$$$$
=
 OpenBabel10262419383D

 31 34  0  0  1  0  0  0  0  0999 V2000
  190.4460  177.0980  146.1750 C   0  0  0  0  0  0  0  0  0  0  0  0
  188.1720  177.5140  143.1520 C   0  0  2  0  0  3  0  0  0  0  0  0
  186.9140  178.2600  143.6030 C   0  0  1  0  0  3  0  0  0  0  0  0
  189.3670  177.3340  144.0210 C   0  0  0  0  0  0  0  0  0  0  0  0
  191.6450  176.7610  145.5380 C   0  0  0  0  0  3  0  0  0  0  0  0
  189.4120  177.2160  141.1260 N   0  0  0  0  0  0  0  0  0  0  0  0
  190.3870  177.1450  147.5270 F   0  0  0  0  0  0  0  0  0  0  0  0
  187.2940  178.5750  141.3290 C   0  0  0  0  0  0  0  0  0  0  0  0
  190.6840  176.9850  141.8530 C   0  0  0  0  0  2  0  0  0  0  0  0
  188.6170  178.1900  141.8780 C   0  0  1  0  0  3  0  0  0  0  0  0
  189.3050  177.3750  145.4170 C   0  0  0  0  0  3  0  0  0  0  0  0
  190.5710  176.9760  143.3760 C   0  0  0  0  0  0  0  0  0  0  0  0
  191.7080  176.7050  144.1430 C   0  0  0  0  0  3  0  0  0  0  0  0
  187.0700  178.8840  140.1290 O   0  0  0  0  0  0  0  0  0  0  0  0
  186.3090  178.6830  142.3460 N   0  0  0  0  0  2  0  0  0  0  0  0
  185.9510  177.3210  144.3190 C   0  0  0  0  0  2  0  0  0  0  0  0
  185.9800  177.5180  145.8260 C   0  0  0  0  0  2  0  0  0  0  0  0
  185.1790  178.7110  146.2240 C   0  0  0  0  0  0  0  0  0  0  0  0
  183.9610  178.9650  145.6080 O   0  0  0  0  0  0  0  0  0  0  0  0
  185.5910  179.4700  147.1390 O   0  0  0  0  0  1  0  0  0  0  0  0
  189.7960  177.8130  139.8540 C   0  0  0  0  0  2  0  0  0  0  0  0
  190.3760  175.6290  139.1950 O   0  0  0  0  0  0  0  0  0  0  0  0
  190.0280  176.7430  138.8380 C   0  0  0  0  0  0  0  0  0  0  0  0
  187.0100  176.6730  137.2510 C   0  0  2  0  0  3  0  0  0  0  0  0
  189.1390  178.4120  137.1780 C   0  0  0  0  0  2  0  0  0  0  0  0
  190.0760  175.0290  135.9930 F   0  0  0  0  0  0  0  0  0  0  0  0
  185.5760  176.3160  136.9230 C   0  0  0  0  0  1  0  0  0  0  0  0
  187.3710  178.3580  136.6640 S   0  0  0  0  0  0  0  0  0  0  0  0
  189.2520  175.9060  136.6230 C   0  0  0  0  0  0  0  0  0  0  0  0
  189.8470  177.0610  137.3840 C   0  0  2  0  0  3  0  0  0  0  0  0
  187.9310  175.7150  136.5720 C   0  0  0  0  0  3  0  0  0  0  0  0
  1  7  1  0  0  0  0
  2  3  1  0  0  0  0
  2  4  1  1  0  0  0
  3 16  1  6  0  0  0
  4 11  1  0  0  0  0
  5  1  1  0  0  0  0
  6  9  1  0  0  0  0
  6 10  1  0  0  0  0
  8 15  1  0  0  0  0
  9 12  1  0  0  0  0
 10  8  1  6  0  0  0
 10  2  1  0  0  0  0
 11  1  2  0  0  0  0
 12  4  2  0  0  0  0
 12 13  1  0  0  0  0
 13  5  2  0  0  0  0
 14  8  2  0  0  0  0
 15  3  1  0  0  0  0
 16 17  1  0  0  0  0
 17 18  1  0  0  0  0
 18 20  1  0  0  0  0
 19 18  2  0  0  0  0
 21  6  1  0  0  0  0
 23 22  2  0  0  0  0
 23 21  1  0  0  0  0
 24 27  1  6  0  0  0
 25 30  1  0  0  0  0
 26 29  1  0  0  0  0
 28 25  1  0  0  0  0
 28 24  1  0  0  0  0
 29 30  1  0  0  0  0
 30 23  1  1  0  0  0
 31 29  2  0  0  0  0
 31 24  1  0  0  0  0
M  END
>  <MODEL>
4

>  <REMARK>
 VINA RESULT:      -8.5      3.924      6.424
  Name = 
  6 active torsions:
  status: ('A' for Active; 'I' for Inactive)
    1  A    between atoms: C_5  and  C_14
    2  A    between atoms: C_9  and  C_22
    3  A    between atoms: C_9  and  C_23
    4  A    between atoms: C_10  and  C_14
    5  A    between atoms: C_10  and  C_18
    6  A    between atoms: N_15  and  C_23
                            x       y       z     vdW  Elec       q    Type
                         _______ _______ _______ _____ _____    ______ ____

>  <TORSDO>
F 6

$$$$
=
 OpenBabel10262419383D

 31 34  0  0  1  0  0  0  0  0999 V2000
  184.5720  178.6360  144.0360 C   0  0  0  0  0  0  0  0  0  0  0  0
  188.2190  177.7490  143.4050 C   0  0  2  0  0  3  0  0  0  0  0  0
  188.7430  176.9940  144.6290 C   0  0  1  0  0  3  0  0  0  0  0  0
  186.7830  178.0940  143.2140 C   0  0  0  0  0  0  0  0  0  0  0  0
  184.1680  178.9600  142.7360 C   0  0  0  0  0  3  0  0  0  0  0  0
  188.7170  177.8760  141.0670 N   0  0  0  0  0  0  0  0  0  0  0  0
  183.6970  178.7430  145.0630 F   0  0  0  0  0  0  0  0  0  0  0  0
  189.9630  176.4380  142.7270 C   0  0  0  0  0  0  0  0  0  0  0  0
  187.3280  178.2580  140.7170 C   0  0  0  0  0  2  0  0  0  0  0  0
  188.6740  176.9540  142.2060 C   0  0  1  0  0  3  0  0  0  0  0  0
  185.8820  178.2120  144.2760 C   0  0  0  0  0  3  0  0  0  0  0  0
  186.3840  178.4380  141.9040 C   0  0  0  0  0  0  0  0  0  0  0  0
  185.0700  178.8570  141.6740 C   0  0  0  0  0  3  0  0  0  0  0  0
  190.8990  175.9790  142.0210 O   0  0  0  0  0  0  0  0  0  0  0  0
  189.9810  176.3960  144.1460 N   0  0  0  0  0  2  0  0  0  0  0  0
  189.0730  177.9570  145.7630 C   0  0  0  0  0  2  0  0  0  0  0  0
  189.0160  177.2750  147.1210 C   0  0  0  0  0  2  0  0  0  0  0  0
  188.0180  177.9360  148.0090 C   0  0  0  0  0  0  0  0  0  0  0  0
  186.7560  178.2490  147.5210 O   0  0  0  0  0  0  0  0  0  0  0  0
  188.3070  178.1830  149.2080 O   0  0  0  0  0  1  0  0  0  0  0  0
  189.2250  177.1560  139.9060 C   0  0  0  0  0  2  0  0  0  0  0  0
  189.0530  179.2370  138.8190 O   0  0  0  0  0  0  0  0  0  0  0  0
  189.1530  178.0270  138.6950 C   0  0  0  0  0  0  0  0  0  0  0  0
  186.3650  176.9780  137.0340 C   0  0  2  0  0  3  0  0  0  0  0  0
  188.6240  178.3370  136.2550 C   0  0  0  0  0  2  0  0  0  0  0  0
  189.4150  174.9390  137.5000 F   0  0  0  0  0  0  0  0  0  0  0  0
  184.9580  176.4810  136.7740 C   0  0  0  0  0  1  0  0  0  0  0  0
  186.9370  177.9650  135.6160 S   0  0  0  0  0  0  0  0  0  0  0  0
  188.5950  176.0090  137.3420 C   0  0  0  0  0  0  0  0  0  0  0  0
  189.1840  177.3950  137.3360 C   0  0  2  0  0  3  0  0  0  0  0  0
  187.2800  175.8140  137.2170 C   0  0  0  0  0  3  0  0  0  0  0  0
  1 11  1  0  0  0  0
  1  7  1  0  0  0  0
  2  4  1  1  0  0  0
  2  3  1  0  0  0  0
  3 16  1  1  0  0  0
  4 11  2  0  0  0  0
  5  1  2  0  0  0  0
  6 10  1  0  0  0  0
  8 15  1  0  0  0  0
  9  6  1  0  0  0  0
  9 12  1  0  0  0  0
 10  8  1  1  0  0  0
 10  2  1  0  0  0  0
 12  4  1  0  0  0  0
 13 12  2  0  0  0  0
 13  5  1  0  0  0  0
 14  8  2  0  0  0  0
 15  3  1  0  0  0  0
 16 17  1  0  0  0  0
 17 18  1  0  0  0  0
 18 20  1  0  0  0  0
 19 18  2  0  0  0  0
 21  6  1  0  0  0  0
 23 22  2  0  0  0  0
 23 21  1  0  0  0  0
 24 27  1  6  0  0  0
 24 31  1  0  0  0  0
 25 30  1  0  0  0  0
 28 25  1  0  0  0  0
 28 24  1  0  0  0  0
 29 26  1  0  0  0  0
 30 29  1  0  0  0  0
 30 23  1  1  0  0  0
 31 29  2  0  0  0  0
M  END
>  <MODEL>
5

>  <REMARK>
 VINA RESULT:      -8.3      3.713      6.899
  Name = 
  6 active torsions:
  status: ('A' for Active; 'I' for Inactive)
    1  A    between atoms: C_5  and  C_14
    2  A    between atoms: C_9  and  C_22
    3  A    between atoms: C_9  and  C_23
    4  A    between atoms: C_10  and  C_14
    5  A    between atoms: C_10  and  C_18
    6  A    between atoms: N_15  and  C_23
                            x       y       z     vdW  Elec       q    Type
                         _______ _______ _______ _____ _____    ______ ____

>  <TORSDO>
F 6

$$$$
=
 OpenBabel10262419383D

 31 34  0  0  1  0  0  0  0  0999 V2000
  190.7930  177.4240  144.4290 C   0  0  0  0  0  0  0  0  0  0  0  0
  187.5470  177.8880  142.4960 C   0  0  2  0  0  3  0  0  0  0  0  0
  186.5240  178.5330  143.4340 C   0  0  1  0  0  3  0  0  0  0  0  0
  188.9850  177.7250  142.8480 C   0  0  0  0  0  0  0  0  0  0  0  0
  191.6800  177.1940  143.3710 C   0  0  0  0  0  3  0  0  0  0  0  0
  187.9550  177.7810  140.1400 N   0  0  0  0  0  0  0  0  0  0  0  0
  191.2390  177.3880  145.7070 F   0  0  0  0  0  0  0  0  0  0  0  0
  186.0230  179.0030  141.2100 C   0  0  0  0  0  0  0  0  0  0  0  0
  189.4120  177.5790  140.3280 C   0  0  0  0  0  2  0  0  0  0  0  0
  187.4660  178.6620  141.2030 C   0  0  1  0  0  3  0  0  0  0  0  0
  189.4440  177.6800  144.1680 C   0  0  0  0  0  3  0  0  0  0  0  0
  189.8730  177.4740  141.7800 C   0  0  0  0  0  0  0  0  0  0  0  0
  191.2210  177.2240  142.0510 C   0  0  0  0  0  3  0  0  0  0  0  0
  185.3590  179.3690  140.2050 O   0  0  0  0  0  0  0  0  0  0  0  0
  185.4830  178.9950  142.5240 N   0  0  0  0  0  2  0  0  0  0  0  0
  185.9250  177.5010  144.3810 C   0  0  0  0  0  2  0  0  0  0  0  0
  186.2110  177.8320  145.8370 C   0  0  0  0  0  2  0  0  0  0  0  0
  185.2930  178.8970  146.3320 C   0  0  0  0  0  0  0  0  0  0  0  0
  183.9970  178.9800  145.8410 O   0  0  0  0  0  0  0  0  0  0  0  0
  185.6810  179.7030  147.2170 O   0  0  0  0  0  1  0  0  0  0  0  0
  187.8200  178.4720  138.8650 C   0  0  0  0  0  2  0  0  0  0  0  0
  186.2240  176.9910  137.9690 O   0  0  0  0  0  0  0  0  0  0  0  0
  187.3110  177.5290  137.8250 C   0  0  0  0  0  0  0  0  0  0  0  0
  188.1340  174.3800  136.8050 C   0  0  2  0  0  3  0  0  0  0  0  0
  187.3260  176.6450  135.4700 C   0  0  0  0  0  2  0  0  0  0  0  0
  190.5540  177.1470  137.2160 F   0  0  0  0  0  0  0  0  0  0  0  0
  188.4210  172.8940  136.8450 C   0  0  0  0  0  1  0  0  0  0  0  0
  187.5080  174.8380  135.1580 S   0  0  0  0  0  0  0  0  0  0  0  0
  189.4020  176.4710  136.9740 C   0  0  0  0  0  0  0  0  0  0  0  0
  188.1560  177.2400  136.6200 C   0  0  2  0  0  3  0  0  0  0  0  0
  189.3890  175.1400  137.0750 C   0  0  0  0  0  3  0  0  0  0  0  0
  1  7  1  0  0  0  0
  2  4  1  1  0  0  0
  2  3  1  0  0  0  0
  3 16  1  1  0  0  0
  4 11  2  0  0  0  0
  5  1  2  0  0  0  0
  6  9  1  0  0  0  0
  6 10  1  0  0  0  0
  8 15  1  0  0  0  0
  9 12  1  0  0  0  0
 10  8  1  6  0  0  0
 10  2  1  0  0  0  0
 11  1  1  0  0  0  0
 12 13  2  0  0  0  0
 12  4  1  0  0  0  0
 13  5  1  0  0  0  0
 14  8  2  0  0  0  0
 15  3  1  0  0  0  0
 16 17  1  0  0  0  0
 17 18  1  0  0  0  0
 18 20  1  0  0  0  0
 19 18  2  0  0  0  0
 21  6  1  0  0  0  0
 23 22  2  0  0  0  0
 23 21  1  0  0  0  0
 24 27  1  6  0  0  0
 24 31  1  0  0  0  0
 25 30  1  0  0  0  0
 28 25  1  0  0  0  0
 28 24  1  0  0  0  0
 29 31  2  0  0  0  0
 29 26  1  0  0  0  0
 30 29  1  0  0  0  0
 30 23  1  1  0  0  0
M  END
>  <MODEL>
6

>  <REMARK>
 VINA RESULT:      -8.2      4.116      6.747
  Name = 
  6 active torsions:
  status: ('A' for Active; 'I' for Inactive)
    1  A    between atoms: C_5  and  C_14
    2  A    between atoms: C_9  and  C_22
    3  A    between atoms: C_9  and  C_23
    4  A    between atoms: C_10  and  C_14
    5  A    between atoms: C_10  and  C_18
    6  A    between atoms: N_15  and  C_23
                            x       y       z     vdW  Elec       q    Type
                         _______ _______ _______ _____ _____    ______ ____

>  <TORSDO>
F 6

$$$$
=
 OpenBabel10262419383D

 31 34  0  0  1  0  0  0  0  0999 V2000
  189.9840  177.1910  146.4760 C   0  0  0  0  0  0  0  0  0  0  0  0
  188.5370  177.4680  142.9670 C   0  0  2  0  0  3  0  0  0  0  0  0
  187.2690  178.3220  143.0420 C   0  0  1  0  0  3  0  0  0  0  0  0
  189.4730  177.2970  144.1130 C   0  0  0  0  0  0  0  0  0  0  0  0
  191.2720  176.7310  146.1770 C   0  0  0  0  0  3  0  0  0  0  0  0
  190.1990  176.9220  141.3330 N   0  0  0  0  0  0  0  0  0  0  0  0
  189.6090  177.3610  147.7660 F   0  0  0  0  0  0  0  0  0  0  0  0
  188.2040  178.4120  140.9130 C   0  0  0  0  0  0  0  0  0  0  0  0
  191.2380  176.6830  142.3630 C   0  0  0  0  0  2  0  0  0  0  0  0
  189.3240  178.0030  141.7950 C   0  0  1  0  0  3  0  0  0  0  0  0
  189.0820  177.4650  145.4450 C   0  0  0  0  0  3  0  0  0  0  0  0
  190.7650  176.8150  143.8080 C   0  0  0  0  0  0  0  0  0  0  0  0
  191.6610  176.5480  144.8470 C   0  0  0  0  0  3  0  0  0  0  0  0
  188.2980  178.6270  139.6760 O   0  0  0  0  0  0  0  0  0  0  0  0
  187.0170  178.6660  141.6490 N   0  0  0  0  0  2  0  0  0  0  0  0
  186.0940  177.5070  143.5670 C   0  0  0  0  0  2  0  0  0  0  0  0
  185.6390  177.9830  144.9370 C   0  0  0  0  0  2  0  0  0  0  0  0
  184.3900  178.7900  144.8340 C   0  0  0  0  0  0  0  0  0  0  0  0
  183.9540  179.2390  143.5950 O   0  0  0  0  0  0  0  0  0  0  0  0
  183.7140  179.0400  145.8660 O   0  0  0  0  0  1  0  0  0  0  0  0
  190.9200  177.3810  140.1530 C   0  0  0  0  0  2  0  0  0  0  0  0
  189.7490  175.6330  139.0960 O   0  0  0  0  0  0  0  0  0  0  0  0
  190.5230  176.5680  138.9650 C   0  0  0  0  0  0  0  0  0  0  0  0
  191.4980  174.2210  136.6900 C   0  0  2  0  0  3  0  0  0  0  0  0
  190.1160  176.5890  136.4820 C   0  0  0  0  0  2  0  0  0  0  0  0
  193.5630  177.1060  137.7370 F   0  0  0  0  0  0  0  0  0  0  0  0
  191.9810  172.9100  136.1070 C   0  0  0  0  0  1  0  0  0  0  0  0
  190.4580  175.0860  135.4730 S   0  0  0  0  0  0  0  0  0  0  0  0
  192.4850  176.3340  137.4450 C   0  0  0  0  0  0  0  0  0  0  0  0
  191.1010  176.9020  137.6220 C   0  0  2  0  0  3  0  0  0  0  0  0
  192.6710  175.0800  137.0250 C   0  0  0  0  0  3  0  0  0  0  0  0
  1  7  1  0  0  0  0
  2  3  1  0  0  0  0
  2  4  1  1  0  0  0
  3 16  1  6  0  0  0
  4 11  1  0  0  0  0
  5  1  1  0  0  0  0
  6 10  1  0  0  0  0
  6  9  1  0  0  0  0
  8 15  1  0  0  0  0
  9 12  1  0  0  0  0
 10  8  1  6  0  0  0
 10  2  1  0  0  0  0
 11  1  2  0  0  0  0
 12  4  2  0  0  0  0
 12 13  1  0  0  0  0
 13  5  2  0  0  0  0
 14  8  2  0  0  0  0
 15  3  1  0  0  0  0
 16 17  1  0  0  0  0
 18 17  1  0  0  0  0
 18 20  1  0  0  0  0
 19 18  2  0  0  0  0
 21  6  1  0  0  0  0
 23 22  2  0  0  0  0
 23 21  1  0  0  0  0
 24 27  1  6  0  0  0
 24 31  1  0  0  0  0
 25 30  1  0  0  0  0
 28 25  1  0  0  0  0
 28 24  1  0  0  0  0
 29 30  1  0  0  0  0
 29 26  1  0  0  0  0
 30 23  1  1  0  0  0
 31 29  2  0  0  0  0
M  END
>  <MODEL>
7

>  <REMARK>
 VINA RESULT:      -8.2      4.181      6.049
  Name = 
  6 active torsions:
  status: ('A' for Active; 'I' for Inactive)
    1  A    between atoms: C_5  and  C_14
    2  A    between atoms: C_9  and  C_22
    3  A    between atoms: C_9  and  C_23
    4  A    between atoms: C_10  and  C_14
    5  A    between atoms: C_10  and  C_18
    6  A    between atoms: N_15  and  C_23
                            x       y       z     vdW  Elec       q    Type
                         _______ _______ _______ _____ _____    ______ ____

>  <TORSDO>
F 6

$$$$
=
 OpenBabel10262419383D

 31 34  0  0  1  0  0  0  0  0999 V2000
  188.8040  177.4860  146.4390 C   0  0  0  0  0  0  0  0  0  0  0  0
  187.4790  177.7320  142.8790 C   0  0  2  0  0  3  0  0  0  0  0  0
  186.2230  178.6050  142.9000 C   0  0  1  0  0  3  0  0  0  0  0  0
  188.3740  177.5640  144.0580 C   0  0  0  0  0  0  0  0  0  0  0  0
  190.0940  177.0030  146.1900 C   0  0  0  0  0  3  0  0  0  0  0  0
  189.1860  177.1370  141.3100 N   0  0  0  0  0  0  0  0  0  0  0  0
  188.3880  177.6800  147.7120 F   0  0  0  0  0  0  0  0  0  0  0  0
  187.2300  178.6510  140.8020 C   0  0  0  0  0  0  0  0  0  0  0  0
  190.1870  176.8990  142.3780 C   0  0  0  0  0  2  0  0  0  0  0  0
  188.3130  178.2380  141.7270 C   0  0  1  0  0  3  0  0  0  0  0  0
  187.9410  177.7580  145.3740 C   0  0  0  0  0  3  0  0  0  0  0  0
  189.6670  177.0590  143.8050 C   0  0  0  0  0  0  0  0  0  0  0  0
  190.5240  176.7950  144.8770 C   0  0  0  0  0  3  0  0  0  0  0  0
  187.3670  178.8450  139.5660 O   0  0  0  0  0  0  0  0  0  0  0  0
  186.0220  178.9330  141.4940 N   0  0  0  0  0  2  0  0  0  0  0  0
  185.0180  177.8160  143.3960 C   0  0  0  0  0  2  0  0  0  0  0  0
  184.0780  178.6750  144.2250 C   0  0  0  0  0  2  0  0  0  0  0  0
  184.6520  178.9480  145.5730 C   0  0  0  0  0  0  0  0  0  0  0  0
  185.4070  180.0930  145.7870 O   0  0  0  0  0  0  0  0  0  0  0  0
  184.4280  178.1570  146.5260 O   0  0  0  0  0  1  0  0  0  0  0  0
  189.9530  177.5690  140.1480 C   0  0  0  0  0  2  0  0  0  0  0  0
  190.6580  175.5740  139.1140 O   0  0  0  0  0  0  0  0  0  0  0  0
  189.8920  176.5250  139.0820 C   0  0  0  0  0  0  0  0  0  0  0  0
  190.4530  175.4510  135.8940 C   0  0  2  0  0  3  0  0  0  0  0  0
  188.2800  175.3190  137.5740 C   0  0  0  0  0  2  0  0  0  0  0  0
  189.2020  178.8180  136.7800 F   0  0  0  0  0  0  0  0  0  0  0  0
  191.1800  175.0440  134.6290 C   0  0  0  0  0  1  0  0  0  0  0  0
  188.8700  174.5600  136.0020 S   0  0  0  0  0  0  0  0  0  0  0  0
  189.4460  177.4830  136.8250 C   0  0  0  0  0  0  0  0  0  0  0  0
  188.8980  176.6720  137.9690 C   0  0  2  0  0  3  0  0  0  0  0  0
  190.1830  176.9180  135.8650 C   0  0  0  0  0  3  0  0  0  0  0  0
  1  7  1  0  0  0  0
  2  3  1  0  0  0  0
  2  4  1  1  0  0  0
  3 16  1  6  0  0  0
  4 11  1  0  0  0  0
  5  1  1  0  0  0  0
  6 10  1  0  0  0  0
  6  9  1  0  0  0  0
  8 15  1  0  0  0  0
  9 12  1  0  0  0  0
 10  8  1  6  0  0  0
 10  2  1  0  0  0  0
 11  1  2  0  0  0  0
 12  4  2  0  0  0  0
 12 13  1  0  0  0  0
 13  5  2  0  0  0  0
 14  8  2  0  0  0  0
 15  3  1  0  0  0  0
 16 17  1  0  0  0  0
 17 18  1  0  0  0  0
 18 19  2  0  0  0  0
 18 20  1  0  0  0  0
 21  6  1  0  0  0  0
 23 22  2  0  0  0  0
 23 21  1  0  0  0  0
 24 27  1  6  0  0  0
 24 28  1  0  0  0  0
 25 30  1  0  0  0  0
 26 29  1  0  0  0  0
 28 25  1  0  0  0  0
 29 30  1  0  0  0  0
 30 23  1  1  0  0  0
 31 24  1  0  0  0  0
 31 29  2  0  0  0  0
M  END
>  <MODEL>
8

>  <REMARK>
 VINA RESULT:      -7.8      4.114      6.017
  Name = 
  6 active torsions:
  status: ('A' for Active; 'I' for Inactive)
    1  A    between atoms: C_5  and  C_14
    2  A    between atoms: C_9  and  C_22
    3  A    between atoms: C_9  and  C_23
    4  A    between atoms: C_10  and  C_14
    5  A    between atoms: C_10  and  C_18
    6  A    between atoms: N_15  and  C_23
                            x       y       z     vdW  Elec       q    Type
                         _______ _______ _______ _____ _____    ______ ____

>  <TORSDO>
F 6

$$$$
=
 OpenBabel10262419383D

 31 34  0  0  1  0  0  0  0  0999 V2000
  181.2270  179.1090  142.8320 C   0  0  0  0  0  0  0  0  0  0  0  0
  184.4620  178.2440  141.0240 C   0  0  2  0  0  3  0  0  0  0  0  0
  184.3090  178.6490  139.5560 C   0  0  1  0  0  3  0  0  0  0  0  0
  183.4680  178.5990  142.0750 C   0  0  0  0  0  0  0  0  0  0  0  0
  181.6580  179.0340  144.1610 C   0  0  0  0  0  3  0  0  0  0  0  0
  186.2450  177.9550  142.5950 N   0  0  0  0  0  0  0  0  0  0  0  0
  179.9320  179.3910  142.5550 F   0  0  0  0  0  0  0  0  0  0  0  0
  186.5510  178.6280  140.1800 C   0  0  0  0  0  0  0  0  0  0  0  0
  185.3710  178.2580  143.7530 C   0  0  0  0  0  2  0  0  0  0  0  0
  185.8090  178.7700  141.4570 C   0  0  1  0  0  3  0  0  0  0  0  0
  182.1290  178.8820  141.7890 C   0  0  0  0  0  3  0  0  0  0  0  0
  183.9030  178.5030  143.4150 C   0  0  0  0  0  0  0  0  0  0  0  0
  182.9930  178.7360  144.4500 C   0  0  0  0  0  3  0  0  0  0  0  0
  187.8050  178.6230  140.0670 O   0  0  0  0  0  0  0  0  0  0  0  0
  185.6790  178.6260  139.0590 N   0  0  0  0  0  2  0  0  0  0  0  0
  183.4920  177.6180  138.7890 C   0  0  0  0  0  2  0  0  0  0  0  0
  182.7350  178.2430  137.6270 C   0  0  0  0  0  2  0  0  0  0  0  0
  181.6480  179.1370  138.1180 C   0  0  0  0  0  0  0  0  0  0  0  0
  181.7810  180.5150  138.0100 O   0  0  0  0  0  0  0  0  0  0  0  0
  180.5960  178.6440  138.6020 O   0  0  0  0  0  1  0  0  0  0  0  0
  187.5790  178.3880  142.9910 C   0  0  0  0  0  2  0  0  0  0  0  0
  188.0510  176.0940  143.2360 O   0  0  0  0  0  0  0  0  0  0  0  0
  188.5000  177.2140  143.0470 C   0  0  0  0  0  0  0  0  0  0  0  0
  190.7760  176.6180  145.5160 C   0  0  2  0  0  3  0  0  0  0  0  0
  190.7450  176.1010  142.8160 C   0  0  0  0  0  2  0  0  0  0  0  0
  190.6100  179.7340  143.5290 F   0  0  0  0  0  0  0  0  0  0  0  0
  191.3740  176.4380  146.8960 C   0  0  0  0  0  1  0  0  0  0  0  0
  191.6930  175.6030  144.3150 S   0  0  0  0  0  0  0  0  0  0  0  0
  190.5110  178.4260  143.8830 C   0  0  0  0  0  0  0  0  0  0  0  0
  189.9750  177.4320  142.8870 C   0  0  2  0  0  3  0  0  0  0  0  0
  190.8700  178.0510  145.1130 C   0  0  0  0  0  3  0  0  0  0  0  0
  1  5  1  0  0  0  0
  2 10  1  0  0  0  0
  2  4  1  1  0  0  0
  3 16  1  6  0  0  0
  3  2  1  0  0  0  0
  4 12  2  0  0  0  0
  5 13  2  0  0  0  0
  6 21  1  0  0  0  0
  6  9  1  0  0  0  0
  7  1  1  0  0  0  0
 10  8  1  6  0  0  0
 10  6  1  0  0  0  0
 11  4  1  0  0  0  0
 11  1  2  0  0  0  0
 12  9  1  0  0  0  0
 12 13  1  0  0  0  0
 14  8  2  0  0  0  0
 15  3  1  0  0  0  0
 15  8  1  0  0  0  0
 17 18  1  0  0  0  0
 17 16  1  0  0  0  0
 18 20  1  0  0  0  0
 19 18  2  0  0  0  0
 21 23  1  0  0  0  0
 23 22  2  0  0  0  0
 24 27  1  1  0  0  0
 25 30  1  0  0  0  0
 25 28  1  0  0  0  0
 26 29  1  0  0  0  0
 28 24  1  0  0  0  0
 29 31  2  0  0  0  0
 30 23  1  1  0  0  0
 30 29  1  0  0  0  0
 31 24  1  0  0  0  0
M  END
>  <MODEL>
9

>  <REMARK>
 VINA RESULT:      -7.7      1.644      2.321
  Name = 
  6 active torsions:
  status: ('A' for Active; 'I' for Inactive)
    1  A    between atoms: C_5  and  C_14
    2  A    between atoms: C_9  and  C_22
    3  A    between atoms: C_9  and  C_23
    4  A    between atoms: C_10  and  C_14
    5  A    between atoms: C_10  and  C_18
    6  A    between atoms: N_15  and  C_23
                            x       y       z     vdW  Elec       q    Type
                         _______ _______ _______ _____ _____    ______ ____

>  <TORSDO>
F 6

$$$$
