=
 OpenBabel10262419463D

 25 27  0  0  1  0  0  0  0  0999 V2000
  187.2860  177.5640  145.0550 C   0  0  1  0  0  3  0  0  0  0  0  0
  187.9870  176.6850  144.0040 C   0  0  1  0  0  3  0  0  0  0  0  0
  189.6570  178.3510  145.6180 C   0  0  0  0  0  2  0  0  0  0  0  0
  189.8980  176.8480  145.7280 C   0  0  0  0  0  2  0  0  0  0  0  0
  190.2300  175.9480  143.2980 C   0  0  1  0  0  0  0  0  0  0  0  0
  190.2120  174.6130  142.8950 O   0  0  0  0  0  1  0  0  0  0  0  0
  188.3310  177.4450  142.7360 C   0  0  0  0  0  2  0  0  0  0  0  0
  188.1620  178.6820  145.6400 C   0  0  0  0  0  2  0  0  0  0  0  0
  191.6830  176.3250  143.5880 C   0  0  0  0  0  1  0  0  0  0  0  0
  189.5780  176.7840  142.1820 C   0  0  1  0  0  3  0  0  0  0  0  0
  189.3040  176.0860  144.5210 C   0  0  2  0  0  3  0  0  0  0  0  0
  185.9150  178.0220  144.6440 C   0  0  0  0  0  0  0  0  0  0  0  0
  183.4010  178.9020  143.7650 C   0  0  0  0  0  3  0  0  0  0  0  0
  184.9700  178.5080  145.5700 C   0  0  0  0  0  0  0  0  0  0  0  0
  183.7170  178.9430  145.1250 C   0  0  0  0  0  3  0  0  0  0  0  0
  184.3380  178.4270  142.8440 C   0  0  0  0  0  3  0  0  0  0  0  0
  185.2480  178.5570  146.8960 F   0  0  0  0  0  0  0  0  0  0  0  0
  185.5900  177.9920  143.2830 C   0  0  0  0  0  3  0  0  0  0  0  0
  190.6440  177.9500  141.2450 S   0  0  0  0  0  0  0  0  0  0  0  0
  190.2650  177.2630  139.6000 C   0  0  0  0  0  2  0  0  0  0  0  0
  188.9970  177.8840  139.0420 C   0  0  1  0  0  3  0  0  0  0  0  0
  188.6000  178.9270  139.8560 F   0  0  0  0  0  0  0  0  0  0  0  0
  189.2300  178.3920  137.6590 C   0  0  0  0  0  0  0  0  0  0  0  0
  188.9240  179.7090  137.3350 O   0  0  0  0  0  1  0  0  0  0  0  0
  189.7200  177.6300  136.7860 O   0  0  0  0  0  0  0  0  0  0  0  0
  1 12  1  6  0  0  0
  1  8  1  0  0  0  0
  2  7  1  6  0  0  0
  2 11  1  0  0  0  0
  2  1  1  0  0  0  0
  3  8  1  0  0  0  0
  3  4  1  0  0  0  0
  5  9  1  1  0  0  0
  5 11  1  0  0  0  0
  6  5  1  0  0  0  0
 10 19  1  1  0  0  0
 10  7  1  0  0  0  0
 10  5  1  0  0  0  0
 11  4  1  1  0  0  0
 12 14  1  0  0  0  0
 13 15  1  0  0  0  0
 14 17  1  0  0  0  0
 15 14  2  0  0  0  0
 16 18  1  0  0  0  0
 16 13  2  0  0  0  0
 18 12  2  0  0  0  0
 20 19  1  0  0  0  0
 21 20  1  0  0  0  0
 21 22  1  1  0  0  0
 23 21  1  0  0  0  0
 24 23  1  0  0  0  0
 25 23  2  0  0  0  0
M  END
>  <MODEL>
1

>  <REMARK>
 VINA RESULT:      -7.1      0.000      0.000
  Name = 
  5 active torsions:
  status: ('A' for Active; 'I' for Inactive)
    1  A    between atoms: C_1  and  C_5
    2  A    between atoms: C_2  and  C_21
    3  A    between atoms: S_6  and  C_15
    4  A    between atoms: S_6  and  C_23
    5  A    between atoms: C_15  and  C_21
                            x       y       z     vdW  Elec       q    Type
                         _______ _______ _______ _____ _____    ______ ____

>  <TORSDO>
F 5

$$$$
=
 OpenBabel10262419463D

 25 27  0  0  1  0  0  0  0  0999 V2000
  189.2980  177.4140  143.8390 C   0  0  1  0  0  3  0  0  0  0  0  0
  189.1690  176.8600  142.4090 C   0  0  1  0  0  3  0  0  0  0  0  0
  191.3680  178.6120  142.9220 C   0  0  0  0  0  2  0  0  0  0  0  0
  191.7240  177.1970  142.4770 C   0  0  0  0  0  2  0  0  0  0  0  0
  190.3950  176.7300  140.2760 C   0  0  1  0  0  0  0  0  0  0  0  0
  190.2040  175.4920  139.6660 O   0  0  0  0  0  1  0  0  0  0  0  0
  188.5150  177.8430  141.4540 C   0  0  0  0  0  2  0  0  0  0  0  0
  190.2590  178.6050  143.9790 C   0  0  0  0  0  2  0  0  0  0  0  0
  191.6340  177.3700  139.6480 C   0  0  0  0  0  1  0  0  0  0  0  0
  189.1060  177.5500  140.0900 C   0  0  1  0  0  3  0  0  0  0  0  0
  190.5280  176.4960  141.7920 C   0  0  2  0  0  3  0  0  0  0  0  0
  187.9810  177.6160  144.5320 C   0  0  0  0  0  0  0  0  0  0  0  0
  185.4810  178.0560  145.7280 C   0  0  0  0  0  3  0  0  0  0  0  0
  187.8550  177.6120  145.9360 C   0  0  0  0  0  0  0  0  0  0  0  0
  186.6050  177.8290  146.5260 C   0  0  0  0  0  3  0  0  0  0  0  0
  185.6030  178.0670  144.3370 C   0  0  0  0  0  3  0  0  0  0  0  0
  188.9280  177.3930  146.7360 F   0  0  0  0  0  0  0  0  0  0  0  0
  186.8490  177.8510  143.7430 C   0  0  0  0  0  3  0  0  0  0  0  0
  189.1780  179.0370  139.0130 S   0  0  0  0  0  0  0  0  0  0  0  0
  188.7390  178.1680  137.4720 C   0  0  0  0  0  2  0  0  0  0  0  0
  187.4240  178.6910  136.9210 C   0  0  1  0  0  3  0  0  0  0  0  0
  187.3400  178.3940  135.5750 F   0  0  0  0  0  0  0  0  0  0  0  0
  186.2730  178.0710  137.6410 C   0  0  0  0  0  0  0  0  0  0  0  0
  185.5660  178.7990  138.5900 O   0  0  0  0  0  1  0  0  0  0  0  0
  185.9330  176.8890  137.3760 O   0  0  0  0  0  0  0  0  0  0  0  0
  1  8  1  0  0  0  0
  1 12  1  6  0  0  0
  2  7  1  6  0  0  0
  2  1  1  0  0  0  0
  3  8  1  0  0  0  0
  4  3  1  0  0  0  0
  5  9  1  6  0  0  0
  5 11  1  0  0  0  0
  6  5  1  0  0  0  0
 10 19  1  1  0  0  0
 10  5  1  0  0  0  0
 10  7  1  0  0  0  0
 11  2  1  0  0  0  0
 11  4  1  1  0  0  0
 12 14  1  0  0  0  0
 13 15  1  0  0  0  0
 14 15  2  0  0  0  0
 14 17  1  0  0  0  0
 16 13  2  0  0  0  0
 18 16  1  0  0  0  0
 18 12  2  0  0  0  0
 20 19  1  0  0  0  0
 21 22  1  6  0  0  0
 21 20  1  0  0  0  0
 21 23  1  0  0  0  0
 23 24  1  0  0  0  0
 25 23  2  0  0  0  0
M  END
>  <MODEL>
2

>  <REMARK>
 VINA RESULT:      -7.0      2.224      3.040
  Name = 
  5 active torsions:
  status: ('A' for Active; 'I' for Inactive)
    1  A    between atoms: C_1  and  C_5
    2  A    between atoms: C_2  and  C_21
    3  A    between atoms: S_6  and  C_15
    4  A    between atoms: S_6  and  C_23
    5  A    between atoms: C_15  and  C_21
                            x       y       z     vdW  Elec       q    Type
                         _______ _______ _______ _____ _____    ______ ____

>  <TORSDO>
F 5

$$$$
=
 OpenBabel10262419463D

 25 27  0  0  1  0  0  0  0  0999 V2000
  185.4890  178.3710  145.5980 C   0  0  1  0  0  3  0  0  0  0  0  0
  186.7340  177.4720  145.6960 C   0  0  1  0  0  3  0  0  0  0  0  0
  186.7110  179.8270  147.3160 C   0  0  0  0  0  2  0  0  0  0  0  0
  186.7970  178.4980  148.0610 C   0  0  0  0  0  2  0  0  0  0  0  0
  188.7890  177.1650  147.0210 C   0  0  1  0  0  0  0  0  0  0  0  0
  189.0680  175.8110  147.2010 O   0  0  0  0  0  1  0  0  0  0  0  0
  187.8910  177.9760  144.8540 C   0  0  0  0  0  2  0  0  0  0  0  0
  185.6670  179.7760  146.1960 C   0  0  0  0  0  2  0  0  0  0  0  0
  189.5780  177.9450  148.0740 C   0  0  0  0  0  1  0  0  0  0  0  0
  189.1500  177.5320  145.5710 C   0  0  1  0  0  3  0  0  0  0  0  0
  187.2640  177.3540  147.1330 C   0  0  2  0  0  3  0  0  0  0  0  0
  184.8450  178.3700  144.2410 C   0  0  0  0  0  0  0  0  0  0  0  0
  183.7530  178.3900  141.6570 C   0  0  0  0  0  3  0  0  0  0  0  0
  183.4820  178.6720  144.0490 C   0  0  0  0  0  0  0  0  0  0  0  0
  182.9430  178.6780  142.7580 C   0  0  0  0  0  3  0  0  0  0  0  0
  185.1060  178.0960  141.8430 C   0  0  0  0  0  3  0  0  0  0  0  0
  182.6710  178.9540  145.0990 F   0  0  0  0  0  0  0  0  0  0  0  0
  185.6490  178.0890  143.1300 C   0  0  0  0  0  3  0  0  0  0  0  0
  190.5650  178.6720  145.2970 S   0  0  0  0  0  0  0  0  0  0  0  0
  190.5180  178.5880  143.4770 C   0  0  0  0  0  2  0  0  0  0  0  0
  191.3750  177.4400  142.9750 C   0  0  1  0  0  3  0  0  0  0  0  0
  191.9830  176.8170  144.0480 F   0  0  0  0  0  0  0  0  0  0  0  0
  190.5390  176.4510  142.2330 C   0  0  0  0  0  0  0  0  0  0  0  0
  190.1420  176.7090  140.9260 O   0  0  0  0  0  0  0  0  0  0  0  0
  190.2060  175.3730  142.7880 O   0  0  0  0  0  1  0  0  0  0  0  0
  1 12  1  6  0  0  0
  1  2  1  0  0  0  0
  1  8  1  0  0  0  0
  2  7  1  6  0  0  0
  2 11  1  0  0  0  0
  3  4  1  0  0  0  0
  5 11  1  0  0  0  0
  5  6  1  0  0  0  0
  5  9  1  1  0  0  0
  7 10  1  0  0  0  0
  8  3  1  0  0  0  0
 10 19  1  1  0  0  0
 10  5  1  0  0  0  0
 11  4  1  1  0  0  0
 13 16  2  0  0  0  0
 13 15  1  0  0  0  0
 14 12  1  0  0  0  0
 14 17  1  0  0  0  0
 15 14  2  0  0  0  0
 16 18  1  0  0  0  0
 18 12  2  0  0  0  0
 20 19  1  0  0  0  0
 21 20  1  0  0  0  0
 21 22  1  1  0  0  0
 23 25  1  0  0  0  0
 23 21  1  0  0  0  0
 24 23  2  0  0  0  0
M  END
>  <MODEL>
3

>  <REMARK>
 VINA RESULT:      -6.9      2.642      3.756
  Name = 
  5 active torsions:
  status: ('A' for Active; 'I' for Inactive)
    1  A    between atoms: C_1  and  C_5
    2  A    between atoms: C_2  and  C_21
    3  A    between atoms: S_6  and  C_15
    4  A    between atoms: S_6  and  C_23
    5  A    between atoms: C_15  and  C_21
                            x       y       z     vdW  Elec       q    Type
                         _______ _______ _______ _____ _____    ______ ____

>  <TORSDO>
F 5

$$$$
=
 OpenBabel10262419463D

 25 27  0  0  1  0  0  0  0  0999 V2000
  188.4030  177.3830  142.4630 C   0  0  1  0  0  3  0  0  0  0  0  0
  189.3050  178.1270  143.4630 C   0  0  1  0  0  3  0  0  0  0  0  0
  189.6390  175.2940  143.2810 C   0  0  0  0  0  2  0  0  0  0  0  0
  190.8580  176.1400  142.9260 C   0  0  0  0  0  2  0  0  0  0  0  0
  191.2600  177.7780  144.9220 C   0  0  1  0  0  0  0  0  0  0  0  0
  192.0870  178.9000  144.9240 O   0  0  0  0  0  1  0  0  0  0  0  0
  188.7930  178.0470  144.8900 C   0  0  0  0  0  2  0  0  0  0  0  0
  188.3620  175.8580  142.6500 C   0  0  0  0  0  2  0  0  0  0  0  0
  192.0800  176.5970  145.4440 C   0  0  0  0  0  1  0  0  0  0  0  0
  190.0210  178.1040  145.7750 C   0  0  1  0  0  3  0  0  0  0  0  0
  190.7390  177.5760  143.4870 C   0  0  2  0  0  3  0  0  0  0  0  0
  187.0470  178.0060  142.2890 C   0  0  0  0  0  0  0  0  0  0  0  0
  184.4730  179.0960  142.0540 C   0  0  0  0  0  3  0  0  0  0  0  0
  186.6400  178.6110  141.0830 C   0  0  0  0  0  0  0  0  0  0  0  0
  185.3560  179.1550  140.9730 C   0  0  0  0  0  3  0  0  0  0  0  0
  184.8710  178.4920  143.2490 C   0  0  0  0  0  3  0  0  0  0  0  0
  187.4760  178.6840  140.0180 F   0  0  0  0  0  0  0  0  0  0  0  0
  186.1520  177.9480  143.3640 C   0  0  0  0  0  3  0  0  0  0  0  0
  189.8010  177.1960  147.3570 S   0  0  0  0  0  0  0  0  0  0  0  0
  187.9930  177.0110  147.2110 C   0  0  0  0  0  2  0  0  0  0  0  0
  187.2820  177.9980  148.1180 C   0  0  1  0  0  3  0  0  0  0  0  0
  188.1760  178.9660  148.5350 F   0  0  0  0  0  0  0  0  0  0  0  0
  186.1470  178.6450  147.3970 C   0  0  0  0  0  0  0  0  0  0  0  0
  185.9680  180.0220  147.4650 O   0  0  0  0  0  1  0  0  0  0  0  0
  185.3590  177.9440  146.7120 O   0  0  0  0  0  0  0  0  0  0  0  0
  1 12  1  1  0  0  0
  1  8  1  0  0  0  0
  1  2  1  0  0  0  0
  2 11  1  0  0  0  0
  2  7  1  1  0  0  0
  4  3  1  0  0  0  0
  5  6  1  0  0  0  0
  5  9  1  1  0  0  0
  5 10  1  0  0  0  0
  7 10  1  0  0  0  0
  8  3  1  0  0  0  0
 10 19  1  1  0  0  0
 11  4  1  1  0  0  0
 11  5  1  0  0  0  0
 12 18  1  0  0  0  0
 13 16  1  0  0  0  0
 14 12  2  0  0  0  0
 15 14  1  0  0  0  0
 15 13  2  0  0  0  0
 16 18  2  0  0  0  0
 17 14  1  0  0  0  0
 20 19  1  0  0  0  0
 20 21  1  0  0  0  0
 21 22  1  6  0  0  0
 23 24  1  0  0  0  0
 23 21  1  0  0  0  0
 25 23  2  0  0  0  0
M  END
>  <MODEL>
4

>  <REMARK>
 VINA RESULT:      -6.8      3.398      5.721
  Name = 
  5 active torsions:
  status: ('A' for Active; 'I' for Inactive)
    1  A    between atoms: C_1  and  C_5
    2  A    between atoms: C_2  and  C_21
    3  A    between atoms: S_6  and  C_15
    4  A    between atoms: S_6  and  C_23
    5  A    between atoms: C_15  and  C_21
                            x       y       z     vdW  Elec       q    Type
                         _______ _______ _______ _____ _____    ______ ____

>  <TORSDO>
F 5

$$$$
=
 OpenBabel10262419463D

 25 27  0  0  1  0  0  0  0  0999 V2000
  184.2560  178.0560  141.1050 C   0  0  1  0  0  3  0  0  0  0  0  0
  182.9740  177.3480  140.6340 C   0  0  1  0  0  3  0  0  0  0  0  0
  184.1860  179.1780  138.8030 C   0  0  0  0  0  2  0  0  0  0  0  0
  184.0860  177.7280  138.3390 C   0  0  0  0  0  2  0  0  0  0  0  0
  181.5910  177.0050  138.6240 C   0  0  1  0  0  0  0  0  0  0  0  0
  181.0910  175.7040  138.5790 O   0  0  0  0  0  1  0  0  0  0  0  0
  181.7350  178.2110  140.7880 C   0  0  0  0  0  2  0  0  0  0  0  0
  184.6660  179.2690  140.2550 C   0  0  0  0  0  2  0  0  0  0  0  0
  181.4860  177.5910  137.2150 C   0  0  0  0  0  1  0  0  0  0  0  0
  180.7900  177.7800  139.6840 C   0  0  1  0  0  3  0  0  0  0  0  0
  183.0350  176.9390  139.1540 C   0  0  2  0  0  3  0  0  0  0  0  0
  184.2980  178.3130  142.5840 C   0  0  0  0  0  0  0  0  0  0  0  0
  184.2850  178.8750  145.3330 C   0  0  0  0  0  3  0  0  0  0  0  0
  185.4570  178.0990  143.3580 C   0  0  0  0  0  0  0  0  0  0  0  0
  185.4430  178.3790  144.7290 C   0  0  0  0  0  3  0  0  0  0  0  0
  183.1370  179.0940  144.5690 C   0  0  0  0  0  3  0  0  0  0  0  0
  186.5940  177.6170  142.7990 F   0  0  0  0  0  0  0  0  0  0  0  0
  183.1460  178.8160  143.2000 C   0  0  0  0  0  3  0  0  0  0  0  0
  179.6960  179.1410  139.1130 S   0  0  0  0  0  0  0  0  0  0  0  0
  180.7130  180.4920  139.7940 C   0  0  0  0  0  2  0  0  0  0  0  0
  181.0680  181.4910  138.7080 C   0  0  1  0  0  3  0  0  0  0  0  0
  181.5330  180.8150  137.5960 F   0  0  0  0  0  0  0  0  0  0  0  0
  179.8730  182.3030  138.3340 C   0  0  0  0  0  0  0  0  0  0  0  0
  179.5830  182.5490  136.9980 O   0  0  0  0  0  0  0  0  0  0  0  0
  179.1160  182.7520  139.2330 O   0  0  0  0  0  1  0  0  0  0  0  0
  1 12  1  1  0  0  0
  2  7  1  6  0  0  0
  2  1  1  0  0  0  0
  3  8  1  0  0  0  0
  4  3  1  0  0  0  0
  5  9  1  6  0  0  0
  5 11  1  0  0  0  0
  5 10  1  0  0  0  0
  6  5  1  0  0  0  0
  8  1  1  0  0  0  0
 10 19  1  6  0  0  0
 10  7  1  0  0  0  0
 11  4  1  6  0  0  0
 11  2  1  0  0  0  0
 12 18  2  0  0  0  0
 12 14  1  0  0  0  0
 14 15  2  0  0  0  0
 15 13  1  0  0  0  0
 16 13  2  0  0  0  0
 17 14  1  0  0  0  0
 18 16  1  0  0  0  0
 19 20  1  0  0  0  0
 21 22  1  6  0  0  0
 21 20  1  0  0  0  0
 23 21  1  0  0  0  0
 23 25  1  0  0  0  0
 24 23  2  0  0  0  0
M  END
>  <MODEL>
5

>  <REMARK>
 VINA RESULT:      -6.5      5.572      7.933
  Name = 
  5 active torsions:
  status: ('A' for Active; 'I' for Inactive)
    1  A    between atoms: C_1  and  C_5
    2  A    between atoms: C_2  and  C_21
    3  A    between atoms: S_6  and  C_15
    4  A    between atoms: S_6  and  C_23
    5  A    between atoms: C_15  and  C_21
                            x       y       z     vdW  Elec       q    Type
                         _______ _______ _______ _____ _____    ______ ____

>  <TORSDO>
F 5

$$$$
=
 OpenBabel10262419463D

 25 27  0  0  1  0  0  0  0  0999 V2000
  191.2650  176.7570  141.1200 C   0  0  1  0  0  3  0  0  0  0  0  0
  190.1330  176.5140  140.1060 C   0  0  1  0  0  3  0  0  0  0  0  0
  192.6550  177.3510  139.0520 C   0  0  0  0  0  2  0  0  0  0  0  0
  192.1490  175.9880  138.5870 C   0  0  0  0  0  2  0  0  0  0  0  0
  189.7240  176.3400  137.6820 C   0  0  1  0  0  0  0  0  0  0  0  0
  188.7860  175.3470  137.4060 O   0  0  0  0  0  1  0  0  0  0  0  0
  189.4460  177.7970  139.6730 C   0  0  0  0  0  2  0  0  0  0  0  0
  192.4680  177.5330  140.5610 C   0  0  0  0  0  2  0  0  0  0  0  0
  190.4820  176.6360  136.3870 C   0  0  0  0  0  1  0  0  0  0  0  0
  188.9690  177.5530  138.2550 C   0  0  1  0  0  3  0  0  0  0  0  0
  190.6290  175.8340  138.8210 C   0  0  2  0  0  3  0  0  0  0  0  0
  190.7870  177.2620  142.4520 C   0  0  0  0  0  0  0  0  0  0  0  0
  189.9960  178.2750  144.9450 C   0  0  0  0  0  3  0  0  0  0  0  0
  189.9380  176.5070  143.2880 C   0  0  0  0  0  0  0  0  0  0  0  0
  189.5450  177.0200  144.5290 C   0  0  0  0  0  3  0  0  0  0  0  0
  190.8420  179.0220  144.1230 C   0  0  0  0  0  3  0  0  0  0  0  0
  189.4840  175.2880  142.9090 F   0  0  0  0  0  0  0  0  0  0  0  0
  191.2370  178.5150  142.8830 C   0  0  0  0  0  3  0  0  0  0  0  0
  188.9160  179.0890  137.2490 S   0  0  0  0  0  0  0  0  0  0  0  0
  187.2770  178.7710  136.5160 C   0  0  0  0  0  2  0  0  0  0  0  0
  186.4070  177.9830  137.4780 C   0  0  1  0  0  3  0  0  0  0  0  0
  185.5460  178.8460  138.1300 F   0  0  0  0  0  0  0  0  0  0  0  0
  185.6170  176.9520  136.7430 C   0  0  0  0  0  0  0  0  0  0  0  0
  186.1450  176.3390  135.6130 O   0  0  0  0  0  0  0  0  0  0  0  0
  184.4750  176.6260  137.1580 O   0  0  0  0  0  1  0  0  0  0  0  0
  1 12  1  1  0  0  0
  2  7  1  6  0  0  0
  2  1  1  0  0  0  0
  3  8  1  0  0  0  0
  4  3  1  0  0  0  0
  5  9  1  6  0  0  0
  5 10  1  0  0  0  0
  5 11  1  0  0  0  0
  6  5  1  0  0  0  0
  8  1  1  0  0  0  0
 10 19  1  6  0  0  0
 10  7  1  0  0  0  0
 11  4  1  6  0  0  0
 11  2  1  0  0  0  0
 12 18  2  0  0  0  0
 12 14  1  0  0  0  0
 14 15  2  0  0  0  0
 15 13  1  0  0  0  0
 16 13  2  0  0  0  0
 17 14  1  0  0  0  0
 18 16  1  0  0  0  0
 20 19  1  0  0  0  0
 20 21  1  0  0  0  0
 21 22  1  6  0  0  0
 23 25  1  0  0  0  0
 23 21  1  0  0  0  0
 24 23  2  0  0  0  0
M  END
>  <MODEL>
6

>  <REMARK>
 VINA RESULT:      -6.5      3.636      5.598
  Name = 
  5 active torsions:
  status: ('A' for Active; 'I' for Inactive)
    1  A    between atoms: C_1  and  C_5
    2  A    between atoms: C_2  and  C_21
    3  A    between atoms: S_6  and  C_15
    4  A    between atoms: S_6  and  C_23
    5  A    between atoms: C_15  and  C_21
                            x       y       z     vdW  Elec       q    Type
                         _______ _______ _______ _____ _____    ______ ____

>  <TORSDO>
F 5

$$$$
=
 OpenBabel10262419463D

 25 27  0  0  1  0  0  0  0  0999 V2000
  184.1850  178.3900  143.7190 C   0  0  1  0  0  3  0  0  0  0  0  0
  185.3450  177.5400  143.1710 C   0  0  1  0  0  3  0  0  0  0  0  0
  185.9970  179.4870  145.1600 C   0  0  0  0  0  2  0  0  0  0  0  0
  186.2870  178.0330  145.5200 C   0  0  0  0  0  2  0  0  0  0  0  0
  187.7230  177.0360  143.5780 C   0  0  1  0  0  0  0  0  0  0  0  0
  187.9920  175.6880  143.3500 O   0  0  0  0  0  1  0  0  0  0  0  0
  186.1470  178.2600  142.1010 C   0  0  0  0  0  2  0  0  0  0  0  0
  184.6210  179.6380  144.5030 C   0  0  0  0  0  2  0  0  0  0  0  0
  188.8660  177.6010  144.4230 C   0  0  0  0  0  1  0  0  0  0  0  0
  187.5590  177.7220  142.2090 C   0  0  1  0  0  3  0  0  0  0  0  0
  186.3470  177.1350  144.2630 C   0  0  2  0  0  3  0  0  0  0  0  0
  183.1010  178.6560  142.7140 C   0  0  0  0  0  0  0  0  0  0  0  0
  181.1630  179.1940  140.7580 C   0  0  0  0  0  3  0  0  0  0  0  0
  181.7650  178.9080  143.0890 C   0  0  0  0  0  0  0  0  0  0  0  0
  180.8030  179.1720  142.1080 C   0  0  0  0  0  3  0  0  0  0  0  0
  182.4860  178.9510  140.3840 C   0  0  0  0  0  3  0  0  0  0  0  0
  181.3880  178.8920  144.3900 F   0  0  0  0  0  0  0  0  0  0  0  0
  183.4510  178.6860  141.3580 C   0  0  0  0  0  3  0  0  0  0  0  0
  188.8290  178.9490  141.7040 S   0  0  0  0  0  0  0  0  0  0  0  0
  189.1270  178.2350  140.0530 C   0  0  0  0  0  2  0  0  0  0  0  0
  190.3470  177.3330  140.0750 C   0  0  1  0  0  3  0  0  0  0  0  0
  190.2000  176.3860  141.0700 F   0  0  0  0  0  0  0  0  0  0  0  0
  190.5150  176.6510  138.7590 C   0  0  0  0  0  0  0  0  0  0  0  0
  190.3120  177.3510  137.5750 O   0  0  0  0  0  0  0  0  0  0  0  0
  190.8570  175.4410  138.7200 O   0  0  0  0  0  1  0  0  0  0  0  0
  1 12  1  6  0  0  0
  1  8  1  0  0  0  0
  2  7  1  6  0  0  0
  2  1  1  0  0  0  0
  2 11  1  0  0  0  0
  3  4  1  0  0  0  0
  5 11  1  0  0  0  0
  5  9  1  1  0  0  0
  6  5  1  0  0  0  0
  7 10  1  0  0  0  0
  8  3  1  0  0  0  0
 10 19  1  1  0  0  0
 10  5  1  0  0  0  0
 11  4  1  1  0  0  0
 12 14  1  0  0  0  0
 13 15  1  0  0  0  0
 14 17  1  0  0  0  0
 15 14  2  0  0  0  0
 16 13  2  0  0  0  0
 16 18  1  0  0  0  0
 18 12  2  0  0  0  0
 20 21  1  0  0  0  0
 20 19  1  0  0  0  0
 21 22  1  1  0  0  0
 23 21  1  0  0  0  0
 24 23  2  0  0  0  0
 25 23  1  0  0  0  0
M  END
>  <MODEL>
7

>  <REMARK>
 VINA RESULT:      -6.4      2.086      3.185
  Name = 
  5 active torsions:
  status: ('A' for Active; 'I' for Inactive)
    1  A    between atoms: C_1  and  C_5
    2  A    between atoms: C_2  and  C_21
    3  A    between atoms: S_6  and  C_15
    4  A    between atoms: S_6  and  C_23
    5  A    between atoms: C_15  and  C_21
                            x       y       z     vdW  Elec       q    Type
                         _______ _______ _______ _____ _____    ______ ____

>  <TORSDO>
F 5

$$$$
=
 OpenBabel10262419463D

 25 27  0  0  1  0  0  0  0  0999 V2000
  183.9840  178.5540  143.4980 C   0  0  1  0  0  3  0  0  0  0  0  0
  185.1890  177.6550  143.1710 C   0  0  1  0  0  3  0  0  0  0  0  0
  185.6050  179.7230  145.1000 C   0  0  0  0  0  2  0  0  0  0  0  0
  185.8120  178.2930  145.5900 C   0  0  0  0  0  2  0  0  0  0  0  0
  187.4770  177.1500  143.9330 C   0  0  1  0  0  0  0  0  0  0  0  0
  187.7460  175.7860  143.8320 O   0  0  0  0  0  1  0  0  0  0  0  0
  186.1450  178.2910  142.1770 C   0  0  0  0  0  2  0  0  0  0  0  0
  184.3360  179.8470  144.2510 C   0  0  0  0  0  2  0  0  0  0  0  0
  188.5070  177.7560  144.8880 C   0  0  0  0  0  1  0  0  0  0  0  0
  187.5170  177.7440  142.5130 C   0  0  1  0  0  3  0  0  0  0  0  0
  186.0240  177.3120  144.4140 C   0  0  2  0  0  3  0  0  0  0  0  0
  183.0530  178.7660  142.3380 C   0  0  0  0  0  0  0  0  0  0  0  0
  181.4100  179.2010  140.1060 C   0  0  0  0  0  3  0  0  0  0  0  0
  181.6720  178.9970  142.5070 C   0  0  0  0  0  0  0  0  0  0  0  0
  180.8590  179.2100  141.3890 C   0  0  0  0  0  3  0  0  0  0  0  0
  182.7790  178.9780  139.9350 C   0  0  0  0  0  3  0  0  0  0  0  0
  181.1100  179.0100  143.7400 F   0  0  0  0  0  0  0  0  0  0  0  0
  183.5960  178.7640  141.0470 C   0  0  0  0  0  3  0  0  0  0  0  0
  188.8700  178.9180  142.1080 S   0  0  0  0  0  0  0  0  0  0  0  0
  190.0190  177.6590  141.4630 C   0  0  0  0  0  2  0  0  0  0  0  0
  191.2450  177.5500  142.3510 C   0  0  1  0  0  3  0  0  0  0  0  0
  191.3210  178.6630  143.1670 F   0  0  0  0  0  0  0  0  0  0  0  0
  191.1710  176.3200  143.1930 C   0  0  0  0  0  0  0  0  0  0  0  0
  191.7640  176.2950  144.4500 O   0  0  0  0  0  1  0  0  0  0  0  0
  190.5580  175.3080  142.7690 O   0  0  0  0  0  0  0  0  0  0  0  0
  1 12  1  6  0  0  0
  1  8  1  0  0  0  0
  2  7  1  6  0  0  0
  2  1  1  0  0  0  0
  2 11  1  0  0  0  0
  3  4  1  0  0  0  0
  5 11  1  0  0  0  0
  5  9  1  1  0  0  0
  6  5  1  0  0  0  0
  7 10  1  0  0  0  0
  8  3  1  0  0  0  0
 10 19  1  1  0  0  0
 10  5  1  0  0  0  0
 11  4  1  1  0  0  0
 12 14  1  0  0  0  0
 13 15  1  0  0  0  0
 14 17  1  0  0  0  0
 15 14  2  0  0  0  0
 16 13  2  0  0  0  0
 16 18  1  0  0  0  0
 18 12  2  0  0  0  0
 20 19  1  0  0  0  0
 20 21  1  0  0  0  0
 21 22  1  1  0  0  0
 21 23  1  0  0  0  0
 23 24  1  0  0  0  0
 25 23  2  0  0  0  0
M  END
>  <MODEL>
8

>  <REMARK>
 VINA RESULT:      -6.4      2.772      4.244
  Name = 
  5 active torsions:
  status: ('A' for Active; 'I' for Inactive)
    1  A    between atoms: C_1  and  C_5
    2  A    between atoms: C_2  and  C_21
    3  A    between atoms: S_6  and  C_15
    4  A    between atoms: S_6  and  C_23
    5  A    between atoms: C_15  and  C_21
                            x       y       z     vdW  Elec       q    Type
                         _______ _______ _______ _____ _____    ______ ____

>  <TORSDO>
F 5

$$$$
=
 OpenBabel10262419463D

 25 27  0  0  1  0  0  0  0  0999 V2000
  184.9580  177.5030  137.5670 C   0  0  1  0  0  3  0  0  0  0  0  0
  186.2050  178.3460  137.8850 C   0  0  1  0  0  3  0  0  0  0  0  0
  186.6420  175.8250  136.6110 C   0  0  0  0  0  2  0  0  0  0  0  0
  187.1070  177.0580  135.8410 C   0  0  0  0  0  2  0  0  0  0  0  0
  188.6300  178.4370  137.4550 C   0  0  1  0  0  0  0  0  0  0  0  0
  189.0550  179.7530  137.2770 O   0  0  0  0  0  1  0  0  0  0  0  0
  186.9040  177.9050  139.1580 C   0  0  0  0  0  2  0  0  0  0  0  0
  185.2510  176.0350  137.2180 C   0  0  0  0  0  2  0  0  0  0  0  0
  189.7070  177.5200  136.8750 C   0  0  0  0  0  1  0  0  0  0  0  0
  188.3720  178.2260  138.9580 C   0  0  1  0  0  3  0  0  0  0  0  0
  187.2590  178.2850  136.7690 C   0  0  2  0  0  3  0  0  0  0  0  0
  183.8400  177.6780  138.5540 C   0  0  0  0  0  0  0  0  0  0  0  0
  181.6990  177.9010  140.3540 C   0  0  0  0  0  3  0  0  0  0  0  0
  183.4760  178.9380  139.0710 C   0  0  0  0  0  0  0  0  0  0  0  0
  182.4090  179.0410  139.9710 C   0  0  0  0  0  3  0  0  0  0  0  0
  182.0540  176.6520  139.8380 C   0  0  0  0  0  3  0  0  0  0  0  0
  184.1470  180.0610  138.7180 F   0  0  0  0  0  0  0  0  0  0  0  0
  183.1180  176.5420  138.9400 C   0  0  0  0  0  3  0  0  0  0  0  0
  189.4810  177.0810  139.8700 S   0  0  0  0  0  0  0  0  0  0  0  0
  188.7070  177.3350  141.5000 C   0  0  0  0  0  2  0  0  0  0  0  0
  189.7540  177.7040  142.5350 C   0  0  1  0  0  3  0  0  0  0  0  0
  189.1290  178.0490  143.7180 F   0  0  0  0  0  0  0  0  0  0  0  0
  190.6780  176.5570  142.7760 C   0  0  0  0  0  0  0  0  0  0  0  0
  190.1820  175.2600  142.8430 O   0  0  0  0  0  0  0  0  0  0  0  0
  191.9120  176.7630  142.9020 O   0  0  0  0  0  1  0  0  0  0  0  0
  1  2  1  0  0  0  0
  1 12  1  1  0  0  0
  2  7  1  1  0  0  0
  3  8  1  0  0  0  0
  4  3  1  0  0  0  0
  5  9  1  6  0  0  0
  5 10  1  0  0  0  0
  6  5  1  0  0  0  0
  8  1  1  0  0  0  0
 10  7  1  0  0  0  0
 10 19  1  6  0  0  0
 11  4  1  1  0  0  0
 11  5  1  0  0  0  0
 11  2  1  0  0  0  0
 12 18  2  0  0  0  0
 12 14  1  0  0  0  0
 14 15  2  0  0  0  0
 15 13  1  0  0  0  0
 16 13  2  0  0  0  0
 17 14  1  0  0  0  0
 18 16  1  0  0  0  0
 19 20  1  0  0  0  0
 20 21  1  0  0  0  0
 21 23  1  0  0  0  0
 21 22  1  1  0  0  0
 23 24  2  0  0  0  0
 23 25  1  0  0  0  0
M  END
>  <MODEL>
9

>  <REMARK>
 VINA RESULT:      -6.3      3.083      6.493
  Name = 
  5 active torsions:
  status: ('A' for Active; 'I' for Inactive)
    1  A    between atoms: C_1  and  C_5
    2  A    between atoms: C_2  and  C_21
    3  A    between atoms: S_6  and  C_15
    4  A    between atoms: S_6  and  C_23
    5  A    between atoms: C_15  and  C_21
                            x       y       z     vdW  Elec       q    Type
                         _______ _______ _______ _____ _____    ______ ____

>  <TORSDO>
F 5

$$$$
