=
 OpenBabel10262419123D

 34 40  0  0  1  0  0  0  0  0999 V2000
  187.2520  178.4150  146.8070 C   0  0  2  0  0  3  0  0  0  0  0  0
  189.4850  177.7170  146.1600 C   0  0  2  0  0  3  0  0  0  0  0  0
  187.5860  177.3050  144.4680 C   0  0  1  0  0  3  0  0  0  0  0  0
  188.1100  179.1710  142.8780 O   0  0  0  0  0  0  0  0  0  0  0  0
  189.0530  178.1780  148.5620 C   0  0  0  0  0  2  0  0  0  0  0  0
  189.8760  177.3290  147.5770 C   0  0  0  0  0  2  0  0  0  0  0  0
  190.0630  177.9340  143.7840 C   0  0  1  0  0  3  0  0  0  0  0  0
  188.0070  177.3960  145.9550 C   0  0  2  0  0  3  0  0  0  0  0  0
  189.3560  175.5760  142.7960 C   0  0  0  0  0  1  0  0  0  0  0  0
  187.5400  178.1050  148.2790 C   0  0  0  0  0  2  0  0  0  0  0  0
  186.1120  177.6400  144.1690 C   0  0  2  0  0  3  0  0  0  0  0  0
  185.7640  178.4110  146.5120 C   0  0  0  0  0  2  0  0  0  0  0  0
  190.3570  177.1380  145.0630 C   0  0  0  0  0  2  0  0  0  0  0  0
  186.9720  178.9120  142.0710 C   0  0  0  0  0  2  0  0  0  0  0  0
  185.9410  177.9230  142.6680 C   0  0  2  0  0  3  0  0  0  0  0  0
  189.4810  177.0910  142.6430 C   0  0  1  0  0  0  0  0  0  0  0  0
  188.5510  177.9710  143.4710 C   0  0  1  0  0  0  0  0  0  0  0  0
  185.5730  178.7700  145.0480 C   0  0  0  0  0  2  0  0  0  0  0  0
  182.2660  178.8320  142.8370 C   0  0  0  0  0  0  0  0  0  0  0  0
  181.8930  178.7690  141.4910 C   0  0  0  0  0  3  0  0  0  0  0  0
  184.5310  178.2000  142.2440 C   0  0  0  0  0  0  0  0  0  0  0  0
  182.8370  178.4260  140.5190 C   0  0  0  0  0  3  0  0  0  0  0  0
  183.5830  178.5510  143.2120 C   0  0  0  0  0  3  0  0  0  0  0  0
  184.1540  178.1450  140.8930 C   0  0  0  0  0  3  0  0  0  0  0  0
  181.3510  179.1660  143.7790 F   0  0  0  0  0  0  0  0  0  0  0  0
  189.5420  176.8930  140.2790 C   0  0  0  0  0  3  0  0  0  0  0  0
  189.7700  177.6000  141.3240 N   0  0  0  0  0  0  0  0  0  0  0  0
  189.8490  177.4420  138.9270 C   0  0  0  0  0  2  0  0  0  0  0  0
  188.8050  178.4750  138.5210 C   0  0  0  0  0  3  0  0  0  0  0  0
  187.4020  177.8670  138.5960 C   0  0  0  0  0  2  0  0  0  0  0  0
  187.2790  177.7260  136.1980 O   0  0  0  0  0  0  0  0  0  0  0  0
  188.6480  178.0100  136.0560 C   0  0  0  0  0  2  0  0  0  0  0  0
  189.0830  179.0260  137.1150 C   0  0  0  0  0  2  0  0  0  0  0  0
  187.1470  176.9740  137.3780 C   0  0  0  0  0  2  0  0  0  0  0  0
  1 12  1  1  0  0  0
  1 10  1  0  0  0  0
  2 13  1  6  0  0  0
  2  6  1  0  0  0  0
  3  8  1  0  0  0  0
  4 17  1  0  0  0  0
  6  5  1  0  0  0  0
  7 13  1  0  0  0  0
  8  2  1  0  0  0  0
  8  1  1  0  0  0  0
 10  5  1  0  0  0  0
 11  3  1  0  0  0  0
 11 18  1  0  0  0  0
 14 15  1  0  0  0  0
 14  4  1  0  0  0  0
 15 11  1  0  0  0  0
 16  9  1  0  0  0  0
 16 17  1  0  0  0  0
 16  7  1  0  0  0  0
 17  7  1  0  0  0  0
 17  3  1  0  0  0  0
 18 12  1  0  0  0  0
 19 23  1  0  0  0  0
 19 25  1  0  0  0  0
 20 19  2  0  0  0  0
 21 15  1  0  0  0  0
 21 23  2  0  0  0  0
 22 24  2  0  0  0  0
 22 20  1  0  0  0  0
 24 21  1  0  0  0  0
 26 27  2  0  0  0  0
 27 16  1  0  0  0  0
 28 26  1  0  0  0  0
 29 30  1  0  0  0  0
 29 28  1  0  0  0  0
 31 34  1  0  0  0  0
 32 31  1  0  0  0  0
 32 33  1  0  0  0  0
 33 29  1  0  0  0  0
 34 30  1  0  0  0  0
M  END
>  <MODEL>
1

>  <REMARK>
 VINA RESULT:     -10.7      0.000      0.000
  Name = 
  4 active torsions:
  status: ('A' for Active; 'I' for Inactive)
    1  A    between atoms: C_3  and  C_13
    2  A    between atoms: C_11  and  C_13
    3  A    between atoms: C_12  and  C_28
    4  A    between atoms: N_17  and  C_29
                            x       y       z     vdW  Elec       q    Type
                         _______ _______ _______ _____ _____    ______ ____

>  <TORSDO>
F 4

$$$$
=
 OpenBabel10262419123D

 34 40  0  0  1  0  0  0  0  0999 V2000
  187.2490  178.4300  146.8240 C   0  0  2  0  0  3  0  0  0  0  0  0
  189.4700  177.7110  146.1580 C   0  0  2  0  0  3  0  0  0  0  0  0
  187.5530  177.3170  144.4830 C   0  0  1  0  0  3  0  0  0  0  0  0
  188.0810  179.1780  142.8880 O   0  0  0  0  0  0  0  0  0  0  0  0
  189.0640  178.1760  148.5640 C   0  0  0  0  0  2  0  0  0  0  0  0
  189.8700  177.3200  147.5720 C   0  0  0  0  0  2  0  0  0  0  0  0
  190.0300  177.9240  143.7770 C   0  0  1  0  0  3  0  0  0  0  0  0
  187.9880  177.4040  145.9660 C   0  0  2  0  0  3  0  0  0  0  0  0
  189.2930  175.5720  142.7950 C   0  0  0  0  0  1  0  0  0  0  0  0
  187.5480  178.1180  148.2930 C   0  0  0  0  0  2  0  0  0  0  0  0
  186.0800  177.6650  144.1960 C   0  0  2  0  0  3  0  0  0  0  0  0
  185.7600  178.4400  146.5420 C   0  0  0  0  0  2  0  0  0  0  0  0
  190.3280  177.1240  145.0540 C   0  0  0  0  0  2  0  0  0  0  0  0
  186.9340  178.9300  142.0900 C   0  0  0  0  0  2  0  0  0  0  0  0
  185.8990  177.9500  142.6970 C   0  0  2  0  0  3  0  0  0  0  0  0
  189.4310  177.0860  142.6420 C   0  0  1  0  0  0  0  0  0  0  0  0
  188.5160  177.9740  143.4770 C   0  0  1  0  0  0  0  0  0  0  0  0
  185.5590  178.8000  145.0790 C   0  0  0  0  0  2  0  0  0  0  0  0
  182.8150  178.3570  140.5330 C   0  0  0  0  0  0  0  0  0  0  0  0
  181.8510  178.7340  141.4740 C   0  0  0  0  0  3  0  0  0  0  0  0
  184.4880  178.2410  142.2840 C   0  0  0  0  0  0  0  0  0  0  0  0
  182.2020  178.8610  142.8210 C   0  0  0  0  0  3  0  0  0  0  0  0
  184.1290  178.1080  140.9380 C   0  0  0  0  0  3  0  0  0  0  0  0
  183.5160  178.6130  143.2270 C   0  0  0  0  0  3  0  0  0  0  0  0
  182.4740  178.2320  139.2280 F   0  0  0  0  0  0  0  0  0  0  0  0
  189.5180  176.8680  140.2790 C   0  0  0  0  0  3  0  0  0  0  0  0
  189.7130  177.5920  141.3200 N   0  0  0  0  0  0  0  0  0  0  0  0
  189.8180  177.4150  138.9250 C   0  0  0  0  0  2  0  0  0  0  0  0
  188.7900  178.4710  138.5370 C   0  0  0  0  0  3  0  0  0  0  0  0
  187.3780  177.8810  138.5930 C   0  0  0  0  0  2  0  0  0  0  0  0
  187.2650  177.7940  136.1920 O   0  0  0  0  0  0  0  0  0  0  0  0
  188.6390  178.0620  136.0610 C   0  0  0  0  0  2  0  0  0  0  0  0
  189.0820  179.0490  137.1450 C   0  0  0  0  0  2  0  0  0  0  0  0
  187.1170  177.0190  137.3550 C   0  0  0  0  0  2  0  0  0  0  0  0
  1 12  1  1  0  0  0
  1 10  1  0  0  0  0
  2 13  1  6  0  0  0
  2  6  1  0  0  0  0
  3  8  1  0  0  0  0
  4 17  1  0  0  0  0
  6  5  1  0  0  0  0
  7 13  1  0  0  0  0
  8  2  1  0  0  0  0
  8  1  1  0  0  0  0
 10  5  1  0  0  0  0
 11  3  1  0  0  0  0
 11 18  1  0  0  0  0
 14 15  1  0  0  0  0
 14  4  1  0  0  0  0
 15 11  1  0  0  0  0
 16  9  1  0  0  0  0
 16 17  1  0  0  0  0
 16  7  1  0  0  0  0
 17  7  1  0  0  0  0
 17  3  1  0  0  0  0
 18 12  1  0  0  0  0
 19 23  2  0  0  0  0
 19 20  1  0  0  0  0
 20 22  2  0  0  0  0
 21 15  1  0  0  0  0
 21 24  2  0  0  0  0
 22 24  1  0  0  0  0
 23 21  1  0  0  0  0
 25 19  1  0  0  0  0
 26 27  2  0  0  0  0
 27 16  1  0  0  0  0
 28 26  1  0  0  0  0
 29 30  1  0  0  0  0
 29 28  1  0  0  0  0
 31 34  1  0  0  0  0
 32 31  1  0  0  0  0
 32 33  1  0  0  0  0
 33 29  1  0  0  0  0
 34 30  1  0  0  0  0
M  END
>  <MODEL>
2

>  <REMARK>
 VINA RESULT:     -10.7      0.821      1.168
  Name = 
  4 active torsions:
  status: ('A' for Active; 'I' for Inactive)
    1  A    between atoms: C_3  and  C_13
    2  A    between atoms: C_11  and  C_13
    3  A    between atoms: C_12  and  C_28
    4  A    between atoms: N_17  and  C_29
                            x       y       z     vdW  Elec       q    Type
                         _______ _______ _______ _____ _____    ______ ____

>  <TORSDO>
F 4

$$$$
=
 OpenBabel10262419123D

 34 40  0  0  1  0  0  0  0  0999 V2000
  188.0400  178.3550  146.9140 C   0  0  2  0  0  3  0  0  0  0  0  0
  190.2250  177.6040  146.1690 C   0  0  2  0  0  3  0  0  0  0  0  0
  188.2380  177.2060  144.5780 C   0  0  1  0  0  3  0  0  0  0  0  0
  188.7190  179.0400  142.9370 O   0  0  0  0  0  0  0  0  0  0  0  0
  189.9210  178.1060  148.5820 C   0  0  0  0  0  2  0  0  0  0  0  0
  190.6780  177.2280  147.5700 C   0  0  0  0  0  2  0  0  0  0  0  0
  190.6900  177.7780  143.7640 C   0  0  1  0  0  3  0  0  0  0  0  0
  188.7340  177.3100  146.0410 C   0  0  2  0  0  3  0  0  0  0  0  0
  189.8910  175.4210  142.8460 C   0  0  0  0  0  1  0  0  0  0  0  0
  188.3950  178.0600  148.3740 C   0  0  0  0  0  2  0  0  0  0  0  0
  186.7580  177.5660  144.3460 C   0  0  2  0  0  3  0  0  0  0  0  0
  186.5400  178.3760  146.6920 C   0  0  0  0  0  2  0  0  0  0  0  0
  191.0310  176.9930  145.0390 C   0  0  0  0  0  2  0  0  0  0  0  0
  187.5380  178.7930  142.1900 C   0  0  0  0  0  2  0  0  0  0  0  0
  186.5180  177.8320  142.8520 C   0  0  2  0  0  3  0  0  0  0  0  0
  190.0370  176.9310  142.6660 C   0  0  1  0  0  0  0  0  0  0  0  0
  189.1650  177.8400  143.5250 C   0  0  1  0  0  0  0  0  0  0  0  0
  186.2840  178.7190  145.2340 C   0  0  0  0  0  2  0  0  0  0  0  0
  182.8270  178.6120  143.2050 C   0  0  0  0  0  0  0  0  0  0  0  0
  182.4310  178.7340  141.8690 C   0  0  0  0  0  3  0  0  0  0  0  0
  185.0950  178.1310  142.4930 C   0  0  0  0  0  0  0  0  0  0  0  0
  183.3640  178.5590  140.8440 C   0  0  0  0  0  3  0  0  0  0  0  0
  184.1570  178.3150  143.5150 C   0  0  0  0  0  3  0  0  0  0  0  0
  184.6950  178.2610  141.1530 C   0  0  0  0  0  3  0  0  0  0  0  0
  181.9220  178.7840  144.1980 F   0  0  0  0  0  0  0  0  0  0  0  0
  189.6160  176.9440  140.3300 C   0  0  0  0  0  3  0  0  0  0  0  0
  190.2700  177.4160  141.3270 N   0  0  0  0  0  0  0  0  0  0  0  0
  189.8760  177.4630  138.9560 C   0  0  0  0  0  2  0  0  0  0  0  0
  189.6320  176.3720  137.9190 C   0  0  0  0  0  3  0  0  0  0  0  0
  189.9890  176.8820  136.5210 C   0  0  0  0  0  2  0  0  0  0  0  0
  187.6620  177.0760  135.9430 O   0  0  0  0  0  0  0  0  0  0  0  0
  187.2580  176.8890  137.2750 C   0  0  0  0  0  2  0  0  0  0  0  0
  188.1790  175.8770  137.9620 C   0  0  0  0  0  2  0  0  0  0  0  0
  188.8740  177.7860  135.9880 C   0  0  0  0  0  2  0  0  0  0  0  0
  1 12  1  1  0  0  0
  1 10  1  0  0  0  0
  2 13  1  6  0  0  0
  2  6  1  0  0  0  0
  3  8  1  0  0  0  0
  4 17  1  0  0  0  0
  6  5  1  0  0  0  0
  7 13  1  0  0  0  0
  8  2  1  0  0  0  0
  8  1  1  0  0  0  0
 10  5  1  0  0  0  0
 11  3  1  0  0  0  0
 11 18  1  0  0  0  0
 14 15  1  0  0  0  0
 14  4  1  0  0  0  0
 15 11  1  0  0  0  0
 16  9  1  0  0  0  0
 16 17  1  0  0  0  0
 16  7  1  0  0  0  0
 17  7  1  0  0  0  0
 17  3  1  0  0  0  0
 18 12  1  0  0  0  0
 19 23  1  0  0  0  0
 19 25  1  0  0  0  0
 20 19  2  0  0  0  0
 21 15  1  0  0  0  0
 21 23  2  0  0  0  0
 22 24  2  0  0  0  0
 22 20  1  0  0  0  0
 24 21  1  0  0  0  0
 26 27  2  0  0  0  0
 27 16  1  0  0  0  0
 28 26  1  0  0  0  0
 29 33  1  0  0  0  0
 29 28  1  0  0  0  0
 30 29  1  0  0  0  0
 31 34  1  0  0  0  0
 31 32  1  0  0  0  0
 32 33  1  0  0  0  0
 34 30  1  0  0  0  0
M  END
>  <MODEL>
3

>  <REMARK>
 VINA RESULT:      -9.5      0.787      1.240
  Name = 
  4 active torsions:
  status: ('A' for Active; 'I' for Inactive)
    1  A    between atoms: C_3  and  C_13
    2  A    between atoms: C_11  and  C_13
    3  A    between atoms: C_12  and  C_28
    4  A    between atoms: N_17  and  C_29
                            x       y       z     vdW  Elec       q    Type
                         _______ _______ _______ _____ _____    ______ ____

>  <TORSDO>
F 4

$$$$
=
 OpenBabel10262419123D

 34 40  0  0  1  0  0  0  0  0999 V2000
  185.6030  177.9650  145.5010 C   0  0  2  0  0  3  0  0  0  0  0  0
  185.3030  178.4240  143.1360 C   0  0  2  0  0  3  0  0  0  0  0  0
  187.7220  178.2870  144.0120 C   0  0  1  0  0  3  0  0  0  0  0  0
  188.2990  176.0160  143.1190 O   0  0  0  0  0  0  0  0  0  0  0  0
  183.3550  178.7390  144.6440 C   0  0  0  0  0  2  0  0  0  0  0  0
  184.0370  179.2350  143.3580 C   0  0  0  0  0  2  0  0  0  0  0  0
  186.9730  177.4720  141.6080 C   0  0  1  0  0  3  0  0  0  0  0  0
  186.2500  178.6650  144.3070 C   0  0  2  0  0  3  0  0  0  0  0  0
  188.7860  179.4030  141.4540 C   0  0  0  0  0  1  0  0  0  0  0  0
  184.3160  178.7200  145.8490 C   0  0  0  0  0  2  0  0  0  0  0  0
  188.5650  177.8770  145.2340 C   0  0  2  0  0  3  0  0  0  0  0  0
  186.5420  177.8780  146.6880 C   0  0  0  0  0  2  0  0  0  0  0  0
  185.9810  178.6290  141.7950 C   0  0  0  0  0  2  0  0  0  0  0  0
  189.5790  176.0100  143.7330 C   0  0  0  0  0  2  0  0  0  0  0  0
  189.8290  177.1380  144.7650 C   0  0  2  0  0  3  0  0  0  0  0  0
  188.4360  177.9160  141.4980 C   0  0  1  0  0  0  0  0  0  0  0  0
  187.9290  177.3410  142.8150 C   0  0  1  0  0  0  0  0  0  0  0  0
  187.7640  177.0790  146.2640 C   0  0  0  0  0  2  0  0  0  0  0  0
  191.6410  177.1380  148.0930 C   0  0  0  0  0  0  0  0  0  0  0  0
  192.4670  176.0160  147.9710 C   0  0  0  0  0  3  0  0  0  0  0  0
  190.7640  176.7420  145.8680 C   0  0  0  0  0  0  0  0  0  0  0  0
  192.4400  175.2530  146.8000 C   0  0  0  0  0  3  0  0  0  0  0  0
  190.7900  177.4990  147.0450 C   0  0  0  0  0  3  0  0  0  0  0  0
  191.5890  175.6120  145.7510 C   0  0  0  0  0  3  0  0  0  0  0  0
  191.6670  177.8770  149.2290 F   0  0  0  0  0  0  0  0  0  0  0  0
  190.0650  177.4640  139.8310 C   0  0  0  0  0  3  0  0  0  0  0  0
  189.2710  177.0200  140.7350 N   0  0  0  0  0  0  0  0  0  0  0  0
  190.9170  176.5160  139.0570 C   0  0  0  0  0  2  0  0  0  0  0  0
  190.7530  176.7530  137.5600 C   0  0  0  0  0  3  0  0  0  0  0  0
  189.2920  177.0710  137.2310 C   0  0  0  0  0  2  0  0  0  0  0  0
  188.9780  174.8830  136.2820 O   0  0  0  0  0  0  0  0  0  0  0  0
  190.2020  174.4220  136.7960 C   0  0  0  0  0  2  0  0  0  0  0  0
  191.2420  175.5450  136.7480 C   0  0  0  0  0  2  0  0  0  0  0  0
  188.4600  175.7850  137.2270 C   0  0  0  0  0  2  0  0  0  0  0  0
  1 10  1  1  0  0  0
  1 12  1  0  0  0  0
  2 13  1  6  0  0  0
  2  6  1  0  0  0  0
  2  8  1  0  0  0  0
  3  8  1  0  0  0  0
  3 11  1  0  0  0  0
  4 14  1  0  0  0  0
  5 10  1  0  0  0  0
  6  5  1  0  0  0  0
  7 13  1  0  0  0  0
  7 17  1  0  0  0  0
  8  1  1  0  0  0  0
  9 16  1  0  0  0  0
 11 18  1  0  0  0  0
 14 15  1  0  0  0  0
 15 11  1  0  0  0  0
 15 21  1  0  0  0  0
 16  7  1  0  0  0  0
 16 17  1  0  0  0  0
 17  4  1  0  0  0  0
 17  3  1  0  0  0  0
 18 12  1  0  0  0  0
 19 25  1  0  0  0  0
 20 19  1  0  0  0  0
 21 23  1  0  0  0  0
 22 20  2  0  0  0  0
 23 19  2  0  0  0  0
 24 21  2  0  0  0  0
 24 22  1  0  0  0  0
 26 27  2  0  0  0  0
 27 16  1  0  0  0  0
 28 26  1  0  0  0  0
 29 28  1  0  0  0  0
 30 29  1  0  0  0  0
 31 32  1  0  0  0  0
 31 34  1  0  0  0  0
 33 32  1  0  0  0  0
 33 29  1  0  0  0  0
 34 30  1  0  0  0  0
M  END
>  <MODEL>
4

>  <REMARK>
 VINA RESULT:      -8.3      2.707      5.751
  Name = 
  4 active torsions:
  status: ('A' for Active; 'I' for Inactive)
    1  A    between atoms: C_3  and  C_13
    2  A    between atoms: C_11  and  C_13
    3  A    between atoms: C_12  and  C_28
    4  A    between atoms: N_17  and  C_29
                            x       y       z     vdW  Elec       q    Type
                         _______ _______ _______ _____ _____    ______ ____

>  <TORSDO>
F 4

$$$$
=
 OpenBabel10262419123D

 34 40  0  0  1  0  0  0  0  0999 V2000
  191.9040  176.5340  137.2820 C   0  0  2  0  0  3  0  0  0  0  0  0
  190.1110  176.7300  135.6580 C   0  0  2  0  0  3  0  0  0  0  0  0
  189.4380  176.5200  138.1360 C   0  0  1  0  0  3  0  0  0  0  0  0
  188.8280  178.9170  138.5470 O   0  0  0  0  0  0  0  0  0  0  0  0
  192.3720  176.1170  134.8340 C   0  0  0  0  0  2  0  0  0  0  0  0
  190.8630  175.9470  134.5940 C   0  0  0  0  0  2  0  0  0  0  0  0
  188.1150  177.9730  136.3650 C   0  0  1  0  0  3  0  0  0  0  0  0
  190.4490  176.1450  137.0260 C   0  0  2  0  0  3  0  0  0  0  0  0
  186.5800  176.0710  137.3940 C   0  0  0  0  0  1  0  0  0  0  0  0
  192.7790  175.7740  136.2810 C   0  0  0  0  0  2  0  0  0  0  0  0
  190.0010  176.5540  139.5700 C   0  0  2  0  0  3  0  0  0  0  0  0
  192.3220  176.2620  138.7140 C   0  0  0  0  0  2  0  0  0  0  0  0
  188.6160  176.8550  135.4390 C   0  0  0  0  0  2  0  0  0  0  0  0
  188.5790  178.7030  139.9280 C   0  0  0  0  0  2  0  0  0  0  0  0
  189.0400  177.3320  140.4840 C   0  0  2  0  0  3  0  0  0  0  0  0
  187.0990  177.5080  137.4140 C   0  0  1  0  0  0  0  0  0  0  0  0
  188.5480  177.7380  137.8280 C   0  0  1  0  0  0  0  0  0  0  0  0
  191.4330  177.0870  139.6300 C   0  0  0  0  0  2  0  0  0  0  0  0
  190.3730  178.6340  143.7830 C   0  0  0  0  0  0  0  0  0  0  0  0
  190.1980  177.5270  144.6200 C   0  0  0  0  0  3  0  0  0  0  0  0
  189.4520  177.3790  141.9240 C   0  0  0  0  0  0  0  0  0  0  0  0
  189.6480  176.3470  144.1130 C   0  0  0  0  0  3  0  0  0  0  0  0
  189.9980  178.5600  142.4390 C   0  0  0  0  0  3  0  0  0  0  0  0
  189.2720  176.2730  142.7680 C   0  0  0  0  0  3  0  0  0  0  0  0
  190.9050  179.7780  144.2760 F   0  0  0  0  0  0  0  0  0  0  0  0
  185.1430  178.2440  138.5390 C   0  0  0  0  0  3  0  0  0  0  0  0
  186.1820  178.5350  137.8460 N   0  0  0  0  0  0  0  0  0  0  0  0
  184.2110  179.3240  138.9740 C   0  0  0  0  0  2  0  0  0  0  0  0
  182.8010  179.0480  138.4670 C   0  0  0  0  0  3  0  0  0  0  0  0
  181.7730  179.7720  139.3400 C   0  0  0  0  0  2  0  0  0  0  0  0
  181.1260  177.7040  140.3830 O   0  0  0  0  0  0  0  0  0  0  0  0
  182.2220  177.0190  139.8330 C   0  0  0  0  0  2  0  0  0  0  0  0
  182.5100  177.5410  138.4230 C   0  0  0  0  0  2  0  0  0  0  0  0
  181.5650  179.0120  140.6520 C   0  0  0  0  0  2  0  0  0  0  0  0
  1 10  1  6  0  0  0
  1 12  1  0  0  0  0
  2  6  1  6  0  0  0
  2  8  1  0  0  0  0
  3 11  1  0  0  0  0
  4 14  1  0  0  0  0
  5 10  1  0  0  0  0
  6  5  1  0  0  0  0
  7 16  1  0  0  0  0
  7 17  1  0  0  0  0
  8  1  1  0  0  0  0
  8  3  1  0  0  0  0
  9 16  1  0  0  0  0
 11 18  1  0  0  0  0
 11 15  1  0  0  0  0
 12 18  1  0  0  0  0
 13  2  1  0  0  0  0
 13  7  1  0  0  0  0
 14 15  1  0  0  0  0
 15 21  1  0  0  0  0
 16 17  1  0  0  0  0
 16 27  1  0  0  0  0
 17  3  1  0  0  0  0
 17  4  1  0  0  0  0
 19 25  1  0  0  0  0
 19 20  1  0  0  0  0
 21 23  1  0  0  0  0
 21 24  2  0  0  0  0
 22 20  2  0  0  0  0
 23 19  2  0  0  0  0
 24 22  1  0  0  0  0
 26 28  1  0  0  0  0
 27 26  2  0  0  0  0
 29 28  1  0  0  0  0
 29 30  1  0  0  0  0
 30 34  1  0  0  0  0
 31 34  1  0  0  0  0
 32 31  1  0  0  0  0
 33 29  1  0  0  0  0
 33 32  1  0  0  0  0
M  END
>  <MODEL>
5

>  <REMARK>
 VINA RESULT:      -8.2      3.222      8.019
  Name = 
  4 active torsions:
  status: ('A' for Active; 'I' for Inactive)
    1  A    between atoms: C_3  and  C_13
    2  A    between atoms: C_11  and  C_13
    3  A    between atoms: C_12  and  C_28
    4  A    between atoms: N_17  and  C_29
                            x       y       z     vdW  Elec       q    Type
                         _______ _______ _______ _____ _____    ______ ____

>  <TORSDO>
F 4

$$$$
=
 OpenBabel10262419123D

 34 40  0  0  1  0  0  0  0  0999 V2000
  185.9460  178.7990  145.7680 C   0  0  2  0  0  3  0  0  0  0  0  0
  188.2010  177.9000  145.7320 C   0  0  2  0  0  3  0  0  0  0  0  0
  186.7410  177.5010  143.6470 C   0  0  1  0  0  3  0  0  0  0  0  0
  187.7950  179.2050  142.1400 O   0  0  0  0  0  0  0  0  0  0  0  0
  187.2410  178.5630  147.9250 C   0  0  0  0  0  2  0  0  0  0  0  0
  188.2010  177.5900  147.2210 C   0  0  0  0  0  2  0  0  0  0  0  0
  189.3550  177.9030  143.5650 C   0  0  1  0  0  3  0  0  0  0  0  0
  186.7960  177.6700  145.1850 C   0  0  2  0  0  3  0  0  0  0  0  0
  188.7090  175.5350  142.5600 C   0  0  0  0  0  1  0  0  0  0  0  0
  185.8410  178.5780  147.2800 C   0  0  0  0  0  2  0  0  0  0  0  0
  185.4190  177.9160  142.9750 C   0  0  2  0  0  3  0  0  0  0  0  0
  184.5800  178.8790  145.1140 C   0  0  0  0  0  2  0  0  0  0  0  0
  189.2600  177.1830  144.9180 C   0  0  0  0  0  2  0  0  0  0  0  0
  186.8690  178.9700  141.0900 C   0  0  0  0  0  2  0  0  0  0  0  0
  185.6420  178.1010  141.4660 C   0  0  2  0  0  3  0  0  0  0  0  0
  188.9970  177.0230  142.3630 C   0  0  1  0  0  0  0  0  0  0  0  0
  187.9730  178.0240  142.8860 C   0  0  1  0  0  0  0  0  0  0  0  0
  184.7820  179.1430  143.6310 C   0  0  0  0  0  2  0  0  0  0  0  0
  182.0210  178.1760  140.3530 C   0  0  0  0  0  0  0  0  0  0  0  0
  182.0640  179.0930  139.2970 C   0  0  0  0  0  3  0  0  0  0  0  0
  184.4070  178.4460  140.6910 C   0  0  0  0  0  0  0  0  0  0  0  0
  183.2760  179.6900  138.9390 C   0  0  0  0  0  3  0  0  0  0  0  0
  183.1890  177.8560  141.0490 C   0  0  0  0  0  3  0  0  0  0  0  0
  184.4450  179.3700  139.6350 C   0  0  0  0  0  3  0  0  0  0  0  0
  180.8460  177.5990  140.7000 F   0  0  0  0  0  0  0  0  0  0  0  0
  189.0920  177.1770  139.9960 C   0  0  0  0  0  3  0  0  0  0  0  0
  189.6400  177.4130  141.1310 N   0  0  0  0  0  0  0  0  0  0  0  0
  189.7780  177.5900  138.7380 C   0  0  0  0  0  2  0  0  0  0  0  0
  190.9650  176.6790  138.4530 C   0  0  0  0  0  3  0  0  0  0  0  0
  191.5780  177.0160  137.0910 C   0  0  0  0  0  2  0  0  0  0  0  0
  190.6250  175.0340  136.1160 O   0  0  0  0  0  0  0  0  0  0  0  0
  189.8110  174.8050  137.2380 C   0  0  0  0  0  2  0  0  0  0  0  0
  190.5590  175.1990  138.5140 C   0  0  0  0  0  2  0  0  0  0  0  0
  190.7200  176.4280  135.9670 C   0  0  0  0  0  2  0  0  0  0  0  0
  1 12  1  6  0  0  0
  1 10  1  0  0  0  0
  2 13  1  6  0  0  0
  2  6  1  0  0  0  0
  3  8  1  0  0  0  0
  4 17  1  0  0  0  0
  6  5  1  0  0  0  0
  7 13  1  0  0  0  0
  8  2  1  0  0  0  0
  8  1  1  0  0  0  0
 10  5  1  0  0  0  0
 11 18  1  0  0  0  0
 11  3  1  0  0  0  0
 14 15  1  0  0  0  0
 14  4  1  0  0  0  0
 15 11  1  0  0  0  0
 16  9  1  0  0  0  0
 16 17  1  0  0  0  0
 16  7  1  0  0  0  0
 17  7  1  0  0  0  0
 17  3  1  0  0  0  0
 18 12  1  0  0  0  0
 19 25  1  0  0  0  0
 19 23  1  0  0  0  0
 20 19  2  0  0  0  0
 21 23  2  0  0  0  0
 21 15  1  0  0  0  0
 22 20  1  0  0  0  0
 22 24  2  0  0  0  0
 24 21  1  0  0  0  0
 26 27  2  0  0  0  0
 27 16  1  0  0  0  0
 28 26  1  0  0  0  0
 29 33  1  0  0  0  0
 29 28  1  0  0  0  0
 30 29  1  0  0  0  0
 31 32  1  0  0  0  0
 32 33  1  0  0  0  0
 34 31  1  0  0  0  0
 34 30  1  0  0  0  0
M  END
>  <MODEL>
6

>  <REMARK>
 VINA RESULT:      -8.1      1.620      2.218
  Name = 
  4 active torsions:
  status: ('A' for Active; 'I' for Inactive)
    1  A    between atoms: C_3  and  C_13
    2  A    between atoms: C_11  and  C_13
    3  A    between atoms: C_12  and  C_28
    4  A    between atoms: N_17  and  C_29
                            x       y       z     vdW  Elec       q    Type
                         _______ _______ _______ _____ _____    ______ ____

>  <TORSDO>
F 4

$$$$
=
 OpenBabel10262419123D

 34 40  0  0  1  0  0  0  0  0999 V2000
  185.3650  177.9440  145.4350 C   0  0  2  0  0  3  0  0  0  0  0  0
  184.9460  178.7550  143.1860 C   0  0  2  0  0  3  0  0  0  0  0  0
  187.4060  178.4700  143.8950 C   0  0  1  0  0  3  0  0  0  0  0  0
  187.8980  176.3550  142.6420 O   0  0  0  0  0  0  0  0  0  0  0  0
  183.0870  178.8550  144.8300 C   0  0  0  0  0  2  0  0  0  0  0  0
  183.7070  179.5340  143.5970 C   0  0  0  0  0  2  0  0  0  0  0  0
  186.5160  178.0320  141.4420 C   0  0  1  0  0  3  0  0  0  0  0  0
  185.9590  178.8110  144.3250 C   0  0  2  0  0  3  0  0  0  0  0  0
  188.3480  179.9500  141.4780 C   0  0  0  0  0  1  0  0  0  0  0  0
  184.1110  178.6470  145.9630 C   0  0  0  0  0  2  0  0  0  0  0  0
  188.3070  177.8740  144.9930 C   0  0  2  0  0  3  0  0  0  0  0  0
  186.3660  177.6720  146.5410 C   0  0  0  0  0  2  0  0  0  0  0  0
  185.5540  179.1550  141.8550 C   0  0  0  0  0  2  0  0  0  0  0  0
  189.2090  176.2460  143.1760 C   0  0  0  0  0  2  0  0  0  0  0  0
  189.5320  177.2040  144.3500 C   0  0  2  0  0  3  0  0  0  0  0  0
  187.9780  178.4770  141.3180 C   0  0  1  0  0  0  0  0  0  0  0  0
  187.5330  177.7130  142.5600 C   0  0  1  0  0  0  0  0  0  0  0  0
  187.5500  176.9360  145.9350 C   0  0  0  0  0  2  0  0  0  0  0  0
  192.2910  175.0590  145.8140 C   0  0  0  0  0  0  0  0  0  0  0  0
  192.4070  175.5820  147.1060 C   0  0  0  0  0  3  0  0  0  0  0  0
  190.5190  176.6400  145.3270 C   0  0  0  0  0  0  0  0  0  0  0  0
  191.5830  176.6360  147.5090 C   0  0  0  0  0  3  0  0  0  0  0  0
  191.3510  175.5890  144.9260 C   0  0  0  0  0  3  0  0  0  0  0  0
  190.6430  177.1680  146.6220 C   0  0  0  0  0  3  0  0  0  0  0  0
  193.0900  174.0370  145.4230 F   0  0  0  0  0  0  0  0  0  0  0  0
  189.1800  178.2130  139.2880 C   0  0  0  0  0  3  0  0  0  0  0  0
  188.7560  177.6990  140.3840 N   0  0  0  0  0  0  0  0  0  0  0  0
  189.9820  177.3870  138.3400 C   0  0  0  0  0  2  0  0  0  0  0  0
  190.7620  176.3170  139.0940 C   0  0  0  0  0  3  0  0  0  0  0  0
  191.6850  176.9640  140.1300 C   0  0  0  0  0  2  0  0  0  0  0  0
  193.6140  176.5180  138.7650 O   0  0  0  0  0  0  0  0  0  0  0  0
  192.8210  176.1680  137.6590 C   0  0  0  0  0  2  0  0  0  0  0  0
  191.5650  175.4300  138.1310 C   0  0  0  0  0  2  0  0  0  0  0  0
  192.9280  177.5390  139.4440 C   0  0  0  0  0  2  0  0  0  0  0  0
  1 10  1  1  0  0  0
  1 12  1  0  0  0  0
  2 13  1  6  0  0  0
  2  6  1  0  0  0  0
  2  8  1  0  0  0  0
  3  8  1  0  0  0  0
  3 11  1  0  0  0  0
  4 14  1  0  0  0  0
  5 10  1  0  0  0  0
  6  5  1  0  0  0  0
  7 13  1  0  0  0  0
  7 17  1  0  0  0  0
  8  1  1  0  0  0  0
 11 18  1  0  0  0  0
 14 15  1  0  0  0  0
 15 11  1  0  0  0  0
 15 21  1  0  0  0  0
 16  7  1  0  0  0  0
 16  9  1  0  0  0  0
 16 17  1  0  0  0  0
 17  4  1  0  0  0  0
 17  3  1  0  0  0  0
 18 12  1  0  0  0  0
 19 20  1  0  0  0  0
 20 22  2  0  0  0  0
 21 24  2  0  0  0  0
 23 21  1  0  0  0  0
 23 19  2  0  0  0  0
 24 22  1  0  0  0  0
 25 19  1  0  0  0  0
 26 27  2  0  0  0  0
 27 16  1  0  0  0  0
 28 29  1  0  0  0  0
 28 26  1  0  0  0  0
 29 30  1  0  0  0  0
 31 34  1  0  0  0  0
 32 33  1  0  0  0  0
 32 31  1  0  0  0  0
 33 29  1  0  0  0  0
 34 30  1  0  0  0  0
M  END
>  <MODEL>
7

>  <REMARK>
 VINA RESULT:      -8.1      3.047      6.045
  Name = 
  4 active torsions:
  status: ('A' for Active; 'I' for Inactive)
    1  A    between atoms: C_3  and  C_13
    2  A    between atoms: C_11  and  C_13
    3  A    between atoms: C_12  and  C_28
    4  A    between atoms: N_17  and  C_29
                            x       y       z     vdW  Elec       q    Type
                         _______ _______ _______ _____ _____    ______ ____

>  <TORSDO>
F 4

$$$$
=
 OpenBabel10262419123D

 34 40  0  0  1  0  0  0  0  0999 V2000
  189.4740  177.2980  146.5280 C   0  0  2  0  0  3  0  0  0  0  0  0
  187.1320  177.8740  146.8060 C   0  0  2  0  0  3  0  0  0  0  0  0
  188.1900  178.3230  144.5000 C   0  0  1  0  0  3  0  0  0  0  0  0
  187.1840  176.3890  143.2610 O   0  0  0  0  0  0  0  0  0  0  0  0
  188.4960  177.5030  148.8480 C   0  0  0  0  0  2  0  0  0  0  0  0
  187.3090  178.2840  148.2590 C   0  0  0  0  0  2  0  0  0  0  0  0
  185.6800  177.5610  144.8510 C   0  0  1  0  0  3  0  0  0  0  0  0
  188.3910  178.2550  146.0330 C   0  0  2  0  0  3  0  0  0  0  0  0
  185.8150  179.9190  143.6440 C   0  0  0  0  0  1  0  0  0  0  0  0
  189.7700  177.6360  147.9920 C   0  0  0  0  0  2  0  0  0  0  0  0
  189.4430  178.0480  143.6480 C   0  0  2  0  0  3  0  0  0  0  0  0
  190.7240  177.3610  145.6720 C   0  0  0  0  0  2  0  0  0  0  0  0
  185.8700  178.3800  146.1360 C   0  0  0  0  0  2  0  0  0  0  0  0
  187.8980  176.6760  142.0680 C   0  0  0  0  0  2  0  0  0  0  0  0
  189.0270  177.7290  142.2030 C   0  0  2  0  0  3  0  0  0  0  0  0
  185.7220  178.3960  143.5660 C   0  0  1  0  0  0  0  0  0  0  0  0
  186.9480  177.5840  143.9680 C   0  0  1  0  0  0  0  0  0  0  0  0
  190.3440  176.9690  144.2530 C   0  0  0  0  0  2  0  0  0  0  0  0
  190.9500  176.9220  139.0400 C   0  0  0  0  0  0  0  0  0  0  0  0
  192.2730  177.1130  139.4510 C   0  0  0  0  0  3  0  0  0  0  0  0
  190.1690  177.5040  141.2600 C   0  0  0  0  0  0  0  0  0  0  0  0
  192.5470  177.5030  140.7650 C   0  0  0  0  0  3  0  0  0  0  0  0
  189.9010  177.1200  139.9420 C   0  0  0  0  0  3  0  0  0  0  0  0
  191.4980  177.7010  141.6680 C   0  0  0  0  0  3  0  0  0  0  0  0
  190.6850  176.5450  137.7660 F   0  0  0  0  0  0  0  0  0  0  0  0
  183.9800  178.4740  141.9550 C   0  0  0  0  0  3  0  0  0  0  0  0
  184.9660  177.8370  142.4720 N   0  0  0  0  0  0  0  0  0  0  0  0
  183.2150  177.8740  140.8240 C   0  0  0  0  0  2  0  0  0  0  0  0
  183.2060  178.8160  139.6270 C   0  0  0  0  0  3  0  0  0  0  0  0
  182.6050  178.1160  138.4060 C   0  0  0  0  0  2  0  0  0  0  0  0
  184.7800  177.8790  137.4070 O   0  0  0  0  0  0  0  0  0  0  0  0
  185.4290  178.2530  138.5970 C   0  0  0  0  0  2  0  0  0  0  0  0
  184.6180  179.3340  139.3150 C   0  0  0  0  0  2  0  0  0  0  0  0
  183.6310  177.1640  137.7850 C   0  0  0  0  0  2  0  0  0  0  0  0
  1 12  1  6  0  0  0
  1 10  1  0  0  0  0
  2 13  1  6  0  0  0
  2  6  1  0  0  0  0
  3  8  1  0  0  0  0
  4 17  1  0  0  0  0
  6  5  1  0  0  0  0
  7 13  1  0  0  0  0
  8  1  1  0  0  0  0
  8  2  1  0  0  0  0
 10  5  1  0  0  0  0
 11 18  1  0  0  0  0
 11  3  1  0  0  0  0
 14 15  1  0  0  0  0
 14  4  1  0  0  0  0
 15 11  1  0  0  0  0
 16  9  1  0  0  0  0
 16 17  1  0  0  0  0
 16  7  1  0  0  0  0
 17  3  1  0  0  0  0
 17  7  1  0  0  0  0
 18 12  1  0  0  0  0
 19 20  2  0  0  0  0
 19 23  1  0  0  0  0
 20 22  1  0  0  0  0
 21 24  1  0  0  0  0
 21 15  1  0  0  0  0
 22 24  2  0  0  0  0
 23 21  2  0  0  0  0
 25 19  1  0  0  0  0
 26 27  2  0  0  0  0
 27 16  1  0  0  0  0
 28 26  1  0  0  0  0
 29 28  1  0  0  0  0
 30 29  1  0  0  0  0
 31 34  1  0  0  0  0
 31 32  1  0  0  0  0
 32 33  1  0  0  0  0
 33 29  1  0  0  0  0
 34 30  1  0  0  0  0
M  END
>  <MODEL>
8

>  <REMARK>
 VINA RESULT:      -8.0      2.671      5.459
  Name = 
  4 active torsions:
  status: ('A' for Active; 'I' for Inactive)
    1  A    between atoms: C_3  and  C_13
    2  A    between atoms: C_11  and  C_13
    3  A    between atoms: C_12  and  C_28
    4  A    between atoms: N_17  and  C_29
                            x       y       z     vdW  Elec       q    Type
                         _______ _______ _______ _____ _____    ______ ____

>  <TORSDO>
F 4

$$$$
=
 OpenBabel10262419123D

 34 40  0  0  1  0  0  0  0  0999 V2000
  192.6880  176.7530  137.9490 C   0  0  2  0  0  3  0  0  0  0  0  0
  191.2270  176.3950  136.0440 C   0  0  2  0  0  3  0  0  0  0  0  0
  190.1640  176.2550  138.3860 C   0  0  1  0  0  3  0  0  0  0  0  0
  189.0040  178.4780  138.3860 O   0  0  0  0  0  0  0  0  0  0  0  0
  193.6800  176.2410  135.6820 C   0  0  0  0  0  2  0  0  0  0  0  0
  192.3100  175.7130  135.2220 C   0  0  0  0  0  2  0  0  0  0  0  0
  188.9210  177.2100  136.2540 C   0  0  1  0  0  3  0  0  0  0  0  0
  191.4190  176.0230  137.5110 C   0  0  2  0  0  3  0  0  0  0  0  0
  187.6500  175.1060  137.2530 C   0  0  0  0  0  1  0  0  0  0  0  0
  193.8720  176.1270  137.2060 C   0  0  0  0  0  2  0  0  0  0  0  0
  190.4300  176.5410  139.8760 C   0  0  2  0  0  3  0  0  0  0  0  0
  192.8800  176.7100  139.4520 C   0  0  0  0  0  2  0  0  0  0  0  0
  189.8070  176.1570  135.5710 C   0  0  0  0  0  2  0  0  0  0  0  0
  188.5530  178.3340  139.7240 C   0  0  0  0  0  2  0  0  0  0  0  0
  189.1770  177.1580  140.5160 C   0  0  2  0  0  3  0  0  0  0  0  0
  187.8470  176.6200  137.1750 C   0  0  1  0  0  0  0  0  0  0  0  0
  189.1130  177.2080  137.7870 C   0  0  1  0  0  0  0  0  0  0  0  0
  191.6840  177.3890  140.1000 C   0  0  0  0  0  2  0  0  0  0  0  0
  188.3830  177.1900  144.2210 C   0  0  0  0  0  0  0  0  0  0  0  0
  189.4930  177.8610  144.7470 C   0  0  0  0  0  3  0  0  0  0  0  0
  189.2950  177.4230  141.9860 C   0  0  0  0  0  0  0  0  0  0  0  0
  190.5060  178.3100  143.8950 C   0  0  0  0  0  3  0  0  0  0  0  0
  188.2860  176.9700  142.8440 C   0  0  0  0  0  3  0  0  0  0  0  0
  190.4100  178.0890  142.5180 C   0  0  0  0  0  3  0  0  0  0  0  0
  187.4020  176.7540  145.0470 F   0  0  0  0  0  0  0  0  0  0  0  0
  185.5050  176.9240  137.4130 C   0  0  0  0  0  3  0  0  0  0  0  0
  186.6730  177.4460  137.3200 N   0  0  0  0  0  0  0  0  0  0  0  0
  184.3070  177.8000  137.5620 C   0  0  0  0  0  2  0  0  0  0  0  0
  184.1550  178.2530  139.0090 C   0  0  0  0  0  3  0  0  0  0  0  0
  183.0720  177.4290  139.7110 C   0  0  0  0  0  2  0  0  0  0  0  0
  181.5400  179.2820  139.6300 O   0  0  0  0  0  0  0  0  0  0  0  0
  182.3660  179.9990  138.7470 C   0  0  0  0  0  2  0  0  0  0  0  0
  183.8370  179.7520  139.0940 C   0  0  0  0  0  2  0  0  0  0  0  0
  181.6830  177.9240  139.2990 C   0  0  0  0  0  2  0  0  0  0  0  0
  1 10  1  6  0  0  0
  1 12  1  0  0  0  0
  2  6  1  6  0  0  0
  2  8  1  0  0  0  0
  3 11  1  0  0  0  0
  4 14  1  0  0  0  0
  5 10  1  0  0  0  0
  6  5  1  0  0  0  0
  7 16  1  0  0  0  0
  7 17  1  0  0  0  0
  8  1  1  0  0  0  0
  8  3  1  0  0  0  0
 11 18  1  0  0  0  0
 11 15  1  0  0  0  0
 12 18  1  0  0  0  0
 13  2  1  0  0  0  0
 13  7  1  0  0  0  0
 14 15  1  0  0  0  0
 15 21  1  0  0  0  0
 16  9  1  0  0  0  0
 16 27  1  0  0  0  0
 16 17  1  0  0  0  0
 17  4  1  0  0  0  0
 17  3  1  0  0  0  0
 19 20  1  0  0  0  0
 19 25  1  0  0  0  0
 21 24  2  0  0  0  0
 21 23  1  0  0  0  0
 22 20  2  0  0  0  0
 23 19  2  0  0  0  0
 24 22  1  0  0  0  0
 26 28  1  0  0  0  0
 27 26  2  0  0  0  0
 28 29  1  0  0  0  0
 29 33  1  0  0  0  0
 29 30  1  0  0  0  0
 32 33  1  0  0  0  0
 32 31  1  0  0  0  0
 34 31  1  0  0  0  0
 34 30  1  0  0  0  0
M  END
>  <MODEL>
9

>  <REMARK>
 VINA RESULT:      -7.9      2.897      7.615
  Name = 
  4 active torsions:
  status: ('A' for Active; 'I' for Inactive)
    1  A    between atoms: C_3  and  C_13
    2  A    between atoms: C_11  and  C_13
    3  A    between atoms: C_12  and  C_28
    4  A    between atoms: N_17  and  C_29
                            x       y       z     vdW  Elec       q    Type
                         _______ _______ _______ _____ _____    ______ ____

>  <TORSDO>
F 4

$$$$
