=
 OpenBabel10262421233D

 32 37  0  0  1  0  0  0  0  0999 V2000
  183.0630  178.8340  144.7180 C   0  0  0  0  0  3  0  0  0  0  0  0
  187.2050  178.6120  141.6960 C   0  0  2  0  0  3  0  0  0  0  0  0
  190.8080  176.8890  144.7780 C   0  0  0  0  0  2  0  0  0  0  0  0
  191.4960  176.1840  143.6180 C   0  0  0  0  0  2  0  0  0  0  0  0
  187.6610  177.7640  139.2470 C   0  0  0  0  0  0  0  0  0  0  0  0
  186.5830  178.0840  138.4100 C   0  0  0  0  0  0  0  0  0  0  0  0
  184.8210  178.6570  142.5430 C   0  0  0  0  0  0  0  0  0  0  0  0
  186.7700  178.3440  144.1310 C   0  0  0  0  0  2  0  0  0  0  0  0
  188.4310  176.1410  137.6470 C   0  0  0  0  0  0  0  0  0  0  0  0
  184.4250  178.6120  144.9380 C   0  0  0  0  0  3  0  0  0  0  0  0
  189.3110  176.9700  144.5090 C   0  0  0  0  0  2  0  0  0  0  0  0
  187.5320  177.7640  142.9320 C   0  0  2  0  0  3  0  0  0  0  0  0
  189.0290  177.7530  143.2190 C   0  0  2  0  0  3  0  0  0  0  0  0
  189.5570  177.8170  140.7280 C   0  0  1  0  0  3  0  0  0  0  0  0
  187.3330  176.3910  136.8800 N   0  0  0  0  0  0  0  0  0  0  0  0
  185.3050  178.5060  143.8580 C   0  0  0  0  0  0  0  0  0  0  0  0
  186.4220  177.3490  137.2250 C   0  0  0  0  0  3  0  0  0  0  0  0
  183.4560  178.8690  142.3290 C   0  0  0  0  0  3  0  0  0  0  0  0
  182.5770  178.9650  143.4130 C   0  0  0  0  0  0  0  0  0  0  0  0
  191.2440  176.9550  142.3270 C   0  0  0  0  0  2  0  0  0  0  0  0
  189.7430  177.0750  142.0500 C   0  0  1  0  0  3  0  0  0  0  0  0
  189.7560  176.8580  139.6430 N   0  0  0  0  0  2  0  0  0  0  0  0
  185.7180  178.4850  141.3530 C   0  0  0  0  0  2  0  0  0  0  0  0
  185.7480  179.1180  138.6770 F   0  0  0  0  0  0  0  0  0  0  0  0
  189.4400  175.1430  137.1990 C   0  0  0  0  0  1  0  0  0  0  0  0
  188.1610  178.4720  140.4740 C   0  0  2  0  0  3  0  0  0  0  0  0
  188.5980  176.8580  138.8330 C   0  0  0  0  0  0  0  0  0  0  0  0
  181.1190  179.1760  143.1750 C   0  0  0  0  0  2  0  0  0  0  0  0
  180.7820  179.0740  141.6920 C   0  0  0  0  0  2  0  0  0  0  0  0
  180.1270  177.7680  141.3720 C   0  0  0  0  0  0  0  0  0  0  0  0
  179.3010  177.2910  142.1320 O   0  0  0  0  0  0  0  0  0  0  0  0
  180.4990  177.0380  140.1280 C   0  0  0  0  0  1  0  0  0  0  0  0
  1 10  1  0  0  0  0
  2 23  1  6  0  0  0
  2 12  1  0  0  0  0
  4  3  1  0  0  0  0
  6 24  1  0  0  0  0
  6  5  2  0  0  0  0
  7 16  1  0  0  0  0
  9 27  2  0  0  0  0
 11  3  1  0  0  0  0
 12 13  1  0  0  0  0
 12  8  1  1  0  0  0
 13 11  1  1  0  0  0
 14 22  1  6  0  0  0
 14 21  1  0  0  0  0
 15 17  2  0  0  0  0
 15  9  1  0  0  0  0
 16  8  1  0  0  0  0
 16 10  2  0  0  0  0
 17  6  1  0  0  0  0
 18  7  2  0  0  0  0
 18 19  1  0  0  0  0
 19  1  2  0  0  0  0
 20  4  1  0  0  0  0
 21 20  1  1  0  0  0
 21 13  1  0  0  0  0
 23  7  1  0  0  0  0
 25  9  1  0  0  0  0
 26  5  1  6  0  0  0
 26 14  1  0  0  0  0
 26  2  1  0  0  0  0
 27  5  1  0  0  0  0
 27 22  1  0  0  0  0
 28 19  1  0  0  0  0
 29 28  1  0  0  0  0
 30 29  1  0  0  0  0
 30 31  2  0  0  0  0
 32 30  1  0  0  0  0
M  END
>  <MODEL>
1

>  <REMARK>
 VINA RESULT:     -10.0      0.000      0.000
  Name = 
  3 active torsions:
  status: ('A' for Active; 'I' for Inactive)
    1  A    between atoms: C_1  and  C_10
    2  A    between atoms: C_10  and  C_19
    3  A    between atoms: C_19  and  C_24
                            x       y       z     vdW  Elec       q    Type
                         _______ _______ _______ _____ _____    ______ ____

>  <TORSDO>
F 3

$$$$
=
 OpenBabel10262421233D

 32 37  0  0  1  0  0  0  0  0999 V2000
  189.8490  177.1560  144.8620 C   0  0  0  0  0  3  0  0  0  0  0  0
  188.5340  178.2100  140.0150 C   0  0  2  0  0  3  0  0  0  0  0  0
  192.2020  176.0450  137.3120 C   0  0  0  0  0  2  0  0  0  0  0  0
  191.2320  175.7700  136.1730 C   0  0  0  0  0  2  0  0  0  0  0  0
  186.2820  178.1430  138.6570 C   0  0  0  0  0  0  0  0  0  0  0  0
  185.2150  178.5800  139.4550 C   0  0  0  0  0  0  0  0  0  0  0  0
  188.4640  177.7780  142.5070 C   0  0  0  0  0  0  0  0  0  0  0  0
  190.5210  177.2190  141.1380 C   0  0  0  0  0  2  0  0  0  0  0  0
  184.7290  177.1260  137.1260 C   0  0  0  0  0  0  0  0  0  0  0  0
  190.4810  177.0150  143.6240 C   0  0  0  0  0  3  0  0  0  0  0  0
  191.4460  176.0510  138.6340 C   0  0  0  0  0  2  0  0  0  0  0  0
  189.5710  177.0820  139.9410 C   0  0  2  0  0  3  0  0  0  0  0  0
  190.3600  177.1370  138.6370 C   0  0  2  0  0  3  0  0  0  0  0  0
  188.3080  177.9590  137.3710 C   0  0  1  0  0  3  0  0  0  0  0  0
  183.7030  177.4750  137.9520 N   0  0  0  0  0  0  0  0  0  0  0  0
  189.7910  177.3070  142.4440 C   0  0  0  0  0  0  0  0  0  0  0  0
  183.9150  178.2000  139.0900 C   0  0  0  0  0  3  0  0  0  0  0  0
  187.8350  177.9060  143.7490 C   0  0  0  0  0  3  0  0  0  0  0  0
  188.5260  177.6040  144.9270 C   0  0  0  0  0  0  0  0  0  0  0  0
  190.1540  176.8470  136.1450 C   0  0  0  0  0  2  0  0  0  0  0  0
  189.3980  176.8940  137.4750 C   0  0  1  0  0  3  0  0  0  0  0  0
  187.1740  177.3720  136.6620 N   0  0  0  0  0  2  0  0  0  0  0  0
  187.6660  178.0400  141.2650 C   0  0  0  0  0  2  0  0  0  0  0  0
  185.4020  179.4090  140.5110 F   0  0  0  0  0  0  0  0  0  0  0  0
  184.4490  176.4010  135.8570 C   0  0  0  0  0  1  0  0  0  0  0  0
  187.7350  178.5180  138.7140 C   0  0  2  0  0  3  0  0  0  0  0  0
  186.0290  177.4890  137.4820 C   0  0  0  0  0  0  0  0  0  0  0  0
  187.8420  177.7300  146.2460 C   0  0  0  0  0  2  0  0  0  0  0  0
  186.3490  177.4460  146.1230 C   0  0  0  0  0  2  0  0  0  0  0  0
  185.5470  178.7050  146.2090 C   0  0  0  0  0  0  0  0  0  0  0  0
  185.6960  179.4670  147.1500 O   0  0  0  0  0  0  0  0  0  0  0  0
  184.5470  179.0210  145.1510 C   0  0  0  0  0  1  0  0  0  0  0  0
  1 19  1  0  0  0  0
  2 23  1  1  0  0  0
  3 11  1  0  0  0  0
  4  3  1  0  0  0  0
  5  6  1  0  0  0  0
  6 24  1  0  0  0  0
  7 18  1  0  0  0  0
  8 16  1  0  0  0  0
  9 27  1  0  0  0  0
  9 15  2  0  0  0  0
 10  1  2  0  0  0  0
 12  2  1  0  0  0  0
 12  8  1  1  0  0  0
 13 11  1  1  0  0  0
 13 12  1  0  0  0  0
 14 22  1  6  0  0  0
 14 21  1  0  0  0  0
 14 26  1  0  0  0  0
 15 17  1  0  0  0  0
 16  7  2  0  0  0  0
 16 10  1  0  0  0  0
 17  6  2  0  0  0  0
 18 19  2  0  0  0  0
 19 28  1  0  0  0  0
 20  4  1  0  0  0  0
 21 20  1  6  0  0  0
 21 13  1  0  0  0  0
 22 27  1  0  0  0  0
 23  7  1  0  0  0  0
 25  9  1  0  0  0  0
 26  5  1  1  0  0  0
 26  2  1  0  0  0  0
 27  5  2  0  0  0  0
 29 30  1  0  0  0  0
 29 28  1  0  0  0  0
 30 31  2  0  0  0  0
 32 30  1  0  0  0  0
M  END
>  <MODEL>
2

>  <REMARK>
 VINA RESULT:      -9.7      2.556      5.222
  Name = 
  3 active torsions:
  status: ('A' for Active; 'I' for Inactive)
    1  A    between atoms: C_1  and  C_10
    2  A    between atoms: C_10  and  C_19
    3  A    between atoms: C_19  and  C_24
                            x       y       z     vdW  Elec       q    Type
                         _______ _______ _______ _____ _____    ______ ____

>  <TORSDO>
F 3

$$$$
=
 OpenBabel10262421233D

 32 37  0  0  1  0  0  0  0  0999 V2000
  181.8520  178.7790  143.3630 C   0  0  0  0  0  3  0  0  0  0  0  0
  186.5390  178.6950  141.2760 C   0  0  2  0  0  3  0  0  0  0  0  0
  189.4970  177.2700  145.1050 C   0  0  0  0  0  2  0  0  0  0  0  0
  190.4450  176.5690  144.1420 C   0  0  0  0  0  2  0  0  0  0  0  0
  187.5360  177.8000  139.0110 C   0  0  0  0  0  0  0  0  0  0  0  0
  186.6420  178.0330  137.9560 C   0  0  0  0  0  0  0  0  0  0  0  0
  184.0310  178.6330  141.6080 C   0  0  0  0  0  0  0  0  0  0  0  0
  185.6180  178.4780  143.5770 C   0  0  0  0  0  2  0  0  0  0  0  0
  188.7010  176.1730  137.6740 C   0  0  0  0  0  0  0  0  0  0  0  0
  183.1460  178.6400  143.8690 C   0  0  0  0  0  3  0  0  0  0  0  0
  188.0870  177.2590  144.5290 C   0  0  0  0  0  2  0  0  0  0  0  0
  186.6400  177.9050  142.5860 C   0  0  2  0  0  3  0  0  0  0  0  0
  188.0440  177.9860  143.1770 C   0  0  2  0  0  3  0  0  0  0  0  0
  189.0770  178.0030  140.8490 C   0  0  1  0  0  3  0  0  0  0  0  0
  187.7760  176.3390  136.6860 N   0  0  0  0  0  0  0  0  0  0  0  0
  184.2370  178.5500  142.9990 C   0  0  0  0  0  0  0  0  0  0  0  0
  186.7680  177.2550  136.7960 C   0  0  0  0  0  3  0  0  0  0  0  0
  182.7320  178.7620  141.1080 C   0  0  0  0  0  3  0  0  0  0  0  0
  181.6420  178.8430  141.9810 C   0  0  0  0  0  0  0  0  0  0  0  0
  190.4320  177.2850  142.7960 C   0  0  0  0  0  2  0  0  0  0  0  0
  189.0180  177.3130  142.2100 C   0  0  1  0  0  3  0  0  0  0  0  0
  189.5430  177.0240  139.8690 N   0  0  0  0  0  2  0  0  0  0  0  0
  185.1630  178.4750  140.6380 C   0  0  0  0  0  2  0  0  0  0  0  0
  185.7220  179.0270  138.0020 F   0  0  0  0  0  0  0  0  0  0  0  0
  189.8280  175.2200  137.4860 C   0  0  0  0  0  1  0  0  0  0  0  0
  187.7340  178.5710  140.2840 C   0  0  2  0  0  3  0  0  0  0  0  0
  188.5820  176.9340  138.8380 C   0  0  0  0  0  0  0  0  0  0  0  0
  180.2580  178.9650  141.4380 C   0  0  0  0  0  2  0  0  0  0  0  0
  179.9010  180.4210  141.1620 C   0  0  0  0  0  2  0  0  0  0  0  0
  179.9430  180.7250  139.6990 C   0  0  0  0  0  0  0  0  0  0  0  0
  180.5380  181.7090  139.2910 O   0  0  0  0  0  0  0  0  0  0  0  0
  179.2390  179.8320  138.7360 C   0  0  0  0  0  1  0  0  0  0  0  0
  1 10  1  0  0  0  0
  2 23  1  6  0  0  0
  2 12  1  0  0  0  0
  4  3  1  0  0  0  0
  6 24  1  0  0  0  0
  6  5  2  0  0  0  0
  7 16  1  0  0  0  0
  9 27  2  0  0  0  0
 11  3  1  0  0  0  0
 12 13  1  0  0  0  0
 12  8  1  1  0  0  0
 13 11  1  1  0  0  0
 14 22  1  6  0  0  0
 14 21  1  0  0  0  0
 15 17  2  0  0  0  0
 15  9  1  0  0  0  0
 16  8  1  0  0  0  0
 16 10  2  0  0  0  0
 17  6  1  0  0  0  0
 18  7  2  0  0  0  0
 18 19  1  0  0  0  0
 19  1  2  0  0  0  0
 20  4  1  0  0  0  0
 21 20  1  1  0  0  0
 21 13  1  0  0  0  0
 23  7  1  0  0  0  0
 25  9  1  0  0  0  0
 26  5  1  6  0  0  0
 26 14  1  0  0  0  0
 26  2  1  0  0  0  0
 27  5  1  0  0  0  0
 27 22  1  0  0  0  0
 28 19  1  0  0  0  0
 29 28  1  0  0  0  0
 30 29  1  0  0  0  0
 31 30  2  0  0  0  0
 32 30  1  0  0  0  0
M  END
>  <MODEL>
3

>  <REMARK>
 VINA RESULT:      -9.2      1.438      1.650
  Name = 
  3 active torsions:
  status: ('A' for Active; 'I' for Inactive)
    1  A    between atoms: C_1  and  C_10
    2  A    between atoms: C_10  and  C_19
    3  A    between atoms: C_19  and  C_24
                            x       y       z     vdW  Elec       q    Type
                         _______ _______ _______ _____ _____    ______ ____

>  <TORSDO>
F 3

$$$$
=
 OpenBabel10262421233D

 32 37  0  0  1  0  0  0  0  0999 V2000
  191.2610  176.6170  144.8530 C   0  0  0  0  0  3  0  0  0  0  0  0
  188.8370  178.2580  140.6380 C   0  0  2  0  0  3  0  0  0  0  0  0
  191.4000  176.0640  136.8880 C   0  0  0  0  0  2  0  0  0  0  0  0
  190.1390  175.9890  136.0390 C   0  0  0  0  0  2  0  0  0  0  0  0
  186.3120  178.5210  139.9440 C   0  0  0  0  0  0  0  0  0  0  0  0
  185.5490  178.9670  141.0330 C   0  0  0  0  0  0  0  0  0  0  0  0
  189.3800  177.5870  143.0170 C   0  0  0  0  0  0  0  0  0  0  0  0
  190.9280  176.9930  141.1010 C   0  0  0  0  0  2  0  0  0  0  0  0
  184.3080  177.7980  138.8260 C   0  0  0  0  0  0  0  0  0  0  0  0
  191.5240  176.5460  143.4830 C   0  0  0  0  0  3  0  0  0  0  0  0
  191.0250  176.0040  138.3630 C   0  0  0  0  0  2  0  0  0  0  0  0
  189.6870  177.0580  140.2020 C   0  0  2  0  0  3  0  0  0  0  0  0
  190.1050  177.1740  138.7400 C   0  0  2  0  0  3  0  0  0  0  0  0
  187.8950  178.2910  138.1450 C   0  0  1  0  0  3  0  0  0  0  0  0
  183.5810  178.1510  139.9230 N   0  0  0  0  0  0  0  0  0  0  0  0
  190.5830  177.0130  142.5600 C   0  0  0  0  0  0  0  0  0  0  0  0
  184.1650  178.7390  141.0100 C   0  0  0  0  0  3  0  0  0  0  0  0
  189.1190  177.6460  144.3890 C   0  0  0  0  0  3  0  0  0  0  0  0
  190.0590  177.1690  145.3090 C   0  0  0  0  0  0  0  0  0  0  0  0
  189.2170  177.1530  136.3850 C   0  0  0  0  0  2  0  0  0  0  0  0
  188.8490  177.1310  137.8710 C   0  0  1  0  0  3  0  0  0  0  0  0
  186.5550  177.8780  137.7320 N   0  0  0  0  0  2  0  0  0  0  0  0
  188.3160  178.0400  142.0620 C   0  0  0  0  0  2  0  0  0  0  0  0
  186.0980  179.6670  142.0550 F   0  0  0  0  0  0  0  0  0  0  0  0
  183.6250  177.2300  137.6320 C   0  0  0  0  0  1  0  0  0  0  0  0
  187.7610  178.7620  139.6300 C   0  0  2  0  0  3  0  0  0  0  0  0
  185.6880  178.0110  138.8390 C   0  0  0  0  0  0  0  0  0  0  0  0
  189.7660  177.2210  146.7700 C   0  0  0  0  0  2  0  0  0  0  0  0
  188.3040  176.8950  147.0510 C   0  0  0  0  0  2  0  0  0  0  0  0
  187.5830  178.0750  147.6210 C   0  0  0  0  0  0  0  0  0  0  0  0
  188.0020  178.6260  148.6250 O   0  0  0  0  0  0  0  0  0  0  0  0
  186.3360  178.5670  146.9700 C   0  0  0  0  0  1  0  0  0  0  0  0
  1 19  1  0  0  0  0
  2 23  1  1  0  0  0
  3 11  1  0  0  0  0
  4 20  1  0  0  0  0
  4  3  1  0  0  0  0
  5  6  1  0  0  0  0
  6 24  1  0  0  0  0
  7 18  1  0  0  0  0
  8 16  1  0  0  0  0
  9 27  1  0  0  0  0
  9 15  2  0  0  0  0
 10  1  2  0  0  0  0
 12  2  1  0  0  0  0
 12  8  1  1  0  0  0
 13 11  1  6  0  0  0
 13 12  1  0  0  0  0
 14 22  1  1  0  0  0
 14 26  1  0  0  0  0
 15 17  1  0  0  0  0
 16  7  2  0  0  0  0
 16 10  1  0  0  0  0
 17  6  2  0  0  0  0
 18 19  2  0  0  0  0
 19 28  1  0  0  0  0
 21 20  1  6  0  0  0
 21 14  1  0  0  0  0
 21 13  1  0  0  0  0
 22 27  1  0  0  0  0
 23  7  1  0  0  0  0
 25  9  1  0  0  0  0
 26  5  1  1  0  0  0
 26  2  1  0  0  0  0
 27  5  2  0  0  0  0
 28 29  1  0  0  0  0
 29 30  1  0  0  0  0
 30 31  2  0  0  0  0
 32 30  1  0  0  0  0
M  END
>  <MODEL>
4

>  <REMARK>
 VINA RESULT:      -9.2      2.947      6.186
  Name = 
  3 active torsions:
  status: ('A' for Active; 'I' for Inactive)
    1  A    between atoms: C_1  and  C_10
    2  A    between atoms: C_10  and  C_19
    3  A    between atoms: C_19  and  C_24
                            x       y       z     vdW  Elec       q    Type
                         _______ _______ _______ _____ _____    ______ ____

>  <TORSDO>
F 3

$$$$
=
 OpenBabel10262421233D

 32 37  0  0  1  0  0  0  0  0999 V2000
  190.5720  177.5570  138.7050 C   0  0  0  0  0  3  0  0  0  0  0  0
  188.4220  176.7490  143.2940 C   0  0  2  0  0  3  0  0  0  0  0  0
  192.3840  176.0030  146.3250 C   0  0  0  0  0  2  0  0  0  0  0  0
  191.6300  176.6120  147.4980 C   0  0  0  0  0  2  0  0  0  0  0  0
  186.4770  177.8920  144.6500 C   0  0  0  0  0  0  0  0  0  0  0  0
  185.4350  178.2670  143.7900 C   0  0  0  0  0  0  0  0  0  0  0  0
  188.8530  177.5030  140.9170 C   0  0  0  0  0  0  0  0  0  0  0  0
  190.7200  176.5760  142.3580 C   0  0  0  0  0  2  0  0  0  0  0  0
  185.6260  179.3780  146.3400 C   0  0  0  0  0  0  0  0  0  0  0  0
  191.0470  177.1280  139.9460 C   0  0  0  0  0  3  0  0  0  0  0  0
  191.8900  176.6240  145.0250 C   0  0  0  0  0  2  0  0  0  0  0  0
  189.9000  177.0550  143.5630 C   0  0  2  0  0  3  0  0  0  0  0  0
  190.3880  176.3680  144.8340 C   0  0  2  0  0  3  0  0  0  0  0  0
  188.1170  176.6940  145.9410 C   0  0  1  0  0  3  0  0  0  0  0  0
  184.6690  179.8040  145.4690 N   0  0  0  0  0  0  0  0  0  0  0  0
  190.2000  177.1140  141.0590 C   0  0  0  0  0  0  0  0  0  0  0  0
  184.5470  179.2630  144.2200 C   0  0  0  0  0  3  0  0  0  0  0  0
  188.3860  177.9410  139.6740 C   0  0  0  0  0  3  0  0  0  0  0  0
  189.2400  177.9620  138.5660 C   0  0  0  0  0  0  0  0  0  0  0  0
  190.1360  176.3560  147.3390 C   0  0  0  0  0  2  0  0  0  0  0  0
  189.6210  176.9460  146.0230 C   0  0  1  0  0  3  0  0  0  0  0  0
  187.4470  177.7120  146.7460 N   0  0  0  0  0  2  0  0  0  0  0  0
  187.9280  177.5660  142.0960 C   0  0  0  0  0  2  0  0  0  0  0  0
  185.2260  177.6460  142.6040 F   0  0  0  0  0  0  0  0  0  0  0  0
  185.6810  179.9370  147.7180 C   0  0  0  0  0  1  0  0  0  0  0  0
  187.4640  176.7670  144.5230 C   0  0  2  0  0  3  0  0  0  0  0  0
  186.5230  178.3930  145.9220 C   0  0  0  0  0  0  0  0  0  0  0  0
  188.7380  178.4450  137.2470 C   0  0  0  0  0  2  0  0  0  0  0  0
  187.3920  177.8150  136.9050 C   0  0  0  0  0  2  0  0  0  0  0  0
  187.5610  176.4430  136.3370 C   0  0  0  0  0  0  0  0  0  0  0  0
  188.0300  176.2930  135.2200 O   0  0  0  0  0  0  0  0  0  0  0  0
  187.1390  175.2550  137.1290 C   0  0  0  0  0  1  0  0  0  0  0  0
  1 10  1  0  0  0  0
  2 23  1  6  0  0  0
  2 12  1  0  0  0  0
  2 26  1  0  0  0  0
  3  4  1  0  0  0  0
  5 27  1  0  0  0  0
  6 17  1  0  0  0  0
  6  5  2  0  0  0  0
  7 16  1  0  0  0  0
  7 23  1  0  0  0  0
  9 25  1  0  0  0  0
 10 16  2  0  0  0  0
 11  3  1  0  0  0  0
 12  8  1  6  0  0  0
 12 13  1  0  0  0  0
 13 11  1  1  0  0  0
 13 21  1  0  0  0  0
 14 21  1  0  0  0  0
 14 22  1  1  0  0  0
 15  9  1  0  0  0  0
 16  8  1  0  0  0  0
 17 15  2  0  0  0  0
 18  7  2  0  0  0  0
 19  1  2  0  0  0  0
 19 18  1  0  0  0  0
 20  4  1  0  0  0  0
 21 20  1  1  0  0  0
 24  6  1  0  0  0  0
 26  5  1  1  0  0  0
 26 14  1  0  0  0  0
 27  9  2  0  0  0  0
 27 22  1  0  0  0  0
 28 19  1  0  0  0  0
 29 28  1  0  0  0  0
 30 29  1  0  0  0  0
 30 32  1  0  0  0  0
 31 30  2  0  0  0  0
M  END
>  <MODEL>
5

>  <REMARK>
 VINA RESULT:      -8.9      3.712      6.841
  Name = 
  3 active torsions:
  status: ('A' for Active; 'I' for Inactive)
    1  A    between atoms: C_1  and  C_10
    2  A    between atoms: C_10  and  C_19
    3  A    between atoms: C_19  and  C_24
                            x       y       z     vdW  Elec       q    Type
                         _______ _______ _______ _____ _____    ______ ____

>  <TORSDO>
F 3

$$$$
=
 OpenBabel10262421233D

 32 37  0  0  1  0  0  0  0  0999 V2000
  190.2300  176.9280  143.8480 C   0  0  0  0  0  3  0  0  0  0  0  0
  188.8300  177.9850  139.0260 C   0  0  2  0  0  3  0  0  0  0  0  0
  192.5430  175.9760  136.2640 C   0  0  0  0  0  2  0  0  0  0  0  0
  191.5710  175.6800  135.1310 C   0  0  0  0  0  2  0  0  0  0  0  0
  186.5670  177.8550  137.6890 C   0  0  0  0  0  0  0  0  0  0  0  0
  185.4940  178.2460  138.5020 C   0  0  0  0  0  0  0  0  0  0  0  0
  188.8000  177.5260  141.5140 C   0  0  0  0  0  0  0  0  0  0  0  0
  190.8610  177.0530  140.1180 C   0  0  0  0  0  2  0  0  0  0  0  0
  185.0350  176.7990  136.1630 C   0  0  0  0  0  0  0  0  0  0  0  0
  190.8530  176.8220  142.6020 C   0  0  0  0  0  3  0  0  0  0  0  0
  191.8000  175.9430  137.5930 C   0  0  0  0  0  2  0  0  0  0  0  0
  189.9040  176.8950  138.9290 C   0  0  2  0  0  3  0  0  0  0  0  0
  190.6780  176.9910  137.6190 C   0  0  2  0  0  3  0  0  0  0  0  0
  188.5860  177.7530  136.3820 C   0  0  1  0  0  3  0  0  0  0  0  0
  184.0060  177.1040  137.0030 N   0  0  0  0  0  0  0  0  0  0  0  0
  190.1420  177.1030  141.4320 C   0  0  0  0  0  0  0  0  0  0  0  0
  184.2040  177.8250  138.1460 C   0  0  0  0  0  3  0  0  0  0  0  0
  188.1790  177.6200  142.7630 C   0  0  0  0  0  3  0  0  0  0  0  0
  188.8930  177.3300  143.9310 C   0  0  0  0  0  0  0  0  0  0  0  0
  190.4560  176.7190  135.1260 C   0  0  0  0  0  2  0  0  0  0  0  0
  189.7120  176.7260  136.4640 C   0  0  1  0  0  3  0  0  0  0  0  0
  187.4650  177.1350  135.6780 N   0  0  0  0  0  2  0  0  0  0  0  0
  187.9810  177.7730  140.2820 C   0  0  0  0  0  2  0  0  0  0  0  0
  185.6630  179.0690  139.5650 F   0  0  0  0  0  0  0  0  0  0  0  0
  184.7670  176.0780  134.8890 C   0  0  0  0  0  1  0  0  0  0  0  0
  188.0070  178.2790  137.7360 C   0  0  2  0  0  3  0  0  0  0  0  0
  186.3250  177.2030  136.5100 C   0  0  0  0  0  0  0  0  0  0  0  0
  188.2180  177.4180  145.2580 C   0  0  0  0  0  2  0  0  0  0  0  0
  189.0390  178.2480  146.2390 C   0  0  0  0  0  2  0  0  0  0  0  0
  189.2110  177.5370  147.5430 C   0  0  0  0  0  0  0  0  0  0  0  0
  190.1570  176.7850  147.7130 O   0  0  0  0  0  0  0  0  0  0  0  0
  188.2150  177.7330  148.6320 C   0  0  0  0  0  1  0  0  0  0  0  0
  1 19  1  0  0  0  0
  2 23  1  1  0  0  0
  3 11  1  0  0  0  0
  4  3  1  0  0  0  0
  5  6  1  0  0  0  0
  6 24  1  0  0  0  0
  7 18  1  0  0  0  0
  8 16  1  0  0  0  0
  9 27  1  0  0  0  0
  9 15  2  0  0  0  0
 10  1  2  0  0  0  0
 12  2  1  0  0  0  0
 12  8  1  1  0  0  0
 13 11  1  1  0  0  0
 13 12  1  0  0  0  0
 14 22  1  6  0  0  0
 14 21  1  0  0  0  0
 14 26  1  0  0  0  0
 15 17  1  0  0  0  0
 16  7  2  0  0  0  0
 16 10  1  0  0  0  0
 17  6  2  0  0  0  0
 18 19  2  0  0  0  0
 19 28  1  0  0  0  0
 20  4  1  0  0  0  0
 21 20  1  6  0  0  0
 21 13  1  0  0  0  0
 22 27  1  0  0  0  0
 23  7  1  0  0  0  0
 25  9  1  0  0  0  0
 26  5  1  1  0  0  0
 26  2  1  0  0  0  0
 27  5  2  0  0  0  0
 28 29  1  0  0  0  0
 29 30  1  0  0  0  0
 30 31  2  0  0  0  0
 30 32  1  0  0  0  0
M  END
>  <MODEL>
6

>  <REMARK>
 VINA RESULT:      -8.7      3.669      6.355
  Name = 
  3 active torsions:
  status: ('A' for Active; 'I' for Inactive)
    1  A    between atoms: C_1  and  C_10
    2  A    between atoms: C_10  and  C_19
    3  A    between atoms: C_19  and  C_24
                            x       y       z     vdW  Elec       q    Type
                         _______ _______ _______ _____ _____    ______ ____

>  <TORSDO>
F 3

$$$$
=
 OpenBabel10262421233D

 32 37  0  0  1  0  0  0  0  0999 V2000
  191.6280  177.4040  142.8050 C   0  0  0  0  0  3  0  0  0  0  0  0
  187.8940  178.2640  139.3920 C   0  0  2  0  0  3  0  0  0  0  0  0
  189.3770  175.6350  135.3500 C   0  0  0  0  0  2  0  0  0  0  0  0
  187.9290  175.3740  134.9600 C   0  0  0  0  0  2  0  0  0  0  0  0
  185.2650  178.3040  139.5020 C   0  0  0  0  0  0  0  0  0  0  0  0
  184.8340  178.8770  140.7060 C   0  0  0  0  0  0  0  0  0  0  0  0
  189.1960  177.9940  141.5450 C   0  0  0  0  0  0  0  0  0  0  0  0
  190.1330  177.1810  139.3350 C   0  0  0  0  0  2  0  0  0  0  0  0
  183.0900  177.3280  139.1790 C   0  0  0  0  0  0  0  0  0  0  0  0
  191.4650  177.1350  141.4440 C   0  0  0  0  0  3  0  0  0  0  0  0
  189.4770  175.7870  136.8620 C   0  0  0  0  0  2  0  0  0  0  0  0
  188.6750  177.0510  138.8730 C   0  0  2  0  0  3  0  0  0  0  0  0
  188.6140  176.9590  137.3520 C   0  0  2  0  0  3  0  0  0  0  0  0
  186.2360  177.8700  137.3420 C   0  0  1  0  0  3  0  0  0  0  0  0
  182.7040  177.8130  140.3930 N   0  0  0  0  0  0  0  0  0  0  0  0
  190.2490  177.4110  140.8120 C   0  0  0  0  0  0  0  0  0  0  0  0
  183.5360  178.5870  141.1520 C   0  0  0  0  0  3  0  0  0  0  0  0
  189.3630  178.2520  142.9080 C   0  0  0  0  0  3  0  0  0  0  0  0
  190.5780  177.9660  143.5390 C   0  0  0  0  0  0  0  0  0  0  0  0
  187.0550  176.5340  135.4220 C   0  0  0  0  0  2  0  0  0  0  0  0
  187.1620  176.7260  136.9370 C   0  0  1  0  0  3  0  0  0  0  0  0
  184.8780  177.3390  137.4310 N   0  0  0  0  0  2  0  0  0  0  0  0
  187.8550  178.2460  140.9230 C   0  0  0  0  0  2  0  0  0  0  0  0
  185.6030  179.7510  141.4010 F   0  0  0  0  0  0  0  0  0  0  0  0
  182.1290  176.5520  138.3480 C   0  0  0  0  0  1  0  0  0  0  0  0
  186.5210  178.5580  138.7170 C   0  0  2  0  0  3  0  0  0  0  0  0
  184.3820  177.6010  138.7270 C   0  0  0  0  0  0  0  0  0  0  0  0
  190.7420  178.2300  144.9980 C   0  0  0  0  0  2  0  0  0  0  0  0
  190.1970  177.0760  145.8310 C   0  0  0  0  0  2  0  0  0  0  0  0
  189.0580  177.5170  146.6940 C   0  0  0  0  0  0  0  0  0  0  0  0
  189.2410  177.7640  147.8750 O   0  0  0  0  0  0  0  0  0  0  0  0
  187.6920  177.6360  146.1140 C   0  0  0  0  0  1  0  0  0  0  0  0
  1 19  1  0  0  0  0
  2 23  1  1  0  0  0
  3 11  1  0  0  0  0
  4  3  1  0  0  0  0
  4 20  1  0  0  0  0
  5  6  1  0  0  0  0
  6 17  2  0  0  0  0
  6 24  1  0  0  0  0
  7 18  1  0  0  0  0
  8 16  1  0  0  0  0
  9 15  2  0  0  0  0
 10  1  2  0  0  0  0
 12  8  1  6  0  0  0
 12  2  1  0  0  0  0
 13 11  1  1  0  0  0
 13 12  1  0  0  0  0
 14 22  1  1  0  0  0
 14 26  1  0  0  0  0
 15 17  1  0  0  0  0
 16 10  1  0  0  0  0
 16  7  2  0  0  0  0
 18 19  2  0  0  0  0
 19 28  1  0  0  0  0
 21 20  1  6  0  0  0
 21 14  1  0  0  0  0
 21 13  1  0  0  0  0
 22 27  1  0  0  0  0
 23  7  1  0  0  0  0
 25  9  1  0  0  0  0
 26  2  1  0  0  0  0
 26  5  1  1  0  0  0
 27  9  1  0  0  0  0
 27  5  2  0  0  0  0
 28 29  1  0  0  0  0
 29 30  1  0  0  0  0
 30 31  2  0  0  0  0
 32 30  1  0  0  0  0
M  END
>  <MODEL>
7

>  <REMARK>
 VINA RESULT:      -8.4      2.977      6.895
  Name = 
  3 active torsions:
  status: ('A' for Active; 'I' for Inactive)
    1  A    between atoms: C_1  and  C_10
    2  A    between atoms: C_10  and  C_19
    3  A    between atoms: C_19  and  C_24
                            x       y       z     vdW  Elec       q    Type
                         _______ _______ _______ _____ _____    ______ ____

>  <TORSDO>
F 3

$$$$
=
 OpenBabel10262421233D

 32 37  0  0  1  0  0  0  0  0999 V2000
  191.7800  175.7950  136.1920 C   0  0  0  0  0  3  0  0  0  0  0  0
  189.0840  178.2220  139.8220 C   0  0  2  0  0  3  0  0  0  0  0  0
  184.4050  178.3100  137.9390 C   0  0  0  0  0  2  0  0  0  0  0  0
  183.8150  178.2420  139.3400 C   0  0  0  0  0  2  0  0  0  0  0  0
  188.9750  178.0790  142.4470 C   0  0  0  0  0  0  0  0  0  0  0  0
  190.2560  177.8780  142.9800 C   0  0  0  0  0  0  0  0  0  0  0  0
  190.8440  176.8720  138.6030 C   0  0  0  0  0  0  0  0  0  0  0  0
  188.6360  177.4470  137.5010 C   0  0  0  0  0  2  0  0  0  0  0  0
  187.9910  177.3450  144.5170 C   0  0  0  0  0  0  0  0  0  0  0  0
  190.4830  176.3100  136.2680 C   0  0  0  0  0  3  0  0  0  0  0  0
  185.7580  177.6110  137.9220 C   0  0  0  0  0  2  0  0  0  0  0  0
  188.0570  177.5280  138.9190 C   0  0  2  0  0  3  0  0  0  0  0  0
  186.7320  178.2830  138.9010 C   0  0  2  0  0  3  0  0  0  0  0  0
  187.0190  178.9440  141.3440 C   0  0  1  0  0  3  0  0  0  0  0  0
  189.2350  177.0670  144.9970 N   0  0  0  0  0  0  0  0  0  0  0  0
  190.0040  176.8340  137.4720 C   0  0  0  0  0  0  0  0  0  0  0  0
  190.3600  177.3330  144.2690 C   0  0  0  0  0  3  0  0  0  0  0  0
  192.1360  176.3460  138.5220 C   0  0  0  0  0  3  0  0  0  0  0  0
  192.6090  175.8140  137.3180 C   0  0  0  0  0  0  0  0  0  0  0  0
  184.7580  178.9190  140.3280 C   0  0  0  0  0  2  0  0  0  0  0  0
  186.1360  178.2520  140.3080 C   0  0  1  0  0  3  0  0  0  0  0  0
  186.6890  178.3920  142.6560 N   0  0  0  0  0  2  0  0  0  0  0  0
  190.3490  177.3640  139.9300 C   0  0  0  0  0  2  0  0  0  0  0  0
  191.3760  178.2590  142.3200 F   0  0  0  0  0  0  0  0  0  0  0  0
  186.7940  177.1120  145.3700 C   0  0  0  0  0  1  0  0  0  0  0  0
  188.5650  178.7760  141.1820 C   0  0  2  0  0  3  0  0  0  0  0  0
  187.8720  177.8780  143.2320 C   0  0  0  0  0  0  0  0  0  0  0  0
  193.9850  175.2410  137.2440 C   0  0  0  0  0  2  0  0  0  0  0  0
  193.9840  173.7590  137.5990 C   0  0  0  0  0  2  0  0  0  0  0  0
  195.1160  173.4160  138.5130 C   0  0  0  0  0  0  0  0  0  0  0  0
  195.4100  172.2500  138.7180 O   0  0  0  0  0  0  0  0  0  0  0  0
  195.8750  174.5030  139.1930 C   0  0  0  0  0  1  0  0  0  0  0  0
  1 10  2  0  0  0  0
  1 19  1  0  0  0  0
  2 23  1  1  0  0  0
  2 26  1  0  0  0  0
  3  4  1  0  0  0  0
  4 20  1  0  0  0  0
  5  6  2  0  0  0  0
  5 27  1  0  0  0  0
  6 17  1  0  0  0  0
  7 23  1  0  0  0  0
  9 15  1  0  0  0  0
  9 25  1  0  0  0  0
 10 16  1  0  0  0  0
 11  3  1  0  0  0  0
 12  8  1  6  0  0  0
 12  2  1  0  0  0  0
 13 11  1  6  0  0  0
 13 12  1  0  0  0  0
 13 21  1  0  0  0  0
 14 22  1  1  0  0  0
 16  8  1  0  0  0  0
 16  7  2  0  0  0  0
 17 15  2  0  0  0  0
 18  7  1  0  0  0  0
 19 18  2  0  0  0  0
 21 20  1  6  0  0  0
 21 14  1  0  0  0  0
 22 27  1  0  0  0  0
 24  6  1  0  0  0  0
 26 14  1  0  0  0  0
 26  5  1  1  0  0  0
 27  9  2  0  0  0  0
 28 19  1  0  0  0  0
 28 29  1  0  0  0  0
 29 30  1  0  0  0  0
 30 31  2  0  0  0  0
 30 32  1  0  0  0  0
M  END
>  <MODEL>
8

>  <REMARK>
 VINA RESULT:      -8.2      4.259      9.164
  Name = 
  3 active torsions:
  status: ('A' for Active; 'I' for Inactive)
    1  A    between atoms: C_1  and  C_10
    2  A    between atoms: C_10  and  C_19
    3  A    between atoms: C_19  and  C_24
                            x       y       z     vdW  Elec       q    Type
                         _______ _______ _______ _____ _____    ______ ____

>  <TORSDO>
F 3

$$$$
=
 OpenBabel10262421233D

 32 37  0  0  1  0  0  0  0  0999 V2000
  189.4830  176.8120  137.6240 C   0  0  0  0  0  3  0  0  0  0  0  0
  188.7410  178.3750  142.4540 C   0  0  2  0  0  3  0  0  0  0  0  0
  183.7250  178.7970  142.7880 C   0  0  0  0  0  2  0  0  0  0  0  0
  183.7690  178.4250  144.2630 C   0  0  0  0  0  2  0  0  0  0  0  0
  189.7240  177.6770  144.7930 C   0  0  0  0  0  0  0  0  0  0  0  0
  191.0910  177.3850  144.6830 C   0  0  0  0  0  0  0  0  0  0  0  0
  189.7230  177.3390  140.3650 C   0  0  0  0  0  0  0  0  0  0  0  0
  187.3090  178.1050  140.4390 C   0  0  0  0  0  2  0  0  0  0  0  0
  189.6370  176.5080  146.8940 C   0  0  0  0  0  0  0  0  0  0  0  0
  188.3810  177.2800  138.3420 C   0  0  0  0  0  3  0  0  0  0  0  0
  184.8900  178.1360  142.0620 C   0  0  0  0  0  2  0  0  0  0  0  0
  187.3810  177.8740  141.9540 C   0  0  2  0  0  3  0  0  0  0  0  0
  186.2320  178.5980  142.6480 C   0  0  2  0  0  3  0  0  0  0  0  0
  187.5600  178.7300  144.8170 C   0  0  1  0  0  3  0  0  0  0  0  0
  190.9430  176.1510  146.7370 N   0  0  0  0  0  0  0  0  0  0  0  0
  188.4880  177.5300  139.7130 C   0  0  0  0  0  0  0  0  0  0  0  0
  191.6800  176.5810  145.6700 C   0  0  0  0  0  3  0  0  0  0  0  0
  190.8190  176.8600  139.6420 C   0  0  0  0  0  3  0  0  0  0  0  0
  190.7050  176.6030  138.2720 C   0  0  0  0  0  0  0  0  0  0  0  0
  185.0870  178.8890  144.8710 C   0  0  0  0  0  2  0  0  0  0  0  0
  186.2750  178.2610  144.1380 C   0  0  1  0  0  3  0  0  0  0  0  0
  187.7650  177.9080  146.0070 N   0  0  0  0  0  2  0  0  0  0  0  0
  189.8650  177.5320  141.8450 C   0  0  0  0  0  2  0  0  0  0  0  0
  191.8600  177.9130  143.7000 F   0  0  0  0  0  0  0  0  0  0  0  0
  188.8900  176.0820  148.1090 C   0  0  0  0  0  1  0  0  0  0  0  0
  188.8800  178.6210  143.9860 C   0  0  2  0  0  3  0  0  0  0  0  0
  189.0360  177.2990  145.9140 C   0  0  0  0  0  0  0  0  0  0  0  0
  191.8760  176.0770  137.5120 C   0  0  0  0  0  2  0  0  0  0  0  0
  193.1830  176.3750  138.2370 C   0  0  0  0  0  2  0  0  0  0  0  0
  194.1050  175.1990  138.2040 C   0  0  0  0  0  0  0  0  0  0  0  0
  195.1330  175.2030  138.8620 O   0  0  0  0  0  0  0  0  0  0  0  0
  193.7770  174.0230  137.3490 C   0  0  0  0  0  1  0  0  0  0  0  0
  1 19  2  0  0  0  0
  1 10  1  0  0  0  0
  2 23  1  1  0  0  0
  2 26  1  0  0  0  0
  3  4  1  0  0  0  0
  4 20  1  0  0  0  0
  5 27  1  0  0  0  0
  6  5  2  0  0  0  0
  6 17  1  0  0  0  0
  7 23  1  0  0  0  0
  9 25  1  0  0  0  0
 10 16  2  0  0  0  0
 11  3  1  0  0  0  0
 12  8  1  6  0  0  0
 12  2  1  0  0  0  0
 12 13  1  0  0  0  0
 13 11  1  6  0  0  0
 13 21  1  0  0  0  0
 14 22  1  1  0  0  0
 15  9  1  0  0  0  0
 16  7  1  0  0  0  0
 16  8  1  0  0  0  0
 17 15  2  0  0  0  0
 18  7  2  0  0  0  0
 19 18  1  0  0  0  0
 21 14  1  0  0  0  0
 21 20  1  1  0  0  0
 24  6  1  0  0  0  0
 26  5  1  1  0  0  0
 26 14  1  0  0  0  0
 27 22  1  0  0  0  0
 27  9  2  0  0  0  0
 28 29  1  0  0  0  0
 28 19  1  0  0  0  0
 30 29  1  0  0  0  0
 30 31  2  0  0  0  0
 32 30  1  0  0  0  0
M  END
>  <MODEL>
9

>  <REMARK>
 VINA RESULT:      -8.1      4.133      8.566
  Name = 
  3 active torsions:
  status: ('A' for Active; 'I' for Inactive)
    1  A    between atoms: C_1  and  C_10
    2  A    between atoms: C_10  and  C_19
    3  A    between atoms: C_19  and  C_24
                            x       y       z     vdW  Elec       q    Type
                         _______ _______ _______ _____ _____    ______ ____

>  <TORSDO>
F 3

$$$$
