=
 OpenBabel10262419493D

 25 29  0  0  1  0  0  0  0  0999 V2000
  189.3700  176.2260  143.9720 C   0  0  2  0  0  3  0  0  0  0  0  0
  189.8230  177.4320  144.7790 C   0  0  1  0  0  3  0  0  0  0  0  0
  191.8190  175.7950  143.7540 N   0  0  0  0  0  2  0  0  0  0  0  0
  188.1470  177.1040  141.9180 N   0  0  2  0  0  0  0  0  0  0  0  0
  187.3210  176.8910  147.4360 C   0  0  0  0  0  2  0  0  0  0  0  0
  188.9150  178.9930  140.8010 C   0  0  0  0  0  2  0  0  0  0  0  0
  191.6670  175.8040  145.1520 N   0  0  0  0  0  2  0  0  0  0  0  0
  189.2970  176.7840  141.0740 C   0  0  1  0  0  3  0  0  0  0  0  0
  189.4650  177.8550  140.1620 O   0  0  0  0  0  0  0  0  0  0  0  0
  191.0270  177.1390  147.0460 C   0  0  0  0  0  0  0  0  0  0  0  0
  192.0650  176.9770  147.7370 O   0  0  0  0  0  0  0  0  0  0  0  0
  187.5650  178.3340  147.8640 C   0  0  1  0  0  3  0  0  0  0  0  0
  188.7130  178.1330  145.5570 C   0  0  0  0  0  2  0  0  0  0  0  0
  188.2210  178.5380  142.0720 C   0  0  0  0  0  2  0  0  0  0  0  0
  190.5130  175.7400  143.0740 C   0  0  2  0  0  3  0  0  0  0  0  0
  190.6110  176.6310  141.8510 C   0  0  0  0  0  2  0  0  0  0  0  0
  189.7780  177.2990  147.7060 N   0  0  0  0  0  2  0  0  0  0  0  0
  188.0510  176.4090  143.2120 C   0  0  0  0  0  2  0  0  0  0  0  0
  188.5670  177.6050  146.9830 C   0  0  2  0  0  0  0  0  0  0  0  0
  191.1350  177.1110  145.5550 C   0  0  2  0  0  3  0  0  0  0  0  0
  186.5830  179.2430  147.1200 C   0  0  0  0  0  2  0  0  0  0  0  0
  185.3430  178.5740  146.9190 O   0  0  0  0  0  0  0  0  0  0  0  0
  184.6110  178.7080  145.7400 C   0  0  0  0  0  0  0  0  0  0  0  0
  185.2510  178.3630  144.4350 C   0  0  0  0  0  1  0  0  0  0  0  0
  183.4080  179.0920  145.7520 O   0  0  0  0  0  0  0  0  0  0  0  0
  1 18  1  6  0  0  0
  1  2  1  0  0  0  0
  2 20  1  0  0  0  0
  2 13  1  1  0  0  0
  3  7  1  0  0  0  0
  4 14  1  1  0  0  0
  4 18  1  0  0  0  0
  5 12  1  0  0  0  0
  6 14  1  0  0  0  0
  8 16  1  1  0  0  0
  8  4  1  0  0  0  0
  9  6  1  0  0  0  0
  9  8  1  0  0  0  0
 10 17  1  0  0  0  0
 10 11  2  0  0  0  0
 12 21  1  6  0  0  0
 15 16  1  6  0  0  0
 15  3  1  0  0  0  0
 15  1  1  0  0  0  0
 19 13  1  6  0  0  0
 19  5  1  0  0  0  0
 19 17  1  0  0  0  0
 19 12  1  0  0  0  0
 20  7  1  1  0  0  0
 20 10  1  0  0  0  0
 22 21  1  0  0  0  0
 23 25  2  0  0  0  0
 23 22  1  0  0  0  0
 24 23  1  0  0  0  0
M  END
>  <MODEL>
1

>  <REMARK>
 VINA RESULT:      -7.9      0.000      0.000
  Name = 
  3 active torsions:
  status: ('A' for Active; 'I' for Inactive)
    1  A    between atoms: C_2  and  O_21
    2  A    between atoms: C_15  and  C_25
    3  A    between atoms: O_21  and  C_25
                            x       y       z     vdW  Elec       q    Type
                         _______ _______ _______ _____ _____    ______ ____

>  <TORSDO>
F 3

$$$$
=
 OpenBabel10262419493D

 25 29  0  0  1  0  0  0  0  0999 V2000
  188.1410  176.9000  142.4810 C   0  0  2  0  0  3  0  0  0  0  0  0
  188.0560  178.2360  141.7580 C   0  0  1  0  0  3  0  0  0  0  0  0
  186.4550  177.9310  144.0080 N   0  0  0  0  0  2  0  0  0  0  0  0
  190.5210  176.6620  143.3550 N   0  0  2  0  0  0  0  0  0  0  0  0
  187.9200  176.6830  138.4140 C   0  0  0  0  0  2  0  0  0  0  0  0
  191.6530  178.4980  144.2240 C   0  0  0  0  0  2  0  0  0  0  0  0
  185.7930  178.0200  142.7710 N   0  0  0  0  0  2  0  0  0  0  0  0
  190.0720  176.9610  144.7140 C   0  0  1  0  0  3  0  0  0  0  0  0
  191.0380  177.8140  145.3020 O   0  0  0  0  0  0  0  0  0  0  0  0
  185.8860  178.9630  140.5610 C   0  0  0  0  0  0  0  0  0  0  0  0
  184.7530  179.5110  140.5540 O   0  0  0  0  0  0  0  0  0  0  0  0
  188.3040  178.0430  137.8430 C   0  0  1  0  0  3  0  0  0  0  0  0
  188.7200  178.2600  140.3850 C   0  0  0  0  0  2  0  0  0  0  0  0
  191.1590  177.8840  142.9270 C   0  0  0  0  0  2  0  0  0  0  0  0
  187.6370  177.0540  143.9210 C   0  0  2  0  0  3  0  0  0  0  0  0
  188.7210  177.6840  144.7730 C   0  0  0  0  0  2  0  0  0  0  0  0
  186.4130  178.4550  139.3420 N   0  0  0  0  0  2  0  0  0  0  0  0
  189.5020  176.2000  142.3980 C   0  0  0  0  0  2  0  0  0  0  0  0
  187.7510  177.9210  139.2540 C   0  0  2  0  0  0  0  0  0  0  0  0
  186.6160  178.8220  141.8580 C   0  0  2  0  0  3  0  0  0  0  0  0
  189.8300  178.1260  137.7460 C   0  0  0  0  0  2  0  0  0  0  0  0
  190.3420  177.0060  137.0330 O   0  0  0  0  0  0  0  0  0  0  0  0
  191.3180  176.1680  137.5710 C   0  0  0  0  0  0  0  0  0  0  0  0
  192.7500  176.3770  137.2020 C   0  0  0  0  0  1  0  0  0  0  0  0
  191.0200  175.2490  138.3850 O   0  0  0  0  0  0  0  0  0  0  0  0
  1 18  1  1  0  0  0
  1 15  1  0  0  0  0
  2 13  1  6  0  0  0
  2 20  1  0  0  0  0
  2  1  1  0  0  0  0
  4 18  1  6  0  0  0
  4  8  1  0  0  0  0
  6  9  1  0  0  0  0
  7  3  1  0  0  0  0
  8 16  1  6  0  0  0
  8  9  1  0  0  0  0
 11 10  2  0  0  0  0
 12 21  1  1  0  0  0
 12  5  1  0  0  0  0
 12 19  1  0  0  0  0
 14  4  1  0  0  0  0
 14  6  1  0  0  0  0
 15  3  1  0  0  0  0
 15 16  1  1  0  0  0
 17 10  1  0  0  0  0
 19  5  1  1  0  0  0
 19 17  1  0  0  0  0
 19 13  1  0  0  0  0
 20 10  1  6  0  0  0
 20  7  1  0  0  0  0
 22 23  1  0  0  0  0
 22 21  1  0  0  0  0
 23 25  2  0  0  0  0
 24 23  1  0  0  0  0
M  END
>  <MODEL>
2

>  <REMARK>
 VINA RESULT:      -7.6      2.814      7.369
  Name = 
  3 active torsions:
  status: ('A' for Active; 'I' for Inactive)
    1  A    between atoms: C_2  and  O_21
    2  A    between atoms: C_15  and  C_25
    3  A    between atoms: O_21  and  C_25
                            x       y       z     vdW  Elec       q    Type
                         _______ _______ _______ _____ _____    ______ ____

>  <TORSDO>
F 3

$$$$
=
 OpenBabel10262419493D

 25 29  0  0  1  0  0  0  0  0999 V2000
  189.1740  176.8820  141.3040 C   0  0  2  0  0  3  0  0  0  0  0  0
  189.8860  177.8910  140.4170 C   0  0  1  0  0  3  0  0  0  0  0  0
  187.3670  178.6040  141.3470 N   0  0  0  0  0  2  0  0  0  0  0  0
  190.5770  176.6020  143.4110 N   0  0  2  0  0  0  0  0  0  0  0  0
  190.9780  175.3390  137.9870 C   0  0  0  0  0  2  0  0  0  0  0  0
  191.6210  178.4340  144.3890 C   0  0  0  0  0  2  0  0  0  0  0  0
  187.4860  178.3670  139.9660 N   0  0  0  0  0  2  0  0  0  0  0  0
  189.6230  177.4050  144.1750 C   0  0  1  0  0  3  0  0  0  0  0  0
  190.3700  178.2540  145.0280 O   0  0  0  0  0  0  0  0  0  0  0  0
  188.9680  178.4840  138.0770 C   0  0  0  0  0  0  0  0  0  0  0  0
  188.2300  179.1590  137.3130 O   0  0  0  0  0  0  0  0  0  0  0  0
  191.9990  176.3540  137.4850 C   0  0  1  0  0  3  0  0  0  0  0  0
  191.1210  177.3520  139.7020 C   0  0  0  0  0  2  0  0  0  0  0  0
  191.6870  177.4990  143.1960 C   0  0  0  0  0  2  0  0  0  0  0  0
  188.0900  177.5850  142.1290 C   0  0  2  0  0  3  0  0  0  0  0  0
  188.7300  178.2980  143.3040 C   0  0  0  0  0  2  0  0  0  0  0  0
  189.8490  177.5240  137.5110 N   0  0  0  0  0  2  0  0  0  0  0  0
  190.0940  176.0010  142.1570 C   0  0  0  0  0  2  0  0  0  0  0  0
  190.8040  176.7990  138.3140 C   0  0  2  0  0  0  0  0  0  0  0  0
  188.8580  178.6830  139.5540 C   0  0  2  0  0  3  0  0  0  0  0  0
  193.3030  176.1720  138.2670 C   0  0  0  0  0  2  0  0  0  0  0  0
  194.3700  175.8470  137.3830 O   0  0  0  0  0  0  0  0  0  0  0  0
  195.1580  174.7110  137.5580 C   0  0  0  0  0  0  0  0  0  0  0  0
  194.5150  173.3620  137.5540 C   0  0  0  0  0  1  0  0  0  0  0  0
  196.4110  174.7940  137.6960 O   0  0  0  0  0  0  0  0  0  0  0  0
  1 15  1  0  0  0  0
  1 18  1  1  0  0  0
  2 13  1  6  0  0  0
  2  1  1  0  0  0  0
  3 15  1  0  0  0  0
  4 18  1  6  0  0  0
  4  8  1  0  0  0  0
  6  9  1  0  0  0  0
  7  3  1  0  0  0  0
  8 16  1  6  0  0  0
  8  9  1  0  0  0  0
 11 10  2  0  0  0  0
 12  5  1  0  0  0  0
 12 21  1  1  0  0  0
 12 19  1  0  0  0  0
 14  4  1  0  0  0  0
 14  6  1  0  0  0  0
 15 16  1  1  0  0  0
 17 10  1  0  0  0  0
 17 19  1  0  0  0  0
 19  5  1  1  0  0  0
 19 13  1  0  0  0  0
 20 10  1  6  0  0  0
 20  7  1  0  0  0  0
 20  2  1  0  0  0  0
 22 23  1  0  0  0  0
 22 21  1  0  0  0  0
 23 25  2  0  0  0  0
 24 23  1  0  0  0  0
M  END
>  <MODEL>
3

>  <REMARK>
 VINA RESULT:      -7.5      3.669      8.605
  Name = 
  3 active torsions:
  status: ('A' for Active; 'I' for Inactive)
    1  A    between atoms: C_2  and  O_21
    2  A    between atoms: C_15  and  C_25
    3  A    between atoms: O_21  and  C_25
                            x       y       z     vdW  Elec       q    Type
                         _______ _______ _______ _____ _____    ______ ____

>  <TORSDO>
F 3

$$$$
=
 OpenBabel10262419493D

 25 29  0  0  1  0  0  0  0  0999 V2000
  189.1350  176.4170  144.3430 C   0  0  2  0  0  3  0  0  0  0  0  0
  188.9870  177.8080  144.9400 C   0  0  1  0  0  3  0  0  0  0  0  0
  191.4350  176.5490  145.3070 N   0  0  0  0  0  2  0  0  0  0  0  0
  188.9080  176.6480  141.8170 N   0  0  2  0  0  0  0  0  0  0  0  0
  185.6340  177.1150  146.3160 C   0  0  0  0  0  2  0  0  0  0  0  0
  189.8390  178.4650  140.7060 C   0  0  0  0  0  2  0  0  0  0  0  0
  190.6470  176.7400  146.4550 N   0  0  0  0  0  2  0  0  0  0  0  0
  190.3520  176.4800  141.6540 C   0  0  1  0  0  3  0  0  0  0  0  0
  190.7770  177.4040  140.6670 O   0  0  0  0  0  0  0  0  0  0  0  0
  189.0170  178.1670  147.4980 C   0  0  0  0  0  0  0  0  0  0  0  0
  189.6220  178.3650  148.5830 O   0  0  0  0  0  0  0  0  0  0  0  0
  185.4470  178.6230  146.4350 C   0  0  1  0  0  3  0  0  0  0  0  0
  187.5570  178.3390  144.9690 C   0  0  0  0  0  2  0  0  0  0  0  0
  188.7020  178.0640  141.6270 C   0  0  0  0  0  2  0  0  0  0  0  0
  190.6210  176.0800  144.1700 C   0  0  2  0  0  3  0  0  0  0  0  0
  191.1550  176.7660  142.9290 C   0  0  0  0  0  2  0  0  0  0  0  0
  187.5960  178.1290  147.4990 N   0  0  0  0  0  2  0  0  0  0  0  0
  188.3150  176.1620  143.0740 C   0  0  0  0  0  2  0  0  0  0  0  0
  186.8350  178.0220  146.2770 C   0  0  2  0  0  0  0  0  0  0  0  0
  189.8130  177.9310  146.2550 C   0  0  2  0  0  3  0  0  0  0  0  0
  184.8120  179.1460  145.1440 C   0  0  0  0  0  2  0  0  0  0  0  0
  183.3930  179.1170  145.2430 O   0  0  0  0  0  0  0  0  0  0  0  0
  182.5780  178.8470  144.1440 C   0  0  0  0  0  0  0  0  0  0  0  0
  183.1840  178.7720  142.7810 C   0  0  0  0  0  1  0  0  0  0  0  0
  181.3390  178.6400  144.2790 O   0  0  0  0  0  0  0  0  0  0  0  0
  1 18  1  6  0  0  0
  1  2  1  0  0  0  0
  2 13  1  1  0  0  0
  2 20  1  0  0  0  0
  3  7  1  0  0  0  0
  4 14  1  1  0  0  0
  4 18  1  0  0  0  0
  5 12  1  0  0  0  0
  6 14  1  0  0  0  0
  8  4  1  0  0  0  0
  8 16  1  1  0  0  0
  9  6  1  0  0  0  0
  9  8  1  0  0  0  0
 10 17  1  0  0  0  0
 10 11  2  0  0  0  0
 12 21  1  6  0  0  0
 15 16  1  6  0  0  0
 15  1  1  0  0  0  0
 15  3  1  0  0  0  0
 19 13  1  6  0  0  0
 19  5  1  0  0  0  0
 19 12  1  0  0  0  0
 19 17  1  0  0  0  0
 20  7  1  1  0  0  0
 20 10  1  0  0  0  0
 21 22  1  0  0  0  0
 23 25  2  0  0  0  0
 23 22  1  0  0  0  0
 24 23  1  0  0  0  0
M  END
>  <MODEL>
4

>  <REMARK>
 VINA RESULT:      -7.4      1.536      1.898
  Name = 
  3 active torsions:
  status: ('A' for Active; 'I' for Inactive)
    1  A    between atoms: C_2  and  O_21
    2  A    between atoms: C_15  and  C_25
    3  A    between atoms: O_21  and  C_25
                            x       y       z     vdW  Elec       q    Type
                         _______ _______ _______ _____ _____    ______ ____

>  <TORSDO>
F 3

$$$$
=
 OpenBabel10262419493D

 25 29  0  0  1  0  0  0  0  0999 V2000
  185.4410  179.2690  143.8220 C   0  0  2  0  0  3  0  0  0  0  0  0
  185.8880  177.8660  144.2030 C   0  0  1  0  0  3  0  0  0  0  0  0
  184.0170  179.0740  145.8640 N   0  0  0  0  0  2  0  0  0  0  0  0
  184.2770  179.1050  141.5620 N   0  0  2  0  0  0  0  0  0  0  0  0
  189.4540  178.5820  143.5870 C   0  0  0  0  0  2  0  0  0  0  0  0
  182.8970  177.3010  141.0690 C   0  0  0  0  0  2  0  0  0  0  0  0
  185.2980  178.8670  146.4040 N   0  0  0  0  0  2  0  0  0  0  0  0
  182.9710  179.2530  142.2030 C   0  0  1  0  0  3  0  0  0  0  0  0
  182.0840  178.3470  141.5710 O   0  0  0  0  0  0  0  0  0  0  0  0
  187.2350  177.4430  146.3660 C   0  0  0  0  0  0  0  0  0  0  0  0
  187.3060  177.2060  147.5990 O   0  0  0  0  0  0  0  0  0  0  0  0
  189.6770  177.0750  143.5410 C   0  0  1  0  0  3  0  0  0  0  0  0
  187.1100  177.3590  143.4440 C   0  0  0  0  0  2  0  0  0  0  0  0
  184.3510  177.6980  141.2480 C   0  0  0  0  0  2  0  0  0  0  0  0
  184.0940  179.5850  144.4830 C   0  0  2  0  0  3  0  0  0  0  0  0
  182.9770  178.9210  143.7010 C   0  0  0  0  0  2  0  0  0  0  0  0
  188.4340  177.5050  145.6060 N   0  0  0  0  0  2  0  0  0  0  0  0
  185.4510  179.5700  142.3190 C   0  0  0  0  0  2  0  0  0  0  0  0
  188.4210  177.6560  144.1700 C   0  0  2  0  0  0  0  0  0  0  0  0
  185.8960  177.6960  145.7510 C   0  0  2  0  0  3  0  0  0  0  0  0
  189.5210  176.5960  142.0950 C   0  0  0  0  0  2  0  0  0  0  0  0
  190.7260  176.8110  141.3690 O   0  0  0  0  0  0  0  0  0  0  0  0
  190.7250  177.1520  140.0170 C   0  0  0  0  0  0  0  0  0  0  0  0
  189.5660  177.9030  139.4490 C   0  0  0  0  0  1  0  0  0  0  0  0
  191.6980  176.8610  139.2650 O   0  0  0  0  0  0  0  0  0  0  0  0
  1 18  1  6  0  0  0
  1  2  1  0  0  0  0
  1 15  1  0  0  0  0
  2 13  1  1  0  0  0
  2 20  1  0  0  0  0
  3  7  1  0  0  0  0
  4 14  1  1  0  0  0
  4  8  1  0  0  0  0
  4 18  1  0  0  0  0
  5 19  1  0  0  0  0
  6 14  1  0  0  0  0
  6  9  1  0  0  0  0
  8 16  1  1  0  0  0
  9  8  1  0  0  0  0
 10 11  2  0  0  0  0
 12 21  1  6  0  0  0
 12  5  1  0  0  0  0
 12 19  1  0  0  0  0
 15 16  1  6  0  0  0
 15  3  1  0  0  0  0
 17 10  1  0  0  0  0
 19 13  1  6  0  0  0
 19 17  1  0  0  0  0
 20 10  1  1  0  0  0
 20  7  1  0  0  0  0
 22 21  1  0  0  0  0
 23 22  1  0  0  0  0
 24 23  1  0  0  0  0
 25 23  2  0  0  0  0
M  END
>  <MODEL>
5

>  <REMARK>
 VINA RESULT:      -7.3      2.827      6.195
  Name = 
  3 active torsions:
  status: ('A' for Active; 'I' for Inactive)
    1  A    between atoms: C_2  and  O_21
    2  A    between atoms: C_15  and  C_25
    3  A    between atoms: O_21  and  C_25
                            x       y       z     vdW  Elec       q    Type
                         _______ _______ _______ _____ _____    ______ ____

>  <TORSDO>
F 3

$$$$
=
 OpenBabel10262419493D

 25 29  0  0  1  0  0  0  0  0999 V2000
  187.1210  177.0170  144.1710 C   0  0  2  0  0  3  0  0  0  0  0  0
  186.5700  178.4300  144.0530 C   0  0  1  0  0  3  0  0  0  0  0  0
  187.0590  177.4930  146.6210 N   0  0  0  0  0  2  0  0  0  0  0  0
  189.4020  176.9950  143.0380 N   0  0  2  0  0  0  0  0  0  0  0  0
  184.0490  177.4890  141.5300 C   0  0  0  0  0  2  0  0  0  0  0  0
  190.8510  178.8000  143.2590 C   0  0  0  0  0  2  0  0  0  0  0  0
  185.7140  177.6960  146.2700 N   0  0  0  0  0  2  0  0  0  0  0  0
  190.0680  176.9770  144.3400 C   0  0  1  0  0  3  0  0  0  0  0  0
  191.1800  177.8510  144.2590 O   0  0  0  0  0  0  0  0  0  0  0  0
  184.2140  179.0170  144.9330 C   0  0  0  0  0  0  0  0  0  0  0  0
  183.4300  179.3780  145.8480 O   0  0  0  0  0  0  0  0  0  0  0  0
  183.9350  178.9710  141.1920 C   0  0  1  0  0  3  0  0  0  0  0  0
  186.0500  178.7970  142.6660 C   0  0  0  0  0  2  0  0  0  0  0  0
  189.5650  178.3570  142.5860 C   0  0  0  0  0  2  0  0  0  0  0  0
  187.8040  176.8350  145.5310 C   0  0  2  0  0  3  0  0  0  0  0  0
  189.1830  177.4640  145.4940 C   0  0  0  0  0  2  0  0  0  0  0  0
  183.6980  178.8190  143.6240 N   0  0  0  0  0  2  0  0  0  0  0  0
  187.9960  176.5590  142.9990 C   0  0  0  0  0  2  0  0  0  0  0  0
  184.5570  178.5190  142.5030 C   0  0  2  0  0  0  0  0  0  0  0  0
  185.6490  178.7620  145.2640 C   0  0  2  0  0  3  0  0  0  0  0  0
  184.9300  179.3020  140.0760 C   0  0  0  0  0  2  0  0  0  0  0  0
  184.3180  180.1280  139.0940 O   0  0  0  0  0  0  0  0  0  0  0  0
  183.0320  179.8830  138.6160 C   0  0  0  0  0  0  0  0  0  0  0  0
  181.9930  180.9520  138.7180 C   0  0  0  0  0  1  0  0  0  0  0  0
  182.7290  178.7830  138.0730 O   0  0  0  0  0  0  0  0  0  0  0  0
  1 18  1  6  0  0  0
  1 15  1  0  0  0  0
  2 13  1  6  0  0  0
  2  1  1  0  0  0  0
  2 20  1  0  0  0  0
  4 14  1  1  0  0  0
  4  8  1  0  0  0  0
  6  9  1  0  0  0  0
  7  3  1  0  0  0  0
  8 16  1  1  0  0  0
  9  8  1  0  0  0  0
 10 11  2  0  0  0  0
 12 21  1  6  0  0  0
 12  5  1  0  0  0  0
 12 19  1  0  0  0  0
 14  6  1  0  0  0  0
 15 16  1  6  0  0  0
 15  3  1  0  0  0  0
 17 10  1  0  0  0  0
 18  4  1  0  0  0  0
 19  5  1  6  0  0  0
 19 13  1  0  0  0  0
 19 17  1  0  0  0  0
 20 10  1  6  0  0  0
 20  7  1  0  0  0  0
 22 21  1  0  0  0  0
 23 24  1  0  0  0  0
 23 22  1  0  0  0  0
 25 23  2  0  0  0  0
M  END
>  <MODEL>
6

>  <REMARK>
 VINA RESULT:      -7.3      3.504      5.774
  Name = 
  3 active torsions:
  status: ('A' for Active; 'I' for Inactive)
    1  A    between atoms: C_2  and  O_21
    2  A    between atoms: C_15  and  C_25
    3  A    between atoms: O_21  and  C_25
                            x       y       z     vdW  Elec       q    Type
                         _______ _______ _______ _____ _____    ______ ____

>  <TORSDO>
F 3

$$$$
=
 OpenBabel10262419493D

 25 29  0  0  1  0  0  0  0  0999 V2000
  189.8900  176.7040  140.4440 C   0  0  2  0  0  3  0  0  0  0  0  0
  189.7080  177.9870  141.2400 C   0  0  1  0  0  3  0  0  0  0  0  0
  192.2960  177.3700  140.4420 N   0  0  0  0  0  2  0  0  0  0  0  0
  188.5970  176.9750  138.2670 N   0  0  2  0  0  0  0  0  0  0  0  0
  187.4540  176.4170  143.7030 C   0  0  0  0  0  2  0  0  0  0  0  0
  188.5760  179.0120  137.1470 C   0  0  0  0  0  2  0  0  0  0  0  0
  192.0310  177.3100  141.8210 N   0  0  0  0  0  2  0  0  0  0  0  0
  189.8430  177.1820  137.5310 C   0  0  1  0  0  3  0  0  0  0  0  0
  189.6160  178.2230  136.5970 O   0  0  0  0  0  0  0  0  0  0  0  0
  190.7140  178.2360  143.6060 C   0  0  0  0  0  0  0  0  0  0  0  0
  191.6550  178.5360  144.3850 O   0  0  0  0  0  0  0  0  0  0  0  0
  187.0170  177.8230  144.0960 C   0  0  1  0  0  3  0  0  0  0  0  0
  188.3400  178.1400  141.8990 C   0  0  0  0  0  2  0  0  0  0  0  0
  188.0350  178.3000  138.3730 C   0  0  0  0  0  2  0  0  0  0  0  0
  191.2060  176.7590  139.6590 C   0  0  2  0  0  3  0  0  0  0  0  0
  191.0210  177.6080  138.4170 C   0  0  0  0  0  2  0  0  0  0  0  0
  189.4640  177.8420  144.1560 N   0  0  0  0  0  2  0  0  0  0  0  0
  188.6930  176.3030  139.5730 C   0  0  0  0  0  2  0  0  0  0  0  0
  188.3080  177.5980  143.3260 C   0  0  2  0  0  0  0  0  0  0  0  0
  190.9560  178.2600  142.1310 C   0  0  2  0  0  3  0  0  0  0  0  0
  185.8100  178.2220  143.2420 C   0  0  0  0  0  2  0  0  0  0  0  0
  185.1000  179.2910  143.8560 O   0  0  0  0  0  0  0  0  0  0  0  0
  183.9520  179.0780  144.6190 C   0  0  0  0  0  0  0  0  0  0  0  0
  182.6320  178.9350  143.9350 C   0  0  0  0  0  1  0  0  0  0  0  0
  184.0070  178.9780  145.8770 O   0  0  0  0  0  0  0  0  0  0  0  0
  1 18  1  6  0  0  0
  1  2  1  0  0  0  0
  2 13  1  1  0  0  0
  2 20  1  0  0  0  0
  3  7  1  0  0  0  0
  4 14  1  1  0  0  0
  4 18  1  0  0  0  0
  5 12  1  0  0  0  0
  6 14  1  0  0  0  0
  8  4  1  0  0  0  0
  8 16  1  1  0  0  0
  9  6  1  0  0  0  0
  9  8  1  0  0  0  0
 10 17  1  0  0  0  0
 10 11  2  0  0  0  0
 12 21  1  6  0  0  0
 15 16  1  6  0  0  0
 15  3  1  0  0  0  0
 15  1  1  0  0  0  0
 19 13  1  6  0  0  0
 19  5  1  0  0  0  0
 19 12  1  0  0  0  0
 19 17  1  0  0  0  0
 20  7  1  1  0  0  0
 20 10  1  0  0  0  0
 21 22  1  0  0  0  0
 22 23  1  0  0  0  0
 23 25  2  0  0  0  0
 24 23  1  0  0  0  0
M  END
>  <MODEL>
7

>  <REMARK>
 VINA RESULT:      -6.4      2.540      3.491
  Name = 
  3 active torsions:
  status: ('A' for Active; 'I' for Inactive)
    1  A    between atoms: C_2  and  O_21
    2  A    between atoms: C_15  and  C_25
    3  A    between atoms: O_21  and  C_25
                            x       y       z     vdW  Elec       q    Type
                         _______ _______ _______ _____ _____    ______ ____

>  <TORSDO>
F 3

$$$$
=
 OpenBabel10262419493D

 25 29  0  0  1  0  0  0  0  0999 V2000
  182.6850  179.3760  139.9840 C   0  0  2  0  0  3  0  0  0  0  0  0
  182.5390  178.3000  141.0490 C   0  0  1  0  0  3  0  0  0  0  0  0
  180.1880  179.3600  140.0170 N   0  0  0  0  0  2  0  0  0  0  0  0
  183.8370  178.3080  137.9800 N   0  0  2  0  0  0  0  0  0  0  0  0
  185.1520  179.7550  143.2090 C   0  0  0  0  0  2  0  0  0  0  0  0
  183.3180  176.1360  137.3340 C   0  0  0  0  0  2  0  0  0  0  0  0
  180.4770  179.6560  141.3600 N   0  0  0  0  0  2  0  0  0  0  0  0
  182.5700  178.2650  137.2510 C   0  0  1  0  0  3  0  0  0  0  0  0
  182.5100  177.0200  136.5780 O   0  0  0  0  0  0  0  0  0  0  0  0
  181.5330  178.8480  143.3640 C   0  0  0  0  0  0  0  0  0  0  0  0
  180.5560  178.9790  144.1450 O   0  0  0  0  0  0  0  0  0  0  0  0
  185.2170  178.4080  143.9200 C   0  0  1  0  0  3  0  0  0  0  0  0
  183.8300  177.9560  141.7870 C   0  0  0  0  0  2  0  0  0  0  0  0
  184.0400  176.9420  138.3980 C   0  0  0  0  0  2  0  0  0  0  0  0
  181.3890  179.4840  139.1710 C   0  0  2  0  0  3  0  0  0  0  0  0
  181.3340  178.3610  138.1540 C   0  0  0  0  0  2  0  0  0  0  0  0
  182.8490  179.0250  143.8710 N   0  0  0  0  0  2  0  0  0  0  0  0
  183.9330  179.2560  139.1020 C   0  0  0  0  0  2  0  0  0  0  0  0
  184.0180  178.7760  143.0610 C   0  0  2  0  0  0  0  0  0  0  0  0
  181.2740  178.5590  141.9200 C   0  0  2  0  0  3  0  0  0  0  0  0
  186.2700  177.5360  143.2300 C   0  0  0  0  0  2  0  0  0  0  0  0
  187.0320  176.8210  144.1960 O   0  0  0  0  0  0  0  0  0  0  0  0
  187.9950  177.4440  144.9890 C   0  0  0  0  0  0  0  0  0  0  0  0
  187.7600  177.5800  146.4580 C   0  0  0  0  0  1  0  0  0  0  0  0
  189.0750  177.8750  144.4960 O   0  0  0  0  0  0  0  0  0  0  0  0
  1 18  1  6  0  0  0
  1  2  1  0  0  0  0
  2 13  1  1  0  0  0
  2 20  1  0  0  0  0
  3  7  1  0  0  0  0
  4 14  1  1  0  0  0
  4 18  1  0  0  0  0
  5 12  1  0  0  0  0
  6 14  1  0  0  0  0
  8  4  1  0  0  0  0
  8 16  1  1  0  0  0
  9  8  1  0  0  0  0
  9  6  1  0  0  0  0
 10 17  1  0  0  0  0
 10 11  2  0  0  0  0
 12 21  1  6  0  0  0
 15 16  1  6  0  0  0
 15  1  1  0  0  0  0
 15  3  1  0  0  0  0
 19 13  1  6  0  0  0
 19  5  1  0  0  0  0
 19 17  1  0  0  0  0
 19 12  1  0  0  0  0
 20  7  1  6  0  0  0
 20 10  1  0  0  0  0
 21 22  1  0  0  0  0
 22 23  1  0  0  0  0
 23 24  1  0  0  0  0
 25 23  2  0  0  0  0
M  END
>  <MODEL>
8

>  <REMARK>
 VINA RESULT:      -6.3      5.226      8.023
  Name = 
  3 active torsions:
  status: ('A' for Active; 'I' for Inactive)
    1  A    between atoms: C_2  and  O_21
    2  A    between atoms: C_15  and  C_25
    3  A    between atoms: O_21  and  C_25
                            x       y       z     vdW  Elec       q    Type
                         _______ _______ _______ _____ _____    ______ ____

>  <TORSDO>
F 3

$$$$
=
 OpenBabel10262419493D

 25 29  0  0  1  0  0  0  0  0999 V2000
  186.9670  177.1170  144.2020 C   0  0  2  0  0  3  0  0  0  0  0  0
  186.3950  178.5140  144.0200 C   0  0  1  0  0  3  0  0  0  0  0  0
  186.6350  177.5950  146.6300 N   0  0  0  0  0  2  0  0  0  0  0  0
  189.3540  177.1540  143.3160 N   0  0  2  0  0  0  0  0  0  0  0  0
  184.1790  177.5020  141.2500 C   0  0  0  0  0  2  0  0  0  0  0  0
  190.7240  178.9970  143.6810 C   0  0  0  0  0  2  0  0  0  0  0  0
  185.3290  177.7610  146.1380 N   0  0  0  0  0  2  0  0  0  0  0  0
  189.8800  177.1560  144.6810 C   0  0  1  0  0  3  0  0  0  0  0  0
  190.9710  178.0590  144.7140 O   0  0  0  0  0  0  0  0  0  0  0  0
  183.9450  179.0390  144.6440 C   0  0  0  0  0  0  0  0  0  0  0  0
  183.0600  179.3810  145.4710 O   0  0  0  0  0  0  0  0  0  0  0  0
  184.0630  178.9800  140.8950 C   0  0  1  0  0  3  0  0  0  0  0  0
  186.0150  178.8650  142.5850 C   0  0  0  0  0  2  0  0  0  0  0  0
  189.5280  178.5180  142.8780 C   0  0  0  0  0  2  0  0  0  0  0  0
  187.5070  176.9560  145.6280 C   0  0  2  0  0  3  0  0  0  0  0  0
  188.8660  177.6210  145.7330 C   0  0  0  0  0  2  0  0  0  0  0  0
  183.5750  178.8250  143.2890 N   0  0  0  0  0  2  0  0  0  0  0  0
  187.9730  176.6800  143.1310 C   0  0  0  0  0  2  0  0  0  0  0  0
  184.5550  178.5470  142.2660 C   0  0  2  0  0  0  0  0  0  0  0  0
  185.3430  178.8240  145.1270 C   0  0  2  0  0  3  0  0  0  0  0  0
  185.1610  179.3350  139.8890 C   0  0  0  0  0  2  0  0  0  0  0  0
  186.3590  178.6290  140.1930 O   0  0  0  0  0  0  0  0  0  0  0  0
  187.2830  178.2780  139.2100 C   0  0  0  0  0  0  0  0  0  0  0  0
  186.7970  177.8800  137.8540 C   0  0  0  0  0  1  0  0  0  0  0  0
  188.5260  178.3140  139.4320 O   0  0  0  0  0  0  0  0  0  0  0  0
  1 18  1  6  0  0  0
  1 15  1  0  0  0  0
  2 13  1  6  0  0  0
  2  1  1  0  0  0  0
  2 20  1  0  0  0  0
  4 14  1  1  0  0  0
  4  8  1  0  0  0  0
  6  9  1  0  0  0  0
  7  3  1  0  0  0  0
  8  9  1  0  0  0  0
  8 16  1  1  0  0  0
 10 11  2  0  0  0  0
 12 21  1  6  0  0  0
 12  5  1  0  0  0  0
 12 19  1  0  0  0  0
 14  6  1  0  0  0  0
 15 16  1  6  0  0  0
 15  3  1  0  0  0  0
 17 10  1  0  0  0  0
 18  4  1  0  0  0  0
 19  5  1  6  0  0  0
 19 13  1  0  0  0  0
 19 17  1  0  0  0  0
 20 10  1  6  0  0  0
 20  7  1  0  0  0  0
 21 22  1  0  0  0  0
 23 25  2  0  0  0  0
 23 22  1  0  0  0  0
 24 23  1  0  0  0  0
M  END
>  <MODEL>
9

>  <REMARK>
 VINA RESULT:      -5.8      2.637      5.902
  Name = 
  3 active torsions:
  status: ('A' for Active; 'I' for Inactive)
    1  A    between atoms: C_2  and  O_21
    2  A    between atoms: C_15  and  C_25
    3  A    between atoms: O_21  and  C_25
                            x       y       z     vdW  Elec       q    Type
                         _______ _______ _______ _____ _____    ______ ____

>  <TORSDO>
F 3

$$$$
