=
 OpenBabel10262421273D

 32 36  0  0  1  0  0  0  0  0999 V2000
  184.3100  179.0660  139.7690 C   0  0  1  0  0  3  0  0  0  0  0  0
  186.6810  177.8760  143.4330 C   0  0  0  0  0  2  0  0  0  0  0  0
  189.5210  177.2990  138.4450 C   0  0  0  0  0  2  0  0  0  0  0  0
  190.4100  176.4870  139.3990 C   0  0  0  0  0  2  0  0  0  0  0  0
  184.7250  178.2130  142.0330 N   0  0  2  0  0  0  0  0  0  0  0  0
  186.3830  179.6300  140.9090 O   0  0  0  0  0  0  0  0  0  0  0  0
  184.5860  180.1010  138.8730 O   0  0  0  0  0  1  0  0  0  0  0  0
  188.1890  177.6890  139.0810 C   0  0  0  0  0  2  0  0  0  0  0  0
  187.1920  178.5210  141.2080 C   0  0  1  0  0  3  0  0  0  0  0  0
  188.4320  178.5140  140.3490 C   0  0  1  0  0  3  0  0  0  0  0  0
  188.9150  177.9280  142.6500 C   0  0  2  0  0  3  0  0  0  0  0  0
  182.6060  177.9050  140.8320 C   0  0  1  0  0  3  0  0  0  0  0  0
  185.0030  179.3340  141.1090 C   0  0  1  0  0  3  0  0  0  0  0  0
  183.2790  178.0990  142.1960 C   0  0  0  0  0  2  0  0  0  0  0  0
  182.9110  178.9670  139.9440 O   0  0  0  0  0  0  0  0  0  0  0  0
  189.9500  176.5330  140.8600 C   0  0  0  0  0  2  0  0  0  0  0  0
  189.5240  177.9470  141.2560 C   0  0  1  0  0  3  0  0  0  0  0  0
  185.2880  178.4970  143.3470 C   0  0  0  0  0  2  0  0  0  0  0  0
  187.6270  178.6130  142.5970 N   0  0  2  0  0  0  0  0  0  0  0  0
  182.9080  176.5290  140.2360 C   0  0  0  0  0  2  0  0  0  0  0  0
  181.7550  176.0430  139.4280 C   0  0  0  0  0  0  0  0  0  0  0  0
  181.9750  175.4480  138.1930 O   0  0  0  0  0  0  0  0  0  0  0  0
  180.5850  176.1440  139.8770 O   0  0  0  0  0  1  0  0  0  0  0  0
  189.8450  178.5770  143.6810 C   0  0  0  0  0  2  0  0  0  0  0  0
  191.0420  177.0940  145.3140 C   0  0  0  0  0  3  0  0  0  0  0  0
  191.0830  176.3730  146.5110 C   0  0  0  0  0  0  0  0  0  0  0  0
  188.8410  177.1240  147.0400 C   0  0  0  0  0  3  0  0  0  0  0  0
  189.9840  176.3930  147.3770 C   0  0  0  0  0  3  0  0  0  0  0  0
  188.7980  177.8400  145.8390 C   0  0  0  0  0  3  0  0  0  0  0  0
  189.8990  177.8290  144.9750 C   0  0  0  0  0  0  0  0  0  0  0  0
  192.3060  175.6080  146.8780 C   0  0  0  0  0  2  0  0  0  0  0  0
  192.7510  176.0000  148.2040 N   0  0  0  0  0  1  0  0  0  0  0  0
  1  7  1  6  0  0  0
  1 15  1  0  0  0  0
  1 13  1  0  0  0  0
  3  8  1  0  0  0  0
  3  4  1  0  0  0  0
  4 16  1  0  0  0  0
  5 14  1  1  0  0  0
  5 18  1  0  0  0  0
  9  6  1  6  0  0  0
  9 19  1  0  0  0  0
 10  8  1  6  0  0  0
 10  9  1  0  0  0  0
 10 17  1  0  0  0  0
 11 24  1  1  0  0  0
 12 20  1  6  0  0  0
 12 14  1  0  0  0  0
 13  6  1  6  0  0  0
 13  5  1  0  0  0  0
 15 12  1  0  0  0  0
 17 16  1  6  0  0  0
 17 11  1  0  0  0  0
 18  2  1  0  0  0  0
 19 11  1  0  0  0  0
 19  2  1  1  0  0  0
 21 23  1  0  0  0  0
 21 20  1  0  0  0  0
 22 21  2  0  0  0  0
 24 30  1  0  0  0  0
 25 26  1  0  0  0  0
 26 31  1  0  0  0  0
 26 28  2  0  0  0  0
 27 28  1  0  0  0  0
 29 27  2  0  0  0  0
 30 25  2  0  0  0  0
 30 29  1  0  0  0  0
 31 32  1  0  0  0  0
M  END
>  <MODEL>
1

>  <REMARK>
 VINA RESULT:      -8.7      0.000      0.000
  Name = 
  5 active torsions:
  status: ('A' for Active; 'I' for Inactive)
    1  A    between atoms: C_1  and  C_17
    2  A    between atoms: C_7  and  C_22
    3  A    between atoms: C_16  and  C_27
    4  A    between atoms: C_17  and  C_19
    5  A    between atoms: C_27  and  C_32
                            x       y       z     vdW  Elec       q    Type
                         _______ _______ _______ _____ _____    ______ ____

>  <TORSDO>
F 5

$$$$
=
 OpenBabel10262421273D

 32 36  0  0  1  0  0  0  0  0999 V2000
  188.4560  177.1180  136.3630 C   0  0  1  0  0  3  0  0  0  0  0  0
  185.2330  177.9840  139.4170 C   0  0  0  0  0  2  0  0  0  0  0  0
  190.4200  176.8350  141.6630 C   0  0  0  0  0  2  0  0  0  0  0  0
  189.5160  176.7020  142.8980 C   0  0  0  0  0  2  0  0  0  0  0  0
  186.2010  177.2040  137.3300 N   0  0  2  0  0  0  0  0  0  0  0  0
  187.9820  178.6570  138.1850 O   0  0  0  0  0  0  0  0  0  0  0  0
  189.6200  177.8500  136.1200 O   0  0  0  0  0  1  0  0  0  0  0  0
  189.6220  176.9460  140.3660 C   0  0  0  0  0  2  0  0  0  0  0  0
  187.6040  178.0270  139.3830 C   0  0  1  0  0  3  0  0  0  0  0  0
  188.6880  178.1580  140.4240 C   0  0  1  0  0  3  0  0  0  0  0  0
  186.4800  178.5170  141.3570 C   0  0  2  0  0  3  0  0  0  0  0  0
  186.7840  175.8580  135.3610 C   0  0  1  0  0  3  0  0  0  0  0  0
  187.4140  178.0040  137.0540 C   0  0  1  0  0  3  0  0  0  0  0  0
  185.6970  176.6800  136.0650 C   0  0  0  0  0  2  0  0  0  0  0  0
  187.9540  176.6260  135.1360 O   0  0  0  0  0  0  0  0  0  0  0  0
  188.0480  177.0510  142.6280 C   0  0  0  0  0  2  0  0  0  0  0  0
  187.9340  178.2950  141.7480 C   0  0  1  0  0  3  0  0  0  0  0  0
  185.1590  178.0540  137.8930 C   0  0  0  0  0  2  0  0  0  0  0  0
  186.4140  178.6880  139.9090 N   0  0  2  0  0  0  0  0  0  0  0  0
  187.0700  174.5440  136.0910 C   0  0  0  0  0  2  0  0  0  0  0  0
  185.8170  173.7580  136.2630 C   0  0  0  0  0  0  0  0  0  0  0  0
  185.3220  173.5100  137.5370 O   0  0  0  0  0  1  0  0  0  0  0  0
  185.1900  173.3430  135.2550 O   0  0  0  0  0  0  0  0  0  0  0  0
  185.8770  179.7230  142.0850 C   0  0  0  0  0  2  0  0  0  0  0  0
  185.4500  179.0550  144.4670 C   0  0  0  0  0  3  0  0  0  0  0  0
  184.5850  178.6670  145.4940 C   0  0  0  0  0  0  0  0  0  0  0  0
  182.7050  178.8480  143.9750 C   0  0  0  0  0  3  0  0  0  0  0  0
  183.2100  178.5700  145.2480 C   0  0  0  0  0  3  0  0  0  0  0  0
  183.5720  179.2290  142.9460 C   0  0  0  0  0  3  0  0  0  0  0  0
  184.9470  179.3360  143.1910 C   0  0  0  0  0  0  0  0  0  0  0  0
  185.1200  178.3880  146.8540 C   0  0  0  0  0  2  0  0  0  0  0  0
  185.8480  179.5450  147.3430 N   0  0  0  0  0  1  0  0  0  0  0  0
  1  7  1  6  0  0  0
  1 13  1  0  0  0  0
  3  4  1  0  0  0  0
  5 14  1  6  0  0  0
  5 18  1  0  0  0  0
  8  3  1  0  0  0  0
  9  6  1  6  0  0  0
  9 19  1  0  0  0  0
  9 10  1  0  0  0  0
 10  8  1  1  0  0  0
 10 17  1  0  0  0  0
 11 17  1  0  0  0  0
 11 24  1  1  0  0  0
 12 14  1  0  0  0  0
 12 20  1  1  0  0  0
 13  5  1  0  0  0  0
 13  6  1  1  0  0  0
 15 12  1  0  0  0  0
 15  1  1  0  0  0  0
 16  4  1  0  0  0  0
 17 16  1  1  0  0  0
 18  2  1  0  0  0  0
 19  2  1  6  0  0  0
 19 11  1  0  0  0  0
 20 21  1  0  0  0  0
 21 22  1  0  0  0  0
 23 21  2  0  0  0  0
 24 30  1  0  0  0  0
 25 26  1  0  0  0  0
 26 31  1  0  0  0  0
 27 28  1  0  0  0  0
 28 26  2  0  0  0  0
 29 30  1  0  0  0  0
 29 27  2  0  0  0  0
 30 25  2  0  0  0  0
 31 32  1  0  0  0  0
M  END
>  <MODEL>
2

>  <REMARK>
 VINA RESULT:      -8.1      3.250      5.369
  Name = 
  5 active torsions:
  status: ('A' for Active; 'I' for Inactive)
    1  A    between atoms: C_1  and  C_17
    2  A    between atoms: C_7  and  C_22
    3  A    between atoms: C_16  and  C_27
    4  A    between atoms: C_17  and  C_19
    5  A    between atoms: C_27  and  C_32
                            x       y       z     vdW  Elec       q    Type
                         _______ _______ _______ _____ _____    ______ ____

>  <TORSDO>
F 5

$$$$
=
 OpenBabel10262421273D

 32 36  0  0  1  0  0  0  0  0999 V2000
  191.0510  176.4010  137.7270 C   0  0  1  0  0  3  0  0  0  0  0  0
  186.8720  177.5870  138.9910 C   0  0  0  0  0  2  0  0  0  0  0  0
  190.4410  176.3600  143.3530 C   0  0  0  0  0  2  0  0  0  0  0  0
  189.0770  176.3400  144.0590 C   0  0  0  0  0  2  0  0  0  0  0  0
  188.6120  176.6410  137.5840 N   0  0  2  0  0  0  0  0  0  0  0  0
  189.9200  178.0670  139.0910 O   0  0  0  0  0  0  0  0  0  0  0  0
  192.2460  177.0670  138.0030 O   0  0  0  0  0  1  0  0  0  0  0  0
  190.3090  176.4250  141.8330 C   0  0  0  0  0  2  0  0  0  0  0  0
  189.0100  177.5280  140.0160 C   0  0  1  0  0  3  0  0  0  0  0  0
  189.5270  177.6770  141.4250 C   0  0  1  0  0  3  0  0  0  0  0  0
  187.1620  178.1840  141.2630 C   0  0  2  0  0  3  0  0  0  0  0  0
  189.9180  175.1540  136.1310 C   0  0  1  0  0  3  0  0  0  0  0  0
  189.8700  177.3710  137.8480 C   0  0  1  0  0  3  0  0  0  0  0  0
  188.6870  176.0620  136.2460 C   0  0  0  0  0  2  0  0  0  0  0  0
  191.1140  175.8570  136.4240 O   0  0  0  0  0  0  0  0  0  0  0  0
  187.9070  176.7330  143.1510 C   0  0  0  0  0  2  0  0  0  0  0  0
  188.2750  177.9260  142.2680 C   0  0  1  0  0  3  0  0  0  0  0  0
  187.4850  177.5670  137.5920 C   0  0  0  0  0  2  0  0  0  0  0  0
  187.7560  178.2690  139.9330 N   0  0  2  0  0  0  0  0  0  0  0  0
  189.7650  173.8760  136.9580 C   0  0  0  0  0  2  0  0  0  0  0  0
  188.7250  172.9900  136.3650 C   0  0  0  0  0  0  0  0  0  0  0  0
  187.6450  172.5770  137.1340 O   0  0  0  0  0  1  0  0  0  0  0  0
  188.8080  172.6410  135.1600 O   0  0  0  0  0  0  0  0  0  0  0  0
  186.3790  179.4570  141.6030 C   0  0  0  0  0  2  0  0  0  0  0  0
  185.3290  179.0630  143.8480 C   0  0  0  0  0  3  0  0  0  0  0  0
  184.2150  178.7940  144.6490 C   0  0  0  0  0  0  0  0  0  0  0  0
  182.8010  178.8010  142.6820 C   0  0  0  0  0  3  0  0  0  0  0  0
  182.9490  178.6690  144.0650 C   0  0  0  0  0  3  0  0  0  0  0  0
  183.9160  179.0630  141.8800 C   0  0  0  0  0  3  0  0  0  0  0  0
  185.1820  179.1980  142.4620 C   0  0  0  0  0  0  0  0  0  0  0  0
  184.3700  178.6700  146.1240 C   0  0  0  0  0  2  0  0  0  0  0  0
  185.5560  179.3900  146.5560 N   0  0  0  0  0  1  0  0  0  0  0  0
  1 13  1  0  0  0  0
  1  7  1  6  0  0  0
  3  4  1  0  0  0  0
  5 14  1  6  0  0  0
  5 18  1  0  0  0  0
  5 13  1  0  0  0  0
  8  3  1  0  0  0  0
  9  6  1  6  0  0  0
  9 10  1  0  0  0  0
 10  8  1  1  0  0  0
 10 17  1  0  0  0  0
 11 24  1  1  0  0  0
 11 17  1  0  0  0  0
 12 14  1  0  0  0  0
 12 15  1  0  0  0  0
 12 20  1  1  0  0  0
 13  6  1  1  0  0  0
 15  1  1  0  0  0  0
 16  4  1  0  0  0  0
 17 16  1  6  0  0  0
 18  2  1  0  0  0  0
 19  2  1  6  0  0  0
 19  9  1  0  0  0  0
 19 11  1  0  0  0  0
 21 20  1  0  0  0  0
 21 22  1  0  0  0  0
 23 21  2  0  0  0  0
 24 30  1  0  0  0  0
 25 26  1  0  0  0  0
 26 31  1  0  0  0  0
 27 28  1  0  0  0  0
 28 26  2  0  0  0  0
 29 30  1  0  0  0  0
 29 27  2  0  0  0  0
 30 25  2  0  0  0  0
 31 32  1  0  0  0  0
M  END
>  <MODEL>
3

>  <REMARK>
 VINA RESULT:      -8.1      3.622      6.465
  Name = 
  5 active torsions:
  status: ('A' for Active; 'I' for Inactive)
    1  A    between atoms: C_1  and  C_17
    2  A    between atoms: C_7  and  C_22
    3  A    between atoms: C_16  and  C_27
    4  A    between atoms: C_17  and  C_19
    5  A    between atoms: C_27  and  C_32
                            x       y       z     vdW  Elec       q    Type
                         _______ _______ _______ _____ _____    ______ ____

>  <TORSDO>
F 5

$$$$
=
 OpenBabel10262421273D

 32 36  0  0  1  0  0  0  0  0999 V2000
  190.9610  176.4630  137.8740 C   0  0  1  0  0  3  0  0  0  0  0  0
  186.7710  177.6460  139.1040 C   0  0  0  0  0  2  0  0  0  0  0  0
  190.2980  176.4000  143.4940 C   0  0  0  0  0  2  0  0  0  0  0  0
  188.9270  176.3780  144.1880 C   0  0  0  0  0  2  0  0  0  0  0  0
  188.5230  176.7050  137.7090 N   0  0  2  0  0  0  0  0  0  0  0  0
  189.8180  178.1250  139.2340 O   0  0  0  0  0  0  0  0  0  0  0  0
  192.1540  177.1280  138.1640 O   0  0  0  0  0  1  0  0  0  0  0  0
  190.1810  176.4710  141.9730 C   0  0  0  0  0  2  0  0  0  0  0  0
  188.8990  177.5820  140.1480 C   0  0  1  0  0  3  0  0  0  0  0  0
  189.4030  177.7250  141.5630 C   0  0  1  0  0  3  0  0  0  0  0  0
  187.0400  178.2340  141.3810 C   0  0  2  0  0  3  0  0  0  0  0  0
  189.8430  175.2230  136.2630 C   0  0  1  0  0  3  0  0  0  0  0  0
  189.7800  177.4330  137.9890 C   0  0  1  0  0  3  0  0  0  0  0  0
  188.6110  176.1320  136.3700 C   0  0  0  0  0  2  0  0  0  0  0  0
  191.0360  175.9250  136.5700 O   0  0  0  0  0  0  0  0  0  0  0  0
  187.7660  176.7750  143.2700 C   0  0  0  0  0  2  0  0  0  0  0  0
  188.1430  177.9710  142.3960 C   0  0  1  0  0  3  0  0  0  0  0  0
  187.3970  177.6310  137.7110 C   0  0  0  0  0  2  0  0  0  0  0  0
  187.6460  178.3240  140.0570 N   0  0  2  0  0  0  0  0  0  0  0  0
  189.6810  173.9430  137.0830 C   0  0  0  0  0  2  0  0  0  0  0  0
  188.6560  173.0530  136.4690 C   0  0  0  0  0  0  0  0  0  0  0  0
  187.5680  172.6280  137.2190 O   0  0  0  0  0  1  0  0  0  0  0  0
  188.7600  172.7110  135.2630 O   0  0  0  0  0  0  0  0  0  0  0  0
  186.2540  179.5060  141.7180 C   0  0  0  0  0  2  0  0  0  0  0  0
  183.7980  178.9990  141.8020 C   0  0  0  0  0  3  0  0  0  0  0  0
  182.6180  178.7710  142.5160 C   0  0  0  0  0  0  0  0  0  0  0  0
  183.8350  179.0030  144.5980 C   0  0  0  0  0  3  0  0  0  0  0  0
  182.6380  178.7670  143.9150 C   0  0  0  0  0  3  0  0  0  0  0  0
  185.0130  179.2380  143.8830 C   0  0  0  0  0  3  0  0  0  0  0  0
  184.9980  179.2330  142.4840 C   0  0  0  0  0  0  0  0  0  0  0  0
  181.3460  178.5020  141.7890 C   0  0  0  0  0  2  0  0  0  0  0  0
  181.6360  177.9060  140.4970 N   0  0  0  0  0  1  0  0  0  0  0  0
  1 13  1  0  0  0  0
  1  7  1  6  0  0  0
  3  4  1  0  0  0  0
  5 14  1  6  0  0  0
  5 18  1  0  0  0  0
  5 13  1  0  0  0  0
  8  3  1  0  0  0  0
  9  6  1  6  0  0  0
  9 10  1  0  0  0  0
 10  8  1  1  0  0  0
 10 17  1  0  0  0  0
 11 24  1  1  0  0  0
 11 17  1  0  0  0  0
 12 14  1  0  0  0  0
 12 15  1  0  0  0  0
 12 20  1  1  0  0  0
 13  6  1  1  0  0  0
 15  1  1  0  0  0  0
 16  4  1  0  0  0  0
 17 16  1  6  0  0  0
 18  2  1  0  0  0  0
 19  2  1  6  0  0  0
 19  9  1  0  0  0  0
 19 11  1  0  0  0  0
 21 20  1  0  0  0  0
 21 22  1  0  0  0  0
 23 21  2  0  0  0  0
 24 30  1  0  0  0  0
 25 30  2  0  0  0  0
 25 26  1  0  0  0  0
 26 28  2  0  0  0  0
 28 27  1  0  0  0  0
 29 27  2  0  0  0  0
 30 29  1  0  0  0  0
 31 26  1  0  0  0  0
 32 31  1  0  0  0  0
M  END
>  <MODEL>
4

>  <REMARK>
 VINA RESULT:      -7.8      3.655      6.948
  Name = 
  5 active torsions:
  status: ('A' for Active; 'I' for Inactive)
    1  A    between atoms: C_1  and  C_17
    2  A    between atoms: C_7  and  C_22
    3  A    between atoms: C_16  and  C_27
    4  A    between atoms: C_17  and  C_19
    5  A    between atoms: C_27  and  C_32
                            x       y       z     vdW  Elec       q    Type
                         _______ _______ _______ _____ _____    ______ ____

>  <TORSDO>
F 5

$$$$
=
 OpenBabel10262421273D

 32 36  0  0  1  0  0  0  0  0999 V2000
  188.5330  178.4400  137.5050 C   0  0  1  0  0  3  0  0  0  0  0  0
  184.5380  176.3330  137.2560 C   0  0  0  0  0  2  0  0  0  0  0  0
  185.3650  179.3410  142.1070 C   0  0  0  0  0  2  0  0  0  0  0  0
  184.1530  178.4770  142.4860 C   0  0  0  0  0  2  0  0  0  0  0  0
  186.9050  176.7170  136.8680 N   0  0  2  0  0  0  0  0  0  0  0  0
  186.1550  178.9440  137.5710 O   0  0  0  0  0  0  0  0  0  0  0  0
  188.7700  179.8140  137.5710 O   0  0  0  0  0  1  0  0  0  0  0  0
  186.0000  178.9080  140.7870 C   0  0  0  0  0  2  0  0  0  0  0  0
  185.4280  178.1580  138.4810 C   0  0  1  0  0  3  0  0  0  0  0  0
  184.9690  178.9840  139.6570 C   0  0  1  0  0  3  0  0  0  0  0  0
  183.2410  177.4760  138.8730 C   0  0  2  0  0  3  0  0  0  0  0  0
  189.3350  176.4330  136.6600 C   0  0  1  0  0  3  0  0  0  0  0  0
  187.1500  178.1750  136.9010 C   0  0  1  0  0  3  0  0  0  0  0  0
  187.9590  176.0910  136.0750 C   0  0  0  0  0  2  0  0  0  0  0  0
  189.5410  177.8340  136.7210 O   0  0  0  0  0  0  0  0  0  0  0  0
  183.6270  177.6140  141.3340 C   0  0  0  0  0  2  0  0  0  0  0  0
  183.6030  178.4030  140.0250 C   0  0  1  0  0  3  0  0  0  0  0  0
  185.6380  176.4380  136.2010 C   0  0  0  0  0  2  0  0  0  0  0  0
  184.2340  177.6470  137.8170 N   0  0  2  0  0  0  0  0  0  0  0  0
  189.5740  175.7410  138.0030 C   0  0  0  0  0  2  0  0  0  0  0  0
  191.0320  175.5690  138.2520 C   0  0  0  0  0  0  0  0  0  0  0  0
  191.7540  176.5790  138.8740 O   0  0  0  0  0  1  0  0  0  0  0  0
  191.6050  174.4980  137.9250 O   0  0  0  0  0  0  0  0  0  0  0  0
  181.8260  177.7480  138.3530 C   0  0  0  0  0  2  0  0  0  0  0  0
  180.5810  179.3800  139.7980 C   0  0  0  0  0  3  0  0  0  0  0  0
  180.1110  180.6700  140.0650 C   0  0  0  0  0  0  0  0  0  0  0  0
  181.1800  181.4750  138.0440 C   0  0  0  0  0  3  0  0  0  0  0  0
  180.4170  181.7190  139.1900 C   0  0  0  0  0  3  0  0  0  0  0  0
  181.6440  180.1840  137.7750 C   0  0  0  0  0  3  0  0  0  0  0  0
  181.3480  179.1340  138.6530 C   0  0  0  0  0  0  0  0  0  0  0  0
  179.3130  180.9330  141.2930 C   0  0  0  0  0  2  0  0  0  0  0  0
  180.0600  180.5110  142.4650 N   0  0  0  0  0  1  0  0  0  0  0  0
  1  7  1  6  0  0  0
  3  4  1  0  0  0  0
  5 14  1  6  0  0  0
  5 13  1  0  0  0  0
  8  3  1  0  0  0  0
  9  6  1  6  0  0  0
  9 10  1  0  0  0  0
 10 17  1  0  0  0  0
 10  8  1  1  0  0  0
 11 24  1  6  0  0  0
 11 17  1  0  0  0  0
 12 15  1  0  0  0  0
 12 20  1  1  0  0  0
 13  1  1  0  0  0  0
 13  6  1  1  0  0  0
 14 12  1  0  0  0  0
 15  1  1  0  0  0  0
 16  4  1  0  0  0  0
 17 16  1  1  0  0  0
 18  5  1  0  0  0  0
 18  2  1  0  0  0  0
 19  2  1  1  0  0  0
 19  9  1  0  0  0  0
 19 11  1  0  0  0  0
 20 21  1  0  0  0  0
 21 22  1  0  0  0  0
 23 21  2  0  0  0  0
 24 30  1  0  0  0  0
 25 26  1  0  0  0  0
 26 31  1  0  0  0  0
 27 28  1  0  0  0  0
 28 26  2  0  0  0  0
 29 27  2  0  0  0  0
 29 30  1  0  0  0  0
 30 25  2  0  0  0  0
 31 32  1  0  0  0  0
M  END
>  <MODEL>
5

>  <REMARK>
 VINA RESULT:      -7.3      4.875      8.808
  Name = 
  5 active torsions:
  status: ('A' for Active; 'I' for Inactive)
    1  A    between atoms: C_1  and  C_17
    2  A    between atoms: C_7  and  C_22
    3  A    between atoms: C_16  and  C_27
    4  A    between atoms: C_17  and  C_19
    5  A    between atoms: C_27  and  C_32
                            x       y       z     vdW  Elec       q    Type
                         _______ _______ _______ _____ _____    ______ ____

>  <TORSDO>
F 5

$$$$
=
 OpenBabel10262421273D

 32 36  0  0  1  0  0  0  0  0999 V2000
  184.8390  178.5710  138.6130 C   0  0  1  0  0  3  0  0  0  0  0  0
  184.4240  177.8770  143.0640 C   0  0  0  0  0  2  0  0  0  0  0  0
  189.7220  176.9580  140.9770 C   0  0  0  0  0  2  0  0  0  0  0  0
  189.8180  176.2920  142.3580 C   0  0  0  0  0  2  0  0  0  0  0  0
  183.7530  177.9700  140.7310 N   0  0  2  0  0  0  0  0  0  0  0  0
  185.7790  179.3540  140.7160 O   0  0  0  0  0  0  0  0  0  0  0  0
  185.6290  179.5250  137.9690 O   0  0  0  0  0  1  0  0  0  0  0  0
  188.2890  177.3390  140.6120 C   0  0  0  0  0  2  0  0  0  0  0  0
  186.2100  178.3230  141.5690 C   0  0  1  0  0  3  0  0  0  0  0  0
  187.7150  178.2970  141.6600 C   0  0  1  0  0  3  0  0  0  0  0  0
  186.6650  177.9690  143.8200 C   0  0  2  0  0  3  0  0  0  0  0  0
  182.8190  177.4330  138.5250 C   0  0  1  0  0  3  0  0  0  0  0  0
  184.5640  179.0060  140.0560 C   0  0  1  0  0  3  0  0  0  0  0  0
  182.5120  177.7970  139.9830 C   0  0  0  0  0  2  0  0  0  0  0  0
  183.6280  178.4160  137.9020 O   0  0  0  0  0  0  0  0  0  0  0  0
  188.5560  176.4590  143.2120 C   0  0  0  0  0  2  0  0  0  0  0  0
  188.0050  177.8810  143.1030 C   0  0  1  0  0  3  0  0  0  0  0  0
  183.3920  178.4120  142.0730 C   0  0  0  0  0  2  0  0  0  0  0  0
  185.6980  178.5760  142.9110 N   0  0  2  0  0  0  0  0  0  0  0  0
  183.3980  176.0230  138.3970 C   0  0  0  0  0  2  0  0  0  0  0  0
  182.5410  175.1830  137.5150 C   0  0  0  0  0  0  0  0  0  0  0  0
  182.9120  174.9590  136.1960 O   0  0  0  0  0  0  0  0  0  0  0  0
  181.4970  174.6510  137.9720 O   0  0  0  0  0  1  0  0  0  0  0  0
  186.7750  178.7650  145.1250 C   0  0  0  0  0  2  0  0  0  0  0  0
  188.9920  177.7530  145.7260 C   0  0  0  0  0  3  0  0  0  0  0  0
  189.8520  177.1450  146.6450 C   0  0  0  0  0  0  0  0  0  0  0  0
  188.1430  177.3150  148.3540 C   0  0  0  0  0  3  0  0  0  0  0  0
  189.4280  176.9310  147.9620 C   0  0  0  0  0  3  0  0  0  0  0  0
  187.2800  177.9170  147.4320 C   0  0  0  0  0  3  0  0  0  0  0  0
  187.7050  178.1400  146.1170 C   0  0  0  0  0  0  0  0  0  0  0  0
  191.2270  176.7520  146.2320 C   0  0  0  0  0  2  0  0  0  0  0  0
  192.0530  176.5470  147.4090 N   0  0  0  0  0  1  0  0  0  0  0  0
  1  7  1  6  0  0  0
  1 13  1  0  0  0  0
  3  4  1  0  0  0  0
  4 16  1  0  0  0  0
  5 14  1  6  0  0  0
  5 18  1  0  0  0  0
  8  3  1  0  0  0  0
  9  6  1  6  0  0  0
  9 10  1  0  0  0  0
  9 19  1  0  0  0  0
 10  8  1  6  0  0  0
 10 17  1  0  0  0  0
 11 24  1  1  0  0  0
 12 20  1  1  0  0  0
 12 14  1  0  0  0  0
 13  6  1  1  0  0  0
 13  5  1  0  0  0  0
 15 12  1  0  0  0  0
 15  1  1  0  0  0  0
 17 16  1  6  0  0  0
 17 11  1  0  0  0  0
 18  2  1  0  0  0  0
 19  2  1  6  0  0  0
 19 11  1  0  0  0  0
 21 23  1  0  0  0  0
 21 20  1  0  0  0  0
 22 21  2  0  0  0  0
 24 30  1  0  0  0  0
 25 30  2  0  0  0  0
 25 26  1  0  0  0  0
 26 28  2  0  0  0  0
 28 27  1  0  0  0  0
 29 27  2  0  0  0  0
 30 29  1  0  0  0  0
 31 26  1  0  0  0  0
 31 32  1  0  0  0  0
M  END
>  <MODEL>
6

>  <REMARK>
 VINA RESULT:      -7.3      1.369      2.077
  Name = 
  5 active torsions:
  status: ('A' for Active; 'I' for Inactive)
    1  A    between atoms: C_1  and  C_17
    2  A    between atoms: C_7  and  C_22
    3  A    between atoms: C_16  and  C_27
    4  A    between atoms: C_17  and  C_19
    5  A    between atoms: C_27  and  C_32
                            x       y       z     vdW  Elec       q    Type
                         _______ _______ _______ _____ _____    ______ ____

>  <TORSDO>
F 5

$$$$
=
 OpenBabel10262421273D

 32 36  0  0  1  0  0  0  0  0999 V2000
  188.7660  178.4080  137.5280 C   0  0  1  0  0  3  0  0  0  0  0  0
  184.6940  176.4650  137.2040 C   0  0  0  0  0  2  0  0  0  0  0  0
  185.6020  179.3240  142.1300 C   0  0  0  0  0  2  0  0  0  0  0  0
  184.3540  178.4990  142.4810 C   0  0  0  0  0  2  0  0  0  0  0  0
  187.0770  176.7650  136.8400 N   0  0  2  0  0  0  0  0  0  0  0  0
  186.4090  179.0030  137.5920 O   0  0  0  0  0  0  0  0  0  0  0  0
  189.0560  179.7700  137.6290 O   0  0  0  0  0  1  0  0  0  0  0  0
  186.2290  178.8970  140.8050 C   0  0  0  0  0  2  0  0  0  0  0  0
  185.6460  178.2240  138.4780 C   0  0  1  0  0  3  0  0  0  0  0  0
  185.2110  179.0400  139.6700 C   0  0  1  0  0  3  0  0  0  0  0  0
  183.4310  177.6190  138.8400 C   0  0  2  0  0  3  0  0  0  0  0  0
  189.4950  176.3910  136.6420 C   0  0  1  0  0  3  0  0  0  0  0  0
  187.3780  178.2110  136.9100 C   0  0  1  0  0  3  0  0  0  0  0  0
  188.1110  176.1170  136.0400 C   0  0  0  0  0  2  0  0  0  0  0  0
  189.7560  177.7810  136.7370 O   0  0  0  0  0  0  0  0  0  0  0  0
  183.8040  177.6840  141.3060 C   0  0  0  0  0  2  0  0  0  0  0  0
  183.8210  178.5040  140.0160 C   0  0  1  0  0  3  0  0  0  0  0  0
  185.8050  176.5520  136.1590 C   0  0  0  0  0  2  0  0  0  0  0  0
  184.4370  177.7760  137.7950 N   0  0  2  0  0  0  0  0  0  0  0  0
  189.6970  175.6590  137.9690 C   0  0  0  0  0  2  0  0  0  0  0  0
  191.1430  175.6060  138.3240 C   0  0  0  0  0  0  0  0  0  0  0  0
  191.9050  174.5020  137.9680 O   0  0  0  0  0  0  0  0  0  0  0  0
  191.6800  176.5760  138.9190 O   0  0  0  0  0  1  0  0  0  0  0  0
  182.0310  177.9590  138.3170 C   0  0  0  0  0  2  0  0  0  0  0  0
  180.6420  179.3080  139.9150 C   0  0  0  0  0  3  0  0  0  0  0  0
  179.7050  179.3980  140.9490 C   0  0  0  0  0  0  0  0  0  0  0  0
  179.4870  176.9840  140.9590 C   0  0  0  0  0  3  0  0  0  0  0  0
  179.1230  178.2350  141.4660 C   0  0  0  0  0  3  0  0  0  0  0  0
  180.4300  176.8940  139.9300 C   0  0  0  0  0  3  0  0  0  0  0  0
  181.0070  178.0560  139.4040 C   0  0  0  0  0  0  0  0  0  0  0  0
  179.3040  180.7300  141.4770 C   0  0  0  0  0  2  0  0  0  0  0  0
  179.7720  180.8780  142.8440 N   0  0  0  0  0  1  0  0  0  0  0  0
  1  7  1  6  0  0  0
  3  4  1  0  0  0  0
  5 14  1  6  0  0  0
  5 13  1  0  0  0  0
  8  3  1  0  0  0  0
  9  6  1  6  0  0  0
  9 10  1  0  0  0  0
 10 17  1  0  0  0  0
 10  8  1  1  0  0  0
 11 24  1  6  0  0  0
 11 17  1  0  0  0  0
 12 15  1  0  0  0  0
 12 20  1  1  0  0  0
 13  1  1  0  0  0  0
 13  6  1  1  0  0  0
 14 12  1  0  0  0  0
 15  1  1  0  0  0  0
 16  4  1  0  0  0  0
 17 16  1  1  0  0  0
 18  5  1  0  0  0  0
 18  2  1  0  0  0  0
 19  2  1  1  0  0  0
 19  9  1  0  0  0  0
 19 11  1  0  0  0  0
 20 21  1  0  0  0  0
 21 23  1  0  0  0  0
 22 21  2  0  0  0  0
 24 30  1  0  0  0  0
 25 26  1  0  0  0  0
 26 28  2  0  0  0  0
 26 31  1  0  0  0  0
 27 28  1  0  0  0  0
 29 27  2  0  0  0  0
 30 25  2  0  0  0  0
 30 29  1  0  0  0  0
 31 32  1  0  0  0  0
M  END
>  <MODEL>
7

>  <REMARK>
 VINA RESULT:      -7.1      4.815      8.630
  Name = 
  5 active torsions:
  status: ('A' for Active; 'I' for Inactive)
    1  A    between atoms: C_1  and  C_17
    2  A    between atoms: C_7  and  C_22
    3  A    between atoms: C_16  and  C_27
    4  A    between atoms: C_17  and  C_19
    5  A    between atoms: C_27  and  C_32
                            x       y       z     vdW  Elec       q    Type
                         _______ _______ _______ _____ _____    ______ ____

>  <TORSDO>
F 5

$$$$
=
 OpenBabel10262421273D

 32 36  0  0  1  0  0  0  0  0999 V2000
  188.7040  178.4170  137.4730 C   0  0  1  0  0  3  0  0  0  0  0  0
  184.7080  176.3720  136.9120 C   0  0  0  0  0  2  0  0  0  0  0  0
  185.2860  179.1760  141.9190 C   0  0  0  0  0  2  0  0  0  0  0  0
  184.0450  178.3130  142.1940 C   0  0  0  0  0  2  0  0  0  0  0  0
  187.0970  176.7410  136.6760 N   0  0  2  0  0  0  0  0  0  0  0  0
  186.3310  178.9480  137.4240 O   0  0  0  0  0  0  0  0  0  0  0  0
  188.9510  179.7850  137.6080 O   0  0  0  0  0  1  0  0  0  0  0  0
  185.9910  178.7870  140.6220 C   0  0  0  0  0  2  0  0  0  0  0  0
  185.5460  178.1360  138.2590 C   0  0  1  0  0  3  0  0  0  0  0  0
  185.0280  178.9210  139.4390 C   0  0  1  0  0  3  0  0  0  0  0  0
  183.3330  177.4670  138.4980 C   0  0  2  0  0  3  0  0  0  0  0  0
  189.5320  176.4350  136.5960 C   0  0  1  0  0  3  0  0  0  0  0  0
  187.3550  178.1940  136.7810 C   0  0  1  0  0  3  0  0  0  0  0  0
  188.1880  176.1340  135.9200 C   0  0  0  0  0  2  0  0  0  0  0  0
  189.7490  177.8300  136.7250 O   0  0  0  0  0  0  0  0  0  0  0  0
  183.5780  177.5030  140.9810 C   0  0  0  0  0  2  0  0  0  0  0  0
  183.6380  178.3430  139.7050 C   0  0  1  0  0  3  0  0  0  0  0  0
  185.8680  176.5050  135.9270 C   0  0  0  0  0  2  0  0  0  0  0  0
  184.3860  177.6670  137.5080 N   0  0  2  0  0  0  0  0  0  0  0  0
  189.6860  175.6870  137.9210 C   0  0  0  0  0  2  0  0  0  0  0  0
  191.1220  175.5940  138.3060 C   0  0  0  0  0  0  0  0  0  0  0  0
  191.7040  176.6000  139.0640 O   0  0  0  0  0  1  0  0  0  0  0  0
  191.8000  174.5890  137.9690 O   0  0  0  0  0  0  0  0  0  0  0  0
  181.9520  177.7780  137.9090 C   0  0  0  0  0  2  0  0  0  0  0  0
  181.5540  180.2550  137.9750 C   0  0  0  0  0  3  0  0  0  0  0  0
  180.9800  181.3880  138.5590 C   0  0  0  0  0  0  0  0  0  0  0  0
  179.9160  179.9880  140.2260 C   0  0  0  0  0  3  0  0  0  0  0  0
  180.1550  181.2530  139.6810 C   0  0  0  0  0  3  0  0  0  0  0  0
  180.4960  178.8560  139.6460 C   0  0  0  0  0  3  0  0  0  0  0  0
  181.3140  178.9870  138.5170 C   0  0  0  0  0  0  0  0  0  0  0  0
  181.2200  182.7340  137.9690 C   0  0  0  0  0  2  0  0  0  0  0  0
  179.9550  183.4210  137.7820 N   0  0  0  0  0  1  0  0  0  0  0  0
  1  7  1  6  0  0  0
  3  4  1  0  0  0  0
  5 14  1  6  0  0  0
  5 13  1  0  0  0  0
  8  3  1  0  0  0  0
  9  6  1  6  0  0  0
  9 10  1  0  0  0  0
 10 17  1  0  0  0  0
 10  8  1  1  0  0  0
 11 24  1  6  0  0  0
 11 17  1  0  0  0  0
 12 15  1  0  0  0  0
 12 20  1  1  0  0  0
 13  6  1  1  0  0  0
 13  1  1  0  0  0  0
 14 12  1  0  0  0  0
 15  1  1  0  0  0  0
 16  4  1  0  0  0  0
 17 16  1  1  0  0  0
 18  5  1  0  0  0  0
 18  2  1  0  0  0  0
 19  2  1  1  0  0  0
 19  9  1  0  0  0  0
 19 11  1  0  0  0  0
 20 21  1  0  0  0  0
 21 22  1  0  0  0  0
 23 21  2  0  0  0  0
 24 30  1  0  0  0  0
 25 30  2  0  0  0  0
 25 26  1  0  0  0  0
 26 28  2  0  0  0  0
 28 27  1  0  0  0  0
 29 27  2  0  0  0  0
 30 29  1  0  0  0  0
 31 26  1  0  0  0  0
 32 31  1  0  0  0  0
M  END
>  <MODEL>
8

>  <REMARK>
 VINA RESULT:      -7.0      4.956      9.073
  Name = 
  5 active torsions:
  status: ('A' for Active; 'I' for Inactive)
    1  A    between atoms: C_1  and  C_17
    2  A    between atoms: C_7  and  C_22
    3  A    between atoms: C_16  and  C_27
    4  A    between atoms: C_17  and  C_19
    5  A    between atoms: C_27  and  C_32
                            x       y       z     vdW  Elec       q    Type
                         _______ _______ _______ _____ _____    ______ ____

>  <TORSDO>
F 5

$$$$
=
 OpenBabel10262421273D

 32 36  0  0  1  0  0  0  0  0999 V2000
  180.2170  178.2810  140.3050 C   0  0  1  0  0  3  0  0  0  0  0  0
  184.4650  179.4880  139.3210 C   0  0  0  0  0  2  0  0  0  0  0  0
  183.3560  178.9950  144.9600 C   0  0  0  0  0  2  0  0  0  0  0  0
  184.6900  179.7570  144.9760 C   0  0  0  0  0  2  0  0  0  0  0  0
  182.0570  179.3160  139.0510 N   0  0  2  0  0  0  0  0  0  0  0  0
  182.5000  177.5220  140.6640 O   0  0  0  0  0  0  0  0  0  0  0  0
  179.7880  177.1160  140.9440 O   0  0  0  0  0  1  0  0  0  0  0  0
  182.7520  178.9080  143.5600 C   0  0  0  0  0  2  0  0  0  0  0  0
  183.3580  178.5100  141.1760 C   0  0  1  0  0  3  0  0  0  0  0  0
  183.7270  178.2100  142.6080 C   0  0  1  0  0  3  0  0  0  0  0  0
  185.6300  178.9760  141.3170 C   0  0  2  0  0  3  0  0  0  0  0  0
  179.6870  179.8250  138.6560 C   0  0  1  0  0  3  0  0  0  0  0  0
  181.6060  178.0630  139.6950 C   0  0  1  0  0  3  0  0  0  0  0  0
  181.0810  179.6850  138.0300 C   0  0  0  0  0  2  0  0  0  0  0  0
  179.2840  178.6300  139.3020 O   0  0  0  0  0  0  0  0  0  0  0  0
  185.3000  179.9600  143.5850 C   0  0  0  0  0  2  0  0  0  0  0  0
  185.1730  178.6930  142.7400 C   0  0  1  0  0  3  0  0  0  0  0  0
  183.3300  179.1000  138.3740 C   0  0  0  0  0  2  0  0  0  0  0  0
  184.5930  178.5130  140.4000 N   0  0  2  0  0  0  0  0  0  0  0  0
  179.5890  181.0510  139.5650 C   0  0  0  0  0  2  0  0  0  0  0  0
  179.1270  182.2390  138.7940 C   0  0  0  0  0  0  0  0  0  0  0  0
  178.9430  183.4550  139.4370 O   0  0  0  0  0  1  0  0  0  0  0  0
  178.9310  182.1480  137.5540 O   0  0  0  0  0  0  0  0  0  0  0  0
  186.9760  178.3090  141.0130 C   0  0  0  0  0  2  0  0  0  0  0  0
  189.0570  178.3620  142.4170 C   0  0  0  0  0  3  0  0  0  0  0  0
  189.7750  177.9880  143.5560 C   0  0  0  0  0  0  0  0  0  0  0  0
  187.8500  176.7580  144.3640 C   0  0  0  0  0  3  0  0  0  0  0  0
  189.1690  177.1900  144.5330 C   0  0  0  0  0  3  0  0  0  0  0  0
  187.1340  177.1270  143.2210 C   0  0  0  0  0  3  0  0  0  0  0  0
  187.7350  177.9320  142.2460 C   0  0  0  0  0  0  0  0  0  0  0  0
  191.1740  178.4620  143.7440 C   0  0  0  0  0  2  0  0  0  0  0  0
  191.6820  177.9970  145.0230 N   0  0  0  0  0  1  0  0  0  0  0  0
  1  7  1  6  0  0  0
  3  4  1  0  0  0  0
  5 14  1  6  0  0  0
  5 13  1  0  0  0  0
  8  3  1  0  0  0  0
  9  6  1  6  0  0  0
  9 10  1  0  0  0  0
 10 17  1  0  0  0  0
 10  8  1  1  0  0  0
 11 24  1  6  0  0  0
 11 17  1  0  0  0  0
 12 15  1  0  0  0  0
 12 20  1  1  0  0  0
 13  1  1  0  0  0  0
 13  6  1  1  0  0  0
 14 12  1  0  0  0  0
 15  1  1  0  0  0  0
 16  4  1  0  0  0  0
 17 16  1  1  0  0  0
 18  5  1  0  0  0  0
 18  2  1  0  0  0  0
 19  2  1  6  0  0  0
 19  9  1  0  0  0  0
 19 11  1  0  0  0  0
 21 22  1  0  0  0  0
 21 20  1  0  0  0  0
 23 21  2  0  0  0  0
 24 30  1  0  0  0  0
 25 26  1  0  0  0  0
 26 31  1  0  0  0  0
 26 28  2  0  0  0  0
 27 28  1  0  0  0  0
 29 27  2  0  0  0  0
 30 25  2  0  0  0  0
 30 29  1  0  0  0  0
 31 32  1  0  0  0  0
M  END
>  <MODEL>
9

>  <REMARK>
 VINA RESULT:      -6.9      2.753      5.212
  Name = 
  5 active torsions:
  status: ('A' for Active; 'I' for Inactive)
    1  A    between atoms: C_1  and  C_17
    2  A    between atoms: C_7  and  C_22
    3  A    between atoms: C_16  and  C_27
    4  A    between atoms: C_17  and  C_19
    5  A    between atoms: C_27  and  C_32
                            x       y       z     vdW  Elec       q    Type
                         _______ _______ _______ _____ _____    ______ ____

>  <TORSDO>
F 5

$$$$
