=
 OpenBabel10262422103D

 43 47  0  0  1  0  0  0  0  0999 V2000
  184.8180  175.6770  135.6910 C   0  0  1  0  0  3  0  0  0  0  0  0
  189.6730  176.8900  136.5110 C   0  0  1  0  0  3  0  0  0  0  0  0
  190.2460  176.5460  139.2640 C   0  0  0  0  0  0  0  0  0  0  0  0
  186.8260  177.0800  136.3930 C   0  0  0  0  0  0  0  0  0  0  0  0
  185.6910  174.5470  136.0640 N   0  0  0  0  0  2  0  0  0  0  0  0
  183.4340  175.4980  136.2890 C   0  0  0  0  0  1  0  0  0  0  0  0
  187.3560  176.0010  137.0080 C   0  0  0  0  0  0  0  0  0  0  0  0
  185.3640  177.0770  136.0420 C   0  0  0  0  0  2  0  0  0  0  0  0
  186.4640  174.8350  137.2730 C   0  0  0  0  0  2  0  0  0  0  0  0
  189.0390  176.0600  138.7410 O   0  0  0  0  0  0  0  0  0  0  0  0
  188.8270  175.8970  137.3330 C   0  0  2  0  0  3  0  0  0  0  0  0
  189.0520  178.2800  136.5660 C   0  0  0  0  0  2  0  0  0  0  0  0
  191.1180  176.9120  137.0080 C   0  0  1  0  0  3  0  0  0  0  0  0
  191.1810  176.9940  138.4720 N   0  0  0  0  0  0  0  0  0  0  0  0
  187.6700  178.2370  135.9150 C   0  0  0  0  0  2  0  0  0  0  0  0
  190.4430  176.5990  140.7540 C   0  0  1  0  0  3  0  0  0  0  0  0
  191.6090  177.5310  141.0800 C   0  0  0  0  0  1  0  0  0  0  0  0
  189.1280  176.9910  141.4550 C   0  0  2  0  0  3  0  0  0  0  0  0
  188.9760  178.4940  141.6550 C   0  0  0  0  0  1  0  0  0  0  0  0
  189.9780  175.6750  143.2300 O   0  0  0  0  0  0  0  0  0  0  0  0
  189.0220  176.3050  142.7860 C   0  0  0  0  0  0  0  0  0  0  0  0
  187.7750  176.4340  143.5970 C   0  0  0  0  0  2  0  0  0  0  0  0
  188.0710  177.1460  144.9010 C   0  0  0  0  0  2  0  0  0  0  0  0
  186.9500  178.1140  145.2250 C   0  0  0  0  0  2  0  0  0  0  0  0
  185.8740  178.0160  144.1590 C   0  0  0  0  0  2  0  0  0  0  0  0
  184.9040  179.1840  144.2730 C   0  0  2  0  0  3  0  0  0  0  0  0
  183.7080  178.7570  145.1080 C   0  0  0  0  0  1  0  0  0  0  0  0
  184.4520  179.5820  142.9510 N   0  0  0  0  0  2  0  0  0  0  0  0
  184.7710  178.4970  142.0320 C   0  0  2  0  0  3  0  0  0  0  0  0
  182.3910  179.3910  139.7570 C   0  0  0  0  0  1  0  0  0  0  0  0
  184.6910  179.4060  139.8500 N   0  0  0  0  0  2  0  0  0  0  0  0
  183.5700  178.5600  139.9520 N   0  0  0  0  0  0  0  0  0  0  0  0
  185.6130  179.0230  140.9090 C   0  0  0  0  0  2  0  0  0  0  0  0
  183.5160  178.0590  141.3250 C   0  0  0  0  0  2  0  0  0  0  0  0
  191.8450  175.6620  136.5150 C   0  0  0  0  0  2  0  0  0  0  0  0
  195.1900  174.3990  137.3740 C   0  0  0  0  0  2  0  0  0  0  0  0
  196.2360  175.0530  136.0820 S   0  0  0  0  0  0  0  0  0  0  0  0
  197.5730  175.4420  136.6510 O   0  0  0  0  0  0  0  0  0  0  0  0
  193.9440  176.3230  135.4450 C   0  0  0  0  0  3  0  0  0  0  0  0
  194.1150  175.4210  137.7480 C   0  0  0  0  0  2  0  0  0  0  0  0
  193.3260  175.8440  136.5350 C   0  0  0  0  0  0  0  0  0  0  0  0
  196.4230  174.0130  135.0120 O   0  0  0  0  0  0  0  0  0  0  0  0
  195.4360  176.4920  135.3860 C   0  0  0  0  0  2  0  0  0  0  0  0
  1  8  1  0  0  0  0
  1  5  1  0  0  0  0
  1  6  1  1  0  0  0
  2 12  1  1  0  0  0
  2 13  1  0  0  0  0
  2 11  1  0  0  0  0
  3 16  1  0  0  0  0
  4  7  2  0  0  0  0
  5  9  1  0  0  0  0
  7  9  1  0  0  0  0
  8  4  1  0  0  0  0
 10  3  1  0  0  0  0
 11  7  1  1  0  0  0
 11 10  1  0  0  0  0
 13 35  1  1  0  0  0
 13 14  1  0  0  0  0
 14  3  2  0  0  0  0
 15  4  1  0  0  0  0
 15 12  1  0  0  0  0
 16 17  1  6  0  0  0
 16 18  1  0  0  0  0
 18 19  1  1  0  0  0
 18 21  1  0  0  0  0
 21 20  2  0  0  0  0
 21 22  1  0  0  0  0
 22 23  1  0  0  0  0
 23 24  1  0  0  0  0
 25 26  1  0  0  0  0
 25 24  1  0  0  0  0
 26 27  1  1  0  0  0
 28 26  1  0  0  0  0
 29 28  1  1  0  0  0
 30 32  1  0  0  0  0
 31 32  1  0  0  0  0
 31 33  1  0  0  0  0
 32 34  1  0  0  0  0
 33 29  1  0  0  0  0
 34 29  1  0  0  0  0
 35 41  1  0  0  0  0
 36 40  1  0  0  0  0
 37 38  2  0  0  0  0
 37 36  1  0  0  0  0
 39 41  2  0  0  0  0
 41 40  1  0  0  0  0
 42 37  2  0  0  0  0
 43 39  1  0  0  0  0
 43 37  1  0  0  0  0
M  END
>  <MODEL>
1

>  <REMARK>
 VINA RESULT:      -7.7      0.000      0.000
  Name = 
  12 active torsions:
  status: ('A' for Active; 'I' for Inactive)
    1  A    between atoms: C_1  and  C_34
    2  A    between atoms: C_1  and  C_35
    3  A    between atoms: C_2  and  C_6
    4  A    between atoms: C_2  and  C_13
    5  A    between atoms: C_4  and  C_12
    6  A    between atoms: C_4  and  C_15
    7  A    between atoms: C_6  and  C_12
    8  A    between atoms: C_10  and  C_22
    9  A    between atoms: C_10  and  C_42
   10  A    between atoms: C_11  and  N_14
   11  A    between atoms: N_14  and  C_22
   12  A    between atoms: C_15  and  C_42
                            x       y       z     vdW  Elec       q    Type
                         _______ _______ _______ _____ _____    ______ ____

>  <TORSDO>
F 12

$$$$
=
 OpenBabel10262422103D

 43 47  0  0  1  0  0  0  0  0999 V2000
  184.9760  176.2170  135.3650 C   0  0  1  0  0  3  0  0  0  0  0  0
  189.7230  176.7580  137.0650 C   0  0  1  0  0  3  0  0  0  0  0  0
  189.6390  177.2980  139.8450 C   0  0  0  0  0  0  0  0  0  0  0  0
  187.1000  177.3970  136.1340 C   0  0  0  0  0  0  0  0  0  0  0  0
  185.4410  175.1520  136.2740 N   0  0  0  0  0  2  0  0  0  0  0  0
  183.5040  176.5060  135.5930 C   0  0  0  0  0  1  0  0  0  0  0  0
  187.2050  176.5230  137.1590 C   0  0  0  0  0  0  0  0  0  0  0  0
  185.7830  177.5310  135.4210 C   0  0  0  0  0  2  0  0  0  0  0  0
  186.0100  175.7010  137.5060 C   0  0  0  0  0  2  0  0  0  0  0  0
  188.4740  176.8830  139.1840 O   0  0  0  0  0  0  0  0  0  0  0  0
  188.5070  176.2800  137.8850 C   0  0  2  0  0  3  0  0  0  0  0  0
  189.4810  178.1670  136.5390 C   0  0  0  0  0  2  0  0  0  0  0  0
  190.9990  176.6960  137.9030 C   0  0  1  0  0  3  0  0  0  0  0  0
  190.7930  177.2690  139.2390 N   0  0  0  0  0  0  0  0  0  0  0  0
  188.2890  178.1460  135.5830 C   0  0  0  0  0  2  0  0  0  0  0  0
  189.5480  177.8310  141.2490 C   0  0  1  0  0  3  0  0  0  0  0  0
  188.0810  178.0510  141.6150 C   0  0  0  0  0  1  0  0  0  0  0  0
  190.2940  176.9000  142.2250 C   0  0  2  0  0  3  0  0  0  0  0  0
  189.4450  175.7290  142.7060 C   0  0  0  0  0  1  0  0  0  0  0  0
  191.3220  178.7660  143.2560 O   0  0  0  0  0  0  0  0  0  0  0  0
  190.7820  177.6750  143.4140 C   0  0  0  0  0  0  0  0  0  0  0  0
  190.5630  177.1460  144.7920 C   0  0  0  0  0  2  0  0  0  0  0  0
  189.7420  178.1270  145.6050 C   0  0  0  0  0  2  0  0  0  0  0  0
  188.5980  177.4030  146.2850 C   0  0  0  0  0  2  0  0  0  0  0  0
  187.4960  177.1380  145.2750 C   0  0  0  0  0  2  0  0  0  0  0  0
  186.5280  178.3130  145.2240 C   0  0  2  0  0  3  0  0  0  0  0  0
  186.0360  178.6120  146.6310 C   0  0  0  0  0  1  0  0  0  0  0  0
  185.3960  177.9830  144.3770 N   0  0  0  0  0  2  0  0  0  0  0  0
  184.7820  179.2360  143.9540 C   0  0  2  0  0  3  0  0  0  0  0  0
  183.5400  177.9390  141.0540 C   0  0  0  0  0  1  0  0  0  0  0  0
  182.6680  178.6880  143.0470 N   0  0  0  0  0  2  0  0  0  0  0  0
  183.4620  179.0800  141.9530 N   0  0  0  0  0  0  0  0  0  0  0  0
  183.3130  179.1980  144.2480 C   0  0  0  0  0  2  0  0  0  0  0  0
  184.8150  179.3230  142.4510 C   0  0  0  0  0  2  0  0  0  0  0  0
  191.4640  175.2440  138.0160 C   0  0  0  0  0  2  0  0  0  0  0  0
  194.3090  176.3700  135.9760 C   0  0  0  0  0  2  0  0  0  0  0  0
  195.4020  174.9570  135.9560 S   0  0  0  0  0  0  0  0  0  0  0  0
  196.0550  174.8330  134.6060 O   0  0  0  0  0  0  0  0  0  0  0  0
  193.2970  173.8370  137.2150 C   0  0  0  0  0  3  0  0  0  0  0  0
  192.8520  175.9070  135.9270 C   0  0  0  0  0  2  0  0  0  0  0  0
  192.5540  174.9390  137.0430 C   0  0  0  0  0  0  0  0  0  0  0  0
  196.4550  175.1230  137.0150 O   0  0  0  0  0  0  0  0  0  0  0  0
  194.4350  173.4940  136.2940 C   0  0  0  0  0  2  0  0  0  0  0  0
  1  8  1  0  0  0  0
  1  6  1  1  0  0  0
  1  5  1  0  0  0  0
  2 12  1  1  0  0  0
  2 11  1  0  0  0  0
  2 13  1  0  0  0  0
  3 16  1  0  0  0  0
  4  7  2  0  0  0  0
  5  9  1  0  0  0  0
  7  9  1  0  0  0  0
  8  4  1  0  0  0  0
 10  3  1  0  0  0  0
 11  7  1  6  0  0  0
 11 10  1  0  0  0  0
 13 35  1  1  0  0  0
 13 14  1  0  0  0  0
 14  3  2  0  0  0  0
 15  4  1  0  0  0  0
 15 12  1  0  0  0  0
 16 17  1  1  0  0  0
 16 18  1  0  0  0  0
 18 19  1  1  0  0  0
 18 21  1  0  0  0  0
 20 21  2  0  0  0  0
 21 22  1  0  0  0  0
 22 23  1  0  0  0  0
 23 24  1  0  0  0  0
 25 24  1  0  0  0  0
 26 25  1  0  0  0  0
 26 27  1  1  0  0  0
 28 26  1  0  0  0  0
 29 33  1  0  0  0  0
 29 28  1  6  0  0  0
 30 32  1  0  0  0  0
 31 33  1  0  0  0  0
 32 34  1  0  0  0  0
 32 31  1  0  0  0  0
 34 29  1  0  0  0  0
 37 36  1  0  0  0  0
 37 43  1  0  0  0  0
 37 42  2  0  0  0  0
 38 37  2  0  0  0  0
 40 36  1  0  0  0  0
 40 41  1  0  0  0  0
 41 39  2  0  0  0  0
 41 35  1  0  0  0  0
 43 39  1  0  0  0  0
M  END
>  <MODEL>
2

>  <REMARK>
 VINA RESULT:      -7.6      1.330      2.119
  Name = 
  12 active torsions:
  status: ('A' for Active; 'I' for Inactive)
    1  A    between atoms: C_1  and  C_34
    2  A    between atoms: C_1  and  C_35
    3  A    between atoms: C_2  and  C_6
    4  A    between atoms: C_2  and  C_13
    5  A    between atoms: C_4  and  C_12
    6  A    between atoms: C_4  and  C_15
    7  A    between atoms: C_6  and  C_12
    8  A    between atoms: C_10  and  C_22
    9  A    between atoms: C_10  and  C_42
   10  A    between atoms: C_11  and  N_14
   11  A    between atoms: N_14  and  C_22
   12  A    between atoms: C_15  and  C_42
                            x       y       z     vdW  Elec       q    Type
                         _______ _______ _______ _____ _____    ______ ____

>  <TORSDO>
F 12

$$$$
=
 OpenBabel10262422103D

 43 47  0  0  1  0  0  0  0  0999 V2000
  184.1170  175.3380  135.8330 C   0  0  1  0  0  3  0  0  0  0  0  0
  188.9050  176.9800  136.1440 C   0  0  1  0  0  3  0  0  0  0  0  0
  189.8290  176.5980  138.7940 C   0  0  0  0  0  0  0  0  0  0  0  0
  186.0580  176.9020  136.3620 C   0  0  0  0  0  0  0  0  0  0  0  0
  185.1270  174.2850  136.0510 N   0  0  0  0  0  2  0  0  0  0  0  0
  182.8360  175.0080  136.5760 C   0  0  0  0  0  1  0  0  0  0  0  0
  186.7540  175.8570  136.8620 C   0  0  0  0  0  0  0  0  0  0  0  0
  184.5710  176.7710  136.1810 C   0  0  0  0  0  2  0  0  0  0  0  0
  186.0080  174.6040  137.1750 C   0  0  0  0  0  2  0  0  0  0  0  0
  188.6170  176.0180  138.3920 O   0  0  0  0  0  0  0  0  0  0  0  0
  188.2560  175.8830  137.0120 C   0  0  2  0  0  3  0  0  0  0  0  0
  188.1710  178.3020  136.3320 C   0  0  0  0  0  2  0  0  0  0  0  0
  190.3900  177.1230  136.4730 C   0  0  1  0  0  3  0  0  0  0  0  0
  190.6180  177.1600  137.9220 N   0  0  0  0  0  0  0  0  0  0  0  0
  186.7310  178.1500  135.8430 C   0  0  0  0  0  2  0  0  0  0  0  0
  190.1950  176.6190  140.2530 C   0  0  1  0  0  3  0  0  0  0  0  0
  191.4420  177.4790  140.4520 C   0  0  0  0  0  1  0  0  0  0  0  0
  188.9920  177.0740  141.1020 C   0  0  2  0  0  3  0  0  0  0  0  0
  188.7410  178.5760  141.0330 C   0  0  0  0  0  1  0  0  0  0  0  0
  189.9540  175.7600  142.8200 O   0  0  0  0  0  0  0  0  0  0  0  0
  189.1830  176.6730  142.5350 C   0  0  0  0  0  0  0  0  0  0  0  0
  188.4780  177.4170  143.6210 C   0  0  0  0  0  2  0  0  0  0  0  0
  187.0390  176.9540  143.7220 C   0  0  0  0  0  2  0  0  0  0  0  0
  186.1760  178.0730  144.2710 C   0  0  0  0  0  2  0  0  0  0  0  0
  185.2620  178.5910  143.1750 C   0  0  0  0  0  2  0  0  0  0  0  0
  183.9430  179.0710  143.7650 C   0  0  2  0  0  3  0  0  0  0  0  0
  183.9590  178.8430  145.2680 C   0  0  0  0  0  1  0  0  0  0  0  0
  182.8410  178.3320  143.1760 N   0  0  0  0  0  2  0  0  0  0  0  0
  181.6900  179.2250  143.1250 C   0  0  2  0  0  3  0  0  0  0  0  0
  179.9140  177.2210  141.0110 C   0  0  0  0  0  1  0  0  0  0  0  0
  179.7620  177.8580  143.2170 N   0  0  0  0  0  2  0  0  0  0  0  0
  179.8080  178.3650  141.9040 N   0  0  0  0  0  0  0  0  0  0  0  0
  180.6140  178.7100  144.0330 C   0  0  0  0  0  2  0  0  0  0  0  0
  181.0460  179.1290  141.7660 C   0  0  0  0  0  2  0  0  0  0  0  0
  191.1640  175.9660  135.8430 C   0  0  0  0  0  2  0  0  0  0  0  0
  193.2630  173.1430  136.9160 C   0  0  0  0  0  2  0  0  0  0  0  0
  194.7040  173.9290  137.6210 S   0  0  0  0  0  0  0  0  0  0  0  0
  195.1780  173.1520  138.8190 O   0  0  0  0  0  0  0  0  0  0  0  0
  193.2010  176.1260  137.1900 C   0  0  0  0  0  3  0  0  0  0  0  0
  192.0080  173.9530  137.2460 C   0  0  0  0  0  2  0  0  0  0  0  0
  192.1550  175.3850  136.7960 C   0  0  0  0  0  0  0  0  0  0  0  0
  195.7980  173.9890  136.5910 O   0  0  0  0  0  0  0  0  0  0  0  0
  194.2550  175.5860  138.1150 C   0  0  0  0  0  2  0  0  0  0  0  0
  1  5  1  0  0  0  0
  1  8  1  0  0  0  0
  1  6  1  1  0  0  0
  2 12  1  1  0  0  0
  2 13  1  0  0  0  0
  2 11  1  0  0  0  0
  3 16  1  0  0  0  0
  4  7  2  0  0  0  0
  5  9  1  0  0  0  0
  7  9  1  0  0  0  0
  8  4  1  0  0  0  0
 10  3  1  0  0  0  0
 11  7  1  1  0  0  0
 11 10  1  0  0  0  0
 13 35  1  1  0  0  0
 13 14  1  0  0  0  0
 14  3  2  0  0  0  0
 15 12  1  0  0  0  0
 15  4  1  0  0  0  0
 16 17  1  6  0  0  0
 16 18  1  0  0  0  0
 18 19  1  1  0  0  0
 18 21  1  0  0  0  0
 21 20  2  0  0  0  0
 21 22  1  0  0  0  0
 22 23  1  0  0  0  0
 23 24  1  0  0  0  0
 25 26  1  0  0  0  0
 25 24  1  0  0  0  0
 26 27  1  1  0  0  0
 28 26  1  0  0  0  0
 29 28  1  6  0  0  0
 29 33  1  0  0  0  0
 30 32  1  0  0  0  0
 31 33  1  0  0  0  0
 32 31  1  0  0  0  0
 34 32  1  0  0  0  0
 34 29  1  0  0  0  0
 35 41  1  0  0  0  0
 36 40  1  0  0  0  0
 36 37  1  0  0  0  0
 37 43  1  0  0  0  0
 37 38  2  0  0  0  0
 39 43  1  0  0  0  0
 41 39  2  0  0  0  0
 41 40  1  0  0  0  0
 42 37  2  0  0  0  0
M  END
>  <MODEL>
3

>  <REMARK>
 VINA RESULT:      -6.7      1.771      2.146
  Name = 
  12 active torsions:
  status: ('A' for Active; 'I' for Inactive)
    1  A    between atoms: C_1  and  C_34
    2  A    between atoms: C_1  and  C_35
    3  A    between atoms: C_2  and  C_6
    4  A    between atoms: C_2  and  C_13
    5  A    between atoms: C_4  and  C_12
    6  A    between atoms: C_4  and  C_15
    7  A    between atoms: C_6  and  C_12
    8  A    between atoms: C_10  and  C_22
    9  A    between atoms: C_10  and  C_42
   10  A    between atoms: C_11  and  N_14
   11  A    between atoms: N_14  and  C_22
   12  A    between atoms: C_15  and  C_42
                            x       y       z     vdW  Elec       q    Type
                         _______ _______ _______ _____ _____    ______ ____

>  <TORSDO>
F 12

$$$$
=
 OpenBabel10262422103D

 43 47  0  0  1  0  0  0  0  0999 V2000
  184.9470  175.9200  135.1430 C   0  0  1  0  0  3  0  0  0  0  0  0
  189.6690  176.8920  136.7190 C   0  0  1  0  0  3  0  0  0  0  0  0
  189.7640  176.6160  139.5370 C   0  0  0  0  0  0  0  0  0  0  0  0
  186.8960  177.2350  136.1280 C   0  0  0  0  0  0  0  0  0  0  0  0
  185.6790  174.7580  135.6840 N   0  0  0  0  0  2  0  0  0  0  0  0
  183.4770  175.8390  135.5090 C   0  0  0  0  0  1  0  0  0  0  0  0
  187.2530  176.1500  136.8510 C   0  0  0  0  0  0  0  0  0  0  0  0
  185.5130  177.2990  135.5420 C   0  0  0  0  0  2  0  0  0  0  0  0
  186.2610  175.0460  136.9950 C   0  0  0  0  0  2  0  0  0  0  0  0
  188.6310  176.1790  138.8350 O   0  0  0  0  0  0  0  0  0  0  0  0
  188.6420  175.9770  137.4170 C   0  0  2  0  0  3  0  0  0  0  0  0
  189.1320  178.3160  136.6340 C   0  0  0  0  0  2  0  0  0  0  0  0
  191.0120  176.8530  137.4470 C   0  0  1  0  0  3  0  0  0  0  0  0
  190.8400  176.9830  138.8980 N   0  0  0  0  0  0  0  0  0  0  0  0
  187.8740  178.3260  135.7660 C   0  0  0  0  0  2  0  0  0  0  0  0
  189.7190  176.7120  141.0370 C   0  0  1  0  0  3  0  0  0  0  0  0
  191.0290  177.3070  141.5490 C   0  0  0  0  0  1  0  0  0  0  0  0
  188.4700  177.4950  141.4870 C   0  0  2  0  0  3  0  0  0  0  0  0
  188.6870  179.0030  141.5260 C   0  0  0  0  0  1  0  0  0  0  0  0
  188.2100  175.8630  143.1820 O   0  0  0  0  0  0  0  0  0  0  0  0
  188.0200  177.0280  142.8400 C   0  0  0  0  0  0  0  0  0  0  0  0
  187.3920  177.9900  143.7930 C   0  0  0  0  0  2  0  0  0  0  0  0
  185.8830  177.8560  143.7520 C   0  0  0  0  0  2  0  0  0  0  0  0
  185.3330  178.6010  142.5510 C   0  0  0  0  0  2  0  0  0  0  0  0
  184.1590  177.8310  141.9740 C   0  0  0  0  0  2  0  0  0  0  0  0
  183.9390  178.2120  140.5160 C   0  0  2  0  0  3  0  0  0  0  0  0
  185.1800  178.9180  139.9940 C   0  0  0  0  0  1  0  0  0  0  0  0
  182.7960  179.1000  140.4050 N   0  0  0  0  0  2  0  0  0  0  0  0
  181.7030  178.5090  141.1680 C   0  0  2  0  0  3  0  0  0  0  0  0
  179.4160  180.8340  140.1690 C   0  0  0  0  0  1  0  0  0  0  0  0
  179.7840  178.5950  139.7890 N   0  0  0  0  0  2  0  0  0  0  0  0
  179.5610  179.5370  140.8110 N   0  0  0  0  0  0  0  0  0  0  0  0
  180.8330  177.7000  140.2540 C   0  0  0  0  0  2  0  0  0  0  0  0
  180.7720  179.5990  141.6290 C   0  0  0  0  0  2  0  0  0  0  0  0
  191.7330  175.5480  137.1130 C   0  0  0  0  0  2  0  0  0  0  0  0
  195.1610  174.3630  137.7190 C   0  0  0  0  0  2  0  0  0  0  0  0
  196.0780  174.9770  136.3140 S   0  0  0  0  0  0  0  0  0  0  0  0
  197.4540  175.4050  136.7470 O   0  0  0  0  0  0  0  0  0  0  0  0
  193.7180  176.1910  135.8360 C   0  0  0  0  0  3  0  0  0  0  0  0
  194.1070  175.3850  138.1470 C   0  0  0  0  0  2  0  0  0  0  0  0
  193.2070  175.7490  136.9940 C   0  0  0  0  0  0  0  0  0  0  0  0
  196.1860  173.8980  135.2740 O   0  0  0  0  0  0  0  0  0  0  0  0
  195.1960  176.3770  135.6380 C   0  0  0  0  0  2  0  0  0  0  0  0
  1  6  1  1  0  0  0
  1  8  1  0  0  0  0
  1  5  1  0  0  0  0
  2 12  1  1  0  0  0
  2 11  1  0  0  0  0
  2 13  1  0  0  0  0
  3 16  1  0  0  0  0
  4  7  2  0  0  0  0
  5  9  1  0  0  0  0
  7  9  1  0  0  0  0
  8  4  1  0  0  0  0
 10  3  1  0  0  0  0
 11  7  1  6  0  0  0
 11 10  1  0  0  0  0
 13 35  1  1  0  0  0
 13 14  1  0  0  0  0
 14  3  2  0  0  0  0
 15  4  1  0  0  0  0
 15 12  1  0  0  0  0
 16 18  1  0  0  0  0
 16 17  1  6  0  0  0
 18 19  1  1  0  0  0
 18 21  1  0  0  0  0
 21 20  2  0  0  0  0
 21 22  1  0  0  0  0
 23 22  1  0  0  0  0
 24 23  1  0  0  0  0
 25 24  1  0  0  0  0
 26 27  1  1  0  0  0
 26 25  1  0  0  0  0
 28 26  1  0  0  0  0
 29 28  1  6  0  0  0
 29 34  1  0  0  0  0
 30 32  1  0  0  0  0
 31 33  1  0  0  0  0
 31 32  1  0  0  0  0
 32 34  1  0  0  0  0
 33 29  1  0  0  0  0
 36 40  1  0  0  0  0
 37 38  2  0  0  0  0
 37 36  1  0  0  0  0
 39 41  2  0  0  0  0
 41 35  1  0  0  0  0
 41 40  1  0  0  0  0
 42 37  2  0  0  0  0
 43 39  1  0  0  0  0
 43 37  1  0  0  0  0
M  END
>  <MODEL>
4

>  <REMARK>
 VINA RESULT:      -6.4      1.330      2.108
  Name = 
  12 active torsions:
  status: ('A' for Active; 'I' for Inactive)
    1  A    between atoms: C_1  and  C_34
    2  A    between atoms: C_1  and  C_35
    3  A    between atoms: C_2  and  C_6
    4  A    between atoms: C_2  and  C_13
    5  A    between atoms: C_4  and  C_12
    6  A    between atoms: C_4  and  C_15
    7  A    between atoms: C_6  and  C_12
    8  A    between atoms: C_10  and  C_22
    9  A    between atoms: C_10  and  C_42
   10  A    between atoms: C_11  and  N_14
   11  A    between atoms: N_14  and  C_22
   12  A    between atoms: C_15  and  C_42
                            x       y       z     vdW  Elec       q    Type
                         _______ _______ _______ _____ _____    ______ ____

>  <TORSDO>
F 12

$$$$
=
 OpenBabel10262422103D

 43 47  0  0  1  0  0  0  0  0999 V2000
  185.3830  177.0160  135.4950 C   0  0  1  0  0  3  0  0  0  0  0  0
  189.9120  177.2620  137.7640 C   0  0  1  0  0  3  0  0  0  0  0  0
  189.5940  176.6220  140.5050 C   0  0  0  0  0  0  0  0  0  0  0  0
  187.2890  177.9750  136.8880 C   0  0  0  0  0  0  0  0  0  0  0  0
  185.9250  175.7220  135.9540 N   0  0  0  0  0  2  0  0  0  0  0  0
  183.8750  177.0490  135.6610 C   0  0  0  0  0  1  0  0  0  0  0  0
  187.4440  176.7760  137.4900 C   0  0  0  0  0  0  0  0  0  0  0  0
  186.0110  178.2640  136.1500 C   0  0  0  0  0  2  0  0  0  0  0  0
  186.3450  175.7760  137.3550 C   0  0  0  0  0  2  0  0  0  0  0  0
  188.5340  176.4020  139.6140 O   0  0  0  0  0  0  0  0  0  0  0  0
  188.7210  176.3820  138.1940 C   0  0  2  0  0  3  0  0  0  0  0  0
  189.5240  178.7340  137.8140 C   0  0  0  0  0  2  0  0  0  0  0  0
  191.1340  176.9850  138.6390 C   0  0  1  0  0  3  0  0  0  0  0  0
  190.7770  176.9470  140.0620 N   0  0  0  0  0  0  0  0  0  0  0  0
  188.4030  178.9910  136.8060 C   0  0  0  0  0  2  0  0  0  0  0  0
  189.3520  176.5300  141.9870 C   0  0  1  0  0  3  0  0  0  0  0  0
  190.5980  175.9720  142.6720 C   0  0  0  0  0  1  0  0  0  0  0  0
  188.9040  177.8960  142.5420 C   0  0  2  0  0  3  0  0  0  0  0  0
  190.0340  178.6790  143.1990 C   0  0  0  0  0  1  0  0  0  0  0  0
  188.0420  177.3970  144.6890 O   0  0  0  0  0  0  0  0  0  0  0  0
  187.7890  177.7170  143.5310 C   0  0  0  0  0  0  0  0  0  0  0  0
  186.3780  177.9790  143.1230 C   0  0  0  0  0  2  0  0  0  0  0  0
  186.3440  178.7340  141.8090 C   0  0  0  0  0  2  0  0  0  0  0  0
  184.9450  178.6970  141.2290 C   0  0  0  0  0  2  0  0  0  0  0  0
  185.0260  178.5430  139.7220 C   0  0  0  0  0  2  0  0  0  0  0  0
  183.6360  178.6170  139.1040 C   0  0  2  0  0  3  0  0  0  0  0  0
  183.2560  180.0750  138.9080 C   0  0  0  0  0  1  0  0  0  0  0  0
  182.6710  177.9800  139.9820 N   0  0  0  0  0  2  0  0  0  0  0  0
  181.3420  178.2520  139.4480 C   0  0  2  0  0  3  0  0  0  0  0  0
  180.5600  174.9580  139.0350 C   0  0  0  0  0  1  0  0  0  0  0  0
  179.8800  176.6670  140.4170 N   0  0  0  0  0  2  0  0  0  0  0  0
  179.9980  176.2990  139.0640 N   0  0  0  0  0  0  0  0  0  0  0  0
  180.3180  178.0500  140.5240 C   0  0  0  0  0  2  0  0  0  0  0  0
  180.9820  177.1870  138.4460 C   0  0  0  0  0  2  0  0  0  0  0  0
  191.7720  175.6620  138.2180 C   0  0  0  0  0  2  0  0  0  0  0  0
  195.2350  174.5100  137.7680 C   0  0  0  0  0  2  0  0  0  0  0  0
  195.6680  175.0910  136.1350 S   0  0  0  0  0  0  0  0  0  0  0  0
  197.1050  175.5370  136.1140 O   0  0  0  0  0  0  0  0  0  0  0  0
  193.2600  176.2810  136.3770 C   0  0  0  0  0  3  0  0  0  0  0  0
  194.3510  175.5380  138.4750 C   0  0  0  0  0  2  0  0  0  0  0  0
  193.1350  175.8670  137.6460 C   0  0  0  0  0  0  0  0  0  0  0  0
  195.4650  173.9850  135.1380 O   0  0  0  0  0  0  0  0  0  0  0  0
  194.6030  176.4680  135.7290 C   0  0  0  0  0  2  0  0  0  0  0  0
  1  6  1  1  0  0  0
  1  5  1  0  0  0  0
  1  8  1  0  0  0  0
  2 12  1  1  0  0  0
  2 11  1  0  0  0  0
  2 13  1  0  0  0  0
  3 16  1  0  0  0  0
  4  7  2  0  0  0  0
  5  9  1  0  0  0  0
  8  4  1  0  0  0  0
  9  7  1  0  0  0  0
 10  3  1  0  0  0  0
 11  7  1  6  0  0  0
 11 10  1  0  0  0  0
 13 35  1  6  0  0  0
 13 14  1  0  0  0  0
 14  3  2  0  0  0  0
 15  4  1  0  0  0  0
 15 12  1  0  0  0  0
 16 18  1  0  0  0  0
 16 17  1  1  0  0  0
 18 19  1  1  0  0  0
 18 21  1  0  0  0  0
 21 20  2  0  0  0  0
 22 21  1  0  0  0  0
 23 22  1  0  0  0  0
 24 23  1  0  0  0  0
 25 24  1  0  0  0  0
 26 27  1  1  0  0  0
 26 25  1  0  0  0  0
 26 28  1  0  0  0  0
 29 28  1  1  0  0  0
 29 33  1  0  0  0  0
 30 32  1  0  0  0  0
 31 33  1  0  0  0  0
 32 31  1  0  0  0  0
 34 32  1  0  0  0  0
 34 29  1  0  0  0  0
 36 40  1  0  0  0  0
 37 36  1  0  0  0  0
 38 37  2  0  0  0  0
 39 41  2  0  0  0  0
 41 35  1  0  0  0  0
 41 40  1  0  0  0  0
 42 37  2  0  0  0  0
 43 37  1  0  0  0  0
 43 39  1  0  0  0  0
M  END
>  <MODEL>
5

>  <REMARK>
 VINA RESULT:      -6.0      1.720      2.825
  Name = 
  12 active torsions:
  status: ('A' for Active; 'I' for Inactive)
    1  A    between atoms: C_1  and  C_34
    2  A    between atoms: C_1  and  C_35
    3  A    between atoms: C_2  and  C_6
    4  A    between atoms: C_2  and  C_13
    5  A    between atoms: C_4  and  C_12
    6  A    between atoms: C_4  and  C_15
    7  A    between atoms: C_6  and  C_12
    8  A    between atoms: C_10  and  C_22
    9  A    between atoms: C_10  and  C_42
   10  A    between atoms: C_11  and  N_14
   11  A    between atoms: N_14  and  C_22
   12  A    between atoms: C_15  and  C_42
                            x       y       z     vdW  Elec       q    Type
                         _______ _______ _______ _____ _____    ______ ____

>  <TORSDO>
F 12

$$$$
=
 OpenBabel10262422103D

 43 47  0  0  1  0  0  0  0  0999 V2000
  186.3460  178.0290  147.1010 C   0  0  1  0  0  3  0  0  0  0  0  0
  184.1910  178.6040  142.5460 C   0  0  1  0  0  3  0  0  0  0  0  0
  186.2060  178.4600  140.5600 C   0  0  0  0  0  0  0  0  0  0  0  0
  185.6050  179.1900  144.9570 C   0  0  0  0  0  0  0  0  0  0  0  0
  186.3640  176.8280  146.2430 N   0  0  0  0  0  2  0  0  0  0  0  0
  187.6180  178.1120  147.9240 C   0  0  0  0  0  1  0  0  0  0  0  0
  186.0020  178.1130  144.2450 C   0  0  0  0  0  0  0  0  0  0  0  0
  186.1100  179.3630  146.3630 C   0  0  0  0  0  2  0  0  0  0  0  0
  186.8950  177.1220  144.9110 C   0  0  0  0  0  2  0  0  0  0  0  0
  186.5090  178.1030  141.8820 O   0  0  0  0  0  0  0  0  0  0  0  0
  185.4900  177.8310  142.8520 C   0  0  2  0  0  3  0  0  0  0  0  0
  184.3450  180.0680  142.9400 C   0  0  0  0  0  2  0  0  0  0  0  0
  183.8140  178.4680  141.0710 C   0  0  1  0  0  3  0  0  0  0  0  0
  184.9740  178.6860  140.1980 N   0  0  0  0  0  0  0  0  0  0  0  0
  184.5650  180.1600  144.4490 C   0  0  0  0  0  2  0  0  0  0  0  0
  187.3190  178.6340  139.5630 C   0  0  1  0  0  3  0  0  0  0  0  0
  188.5640  177.9010  140.0580 C   0  0  0  0  0  1  0  0  0  0  0  0
  186.8580  178.1880  138.1620 C   0  0  2  0  0  3  0  0  0  0  0  0
  186.6450  176.6830  138.0490 C   0  0  0  0  0  1  0  0  0  0  0  0
  188.3430  179.7470  137.1780 O   0  0  0  0  0  0  0  0  0  0  0  0
  187.8500  178.6240  137.1230 C   0  0  0  0  0  0  0  0  0  0  0  0
  188.2780  177.6750  136.0540 C   0  0  0  0  0  2  0  0  0  0  0  0
  189.7870  177.5300  136.0570 C   0  0  0  0  0  2  0  0  0  0  0  0
  190.1960  176.4250  137.0110 C   0  0  0  0  0  2  0  0  0  0  0  0
  191.6090  175.9760  136.6880 C   0  0  0  0  0  2  0  0  0  0  0  0
  192.4270  175.8340  137.9660 C   0  0  2  0  0  3  0  0  0  0  0  0
  191.9770  176.8880  138.9640 C   0  0  0  0  0  1  0  0  0  0  0  0
  193.8370  176.0180  137.6720 N   0  0  0  0  0  2  0  0  0  0  0  0
  194.4010  174.7060  137.3800 C   0  0  2  0  0  3  0  0  0  0  0  0
  197.1030  175.9600  135.7170 C   0  0  0  0  0  1  0  0  0  0  0  0
  196.7350  174.8770  137.7140 N   0  0  0  0  0  2  0  0  0  0  0  0
  196.5580  174.7550  136.3230 N   0  0  0  0  0  0  0  0  0  0  0  0
  195.5090  174.4100  138.3440 C   0  0  0  0  0  2  0  0  0  0  0  0
  195.1200  174.7560  136.0580 C   0  0  0  0  0  2  0  0  0  0  0  0
  183.2180  177.0830  140.8250 C   0  0  0  0  0  2  0  0  0  0  0  0
  182.3600  178.6190  137.5960 C   0  0  0  0  0  2  0  0  0  0  0  0
  182.6590  177.3150  136.4120 S   0  0  0  0  0  0  0  0  0  0  0  0
  181.6200  177.3610  135.3250 O   0  0  0  0  0  0  0  0  0  0  0  0
  183.0470  175.9130  138.6820 C   0  0  0  0  0  3  0  0  0  0  0  0
  181.7820  178.0350  138.8860 C   0  0  0  0  0  2  0  0  0  0  0  0
  182.6770  176.9560  139.4400 C   0  0  0  0  0  0  0  0  0  0  0  0
  184.0280  177.4860  135.8130 O   0  0  0  0  0  0  0  0  0  0  0  0
  182.5700  175.7490  137.2670 C   0  0  0  0  0  2  0  0  0  0  0  0
  1  6  1  6  0  0  0
  2 11  1  0  0  0  0
  2 12  1  6  0  0  0
  3 10  1  0  0  0  0
  4  8  1  0  0  0  0
  5  1  1  0  0  0  0
  7  9  1  0  0  0  0
  7  4  2  0  0  0  0
  8  1  1  0  0  0  0
  9  5  1  0  0  0  0
 11 10  1  6  0  0  0
 11  7  1  0  0  0  0
 12 15  1  0  0  0  0
 13 35  1  1  0  0  0
 13  2  1  0  0  0  0
 14  3  2  0  0  0  0
 14 13  1  0  0  0  0
 15  4  1  0  0  0  0
 16 17  1  1  0  0  0
 16  3  1  0  0  0  0
 18 19  1  1  0  0  0
 18 16  1  0  0  0  0
 21 20  2  0  0  0  0
 21 18  1  0  0  0  0
 22 23  1  0  0  0  0
 22 21  1  0  0  0  0
 23 24  1  0  0  0  0
 25 24  1  0  0  0  0
 25 26  1  0  0  0  0
 26 27  1  1  0  0  0
 28 26  1  0  0  0  0
 29 28  1  1  0  0  0
 29 33  1  0  0  0  0
 30 32  1  0  0  0  0
 31 33  1  0  0  0  0
 32 31  1  0  0  0  0
 34 32  1  0  0  0  0
 34 29  1  0  0  0  0
 36 40  1  0  0  0  0
 37 43  1  0  0  0  0
 37 36  1  0  0  0  0
 38 37  2  0  0  0  0
 39 41  2  0  0  0  0
 40 41  1  0  0  0  0
 41 35  1  0  0  0  0
 42 37  2  0  0  0  0
 43 39  1  0  0  0  0
M  END
>  <MODEL>
6

>  <REMARK>
 VINA RESULT:      -5.5      3.651     10.208
  Name = 
  12 active torsions:
  status: ('A' for Active; 'I' for Inactive)
    1  A    between atoms: C_1  and  C_34
    2  A    between atoms: C_1  and  C_35
    3  A    between atoms: C_2  and  C_6
    4  A    between atoms: C_2  and  C_13
    5  A    between atoms: C_4  and  C_12
    6  A    between atoms: C_4  and  C_15
    7  A    between atoms: C_6  and  C_12
    8  A    between atoms: C_10  and  C_22
    9  A    between atoms: C_10  and  C_42
   10  A    between atoms: C_11  and  N_14
   11  A    between atoms: N_14  and  C_22
   12  A    between atoms: C_15  and  C_42
                            x       y       z     vdW  Elec       q    Type
                         _______ _______ _______ _____ _____    ______ ____

>  <TORSDO>
F 12

$$$$
=
 OpenBabel10262422103D

 43 47  0  0  1  0  0  0  0  0999 V2000
  188.7880  177.3580  144.0640 C   0  0  1  0  0  3  0  0  0  0  0  0
  188.6810  177.1370  138.9980 C   0  0  1  0  0  3  0  0  0  0  0  0
  191.2350  176.3410  138.0660 C   0  0  0  0  0  0  0  0  0  0  0  0
  189.1520  178.0880  141.6500 C   0  0  0  0  0  0  0  0  0  0  0  0
  188.9070  176.0020  143.4930 N   0  0  0  0  0  2  0  0  0  0  0  0
  189.6410  177.4850  145.3120 C   0  0  0  0  0  1  0  0  0  0  0  0
  189.5810  176.8430  141.3450 C   0  0  0  0  0  0  0  0  0  0  0  0
  189.1060  178.5130  143.0910 C   0  0  0  0  0  2  0  0  0  0  0  0
  189.9500  175.9340  142.4690 C   0  0  0  0  0  2  0  0  0  0  0  0
  190.9380  176.2560  139.4340 O   0  0  0  0  0  0  0  0  0  0  0  0
  189.5960  176.3170  139.9300 C   0  0  2  0  0  3  0  0  0  0  0  0
  188.9440  178.6270  139.1810 C   0  0  0  0  0  2  0  0  0  0  0  0
  188.8760  176.7190  137.5410 C   0  0  1  0  0  3  0  0  0  0  0  0
  190.2990  176.6120  137.1990 N   0  0  0  0  0  0  0  0  0  0  0  0
  188.5850  179.0270  140.6120 C   0  0  0  0  0  2  0  0  0  0  0  0
  192.6550  176.1700  137.6010 C   0  0  1  0  0  3  0  0  0  0  0  0
  193.5780  177.0360  138.4560 C   0  0  0  0  0  1  0  0  0  0  0  0
  193.0400  174.6780  137.5950 C   0  0  2  0  0  3  0  0  0  0  0  0
  194.4520  174.4190  138.1090 C   0  0  0  0  0  1  0  0  0  0  0  0
  192.8620  174.8620  135.2420 O   0  0  0  0  0  0  0  0  0  0  0  0
  192.9090  174.1100  136.2120 C   0  0  0  0  0  0  0  0  0  0  0  0
  192.8900  172.6320  136.0090 C   0  0  0  0  0  2  0  0  0  0  0  0
  194.0180  172.2160  135.0860 C   0  0  0  0  0  2  0  0  0  0  0  0
  194.7050  170.9820  135.6350 C   0  0  0  0  0  2  0  0  0  0  0  0
  196.1570  170.9720  135.1930 C   0  0  0  0  0  2  0  0  0  0  0  0
  197.0810  171.0400  136.4020 C   0  0  2  0  0  3  0  0  0  0  0  0
  196.6580  169.9860  137.4110 C   0  0  0  0  0  1  0  0  0  0  0  0
  196.9980  172.3550  137.0130 N   0  0  0  0  0  2  0  0  0  0  0  0
  198.2900  173.0060  136.8360 C   0  0  2  0  0  3  0  0  0  0  0  0
  196.9510  175.8810  135.5800 C   0  0  0  0  0  1  0  0  0  0  0  0
  198.0210  175.2540  137.5190 N   0  0  0  0  0  2  0  0  0  0  0  0
  198.1690  175.2960  136.1190 N   0  0  0  0  0  0  0  0  0  0  0  0
  198.5280  173.9640  137.9630 C   0  0  0  0  0  2  0  0  0  0  0  0
  198.2280  173.9160  135.6380 C   0  0  0  0  0  2  0  0  0  0  0  0
  188.1710  175.3850  137.2960 C   0  0  0  0  0  2  0  0  0  0  0  0
  184.5340  174.8490  137.2190 C   0  0  0  0  0  2  0  0  0  0  0  0
  183.9040  176.3230  136.4320 S   0  0  0  0  0  0  0  0  0  0  0  0
  182.7450  175.9720  135.5380 O   0  0  0  0  0  0  0  0  0  0  0  0
  186.5420  176.7770  136.1150 C   0  0  0  0  0  3  0  0  0  0  0  0
  185.8630  174.4400  136.5830 C   0  0  0  0  0  2  0  0  0  0  0  0
  186.8540  175.5760  136.6220 C   0  0  0  0  0  0  0  0  0  0  0  0
  183.4560  177.3010  137.4820 O   0  0  0  0  0  0  0  0  0  0  0  0
  185.2170  177.0450  135.4590 C   0  0  0  0  0  2  0  0  0  0  0  0
  1  6  1  1  0  0  0
  2 12  1  6  0  0  0
  2 11  1  0  0  0  0
  3 10  1  0  0  0  0
  4  8  1  0  0  0  0
  5  1  1  0  0  0  0
  7  4  2  0  0  0  0
  7  9  1  0  0  0  0
  8  1  1  0  0  0  0
  9  5  1  0  0  0  0
 11 10  1  6  0  0  0
 11  7  1  0  0  0  0
 12 15  1  0  0  0  0
 13 35  1  1  0  0  0
 13  2  1  0  0  0  0
 14 13  1  0  0  0  0
 14  3  2  0  0  0  0
 15  4  1  0  0  0  0
 16  3  1  0  0  0  0
 16 17  1  1  0  0  0
 18 16  1  0  0  0  0
 18 19  1  6  0  0  0
 20 21  2  0  0  0  0
 21 18  1  0  0  0  0
 22 21  1  0  0  0  0
 23 24  1  0  0  0  0
 23 22  1  0  0  0  0
 25 24  1  0  0  0  0
 25 26  1  0  0  0  0
 26 28  1  0  0  0  0
 26 27  1  1  0  0  0
 29 28  1  1  0  0  0
 29 33  1  0  0  0  0
 30 32  1  0  0  0  0
 31 33  1  0  0  0  0
 32 31  1  0  0  0  0
 34 32  1  0  0  0  0
 34 29  1  0  0  0  0
 37 36  1  0  0  0  0
 37 42  2  0  0  0  0
 38 37  2  0  0  0  0
 39 41  2  0  0  0  0
 40 41  1  0  0  0  0
 40 36  1  0  0  0  0
 41 35  1  0  0  0  0
 43 39  1  0  0  0  0
 43 37  1  0  0  0  0
M  END
>  <MODEL>
7

>  <REMARK>
 VINA RESULT:      -5.4      3.806     10.374
  Name = 
  12 active torsions:
  status: ('A' for Active; 'I' for Inactive)
    1  A    between atoms: C_1  and  C_34
    2  A    between atoms: C_1  and  C_35
    3  A    between atoms: C_2  and  C_6
    4  A    between atoms: C_2  and  C_13
    5  A    between atoms: C_4  and  C_12
    6  A    between atoms: C_4  and  C_15
    7  A    between atoms: C_6  and  C_12
    8  A    between atoms: C_10  and  C_22
    9  A    between atoms: C_10  and  C_42
   10  A    between atoms: C_11  and  N_14
   11  A    between atoms: N_14  and  C_22
   12  A    between atoms: C_15  and  C_42
                            x       y       z     vdW  Elec       q    Type
                         _______ _______ _______ _____ _____    ______ ____

>  <TORSDO>
F 12

$$$$
=
 OpenBabel10262422103D

 43 47  0  0  1  0  0  0  0  0999 V2000
  186.3300  177.9100  146.7700 C   0  0  1  0  0  3  0  0  0  0  0  0
  183.7660  178.3450  142.4160 C   0  0  1  0  0  3  0  0  0  0  0  0
  185.6190  178.5690  140.2860 C   0  0  0  0  0  0  0  0  0  0  0  0
  185.2680  179.0350  144.7450 C   0  0  0  0  0  0  0  0  0  0  0  0
  186.4490  176.7580  145.8550 N   0  0  0  0  0  2  0  0  0  0  0  0
  187.6370  178.1430  147.5040 C   0  0  0  0  0  1  0  0  0  0  0  0
  185.7550  178.0540  143.9540 C   0  0  0  0  0  0  0  0  0  0  0  0
  185.8510  179.2240  146.1180 C   0  0  0  0  0  2  0  0  0  0  0  0
  186.8270  177.1760  144.5050 C   0  0  0  0  0  2  0  0  0  0  0  0
  186.0710  178.2090  141.5630 O   0  0  0  0  0  0  0  0  0  0  0  0
  185.1800  177.7560  142.5900 C   0  0  2  0  0  3  0  0  0  0  0  0
  183.7430  179.7990  142.8700 C   0  0  0  0  0  2  0  0  0  0  0  0
  183.2970  178.2130  140.9680 C   0  0  1  0  0  3  0  0  0  0  0  0
  184.3430  178.6290  140.0250 N   0  0  0  0  0  0  0  0  0  0  0  0
  184.0650  179.8630  144.3630 C   0  0  0  0  0  2  0  0  0  0  0  0
  186.6150  178.9400  139.2210 C   0  0  1  0  0  3  0  0  0  0  0  0
  188.0270  178.6260  139.7140 C   0  0  0  0  0  1  0  0  0  0  0  0
  186.2600  178.2490  137.8910 C   0  0  2  0  0  3  0  0  0  0  0  0
  186.1980  176.7300  137.9990 C   0  0  0  0  0  1  0  0  0  0  0  0
  187.4790  179.8090  136.5940 O   0  0  0  0  0  0  0  0  0  0  0  0
  187.2490  178.6260  136.8270 C   0  0  0  0  0  0  0  0  0  0  0  0
  187.9940  177.5640  136.0880 C   0  0  0  0  0  2  0  0  0  0  0  0
  189.4870  177.7650  136.2470 C   0  0  0  0  0  2  0  0  0  0  0  0
  190.1380  176.4680  136.6850 C   0  0  0  0  0  2  0  0  0  0  0  0
  189.8100  176.2060  138.1440 C   0  0  0  0  0  2  0  0  0  0  0  0
  190.9380  176.7010  139.0390 C   0  0  2  0  0  3  0  0  0  0  0  0
  192.2680  176.4450  138.3510 C   0  0  0  0  0  1  0  0  0  0  0  0
  190.9070  175.9950  140.3080 N   0  0  0  0  0  2  0  0  0  0  0  0
  190.3100  176.8870  141.2940 C   0  0  2  0  0  3  0  0  0  0  0  0
  191.6800  175.2630  143.9630 C   0  0  0  0  0  1  0  0  0  0  0  0
  191.9650  177.3010  142.9320 N   0  0  0  0  0  2  0  0  0  0  0  0
  191.0030  176.4860  143.5590 N   0  0  0  0  0  0  0  0  0  0  0  0
  191.3320  177.8810  141.7560 C   0  0  0  0  0  2  0  0  0  0  0  0
  190.0120  176.1120  142.5500 C   0  0  0  0  0  2  0  0  0  0  0  0
  182.8850  176.7670  140.6960 C   0  0  0  0  0  2  0  0  0  0  0  0
  181.4890  177.8020  137.4550 C   0  0  0  0  0  2  0  0  0  0  0  0
  180.6190  176.3500  136.8840 S   0  0  0  0  0  0  0  0  0  0  0  0
  179.3530  176.7550  136.1780 O   0  0  0  0  0  0  0  0  0  0  0  0
  181.2890  175.4910  139.3510 C   0  0  0  0  0  3  0  0  0  0  0  0
  181.3420  177.9400  138.9720 C   0  0  0  0  0  2  0  0  0  0  0  0
  181.7990  176.6880  139.6750 C   0  0  0  0  0  0  0  0  0  0  0  0
  181.4990  175.5760  135.9430 O   0  0  0  0  0  0  0  0  0  0  0  0
  180.2220  175.3390  138.3030 C   0  0  0  0  0  2  0  0  0  0  0  0
  1  6  1  6  0  0  0
  2 11  1  0  0  0  0
  2 12  1  6  0  0  0
  3 10  1  0  0  0  0
  4  8  1  0  0  0  0
  5  1  1  0  0  0  0
  7  9  1  0  0  0  0
  7  4  2  0  0  0  0
  8  1  1  0  0  0  0
  9  5  1  0  0  0  0
 11 10  1  6  0  0  0
 11  7  1  0  0  0  0
 12 15  1  0  0  0  0
 13 35  1  6  0  0  0
 13  2  1  0  0  0  0
 14  3  2  0  0  0  0
 14 13  1  0  0  0  0
 15  4  1  0  0  0  0
 16 17  1  1  0  0  0
 16  3  1  0  0  0  0
 18 19  1  1  0  0  0
 18 16  1  0  0  0  0
 20 21  2  0  0  0  0
 21 18  1  0  0  0  0
 22 23  1  0  0  0  0
 22 21  1  0  0  0  0
 23 24  1  0  0  0  0
 24 25  1  0  0  0  0
 25 26  1  0  0  0  0
 26 27  1  6  0  0  0
 26 28  1  0  0  0  0
 29 28  1  6  0  0  0
 29 33  1  0  0  0  0
 29 34  1  0  0  0  0
 31 32  1  0  0  0  0
 32 30  1  0  0  0  0
 33 31  1  0  0  0  0
 34 32  1  0  0  0  0
 36 40  1  0  0  0  0
 37 36  1  0  0  0  0
 37 43  1  0  0  0  0
 38 37  2  0  0  0  0
 39 41  2  0  0  0  0
 40 41  1  0  0  0  0
 41 35  1  0  0  0  0
 42 37  2  0  0  0  0
 43 39  1  0  0  0  0
M  END
>  <MODEL>
8

>  <REMARK>
 VINA RESULT:      -5.4      4.017      9.728
  Name = 
  12 active torsions:
  status: ('A' for Active; 'I' for Inactive)
    1  A    between atoms: C_1  and  C_34
    2  A    between atoms: C_1  and  C_35
    3  A    between atoms: C_2  and  C_6
    4  A    between atoms: C_2  and  C_13
    5  A    between atoms: C_4  and  C_12
    6  A    between atoms: C_4  and  C_15
    7  A    between atoms: C_6  and  C_12
    8  A    between atoms: C_10  and  C_22
    9  A    between atoms: C_10  and  C_42
   10  A    between atoms: C_11  and  N_14
   11  A    between atoms: N_14  and  C_22
   12  A    between atoms: C_15  and  C_42
                            x       y       z     vdW  Elec       q    Type
                         _______ _______ _______ _____ _____    ______ ____

>  <TORSDO>
F 12

$$$$
=
 OpenBabel10262422103D

 43 47  0  0  1  0  0  0  0  0999 V2000
  186.3090  177.9480  147.2040 C   0  0  1  0  0  3  0  0  0  0  0  0
  184.5430  178.6130  142.4970 C   0  0  1  0  0  3  0  0  0  0  0  0
  186.7110  178.4580  140.6800 C   0  0  0  0  0  0  0  0  0  0  0  0
  185.7650  179.1470  145.0220 C   0  0  0  0  0  0  0  0  0  0  0  0
  186.3780  176.7570  146.3350 N   0  0  0  0  0  2  0  0  0  0  0  0
  187.5110  178.0010  148.1300 C   0  0  0  0  0  1  0  0  0  0  0  0
  186.2010  178.0710  144.3310 C   0  0  0  0  0  0  0  0  0  0  0  0
  186.1550  179.2950  146.4670 C   0  0  0  0  0  2  0  0  0  0  0  0
  187.0210  177.0570  145.0550 C   0  0  0  0  0  2  0  0  0  0  0  0
  186.8990  178.0800  142.0170 O   0  0  0  0  0  0  0  0  0  0  0  0
  185.8000  177.8150  142.8980 C   0  0  2  0  0  3  0  0  0  0  0  0
  184.6880  180.0690  142.9210 C   0  0  0  0  0  2  0  0  0  0  0  0
  184.2860  178.5000  140.9950 C   0  0  1  0  0  3  0  0  0  0  0  0
  185.5160  178.7090  140.2220 N   0  0  0  0  0  0  0  0  0  0  0  0
  184.7850  180.1400  144.4440 C   0  0  0  0  0  2  0  0  0  0  0  0
  187.9040  178.6250  139.7790 C   0  0  1  0  0  3  0  0  0  0  0  0
  189.1800  178.3280  140.5660 C   0  0  0  0  0  1  0  0  0  0  0  0
  187.7450  177.7590  138.5140 C   0  0  2  0  0  3  0  0  0  0  0  0
  188.8460  176.7180  138.3550 C   0  0  0  0  0  1  0  0  0  0  0  0
  188.4370  179.6150  137.2160 O   0  0  0  0  0  0  0  0  0  0  0  0
  187.7100  178.6270  137.2900 C   0  0  0  0  0  0  0  0  0  0  0  0
  186.8340  178.2620  136.1380 C   0  0  0  0  0  2  0  0  0  0  0  0
  187.6750  177.7850  134.9710 C   0  0  0  0  0  2  0  0  0  0  0  0
  187.4610  176.3000  134.7550 C   0  0  0  0  0  2  0  0  0  0  0  0
  186.1970  175.8620  135.4710 C   0  0  0  0  0  2  0  0  0  0  0  0
  186.3820  174.4770  136.0760 C   0  0  2  0  0  3  0  0  0  0  0  0
  187.8380  174.0660  135.9410 C   0  0  0  0  0  1  0  0  0  0  0  0
  185.5430  173.5180  135.3790 N   0  0  0  0  0  2  0  0  0  0  0  0
  185.5540  172.2810  136.1500 C   0  0  2  0  0  3  0  0  0  0  0  0
  182.2150  172.3890  136.8430 C   0  0  0  0  0  1  0  0  0  0  0  0
  183.6030  171.0860  135.5500 N   0  0  0  0  0  2  0  0  0  0  0  0
  183.3880  171.5290  136.8690 N   0  0  0  0  0  0  0  0  0  0  0  0
  185.0350  171.1580  135.3030 C   0  0  0  0  0  2  0  0  0  0  0  0
  184.5250  172.3680  137.2460 C   0  0  0  0  0  2  0  0  0  0  0  0
  183.6900  177.1280  140.6820 C   0  0  0  0  0  2  0  0  0  0  0  0
  182.0830  176.1470  137.5230 C   0  0  0  0  0  2  0  0  0  0  0  0
  180.3380  176.1820  137.9060 S   0  0  0  0  0  0  0  0  0  0  0  0
  179.5640  176.6990  136.7230 O   0  0  0  0  0  0  0  0  0  0  0  0
  181.2900  177.2060  140.2110 C   0  0  0  0  0  3  0  0  0  0  0  0
  182.8030  177.2850  138.2490 C   0  0  0  0  0  2  0  0  0  0  0  0
  182.5430  177.2300  139.7330 C   0  0  0  0  0  0  0  0  0  0  0  0
  179.8720  174.7960  138.2500 O   0  0  0  0  0  0  0  0  0  0  0  0
  180.0920  177.2640  139.3070 C   0  0  0  0  0  2  0  0  0  0  0  0
  1  6  1  6  0  0  0
  2 11  1  0  0  0  0
  2 12  1  6  0  0  0
  3 10  1  0  0  0  0
  4  8  1  0  0  0  0
  5  1  1  0  0  0  0
  7  4  2  0  0  0  0
  7  9  1  0  0  0  0
  8  1  1  0  0  0  0
  9  5  1  0  0  0  0
 11 10  1  6  0  0  0
 11  7  1  0  0  0  0
 12 15  1  0  0  0  0
 13 35  1  1  0  0  0
 13  2  1  0  0  0  0
 14  3  2  0  0  0  0
 14 13  1  0  0  0  0
 15  4  1  0  0  0  0
 16 17  1  1  0  0  0
 16  3  1  0  0  0  0
 18 19  1  6  0  0  0
 18 16  1  0  0  0  0
 20 21  2  0  0  0  0
 21 18  1  0  0  0  0
 22 21  1  0  0  0  0
 23 22  1  0  0  0  0
 24 23  1  0  0  0  0
 24 25  1  0  0  0  0
 25 26  1  0  0  0  0
 26 27  1  6  0  0  0
 28 26  1  0  0  0  0
 29 28  1  6  0  0  0
 29 34  1  0  0  0  0
 30 32  1  0  0  0  0
 31 32  1  0  0  0  0
 32 34  1  0  0  0  0
 33 31  1  0  0  0  0
 33 29  1  0  0  0  0
 36 37  1  0  0  0  0
 36 40  1  0  0  0  0
 37 42  2  0  0  0  0
 37 43  1  0  0  0  0
 38 37  2  0  0  0  0
 40 41  1  0  0  0  0
 41 39  2  0  0  0  0
 41 35  1  0  0  0  0
 43 39  1  0  0  0  0
M  END
>  <MODEL>
9

>  <REMARK>
 VINA RESULT:      -5.3      4.370      9.853
  Name = 
  12 active torsions:
  status: ('A' for Active; 'I' for Inactive)
    1  A    between atoms: C_1  and  C_34
    2  A    between atoms: C_1  and  C_35
    3  A    between atoms: C_2  and  C_6
    4  A    between atoms: C_2  and  C_13
    5  A    between atoms: C_4  and  C_12
    6  A    between atoms: C_4  and  C_15
    7  A    between atoms: C_6  and  C_12
    8  A    between atoms: C_10  and  C_22
    9  A    between atoms: C_10  and  C_42
   10  A    between atoms: C_11  and  N_14
   11  A    between atoms: N_14  and  C_22
   12  A    between atoms: C_15  and  C_42
                            x       y       z     vdW  Elec       q    Type
                         _______ _______ _______ _____ _____    ______ ____

>  <TORSDO>
F 12

$$$$
