=
 OpenBabel10262421173D

 32 34  0  0  1  0  0  0  0  0999 V2000
  189.4460  176.6110  142.5640 N   0  0  0  0  0  2  0  0  0  0  0  0
  190.3410  177.6490  142.2210 N   0  0  0  0  0  0  0  0  0  0  0  0
  189.4250  176.5150  144.0090 C   0  0  1  0  0  3  0  0  0  0  0  0
  190.5940  177.3120  144.4890 C   0  0  2  0  0  3  0  0  0  0  0  0
  191.3510  179.2680  143.5060 C   0  0  0  0  0  1  0  0  0  0  0  0
  191.2380  177.8320  143.2990 N   0  0  0  0  0  0  0  0  0  0  0  0
  188.1520  177.0780  144.5550 C   0  0  0  0  0  0  0  0  0  0  0  0
  188.0470  177.3190  145.9310 C   0  0  0  0  0  3  0  0  0  0  0  0
  183.7200  178.7630  143.8180 C   0  0  0  0  0  3  0  0  0  0  0  0
  187.1120  177.3820  143.7230 N   0  0  0  0  0  0  0  0  0  0  0  0
  184.6210  178.7090  146.0700 C   0  0  0  0  0  3  0  0  0  0  0  0
  185.8120  178.1650  145.5810 C   0  0  0  0  0  0  0  0  0  0  0  0
  186.8680  177.8640  146.4450 C   0  0  0  0  0  3  0  0  0  0  0  0
  185.9560  177.9140  144.1980 C   0  0  0  0  0  0  0  0  0  0  0  0
  183.5760  179.0070  145.1890 C   0  0  0  0  0  3  0  0  0  0  0  0
  184.9090  178.2180  143.3230 C   0  0  0  0  0  3  0  0  0  0  0  0
  191.0900  177.1850  141.0410 C   0  0  2  0  0  3  0  0  0  0  0  0
  192.5520  177.6260  141.0430 C   0  0  0  0  0  1  0  0  0  0  0  0
  190.3660  177.5670  139.7240 C   0  0  0  0  0  2  0  0  0  0  0  0
  190.1760  176.4960  138.7270 N   0  0  0  0  0  0  0  0  0  0  0  0
  193.1050  175.1750  136.6580 C   0  0  0  0  0  1  0  0  0  0  0  0
  191.3200  176.4370  137.9140 N   0  0  0  0  0  2  0  0  0  0  0  0
  191.3110  174.1050  137.7930 O   0  0  0  0  0  0  0  0  0  0  0  0
  191.8680  175.1910  137.4810 C   0  0  0  0  0  0  0  0  0  0  0  0
  189.0110  176.7300  137.8780 C   0  0  0  0  0  2  0  0  0  0  0  0
  189.2760  177.9090  136.9650 C   0  0  0  0  0  2  0  0  0  0  0  0
  188.0540  178.8050  136.9360 C   0  0  0  0  0  2  0  0  0  0  0  0
  186.8870  178.0800  137.5770 C   0  0  0  0  0  1  0  0  0  0  0  0
  191.5630  176.4260  145.2640 C   0  0  0  0  0  2  0  0  0  0  0  0
  191.6530  176.8640  146.6500 N   0  0  0  0  0  2  0  0  0  0  0  0
  192.8160  176.4880  148.4920 O   0  0  0  0  0  1  0  0  0  0  0  0
  192.3800  175.8950  147.3550 N   0  0  0  0  0  2  0  0  0  0  0  0
  1  3  1  0  0  0  0
  2  1  1  0  0  0  0
  2  6  1  0  0  0  0
  3  4  1  0  0  0  0
  3  7  1  1  0  0  0
  4 29  1  6  0  0  0
  6  5  1  0  0  0  0
  6  4  1  0  0  0  0
  7  8  1  0  0  0  0
  8 13  2  0  0  0  0
  9 15  1  0  0  0  0
 10 14  1  0  0  0  0
 10  7  2  0  0  0  0
 12 11  1  0  0  0  0
 12 13  1  0  0  0  0
 14 12  2  0  0  0  0
 15 11  2  0  0  0  0
 16  9  2  0  0  0  0
 16 14  1  0  0  0  0
 17 18  1  6  0  0  0
 17  2  1  0  0  0  0
 19 17  1  0  0  0  0
 20 19  1  0  0  0  0
 21 24  1  0  0  0  0
 22 20  1  0  0  0  0
 24 23  2  0  0  0  0
 24 22  1  0  0  0  0
 25 20  1  0  0  0  0
 26 25  1  0  0  0  0
 27 26  1  0  0  0  0
 27 28  1  0  0  0  0
 29 30  1  0  0  0  0
 30 32  1  0  0  0  0
 32 31  1  0  0  0  0
M  END
>  <MODEL>
1

>  <REMARK>
 VINA RESULT:      -8.3      0.000      0.000
  Name = 
  11 active torsions:
  status: ('A' for Active; 'I' for Inactive)
    1  A    between atoms: C_2  and  C_5
    2  A    between atoms: C_3  and  C_8
    3  A    between atoms: C_3  and  N_20
    4  A    between atoms: N_4  and  C_24
    5  A    between atoms: C_8  and  C_22
    6  A    between atoms: N_13  and  C_18
    7  A    between atoms: N_13  and  N_29
    8  A    between atoms: C_14  and  C_18
    9  A    between atoms: N_15  and  N_20
   10  A    between atoms: C_16  and  N_20
   11  A    between atoms: C_16  and  C_24
                            x       y       z     vdW  Elec       q    Type
                         _______ _______ _______ _____ _____    ______ ____

>  <TORSDO>
F 11

$$$$
=
 OpenBabel10262421173D

 32 34  0  0  1  0  0  0  0  0999 V2000
  189.3210  176.4560  142.4640 N   0  0  0  0  0  2  0  0  0  0  0  0
  190.3190  177.4180  142.1910 N   0  0  0  0  0  0  0  0  0  0  0  0
  189.1000  176.4520  143.8960 C   0  0  1  0  0  3  0  0  0  0  0  0
  190.2440  177.2090  144.4870 C   0  0  2  0  0  3  0  0  0  0  0  0
  191.2530  179.0530  143.5130 C   0  0  0  0  0  1  0  0  0  0  0  0
  191.0740  177.6160  143.3710 N   0  0  0  0  0  0  0  0  0  0  0  0
  187.8060  177.1210  144.2300 C   0  0  0  0  0  0  0  0  0  0  0  0
  187.5770  177.5480  145.5450 C   0  0  0  0  0  3  0  0  0  0  0  0
  183.5430  178.8230  142.8310 C   0  0  0  0  0  3  0  0  0  0  0  0
  186.8650  177.3410  143.2640 N   0  0  0  0  0  0  0  0  0  0  0  0
  184.2170  179.0440  145.1510 C   0  0  0  0  0  3  0  0  0  0  0  0
  185.4250  178.4050  144.8620 C   0  0  0  0  0  0  0  0  0  0  0  0
  186.3780  178.1910  145.8600 C   0  0  0  0  0  3  0  0  0  0  0  0
  185.6920  177.9660  143.5450 C   0  0  0  0  0  0  0  0  0  0  0  0
  183.2770  179.2520  144.1360 C   0  0  0  0  0  3  0  0  0  0  0  0
  184.7490  178.1810  142.5350 C   0  0  0  0  0  3  0  0  0  0  0  0
  191.1860  176.8380  141.1520 C   0  0  2  0  0  3  0  0  0  0  0  0
  192.3270  177.7630  140.7340 C   0  0  0  0  0  1  0  0  0  0  0  0
  190.3620  176.3420  139.9370 C   0  0  0  0  0  2  0  0  0  0  0  0
  190.3270  177.2130  138.7460 N   0  0  0  0  0  0  0  0  0  0  0  0
  186.6270  178.0440  138.2770 C   0  0  0  0  0  1  0  0  0  0  0  0
  189.0140  177.2340  138.2480 N   0  0  0  0  0  2  0  0  0  0  0  0
  188.3000  178.8760  139.7470 O   0  0  0  0  0  0  0  0  0  0  0  0
  188.0140  178.0870  138.8070 C   0  0  0  0  0  0  0  0  0  0  0  0
  191.2200  176.7450  137.6900 C   0  0  0  0  0  2  0  0  0  0  0  0
  191.3610  175.2400  137.7740 C   0  0  0  0  0  2  0  0  0  0  0  0
  192.8220  174.8640  137.6380 C   0  0  0  0  0  2  0  0  0  0  0  0
  193.5550  175.9670  136.8990 C   0  0  0  0  0  1  0  0  0  0  0  0
  191.0410  176.3190  145.4350 C   0  0  0  0  0  2  0  0  0  0  0  0
  191.7780  177.1310  146.3940 N   0  0  0  0  0  2  0  0  0  0  0  0
  192.4430  177.0430  148.5000 O   0  0  0  0  0  1  0  0  0  0  0  0
  192.2460  176.2760  147.4010 N   0  0  0  0  0  2  0  0  0  0  0  0
  1  3  1  0  0  0  0
  2  1  1  0  0  0  0
  2  6  1  0  0  0  0
  3  7  1  6  0  0  0
  3  4  1  0  0  0  0
  4 29  1  1  0  0  0
  6  5  1  0  0  0  0
  6  4  1  0  0  0  0
  7  8  1  0  0  0  0
  8 13  2  0  0  0  0
  9 15  1  0  0  0  0
 10 14  1  0  0  0  0
 10  7  2  0  0  0  0
 12 11  1  0  0  0  0
 12 13  1  0  0  0  0
 14 12  2  0  0  0  0
 15 11  2  0  0  0  0
 16  9  2  0  0  0  0
 16 14  1  0  0  0  0
 17 18  1  6  0  0  0
 17  2  1  0  0  0  0
 19 17  1  0  0  0  0
 20 19  1  0  0  0  0
 21 24  1  0  0  0  0
 22 20  1  0  0  0  0
 22 24  1  0  0  0  0
 24 23  2  0  0  0  0
 25 26  1  0  0  0  0
 25 20  1  0  0  0  0
 27 26  1  0  0  0  0
 28 27  1  0  0  0  0
 29 30  1  0  0  0  0
 30 32  1  0  0  0  0
 32 31  1  0  0  0  0
M  END
>  <MODEL>
2

>  <REMARK>
 VINA RESULT:      -7.9      1.388      2.713
  Name = 
  11 active torsions:
  status: ('A' for Active; 'I' for Inactive)
    1  A    between atoms: C_2  and  C_5
    2  A    between atoms: C_3  and  C_8
    3  A    between atoms: C_3  and  N_20
    4  A    between atoms: N_4  and  C_24
    5  A    between atoms: C_8  and  C_22
    6  A    between atoms: N_13  and  C_18
    7  A    between atoms: N_13  and  N_29
    8  A    between atoms: C_14  and  C_18
    9  A    between atoms: N_15  and  N_20
   10  A    between atoms: C_16  and  N_20
   11  A    between atoms: C_16  and  C_24
                            x       y       z     vdW  Elec       q    Type
                         _______ _______ _______ _____ _____    ______ ____

>  <TORSDO>
F 11

$$$$
=
 OpenBabel10262421173D

 32 34  0  0  1  0  0  0  0  0999 V2000
  188.6910  179.0960  142.6770 N   0  0  0  0  0  2  0  0  0  0  0  0
  189.2120  177.9630  143.3390 N   0  0  0  0  0  0  0  0  0  0  0  0
  188.2090  178.6600  141.3820 C   0  0  1  0  0  3  0  0  0  0  0  0
  188.7710  177.2910  141.1770 C   0  0  2  0  0  3  0  0  0  0  0  0
  189.0640  175.7180  142.8520 C   0  0  0  0  0  1  0  0  0  0  0  0
  189.5530  176.9980  142.3620 N   0  0  0  0  0  0  0  0  0  0  0  0
  186.7150  178.6170  141.3640 C   0  0  0  0  0  0  0  0  0  0  0  0
  186.0290  178.2490  142.5290 C   0  0  0  0  0  3  0  0  0  0  0  0
  182.5820  179.2880  139.0200 C   0  0  0  0  0  3  0  0  0  0  0  0
  186.0220  178.9600  140.2380 N   0  0  0  0  0  0  0  0  0  0  0  0
  182.5410  178.5580  141.3340 C   0  0  0  0  0  3  0  0  0  0  0  0
  183.9380  178.5750  141.3640 C   0  0  0  0  0  0  0  0  0  0  0  0
  184.6320  178.2260  142.5250 C   0  0  0  0  0  3  0  0  0  0  0  0
  184.6630  178.9470  140.2100 C   0  0  0  0  0  0  0  0  0  0  0  0
  181.8650  178.9140  140.1620 C   0  0  0  0  0  3  0  0  0  0  0  0
  183.9800  179.3060  139.0440 C   0  0  0  0  0  3  0  0  0  0  0  0
  190.4350  178.4050  144.0300 C   0  0  2  0  0  3  0  0  0  0  0  0
  191.6980  177.7160  143.5210 C   0  0  0  0  0  1  0  0  0  0  0  0
  190.2880  178.2940  145.5690 C   0  0  0  0  0  2  0  0  0  0  0  0
  189.2790  177.3470  146.0830 N   0  0  0  0  0  0  0  0  0  0  0  0
  185.8260  178.7380  146.9430 C   0  0  0  0  0  1  0  0  0  0  0  0
  188.2470  178.0820  146.6870 N   0  0  0  0  0  2  0  0  0  0  0  0
  186.5640  177.0530  145.4360 O   0  0  0  0  0  0  0  0  0  0  0  0
  186.8800  177.9070  146.3070 C   0  0  0  0  0  0  0  0  0  0  0  0
  189.8350  176.4250  147.0690 C   0  0  0  0  0  2  0  0  0  0  0  0
  191.1490  176.9680  147.5880 C   0  0  0  0  0  2  0  0  0  0  0  0
  192.1740  175.8520  147.6230 C   0  0  0  0  0  2  0  0  0  0  0  0
  192.2280  175.1790  146.2650 C   0  0  0  0  0  1  0  0  0  0  0  0
  189.6630  177.2600  139.9410 C   0  0  0  0  0  2  0  0  0  0  0  0
  188.8570  177.1060  138.7380 N   0  0  0  0  0  2  0  0  0  0  0  0
  189.0350  179.2340  138.1620 O   0  0  0  0  0  1  0  0  0  0  0  0
  189.3690  177.9810  137.7690 N   0  0  0  0  0  2  0  0  0  0  0  0
  1  2  1  0  0  0  0
  2 17  1  0  0  0  0
  3  7  1  1  0  0  0
  3  1  1  0  0  0  0
  4 29  1  6  0  0  0
  4  3  1  0  0  0  0
  4  6  1  0  0  0  0
  6  5  1  0  0  0  0
  6  2  1  0  0  0  0
  7  8  1  0  0  0  0
  9 16  2  0  0  0  0
  9 15  1  0  0  0  0
 10  7  2  0  0  0  0
 11 12  1  0  0  0  0
 12 13  1  0  0  0  0
 13  8  2  0  0  0  0
 14 10  1  0  0  0  0
 14 12  2  0  0  0  0
 15 11  2  0  0  0  0
 16 14  1  0  0  0  0
 17 18  1  6  0  0  0
 17 19  1  0  0  0  0
 19 20  1  0  0  0  0
 20 22  1  0  0  0  0
 20 25  1  0  0  0  0
 23 24  2  0  0  0  0
 24 22  1  0  0  0  0
 24 21  1  0  0  0  0
 25 26  1  0  0  0  0
 26 27  1  0  0  0  0
 28 27  1  0  0  0  0
 30 29  1  0  0  0  0
 32 31  1  0  0  0  0
 32 30  1  0  0  0  0
M  END
>  <MODEL>
3

>  <REMARK>
 VINA RESULT:      -7.7      2.822      7.131
  Name = 
  11 active torsions:
  status: ('A' for Active; 'I' for Inactive)
    1  A    between atoms: C_2  and  C_5
    2  A    between atoms: C_3  and  C_8
    3  A    between atoms: C_3  and  N_20
    4  A    between atoms: N_4  and  C_24
    5  A    between atoms: C_8  and  C_22
    6  A    between atoms: N_13  and  C_18
    7  A    between atoms: N_13  and  N_29
    8  A    between atoms: C_14  and  C_18
    9  A    between atoms: N_15  and  N_20
   10  A    between atoms: C_16  and  N_20
   11  A    between atoms: C_16  and  C_24
                            x       y       z     vdW  Elec       q    Type
                         _______ _______ _______ _____ _____    ______ ____

>  <TORSDO>
F 11

$$$$
=
 OpenBabel10262421173D

 32 34  0  0  1  0  0  0  0  0999 V2000
  188.6150  179.2280  142.3380 N   0  0  0  0  0  2  0  0  0  0  0  0
  189.1710  178.1390  143.0450 N   0  0  0  0  0  0  0  0  0  0  0  0
  187.9790  178.6950  141.1500 C   0  0  1  0  0  3  0  0  0  0  0  0
  188.4730  177.2910  141.0170 C   0  0  2  0  0  3  0  0  0  0  0  0
  188.9010  175.8680  142.7940 C   0  0  0  0  0  1  0  0  0  0  0  0
  189.3720  177.0770  142.1330 N   0  0  0  0  0  0  0  0  0  0  0  0
  186.4920  178.7120  141.2970 C   0  0  0  0  0  0  0  0  0  0  0  0
  185.6910  178.6200  140.1510 C   0  0  0  0  0  3  0  0  0  0  0  0
  182.6120  178.8520  144.1180 C   0  0  0  0  0  3  0  0  0  0  0  0
  185.9150  178.7860  142.5330 N   0  0  0  0  0  0  0  0  0  0  0  0
  182.3380  178.6940  141.7120 C   0  0  0  0  0  3  0  0  0  0  0  0
  183.7260  178.6960  141.5540 C   0  0  0  0  0  0  0  0  0  0  0  0
  184.3000  178.6140  140.2830 C   0  0  0  0  0  3  0  0  0  0  0  0
  184.5650  178.7810  142.6880 C   0  0  0  0  0  0  0  0  0  0  0  0
  181.7820  178.7720  142.9940 C   0  0  0  0  0  3  0  0  0  0  0  0
  184.0020  178.8550  143.9660 C   0  0  0  0  0  3  0  0  0  0  0  0
  190.4750  178.5930  143.5550 C   0  0  2  0  0  3  0  0  0  0  0  0
  191.6570  177.8540  142.9320 C   0  0  0  0  0  1  0  0  0  0  0  0
  190.5200  178.5640  145.1040 C   0  0  0  0  0  2  0  0  0  0  0  0
  189.6930  177.5470  145.7830 N   0  0  0  0  0  0  0  0  0  0  0  0
  186.2480  178.7010  146.9660 C   0  0  0  0  0  1  0  0  0  0  0  0
  188.6730  178.2020  146.4910 N   0  0  0  0  0  2  0  0  0  0  0  0
  186.9550  177.1000  145.3570 O   0  0  0  0  0  0  0  0  0  0  0  0
  187.2930  177.9520  146.2210 C   0  0  0  0  0  0  0  0  0  0  0  0
  190.4680  176.7380  146.7200 C   0  0  0  0  0  2  0  0  0  0  0  0
  191.7500  176.2810  146.0580 C   0  0  0  0  0  2  0  0  0  0  0  0
  192.4570  175.2920  146.9620 C   0  0  0  0  0  2  0  0  0  0  0  0
  192.6550  175.9170  148.3290 C   0  0  0  0  0  1  0  0  0  0  0  0
  189.2210  177.1100  139.7010 C   0  0  0  0  0  2  0  0  0  0  0  0
  190.4770  176.4090  139.9240 N   0  0  0  0  0  2  0  0  0  0  0  0
  192.0310  176.0910  138.3830 O   0  0  0  0  0  1  0  0  0  0  0  0
  190.7850  175.7060  138.7510 N   0  0  0  0  0  2  0  0  0  0  0  0
  1  2  1  0  0  0  0
  2 17  1  0  0  0  0
  3  7  1  1  0  0  0
  3  1  1  0  0  0  0
  4 29  1  6  0  0  0
  4  3  1  0  0  0  0
  4  6  1  0  0  0  0
  6  5  1  0  0  0  0
  6  2  1  0  0  0  0
  7 10  1  0  0  0  0
  8 13  1  0  0  0  0
  8  7  2  0  0  0  0
 10 14  2  0  0  0  0
 11 15  2  0  0  0  0
 12 11  1  0  0  0  0
 12 14  1  0  0  0  0
 13 12  2  0  0  0  0
 14 16  1  0  0  0  0
 15  9  1  0  0  0  0
 16  9  2  0  0  0  0
 17 18  1  6  0  0  0
 17 19  1  0  0  0  0
 19 20  1  0  0  0  0
 20 22  1  0  0  0  0
 20 25  1  0  0  0  0
 23 24  2  0  0  0  0
 24 22  1  0  0  0  0
 24 21  1  0  0  0  0
 26 25  1  0  0  0  0
 26 27  1  0  0  0  0
 27 28  1  0  0  0  0
 29 30  1  0  0  0  0
 31 32  1  0  0  0  0
 32 30  1  0  0  0  0
M  END
>  <MODEL>
4

>  <REMARK>
 VINA RESULT:      -7.5      2.443      6.817
  Name = 
  11 active torsions:
  status: ('A' for Active; 'I' for Inactive)
    1  A    between atoms: C_2  and  C_5
    2  A    between atoms: C_3  and  C_8
    3  A    between atoms: C_3  and  N_20
    4  A    between atoms: N_4  and  C_24
    5  A    between atoms: C_8  and  C_22
    6  A    between atoms: N_13  and  C_18
    7  A    between atoms: N_13  and  N_29
    8  A    between atoms: C_14  and  C_18
    9  A    between atoms: N_15  and  N_20
   10  A    between atoms: C_16  and  N_20
   11  A    between atoms: C_16  and  C_24
                            x       y       z     vdW  Elec       q    Type
                         _______ _______ _______ _____ _____    ______ ____

>  <TORSDO>
F 11

$$$$
=
 OpenBabel10262421173D

 32 34  0  0  1  0  0  0  0  0999 V2000
  191.3970  176.4730  138.7710 N   0  0  0  0  0  2  0  0  0  0  0  0
  190.7440  175.4990  137.9840 N   0  0  0  0  0  0  0  0  0  0  0  0
  190.4620  177.5600  138.9820 C   0  0  1  0  0  3  0  0  0  0  0  0
  189.3510  177.3380  138.0070 C   0  0  2  0  0  3  0  0  0  0  0  0
  188.5340  175.2610  137.3880 C   0  0  0  0  0  1  0  0  0  0  0  0
  189.6940  176.1330  137.2780 N   0  0  0  0  0  0  0  0  0  0  0  0
  189.9390  177.5410  140.3810 C   0  0  0  0  0  0  0  0  0  0  0  0
  188.5700  177.7450  140.6010 C   0  0  0  0  0  3  0  0  0  0  0  0
  190.7100  176.9620  145.0820 C   0  0  0  0  0  3  0  0  0  0  0  0
  190.7750  177.2980  141.4340 N   0  0  0  0  0  0  0  0  0  0  0  0
  188.4660  177.4230  144.2850 C   0  0  0  0  0  3  0  0  0  0  0  0
  188.9400  177.4640  142.9710 C   0  0  0  0  0  0  0  0  0  0  0  0
  188.0710  177.7080  141.9050 C   0  0  0  0  0  3  0  0  0  0  0  0
  190.3130  177.2560  142.7110 C   0  0  0  0  0  0  0  0  0  0  0  0
  189.3510  177.1730  145.3390 C   0  0  0  0  0  3  0  0  0  0  0  0
  191.1910  177.0020  143.7690 C   0  0  0  0  0  3  0  0  0  0  0  0
  191.7410  174.9990  137.0230 C   0  0  2  0  0  3  0  0  0  0  0  0
  191.8980  173.4800  137.0510 C   0  0  0  0  0  1  0  0  0  0  0  0
  193.0990  175.7290  137.1830 C   0  0  0  0  0  2  0  0  0  0  0  0
  194.3220  174.9250  136.9930 N   0  0  0  0  0  0  0  0  0  0  0  0
  196.6540  174.7440  140.0140 C   0  0  0  0  0  1  0  0  0  0  0  0
  195.2440  175.2740  137.9920 N   0  0  0  0  0  2  0  0  0  0  0  0
  195.3290  173.1200  138.8920 O   0  0  0  0  0  0  0  0  0  0  0  0
  195.7110  174.3190  138.9470 C   0  0  0  0  0  0  0  0  0  0  0  0
  194.9370  175.1530  135.6880 C   0  0  0  0  0  2  0  0  0  0  0  0
  194.7690  176.6050  135.2940 C   0  0  0  0  0  2  0  0  0  0  0  0
  196.0490  177.1020  134.6530 C   0  0  0  0  0  2  0  0  0  0  0  0
  196.1690  178.5980  134.8690 C   0  0  0  0  0  1  0  0  0  0  0  0
  189.2390  178.5160  137.0470 C   0  0  0  0  0  2  0  0  0  0  0  0
  188.0610  179.3140  137.3580 N   0  0  0  0  0  2  0  0  0  0  0  0
  186.1200  178.8380  138.3050 O   0  0  0  0  0  1  0  0  0  0  0  0
  186.9460  178.4650  137.2980 N   0  0  0  0  0  2  0  0  0  0  0  0
  1  3  1  0  0  0  0
  2  1  1  0  0  0  0
  3  7  1  1  0  0  0
  4 29  1  6  0  0  0
  4  3  1  0  0  0  0
  6  5  1  0  0  0  0
  6  2  1  0  0  0  0
  6  4  1  0  0  0  0
  7  8  2  0  0  0  0
  7 10  1  0  0  0  0
  8 13  1  0  0  0  0
  9 15  1  0  0  0  0
 10 14  2  0  0  0  0
 11 15  2  0  0  0  0
 12 11  1  0  0  0  0
 13 12  2  0  0  0  0
 14 12  1  0  0  0  0
 14 16  1  0  0  0  0
 16  9  2  0  0  0  0
 17 18  1  1  0  0  0
 17 19  1  0  0  0  0
 17  2  1  0  0  0  0
 20 19  1  0  0  0  0
 20 22  1  0  0  0  0
 22 24  1  0  0  0  0
 23 24  2  0  0  0  0
 24 21  1  0  0  0  0
 25 20  1  0  0  0  0
 26 25  1  0  0  0  0
 27 28  1  0  0  0  0
 27 26  1  0  0  0  0
 29 30  1  0  0  0  0
 32 30  1  0  0  0  0
 32 31  1  0  0  0  0
M  END
>  <MODEL>
5

>  <REMARK>
 VINA RESULT:      -7.3      3.359      6.576
  Name = 
  11 active torsions:
  status: ('A' for Active; 'I' for Inactive)
    1  A    between atoms: C_2  and  C_5
    2  A    between atoms: C_3  and  C_8
    3  A    between atoms: C_3  and  N_20
    4  A    between atoms: N_4  and  C_24
    5  A    between atoms: C_8  and  C_22
    6  A    between atoms: N_13  and  C_18
    7  A    between atoms: N_13  and  N_29
    8  A    between atoms: C_14  and  C_18
    9  A    between atoms: N_15  and  N_20
   10  A    between atoms: C_16  and  N_20
   11  A    between atoms: C_16  and  C_24
                            x       y       z     vdW  Elec       q    Type
                         _______ _______ _______ _____ _____    ______ ____

>  <TORSDO>
F 11

$$$$
=
 OpenBabel10262421173D

 32 34  0  0  1  0  0  0  0  0999 V2000
  183.7820  178.9640  139.7060 N   0  0  0  0  0  2  0  0  0  0  0  0
  183.4740  177.7510  139.0520 N   0  0  0  0  0  0  0  0  0  0  0  0
  182.9470  179.0450  140.8880 C   0  0  1  0  0  3  0  0  0  0  0  0
  181.9000  177.9920  140.7210 C   0  0  2  0  0  3  0  0  0  0  0  0
  182.2500  175.9250  139.7340 C   0  0  0  0  0  1  0  0  0  0  0  0
  182.1770  177.3510  139.4500 N   0  0  0  0  0  0  0  0  0  0  0  0
  183.7520  178.7860  142.1200 C   0  0  0  0  0  0  0  0  0  0  0  0
  183.1710  179.0090  143.3750 C   0  0  0  0  0  3  0  0  0  0  0  0
  187.8320  177.2980  144.1620 C   0  0  0  0  0  3  0  0  0  0  0  0
  185.0300  178.3110  142.0300 N   0  0  0  0  0  0  0  0  0  0  0  0
  185.9810  178.0040  145.5620 C   0  0  0  0  0  3  0  0  0  0  0  0
  185.2180  178.2690  144.4220 C   0  0  0  0  0  0  0  0  0  0  0  0
  183.9110  178.7500  144.5310 C   0  0  0  0  0  3  0  0  0  0  0  0
  185.7700  178.0500  143.1390 C   0  0  0  0  0  0  0  0  0  0  0  0
  187.2860  177.5190  145.4320 C   0  0  0  0  0  3  0  0  0  0  0  0
  187.0740  177.5620  143.0170 C   0  0  0  0  0  3  0  0  0  0  0  0
  183.4690  178.0420  137.6090 C   0  0  2  0  0  3  0  0  0  0  0  0
  182.0740  178.3270  137.0560 C   0  0  0  0  0  1  0  0  0  0  0  0
  184.2020  176.9380  136.8050 C   0  0  0  0  0  2  0  0  0  0  0  0
  185.4630  176.4200  137.3680 N   0  0  0  0  0  0  0  0  0  0  0  0
  188.3360  178.9110  136.9920 C   0  0  0  0  0  1  0  0  0  0  0  0
  186.5280  177.1610  136.8320 N   0  0  0  0  0  2  0  0  0  0  0  0
  186.9550  178.2960  138.8280 O   0  0  0  0  0  0  0  0  0  0  0  0
  187.2440  178.1190  137.6140 C   0  0  0  0  0  0  0  0  0  0  0  0
  185.6710  175.0080  137.0560 C   0  0  0  0  0  2  0  0  0  0  0  0
  184.4830  174.2010  137.5340 C   0  0  0  0  0  2  0  0  0  0  0  0
  184.8980  172.7550  137.7100 C   0  0  0  0  0  2  0  0  0  0  0  0
  184.2160  171.9070  136.6540 C   0  0  0  0  0  1  0  0  0  0  0  0
  180.5100  178.6190  140.6980 C   0  0  0  0  0  2  0  0  0  0  0  0
  180.0500  178.8800  142.0550 N   0  0  0  0  0  2  0  0  0  0  0  0
  179.7460  177.6650  143.8770 O   0  0  0  0  0  1  0  0  0  0  0  0
  179.4880  177.6930  142.5480 N   0  0  0  0  0  2  0  0  0  0  0  0
  1  3  1  0  0  0  0
  2  6  1  0  0  0  0
  2  1  1  0  0  0  0
  3  7  1  1  0  0  0
  4 29  1  6  0  0  0
  4  3  1  0  0  0  0
  6  5  1  0  0  0  0
  6  4  1  0  0  0  0
  7  8  1  0  0  0  0
  8 13  2  0  0  0  0
  9 15  1  0  0  0  0
 10  7  2  0  0  0  0
 10 14  1  0  0  0  0
 12 13  1  0  0  0  0
 12 11  1  0  0  0  0
 14 12  2  0  0  0  0
 15 11  2  0  0  0  0
 16 14  1  0  0  0  0
 16  9  2  0  0  0  0
 17 18  1  6  0  0  0
 17  2  1  0  0  0  0
 19 20  1  0  0  0  0
 19 17  1  0  0  0  0
 21 24  1  0  0  0  0
 22 20  1  0  0  0  0
 22 24  1  0  0  0  0
 24 23  2  0  0  0  0
 25 20  1  0  0  0  0
 25 26  1  0  0  0  0
 26 27  1  0  0  0  0
 28 27  1  0  0  0  0
 29 30  1  0  0  0  0
 30 32  1  0  0  0  0
 32 31  1  0  0  0  0
M  END
>  <MODEL>
6

>  <REMARK>
 VINA RESULT:      -7.2      4.760      7.543
  Name = 
  11 active torsions:
  status: ('A' for Active; 'I' for Inactive)
    1  A    between atoms: C_2  and  C_5
    2  A    between atoms: C_3  and  C_8
    3  A    between atoms: C_3  and  N_20
    4  A    between atoms: N_4  and  C_24
    5  A    between atoms: C_8  and  C_22
    6  A    between atoms: N_13  and  C_18
    7  A    between atoms: N_13  and  N_29
    8  A    between atoms: C_14  and  C_18
    9  A    between atoms: N_15  and  N_20
   10  A    between atoms: C_16  and  N_20
   11  A    between atoms: C_16  and  C_24
                            x       y       z     vdW  Elec       q    Type
                         _______ _______ _______ _____ _____    ______ ____

>  <TORSDO>
F 11

$$$$
=
 OpenBabel10262421173D

 32 34  0  0  1  0  0  0  0  0999 V2000
  188.7370  179.0120  142.8920 N   0  0  0  0  0  2  0  0  0  0  0  0
  189.2400  177.8330  143.4830 N   0  0  0  0  0  0  0  0  0  0  0  0
  188.2690  178.6690  141.5640 C   0  0  1  0  0  3  0  0  0  0  0  0
  188.8250  177.3120  141.2740 C   0  0  2  0  0  3  0  0  0  0  0  0
  189.0840  175.6280  142.8430 C   0  0  0  0  0  1  0  0  0  0  0  0
  189.5890  176.9340  142.4470 N   0  0  0  0  0  0  0  0  0  0  0  0
  186.7760  178.6380  141.5230 C   0  0  0  0  0  0  0  0  0  0  0  0
  186.0690  178.2620  142.6730 C   0  0  0  0  0  3  0  0  0  0  0  0
  182.6850  179.3700  139.1250 C   0  0  0  0  0  3  0  0  0  0  0  0
  186.1020  178.9990  140.3910 N   0  0  0  0  0  0  0  0  0  0  0  0
  182.6030  178.6140  141.4290 C   0  0  0  0  0  3  0  0  0  0  0  0
  183.9990  178.6190  141.4800 C   0  0  0  0  0  0  0  0  0  0  0  0
  184.6720  178.2520  142.6480 C   0  0  0  0  0  3  0  0  0  0  0  0
  184.7450  178.9980  140.3420 C   0  0  0  0  0  0  0  0  0  0  0  0
  181.9470  178.9890  140.2510 C   0  0  0  0  0  3  0  0  0  0  0  0
  184.0820  179.3760  139.1700 C   0  0  0  0  0  3  0  0  0  0  0  0
  190.4560  178.2180  144.2190 C   0  0  2  0  0  3  0  0  0  0  0  0
  191.6560  178.4730  143.3100 C   0  0  0  0  0  1  0  0  0  0  0  0
  190.7820  177.2050  145.3460 C   0  0  0  0  0  2  0  0  0  0  0  0
  190.2320  177.4880  146.6850 N   0  0  0  0  0  0  0  0  0  0  0  0
  193.0280  175.6280  148.5090 C   0  0  0  0  0  1  0  0  0  0  0  0
  191.1870  177.1200  147.6460 N   0  0  0  0  0  2  0  0  0  0  0  0
  192.0210  175.3490  146.3730 O   0  0  0  0  0  0  0  0  0  0  0  0
  192.0620  176.0080  147.4450 C   0  0  0  0  0  0  0  0  0  0  0  0
  188.9990  176.7510  146.9460 C   0  0  0  0  0  2  0  0  0  0  0  0
  187.9230  177.7080  147.4130 C   0  0  0  0  0  2  0  0  0  0  0  0
  187.1300  178.1940  146.2170 C   0  0  0  0  0  2  0  0  0  0  0  0
  185.6660  178.3020  146.5980 C   0  0  0  0  0  1  0  0  0  0  0  0
  189.7340  177.3580  140.0510 C   0  0  0  0  0  2  0  0  0  0  0  0
  188.9820  177.0310  138.8480 N   0  0  0  0  0  2  0  0  0  0  0  0
  189.0560  179.1830  138.3460 O   0  0  0  0  0  1  0  0  0  0  0  0
  189.3450  177.9540  137.8570 N   0  0  0  0  0  2  0  0  0  0  0  0
  1  2  1  0  0  0  0
  2 17  1  0  0  0  0
  3  7  1  1  0  0  0
  3  1  1  0  0  0  0
  4 29  1  6  0  0  0
  4  3  1  0  0  0  0
  4  6  1  0  0  0  0
  6  5  1  0  0  0  0
  6  2  1  0  0  0  0
  7  8  1  0  0  0  0
  9 16  2  0  0  0  0
  9 15  1  0  0  0  0
 10  7  2  0  0  0  0
 11 12  1  0  0  0  0
 12 13  1  0  0  0  0
 13  8  2  0  0  0  0
 14 10  1  0  0  0  0
 14 12  2  0  0  0  0
 15 11  2  0  0  0  0
 16 14  1  0  0  0  0
 17 18  1  6  0  0  0
 17 19  1  0  0  0  0
 19 20  1  0  0  0  0
 20 25  1  0  0  0  0
 20 22  1  0  0  0  0
 23 24  2  0  0  0  0
 24 22  1  0  0  0  0
 24 21  1  0  0  0  0
 25 26  1  0  0  0  0
 27 28  1  0  0  0  0
 27 26  1  0  0  0  0
 30 29  1  0  0  0  0
 32 31  1  0  0  0  0
 32 30  1  0  0  0  0
M  END
>  <MODEL>
7

>  <REMARK>
 VINA RESULT:      -7.1      2.448      6.780
  Name = 
  11 active torsions:
  status: ('A' for Active; 'I' for Inactive)
    1  A    between atoms: C_2  and  C_5
    2  A    between atoms: C_3  and  C_8
    3  A    between atoms: C_3  and  N_20
    4  A    between atoms: N_4  and  C_24
    5  A    between atoms: C_8  and  C_22
    6  A    between atoms: N_13  and  C_18
    7  A    between atoms: N_13  and  N_29
    8  A    between atoms: C_14  and  C_18
    9  A    between atoms: N_15  and  N_20
   10  A    between atoms: C_16  and  N_20
   11  A    between atoms: C_16  and  C_24
                            x       y       z     vdW  Elec       q    Type
                         _______ _______ _______ _____ _____    ______ ____

>  <TORSDO>
F 11

$$$$
=
 OpenBabel10262421173D

 32 34  0  0  1  0  0  0  0  0999 V2000
  188.3860  177.5720  141.3510 N   0  0  0  0  0  2  0  0  0  0  0  0
  188.3820  176.6590  142.4280 N   0  0  0  0  0  0  0  0  0  0  0  0
  189.7320  177.6110  140.8170 C   0  0  1  0  0  3  0  0  0  0  0  0
  190.5950  176.9390  141.8360 C   0  0  2  0  0  3  0  0  0  0  0  0
  189.9490  175.1220  143.1200 C   0  0  0  0  0  1  0  0  0  0  0  0
  189.7070  176.5420  142.9110 N   0  0  0  0  0  0  0  0  0  0  0  0
  189.8030  176.8840  139.5140 C   0  0  0  0  0  0  0  0  0  0  0  0
  188.7040  176.9280  138.6470 C   0  0  0  0  0  3  0  0  0  0  0  0
  192.2820  174.2080  136.3960 C   0  0  0  0  0  3  0  0  0  0  0  0
  190.9340  176.2070  139.1540 N   0  0  0  0  0  0  0  0  0  0  0  0
  190.0250  174.9060  135.8450 C   0  0  0  0  0  3  0  0  0  0  0  0
  189.9330  175.5760  137.0670 C   0  0  0  0  0  0  0  0  0  0  0  0
  188.7710  176.2680  137.4180 C   0  0  0  0  0  3  0  0  0  0  0  0
  191.0250  175.5580  137.9640 C   0  0  0  0  0  0  0  0  0  0  0  0
  191.1990  174.2220  135.5110 C   0  0  0  0  0  3  0  0  0  0  0  0
  192.1960  174.8760  137.6220 C   0  0  0  0  0  3  0  0  0  0  0  0
  187.5350  177.2510  143.4770 C   0  0  2  0  0  3  0  0  0  0  0  0
  186.2530  177.8780  142.9350 C   0  0  0  0  0  1  0  0  0  0  0  0
  188.3370  178.2360  144.3650 C   0  0  0  0  0  2  0  0  0  0  0  0
  188.3750  177.9590  145.8140 N   0  0  0  0  0  0  0  0  0  0  0  0
  191.2370  176.0090  147.4270 C   0  0  0  0  0  1  0  0  0  0  0  0
  189.3640  176.9930  146.0560 N   0  0  0  0  0  2  0  0  0  0  0  0
  189.9910  177.9160  148.1080 O   0  0  0  0  0  0  0  0  0  0  0  0
  190.1730  177.0280  147.2330 C   0  0  0  0  0  0  0  0  0  0  0  0
  187.0980  177.4580  146.3160 C   0  0  0  0  0  2  0  0  0  0  0  0
  186.2460  178.6180  146.7840 C   0  0  0  0  0  2  0  0  0  0  0  0
  184.7820  178.2530  146.6430 C   0  0  0  0  0  2  0  0  0  0  0  0
  184.1890  179.0050  145.4670 C   0  0  0  0  0  1  0  0  0  0  0  0
  191.6530  177.9020  142.3600 C   0  0  0  0  0  2  0  0  0  0  0  0
  191.6670  177.8970  143.8160 N   0  0  0  0  0  2  0  0  0  0  0  0
  190.9680  179.9810  144.0630 O   0  0  0  0  0  1  0  0  0  0  0  0
  192.0460  179.1790  144.2410 N   0  0  0  0  0  2  0  0  0  0  0  0
  1  2  1  0  0  0  0
  2  6  1  0  0  0  0
  2 17  1  0  0  0  0
  3  7  1  6  0  0  0
  3  1  1  0  0  0  0
  3  4  1  0  0  0  0
  4 29  1  1  0  0  0
  4  6  1  0  0  0  0
  6  5  1  0  0  0  0
  8  7  2  0  0  0  0
  9 16  2  0  0  0  0
 10  7  1  0  0  0  0
 11 12  1  0  0  0  0
 12 13  2  0  0  0  0
 12 14  1  0  0  0  0
 13  8  1  0  0  0  0
 14 10  2  0  0  0  0
 15 11  2  0  0  0  0
 15  9  1  0  0  0  0
 16 14  1  0  0  0  0
 17 18  1  6  0  0  0
 17 19  1  0  0  0  0
 19 20  1  0  0  0  0
 20 22  1  0  0  0  0
 20 25  1  0  0  0  0
 22 24  1  0  0  0  0
 24 21  1  0  0  0  0
 24 23  2  0  0  0  0
 25 26  1  0  0  0  0
 27 26  1  0  0  0  0
 28 27  1  0  0  0  0
 29 30  1  0  0  0  0
 30 32  1  0  0  0  0
 31 32  1  0  0  0  0
M  END
>  <MODEL>
8

>  <REMARK>
 VINA RESULT:      -6.9      2.257      7.872
  Name = 
  11 active torsions:
  status: ('A' for Active; 'I' for Inactive)
    1  A    between atoms: C_2  and  C_5
    2  A    between atoms: C_3  and  C_8
    3  A    between atoms: C_3  and  N_20
    4  A    between atoms: N_4  and  C_24
    5  A    between atoms: C_8  and  C_22
    6  A    between atoms: N_13  and  C_18
    7  A    between atoms: N_13  and  N_29
    8  A    between atoms: C_14  and  C_18
    9  A    between atoms: N_15  and  N_20
   10  A    between atoms: C_16  and  N_20
   11  A    between atoms: C_16  and  C_24
                            x       y       z     vdW  Elec       q    Type
                         _______ _______ _______ _____ _____    ______ ____

>  <TORSDO>
F 11

$$$$
=
 OpenBabel10262421173D

 32 34  0  0  1  0  0  0  0  0999 V2000
  184.1350  178.8250  139.8440 N   0  0  0  0  0  2  0  0  0  0  0  0
  183.8560  177.5790  139.2410 N   0  0  0  0  0  0  0  0  0  0  0  0
  183.1280  179.0540  140.8600 C   0  0  1  0  0  3  0  0  0  0  0  0
  182.0520  178.0490  140.6010 C   0  0  2  0  0  3  0  0  0  0  0  0
  182.4150  175.8890  139.8470 C   0  0  0  0  0  1  0  0  0  0  0  0
  182.4860  177.2870  139.4470 N   0  0  0  0  0  0  0  0  0  0  0  0
  183.7030  178.8590  142.2250 C   0  0  0  0  0  0  0  0  0  0  0  0
  182.9040  179.1170  143.3460 C   0  0  0  0  0  3  0  0  0  0  0  0
  187.3720  177.5320  145.0190 C   0  0  0  0  0  3  0  0  0  0  0  0
  184.9830  178.4070  142.3830 N   0  0  0  0  0  0  0  0  0  0  0  0
  185.2910  178.2540  146.0380 C   0  0  0  0  0  3  0  0  0  0  0  0
  184.7420  178.4600  144.7700 C   0  0  0  0  0  0  0  0  0  0  0  0
  183.4300  178.9180  144.6250 C   0  0  0  0  0  3  0  0  0  0  0  0
  185.5160  178.2030  143.6160 C   0  0  0  0  0  0  0  0  0  0  0  0
  186.6060  177.7910  146.1620 C   0  0  0  0  0  3  0  0  0  0  0  0
  186.8280  177.7370  143.7480 C   0  0  0  0  0  3  0  0  0  0  0  0
  184.1040  177.7450  137.7990 C   0  0  2  0  0  3  0  0  0  0  0  0
  182.8240  177.8830  136.9790 C   0  0  0  0  0  1  0  0  0  0  0  0
  185.0300  176.6290  137.2520 C   0  0  0  0  0  2  0  0  0  0  0  0
  186.4240  177.0030  136.9440 N   0  0  0  0  0  0  0  0  0  0  0  0
  188.5390  173.8480  136.5320 C   0  0  0  0  0  1  0  0  0  0  0  0
  187.2520  175.9030  137.2200 N   0  0  0  0  0  2  0  0  0  0  0  0
  187.3900  175.2400  134.9850 O   0  0  0  0  0  0  0  0  0  0  0  0
  187.7000  175.0240  136.1870 C   0  0  0  0  0  0  0  0  0  0  0  0
  186.8810  178.1420  137.7360 C   0  0  0  0  0  2  0  0  0  0  0  0
  188.3660  178.3450  137.5250 C   0  0  0  0  0  2  0  0  0  0  0  0
  189.0480  178.4920  138.8700 C   0  0  0  0  0  2  0  0  0  0  0  0
  188.0340  178.2580  139.9740 C   0  0  0  0  0  1  0  0  0  0  0  0
  180.7310  178.7470  140.2990 C   0  0  0  0  0  2  0  0  0  0  0  0
  180.9510  180.1670  140.0580 N   0  0  0  0  0  2  0  0  0  0  0  0
  180.0550  180.6000  142.0320 O   0  0  0  0  0  1  0  0  0  0  0  0
  179.9290  180.8710  140.7110 N   0  0  0  0  0  2  0  0  0  0  0  0
  1  3  1  0  0  0  0
  2  6  1  0  0  0  0
  2  1  1  0  0  0  0
  3  7  1  1  0  0  0
  4 29  1  6  0  0  0
  4  3  1  0  0  0  0
  6  5  1  0  0  0  0
  6  4  1  0  0  0  0
  7 10  2  0  0  0  0
  7  8  1  0  0  0  0
  8 13  2  0  0  0  0
  9 15  1  0  0  0  0
 10 14  1  0  0  0  0
 11 15  2  0  0  0  0
 12 11  1  0  0  0  0
 13 12  1  0  0  0  0
 14 16  1  0  0  0  0
 14 12  2  0  0  0  0
 16  9  2  0  0  0  0
 17 18  1  6  0  0  0
 17  2  1  0  0  0  0
 19 17  1  0  0  0  0
 20 22  1  0  0  0  0
 20 19  1  0  0  0  0
 20 25  1  0  0  0  0
 23 24  2  0  0  0  0
 24 21  1  0  0  0  0
 24 22  1  0  0  0  0
 26 25  1  0  0  0  0
 26 27  1  0  0  0  0
 27 28  1  0  0  0  0
 30 29  1  0  0  0  0
 30 32  1  0  0  0  0
 32 31  1  0  0  0  0
M  END
>  <MODEL>
9

>  <REMARK>
 VINA RESULT:      -6.8      4.519      7.170
  Name = 
  11 active torsions:
  status: ('A' for Active; 'I' for Inactive)
    1  A    between atoms: C_2  and  C_5
    2  A    between atoms: C_3  and  C_8
    3  A    between atoms: C_3  and  N_20
    4  A    between atoms: N_4  and  C_24
    5  A    between atoms: C_8  and  C_22
    6  A    between atoms: N_13  and  C_18
    7  A    between atoms: N_13  and  N_29
    8  A    between atoms: C_14  and  C_18
    9  A    between atoms: N_15  and  N_20
   10  A    between atoms: C_16  and  N_20
   11  A    between atoms: C_16  and  C_24
                            x       y       z     vdW  Elec       q    Type
                         _______ _______ _______ _____ _____    ______ ____

>  <TORSDO>
F 11

$$$$
