=
 OpenBabel10262421093D

 32 37  0  0  0  0  0  0  0  0999 V2000
  187.0690  178.0000  144.9040 C   0  0  0  0  0  0  0  0  0  0  0  0
  189.3670  177.4220  144.0770 C   0  0  0  0  0  0  0  0  0  0  0  0
  186.1380  178.1900  145.9400 C   0  0  0  0  0  3  0  0  0  0  0  0
  188.4210  177.6220  145.2180 C   0  0  0  0  0  0  0  0  0  0  0  0
  190.6830  177.0750  144.1510 C   0  0  0  0  0  0  0  0  0  0  0  0
  190.0040  177.3950  139.1870 C   0  0  0  0  0  3  0  0  0  0  0  0
  188.8040  177.6240  142.7080 C   0  0  0  0  0  0  0  0  0  0  0  0
  191.8080  176.8930  140.7170 C   0  0  0  0  0  3  0  0  0  0  0  0
  190.9470  177.0830  141.8030 C   0  0  0  0  0  0  0  0  0  0  0  0
  191.1000  176.8730  146.5360 C   0  0  0  0  0  0  0  0  0  0  0  0
  188.7610  177.4580  146.5900 C   0  0  0  0  0  0  0  0  0  0  0  0
  191.4020  176.9230  143.0340 O   0  0  0  0  0  0  0  0  0  0  0  0
  189.9340  177.1340  147.0860 O   0  0  0  0  0  0  0  0  0  0  0  0
  187.7880  177.6540  147.5740 C   0  0  0  0  0  3  0  0  0  0  0  0
  187.4780  177.9940  142.5550 C   0  0  0  0  0  3  0  0  0  0  0  0
  192.0740  176.6050  147.3410 N   0  0  0  0  0  2  0  0  0  0  0  0
  186.6530  178.1770  143.6090 N   0  0  0  0  0  0  0  0  0  0  0  0
  189.6140  177.4380  141.5860 C   0  0  0  0  0  0  0  0  0  0  0  0
  191.3790  176.8520  145.2490 O   0  0  0  0  0  0  0  0  0  0  0  0
  186.4900  178.0190  147.2630 C   0  0  0  0  0  3  0  0  0  0  0  0
  191.3380  177.0490  139.4110 C   0  0  0  0  0  3  0  0  0  0  0  0
  189.1420  177.5920  140.2700 C   0  0  0  0  0  3  0  0  0  0  0  0
  183.8420  178.9700  141.3160 C   0  0  0  0  0  0  0  0  0  0  0  0
  180.7930  179.2500  143.2260 C   0  0  0  0  0  1  0  0  0  0  0  0
  183.6830  179.5020  140.0730 F   0  0  0  0  0  0  0  0  0  0  0  0
  182.9770  178.9080  144.2410 C   0  0  0  0  0  3  0  0  0  0  0  0
  185.3020  178.5610  143.3020 C   0  0  0  0  0  0  0  0  0  0  0  0
  182.7110  178.1830  141.8960 C   0  0  0  0  0  2  0  0  0  0  0  0
  184.4030  178.5370  144.3050 C   0  0  0  0  0  3  0  0  0  0  0  0
  185.0210  179.0950  141.9400 C   0  0  0  0  0  0  0  0  0  0  0  0
  186.0580  179.7340  141.2660 O   0  0  0  0  0  1  0  0  0  0  0  0
  182.2120  178.8130  143.1540 C   0  0  0  0  0  0  0  0  0  0  0  0
  1  4  2  0  0  0  0
  1  3  1  0  0  0  0
  2  5  2  0  0  0  0
  2  4  1  0  0  0  0
  3 20  2  0  0  0  0
  4 11  1  0  0  0  0
  5 19  1  0  0  0  0
  6 21  2  0  0  0  0
  6 22  1  0  0  0  0
  7  2  1  0  0  0  0
  8  9  2  0  0  0  0
  9 12  1  0  0  0  0
 10 13  1  0  0  0  0
 10 16  2  0  0  0  0
 11 13  1  0  0  0  0
 11 14  2  0  0  0  0
 12  5  1  0  0  0  0
 15  7  2  0  0  0  0
 15 17  1  0  0  0  0
 17  1  1  0  0  0  0
 18  9  1  0  0  0  0
 18  7  1  0  0  0  0
 19 10  1  0  0  0  0
 20 14  1  0  0  0  0
 21  8  1  0  0  0  0
 22 18  2  0  0  0  0
 23 28  1  0  0  0  0
 23 30  2  0  0  0  0
 25 23  1  0  0  0  0
 26 29  1  0  0  0  0
 27 17  1  0  0  0  0
 27 29  2  0  0  0  0
 28 32  1  0  0  0  0
 30 27  1  0  0  0  0
 31 30  1  0  0  0  0
 32 24  1  0  0  0  0
 32 26  2  0  0  0  0
M  END
>  <MODEL>
1

>  <REMARK>
 VINA RESULT:     -12.7      0.000      0.000
  Name = 
  1 active torsions:
  status: ('A' for Active; 'I' for Inactive)
    1  A    between atoms: C_16  and  N_27
                            x       y       z     vdW  Elec       q    Type
                         _______ _______ _______ _____ _____    ______ ____

>  <TORSDO>
F 1

$$$$
=
 OpenBabel10262421093D

 32 37  0  0  0  0  0  0  0  0999 V2000
  185.9310  178.2070  144.4400 C   0  0  0  0  0  0  0  0  0  0  0  0
  188.3250  177.6490  143.9340 C   0  0  0  0  0  0  0  0  0  0  0  0
  184.8750  178.4220  145.3430 C   0  0  0  0  0  3  0  0  0  0  0  0
  187.2400  177.8770  144.9380 C   0  0  0  0  0  0  0  0  0  0  0  0
  189.6280  177.3370  144.1880 C   0  0  0  0  0  0  0  0  0  0  0  0
  189.5690  177.4120  139.1680 C   0  0  0  0  0  3  0  0  0  0  0  0
  187.9340  177.7740  142.4980 C   0  0  0  0  0  0  0  0  0  0  0  0
  191.1770  177.0260  140.9330 C   0  0  0  0  0  3  0  0  0  0  0  0
  190.1830  177.2450  141.8930 C   0  0  0  0  0  0  0  0  0  0  0  0
  189.7470  177.2550  146.6130 C   0  0  0  0  0  0  0  0  0  0  0  0
  187.4080  177.7850  146.3480 C   0  0  0  0  0  0  0  0  0  0  0  0
  190.4830  177.1520  143.1780 O   0  0  0  0  0  0  0  0  0  0  0  0
  188.5160  177.5130  147.0010 O   0  0  0  0  0  0  0  0  0  0  0  0
  186.3170  178.0020  147.1920 C   0  0  0  0  0  3  0  0  0  0  0  0
  186.6310  178.1040  142.1630 C   0  0  0  0  0  3  0  0  0  0  0  0
  190.6170  177.0480  147.5450 N   0  0  0  0  0  2  0  0  0  0  0  0
  185.6770  178.3150  143.0970 N   0  0  0  0  0  0  0  0  0  0  0  0
  188.8810  177.5560  141.4960 C   0  0  0  0  0  0  0  0  0  0  0  0
  190.1850  177.1830  145.3730 O   0  0  0  0  0  0  0  0  0  0  0  0
  185.0610  178.3210  146.7060 C   0  0  0  0  0  3  0  0  0  0  0  0
  190.8710  177.1100  139.5730 C   0  0  0  0  0  3  0  0  0  0  0  0
  188.5750  177.6380  140.1260 C   0  0  0  0  0  3  0  0  0  0  0  0
  183.1410  178.8570  140.4400 C   0  0  0  0  0  0  0  0  0  0  0  0
  179.8950  179.2700  141.9620 C   0  0  0  0  0  1  0  0  0  0  0  0
  183.1210  179.2720  139.1430 F   0  0  0  0  0  0  0  0  0  0  0  0
  181.9510  179.0520  143.2420 C   0  0  0  0  0  3  0  0  0  0  0  0
  184.3680  178.6510  142.6060 C   0  0  0  0  0  0  0  0  0  0  0  0
  181.9540  178.1120  140.9590 C   0  0  0  0  0  2  0  0  0  0  0  0
  183.3620  178.7070  143.5000 C   0  0  0  0  0  3  0  0  0  0  0  0
  184.2420  179.0540  141.1780 C   0  0  0  0  0  0  0  0  0  0  0  0
  185.3460  179.6430  140.5680 O   0  0  0  0  0  1  0  0  0  0  0  0
  181.3140  178.8470  142.0900 C   0  0  0  0  0  0  0  0  0  0  0  0
  1  4  2  0  0  0  0
  1  3  1  0  0  0  0
  2  5  2  0  0  0  0
  2  4  1  0  0  0  0
  3 20  2  0  0  0  0
  4 11  1  0  0  0  0
  5 19  1  0  0  0  0
  6 21  2  0  0  0  0
  6 22  1  0  0  0  0
  7  2  1  0  0  0  0
  8  9  2  0  0  0  0
  9 12  1  0  0  0  0
 10 13  1  0  0  0  0
 10 16  2  0  0  0  0
 11 13  1  0  0  0  0
 11 14  2  0  0  0  0
 12  5  1  0  0  0  0
 15  7  2  0  0  0  0
 15 17  1  0  0  0  0
 17  1  1  0  0  0  0
 18  9  1  0  0  0  0
 18  7  1  0  0  0  0
 19 10  1  0  0  0  0
 20 14  1  0  0  0  0
 21  8  1  0  0  0  0
 22 18  2  0  0  0  0
 23 28  1  0  0  0  0
 23 30  2  0  0  0  0
 24 32  1  0  0  0  0
 25 23  1  0  0  0  0
 26 29  1  0  0  0  0
 27 17  1  0  0  0  0
 27 29  2  0  0  0  0
 28 32  1  0  0  0  0
 30 27  1  0  0  0  0
 31 30  1  0  0  0  0
 32 26  2  0  0  0  0
M  END
>  <MODEL>
2

>  <REMARK>
 VINA RESULT:     -12.3      0.992      1.177
  Name = 
  1 active torsions:
  status: ('A' for Active; 'I' for Inactive)
    1  A    between atoms: C_16  and  N_27
                            x       y       z     vdW  Elec       q    Type
                         _______ _______ _______ _____ _____    ______ ____

>  <TORSDO>
F 1

$$$$
=
 OpenBabel10262421093D

 32 37  0  0  0  0  0  0  0  0999 V2000
  187.4820  178.0170  141.6450 C   0  0  0  0  0  0  0  0  0  0  0  0
  187.6320  177.8170  144.1420 C   0  0  0  0  0  0  0  0  0  0  0  0
  186.7730  178.3160  140.4680 C   0  0  0  0  0  3  0  0  0  0  0  0
  186.8360  178.1590  142.9240 C   0  0  0  0  0  0  0  0  0  0  0  0
  187.2210  177.8880  145.4400 C   0  0  0  0  0  0  0  0  0  0  0  0
  191.9110  176.1770  145.9640 C   0  0  0  0  0  3  0  0  0  0  0  0
  189.0300  177.3460  143.9080 C   0  0  0  0  0  0  0  0  0  0  0  0
  190.0540  176.7730  147.3940 C   0  0  0  0  0  3  0  0  0  0  0  0
  189.2900  177.1080  146.2710 C   0  0  0  0  0  0  0  0  0  0  0  0
  184.9330  178.6920  145.2840 C   0  0  0  0  0  0  0  0  0  0  0  0
  185.4850  178.6050  142.9370 C   0  0  0  0  0  0  0  0  0  0  0  0
  188.0490  177.5370  146.4280 O   0  0  0  0  0  0  0  0  0  0  0  0
  184.7260  178.8120  143.9900 O   0  0  0  0  0  0  0  0  0  0  0  0
  184.8320  178.8780  141.7320 C   0  0  0  0  0  3  0  0  0  0  0  0
  189.5240  177.2640  142.6170 C   0  0  0  0  0  3  0  0  0  0  0  0
  183.9500  179.0080  146.0590 N   0  0  0  0  0  2  0  0  0  0  0  0
  188.7800  177.5910  141.5370 N   0  0  0  0  0  0  0  0  0  0  0  0
  189.8360  176.9870  144.9910 C   0  0  0  0  0  0  0  0  0  0  0  0
  186.0370  178.2770  145.8710 O   0  0  0  0  0  0  0  0  0  0  0  0
  185.4610  178.7420  140.5070 C   0  0  0  0  0  3  0  0  0  0  0  0
  191.3630  176.3090  147.2420 C   0  0  0  0  0  3  0  0  0  0  0  0
  191.1530  176.5170  144.8400 C   0  0  0  0  0  3  0  0  0  0  0  0
  191.6090  176.7380  139.2880 C   0  0  0  0  0  0  0  0  0  0  0  0
  190.4700  176.8110  135.8650 C   0  0  0  0  0  1  0  0  0  0  0  0
  192.9690  176.7440  139.3440 F   0  0  0  0  0  0  0  0  0  0  0  0
  189.0740  177.4550  137.7500 C   0  0  0  0  0  3  0  0  0  0  0  0
  189.4220  177.4580  140.2580 C   0  0  0  0  0  0  0  0  0  0  0  0
  190.9500  175.9220  138.2240 C   0  0  0  0  0  2  0  0  0  0  0  0
  188.6450  177.5360  139.1600 C   0  0  0  0  0  3  0  0  0  0  0  0
  190.9100  177.3900  140.2270 C   0  0  0  0  0  0  0  0  0  0  0  0
  191.6100  178.0160  141.2540 O   0  0  0  0  0  1  0  0  0  0  0  0
  190.1400  176.7840  137.3140 C   0  0  0  0  0  0  0  0  0  0  0  0
  1  4  1  0  0  0  0
  2  5  2  0  0  0  0
  3 20  1  0  0  0  0
  3  1  2  0  0  0  0
  4 11  2  0  0  0  0
  4  2  1  0  0  0  0
  5 19  1  0  0  0  0
  5 12  1  0  0  0  0
  6 21  1  0  0  0  0
  7  2  1  0  0  0  0
  7 18  1  0  0  0  0
  9 12  1  0  0  0  0
  9  8  1  0  0  0  0
 10 19  1  0  0  0  0
 10 16  2  0  0  0  0
 11 13  1  0  0  0  0
 13 10  1  0  0  0  0
 14 11  1  0  0  0  0
 15  7  2  0  0  0  0
 17  1  1  0  0  0  0
 17 15  1  0  0  0  0
 18  9  2  0  0  0  0
 20 14  2  0  0  0  0
 21  8  2  0  0  0  0
 22 18  1  0  0  0  0
 22  6  2  0  0  0  0
 23 25  1  0  0  0  0
 23 30  2  0  0  0  0
 24 32  1  0  0  0  0
 26 29  1  0  0  0  0
 27 17  1  0  0  0  0
 28 23  1  0  0  0  0
 29 27  2  0  0  0  0
 30 27  1  0  0  0  0
 30 31  1  0  0  0  0
 32 26  2  0  0  0  0
 32 28  1  0  0  0  0
M  END
>  <MODEL>
3

>  <REMARK>
 VINA RESULT:     -12.0      2.755      6.529
  Name = 
  1 active torsions:
  status: ('A' for Active; 'I' for Inactive)
    1  A    between atoms: C_16  and  N_27
                            x       y       z     vdW  Elec       q    Type
                         _______ _______ _______ _____ _____    ______ ____

>  <TORSDO>
F 1

$$$$
=
 OpenBabel10262421093D

 32 37  0  0  0  0  0  0  0  0999 V2000
  189.3160  177.4820  143.0550 C   0  0  0  0  0  0  0  0  0  0  0  0
  187.4550  177.9690  144.6660 C   0  0  0  0  0  0  0  0  0  0  0  0
  190.6620  177.1970  142.7690 C   0  0  0  0  0  3  0  0  0  0  0  0
  188.8960  177.6570  144.4200 C   0  0  0  0  0  0  0  0  0  0  0  0
  186.8500  178.1620  145.8730 C   0  0  0  0  0  0  0  0  0  0  0  0
  183.0150  178.8410  142.7040 C   0  0  0  0  0  3  0  0  0  0  0  0
  186.5870  178.0830  143.4560 C   0  0  0  0  0  0  0  0  0  0  0  0
  183.3870  178.8650  145.0930 C   0  0  0  0  0  3  0  0  0  0  0  0
  184.7390  178.5640  144.8910 C   0  0  0  0  0  0  0  0  0  0  0  0
  188.6480  177.8740  147.4810 C   0  0  0  0  0  0  0  0  0  0  0  0
  189.8830  177.5270  145.4370 C   0  0  0  0  0  0  0  0  0  0  0  0
  185.5450  178.4460  145.9320 O   0  0  0  0  0  0  0  0  0  0  0  0
  189.7050  177.6340  146.7350 O   0  0  0  0  0  0  0  0  0  0  0  0
  191.2070  177.2510  145.0880 C   0  0  0  0  0  3  0  0  0  0  0  0
  187.1280  177.8830  142.1970 C   0  0  0  0  0  3  0  0  0  0  0  0
  188.8320  177.8880  148.7590 N   0  0  0  0  0  2  0  0  0  0  0  0
  188.4340  177.5910  142.0100 N   0  0  0  0  0  0  0  0  0  0  0  0
  185.2320  178.3920  143.5960 C   0  0  0  0  0  0  0  0  0  0  0  0
  187.4220  178.1050  147.0590 O   0  0  0  0  0  0  0  0  0  0  0  0
  191.6020  177.0820  143.7730 C   0  0  0  0  0  3  0  0  0  0  0  0
  182.5260  179.0030  144.0020 C   0  0  0  0  0  3  0  0  0  0  0  0
  184.3640  178.5330  142.4990 C   0  0  0  0  0  3  0  0  0  0  0  0
  188.7660  178.5940  138.4510 C   0  0  0  0  0  0  0  0  0  0  0  0
  191.0220  176.3240  136.7820 C   0  0  0  0  0  1  0  0  0  0  0  0
  188.0570  179.3210  137.5450 F   0  0  0  0  0  0  0  0  0  0  0  0
  190.3070  176.0390  139.0900 C   0  0  0  0  0  3  0  0  0  0  0  0
  188.8580  177.4100  140.6490 C   0  0  0  0  0  0  0  0  0  0  0  0
  190.2090  178.3270  138.1660 C   0  0  0  0  0  2  0  0  0  0  0  0
  189.7470  176.4300  140.3980 C   0  0  0  0  0  3  0  0  0  0  0  0
  188.1800  178.2140  139.5940 C   0  0  0  0  0  0  0  0  0  0  0  0
  186.8700  178.6200  139.8280 O   0  0  0  0  0  1  0  0  0  0  0  0
  190.4690  176.8610  138.0530 C   0  0  0  0  0  0  0  0  0  0  0  0
  1  4  1  0  0  0  0
  2  5  2  0  0  0  0
  3  1  2  0  0  0  0
  3 20  1  0  0  0  0
  4  2  1  0  0  0  0
  4 11  2  0  0  0  0
  5 12  1  0  0  0  0
  5 19  1  0  0  0  0
  6 21  1  0  0  0  0
  7 18  1  0  0  0  0
  7  2  1  0  0  0  0
  9  8  1  0  0  0  0
  9 12  1  0  0  0  0
 10 16  2  0  0  0  0
 11 13  1  0  0  0  0
 13 10  1  0  0  0  0
 14 11  1  0  0  0  0
 15  7  2  0  0  0  0
 17 15  1  0  0  0  0
 17  1  1  0  0  0  0
 18  9  2  0  0  0  0
 19 10  1  0  0  0  0
 20 14  2  0  0  0  0
 21  8  2  0  0  0  0
 22  6  2  0  0  0  0
 22 18  1  0  0  0  0
 23 30  2  0  0  0  0
 24 32  1  0  0  0  0
 25 23  1  0  0  0  0
 26 29  1  0  0  0  0
 27 17  1  0  0  0  0
 28 23  1  0  0  0  0
 29 27  2  0  0  0  0
 30 31  1  0  0  0  0
 30 27  1  0  0  0  0
 32 28  1  0  0  0  0
 32 26  2  0  0  0  0
M  END
>  <MODEL>
4

>  <REMARK>
 VINA RESULT:     -11.9      1.883      5.984
  Name = 
  1 active torsions:
  status: ('A' for Active; 'I' for Inactive)
    1  A    between atoms: C_16  and  N_27
                            x       y       z     vdW  Elec       q    Type
                         _______ _______ _______ _____ _____    ______ ____

>  <TORSDO>
F 1

$$$$
=
 OpenBabel10262421093D

 32 37  0  0  0  0  0  0  0  0999 V2000
  186.6600  177.9240  143.2790 C   0  0  0  0  0  0  0  0  0  0  0  0
  186.1870  178.3320  140.8480 C   0  0  0  0  0  0  0  0  0  0  0  0
  186.2630  177.8810  144.6270 C   0  0  0  0  0  3  0  0  0  0  0  0
  185.7080  178.2920  142.2650 C   0  0  0  0  0  0  0  0  0  0  0  0
  185.4550  178.6450  139.7420 C   0  0  0  0  0  0  0  0  0  0  0  0
  189.9810  177.7860  137.7450 C   0  0  0  0  0  3  0  0  0  0  0  0
  187.6250  177.9940  140.6270 C   0  0  0  0  0  0  0  0  0  0  0  0
  187.7720  178.4020  136.9740 C   0  0  0  0  0  3  0  0  0  0  0  0
  187.2970  178.3620  138.2890 C   0  0  0  0  0  0  0  0  0  0  0  0
  183.2360  179.1020  140.6200 C   0  0  0  0  0  0  0  0  0  0  0  0
  184.3830  178.5990  142.6820 C   0  0  0  0  0  0  0  0  0  0  0  0
  186.0290  178.6470  138.5350 O   0  0  0  0  0  0  0  0  0  0  0  0
  183.3690  178.9410  141.9180 O   0  0  0  0  0  0  0  0  0  0  0  0
  184.0530  178.5470  144.0380 C   0  0  0  0  0  3  0  0  0  0  0  0
  188.4280  177.6510  141.7020 C   0  0  0  0  0  3  0  0  0  0  0  0
  182.0620  179.4290  140.1930 N   0  0  0  0  0  2  0  0  0  0  0  0
  187.9600  177.6140  142.9690 N   0  0  0  0  0  0  0  0  0  0  0  0
  188.1580  178.0270  139.3360 C   0  0  0  0  0  0  0  0  0  0  0  0
  184.1770  178.9680  139.7070 O   0  0  0  0  0  0  0  0  0  0  0  0
  184.9730  178.1890  145.0070 C   0  0  0  0  0  3  0  0  0  0  0  0
  189.1120  178.1140  136.7020 C   0  0  0  0  0  3  0  0  0  0  0  0
  189.5070  177.7400  139.0600 C   0  0  0  0  0  3  0  0  0  0  0  0
  191.2140  176.3090  144.1920 C   0  0  0  0  0  0  0  0  0  0  0  0
  191.4520  176.8570  147.7520 C   0  0  0  0  0  1  0  0  0  0  0  0
  192.1540  175.4160  143.7790 F   0  0  0  0  0  0  0  0  0  0  0  0
  189.4590  177.3650  146.4530 C   0  0  0  0  0  3  0  0  0  0  0  0
  188.9040  177.2400  143.9860 C   0  0  0  0  0  0  0  0  0  0  0  0
  191.6030  177.3120  145.2300 C   0  0  0  0  0  2  0  0  0  0  0  0
  188.6550  177.6440  145.2470 C   0  0  0  0  0  3  0  0  0  0  0  0
  190.0090  176.3150  143.6070 C   0  0  0  0  0  0  0  0  0  0  0  0
  189.7810  175.4270  142.5590 O   0  0  0  0  0  1  0  0  0  0  0  0
  190.7740  177.1550  146.4620 C   0  0  0  0  0  0  0  0  0  0  0  0
  1  3  1  0  0  0  0
  2  4  1  0  0  0  0
  3 20  2  0  0  0  0
  4 11  1  0  0  0  0
  4  1  2  0  0  0  0
  5  2  2  0  0  0  0
  6 22  1  0  0  0  0
  7  2  1  0  0  0  0
  7 15  2  0  0  0  0
  8  9  2  0  0  0  0
  9 12  1  0  0  0  0
  9 18  1  0  0  0  0
 10 13  1  0  0  0  0
 11 14  2  0  0  0  0
 12  5  1  0  0  0  0
 13 11  1  0  0  0  0
 14 20  1  0  0  0  0
 15 17  1  0  0  0  0
 16 10  2  0  0  0  0
 17  1  1  0  0  0  0
 17 27  1  0  0  0  0
 18  7  1  0  0  0  0
 19  5  1  0  0  0  0
 19 10  1  0  0  0  0
 21  8  1  0  0  0  0
 21  6  2  0  0  0  0
 22 18  2  0  0  0  0
 23 28  1  0  0  0  0
 25 23  1  0  0  0  0
 26 32  2  0  0  0  0
 27 29  2  0  0  0  0
 28 32  1  0  0  0  0
 29 26  1  0  0  0  0
 30 27  1  0  0  0  0
 30 23  2  0  0  0  0
 31 30  1  0  0  0  0
 32 24  1  0  0  0  0
M  END
>  <MODEL>
5

>  <REMARK>
 VINA RESULT:     -11.8      2.801      6.552
  Name = 
  1 active torsions:
  status: ('A' for Active; 'I' for Inactive)
    1  A    between atoms: C_16  and  N_27
                            x       y       z     vdW  Elec       q    Type
                         _______ _______ _______ _____ _____    ______ ____

>  <TORSDO>
F 1

$$$$
=
 OpenBabel10262421093D

 32 37  0  0  0  0  0  0  0  0999 V2000
  189.1620  177.6410  142.5450 C   0  0  0  0  0  0  0  0  0  0  0  0
  186.9330  178.2300  141.5560 C   0  0  0  0  0  0  0  0  0  0  0  0
  190.5290  177.3360  142.4220 C   0  0  0  0  0  3  0  0  0  0  0  0
  188.3840  177.9220  141.3680 C   0  0  0  0  0  0  0  0  0  0  0  0
  186.0230  178.5300  140.5860 C   0  0  0  0  0  0  0  0  0  0  0  0
  183.1770  178.6990  144.7180 C   0  0  0  0  0  3  0  0  0  0  0  0
  186.4270  178.2030  142.9610 C   0  0  0  0  0  0  0  0  0  0  0  0
  182.8980  179.0300  142.3380 C   0  0  0  0  0  3  0  0  0  0  0  0
  184.2550  178.7550  142.1360 C   0  0  0  0  0  0  0  0  0  0  0  0
  187.3160  178.4490  138.5300 C   0  0  0  0  0  0  0  0  0  0  0  0
  189.0470  177.8790  140.1100 C   0  0  0  0  0  0  0  0  0  0  0  0
  184.7500  178.7740  140.9100 O   0  0  0  0  0  0  0  0  0  0  0  0
  188.5250  178.1160  138.9280 O   0  0  0  0  0  0  0  0  0  0  0  0
  190.4060  177.5610  140.0530 C   0  0  0  0  0  3  0  0  0  0  0  0
  187.2960  177.9210  144.0030 C   0  0  0  0  0  3  0  0  0  0  0  0
  187.1520  178.6300  137.2620 N   0  0  0  0  0  2  0  0  0  0  0  0
  188.6060  177.6580  143.7990 N   0  0  0  0  0  0  0  0  0  0  0  0
  185.0800  178.4590  143.2230 C   0  0  0  0  0  0  0  0  0  0  0  0
  186.2520  178.6120  139.2900 O   0  0  0  0  0  0  0  0  0  0  0  0
  191.1490  177.2940  141.1900 C   0  0  0  0  0  3  0  0  0  0  0  0
  182.3590  179.0030  143.6270 C   0  0  0  0  0  3  0  0  0  0  0  0
  184.5350  178.4300  144.5190 C   0  0  0  0  0  3  0  0  0  0  0  0
  189.0830  176.9660  147.4160 C   0  0  0  0  0  0  0  0  0  0  0  0
  192.5110  176.0020  147.9990 C   0  0  0  0  0  1  0  0  0  0  0  0
  188.4660  177.2860  148.5860 F   0  0  0  0  0  0  0  0  0  0  0  0
  191.6800  176.7320  145.8330 C   0  0  0  0  0  3  0  0  0  0  0  0
  189.3900  177.3830  144.9710 C   0  0  0  0  0  0  0  0  0  0  0  0
  190.0220  175.8030  147.4080 C   0  0  0  0  0  2  0  0  0  0  0  0
  190.6790  177.0340  144.7910 C   0  0  0  0  0  3  0  0  0  0  0  0
  188.7710  177.6420  146.3010 C   0  0  0  0  0  0  0  0  0  0  0  0
  187.7890  178.6240  146.3800 O   0  0  0  0  0  1  0  0  0  0  0  0
  191.4020  176.2330  147.0370 C   0  0  0  0  0  0  0  0  0  0  0  0
  1 17  1  0  0  0  0
  2  7  1  0  0  0  0
  3  1  1  0  0  0  0
  4  2  1  0  0  0  0
  4  1  2  0  0  0  0
  5 12  1  0  0  0  0
  5  2  2  0  0  0  0
  7 18  1  0  0  0  0
  7 15  2  0  0  0  0
  8 21  1  0  0  0  0
  9  8  2  0  0  0  0
  9 18  1  0  0  0  0
 10 13  1  0  0  0  0
 10 19  1  0  0  0  0
 11  4  1  0  0  0  0
 12  9  1  0  0  0  0
 13 11  1  0  0  0  0
 14 11  2  0  0  0  0
 14 20  1  0  0  0  0
 16 10  2  0  0  0  0
 17 15  1  0  0  0  0
 17 27  1  0  0  0  0
 18 22  2  0  0  0  0
 19  5  1  0  0  0  0
 20  3  2  0  0  0  0
 21  6  2  0  0  0  0
 22  6  1  0  0  0  0
 23 25  1  0  0  0  0
 26 32  2  0  0  0  0
 27 30  1  0  0  0  0
 28 23  1  0  0  0  0
 29 27  2  0  0  0  0
 29 26  1  0  0  0  0
 30 31  1  0  0  0  0
 30 23  2  0  0  0  0
 32 28  1  0  0  0  0
 32 24  1  0  0  0  0
M  END
>  <MODEL>
6

>  <REMARK>
 VINA RESULT:     -11.8      2.584      7.516
  Name = 
  1 active torsions:
  status: ('A' for Active; 'I' for Inactive)
    1  A    between atoms: C_16  and  N_27
                            x       y       z     vdW  Elec       q    Type
                         _______ _______ _______ _____ _____    ______ ____

>  <TORSDO>
F 1

$$$$
=
 OpenBabel10262421093D

 32 37  0  0  0  0  0  0  0  0999 V2000
  187.6920  178.0010  141.6900 C   0  0  0  0  0  0  0  0  0  0  0  0
  189.9100  177.4500  142.7260 C   0  0  0  0  0  0  0  0  0  0  0  0
  186.8890  178.3200  140.5810 C   0  0  0  0  0  3  0  0  0  0  0  0
  189.1020  177.7760  141.5110 C   0  0  0  0  0  0  0  0  0  0  0  0
  191.2480  177.1950  142.7800 C   0  0  0  0  0  0  0  0  0  0  0  0
  189.9530  176.7960  147.6140 C   0  0  0  0  0  3  0  0  0  0  0  0
  189.1670  177.4020  144.0210 C   0  0  0  0  0  0  0  0  0  0  0  0
  191.9560  176.5870  146.2750 C   0  0  0  0  0  3  0  0  0  0  0  0
  191.2220  176.8800  145.1210 C   0  0  0  0  0  0  0  0  0  0  0  0
  191.9730  177.3900  140.4690 C   0  0  0  0  0  0  0  0  0  0  0  0
  189.6280  177.8880  140.1940 C   0  0  0  0  0  0  0  0  0  0  0  0
  191.8350  176.9270  143.9510 O   0  0  0  0  0  0  0  0  0  0  0  0
  190.8750  177.7090  139.8180 O   0  0  0  0  0  0  0  0  0  0  0  0
  188.7800  178.2170  139.1340 C   0  0  0  0  0  3  0  0  0  0  0  0
  187.8020  177.6350  144.0430 C   0  0  0  0  0  3  0  0  0  0  0  0
  193.0500  177.2730  139.7670 N   0  0  0  0  0  2  0  0  0  0  0  0
  187.0990  177.9160  142.9240 N   0  0  0  0  0  0  0  0  0  0  0  0
  189.8500  177.1240  145.2070 C   0  0  0  0  0  0  0  0  0  0  0  0
  192.0890  177.1820  141.7650 O   0  0  0  0  0  0  0  0  0  0  0  0
  187.4240  178.4290  139.3130 C   0  0  0  0  0  3  0  0  0  0  0  0
  191.3240  176.5440  147.5200 C   0  0  0  0  0  3  0  0  0  0  0  0
  189.2150  177.0840  146.4620 C   0  0  0  0  0  3  0  0  0  0  0  0
  184.0790  178.9090  144.8410 C   0  0  0  0  0  0  0  0  0  0  0  0
  181.2530  179.0820  142.6020 C   0  0  0  0  0  1  0  0  0  0  0  0
  183.6650  178.8930  146.1380 F   0  0  0  0  0  0  0  0  0  0  0  0
  183.4570  178.3150  141.9140 C   0  0  0  0  0  3  0  0  0  0  0  0
  185.6890  178.1350  143.0950 C   0  0  0  0  0  0  0  0  0  0  0  0
  183.3580  179.8020  143.8830 C   0  0  0  0  0  2  0  0  0  0  0  0
  184.9200  178.1380  141.9890 C   0  0  0  0  0  3  0  0  0  0  0  0
  185.1560  178.1970  144.4840 C   0  0  0  0  0  0  0  0  0  0  0  0
  185.8400  177.4970  145.4740 O   0  0  0  0  0  1  0  0  0  0  0  0
  182.7270  179.0100  142.7860 C   0  0  0  0  0  0  0  0  0  0  0  0
  1 17  1  0  0  0  0
  2  5  2  0  0  0  0
  2  7  1  0  0  0  0
  3  1  2  0  0  0  0
  4  1  1  0  0  0  0
  4  2  1  0  0  0  0
  5 12  1  0  0  0  0
  7 15  2  0  0  0  0
  7 18  1  0  0  0  0
  8 21  2  0  0  0  0
  9 18  2  0  0  0  0
  9  8  1  0  0  0  0
 10 19  1  0  0  0  0
 11  4  2  0  0  0  0
 12  9  1  0  0  0  0
 13 11  1  0  0  0  0
 13 10  1  0  0  0  0
 14 20  2  0  0  0  0
 14 11  1  0  0  0  0
 16 10  2  0  0  0  0
 17 27  1  0  0  0  0
 17 15  1  0  0  0  0
 18 22  1  0  0  0  0
 19  5  1  0  0  0  0
 20  3  1  0  0  0  0
 21  6  1  0  0  0  0
 22  6  2  0  0  0  0
 23 25  1  0  0  0  0
 24 32  1  0  0  0  0
 26 29  1  0  0  0  0
 26 32  2  0  0  0  0
 27 30  1  0  0  0  0
 28 23  1  0  0  0  0
 29 27  2  0  0  0  0
 30 23  2  0  0  0  0
 30 31  1  0  0  0  0
 32 28  1  0  0  0  0
M  END
>  <MODEL>
7

>  <REMARK>
 VINA RESULT:     -11.7      2.219      4.803
  Name = 
  1 active torsions:
  status: ('A' for Active; 'I' for Inactive)
    1  A    between atoms: C_16  and  N_27
                            x       y       z     vdW  Elec       q    Type
                         _______ _______ _______ _____ _____    ______ ____

>  <TORSDO>
F 1

$$$$
=
 OpenBabel10262421093D

 32 37  0  0  0  0  0  0  0  0999 V2000
  184.5030  178.6890  142.5500 C   0  0  0  0  0  0  0  0  0  0  0  0
  186.9160  178.1460  142.9710 C   0  0  0  0  0  0  0  0  0  0  0  0
  183.1950  178.9440  143.0000 C   0  0  0  0  0  3  0  0  0  0  0  0
  185.5460  178.4200  143.5040 C   0  0  0  0  0  0  0  0  0  0  0  0
  188.0410  177.8780  143.6930 C   0  0  0  0  0  0  0  0  0  0  0  0
  189.7780  177.6120  138.9900 C   0  0  0  0  0  3  0  0  0  0  0  0
  187.0640  178.1650  141.4850 C   0  0  0  0  0  0  0  0  0  0  0  0
  190.6480  177.3780  141.2350 C   0  0  0  0  0  3  0  0  0  0  0  0
  189.3780  177.6410  141.7590 C   0  0  0  0  0  0  0  0  0  0  0  0
  187.2870  177.9630  146.0010 C   0  0  0  0  0  0  0  0  0  0  0  0
  185.2000  178.4270  144.8840 C   0  0  0  0  0  0  0  0  0  0  0  0
  189.1990  177.6420  143.0700 O   0  0  0  0  0  0  0  0  0  0  0  0
  186.0010  178.2210  145.9060 O   0  0  0  0  0  0  0  0  0  0  0  0
  183.8800  178.6780  145.2660 C   0  0  0  0  0  3  0  0  0  0  0  0
  185.9680  178.4460  140.6850 C   0  0  0  0  0  3  0  0  0  0  0  0
  187.7660  177.8360  147.1940 N   0  0  0  0  0  2  0  0  0  0  0  0
  184.7450  178.7010  141.2010 N   0  0  0  0  0  0  0  0  0  0  0  0
  188.3050  177.8990  140.9030 C   0  0  0  0  0  0  0  0  0  0  0  0
  188.1380  177.8150  145.0060 O   0  0  0  0  0  0  0  0  0  0  0  0
  182.8820  178.9390  144.3430 C   0  0  0  0  0  3  0  0  0  0  0  0
  190.8480  177.3640  139.8520 C   0  0  0  0  0  3  0  0  0  0  0  0
  188.5090  177.8820  139.5120 C   0  0  0  0  0  3  0  0  0  0  0  0
  181.4110  178.1730  139.6530 C   0  0  0  0  0  0  0  0  0  0  0  0
  180.7410  180.8520  137.3300 C   0  0  0  0  0  1  0  0  0  0  0  0
  180.5540  177.1350  139.4520 F   0  0  0  0  0  0  0  0  0  0  0  0
  182.8560  180.6020  138.5050 C   0  0  0  0  0  3  0  0  0  0  0  0
  183.7000  178.9770  140.2530 C   0  0  0  0  0  0  0  0  0  0  0  0
  180.8730  179.5630  139.5460 C   0  0  0  0  0  2  0  0  0  0  0  0
  183.7870  180.1190  139.5440 C   0  0  0  0  0  3  0  0  0  0  0  0
  182.6760  177.9210  140.0170 C   0  0  0  0  0  0  0  0  0  0  0  0
  183.0520  176.5960  140.2180 O   0  0  0  0  0  1  0  0  0  0  0  0
  181.5560  180.3170  138.4530 C   0  0  0  0  0  0  0  0  0  0  0  0
  1  3  2  0  0  0  0
  1  4  1  0  0  0  0
  2  4  1  0  0  0  0
  2  5  2  0  0  0  0
  3 20  1  0  0  0  0
  4 11  2  0  0  0  0
  5 19  1  0  0  0  0
  6 22  2  0  0  0  0
  6 21  1  0  0  0  0
  7  2  1  0  0  0  0
  8  9  1  0  0  0  0
  9 12  1  0  0  0  0
 10 16  2  0  0  0  0
 11 14  1  0  0  0  0
 11 13  1  0  0  0  0
 12  5  1  0  0  0  0
 13 10  1  0  0  0  0
 15 17  1  0  0  0  0
 15  7  2  0  0  0  0
 17  1  1  0  0  0  0
 18  7  1  0  0  0  0
 18  9  2  0  0  0  0
 19 10  1  0  0  0  0
 20 14  2  0  0  0  0
 21  8  2  0  0  0  0
 22 18  1  0  0  0  0
 23 30  2  0  0  0  0
 24 32  1  0  0  0  0
 25 23  1  0  0  0  0
 26 29  1  0  0  0  0
 27 17  1  0  0  0  0
 28 23  1  0  0  0  0
 29 27  2  0  0  0  0
 30 31  1  0  0  0  0
 30 27  1  0  0  0  0
 32 26  2  0  0  0  0
 32 28  1  0  0  0  0
M  END
>  <MODEL>
8

>  <REMARK>
 VINA RESULT:     -11.6      2.430      3.626
  Name = 
  1 active torsions:
  status: ('A' for Active; 'I' for Inactive)
    1  A    between atoms: C_16  and  N_27
                            x       y       z     vdW  Elec       q    Type
                         _______ _______ _______ _____ _____    ______ ____

>  <TORSDO>
F 1

$$$$
=
 OpenBabel10262421093D

 32 37  0  0  0  0  0  0  0  0999 V2000
  185.7600  178.4110  139.6770 C   0  0  0  0  0  0  0  0  0  0  0  0
  187.0120  178.1270  141.8340 C   0  0  0  0  0  0  0  0  0  0  0  0
  185.7100  178.4600  138.2730 C   0  0  0  0  0  3  0  0  0  0  0  0
  187.0130  178.1570  140.3390 C   0  0  0  0  0  0  0  0  0  0  0  0
  188.0770  177.8960  142.6520 C   0  0  0  0  0  0  0  0  0  0  0  0
  184.3930  178.6330  145.9820 C   0  0  0  0  0  3  0  0  0  0  0  0
  185.6990  178.3800  142.4990 C   0  0  0  0  0  0  0  0  0  0  0  0
  186.7570  178.1240  146.0130 C   0  0  0  0  0  3  0  0  0  0  0  0
  186.7830  178.1370  144.6140 C   0  0  0  0  0  0  0  0  0  0  0  0
  189.9280  177.5480  141.1170 C   0  0  0  0  0  0  0  0  0  0  0  0
  188.1630  177.9600  139.5250 C   0  0  0  0  0  0  0  0  0  0  0  0
  187.9210  177.9110  143.9790 O   0  0  0  0  0  0  0  0  0  0  0  0
  189.3870  177.7020  139.9270 O   0  0  0  0  0  0  0  0  0  0  0  0
  188.0490  178.0280  138.1340 C   0  0  0  0  0  3  0  0  0  0  0  0
  184.5680  178.6060  141.7320 C   0  0  0  0  0  3  0  0  0  0  0  0
  191.1900  177.2740  141.1490 N   0  0  0  0  0  2  0  0  0  0  0  0
  184.6020  178.6150  140.3820 N   0  0  0  0  0  0  0  0  0  0  0  0
  185.6140  178.3890  143.8930 C   0  0  0  0  0  0  0  0  0  0  0  0
  189.3180  177.6490  142.2800 O   0  0  0  0  0  0  0  0  0  0  0  0
  186.8400  178.2710  137.5050 C   0  0  0  0  0  3  0  0  0  0  0  0
  185.5630  178.3710  146.6960 C   0  0  0  0  0  3  0  0  0  0  0  0
  184.4150  178.6410  144.5830 C   0  0  0  0  0  3  0  0  0  0  0  0
  181.0460  177.9130  139.5760 C   0  0  0  0  0  0  0  0  0  0  0  0
  179.6910  180.6680  137.6780 C   0  0  0  0  0  1  0  0  0  0  0  0
  180.2350  176.8240  139.4890 F   0  0  0  0  0  0  0  0  0  0  0  0
  182.0300  180.5190  138.3300 C   0  0  0  0  0  3  0  0  0  0  0  0
  183.3530  178.8630  139.7150 C   0  0  0  0  0  0  0  0  0  0  0  0
  180.4070  179.2590  139.7000 C   0  0  0  0  0  2  0  0  0  0  0  0
  183.2010  180.0500  139.0960 C   0  0  0  0  0  3  0  0  0  0  0  0
  182.3740  177.7440  139.6290 C   0  0  0  0  0  0  0  0  0  0  0  0
  182.8710  176.4440  139.6370 O   0  0  0  0  0  1  0  0  0  0  0  0
  180.7730  180.1330  138.5460 C   0  0  0  0  0  0  0  0  0  0  0  0
  1  4  1  0  0  0  0
  1 17  1  0  0  0  0
  2  7  1  0  0  0  0
  2  5  2  0  0  0  0
  3  1  2  0  0  0  0
  4  2  1  0  0  0  0
  5 12  1  0  0  0  0
  6 21  1  0  0  0  0
  7 18  1  0  0  0  0
  8 21  2  0  0  0  0
  9  8  1  0  0  0  0
 10 16  2  0  0  0  0
 10 19  1  0  0  0  0
 11 13  1  0  0  0  0
 11  4  2  0  0  0  0
 12  9  1  0  0  0  0
 13 10  1  0  0  0  0
 14 11  1  0  0  0  0
 15  7  2  0  0  0  0
 17 15  1  0  0  0  0
 18 22  1  0  0  0  0
 18  9  2  0  0  0  0
 19  5  1  0  0  0  0
 20 14  2  0  0  0  0
 20  3  1  0  0  0  0
 22  6  2  0  0  0  0
 23 30  2  0  0  0  0
 23 28  1  0  0  0  0
 24 32  1  0  0  0  0
 25 23  1  0  0  0  0
 26 32  2  0  0  0  0
 26 29  1  0  0  0  0
 27 17  1  0  0  0  0
 29 27  2  0  0  0  0
 30 31  1  0  0  0  0
 30 27  1  0  0  0  0
 32 28  1  0  0  0  0
M  END
>  <MODEL>
9

>  <REMARK>
 VINA RESULT:     -11.6      2.913      5.847
  Name = 
  1 active torsions:
  status: ('A' for Active; 'I' for Inactive)
    1  A    between atoms: C_16  and  N_27
                            x       y       z     vdW  Elec       q    Type
                         _______ _______ _______ _____ _____    ______ ____

>  <TORSDO>
F 1

$$$$
