=
 OpenBabel10262420123D

 27 31  0  0  1  0  0  0  0  0999 V2000
  188.2400  178.2780  141.0390 N   0  0  0  0  0  0  0  0  0  0  0  0
  187.0180  178.5400  141.5410 C   0  0  0  0  0  0  0  0  0  0  0  0
  188.2010  177.7100  143.2170 C   0  0  0  0  0  0  0  0  0  0  0  0
  183.4520  179.2350  143.5490 C   0  0  0  0  0  3  0  0  0  0  0  0
  183.3260  178.9360  144.9080 C   0  0  0  0  0  3  0  0  0  0  0  0
  185.9300  179.0900  140.8670 C   0  0  0  0  0  3  0  0  0  0  0  0
  185.6150  178.1420  144.9570 C   0  0  0  0  0  3  0  0  0  0  0  0
  190.9060  176.7530  143.2750 C   0  0  0  0  0  0  0  0  0  0  0  0
  188.0320  176.9340  145.4690 O   0  0  0  0  0  0  0  0  0  0  0  0
  191.9320  176.0920  143.2700 O   0  0  0  0  0  0  0  0  0  0  0  0
  185.7550  178.4310  143.5970 C   0  0  0  0  0  0  0  0  0  0  0  0
  184.4050  178.3920  145.6100 C   0  0  0  0  0  3  0  0  0  0  0  0
  184.6580  178.9900  142.8860 C   0  0  0  0  0  0  0  0  0  0  0  0
  188.9640  177.7730  142.0620 C   0  0  0  0  0  0  0  0  0  0  0  0
  186.9400  178.2070  142.8770 C   0  0  0  0  0  0  0  0  0  0  0  0
  190.2460  177.0480  144.6000 C   0  0  0  0  0  2  0  0  0  0  0  0
  184.7750  179.2980  141.5590 N   0  0  0  0  0  0  0  0  0  0  0  0
  190.5270  176.3980  140.9630 F   0  0  0  0  0  0  0  0  0  0  0  0
  190.4010  177.3370  141.9720 C   0  0  2  0  0  3  0  0  0  0  0  0
  188.7610  177.2080  144.4820 C   0  0  0  0  0  0  0  0  0  0  0  0
  188.7060  178.5580  139.6840 C   0  0  0  0  0  2  0  0  0  0  0  0
  187.0600  175.7610  136.8810 C   0  0  0  0  0  3  0  0  0  0  0  0
  188.1230  177.5760  138.7250 C   0  0  0  0  0  0  0  0  0  0  0  0
  186.9140  177.8590  138.0810 C   0  0  0  0  0  3  0  0  0  0  0  0
  186.3810  176.9510  137.1610 C   0  0  0  0  0  3  0  0  0  0  0  0
  188.2730  175.4800  137.5180 C   0  0  0  0  0  3  0  0  0  0  0  0
  188.8050  176.3890  138.4380 C   0  0  0  0  0  3  0  0  0  0  0  0
  1  2  1  0  0  0  0
  1 14  1  0  0  0  0
  2 15  1  0  0  0  0
  3 20  1  0  0  0  0
  4  5  2  0  0  0  0
  5 12  1  0  0  0  0
  6  2  2  0  0  0  0
  6 17  1  0  0  0  0
  7 12  2  0  0  0  0
  8 16  1  0  0  0  0
 10  8  2  0  0  0  0
 11  7  1  0  0  0  0
 13  4  1  0  0  0  0
 13 11  1  0  0  0  0
 14  3  2  0  0  0  0
 15  3  1  0  0  0  0
 15 11  2  0  0  0  0
 17 13  2  0  0  0  0
 19 18  1  6  0  0  0
 19 14  1  0  0  0  0
 19  8  1  0  0  0  0
 20 16  1  0  0  0  0
 20  9  2  0  0  0  0
 21  1  1  0  0  0  0
 22 25  2  0  0  0  0
 22 26  1  0  0  0  0
 23 21  1  0  0  0  0
 24 23  2  0  0  0  0
 25 24  1  0  0  0  0
 26 27  2  0  0  0  0
 27 23  1  0  0  0  0
M  END
>  <MODEL>
1

>  <REMARK>
 VINA RESULT:      -9.3      0.000      0.000
  Name = 
  2 active torsions:
  status: ('A' for Active; 'I' for Inactive)
    1  A    between atoms: N_1  and  C_15
    2  A    between atoms: C_9  and  C_15
                            x       y       z     vdW  Elec       q    Type
                         _______ _______ _______ _____ _____    ______ ____

>  <TORSDO>
F 2

$$$$
=
 OpenBabel10262420123D

 27 31  0  0  1  0  0  0  0  0999 V2000
  184.4980  178.8170  141.1290 N   0  0  0  0  0  0  0  0  0  0  0  0
  184.5010  178.7250  142.4730 C   0  0  0  0  0  0  0  0  0  0  0  0
  186.5720  178.2890  141.8290 C   0  0  0  0  0  0  0  0  0  0  0  0
  185.0180  178.4020  146.5790 C   0  0  0  0  0  3  0  0  0  0  0  0
  186.2690  178.0970  147.1200 C   0  0  0  0  0  3  0  0  0  0  0  0
  183.4250  178.9330  143.3330 C   0  0  0  0  0  3  0  0  0  0  0  0
  187.2200  177.9900  144.8940 C   0  0  0  0  0  3  0  0  0  0  0  0
  187.6970  178.1450  139.1930 C   0  0  0  0  0  0  0  0  0  0  0  0
  188.6930  177.5280  142.6180 O   0  0  0  0  0  0  0  0  0  0  0  0
  188.1340  177.8040  138.1050 O   0  0  0  0  0  0  0  0  0  0  0  0
  185.9730  178.2880  144.3370 C   0  0  0  0  0  0  0  0  0  0  0  0
  187.3670  177.8930  146.2800 C   0  0  0  0  0  3  0  0  0  0  0  0
  184.8590  178.5020  145.1940 C   0  0  0  0  0  0  0  0  0  0  0  0
  185.7630  178.5530  140.7350 C   0  0  0  0  0  0  0  0  0  0  0  0
  185.7520  178.4020  142.9540 C   0  0  0  0  0  0  0  0  0  0  0  0
  188.6580  178.2570  140.3510 C   0  0  0  0  0  2  0  0  0  0  0  0
  183.6330  178.8130  144.6740 N   0  0  0  0  0  0  0  0  0  0  0  0
  185.4610  177.6660  138.5760 F   0  0  0  0  0  0  0  0  0  0  0  0
  186.2400  178.5440  139.3080 C   0  0  2  0  0  3  0  0  0  0  0  0
  188.0030  177.9860  141.6720 C   0  0  0  0  0  0  0  0  0  0  0  0
  183.3730  179.1990  140.2810 C   0  0  0  0  0  2  0  0  0  0  0  0
  180.5260  176.0060  139.9810 C   0  0  0  0  0  3  0  0  0  0  0  0
  182.3880  178.0830  140.1960 C   0  0  0  0  0  0  0  0  0  0  0  0
  181.0530  178.2980  140.5560 C   0  0  0  0  0  3  0  0  0  0  0  0
  180.1230  177.2600  140.4510 C   0  0  0  0  0  3  0  0  0  0  0  0
  181.8590  175.7910  139.6140 C   0  0  0  0  0  3  0  0  0  0  0  0
  182.7880  176.8300  139.7190 C   0  0  0  0  0  3  0  0  0  0  0  0
  1  2  1  0  0  0  0
  2 15  2  0  0  0  0
  2  6  1  0  0  0  0
  3 15  1  0  0  0  0
  4  5  1  0  0  0  0
  6 17  2  0  0  0  0
  7 12  1  0  0  0  0
  8 19  1  0  0  0  0
  8 16  1  0  0  0  0
 10  8  2  0  0  0  0
 11  7  2  0  0  0  0
 11 13  1  0  0  0  0
 12  5  2  0  0  0  0
 13  4  2  0  0  0  0
 14  1  1  0  0  0  0
 14  3  2  0  0  0  0
 15 11  1  0  0  0  0
 16 20  1  0  0  0  0
 17 13  1  0  0  0  0
 19 18  1  6  0  0  0
 19 14  1  0  0  0  0
 20  3  1  0  0  0  0
 20  9  2  0  0  0  0
 21  1  1  0  0  0  0
 22 25  1  0  0  0  0
 23 21  1  0  0  0  0
 23 24  1  0  0  0  0
 25 24  2  0  0  0  0
 26 27  1  0  0  0  0
 26 22  2  0  0  0  0
 27 23  2  0  0  0  0
M  END
>  <MODEL>
2

>  <REMARK>
 VINA RESULT:      -8.9      3.073      4.603
  Name = 
  2 active torsions:
  status: ('A' for Active; 'I' for Inactive)
    1  A    between atoms: N_1  and  C_15
    2  A    between atoms: C_9  and  C_15
                            x       y       z     vdW  Elec       q    Type
                         _______ _______ _______ _____ _____    ______ ____

>  <TORSDO>
F 2

$$$$
=
 OpenBabel10262420123D

 27 31  0  0  1  0  0  0  0  0999 V2000
  185.6310  178.7170  140.8610 N   0  0  0  0  0  0  0  0  0  0  0  0
  185.6550  178.5830  142.2000 C   0  0  0  0  0  0  0  0  0  0  0  0
  187.6360  177.9060  141.4860 C   0  0  0  0  0  0  0  0  0  0  0  0
  186.2260  178.0630  146.2790 C   0  0  0  0  0  3  0  0  0  0  0  0
  187.4400  177.5830  146.7750 C   0  0  0  0  0  3  0  0  0  0  0  0
  184.6360  178.8990  143.0960 C   0  0  0  0  0  3  0  0  0  0  0  0
  188.3150  177.4270  144.5210 C   0  0  0  0  0  3  0  0  0  0  0  0
  188.6680  177.7040  138.8150 C   0  0  0  0  0  0  0  0  0  0  0  0
  189.6600  176.8540  142.1910 O   0  0  0  0  0  0  0  0  0  0  0  0
  189.0320  177.3460  137.7060 O   0  0  0  0  0  0  0  0  0  0  0  0
  187.1030  177.9000  144.0080 C   0  0  0  0  0  0  0  0  0  0  0  0
  188.4820  177.2670  145.8990 C   0  0  0  0  0  3  0  0  0  0  0  0
  186.0470  178.2270  144.9020 C   0  0  0  0  0  0  0  0  0  0  0  0
  186.8420  178.3060  140.4230 C   0  0  0  0  0  0  0  0  0  0  0  0
  186.8650  178.0860  142.6360 C   0  0  0  0  0  0  0  0  0  0  0  0
  189.6640  177.6550  139.9490 C   0  0  0  0  0  2  0  0  0  0  0  0
  184.8590  178.7100  144.4270 N   0  0  0  0  0  0  0  0  0  0  0  0
  186.3750  177.5360  138.2480 F   0  0  0  0  0  0  0  0  0  0  0  0
  187.2780  178.2820  138.9840 C   0  0  2  0  0  3  0  0  0  0  0  0
  189.0120  177.4270  141.2790 C   0  0  0  0  0  0  0  0  0  0  0  0
  184.5450  179.2680  140.0560 C   0  0  0  0  0  2  0  0  0  0  0  0
  181.1540  176.6430  140.0550 C   0  0  0  0  0  3  0  0  0  0  0  0
  183.3710  178.3480  140.0750 C   0  0  0  0  0  0  0  0  0  0  0  0
  182.1420  178.7910  140.5760 C   0  0  0  0  0  3  0  0  0  0  0  0
  181.0340  177.9390  140.5690 C   0  0  0  0  0  3  0  0  0  0  0  0
  182.3800  176.2010  139.5470 C   0  0  0  0  0  3  0  0  0  0  0  0
  183.4870  177.0550  139.5540 C   0  0  0  0  0  3  0  0  0  0  0  0
  1  2  1  0  0  0  0
  2 15  2  0  0  0  0
  2  6  1  0  0  0  0
  3 15  1  0  0  0  0
  4  5  1  0  0  0  0
  6 17  2  0  0  0  0
  7 12  1  0  0  0  0
  8 19  1  0  0  0  0
  8 16  1  0  0  0  0
 10  8  2  0  0  0  0
 11  7  2  0  0  0  0
 11 13  1  0  0  0  0
 12  5  2  0  0  0  0
 13  4  2  0  0  0  0
 14  1  1  0  0  0  0
 14  3  2  0  0  0  0
 15 11  1  0  0  0  0
 16 20  1  0  0  0  0
 17 13  1  0  0  0  0
 19 18  1  6  0  0  0
 19 14  1  0  0  0  0
 20  3  1  0  0  0  0
 20  9  2  0  0  0  0
 21 23  1  0  0  0  0
 21  1  1  0  0  0  0
 22 25  1  0  0  0  0
 23 24  1  0  0  0  0
 25 24  2  0  0  0  0
 26 27  1  0  0  0  0
 26 22  2  0  0  0  0
 27 23  2  0  0  0  0
M  END
>  <MODEL>
3

>  <REMARK>
 VINA RESULT:      -8.9      2.726      4.288
  Name = 
  2 active torsions:
  status: ('A' for Active; 'I' for Inactive)
    1  A    between atoms: N_1  and  C_15
    2  A    between atoms: C_9  and  C_15
                            x       y       z     vdW  Elec       q    Type
                         _______ _______ _______ _____ _____    ______ ____

>  <TORSDO>
F 2

$$$$
=
 OpenBabel10262420123D

 27 31  0  0  1  0  0  0  0  0999 V2000
  185.8930  178.8730  141.6630 N   0  0  0  0  0  0  0  0  0  0  0  0
  187.1510  178.4930  141.3680 C   0  0  0  0  0  0  0  0  0  0  0  0
  186.8830  178.0880  143.5270 C   0  0  0  0  0  0  0  0  0  0  0  0
  191.0470  177.1280  140.9330 C   0  0  0  0  0  3  0  0  0  0  0  0
  191.7470  176.6030  142.0220 C   0  0  0  0  0  3  0  0  0  0  0  0
  187.7750  178.5410  140.1240 C   0  0  0  0  0  3  0  0  0  0  0  0
  189.8320  176.9940  143.4560 C   0  0  0  0  0  3  0  0  0  0  0  0
  184.6230  178.5650  145.2300 C   0  0  0  0  0  0  0  0  0  0  0  0
  188.0540  177.4430  145.5050 O   0  0  0  0  0  0  0  0  0  0  0  0
  183.8050  179.0030  146.0240 O   0  0  0  0  0  0  0  0  0  0  0  0
  189.1210  177.5270  142.3770 C   0  0  0  0  0  0  0  0  0  0  0  0
  191.1410  176.5350  143.2800 C   0  0  0  0  0  3  0  0  0  0  0  0
  189.7370  177.5890  141.0970 C   0  0  0  0  0  0  0  0  0  0  0  0
  185.7270  178.6250  142.9810 C   0  0  0  0  0  0  0  0  0  0  0  0
  187.8040  178.0040  142.4800 C   0  0  0  0  0  0  0  0  0  0  0  0
  185.6920  177.6290  145.7420 C   0  0  0  0  0  2  0  0  0  0  0  0
  189.0560  178.0890  140.0220 N   0  0  0  0  0  0  0  0  0  0  0  0
  184.1140  180.2180  143.6120 F   0  0  0  0  0  0  0  0  0  0  0  0
  184.4670  178.8880  143.7580 C   0  0  2  0  0  3  0  0  0  0  0  0
  186.9600  177.7140  144.9480 C   0  0  0  0  0  0  0  0  0  0  0  0
  184.8910  179.3780  140.7290 C   0  0  0  0  0  2  0  0  0  0  0  0
  183.0590  176.1680  138.5540 C   0  0  0  0  0  3  0  0  0  0  0  0
  184.2680  178.2480  139.9800 C   0  0  0  0  0  0  0  0  0  0  0  0
  183.2770  177.4680  140.5850 C   0  0  0  0  0  3  0  0  0  0  0  0
  182.6740  176.4270  139.8730 C   0  0  0  0  0  3  0  0  0  0  0  0
  184.0450  176.9520  137.9450 C   0  0  0  0  0  3  0  0  0  0  0  0
  184.6470  177.9940  138.6570 C   0  0  0  0  0  3  0  0  0  0  0  0
  1 14  1  0  0  0  0
  2  1  1  0  0  0  0
  2 15  1  0  0  0  0
  3 20  1  0  0  0  0
  4 13  1  0  0  0  0
  4  5  2  0  0  0  0
  5 12  1  0  0  0  0
  6  2  2  0  0  0  0
  8 16  1  0  0  0  0
  8 10  2  0  0  0  0
 11 15  2  0  0  0  0
 11  7  1  0  0  0  0
 12  7  2  0  0  0  0
 13 11  1  0  0  0  0
 14  3  2  0  0  0  0
 14 19  1  0  0  0  0
 15  3  1  0  0  0  0
 17  6  1  0  0  0  0
 17 13  2  0  0  0  0
 19 18  1  1  0  0  0
 19  8  1  0  0  0  0
 20  9  2  0  0  0  0
 20 16  1  0  0  0  0
 21  1  1  0  0  0  0
 22 25  1  0  0  0  0
 23 24  1  0  0  0  0
 23 21  1  0  0  0  0
 25 24  2  0  0  0  0
 26 22  2  0  0  0  0
 26 27  1  0  0  0  0
 27 23  2  0  0  0  0
M  END
>  <MODEL>
4

>  <REMARK>
 VINA RESULT:      -8.5      2.440      5.141
  Name = 
  2 active torsions:
  status: ('A' for Active; 'I' for Inactive)
    1  A    between atoms: N_1  and  C_15
    2  A    between atoms: C_9  and  C_15
                            x       y       z     vdW  Elec       q    Type
                         _______ _______ _______ _____ _____    ______ ____

>  <TORSDO>
F 2

$$$$
=
 OpenBabel10262420123D

 27 31  0  0  1  0  0  0  0  0999 V2000
  183.8750  179.1830  142.4630 N   0  0  0  0  0  0  0  0  0  0  0  0
  184.3800  178.8350  141.2650 C   0  0  0  0  0  0  0  0  0  0  0  0
  182.2550  178.2190  141.2320 C   0  0  0  0  0  0  0  0  0  0  0  0
  185.4550  177.6490  137.4340 C   0  0  0  0  0  3  0  0  0  0  0  0
  184.5210  177.0580  136.5800 C   0  0  0  0  0  3  0  0  0  0  0  0
  185.6810  179.0350  140.8090 C   0  0  0  0  0  3  0  0  0  0  0  0
  182.8190  177.2380  138.2960 C   0  0  0  0  0  3  0  0  0  0  0  0
  180.2430  178.4150  143.2690 C   0  0  0  0  0  0  0  0  0  0  0  0
  180.6410  177.0040  139.9600 O   0  0  0  0  0  0  0  0  0  0  0  0
  179.4570  178.2280  144.1840 O   0  0  0  0  0  0  0  0  0  0  0  0
  183.7440  177.8260  139.1650 C   0  0  0  0  0  0  0  0  0  0  0  0
  183.2060  176.8540  137.0100 C   0  0  0  0  0  3  0  0  0  0  0  0
  185.0790  178.0380  138.7230 C   0  0  0  0  0  0  0  0  0  0  0  0
  182.5760  178.8090  142.4450 C   0  0  0  0  0  0  0  0  0  0  0  0
  183.4250  178.2370  140.4690 C   0  0  0  0  0  0  0  0  0  0  0  0
  179.7770  178.1530  141.8570 C   0  0  0  0  0  2  0  0  0  0  0  0
  185.9970  178.6280  139.5470 N   0  0  0  0  0  0  0  0  0  0  0  0
  182.1160  178.4130  144.7190 F   0  0  0  0  0  0  0  0  0  0  0  0
  181.6050  179.0030  143.5760 C   0  0  2  0  0  3  0  0  0  0  0  0
  180.8940  177.7360  140.9500 C   0  0  0  0  0  0  0  0  0  0  0  0
  184.5720  179.8900  143.5340 C   0  0  0  0  0  2  0  0  0  0  0  0
  186.7280  177.1470  146.0280 C   0  0  0  0  0  3  0  0  0  0  0  0
  185.3060  178.9220  144.3990 C   0  0  0  0  0  0  0  0  0  0  0  0
  186.2010  178.0110  143.8280 C   0  0  0  0  0  3  0  0  0  0  0  0
  186.9090  177.1220  144.6410 C   0  0  0  0  0  3  0  0  0  0  0  0
  185.8390  178.0630  146.6010 C   0  0  0  0  0  3  0  0  0  0  0  0
  185.1310  178.9520  145.7870 C   0  0  0  0  0  3  0  0  0  0  0  0
  1 21  1  0  0  0  0
  2  1  1  0  0  0  0
  3 14  2  0  0  0  0
  4 13  1  0  0  0  0
  5 12  1  0  0  0  0
  5  4  2  0  0  0  0
  6  2  1  0  0  0  0
  7 11  1  0  0  0  0
  8 19  1  0  0  0  0
  8 10  2  0  0  0  0
  9 20  2  0  0  0  0
 11 15  1  0  0  0  0
 12  7  2  0  0  0  0
 13 11  2  0  0  0  0
 13 17  1  0  0  0  0
 14  1  1  0  0  0  0
 14 19  1  0  0  0  0
 15  3  1  0  0  0  0
 15  2  2  0  0  0  0
 16  8  1  0  0  0  0
 17  6  2  0  0  0  0
 19 18  1  1  0  0  0
 20  3  1  0  0  0  0
 20 16  1  0  0  0  0
 21 23  1  0  0  0  0
 22 26  1  0  0  0  0
 23 27  1  0  0  0  0
 24 23  2  0  0  0  0
 24 25  1  0  0  0  0
 25 22  2  0  0  0  0
 27 26  2  0  0  0  0
M  END
>  <MODEL>
5

>  <REMARK>
 VINA RESULT:      -8.5      4.085      7.635
  Name = 
  2 active torsions:
  status: ('A' for Active; 'I' for Inactive)
    1  A    between atoms: N_1  and  C_15
    2  A    between atoms: C_9  and  C_15
                            x       y       z     vdW  Elec       q    Type
                         _______ _______ _______ _____ _____    ______ ____

>  <TORSDO>
F 2

$$$$
=
 OpenBabel10262420123D

 27 31  0  0  1  0  0  0  0  0999 V2000
  188.3380  177.4860  141.5250 N   0  0  0  0  0  0  0  0  0  0  0  0
  187.5620  177.6770  142.6090 C   0  0  0  0  0  0  0  0  0  0  0  0
  186.3810  178.3930  140.8800 C   0  0  0  0  0  0  0  0  0  0  0  0
  184.7950  178.3910  145.6210 C   0  0  0  0  0  3  0  0  0  0  0  0
  183.5430  178.9330  145.3270 C   0  0  0  0  0  3  0  0  0  0  0  0
  187.8700  177.3640  143.9310 C   0  0  0  0  0  3  0  0  0  0  0  0
  184.1200  179.0240  142.9750 C   0  0  0  0  0  3  0  0  0  0  0  0
  187.0690  178.5170  138.0960 C   0  0  0  0  0  0  0  0  0  0  0  0
  184.3760  179.5440  140.2860 O   0  0  0  0  0  0  0  0  0  0  0  0
  187.4220  178.8400  136.9730 O   0  0  0  0  0  0  0  0  0  0  0  0
  185.3800  178.4870  143.2530 C   0  0  0  0  0  0  0  0  0  0  0  0
  183.2050  179.2480  144.0070 C   0  0  0  0  0  3  0  0  0  0  0  0
  185.7190  178.1610  144.5960 C   0  0  0  0  0  0  0  0  0  0  0  0
  187.6180  177.9200  140.4680 C   0  0  0  0  0  0  0  0  0  0  0  0
  186.3480  178.2350  142.2670 C   0  0  0  0  0  0  0  0  0  0  0  0
  185.6090  178.6490  138.4560 C   0  0  0  0  0  2  0  0  0  0  0  0
  186.9380  177.6180  144.8920 N   0  0  0  0  0  0  0  0  0  0  0  0
  189.2820  178.5800  138.9400 F   0  0  0  0  0  0  0  0  0  0  0  0
  188.0820  177.8980  139.0370 C   0  0  2  0  0  3  0  0  0  0  0  0
  185.3970  178.9110  139.9160 C   0  0  0  0  0  0  0  0  0  0  0  0
  189.6580  176.8630  141.4940 C   0  0  0  0  0  2  0  0  0  0  0  0
  191.8400  177.9510  145.0230 C   0  0  0  0  0  3  0  0  0  0  0  0
  190.4350  177.2390  142.7110 C   0  0  0  0  0  0  0  0  0  0  0  0
  190.7650  178.5780  142.9450 C   0  0  0  0  0  3  0  0  0  0  0  0
  191.4700  178.9340  144.0990 C   0  0  0  0  0  3  0  0  0  0  0  0
  191.5030  176.6130  144.7940 C   0  0  0  0  0  3  0  0  0  0  0  0
  190.7990  176.2580  143.6400 C   0  0  0  0  0  3  0  0  0  0  0  0
  1  2  1  0  0  0  0
  2  6  1  0  0  0  0
  3 15  1  0  0  0  0
  5  4  1  0  0  0  0
  6 17  2  0  0  0  0
  7 11  2  0  0  0  0
  7 12  1  0  0  0  0
  8 16  1  0  0  0  0
  8 19  1  0  0  0  0
 10  8  2  0  0  0  0
 11 13  1  0  0  0  0
 12  5  2  0  0  0  0
 13 17  1  0  0  0  0
 13  4  2  0  0  0  0
 14  3  2  0  0  0  0
 14  1  1  0  0  0  0
 15  2  2  0  0  0  0
 15 11  1  0  0  0  0
 16 20  1  0  0  0  0
 19 18  1  1  0  0  0
 19 14  1  0  0  0  0
 20  9  2  0  0  0  0
 20  3  1  0  0  0  0
 21  1  1  0  0  0  0
 21 23  1  0  0  0  0
 23 24  2  0  0  0  0
 23 27  1  0  0  0  0
 24 25  1  0  0  0  0
 25 22  2  0  0  0  0
 26 22  1  0  0  0  0
 27 26  2  0  0  0  0
M  END
>  <MODEL>
6

>  <REMARK>
 VINA RESULT:      -8.4      2.567      5.061
  Name = 
  2 active torsions:
  status: ('A' for Active; 'I' for Inactive)
    1  A    between atoms: N_1  and  C_15
    2  A    between atoms: C_9  and  C_15
                            x       y       z     vdW  Elec       q    Type
                         _______ _______ _______ _____ _____    ______ ____

>  <TORSDO>
F 2

$$$$
=
 OpenBabel10262420123D

 27 31  0  0  1  0  0  0  0  0999 V2000
  184.9260  178.9330  141.4520 N   0  0  0  0  0  0  0  0  0  0  0  0
  186.0790  178.6280  140.8270 C   0  0  0  0  0  0  0  0  0  0  0  0
  186.4310  178.2420  142.9780 C   0  0  0  0  0  0  0  0  0  0  0  0
  189.7930  177.5020  139.3530 C   0  0  0  0  0  3  0  0  0  0  0  0
  190.7920  177.0390  140.2110 C   0  0  0  0  0  3  0  0  0  0  0  0
  186.3390  178.6950  139.4610 C   0  0  0  0  0  3  0  0  0  0  0  0
  189.3150  177.3320  142.1100 C   0  0  0  0  0  3  0  0  0  0  0  0
  184.6890  178.6040  145.2290 C   0  0  0  0  0  0  0  0  0  0  0  0
  188.1310  177.7030  144.5640 O   0  0  0  0  0  0  0  0  0  0  0  0
  184.0890  179.0030  146.2150 O   0  0  0  0  0  0  0  0  0  0  0  0
  188.3060  177.8020  141.2640 C   0  0  0  0  0  0  0  0  0  0  0  0
  190.5540  176.9540  141.5860 C   0  0  0  0  0  3  0  0  0  0  0  0
  188.5490  177.8820  139.8650 C   0  0  0  0  0  0  0  0  0  0  0  0
  185.1380  178.6960  142.7660 C   0  0  0  0  0  0  0  0  0  0  0  0
  187.0380  178.1990  141.7200 C   0  0  0  0  0  0  0  0  0  0  0  0
  185.9140  177.7450  145.4320 C   0  0  0  0  0  2  0  0  0  0  0  0
  187.5720  178.3220  139.0150 N   0  0  0  0  0  0  0  0  0  0  0  0
  183.6560  180.1960  143.8110 F   0  0  0  0  0  0  0  0  0  0  0  0
  184.1210  178.8930  143.8550 C   0  0  2  0  0  3  0  0  0  0  0  0
  186.9120  177.8960  144.3240 C   0  0  0  0  0  0  0  0  0  0  0  0
  183.6780  179.3590  140.8250 C   0  0  0  0  0  2  0  0  0  0  0  0
  181.2150  175.9800  139.8730 C   0  0  0  0  0  3  0  0  0  0  0  0
  182.8270  178.1750  140.5120 C   0  0  0  0  0  0  0  0  0  0  0  0
  181.4860  178.1510  140.9100 C   0  0  0  0  0  3  0  0  0  0  0  0
  180.6800  177.0540  140.5930 C   0  0  0  0  0  3  0  0  0  0  0  0
  182.5530  176.0060  139.4680 C   0  0  0  0  0  3  0  0  0  0  0  0
  183.3580  177.1040  139.7860 C   0  0  0  0  0  3  0  0  0  0  0  0
  1 14  1  0  0  0  0
  2  1  1  0  0  0  0
  2 15  1  0  0  0  0
  3 20  1  0  0  0  0
  4 13  1  0  0  0  0
  4  5  2  0  0  0  0
  5 12  1  0  0  0  0
  6  2  2  0  0  0  0
  8 16  1  0  0  0  0
  8 10  2  0  0  0  0
 11 15  2  0  0  0  0
 11  7  1  0  0  0  0
 12  7  2  0  0  0  0
 13 11  1  0  0  0  0
 14  3  2  0  0  0  0
 14 19  1  0  0  0  0
 15  3  1  0  0  0  0
 17  6  1  0  0  0  0
 17 13  2  0  0  0  0
 19 18  1  1  0  0  0
 19  8  1  0  0  0  0
 20  9  2  0  0  0  0
 20 16  1  0  0  0  0
 21  1  1  0  0  0  0
 22 25  1  0  0  0  0
 23 21  1  0  0  0  0
 23 24  1  0  0  0  0
 25 24  2  0  0  0  0
 26 27  1  0  0  0  0
 26 22  2  0  0  0  0
 27 23  2  0  0  0  0
M  END
>  <MODEL>
7

>  <REMARK>
 VINA RESULT:      -8.4      2.859      5.536
  Name = 
  2 active torsions:
  status: ('A' for Active; 'I' for Inactive)
    1  A    between atoms: N_1  and  C_15
    2  A    between atoms: C_9  and  C_15
                            x       y       z     vdW  Elec       q    Type
                         _______ _______ _______ _____ _____    ______ ____

>  <TORSDO>
F 2

$$$$
=
 OpenBabel10262420123D

 27 31  0  0  1  0  0  0  0  0999 V2000
  183.9390  178.8360  140.6380 N   0  0  0  0  0  0  0  0  0  0  0  0
  185.0830  178.6050  141.3110 C   0  0  0  0  0  0  0  0  0  0  0  0
  183.4870  178.7060  142.8400 C   0  0  0  0  0  0  0  0  0  0  0  0
  188.3150  177.8270  143.7980 C   0  0  0  0  0  3  0  0  0  0  0  0
  188.1410  177.7080  145.1790 C   0  0  0  0  0  3  0  0  0  0  0  0
  186.3580  178.4460  140.7730 C   0  0  0  0  0  3  0  0  0  0  0  0
  185.7670  178.1230  144.9300 C   0  0  0  0  0  3  0  0  0  0  0  0
  180.6780  179.2130  142.5490 C   0  0  0  0  0  0  0  0  0  0  0  0
  183.1060  178.7670  145.1960 O   0  0  0  0  0  0  0  0  0  0  0  0
  179.5570  179.6940  142.4960 O   0  0  0  0  0  0  0  0  0  0  0  0
  185.9250  178.2500  143.5460 C   0  0  0  0  0  0  0  0  0  0  0  0
  186.8710  177.8540  145.7430 C   0  0  0  0  0  3  0  0  0  0  0  0
  187.2170  178.0950  142.9740 C   0  0  0  0  0  0  0  0  0  0  0  0
  182.9630  178.8960  141.5710 C   0  0  0  0  0  0  0  0  0  0  0  0
  184.8610  178.5180  142.6690 C   0  0  0  0  0  0  0  0  0  0  0  0
  181.1430  178.6190  143.8570 C   0  0  0  0  0  2  0  0  0  0  0  0
  187.3950  178.1970  141.6220 N   0  0  0  0  0  0  0  0  0  0  0  0
  181.3720  180.3110  140.5690 F   0  0  0  0  0  0  0  0  0  0  0  0
  181.5060  179.1340  141.2840 C   0  0  2  0  0  3  0  0  0  0  0  0
  182.6280  178.7110  144.0350 C   0  0  0  0  0  0  0  0  0  0  0  0
  183.7790  178.9250  139.1900 C   0  0  0  0  0  2  0  0  0  0  0  0
  183.9790  175.0400  137.3850 C   0  0  0  0  0  3  0  0  0  0  0  0
  183.8620  177.5670  138.5770 C   0  0  0  0  0  0  0  0  0  0  0  0
  182.9730  176.5630  138.9750 C   0  0  0  0  0  3  0  0  0  0  0  0
  183.0320  175.2990  138.3820 C   0  0  0  0  0  3  0  0  0  0  0  0
  184.8640  176.0440  136.9810 C   0  0  0  0  0  3  0  0  0  0  0  0
  184.8030  177.3090  137.5750 C   0  0  0  0  0  3  0  0  0  0  0  0
  1  2  1  0  0  0  0
  1 14  1  0  0  0  0
  2 15  1  0  0  0  0
  3 20  1  0  0  0  0
  4  5  2  0  0  0  0
  5 12  1  0  0  0  0
  6  2  2  0  0  0  0
  6 17  1  0  0  0  0
  7 12  2  0  0  0  0
  8 16  1  0  0  0  0
 10  8  2  0  0  0  0
 11  7  1  0  0  0  0
 13 11  1  0  0  0  0
 13  4  1  0  0  0  0
 14  3  2  0  0  0  0
 15  3  1  0  0  0  0
 15 11  2  0  0  0  0
 16 20  1  0  0  0  0
 17 13  2  0  0  0  0
 19 18  1  1  0  0  0
 19 14  1  0  0  0  0
 19  8  1  0  0  0  0
 20  9  2  0  0  0  0
 21  1  1  0  0  0  0
 22 25  1  0  0  0  0
 23 24  1  0  0  0  0
 23 21  1  0  0  0  0
 25 24  2  0  0  0  0
 26 22  2  0  0  0  0
 26 27  1  0  0  0  0
 27 23  2  0  0  0  0
M  END
>  <MODEL>
8

>  <REMARK>
 VINA RESULT:      -8.3      3.420      5.745
  Name = 
  2 active torsions:
  status: ('A' for Active; 'I' for Inactive)
    1  A    between atoms: N_1  and  C_15
    2  A    between atoms: C_9  and  C_15
                            x       y       z     vdW  Elec       q    Type
                         _______ _______ _______ _____ _____    ______ ____

>  <TORSDO>
F 2

$$$$
=
 OpenBabel10262420123D

 27 31  0  0  1  0  0  0  0  0999 V2000
  187.5800  178.2510  139.7710 N   0  0  0  0  0  0  0  0  0  0  0  0
  186.9130  178.2730  140.9400 C   0  0  0  0  0  0  0  0  0  0  0  0
  188.9670  177.6050  141.4220 C   0  0  0  0  0  0  0  0  0  0  0  0
  185.3100  178.2490  144.7700 C   0  0  0  0  0  3  0  0  0  0  0  0
  186.0900  177.8820  145.8690 C   0  0  0  0  0  3  0  0  0  0  0  0
  185.5870  178.6450  141.1470 C   0  0  0  0  0  3  0  0  0  0  0  0
  187.9890  177.5070  144.4120 C   0  0  0  0  0  3  0  0  0  0  0  0
  191.2130  177.1430  139.6970 C   0  0  0  0  0  0  0  0  0  0  0  0
  190.3230  176.7290  143.1810 O   0  0  0  0  0  0  0  0  0  0  0  0
  192.0840  176.6760  138.9800 O   0  0  0  0  0  0  0  0  0  0  0  0
  187.2200  177.8650  143.3010 C   0  0  0  0  0  0  0  0  0  0  0  0
  187.4260  177.5130  145.6910 C   0  0  0  0  0  3  0  0  0  0  0  0
  185.8630  178.2470  143.4860 C   0  0  0  0  0  0  0  0  0  0  0  0
  188.8350  177.8460  140.0630 C   0  0  0  0  0  0  0  0  0  0  0  0
  187.7200  177.8820  141.9880 C   0  0  0  0  0  0  0  0  0  0  0  0
  191.4890  177.2670  141.1760 C   0  0  0  0  0  2  0  0  0  0  0  0
  185.0950  178.6190  142.4170 N   0  0  0  0  0  0  0  0  0  0  0  0
  189.5270  176.8110  138.0660 F   0  0  0  0  0  0  0  0  0  0  0  0
  189.9440  177.6760  139.0630 C   0  0  2  0  0  3  0  0  0  0  0  0
  190.2450  177.1650  142.0050 C   0  0  0  0  0  0  0  0  0  0  0  0
  187.0690  178.6590  138.4650 C   0  0  0  0  0  2  0  0  0  0  0  0
  184.6030  175.5960  136.7530 C   0  0  0  0  0  3  0  0  0  0  0  0
  186.2110  177.5840  137.8880 C   0  0  0  0  0  0  0  0  0  0  0  0
  184.8170  177.7000  137.9310 C   0  0  0  0  0  3  0  0  0  0  0  0
  184.0130  176.7060  137.3670 C   0  0  0  0  0  3  0  0  0  0  0  0
  185.9960  175.4810  136.7030 C   0  0  0  0  0  3  0  0  0  0  0  0
  186.7990  176.4760  137.2680 C   0  0  0  0  0  3  0  0  0  0  0  0
  1 14  1  0  0  0  0
  1  2  1  0  0  0  0
  2  6  2  0  0  0  0
  2 15  1  0  0  0  0
  3 15  1  0  0  0  0
  3 20  1  0  0  0  0
  4  5  2  0  0  0  0
  6 17  1  0  0  0  0
  7 12  2  0  0  0  0
  8 16  1  0  0  0  0
 10  8  2  0  0  0  0
 11 13  1  0  0  0  0
 11  7  1  0  0  0  0
 12  5  1  0  0  0  0
 13  4  1  0  0  0  0
 14  3  2  0  0  0  0
 15 11  2  0  0  0  0
 16 20  1  0  0  0  0
 17 13  2  0  0  0  0
 19 18  1  6  0  0  0
 19  8  1  0  0  0  0
 19 14  1  0  0  0  0
 20  9  2  0  0  0  0
 21  1  1  0  0  0  0
 22 25  1  0  0  0  0
 23 24  1  0  0  0  0
 23 21  1  0  0  0  0
 25 24  2  0  0  0  0
 26 22  2  0  0  0  0
 26 27  1  0  0  0  0
 27 23  2  0  0  0  0
M  END
>  <MODEL>
9

>  <REMARK>
 VINA RESULT:      -8.2      1.627      2.499
  Name = 
  2 active torsions:
  status: ('A' for Active; 'I' for Inactive)
    1  A    between atoms: N_1  and  C_15
    2  A    between atoms: C_9  and  C_15
                            x       y       z     vdW  Elec       q    Type
                         _______ _______ _______ _____ _____    ______ ____

>  <TORSDO>
F 2

$$$$
