=
 OpenBabel10262420233D

 55 60  0  0  1  0  0  0  0  0999 V2000
  183.7740  177.2870  139.3710 C   0  0  0  0  0  2  0  0  0  0  0  0
  187.2700  176.0240  135.1140 C   0  0  0  0  0  2  0  0  0  0  0  0
  184.7780  173.2580  135.1510 O   0  0  0  0  0  0  0  0  0  0  0  0
  182.9080  170.6150  135.2640 C   0  0  0  0  0  2  0  0  0  0  0  0
  181.5330  170.0900  134.9500 C   0  0  0  0  0  3  0  0  0  0  0  0
  181.8900  172.8970  135.3960 C   0  0  2  0  0  3  0  0  0  0  0  0
  180.4740  172.3070  135.4190 C   0  0  0  0  0  2  0  0  0  0  0  0
  184.9280  172.2160  137.2070 O   0  0  0  0  0  0  0  0  0  0  0  0
  180.4410  170.8680  134.9720 C   0  0  0  0  0  3  0  0  0  0  0  0
  182.8670  171.9170  136.0650 C   0  0  2  0  0  3  0  0  0  0  0  0
  182.0290  175.3340  139.3560 C   0  0  0  0  0  2  0  0  0  0  0  0
  184.7520  178.9590  137.7980 C   0  0  0  0  0  2  0  0  0  0  0  0
  182.4390  174.4630  138.1900 C   0  0  0  0  0  2  0  0  0  0  0  0
  186.6230  178.9650  135.4230 C   0  0  0  0  0  1  0  0  0  0  0  0
  181.9330  174.3010  136.0240 C   0  0  2  0  0  3  0  0  0  0  0  0
  185.9910  175.2840  134.7460 C   0  0  0  0  0  2  0  0  0  0  0  0
  186.0530  173.8680  135.2710 C   0  0  0  0  0  2  0  0  0  0  0  0
  187.1790  176.7550  136.4610 C   0  0  1  0  0  3  0  0  0  0  0  0
  182.0390  177.0820  138.8770 S   0  0  0  0  0  0  0  0  0  0  0  0
  184.2510  172.4680  136.1750 C   0  0  0  0  0  0  0  0  0  0  0  0
  184.1860  178.7330  139.1990 C   0  0  2  0  0  3  0  0  0  0  0  0
  186.1690  177.9110  136.4270 C   0  0  1  0  0  3  0  0  0  0  0  0
  181.3630  174.3180  137.3090 O   0  0  0  0  0  0  0  0  0  0  0  0
  186.0700  178.4970  137.6950 O   0  0  0  0  0  0  0  0  0  0  0  0
  181.2790  175.3380  135.1080 C   0  0  1  0  0  3  0  0  0  0  0  0
  180.2660  177.4060  135.6890 C   0  0  1  0  0  3  0  0  0  0  0  0
  179.8800  175.1650  135.0740 O   0  0  0  0  0  0  0  0  0  0  0  0
  179.3360  176.4540  134.9840 C   0  0  0  0  0  2  0  0  0  0  0  0
  181.6030  176.7370  135.5820 C   0  0  0  0  0  2  0  0  0  0  0  0
  180.2820  178.7470  134.9790 C   0  0  0  0  0  3  0  0  0  0  0  0
  181.5430  179.5040  135.3440 C   0  0  0  0  0  2  0  0  0  0  0  0
  180.2330  179.8550  136.0150 C   0  0  0  0  0  2  0  0  0  0  0  0
  186.9030  175.7800  137.5980 C   0  0  0  0  0  2  0  0  0  0  0  0
  188.0770  175.5230  138.3060 O   0  0  0  0  0  0  0  0  0  0  0  0
  188.8060  176.7090  138.2050 C   0  0  0  0  0  2  0  0  0  0  0  0
  189.8250  176.8030  139.3310 C   0  0  2  0  0  3  0  0  0  0  0  0
  188.5590  178.5510  140.3820 O   0  0  0  0  0  0  0  0  0  0  0  0
  190.1920  175.8310  141.9910 O   0  0  0  0  0  1  0  0  0  0  0  0
  189.2410  177.4980  140.5350 C   0  0  0  0  0  0  0  0  0  0  0  0
  189.5240  177.0040  141.8520 N   0  0  0  0  0  0  0  0  0  0  0  0
  190.4880  178.2550  143.6940 C   0  0  0  0  0  2  0  0  0  0  0  0
  189.6350  177.1680  144.3170 C   0  0  2  0  0  3  0  0  0  0  0  0
  189.2010  177.8300  143.0170 C   0  0  2  0  0  3  0  0  0  0  0  0
  188.8570  177.7730  145.4630 C   0  0  0  0  0  2  0  0  0  0  0  0
  190.4060  176.6890  146.9140 O   0  0  0  0  0  0  0  0  0  0  0  0
  188.2970  176.9930  147.7620 O   0  0  0  0  0  1  0  0  0  0  0  0
  189.2350  177.1250  146.7490 C   0  0  0  0  0  0  0  0  0  0  0  0
  192.9410  176.2830  138.4870 C   0  0  0  0  0  2  0  0  0  0  0  0
  192.3540  177.0300  139.6710 C   0  0  0  0  0  2  0  0  0  0  0  0
  191.1480  177.4110  138.8260 C   0  0  0  0  0  3  0  0  0  0  0  0
  191.7320  176.6540  137.6460 C   0  0  0  0  0  2  0  0  0  0  0  0
  185.1780  179.1130  140.2900 C   0  0  0  0  0  2  0  0  0  0  0  0
  184.6170  178.8210  141.6750 C   0  0  0  0  0  2  0  0  0  0  0  0
  185.3080  178.4250  144.0170 C   0  0  0  0  0  1  0  0  0  0  0  0
  185.6860  178.2210  142.5680 C   0  0  0  0  0  2  0  0  0  0  0  0
  2 18  1  0  0  0  0
  3 17  1  0  0  0  0
  3 20  1  0  0  0  0
  5  9  2  0  0  0  0
  5  4  1  0  0  0  0
  6  7  1  1  0  0  0
  6 15  1  0  0  0  0
  6 10  1  0  0  0  0
  9  7  1  0  0  0  0
 10  4  1  6  0  0  0
 10 20  1  0  0  0  0
 12 21  1  0  0  0  0
 13 11  1  0  0  0  0
 15 23  1  1  0  0  0
 16  2  1  0  0  0  0
 16 17  1  0  0  0  0
 18 33  1  1  0  0  0
 19 11  1  0  0  0  0
 19  1  1  0  0  0  0
 20  8  2  0  0  0  0
 21  1  1  0  0  0  0
 21 52  1  1  0  0  0
 22 14  1  6  0  0  0
 22 18  1  0  0  0  0
 22 24  1  0  0  0  0
 23 13  1  0  0  0  0
 24 12  1  0  0  0  0
 25 29  1  1  0  0  0
 25 15  1  0  0  0  0
 26 30  1  6  0  0  0
 27 25  1  0  0  0  0
 28 27  1  0  0  0  0
 28 26  1  0  0  0  0
 29 26  1  0  0  0  0
 30 31  1  0  0  0  0
 30 32  1  0  0  0  0
 31 32  1  0  0  0  0
 33 34  1  0  0  0  0
 35 34  1  0  0  0  0
 36 35  1  6  0  0  0
 36 39  1  0  0  0  0
 37 39  2  0  0  0  0
 39 40  1  0  0  0  0
 40 38  1  0  0  0  0
 41 42  1  0  0  0  0
 42 44  1  1  0  0  0
 43 40  1  6  0  0  0
 43 41  1  0  0  0  0
 43 42  1  0  0  0  0
 44 47  1  0  0  0  0
 47 45  2  0  0  0  0
 47 46  1  0  0  0  0
 48 49  1  0  0  0  0
 50 36  1  0  0  0  0
 50 49  1  0  0  0  0
 51 48  1  0  0  0  0
 51 50  1  0  0  0  0
 52 53  1  0  0  0  0
 53 55  1  0  0  0  0
 55 54  1  0  0  0  0
M  END
>  <MODEL>
1

>  <REMARK>
 VINA RESULT:      -5.6      0.000      0.000
  Name = 
  14 active torsions:
  status: ('A' for Active; 'I' for Inactive)
    1  A    between atoms: C_6  and  C_14
    2  A    between atoms: C_6  and  C_38
    3  A    between atoms: O_8  and  C_20
    4  A    between atoms: O_8  and  C_22
    5  A    between atoms: C_10  and  C_32
    6  A    between atoms: C_12  and  C_20
    7  A    between atoms: C_12  and  C_42
    8  A    between atoms: C_12  and  C_46
    9  A    between atoms: C_13  and  C_36
   10  A    between atoms: C_21  and  N_53
   11  A    between atoms: C_22  and  C_43
   12  A    between atoms: C_27  and  C_49
   13  A    between atoms: C_27  and  C_55
   14  A    between atoms: C_41  and  C_55
                            x       y       z     vdW  Elec       q    Type
                         _______ _______ _______ _____ _____    ______ ____

>  <TORSDO>
F 14

$$$$
=
 OpenBabel10262420233D

 55 60  0  0  1  0  0  0  0  0999 V2000
  184.2100  177.5280  139.9460 C   0  0  0  0  0  2  0  0  0  0  0  0
  187.0560  176.7560  135.1250 C   0  0  0  0  0  2  0  0  0  0  0  0
  184.2390  174.3280  134.9660 O   0  0  0  0  0  0  0  0  0  0  0  0
  182.0590  171.9360  134.8240 C   0  0  0  0  0  2  0  0  0  0  0  0
  180.6010  171.6380  134.5940 C   0  0  0  0  0  3  0  0  0  0  0  0
  181.3690  174.2450  135.5000 C   0  0  2  0  0  3  0  0  0  0  0  0
  179.8970  173.8200  135.5910 C   0  0  0  0  0  2  0  0  0  0  0  0
  184.4590  172.8900  136.7600 O   0  0  0  0  0  0  0  0  0  0  0  0
  179.6290  172.5110  134.8950 C   0  0  0  0  0  3  0  0  0  0  0  0
  182.2710  173.0510  135.8500 C   0  0  2  0  0  3  0  0  0  0  0  0
  182.2300  175.8210  139.7910 C   0  0  0  0  0  2  0  0  0  0  0  0
  185.2340  179.3610  138.5970 C   0  0  0  0  0  2  0  0  0  0  0  0
  182.4010  175.1580  138.4420 C   0  0  0  0  0  2  0  0  0  0  0  0
  186.8380  179.6310  136.0480 C   0  0  0  0  0  1  0  0  0  0  0  0
  181.6600  175.4840  136.3640 C   0  0  2  0  0  3  0  0  0  0  0  0
  185.6610  176.2480  134.7910 C   0  0  0  0  0  2  0  0  0  0  0  0
  185.5890  174.7580  135.0350 C   0  0  0  0  0  2  0  0  0  0  0  0
  187.2000  177.2120  136.5840 C   0  0  1  0  0  3  0  0  0  0  0  0
  182.4220  177.6170  139.6440 S   0  0  0  0  0  0  0  0  0  0  0  0
  183.7200  173.4140  135.8840 C   0  0  0  0  0  0  0  0  0  0  0  0
  184.7890  178.9250  139.9920 C   0  0  2  0  0  3  0  0  0  0  0  0
  186.3530  178.4560  136.8910 C   0  0  1  0  0  3  0  0  0  0  0  0
  181.2310  175.3090  137.6920 O   0  0  0  0  0  0  0  0  0  0  0  0
  186.4620  178.7870  138.2470 O   0  0  0  0  0  0  0  0  0  0  0  0
  181.0580  176.7460  135.7440 C   0  0  1  0  0  3  0  0  0  0  0  0
  180.6280  178.8460  136.7680 C   0  0  1  0  0  3  0  0  0  0  0  0
  179.6760  176.8270  136.0130 O   0  0  0  0  0  0  0  0  0  0  0  0
  179.4000  178.1900  136.1940 C   0  0  0  0  0  2  0  0  0  0  0  0
  181.7510  177.9780  136.2830 C   0  0  0  0  0  2  0  0  0  0  0  0
  180.7730  180.2560  136.2270 C   0  0  0  0  0  3  0  0  0  0  0  0
  181.2180  181.1870  137.3360 C   0  0  0  0  0  2  0  0  0  0  0  0
  179.7640  181.1560  136.9160 C   0  0  0  0  0  2  0  0  0  0  0  0
  186.9150  176.0680  137.5480 C   0  0  0  0  0  2  0  0  0  0  0  0
  188.0860  175.6940  138.2100 O   0  0  0  0  0  0  0  0  0  0  0  0
  189.0730  176.5020  137.6440 C   0  0  0  0  0  2  0  0  0  0  0  0
  190.3570  176.4210  138.4560 C   0  0  2  0  0  3  0  0  0  0  0  0
  190.8050  174.2140  137.6240 O   0  0  0  0  0  0  0  0  0  0  0  0
  193.1530  176.8500  138.0640 O   0  0  0  0  0  1  0  0  0  0  0  0
  191.2730  175.3500  137.9190 C   0  0  0  0  0  0  0  0  0  0  0  0
  192.6820  175.6010  137.8160 N   0  0  0  0  0  0  0  0  0  0  0  0
  194.9590  175.0350  137.2000 C   0  0  0  0  0  2  0  0  0  0  0  0
  194.0680  174.4490  136.1240 C   0  0  2  0  0  3  0  0  0  0  0  0
  193.5970  174.4850  137.5710 C   0  0  2  0  0  3  0  0  0  0  0  0
  194.5650  173.0580  135.8010 C   0  0  0  0  0  2  0  0  0  0  0  0
  192.4620  172.3590  134.9240 O   0  0  0  0  0  0  0  0  0  0  0  0
  193.4120  170.9520  136.4660 O   0  0  0  0  0  1  0  0  0  0  0  0
  193.4230  172.1080  135.7000 C   0  0  0  0  0  0  0  0  0  0  0  0
  190.2530  177.9040  141.3680 C   0  0  0  0  0  2  0  0  0  0  0  0
  191.1690  176.8090  140.8540 C   0  0  0  0  0  2  0  0  0  0  0  0
  190.0490  176.2980  139.9610 C   0  0  0  0  0  3  0  0  0  0  0  0
  189.1370  177.4010  140.4680 C   0  0  0  0  0  2  0  0  0  0  0  0
  185.9280  178.9710  141.0020 C   0  0  0  0  0  2  0  0  0  0  0  0
  185.4640  178.5240  142.3810 C   0  0  0  0  0  2  0  0  0  0  0  0
  186.2890  177.7990  144.5970 C   0  0  0  0  0  1  0  0  0  0  0  0
  186.5850  177.8130  143.1150 C   0  0  0  0  0  2  0  0  0  0  0  0
  1 21  1  0  0  0  0
  2 18  1  0  0  0  0
  3 17  1  0  0  0  0
  3 20  1  0  0  0  0
  5  4  1  0  0  0  0
  5  9  2  0  0  0  0
  6  7  1  1  0  0  0
  6 10  1  0  0  0  0
  6 15  1  0  0  0  0
  9  7  1  0  0  0  0
 10  4  1  6  0  0  0
 10 20  1  0  0  0  0
 12 21  1  0  0  0  0
 13 11  1  0  0  0  0
 15 23  1  1  0  0  0
 16 17  1  0  0  0  0
 16  2  1  0  0  0  0
 18 22  1  0  0  0  0
 18 33  1  1  0  0  0
 19 11  1  0  0  0  0
 19  1  1  0  0  0  0
 20  8  2  0  0  0  0
 21 52  1  1  0  0  0
 22 14  1  6  0  0  0
 22 24  1  0  0  0  0
 23 13  1  0  0  0  0
 24 12  1  0  0  0  0
 25 27  1  0  0  0  0
 25 29  1  1  0  0  0
 25 15  1  0  0  0  0
 26 30  1  6  0  0  0
 27 28  1  0  0  0  0
 28 26  1  0  0  0  0
 29 26  1  0  0  0  0
 30 32  1  0  0  0  0
 30 31  1  0  0  0  0
 32 31  1  0  0  0  0
 33 34  1  0  0  0  0
 35 34  1  0  0  0  0
 36 35  1  6  0  0  0
 36 50  1  0  0  0  0
 37 39  2  0  0  0  0
 39 36  1  0  0  0  0
 40 39  1  0  0  0  0
 40 38  1  0  0  0  0
 41 43  1  0  0  0  0
 42 44  1  1  0  0  0
 42 41  1  0  0  0  0
 42 43  1  0  0  0  0
 43 40  1  6  0  0  0
 45 47  2  0  0  0  0
 47 44  1  0  0  0  0
 47 46  1  0  0  0  0
 49 48  1  0  0  0  0
 50 51  1  0  0  0  0
 50 49  1  0  0  0  0
 51 48  1  0  0  0  0
 52 53  1  0  0  0  0
 53 55  1  0  0  0  0
 55 54  1  0  0  0  0
M  END
>  <MODEL>
2

>  <REMARK>
 VINA RESULT:      -4.2      2.434      4.484
  Name = 
  14 active torsions:
  status: ('A' for Active; 'I' for Inactive)
    1  A    between atoms: C_6  and  C_14
    2  A    between atoms: C_6  and  C_38
    3  A    between atoms: O_8  and  C_20
    4  A    between atoms: O_8  and  C_22
    5  A    between atoms: C_10  and  C_32
    6  A    between atoms: C_12  and  C_20
    7  A    between atoms: C_12  and  C_42
    8  A    between atoms: C_12  and  C_46
    9  A    between atoms: C_13  and  C_36
   10  A    between atoms: C_21  and  N_53
   11  A    between atoms: C_22  and  C_43
   12  A    between atoms: C_27  and  C_49
   13  A    between atoms: C_27  and  C_55
   14  A    between atoms: C_41  and  C_55
                            x       y       z     vdW  Elec       q    Type
                         _______ _______ _______ _____ _____    ______ ____

>  <TORSDO>
F 14

$$$$
=
 OpenBabel10262420233D

 55 60  0  0  1  0  0  0  0  0999 V2000
  183.6520  177.5320  139.8970 C   0  0  0  0  0  2  0  0  0  0  0  0
  186.6090  176.5030  135.1920 C   0  0  0  0  0  2  0  0  0  0  0  0
  183.7080  174.1780  135.0190 O   0  0  0  0  0  0  0  0  0  0  0  0
  181.4430  171.8650  134.8830 C   0  0  0  0  0  2  0  0  0  0  0  0
  179.9830  171.6140  134.6170 C   0  0  0  0  0  3  0  0  0  0  0  0
  180.8210  174.2180  135.4660 C   0  0  2  0  0  3  0  0  0  0  0  0
  179.3330  173.8520  135.5260 C   0  0  0  0  0  2  0  0  0  0  0  0
  183.8190  172.7900  136.8620 O   0  0  0  0  0  0  0  0  0  0  0  0
  179.0360  172.5320  134.8610 C   0  0  0  0  0  3  0  0  0  0  0  0
  181.6670  173.0030  135.8800 C   0  0  2  0  0  3  0  0  0  0  0  0
  181.6140  175.8950  139.7330 C   0  0  0  0  0  2  0  0  0  0  0  0
  184.7850  179.2820  138.5260 C   0  0  0  0  0  2  0  0  0  0  0  0
  181.8000  175.1840  138.4110 C   0  0  0  0  0  2  0  0  0  0  0  0
  186.4730  179.4120  136.0210 C   0  0  0  0  0  1  0  0  0  0  0  0
  181.1340  175.4720  136.3020 C   0  0  2  0  0  3  0  0  0  0  0  0
  185.2060  176.0370  134.8310 C   0  0  0  0  0  2  0  0  0  0  0  0
  185.0700  174.5590  135.1170 C   0  0  0  0  0  2  0  0  0  0  0  0
  186.7270  176.9990  136.6410 C   0  0  1  0  0  3  0  0  0  0  0  0
  181.8790  177.6770  139.5380 S   0  0  0  0  0  0  0  0  0  0  0  0
  183.1270  173.3130  135.9490 C   0  0  0  0  0  0  0  0  0  0  0  0
  184.2820  178.9070  139.9190 C   0  0  2  0  0  3  0  0  0  0  0  0
  185.9190  178.2820  136.8830 C   0  0  1  0  0  3  0  0  0  0  0  0
  180.6590  175.3550  137.6200 O   0  0  0  0  0  0  0  0  0  0  0  0
  186.0000  178.6510  138.2310 O   0  0  0  0  0  0  0  0  0  0  0  0
  180.5990  176.7360  135.6260 C   0  0  1  0  0  3  0  0  0  0  0  0
  180.6320  178.9740  136.4200 C   0  0  1  0  0  3  0  0  0  0  0  0
  179.3090  177.0500  136.1000 O   0  0  0  0  0  0  0  0  0  0  0  0
  179.2470  178.4510  136.1420 C   0  0  0  0  0  2  0  0  0  0  0  0
  181.5290  177.9010  135.8800 C   0  0  0  0  0  2  0  0  0  0  0  0
  180.8580  180.2800  135.6820 C   0  0  0  0  0  3  0  0  0  0  0  0
  181.0020  181.4120  136.6780 C   0  0  0  0  0  2  0  0  0  0  0  0
  179.6900  181.2090  135.9520 C   0  0  0  0  0  2  0  0  0  0  0  0
  186.3700  175.8970  137.6290 C   0  0  0  0  0  2  0  0  0  0  0  0
  187.3590  174.9130  137.6290 O   0  0  0  0  0  0  0  0  0  0  0  0
  188.5430  175.6160  137.4000 C   0  0  0  0  0  2  0  0  0  0  0  0
  189.5800  174.7120  136.7490 C   0  0  2  0  0  3  0  0  0  0  0  0
  190.7920  176.5170  135.7300 O   0  0  0  0  0  0  0  0  0  0  0  0
  192.1390  173.8900  137.7160 O   0  0  0  0  0  1  0  0  0  0  0  0
  190.8450  175.4720  136.4410 C   0  0  0  0  0  0  0  0  0  0  0  0
  192.1100  174.9670  136.8910 N   0  0  0  0  0  0  0  0  0  0  0  0
  193.5350  175.0680  134.9290 C   0  0  0  0  0  2  0  0  0  0  0  0
  194.3760  174.4640  136.0360 C   0  0  2  0  0  3  0  0  0  0  0  0
  193.3470  175.5400  136.3560 C   0  0  2  0  0  3  0  0  0  0  0  0
  195.7490  175.0940  135.9860 C   0  0  0  0  0  2  0  0  0  0  0  0
  197.5120  175.4080  137.5590 O   0  0  0  0  0  0  0  0  0  0  0  0
  196.2490  173.5150  137.8470 O   0  0  0  0  0  1  0  0  0  0  0  0
  196.5520  174.6880  137.1730 C   0  0  0  0  0  0  0  0  0  0  0  0
  189.5710  171.9920  134.9350 C   0  0  0  0  0  2  0  0  0  0  0  0
  190.0260  173.3990  134.5960 C   0  0  0  0  0  2  0  0  0  0  0  0
  188.9800  173.9620  135.5450 C   0  0  0  0  0  3  0  0  0  0  0  0
  188.5330  172.5520  135.8920 C   0  0  0  0  0  2  0  0  0  0  0  0
  185.3920  178.9420  140.9620 C   0  0  0  0  0  2  0  0  0  0  0  0
  184.9400  178.3150  142.2730 C   0  0  0  0  0  2  0  0  0  0  0  0
  185.2630  178.5120  144.7170 C   0  0  0  0  0  1  0  0  0  0  0  0
  185.1410  179.2830  143.4230 C   0  0  0  0  0  2  0  0  0  0  0  0
  1 21  1  0  0  0  0
  2 18  1  0  0  0  0
  3 17  1  0  0  0  0
  3 20  1  0  0  0  0
  5  9  2  0  0  0  0
  5  4  1  0  0  0  0
  6  7  1  1  0  0  0
  6 10  1  0  0  0  0
  6 15  1  0  0  0  0
  9  7  1  0  0  0  0
 10  4  1  6  0  0  0
 10 20  1  0  0  0  0
 12 21  1  0  0  0  0
 13 11  1  0  0  0  0
 15 23  1  1  0  0  0
 16 17  1  0  0  0  0
 16  2  1  0  0  0  0
 18 22  1  0  0  0  0
 18 33  1  1  0  0  0
 19 11  1  0  0  0  0
 19  1  1  0  0  0  0
 20  8  2  0  0  0  0
 21 52  1  1  0  0  0
 22 14  1  6  0  0  0
 22 24  1  0  0  0  0
 23 13  1  0  0  0  0
 24 12  1  0  0  0  0
 25 29  1  1  0  0  0
 25 27  1  0  0  0  0
 25 15  1  0  0  0  0
 26 30  1  6  0  0  0
 27 28  1  0  0  0  0
 28 26  1  0  0  0  0
 29 26  1  0  0  0  0
 30 32  1  0  0  0  0
 30 31  1  0  0  0  0
 32 31  1  0  0  0  0
 34 33  1  0  0  0  0
 35 34  1  0  0  0  0
 36 35  1  6  0  0  0
 37 39  2  0  0  0  0
 39 36  1  0  0  0  0
 39 40  1  0  0  0  0
 40 38  1  0  0  0  0
 41 42  1  0  0  0  0
 41 43  1  0  0  0  0
 42 44  1  6  0  0  0
 42 43  1  0  0  0  0
 43 40  1  1  0  0  0
 44 47  1  0  0  0  0
 47 45  2  0  0  0  0
 47 46  1  0  0  0  0
 48 51  1  0  0  0  0
 49 48  1  0  0  0  0
 49 50  1  0  0  0  0
 50 51  1  0  0  0  0
 50 36  1  0  0  0  0
 52 53  1  0  0  0  0
 53 55  1  0  0  0  0
 55 54  1  0  0  0  0
M  END
>  <MODEL>
3

>  <REMARK>
 VINA RESULT:      -3.8      2.935      4.706
  Name = 
  14 active torsions:
  status: ('A' for Active; 'I' for Inactive)
    1  A    between atoms: C_6  and  C_14
    2  A    between atoms: C_6  and  C_38
    3  A    between atoms: O_8  and  C_20
    4  A    between atoms: O_8  and  C_22
    5  A    between atoms: C_10  and  C_32
    6  A    between atoms: C_12  and  C_20
    7  A    between atoms: C_12  and  C_42
    8  A    between atoms: C_12  and  C_46
    9  A    between atoms: C_13  and  C_36
   10  A    between atoms: C_21  and  N_53
   11  A    between atoms: C_22  and  C_43
   12  A    between atoms: C_27  and  C_49
   13  A    between atoms: C_27  and  C_55
   14  A    between atoms: C_41  and  C_55
                            x       y       z     vdW  Elec       q    Type
                         _______ _______ _______ _____ _____    ______ ____

>  <TORSDO>
F 14

$$$$
=
 OpenBabel10262420233D

 55 60  0  0  1  0  0  0  0  0999 V2000
  183.9210  177.4480  139.9750 C   0  0  0  0  0  2  0  0  0  0  0  0
  186.5270  176.7350  135.0130 C   0  0  0  0  0  2  0  0  0  0  0  0
  183.6110  174.4250  134.8950 O   0  0  0  0  0  0  0  0  0  0  0  0
  181.3320  172.1250  134.7700 C   0  0  0  0  0  2  0  0  0  0  0  0
  179.8550  171.8920  134.5940 C   0  0  0  0  0  3  0  0  0  0  0  0
  180.7640  174.4340  135.5510 C   0  0  2  0  0  3  0  0  0  0  0  0
  179.2820  174.0640  135.6930 C   0  0  0  0  0  2  0  0  0  0  0  0
  183.8480  172.9170  136.6300 O   0  0  0  0  0  0  0  0  0  0  0  0
  178.9320  172.7920  134.9650 C   0  0  0  0  0  3  0  0  0  0  0  0
  181.6320  173.1940  135.8210 C   0  0  2  0  0  3  0  0  0  0  0  0
  181.8690  175.8250  139.8510 C   0  0  0  0  0  2  0  0  0  0  0  0
  184.9600  179.2850  138.6450 C   0  0  0  0  0  2  0  0  0  0  0  0
  181.9560  175.2030  138.4740 C   0  0  0  0  0  2  0  0  0  0  0  0
  186.4640  179.5820  136.0390 C   0  0  0  0  0  1  0  0  0  0  0  0
  181.1410  175.6300  136.4430 C   0  0  2  0  0  3  0  0  0  0  0  0
  185.1000  176.2930  134.7230 C   0  0  0  0  0  2  0  0  0  0  0  0
  184.9780  174.7990  134.9200 C   0  0  0  0  0  2  0  0  0  0  0  0
  186.7510  177.1340  136.4780 C   0  0  1  0  0  3  0  0  0  0  0  0
  182.1260  177.6160  139.7550 S   0  0  0  0  0  0  0  0  0  0  0  0
  183.0940  173.5000  135.8050 C   0  0  0  0  0  0  0  0  0  0  0  0
  184.5570  178.8190  140.0430 C   0  0  2  0  0  3  0  0  0  0  0  0
  185.9680  178.3970  136.8620 C   0  0  1  0  0  3  0  0  0  0  0  0
  180.7620  175.4250  137.7810 O   0  0  0  0  0  0  0  0  0  0  0  0
  186.1470  178.6760  138.2230 O   0  0  0  0  0  0  0  0  0  0  0  0
  180.5650  176.9360  135.8920 C   0  0  1  0  0  3  0  0  0  0  0  0
  180.4520  179.0670  136.9330 C   0  0  1  0  0  3  0  0  0  0  0  0
  179.2440  177.1310  136.3450 O   0  0  0  0  0  0  0  0  0  0  0  0
  179.1070  178.5130  136.5420 C   0  0  0  0  0  2  0  0  0  0  0  0
  181.4230  178.1070  136.3130 C   0  0  0  0  0  2  0  0  0  0  0  0
  180.6360  180.4590  136.3560 C   0  0  0  0  0  3  0  0  0  0  0  0
  181.2630  181.3650  137.3960 C   0  0  0  0  0  2  0  0  0  0  0  0
  179.7740  181.4340  137.1350 C   0  0  0  0  0  2  0  0  0  0  0  0
  186.4610  175.9680  137.4150 C   0  0  0  0  0  2  0  0  0  0  0  0
  187.6540  175.3690  137.8200 O   0  0  0  0  0  0  0  0  0  0  0  0
  188.5010  176.4430  138.1000 C   0  0  0  0  0  2  0  0  0  0  0  0
  189.9550  175.9970  138.0670 C   0  0  2  0  0  3  0  0  0  0  0  0
  191.6980  175.6940  139.6900 O   0  0  0  0  0  0  0  0  0  0  0  0
  189.0130  178.0230  139.8460 O   0  0  0  0  0  1  0  0  0  0  0  0
  190.6530  176.3260  139.3620 C   0  0  0  0  0  0  0  0  0  0  0  0
  190.0890  177.3010  140.2500 N   0  0  0  0  0  0  0  0  0  0  0  0
  189.7860  176.5160  142.5270 C   0  0  0  0  0  2  0  0  0  0  0  0
  189.5690  178.0160  142.5600 C   0  0  2  0  0  3  0  0  0  0  0  0
  190.6010  177.4130  141.6180 C   0  0  2  0  0  3  0  0  0  0  0  0
  190.2760  178.5710  143.7760 C   0  0  0  0  0  2  0  0  0  0  0  0
  189.5700  177.2530  145.6320 O   0  0  0  0  0  1  0  0  0  0  0  0
  191.6660  176.7880  144.8250 O   0  0  0  0  0  0  0  0  0  0  0  0
  190.4770  177.5020  144.7940 C   0  0  0  0  0  0  0  0  0  0  0  0
  192.0970  175.4110  135.6670 C   0  0  0  0  0  2  0  0  0  0  0  0
  192.1770  176.3630  136.8470 C   0  0  0  0  0  2  0  0  0  0  0  0
  190.6660  176.5310  136.8080 C   0  0  0  0  0  3  0  0  0  0  0  0
  190.5860  175.5690  135.6350 C   0  0  0  0  0  2  0  0  0  0  0  0
  185.7380  178.7850  141.0030 C   0  0  0  0  0  2  0  0  0  0  0  0
  185.3640  179.3560  142.3630 C   0  0  0  0  0  2  0  0  0  0  0  0
  186.2110  177.8360  144.1210 C   0  0  0  0  0  1  0  0  0  0  0  0
  184.9930  178.2430  143.3250 C   0  0  0  0  0  2  0  0  0  0  0  0
  1 21  1  0  0  0  0
  2 18  1  0  0  0  0
  3 17  1  0  0  0  0
  3 20  1  0  0  0  0
  5  4  1  0  0  0  0
  5  9  2  0  0  0  0
  6  7  1  1  0  0  0
  6 10  1  0  0  0  0
  6 15  1  0  0  0  0
  9  7  1  0  0  0  0
 10  4  1  6  0  0  0
 12 21  1  0  0  0  0
 13 11  1  0  0  0  0
 15 23  1  1  0  0  0
 16 17  1  0  0  0  0
 16  2  1  0  0  0  0
 18 22  1  0  0  0  0
 18 33  1  1  0  0  0
 19 11  1  0  0  0  0
 19  1  1  0  0  0  0
 20 10  1  0  0  0  0
 20  8  2  0  0  0  0
 21 52  1  1  0  0  0
 22 14  1  6  0  0  0
 22 24  1  0  0  0  0
 23 13  1  0  0  0  0
 24 12  1  0  0  0  0
 25 29  1  1  0  0  0
 25 27  1  0  0  0  0
 25 15  1  0  0  0  0
 26 30  1  6  0  0  0
 27 28  1  0  0  0  0
 28 26  1  0  0  0  0
 29 26  1  0  0  0  0
 30 32  1  0  0  0  0
 30 31  1  0  0  0  0
 32 31  1  0  0  0  0
 33 34  1  0  0  0  0
 34 35  1  0  0  0  0
 36 35  1  1  0  0  0
 36 39  1  0  0  0  0
 38 40  1  0  0  0  0
 39 37  2  0  0  0  0
 39 40  1  0  0  0  0
 41 42  1  0  0  0  0
 42 44  1  1  0  0  0
 43 40  1  6  0  0  0
 43 41  1  0  0  0  0
 43 42  1  0  0  0  0
 44 47  1  0  0  0  0
 47 46  2  0  0  0  0
 47 45  1  0  0  0  0
 48 49  1  0  0  0  0
 50 49  1  0  0  0  0
 50 36  1  0  0  0  0
 51 48  1  0  0  0  0
 51 50  1  0  0  0  0
 52 53  1  0  0  0  0
 53 55  1  0  0  0  0
 55 54  1  0  0  0  0
M  END
>  <MODEL>
4

>  <REMARK>
 VINA RESULT:      -3.8      1.380      1.964
  Name = 
  14 active torsions:
  status: ('A' for Active; 'I' for Inactive)
    1  A    between atoms: C_6  and  C_14
    2  A    between atoms: C_6  and  C_38
    3  A    between atoms: O_8  and  C_20
    4  A    between atoms: O_8  and  C_22
    5  A    between atoms: C_10  and  C_32
    6  A    between atoms: C_12  and  C_20
    7  A    between atoms: C_12  and  C_42
    8  A    between atoms: C_12  and  C_46
    9  A    between atoms: C_13  and  C_36
   10  A    between atoms: C_21  and  N_53
   11  A    between atoms: C_22  and  C_43
   12  A    between atoms: C_27  and  C_49
   13  A    between atoms: C_27  and  C_55
   14  A    between atoms: C_41  and  C_55
                            x       y       z     vdW  Elec       q    Type
                         _______ _______ _______ _____ _____    ______ ____

>  <TORSDO>
F 14

$$$$
