=
 OpenBabel10262422543D

 37 41  0  0  1  0  0  0  0  0999 V2000
  192.3450  177.2590  140.1140 C   0  0  0  0  0  3  0  0  0  0  0  0
  187.3980  177.4240  140.3640 C   0  0  2  0  0  3  0  0  0  0  0  0
  185.5520  179.5320  144.2590 S   0  0  0  0  0  0  0  0  0  0  0  0
  189.8370  176.9130  139.5320 C   0  0  0  0  0  0  0  0  0  0  0  0
  186.8090  177.8880  141.6430 N   0  0  2  0  0  0  0  0  0  0  0  0
  188.8640  177.2950  140.5900 C   0  0  0  0  0  0  0  0  0  0  0  0
  186.4360  179.3040  141.6220 C   0  0  0  0  0  2  0  0  0  0  0  0
  189.3830  176.3410  138.2280 C   0  0  0  0  0  2  0  0  0  0  0  0
  189.1240  177.4760  141.8820 C   0  0  0  0  0  0  0  0  0  0  0  0
  191.4230  178.4320  142.1930 C   0  0  0  0  0  2  0  0  0  0  0  0
  187.1780  177.4810  137.8500 C   0  0  0  0  0  2  0  0  0  0  0  0
  188.6300  177.3740  137.4040 C   0  0  0  0  0  2  0  0  0  0  0  0
  190.4550  177.3130  142.5690 C   0  0  0  0  0  2  0  0  0  0  0  0
  185.4430  177.7160  144.4910 C   0  0  0  0  0  2  0  0  0  0  0  0
  187.0490  178.2810  139.1370 C   0  0  0  0  0  2  0  0  0  0  0  0
  187.8780  177.7600  142.6360 C   0  0  2  0  0  3  0  0  0  0  0  0
  191.1120  177.0580  139.7460 C   0  0  0  0  0  0  0  0  0  0  0  0
  185.1910  179.5670  142.4640 C   0  0  1  0  0  3  0  0  0  0  0  0
  192.6520  177.8850  141.4500 C   0  0  0  0  0  2  0  0  0  0  0  0
  186.7900  177.0550  144.8260 C   0  0  1  0  0  3  0  0  0  0  0  0
  187.5470  176.6050  143.5730 C   0  0  0  0  0  2  0  0  0  0  0  0
  187.6630  177.8420  145.8210 C   0  0  1  0  0  3  0  0  0  0  0  0
  187.8360  177.8100  148.3130 C   0  0  0  0  0  1  0  0  0  0  0  0
  186.9150  178.0490  147.1320 C   0  0  0  0  0  2  0  0  0  0  0  0
  188.9680  177.1000  146.0960 C   0  0  0  0  0  2  0  0  0  0  0  0
  190.0560  177.9060  145.7640 O   0  0  0  0  0  0  0  0  0  0  0  0
  191.1640  177.0710  145.8950 C   0  0  0  0  0  2  0  0  0  0  0  0
  192.2180  175.7100  147.6440 C   0  0  0  0  0  2  0  0  0  0  0  0
  191.2330  176.5290  147.2840 C   0  0  0  0  0  3  0  0  0  0  0  0
  184.0020  178.6960  142.0430 C   0  0  0  0  0  2  0  0  0  0  0  0
  183.4230  177.1890  140.0900 C   0  0  0  0  0  2  0  0  0  0  0  0
  183.8340  178.5900  140.5280 C   0  0  1  0  0  3  0  0  0  0  0  0
  182.8620  179.6480  139.9930 C   0  0  0  0  0  2  0  0  0  0  0  0
  181.4810  180.6190  137.7500 Cl  0  0  0  0  0  0  0  0  0  0  0  0
  182.6520  178.2260  137.9470 C   0  0  0  0  0  3  0  0  0  0  0  0
  182.4430  179.4010  138.5630 C   0  0  0  0  0  0  0  0  0  0  0  0
  183.4640  177.1210  138.5680 C   0  0  0  0  0  2  0  0  0  0  0  0
  1 19  1  0  0  0  0
  2 15  1  6  0  0  0
  2  6  1  0  0  0  0
  2  5  1  0  0  0  0
  3 14  1  0  0  0  0
  4 17  2  0  0  0  0
  4  6  1  0  0  0  0
  5  7  1  6  0  0  0
  5 16  1  0  0  0  0
  6  9  2  0  0  0  0
  7 18  1  0  0  0  0
  8  4  1  0  0  0  0
  9 13  1  0  0  0  0
  9 16  1  0  0  0  0
 10 13  1  0  0  0  0
 11 15  1  0  0  0  0
 12 11  1  0  0  0  0
 12  8  1  0  0  0  0
 14 20  1  0  0  0  0
 16 21  1  1  0  0  0
 17  1  2  0  0  0  0
 18 30  1  1  0  0  0
 18  3  1  0  0  0  0
 19 10  1  0  0  0  0
 20 22  1  6  0  0  0
 21 20  1  0  0  0  0
 22 25  1  1  0  0  0
 22 24  1  0  0  0  0
 24 23  1  0  0  0  0
 26 27  1  0  0  0  0
 26 25  1  0  0  0  0
 27 29  1  0  0  0  0
 29 28  2  0  0  0  0
 31 32  1  0  0  0  0
 32 30  1  1  0  0  0
 33 32  1  0  0  0  0
 34 36  1  0  0  0  0
 35 36  2  0  0  0  0
 35 37  1  0  0  0  0
 36 33  1  0  0  0  0
 37 31  1  0  0  0  0
M  END
>  <MODEL>
1

>  <REMARK>
 VINA RESULT:      -6.7      0.000      0.000
  Name = 
  8 active torsions:
  status: ('A' for Active; 'I' for Inactive)
    1  A    between atoms: O_1  and  C_5
    2  A    between atoms: O_1  and  C_17
    3  A    between atoms: C_5  and  C_23
    4  A    between atoms: C_6  and  C_37
    5  A    between atoms: C_17  and  C_26
    6  A    between atoms: C_26  and  C_33
    7  A    between atoms: C_26  and  C_34
    8  A    between atoms: C_31  and  C_37
                            x       y       z     vdW  Elec       q    Type
                         _______ _______ _______ _____ _____    ______ ____

>  <TORSDO>
F 8

$$$$
=
 OpenBabel10262422543D

 37 41  0  0  1  0  0  0  0  0999 V2000
  192.1550  175.6280  147.2540 C   0  0  0  0  0  3  0  0  0  0  0  0
  188.2200  178.2430  145.7580 C   0  0  2  0  0  3  0  0  0  0  0  0
  186.7260  177.4280  141.2710 S   0  0  0  0  0  0  0  0  0  0  0  0
  190.1910  177.3280  147.2350 C   0  0  0  0  0  0  0  0  0  0  0  0
  187.8660  178.1550  144.3200 N   0  0  2  0  0  0  0  0  0  0  0  0
  189.5140  177.5270  145.9250 C   0  0  0  0  0  0  0  0  0  0  0  0
  186.8000  177.1890  144.0510 C   0  0  0  0  0  2  0  0  0  0  0  0
  189.7700  178.0880  148.4510 C   0  0  0  0  0  2  0  0  0  0  0  0
  189.9910  177.2000  144.7260 C   0  0  0  0  0  0  0  0  0  0  0  0
  191.3820  175.1170  144.8680 C   0  0  0  0  0  2  0  0  0  0  0  0
  187.3000  178.3810  148.1050 C   0  0  0  0  0  2  0  0  0  0  0  0
  188.3800  177.6710  148.9080 C   0  0  0  0  0  2  0  0  0  0  0  0
  191.3270  176.5760  144.4220 C   0  0  0  0  0  2  0  0  0  0  0  0
  187.6880  178.9890  141.2750 C   0  0  0  0  0  2  0  0  0  0  0  0
  187.1310  177.7570  146.7280 C   0  0  0  0  0  2  0  0  0  0  0  0
  189.0650  177.6410  143.6530 C   0  0  2  0  0  3  0  0  0  0  0  0
  191.1830  176.4910  147.3270 C   0  0  0  0  0  0  0  0  0  0  0  0
  185.9120  177.6440  142.8970 C   0  0  1  0  0  3  0  0  0  0  0  0
  192.4400  174.9050  145.9630 C   0  0  0  0  0  2  0  0  0  0  0  0
  189.2070  178.7780  141.3810 C   0  0  1  0  0  3  0  0  0  0  0  0
  189.6940  178.7610  142.8340 C   0  0  0  0  0  2  0  0  0  0  0  0
  189.7560  177.6150  140.5360 C   0  0  1  0  0  3  0  0  0  0  0  0
  189.1980  176.6930  138.2820 C   0  0  0  0  0  1  0  0  0  0  0  0
  189.6220  177.9300  139.0510 C   0  0  0  0  0  2  0  0  0  0  0  0
  191.2220  177.3530  140.8670 C   0  0  0  0  0  2  0  0  0  0  0  0
  192.0360  177.8180  139.8350 O   0  0  0  0  0  0  0  0  0  0  0  0
  193.0370  176.8550  139.7170 C   0  0  0  0  0  2  0  0  0  0  0  0
  192.6430  175.4270  137.7610 C   0  0  0  0  0  2  0  0  0  0  0  0
  193.2360  176.4980  138.2820 C   0  0  0  0  0  3  0  0  0  0  0  0
  185.3210  179.0400  143.1250 C   0  0  0  0  0  2  0  0  0  0  0  0
  183.6150  178.2800  141.4120 C   0  0  0  0  0  2  0  0  0  0  0  0
  183.8910  179.1850  142.6070 C   0  0  1  0  0  3  0  0  0  0  0  0
  182.8620  178.9620  143.7220 C   0  0  0  0  0  2  0  0  0  0  0  0
  180.1390  178.7310  144.3650 Cl  0  0  0  0  0  0  0  0  0  0  0  0
  181.1820  178.5800  141.9100 C   0  0  0  0  0  3  0  0  0  0  0  0
  181.4510  178.8090  143.2060 C   0  0  0  0  0  0  0  0  0  0  0  0
  182.2440  178.6230  140.8440 C   0  0  0  0  0  2  0  0  0  0  0  0
  1 17  2  0  0  0  0
  2  6  1  0  0  0  0
  2 15  1  1  0  0  0
  3 14  1  0  0  0  0
  3 18  1  0  0  0  0
  4 17  2  0  0  0  0
  4  8  1  0  0  0  0
  5  7  1  1  0  0  0
  5  2  1  0  0  0  0
  6  4  1  0  0  0  0
  8 12  1  0  0  0  0
  9  6  2  0  0  0  0
 10 19  1  0  0  0  0
 11 12  1  0  0  0  0
 13  9  1  0  0  0  0
 13 10  1  0  0  0  0
 14 20  1  0  0  0  0
 15 11  1  0  0  0  0
 16 21  1  1  0  0  0
 16  5  1  0  0  0  0
 16  9  1  0  0  0  0
 18 30  1  1  0  0  0
 18  7  1  0  0  0  0
 19  1  1  0  0  0  0
 20 22  1  1  0  0  0
 20 21  1  0  0  0  0
 22 24  1  6  0  0  0
 22 25  1  0  0  0  0
 23 24  1  0  0  0  0
 26 25  1  0  0  0  0
 27 26  1  0  0  0  0
 28 29  2  0  0  0  0
 29 27  1  0  0  0  0
 31 32  1  0  0  0  0
 32 30  1  1  0  0  0
 32 33  1  0  0  0  0
 35 36  2  0  0  0  0
 36 33  1  0  0  0  0
 36 34  1  0  0  0  0
 37 31  1  0  0  0  0
 37 35  1  0  0  0  0
M  END
>  <MODEL>
2

>  <REMARK>
 VINA RESULT:      -6.4      2.252      6.179
  Name = 
  8 active torsions:
  status: ('A' for Active; 'I' for Inactive)
    1  A    between atoms: O_1  and  C_5
    2  A    between atoms: O_1  and  C_17
    3  A    between atoms: C_5  and  C_23
    4  A    between atoms: C_6  and  C_37
    5  A    between atoms: C_17  and  C_26
    6  A    between atoms: C_26  and  C_33
    7  A    between atoms: C_26  and  C_34
    8  A    between atoms: C_31  and  C_37
                            x       y       z     vdW  Elec       q    Type
                         _______ _______ _______ _____ _____    ______ ____

>  <TORSDO>
F 8

$$$$
=
 OpenBabel10262422543D

 37 41  0  0  1  0  0  0  0  0999 V2000
  187.5240  177.6670  145.4290 C   0  0  0  0  0  3  0  0  0  0  0  0
  184.0790  178.7980  142.0500 C   0  0  2  0  0  3  0  0  0  0  0  0
  184.5240  176.6480  137.7830 S   0  0  0  0  0  0  0  0  0  0  0  0
  185.4700  178.7660  144.2790 C   0  0  0  0  0  0  0  0  0  0  0  0
  184.3090  178.3040  140.6700 N   0  0  2  0  0  0  0  0  0  0  0  0
  185.3120  178.4880  142.8260 C   0  0  0  0  0  0  0  0  0  0  0  0
  183.5870  177.0640  140.3790 C   0  0  0  0  0  2  0  0  0  0  0  0
  184.5100  179.6460  145.0120 C   0  0  0  0  0  2  0  0  0  0  0  0
  186.2470  178.0330  141.9960 C   0  0  0  0  0  0  0  0  0  0  0  0
  187.7920  176.4570  143.1900 C   0  0  0  0  0  2  0  0  0  0  0  0
  182.3380  179.2190  143.8280 C   0  0  0  0  0  2  0  0  0  0  0  0
  183.1350  179.0040  145.1070 C   0  0  0  0  0  2  0  0  0  0  0  0
  187.6810  177.7160  142.3340 C   0  0  0  0  0  2  0  0  0  0  0  0
  185.1570  178.3620  137.6240 C   0  0  0  0  0  2  0  0  0  0  0  0
  182.7970  178.2810  142.7220 C   0  0  0  0  0  2  0  0  0  0  0  0
  185.7350  177.9730  140.6050 C   0  0  2  0  0  3  0  0  0  0  0  0
  186.4730  178.2500  144.9280 C   0  0  0  0  0  0  0  0  0  0  0  0
  183.1360  177.0090  138.9220 C   0  0  1  0  0  3  0  0  0  0  0  0
  188.3810  176.7690  144.5740 C   0  0  0  0  0  2  0  0  0  0  0  0
  186.5380  178.5720  138.2660 C   0  0  1  0  0  3  0  0  0  0  0  0
  186.4410  179.0030  139.7320 C   0  0  0  0  0  2  0  0  0  0  0  0
  187.5380  177.4260  138.0280 C   0  0  1  0  0  3  0  0  0  0  0  0
  189.0720  177.9500  136.1270 C   0  0  0  0  0  1  0  0  0  0  0  0
  187.7930  177.2470  136.5360 C   0  0  0  0  0  2  0  0  0  0  0  0
  188.8600  177.7100  138.7350 C   0  0  0  0  0  2  0  0  0  0  0  0
  189.1930  176.6470  139.5730 O   0  0  0  0  0  0  0  0  0  0  0  0
  190.5850  176.5850  139.5240 C   0  0  0  0  0  2  0  0  0  0  0  0
  191.2970  177.1230  141.8100 C   0  0  0  0  0  2  0  0  0  0  0  0
  191.1740  177.5040  140.5410 C   0  0  0  0  0  3  0  0  0  0  0  0
  182.2920  178.2240  138.5220 C   0  0  0  0  0  2  0  0  0  0  0  0
  180.6310  177.0020  139.9950 C   0  0  0  0  0  2  0  0  0  0  0  0
  180.9420  178.2870  139.2340 C   0  0  1  0  0  3  0  0  0  0  0  0
  180.8440  179.5120  140.1510 C   0  0  0  0  0  2  0  0  0  0  0  0
  179.3070  180.8710  142.0660 Cl  0  0  0  0  0  0  0  0  0  0  0  0
  178.9640  178.3330  141.3030 C   0  0  0  0  0  3  0  0  0  0  0  0
  179.6600  179.4620  141.0860 C   0  0  0  0  0  0  0  0  0  0  0  0
  179.2000  177.0750  140.5120 C   0  0  0  0  0  2  0  0  0  0  0  0
  2 15  1  1  0  0  0
  2  6  1  0  0  0  0
  3 18  1  0  0  0  0
  4 17  2  0  0  0  0
  4  8  1  0  0  0  0
  5  7  1  1  0  0  0
  5  2  1  0  0  0  0
  6  4  1  0  0  0  0
  8 12  1  0  0  0  0
  9 13  1  0  0  0  0
  9  6  2  0  0  0  0
 10 19  1  0  0  0  0
 11 12  1  0  0  0  0
 13 10  1  0  0  0  0
 14  3  1  0  0  0  0
 14 20  1  0  0  0  0
 15 11  1  0  0  0  0
 16 21  1  6  0  0  0
 16  5  1  0  0  0  0
 16  9  1  0  0  0  0
 17  1  2  0  0  0  0
 18 30  1  6  0  0  0
 18  7  1  0  0  0  0
 19  1  1  0  0  0  0
 20 22  1  1  0  0  0
 20 21  1  0  0  0  0
 22 24  1  6  0  0  0
 22 25  1  0  0  0  0
 23 24  1  0  0  0  0
 25 26  1  0  0  0  0
 27 26  1  0  0  0  0
 27 29  1  0  0  0  0
 29 28  2  0  0  0  0
 31 37  1  0  0  0  0
 32 30  1  1  0  0  0
 32 31  1  0  0  0  0
 32 33  1  0  0  0  0
 33 36  1  0  0  0  0
 36 35  2  0  0  0  0
 36 34  1  0  0  0  0
 37 35  1  0  0  0  0
M  END
>  <MODEL>
3

>  <REMARK>
 VINA RESULT:      -6.1      2.521      6.146
  Name = 
  8 active torsions:
  status: ('A' for Active; 'I' for Inactive)
    1  A    between atoms: O_1  and  C_5
    2  A    between atoms: O_1  and  C_17
    3  A    between atoms: C_5  and  C_23
    4  A    between atoms: C_6  and  C_37
    5  A    between atoms: C_17  and  C_26
    6  A    between atoms: C_26  and  C_33
    7  A    between atoms: C_26  and  C_34
    8  A    between atoms: C_31  and  C_37
                            x       y       z     vdW  Elec       q    Type
                         _______ _______ _______ _____ _____    ______ ____

>  <TORSDO>
F 8

$$$$
=
 OpenBabel10262422543D

 37 41  0  0  1  0  0  0  0  0999 V2000
  179.7680  180.1640  142.7490 C   0  0  0  0  0  3  0  0  0  0  0  0
  184.2040  178.1510  141.8300 C   0  0  2  0  0  3  0  0  0  0  0  0
  185.6150  178.1620  137.2430 S   0  0  0  0  0  0  0  0  0  0  0  0
  182.0450  178.9590  143.0910 C   0  0  0  0  0  0  0  0  0  0  0  0
  184.5700  177.9640  140.4050 N   0  0  2  0  0  0  0  0  0  0  0  0
  182.7840  178.5990  141.8510 C   0  0  0  0  0  0  0  0  0  0  0  0
  185.4170  179.0390  139.8860 C   0  0  0  0  0  2  0  0  0  0  0  0
  182.5820  178.6200  144.4430 C   0  0  0  0  0  2  0  0  0  0  0  0
  182.2830  178.5210  140.6210 C   0  0  0  0  0  0  0  0  0  0  0  0
  180.4820  180.2380  140.2930 C   0  0  0  0  0  2  0  0  0  0  0  0
  185.0670  178.7770  144.1180 C   0  0  0  0  0  2  0  0  0  0  0  0
  183.8400  179.4160  144.7530 C   0  0  0  0  0  2  0  0  0  0  0  0
  180.8540  178.7590  140.2090 C   0  0  0  0  0  2  0  0  0  0  0  0
  185.0020  176.4810  137.6450 C   0  0  0  0  0  2  0  0  0  0  0  0
  185.1390  179.0730  142.6280 C   0  0  0  0  0  2  0  0  0  0  0  0
  183.3090  178.0410  139.6630 C   0  0  2  0  0  3  0  0  0  0  0  0
  180.8980  179.5670  143.0040 C   0  0  0  0  0  0  0  0  0  0  0  0
  186.4130  178.5170  138.8540 C   0  0  1  0  0  3  0  0  0  0  0  0
  179.3740  180.4800  141.3300 C   0  0  0  0  0  2  0  0  0  0  0  0
  183.4700  176.3880  137.7350 C   0  0  1  0  0  3  0  0  0  0  0  0
  182.9510  176.6500  139.1520 C   0  0  0  0  0  2  0  0  0  0  0  0
  182.7130  177.1730  136.6490 C   0  0  1  0  0  3  0  0  0  0  0  0
  182.4740  175.1800  135.1610 C   0  0  0  0  0  1  0  0  0  0  0  0
  183.0120  176.5930  135.2710 C   0  0  0  0  0  2  0  0  0  0  0  0
  181.2090  177.1270  136.9000 C   0  0  0  0  0  2  0  0  0  0  0  0
  180.5790  178.1700  136.2230 O   0  0  0  0  0  0  0  0  0  0  0  0
  181.2510  179.3170  136.6420 C   0  0  0  0  0  2  0  0  0  0  0  0
  180.7910  181.7170  136.8520 C   0  0  0  0  0  2  0  0  0  0  0  0
  180.3380  180.4950  136.5850 C   0  0  0  0  0  3  0  0  0  0  0  0
  187.2760  177.3730  139.3960 C   0  0  0  0  0  2  0  0  0  0  0  0
  188.2330  177.3970  141.7420 C   0  0  0  0  0  2  0  0  0  0  0  0
  188.4150  177.8470  140.2970 C   0  0  1  0  0  3  0  0  0  0  0  0
  189.7820  177.4200  139.7500 C   0  0  0  0  0  2  0  0  0  0  0  0
  192.5510  177.3390  140.2060 Cl  0  0  0  0  0  0  0  0  0  0  0  0
  190.6790  177.8270  142.0490 C   0  0  0  0  0  3  0  0  0  0  0  0
  190.9050  177.6080  140.7430 C   0  0  0  0  0  0  0  0  0  0  0  0
  189.2990  178.0660  142.6010 C   0  0  0  0  0  2  0  0  0  0  0  0
  1 17  2  0  0  0  0
  2  6  1  0  0  0  0
  2 15  1  6  0  0  0
  3 14  1  0  0  0  0
  3 18  1  0  0  0  0
  4  8  1  0  0  0  0
  5  7  1  6  0  0  0
  5  2  1  0  0  0  0
  6  4  1  0  0  0  0
  8 12  1  0  0  0  0
  9  6  2  0  0  0  0
 10 19  1  0  0  0  0
 11 12  1  0  0  0  0
 13 10  1  0  0  0  0
 13  9  1  0  0  0  0
 14 20  1  0  0  0  0
 15 11  1  0  0  0  0
 16 21  1  1  0  0  0
 16  5  1  0  0  0  0
 16  9  1  0  0  0  0
 17  4  2  0  0  0  0
 18 30  1  1  0  0  0
 18  7  1  0  0  0  0
 19  1  1  0  0  0  0
 20 22  1  6  0  0  0
 20 21  1  0  0  0  0
 22 24  1  6  0  0  0
 22 25  1  0  0  0  0
 23 24  1  0  0  0  0
 26 27  1  0  0  0  0
 26 25  1  0  0  0  0
 29 27  1  0  0  0  0
 29 28  2  0  0  0  0
 31 37  1  0  0  0  0
 32 30  1  6  0  0  0
 32 31  1  0  0  0  0
 33 32  1  0  0  0  0
 33 36  1  0  0  0  0
 34 36  1  0  0  0  0
 35 37  1  0  0  0  0
 36 35  2  0  0  0  0
M  END
>  <MODEL>
4

>  <REMARK>
 VINA RESULT:      -6.0      3.942      9.543
  Name = 
  8 active torsions:
  status: ('A' for Active; 'I' for Inactive)
    1  A    between atoms: O_1  and  C_5
    2  A    between atoms: O_1  and  C_17
    3  A    between atoms: C_5  and  C_23
    4  A    between atoms: C_6  and  C_37
    5  A    between atoms: C_17  and  C_26
    6  A    between atoms: C_26  and  C_33
    7  A    between atoms: C_26  and  C_34
    8  A    between atoms: C_31  and  C_37
                            x       y       z     vdW  Elec       q    Type
                         _______ _______ _______ _____ _____    ______ ____

>  <TORSDO>
F 8

$$$$
=
 OpenBabel10262422543D

 37 41  0  0  1  0  0  0  0  0999 V2000
  180.4380  180.5310  139.8110 C   0  0  0  0  0  3  0  0  0  0  0  0
  184.3390  178.2290  141.8240 C   0  0  2  0  0  3  0  0  0  0  0  0
  188.5350  178.8310  139.5750 S   0  0  0  0  0  0  0  0  0  0  0  0
  181.8820  179.0490  141.3820 C   0  0  0  0  0  0  0  0  0  0  0  0
  185.5970  178.2370  141.0390 N   0  0  2  0  0  0  0  0  0  0  0  0
  183.2860  178.8170  140.9500 C   0  0  0  0  0  0  0  0  0  0  0  0
  186.5290  179.2850  141.4620 C   0  0  0  0  0  2  0  0  0  0  0  0
  181.3430  178.4390  142.6350 C   0  0  0  0  0  2  0  0  0  0  0  0
  183.7820  178.9950  139.7280 C   0  0  0  0  0  0  0  0  0  0  0  0
  182.6530  180.9250  138.5910 C   0  0  0  0  0  2  0  0  0  0  0  0
  183.3510  178.3790  144.1410 C   0  0  0  0  0  2  0  0  0  0  0  0
  182.0050  179.0340  143.8680 C   0  0  0  0  0  2  0  0  0  0  0  0
  183.0310  179.4490  138.5030 C   0  0  0  0  0  2  0  0  0  0  0  0
  187.8750  177.1840  139.1140 C   0  0  0  0  0  2  0  0  0  0  0  0
  184.4260  178.9030  143.2020 C   0  0  0  0  0  2  0  0  0  0  0  0
  185.2020  178.5680  139.6680 C   0  0  2  0  0  3  0  0  0  0  0  0
  181.0950  179.7830  140.6500 C   0  0  0  0  0  0  0  0  0  0  0  0
  187.9790  178.8330  141.3200 C   0  0  1  0  0  3  0  0  0  0  0  0
  181.1280  181.1140  138.6050 C   0  0  0  0  0  2  0  0  0  0  0  0
  186.7140  177.2420  138.1090 C   0  0  1  0  0  3  0  0  0  0  0  0
  185.3490  177.3260  138.7970 C   0  0  0  0  0  2  0  0  0  0  0  0
  186.8950  178.2700  136.9770 C   0  0  1  0  0  3  0  0  0  0  0  0
  189.0220  177.8620  135.7310 C   0  0  0  0  0  1  0  0  0  0  0  0
  188.3630  178.6570  136.8430 C   0  0  0  0  0  2  0  0  0  0  0  0
  186.3980  177.7030  135.6510 C   0  0  0  0  0  2  0  0  0  0  0  0
  185.8660  176.4290  135.8440 O   0  0  0  0  0  0  0  0  0  0  0  0
  184.8250  176.3410  134.9210 C   0  0  0  0  0  2  0  0  0  0  0  0
  182.8150  176.5510  136.3130 C   0  0  0  0  0  2  0  0  0  0  0  0
  183.6360  177.0940  135.4180 C   0  0  0  0  0  3  0  0  0  0  0  0
  188.2660  177.5300  142.0740 C   0  0  0  0  0  2  0  0  0  0  0  0
  187.4130  177.1280  144.4260 C   0  0  0  0  0  2  0  0  0  0  0  0
  188.5160  177.7360  143.5670 C   0  0  1  0  0  3  0  0  0  0  0  0
  189.8970  177.2150  143.9840 C   0  0  0  0  0  2  0  0  0  0  0  0
  191.6550  176.7290  146.1180 Cl  0  0  0  0  0  0  0  0  0  0  0  0
  189.0340  177.2030  146.3310 C   0  0  0  0  0  3  0  0  0  0  0  0
  190.0720  177.1300  145.4820 C   0  0  0  0  0  0  0  0  0  0  0  0
  187.6390  177.5390  145.8760 C   0  0  0  0  0  2  0  0  0  0  0  0
  1 17  2  0  0  0  0
  2 15  1  1  0  0  0
  3 18  1  0  0  0  0
  4  8  1  0  0  0  0
  5  7  1  1  0  0  0
  5  2  1  0  0  0  0
  6  4  1  0  0  0  0
  6  2  1  0  0  0  0
  8 12  1  0  0  0  0
  9  6  2  0  0  0  0
 10 19  1  0  0  0  0
 12 11  1  0  0  0  0
 13 10  1  0  0  0  0
 13  9  1  0  0  0  0
 14  3  1  0  0  0  0
 15 11  1  0  0  0  0
 16 21  1  6  0  0  0
 16  9  1  0  0  0  0
 16  5  1  0  0  0  0
 17  4  2  0  0  0  0
 18  7  1  0  0  0  0
 18 30  1  6  0  0  0
 19  1  1  0  0  0  0
 20 22  1  6  0  0  0
 20 21  1  0  0  0  0
 20 14  1  0  0  0  0
 22 25  1  6  0  0  0
 23 24  1  0  0  0  0
 24 22  1  0  0  0  0
 25 26  1  0  0  0  0
 27 29  1  0  0  0  0
 27 26  1  0  0  0  0
 29 28  2  0  0  0  0
 31 37  1  0  0  0  0
 32 30  1  6  0  0  0
 32 33  1  0  0  0  0
 32 31  1  0  0  0  0
 33 36  1  0  0  0  0
 36 34  1  0  0  0  0
 36 35  2  0  0  0  0
 37 35  1  0  0  0  0
M  END
>  <MODEL>
5

>  <REMARK>
 VINA RESULT:      -5.9      3.518      8.945
  Name = 
  8 active torsions:
  status: ('A' for Active; 'I' for Inactive)
    1  A    between atoms: O_1  and  C_5
    2  A    between atoms: O_1  and  C_17
    3  A    between atoms: C_5  and  C_23
    4  A    between atoms: C_6  and  C_37
    5  A    between atoms: C_17  and  C_26
    6  A    between atoms: C_26  and  C_33
    7  A    between atoms: C_26  and  C_34
    8  A    between atoms: C_31  and  C_37
                            x       y       z     vdW  Elec       q    Type
                         _______ _______ _______ _____ _____    ______ ____

>  <TORSDO>
F 8

$$$$
=
 OpenBabel10262422543D

 37 41  0  0  1  0  0  0  0  0999 V2000
  187.5620  176.2730  135.5630 C   0  0  0  0  0  3  0  0  0  0  0  0
  186.4480  178.6600  139.7620 C   0  0  2  0  0  3  0  0  0  0  0  0
  181.9640  178.1050  141.3780 S   0  0  0  0  0  0  0  0  0  0  0  0
  187.7650  177.7940  137.6590 C   0  0  0  0  0  0  0  0  0  0  0  0
  185.0220  178.6650  140.1690 N   0  0  2  0  0  0  0  0  0  0  0  0
  186.5030  178.0450  138.4060 C   0  0  0  0  0  0  0  0  0  0  0  0
  184.7080  177.6370  141.1640 C   0  0  0  0  0  2  0  0  0  0  0  0
  189.0580  178.4080  138.0870 C   0  0  0  0  0  2  0  0  0  0  0  0
  185.2630  177.8640  137.9580 C   0  0  0  0  0  0  0  0  0  0  0  0
  185.1700  175.9030  136.3960 C   0  0  0  0  0  2  0  0  0  0  0  0
  188.8300  178.5180  140.5850 C   0  0  0  0  0  2  0  0  0  0  0  0
  189.5270  177.8370  139.4160 C   0  0  0  0  0  2  0  0  0  0  0  0
  184.8570  177.3840  136.5890 C   0  0  0  0  0  2  0  0  0  0  0  0
  182.0710  179.7360  140.5490 C   0  0  0  0  0  2  0  0  0  0  0  0
  187.4100  178.0010  140.7630 C   0  0  0  0  0  2  0  0  0  0  0  0
  184.2680  178.3130  138.9630 C   0  0  2  0  0  3  0  0  0  0  0  0
  187.7470  177.0400  136.5990 C   0  0  0  0  0  0  0  0  0  0  0  0
  183.6320  178.1110  142.1360 C   0  0  1  0  0  3  0  0  0  0  0  0
  186.2020  175.6890  135.2770 C   0  0  0  0  0  2  0  0  0  0  0  0
  182.1030  179.6480  139.0140 C   0  0  1  0  0  3  0  0  0  0  0  0
  183.5290  179.5490  138.4650 C   0  0  0  0  0  2  0  0  0  0  0  0
  181.1380  178.6120  138.4100 C   0  0  1  0  0  3  0  0  0  0  0  0
  178.9780  177.6260  139.1870 C   0  0  0  0  0  1  0  0  0  0  0  0
  179.7060  178.9100  138.8360 C   0  0  0  0  0  2  0  0  0  0  0  0
  181.2240  178.6210  136.8860 C   0  0  0  0  0  2  0  0  0  0  0  0
  180.2230  179.4330  136.3550 O   0  0  0  0  0  0  0  0  0  0  0  0
  180.8460  180.1200  135.3140 C   0  0  0  0  0  2  0  0  0  0  0  0
  180.7890  182.3400  136.3580 C   0  0  0  0  0  2  0  0  0  0  0  0
  180.4450  181.5580  135.3380 C   0  0  0  0  0  3  0  0  0  0  0  0
  184.0040  179.4270  142.8290 C   0  0  0  0  0  2  0  0  0  0  0  0
  183.9110  178.6200  145.2290 C   0  0  0  0  0  2  0  0  0  0  0  0
  184.7770  179.2290  144.1320 C   0  0  1  0  0  3  0  0  0  0  0  0
  186.0530  178.4080  143.9120 C   0  0  0  0  0  2  0  0  0  0  0  0
  188.2520  177.1520  145.1220 Cl  0  0  0  0  0  0  0  0  0  0  0  0
  186.0410  177.9790  146.3750 C   0  0  0  0  0  3  0  0  0  0  0  0
  186.6910  177.9430  145.1990 C   0  0  0  0  0  0  0  0  0  0  0  0
  184.6960  178.6340  146.5350 C   0  0  0  0  0  2  0  0  0  0  0  0
  1 17  2  0  0  0  0
  2  5  1  0  0  0  0
  2 15  1  1  0  0  0
  3 18  1  0  0  0  0
  4  8  1  0  0  0  0
  4  6  1  0  0  0  0
  5  7  1  1  0  0  0
  6  2  1  0  0  0  0
  7 18  1  0  0  0  0
  8 12  1  0  0  0  0
  9  6  2  0  0  0  0
  9 16  1  0  0  0  0
 10 13  1  0  0  0  0
 11 15  1  0  0  0  0
 12 11  1  0  0  0  0
 13  9  1  0  0  0  0
 14  3  1  0  0  0  0
 16 21  1  6  0  0  0
 16  5  1  0  0  0  0
 17  4  2  0  0  0  0
 18 30  1  6  0  0  0
 19  1  1  0  0  0  0
 19 10  1  0  0  0  0
 20 22  1  1  0  0  0
 20 14  1  0  0  0  0
 21 20  1  0  0  0  0
 22 25  1  6  0  0  0
 22 24  1  0  0  0  0
 24 23  1  0  0  0  0
 26 25  1  0  0  0  0
 27 29  1  0  0  0  0
 27 26  1  0  0  0  0
 29 28  2  0  0  0  0
 31 37  1  0  0  0  0
 32 30  1  6  0  0  0
 32 31  1  0  0  0  0
 33 32  1  0  0  0  0
 33 36  1  0  0  0  0
 34 36  1  0  0  0  0
 35 37  1  0  0  0  0
 36 35  2  0  0  0  0
M  END
>  <MODEL>
6

>  <REMARK>
 VINA RESULT:      -5.6      3.741      8.239
  Name = 
  8 active torsions:
  status: ('A' for Active; 'I' for Inactive)
    1  A    between atoms: O_1  and  C_5
    2  A    between atoms: O_1  and  C_17
    3  A    between atoms: C_5  and  C_23
    4  A    between atoms: C_6  and  C_37
    5  A    between atoms: C_17  and  C_26
    6  A    between atoms: C_26  and  C_33
    7  A    between atoms: C_26  and  C_34
    8  A    between atoms: C_31  and  C_37
                            x       y       z     vdW  Elec       q    Type
                         _______ _______ _______ _____ _____    ______ ____

>  <TORSDO>
F 8

$$$$
=
 OpenBabel10262422543D

 37 41  0  0  1  0  0  0  0  0999 V2000
  188.6800  177.1870  145.3740 C   0  0  0  0  0  3  0  0  0  0  0  0
  184.5550  178.8110  143.1580 C   0  0  2  0  0  3  0  0  0  0  0  0
  183.8080  177.2460  138.6830 S   0  0  0  0  0  0  0  0  0  0  0  0
  186.4580  178.4600  144.9350 C   0  0  0  0  0  0  0  0  0  0  0  0
  184.4060  178.5030  141.7150 N   0  0  2  0  0  0  0  0  0  0  0  0
  185.9270  178.3830  143.5480 C   0  0  0  0  0  0  0  0  0  0  0  0
  183.5750  177.3250  141.4640 C   0  0  0  0  0  2  0  0  0  0  0  0
  185.7580  179.2490  145.9930 C   0  0  0  0  0  2  0  0  0  0  0  0
  186.6000  178.0290  142.4560 C   0  0  0  0  0  0  0  0  0  0  0  0
  188.3170  176.2840  143.0070 C   0  0  0  0  0  2  0  0  0  0  0  0
  183.3390  179.0170  145.3600 C   0  0  0  0  0  2  0  0  0  0  0  0
  184.4210  178.6210  146.3550 C   0  0  0  0  0  2  0  0  0  0  0  0
  188.0550  177.6480  142.3740 C   0  0  0  0  0  2  0  0  0  0  0  0
  184.4630  178.9560  138.5850 C   0  0  0  0  0  2  0  0  0  0  0  0
  183.4600  178.2290  144.0650 C   0  0  0  0  0  2  0  0  0  0  0  0
  185.7520  178.1630  141.2460 C   0  0  2  0  0  3  0  0  0  0  0  0
  187.5660  177.8470  145.2360 C   0  0  0  0  0  0  0  0  0  0  0  0
  182.7700  177.4720  140.1760 C   0  0  1  0  0  3  0  0  0  0  0  0
  189.2500  176.4000  144.2230 C   0  0  0  0  0  2  0  0  0  0  0  0
  185.9700  179.0580  138.8740 C   0  0  1  0  0  3  0  0  0  0  0  0
  186.2650  179.2910  140.3590 C   0  0  0  0  0  2  0  0  0  0  0  0
  186.8210  177.9400  138.2460 C   0  0  1  0  0  3  0  0  0  0  0  0
  186.6110  176.6550  136.1140 C   0  0  0  0  0  1  0  0  0  0  0  0
  186.7800  178.0330  136.7260 C   0  0  0  0  0  2  0  0  0  0  0  0
  188.2690  178.0360  138.7180 C   0  0  0  0  0  2  0  0  0  0  0  0
  188.7950  176.7600  138.9120 O   0  0  0  0  0  0  0  0  0  0  0  0
  190.1770  176.9430  138.8850 C   0  0  0  0  0  2  0  0  0  0  0  0
  191.7730  177.5090  140.6600 C   0  0  0  0  0  2  0  0  0  0  0  0
  190.7440  176.7700  140.2540 C   0  0  0  0  0  3  0  0  0  0  0  0
  181.9130  178.7420  140.1610 C   0  0  0  0  0  2  0  0  0  0  0  0
  180.6840  179.6040  138.1180 C   0  0  0  0  0  2  0  0  0  0  0  0
  180.6660  178.6220  139.2850 C   0  0  1  0  0  3  0  0  0  0  0  0
  180.4550  177.1840  138.7980 C   0  0  0  0  0  2  0  0  0  0  0  0
  178.9310  175.4750  137.1760 Cl  0  0  0  0  0  0  0  0  0  0  0  0
  178.9680  178.1430  137.0320 C   0  0  0  0  0  3  0  0  0  0  0  0
  179.4170  177.0720  137.7070 C   0  0  0  0  0  0  0  0  0  0  0  0
  179.3340  179.5520  137.4150 C   0  0  0  0  0  2  0  0  0  0  0  0
  2  6  1  0  0  0  0
  2 15  1  1  0  0  0
  3 18  1  0  0  0  0
  4 17  2  0  0  0  0
  4  8  1  0  0  0  0
  5  7  1  1  0  0  0
  5  2  1  0  0  0  0
  6  4  1  0  0  0  0
  8 12  1  0  0  0  0
  9  6  2  0  0  0  0
 10 19  1  0  0  0  0
 11 12  1  0  0  0  0
 13  9  1  0  0  0  0
 13 10  1  0  0  0  0
 14  3  1  0  0  0  0
 14 20  1  0  0  0  0
 15 11  1  0  0  0  0
 16 21  1  6  0  0  0
 16  5  1  0  0  0  0
 16  9  1  0  0  0  0
 17  1  2  0  0  0  0
 18 30  1  6  0  0  0
 18  7  1  0  0  0  0
 19  1  1  0  0  0  0
 20 22  1  1  0  0  0
 20 21  1  0  0  0  0
 22 24  1  6  0  0  0
 22 25  1  0  0  0  0
 23 24  1  0  0  0  0
 25 26  1  0  0  0  0
 27 26  1  0  0  0  0
 27 29  1  0  0  0  0
 29 28  2  0  0  0  0
 31 32  1  0  0  0  0
 32 30  1  6  0  0  0
 33 32  1  0  0  0  0
 34 36  1  0  0  0  0
 35 37  1  0  0  0  0
 35 36  2  0  0  0  0
 36 33  1  0  0  0  0
 37 31  1  0  0  0  0
M  END
>  <MODEL>
7

>  <REMARK>
 VINA RESULT:      -5.6      2.527      6.139
  Name = 
  8 active torsions:
  status: ('A' for Active; 'I' for Inactive)
    1  A    between atoms: O_1  and  C_5
    2  A    between atoms: O_1  and  C_17
    3  A    between atoms: C_5  and  C_23
    4  A    between atoms: C_6  and  C_37
    5  A    between atoms: C_17  and  C_26
    6  A    between atoms: C_26  and  C_33
    7  A    between atoms: C_26  and  C_34
    8  A    between atoms: C_31  and  C_37
                            x       y       z     vdW  Elec       q    Type
                         _______ _______ _______ _____ _____    ______ ____

>  <TORSDO>
F 8

$$$$
=
 OpenBabel10262422543D

 37 41  0  0  1  0  0  0  0  0999 V2000
  188.6700  175.5080  135.4400 C   0  0  0  0  0  3  0  0  0  0  0  0
  189.9410  177.5450  139.7760 C   0  0  2  0  0  3  0  0  0  0  0  0
  186.6040  177.4250  143.2220 S   0  0  0  0  0  0  0  0  0  0  0  0
  190.0300  176.7470  137.2740 C   0  0  0  0  0  0  0  0  0  0  0  0
  188.8640  177.6970  140.7830 N   0  0  2  0  0  0  0  0  0  0  0  0
  189.2890  177.0820  138.5190 C   0  0  0  0  0  0  0  0  0  0  0  0
  188.8490  176.6180  141.7730 C   0  0  0  0  0  2  0  0  0  0  0  0
  191.4630  177.1300  137.0950 C   0  0  0  0  0  2  0  0  0  0  0  0
  187.9670  177.1200  138.6730 C   0  0  0  0  0  0  0  0  0  0  0  0
  186.8640  175.3740  137.2480 C   0  0  0  0  0  2  0  0  0  0  0  0
  192.3790  176.9920  139.4280 C   0  0  0  0  0  2  0  0  0  0  0  0
  192.3640  176.3570  138.0450 C   0  0  0  0  0  2  0  0  0  0  0  0
  186.9260  176.8540  137.6190 C   0  0  0  0  0  2  0  0  0  0  0  0
  186.6100  179.1090  142.4960 C   0  0  0  0  0  2  0  0  0  0  0  0
  191.1170  176.6560  140.2080 C   0  0  0  0  0  2  0  0  0  0  0  0
  187.6090  177.5860  140.0360 C   0  0  2  0  0  3  0  0  0  0  0  0
  189.4190  176.1240  136.3080 C   0  0  0  0  0  0  0  0  0  0  0  0
  188.4090  177.1230  143.1440 C   0  0  1  0  0  3  0  0  0  0  0  0
  187.2460  175.1480  135.7770 C   0  0  0  0  0  2  0  0  0  0  0  0
  185.9490  179.1870  141.1110 C   0  0  1  0  0  3  0  0  0  0  0  0
  186.9480  178.9570  139.9730 C   0  0  0  0  0  2  0  0  0  0  0  0
  184.6560  178.3640  140.9680 C   0  0  1  0  0  3  0  0  0  0  0  0
  182.3240  178.8670  141.7120 C   0  0  0  0  0  1  0  0  0  0  0  0
  183.7450  178.5960  142.1680 C   0  0  0  0  0  2  0  0  0  0  0  0
  183.9140  178.7430  139.6900 C   0  0  0  0  0  2  0  0  0  0  0  0
  184.1750  177.8070  138.6900 O   0  0  0  0  0  0  0  0  0  0  0  0
  182.9370  177.5840  138.0880 C   0  0  0  0  0  2  0  0  0  0  0  0
  181.6880  175.9690  139.4490 C   0  0  0  0  0  2  0  0  0  0  0  0
  182.4630  176.2020  138.3930 C   0  0  0  0  0  3  0  0  0  0  0  0
  189.2650  178.2910  143.6430 C   0  0  0  0  0  2  0  0  0  0  0  0
  188.5420  177.8470  146.0310 C   0  0  0  0  0  2  0  0  0  0  0  0
  189.7110  178.1390  145.0960 C   0  0  1  0  0  3  0  0  0  0  0  0
  190.8150  177.0840  145.2400 C   0  0  0  0  0  2  0  0  0  0  0  0
  192.4350  175.6370  147.0180 Cl  0  0  0  0  0  0  0  0  0  0  0  0
  190.2330  177.0020  147.6710 C   0  0  0  0  0  3  0  0  0  0  0  0
  191.0800  176.6930  146.6750 C   0  0  0  0  0  0  0  0  0  0  0  0
  189.0420  177.9000  147.4700 C   0  0  0  0  0  2  0  0  0  0  0  0
  1 19  1  0  0  0  0
  1 17  2  0  0  0  0
  2 15  1  1  0  0  0
  2  5  1  0  0  0  0
  4  6  1  0  0  0  0
  5  7  1  1  0  0  0
  6  9  2  0  0  0  0
  6  2  1  0  0  0  0
  7 18  1  0  0  0  0
  8  4  1  0  0  0  0
  8 12  1  0  0  0  0
  9 16  1  0  0  0  0
 10 13  1  0  0  0  0
 11 15  1  0  0  0  0
 12 11  1  0  0  0  0
 13  9  1  0  0  0  0
 14  3  1  0  0  0  0
 16 21  1  6  0  0  0
 16  5  1  0  0  0  0
 17  4  2  0  0  0  0
 18  3  1  0  0  0  0
 18 30  1  6  0  0  0
 19 10  1  0  0  0  0
 20 22  1  1  0  0  0
 20 14  1  0  0  0  0
 21 20  1  0  0  0  0
 22 25  1  6  0  0  0
 22 24  1  0  0  0  0
 23 24  1  0  0  0  0
 26 25  1  0  0  0  0
 27 29  1  0  0  0  0
 27 26  1  0  0  0  0
 29 28  2  0  0  0  0
 31 37  1  0  0  0  0
 32 30  1  6  0  0  0
 32 33  1  0  0  0  0
 32 31  1  0  0  0  0
 33 36  1  0  0  0  0
 36 34  1  0  0  0  0
 36 35  2  0  0  0  0
 37 35  1  0  0  0  0
M  END
>  <MODEL>
8

>  <REMARK>
 VINA RESULT:      -5.5      3.273      7.455
  Name = 
  8 active torsions:
  status: ('A' for Active; 'I' for Inactive)
    1  A    between atoms: O_1  and  C_5
    2  A    between atoms: O_1  and  C_17
    3  A    between atoms: C_5  and  C_23
    4  A    between atoms: C_6  and  C_37
    5  A    between atoms: C_17  and  C_26
    6  A    between atoms: C_26  and  C_33
    7  A    between atoms: C_26  and  C_34
    8  A    between atoms: C_31  and  C_37
                            x       y       z     vdW  Elec       q    Type
                         _______ _______ _______ _____ _____    ______ ____

>  <TORSDO>
F 8

$$$$
=
 OpenBabel10262422543D

 37 41  0  0  1  0  0  0  0  0999 V2000
  179.7180  179.6220  143.2390 C   0  0  0  0  0  3  0  0  0  0  0  0
  184.0930  178.1270  141.4540 C   0  0  2  0  0  3  0  0  0  0  0  0
  184.2970  177.3860  136.7170 S   0  0  0  0  0  0  0  0  0  0  0  0
  182.1980  178.8590  143.1200 C   0  0  0  0  0  0  0  0  0  0  0  0
  184.1250  177.7020  140.0330 N   0  0  2  0  0  0  0  0  0  0  0  0
  182.6630  178.3590  141.7990 C   0  0  0  0  0  0  0  0  0  0  0  0
  184.5910  178.7570  139.1310 C   0  0  0  0  0  2  0  0  0  0  0  0
  183.1090  178.8900  144.3050 C   0  0  0  0  0  2  0  0  0  0  0  0
  181.8990  177.9540  140.7870 C   0  0  0  0  0  0  0  0  0  0  0  0
  179.7740  179.2850  140.7020 C   0  0  0  0  0  2  0  0  0  0  0  0
  185.3560  179.3340  143.2760 C   0  0  0  0  0  2  0  0  0  0  0  0
  184.2240  179.9070  144.1170 C   0  0  0  0  0  2  0  0  0  0  0  0
  180.3940  177.8920  140.7590 C   0  0  0  0  0  2  0  0  0  0  0  0
  184.1430  175.7550  137.5410 C   0  0  0  0  0  2  0  0  0  0  0  0
  184.9980  179.3210  141.7980 C   0  0  0  0  0  2  0  0  0  0  0  0
  182.7300  177.4390  139.6720 C   0  0  2  0  0  3  0  0  0  0  0  0
  180.9690  179.2620  143.2610 C   0  0  0  0  0  0  0  0  0  0  0  0
  185.3830  178.1810  137.9600 C   0  0  1  0  0  3  0  0  0  0  0  0
  178.9310  179.5750  141.9550 C   0  0  0  0  0  2  0  0  0  0  0  0
  182.7300  175.4610  138.0700 C   0  0  1  0  0  3  0  0  0  0  0  0
  182.5360  175.9360  139.5140 C   0  0  0  0  0  2  0  0  0  0  0  0
  181.5900  175.8850  137.1270 C   0  0  1  0  0  3  0  0  0  0  0  0
  180.6240  175.6220  134.8370 C   0  0  0  0  0  1  0  0  0  0  0  0
  181.7590  175.2260  135.7630 C   0  0  0  0  0  2  0  0  0  0  0  0
  180.2350  175.4960  137.7110 C   0  0  0  0  0  2  0  0  0  0  0  0
  180.2760  174.1850  138.1850 O   0  0  0  0  0  0  0  0  0  0  0  0
  179.0510  173.6370  137.8060 C   0  0  0  0  0  2  0  0  0  0  0  0
  180.4800  171.7710  137.1020 C   0  0  0  0  0  2  0  0  0  0  0  0
  179.2570  172.2810  137.2190 C   0  0  0  0  0  3  0  0  0  0  0  0
  186.5600  177.3130  138.4170 C   0  0  0  0  0  2  0  0  0  0  0  0
  188.2040  178.1750  136.6930 C   0  0  0  0  0  2  0  0  0  0  0  0
  187.5200  176.9480  137.2860 C   0  0  1  0  0  3  0  0  0  0  0  0
  188.5460  175.9000  137.7320 C   0  0  0  0  0  2  0  0  0  0  0  0
  190.8360  174.4370  137.0300 Cl  0  0  0  0  0  0  0  0  0  0  0  0
  189.9230  176.6080  135.7690 C   0  0  0  0  0  3  0  0  0  0  0  0
  189.6820  175.7260  136.7520 C   0  0  0  0  0  0  0  0  0  0  0  0
  188.9900  177.7480  135.4590 C   0  0  0  0  0  2  0  0  0  0  0  0
  1 17  2  0  0  0  0
  2 15  1  6  0  0  0
  2  6  1  0  0  0  0
  3 14  1  0  0  0  0
  3 18  1  0  0  0  0
  4 17  2  0  0  0  0
  4  8  1  0  0  0  0
  5  7  1  6  0  0  0
  5  2  1  0  0  0  0
  6  4  1  0  0  0  0
  9  6  2  0  0  0  0
 10 13  1  0  0  0  0
 10 19  1  0  0  0  0
 11 12  1  0  0  0  0
 12  8  1  0  0  0  0
 13  9  1  0  0  0  0
 14 20  1  0  0  0  0
 15 11  1  0  0  0  0
 16 21  1  1  0  0  0
 16  5  1  0  0  0  0
 16  9  1  0  0  0  0
 18 30  1  1  0  0  0
 18  7  1  0  0  0  0
 19  1  1  0  0  0  0
 20 22  1  6  0  0  0
 20 21  1  0  0  0  0
 22 24  1  6  0  0  0
 22 25  1  0  0  0  0
 23 24  1  0  0  0  0
 25 26  1  0  0  0  0
 27 26  1  0  0  0  0
 28 29  2  0  0  0  0
 29 27  1  0  0  0  0
 31 32  1  0  0  0  0
 32 33  1  0  0  0  0
 32 30  1  1  0  0  0
 35 36  2  0  0  0  0
 36 34  1  0  0  0  0
 36 33  1  0  0  0  0
 37 35  1  0  0  0  0
 37 31  1  0  0  0  0
M  END
>  <MODEL>
9

>  <REMARK>
 VINA RESULT:      -5.5      4.857      9.632
  Name = 
  8 active torsions:
  status: ('A' for Active; 'I' for Inactive)
    1  A    between atoms: O_1  and  C_5
    2  A    between atoms: O_1  and  C_17
    3  A    between atoms: C_5  and  C_23
    4  A    between atoms: C_6  and  C_37
    5  A    between atoms: C_17  and  C_26
    6  A    between atoms: C_26  and  C_33
    7  A    between atoms: C_26  and  C_34
    8  A    between atoms: C_31  and  C_37
                            x       y       z     vdW  Elec       q    Type
                         _______ _______ _______ _____ _____    ______ ____

>  <TORSDO>
F 8

$$$$
