=
 OpenBabel10252415013D

 34 40  0  0  1  0  0  0  0  0999 V2000
  185.0450  178.5630  143.0400 C   0  0  0  0  0  0  0  0  0  0  0  0
  185.4730  178.7770  140.5800 C   0  0  0  0  0  0  0  0  0  0  0  0
  187.3100  178.2670  142.1320 N   0  0  0  0  0  0  0  0  0  0  0  0
  189.5500  177.7170  141.2130 C   0  0  0  0  0  0  0  0  0  0  0  0
  183.2090  178.8890  141.4410 C   0  0  0  0  0  3  0  0  0  0  0  0
  184.0280  178.9500  140.3830 C   0  0  0  0  0  3  0  0  0  0  0  0
  187.6620  178.2360  139.7570 C   0  0  0  0  0  0  0  0  0  0  0  0
  186.0310  178.9600  141.9710 C   0  0  2  0  0  3  0  0  0  0  0  0
  188.5390  177.9820  138.5930 C   0  0  0  0  0  0  0  0  0  0  0  0
  190.4950  177.6400  140.0500 C   0  0  0  0  0  2  0  0  0  0  0  0
  183.7290  178.6110  142.8000 C   0  0  0  0  0  3  0  0  0  0  0  0
  187.8150  177.9560  143.4460 C   0  0  0  0  0  0  0  0  0  0  0  0
  185.5530  178.2220  144.3780 C   0  0  0  0  0  3  0  0  0  0  0  0
  186.2590  178.5060  139.5770 N   0  0  0  0  0  0  0  0  0  0  0  0
  189.9680  177.5030  142.4250 N   0  0  0  0  0  0  0  0  0  0  0  0
  189.1200  177.5970  143.5920 C   0  0  0  0  0  0  0  0  0  0  0  0
  189.7970  177.6800  138.7570 N   0  0  0  0  0  0  0  0  0  0  0  0
  188.1580  178.1020  140.9930 C   0  0  0  0  0  0  0  0  0  0  0  0
  186.8490  177.9550  144.5720 C   0  0  0  0  0  3  0  0  0  0  0  0
  189.7170  177.2800  147.3410 C   0  0  0  0  0  0  0  0  0  0  0  0
  190.9980  176.7240  147.3580 C   0  0  0  0  0  3  0  0  0  0  0  0
  189.7370  177.2740  144.9060 C   0  0  0  0  0  0  0  0  0  0  0  0
  191.6550  176.4510  146.1570 C   0  0  0  0  0  3  0  0  0  0  0  0
  189.0930  177.5590  146.1220 C   0  0  0  0  0  3  0  0  0  0  0  0
  191.0300  176.7300  144.9380 C   0  0  0  0  0  3  0  0  0  0  0  0
  189.0630  177.5570  148.5340 O   0  0  0  0  0  1  0  0  0  0  0  0
  187.9680  177.9810  137.2140 C   0  0  0  0  0  2  0  0  0  0  0  0
  189.2720  177.4310  134.5940 C   0  0  0  0  0  1  0  0  0  0  0  0
  188.0800  176.6470  136.6240 N   0  0  0  0  0  0  0  0  0  0  0  0
  188.0520  176.7170  135.1510 C   0  0  1  0  0  3  0  0  0  0  0  0
  185.5360  176.9670  135.4550 C   0  0  0  0  0  2  0  0  0  0  0  0
  185.7710  175.6740  136.2240 C   0  0  0  0  0  2  0  0  0  0  0  0
  186.9860  175.8130  137.1570 C   0  0  0  0  0  2  0  0  0  0  0  0
  186.7520  177.3190  134.5950 C   0  0  0  0  0  2  0  0  0  0  0  0
  1 13  1  0  0  0  0
  3 12  1  0  0  0  0
  4 15  2  0  0  0  0
  5 11  1  0  0  0  0
  6  2  1  0  0  0  0
  6  5  2  0  0  0  0
  7 18  2  0  0  0  0
  8  2  1  6  0  0  0
  8  3  1  0  0  0  0
  8  1  1  0  0  0  0
  9 17  2  0  0  0  0
  9  7  1  0  0  0  0
 10  4  1  0  0  0  0
 11  1  2  0  0  0  0
 12 16  2  0  0  0  0
 12 19  1  0  0  0  0
 13 19  2  0  0  0  0
 14  7  1  0  0  0  0
 14  2  2  0  0  0  0
 15 16  1  0  0  0  0
 16 22  1  0  0  0  0
 17 10  1  0  0  0  0
 18  4  1  0  0  0  0
 18  3  1  0  0  0  0
 20 21  1  0  0  0  0
 20 26  1  0  0  0  0
 22 25  2  0  0  0  0
 22 24  1  0  0  0  0
 23 21  2  0  0  0  0
 24 20  2  0  0  0  0
 25 23  1  0  0  0  0
 27  9  1  0  0  0  0
 29 33  1  0  0  0  0
 29 27  1  0  0  0  0
 30 28  1  1  0  0  0
 30 29  1  0  0  0  0
 31 32  1  0  0  0  0
 32 33  1  0  0  0  0
 34 30  1  0  0  0  0
 34 31  1  0  0  0  0
M  END
>  <MODEL>
1

>  <REMARK>
 VINA RESULT:     -10.9      0.000      0.000
  Name = 
  3 active torsions:
  status: ('A' for Active; 'I' for Inactive)
    1  A    between atoms: C_3  and  N_13
    2  A    between atoms: C_3  and  C_17
    3  A    between atoms: C_12  and  C_28
                            x       y       z     vdW  Elec       q    Type
                         _______ _______ _______ _____ _____    ______ ____

>  <TORSDO>
F 3

$$$$
=
 OpenBabel10252415013D

 34 40  0  0  1  0  0  0  0  0999 V2000
  184.7160  178.6180  142.7790 C   0  0  0  0  0  0  0  0  0  0  0  0
  185.3290  178.7970  140.3560 C   0  0  0  0  0  0  0  0  0  0  0  0
  187.0460  178.3260  142.0510 N   0  0  0  0  0  0  0  0  0  0  0  0
  189.3520  177.7790  141.3130 C   0  0  0  0  0  0  0  0  0  0  0  0
  183.0050  178.9050  141.0410 C   0  0  0  0  0  3  0  0  0  0  0  0
  183.9010  178.9560  140.0470 C   0  0  0  0  0  3  0  0  0  0  0  0
  187.5770  178.2610  139.7100 C   0  0  0  0  0  0  0  0  0  0  0  0
  185.7780  179.0060  141.7820 C   0  0  2  0  0  3  0  0  0  0  0  0
  188.5410  177.9950  138.6200 C   0  0  0  0  0  0  0  0  0  0  0  0
  190.3840  177.6910  140.2270 C   0  0  0  0  0  2  0  0  0  0  0  0
  183.4220  178.6520  142.4400 C   0  0  0  0  0  3  0  0  0  0  0  0
  187.4510  178.0390  143.4040 C   0  0  0  0  0  0  0  0  0  0  0  0
  185.1230  178.3020  144.1570 C   0  0  0  0  0  3  0  0  0  0  0  0
  186.1900  178.5170  139.4200 N   0  0  0  0  0  0  0  0  0  0  0  0
  189.6790  177.5870  142.5570 N   0  0  0  0  0  0  0  0  0  0  0  0
  188.7440  177.6920  143.6550 C   0  0  0  0  0  0  0  0  0  0  0  0
  189.7860  177.7060  138.8840 N   0  0  0  0  0  0  0  0  0  0  0  0
  187.9790  178.1500  140.9820 C   0  0  0  0  0  0  0  0  0  0  0  0
  186.4020  178.0480  144.4530 C   0  0  0  0  0  3  0  0  0  0  0  0
  191.0330  176.6750  146.5240 C   0  0  0  0  0  0  0  0  0  0  0  0
  190.1530  176.7560  147.6050 C   0  0  0  0  0  3  0  0  0  0  0  0
  189.2610  177.3950  145.0170 C   0  0  0  0  0  0  0  0  0  0  0  0
  188.8270  177.1440  147.3980 C   0  0  0  0  0  3  0  0  0  0  0  0
  190.5870  176.9860  145.2370 C   0  0  0  0  0  3  0  0  0  0  0  0
  188.3830  177.4560  146.1100 C   0  0  0  0  0  3  0  0  0  0  0  0
  192.3490  176.2840  146.7270 O   0  0  0  0  0  1  0  0  0  0  0  0
  188.0770  177.9690  137.2020 C   0  0  0  0  0  2  0  0  0  0  0  0
  189.4130  177.4250  134.5970 C   0  0  0  0  0  1  0  0  0  0  0  0
  188.2520  176.6300  136.6410 N   0  0  0  0  0  0  0  0  0  0  0  0
  188.2250  176.6670  135.1660 C   0  0  1  0  0  3  0  0  0  0  0  0
  185.7000  176.8080  135.4600 C   0  0  0  0  0  2  0  0  0  0  0  0
  185.9910  175.5430  136.2570 C   0  0  0  0  0  2  0  0  0  0  0  0
  187.1960  175.7570  137.1890 C   0  0  0  0  0  2  0  0  0  0  0  0
  186.9010  177.1970  134.5950 C   0  0  0  0  0  2  0  0  0  0  0  0
  1 13  1  0  0  0  0
  3 12  1  0  0  0  0
  4 15  2  0  0  0  0
  5 11  1  0  0  0  0
  6  2  1  0  0  0  0
  6  5  2  0  0  0  0
  7 18  2  0  0  0  0
  8  2  1  6  0  0  0
  8  3  1  0  0  0  0
  8  1  1  0  0  0  0
  9 17  2  0  0  0  0
  9  7  1  0  0  0  0
 10  4  1  0  0  0  0
 11  1  2  0  0  0  0
 12 16  2  0  0  0  0
 12 19  1  0  0  0  0
 13 19  2  0  0  0  0
 14  7  1  0  0  0  0
 14  2  2  0  0  0  0
 15 16  1  0  0  0  0
 16 22  1  0  0  0  0
 17 10  1  0  0  0  0
 18  4  1  0  0  0  0
 18  3  1  0  0  0  0
 20 26  1  0  0  0  0
 20 21  1  0  0  0  0
 22 24  1  0  0  0  0
 22 25  2  0  0  0  0
 23 21  2  0  0  0  0
 24 20  2  0  0  0  0
 25 23  1  0  0  0  0
 27  9  1  0  0  0  0
 29 33  1  0  0  0  0
 29 27  1  0  0  0  0
 30 28  1  1  0  0  0
 30 29  1  0  0  0  0
 31 32  1  0  0  0  0
 32 33  1  0  0  0  0
 34 30  1  0  0  0  0
 34 31  1  0  0  0  0
M  END
>  <MODEL>
2

>  <REMARK>
 VINA RESULT:     -10.7      0.787      1.139
  Name = 
  3 active torsions:
  status: ('A' for Active; 'I' for Inactive)
    1  A    between atoms: C_3  and  N_13
    2  A    between atoms: C_3  and  C_17
    3  A    between atoms: C_12  and  C_28
                            x       y       z     vdW  Elec       q    Type
                         _______ _______ _______ _____ _____    ______ ____

>  <TORSDO>
F 3

$$$$
=
 OpenBabel10252415013D

 34 40  0  0  1  0  0  0  0  0999 V2000
  188.2500  177.8150  138.2020 C   0  0  0  0  0  0  0  0  0  0  0  0
  189.3350  177.5220  140.4410 C   0  0  0  0  0  0  0  0  0  0  0  0
  186.9940  178.2530  140.2690 N   0  0  0  0  0  0  0  0  0  0  0  0
  185.6380  178.4560  142.3380 C   0  0  0  0  0  0  0  0  0  0  0  0
  190.5240  176.9120  138.4170 C   0  0  0  0  0  3  0  0  0  0  0  0
  190.5320  177.0220  139.7520 C   0  0  0  0  0  3  0  0  0  0  0  0
  187.9690  177.7380  142.4020 C   0  0  0  0  0  0  0  0  0  0  0  0
  188.3120  178.2830  139.6330 C   0  0  2  0  0  3  0  0  0  0  0  0
  187.8360  177.5680  143.8660 C   0  0  0  0  0  0  0  0  0  0  0  0
  185.5440  178.4690  143.8360 C   0  0  0  0  0  3  0  0  0  0  0  0
  189.3170  177.2480  137.6260 C   0  0  0  0  0  3  0  0  0  0  0  0
  185.8060  178.5410  139.5070 C   0  0  0  0  0  0  0  0  0  0  0  0
  187.0320  178.0860  137.4220 C   0  0  0  0  0  3  0  0  0  0  0  0
  189.1750  177.3430  141.7210 N   0  0  0  0  0  0  0  0  0  0  0  0
  184.6100  178.7660  141.6050 N   0  0  0  0  0  0  0  0  0  0  0  0
  184.6410  178.8090  140.1600 C   0  0  0  0  0  0  0  0  0  0  0  0
  186.7240  177.8710  144.4760 N   0  0  0  0  0  0  0  0  0  0  0  0
  186.9140  178.1560  141.6930 C   0  0  1  0  0  3  0  0  0  0  0  0
  185.8950  178.4410  138.0290 C   0  0  0  0  0  3  0  0  0  0  0  0
  181.8390  180.7190  138.4270 C   0  0  0  0  0  0  0  0  0  0  0  0
  180.9040  179.7000  138.2360 C   0  0  0  0  0  3  0  0  0  0  0  0
  183.3690  179.1330  139.4640 C   0  0  0  0  0  0  0  0  0  0  0  0
  181.1900  178.4020  138.6640 C   0  0  0  0  0  3  0  0  0  0  0  0
  183.0610  180.4380  139.0440 C   0  0  0  0  0  3  0  0  0  0  0  0
  182.4130  178.1220  139.2800 C   0  0  0  0  0  3  0  0  0  0  0  0
  181.5540  182.0110  138.0080 O   0  0  0  0  0  1  0  0  0  0  0  0
  188.9520  176.9640  144.6510 C   0  0  0  0  0  2  0  0  0  0  0  0
  191.5370  178.1850  143.8140 C   0  0  0  0  0  1  0  0  0  0  0  0
  189.6490  178.0000  145.4140 N   0  0  0  0  0  0  0  0  0  0  0  0
  191.1100  177.8910  145.2430 C   0  0  1  0  0  3  0  0  0  0  0  0
  190.9200  176.0020  146.9400 C   0  0  0  0  0  2  0  0  0  0  0  0
  190.2540  177.1280  147.7180 C   0  0  0  0  0  2  0  0  0  0  0  0
  189.2490  177.8800  146.8290 C   0  0  0  0  0  2  0  0  0  0  0  0
  191.6800  176.5500  145.7300 C   0  0  0  0  0  2  0  0  0  0  0  0
  2 14  2  0  0  0  0
  3 18  1  0  0  0  0
  4 10  1  0  0  0  0
  5  6  2  0  0  0  0
  6  2  1  0  0  0  0
  7  9  2  0  0  0  0
  8  1  1  6  0  0  0
  8  3  1  0  0  0  0
  8  2  1  0  0  0  0
  9 17  1  0  0  0  0
  9 27  1  0  0  0  0
 10 17  2  0  0  0  0
 11  1  2  0  0  0  0
 11  5  1  0  0  0  0
 12 16  2  0  0  0  0
 12  3  1  0  0  0  0
 13 19  2  0  0  0  0
 13  1  1  0  0  0  0
 14  7  1  0  0  0  0
 15  4  2  0  0  0  0
 16 15  1  0  0  0  0
 18  4  1  6  0  0  0
 18  7  1  0  0  0  0
 19 12  1  0  0  0  0
 20 24  1  0  0  0  0
 21 20  2  0  0  0  0
 21 23  1  0  0  0  0
 22 16  1  0  0  0  0
 23 25  2  0  0  0  0
 24 22  2  0  0  0  0
 25 22  1  0  0  0  0
 26 20  1  0  0  0  0
 27 29  1  0  0  0  0
 29 33  1  0  0  0  0
 30 28  1  6  0  0  0
 30 29  1  0  0  0  0
 30 34  1  0  0  0  0
 31 32  1  0  0  0  0
 33 32  1  0  0  0  0
 34 31  1  0  0  0  0
M  END
>  <MODEL>
3

>  <REMARK>
 VINA RESULT:      -9.9      2.916      8.504
  Name = 
  3 active torsions:
  status: ('A' for Active; 'I' for Inactive)
    1  A    between atoms: C_3  and  N_13
    2  A    between atoms: C_3  and  C_17
    3  A    between atoms: C_12  and  C_28
                            x       y       z     vdW  Elec       q    Type
                         _______ _______ _______ _____ _____    ______ ____

>  <TORSDO>
F 3

$$$$
=
 OpenBabel10252415013D

 34 40  0  0  1  0  0  0  0  0999 V2000
  185.1700  178.4250  140.5970 C   0  0  0  0  0  0  0  0  0  0  0  0
  186.9660  178.0750  138.8850 C   0  0  0  0  0  0  0  0  0  0  0  0
  187.5010  178.0530  141.2850 N   0  0  0  0  0  0  0  0  0  0  0  0
  189.7940  177.4290  142.0040 C   0  0  0  0  0  0  0  0  0  0  0  0
  184.6460  178.2590  138.2030 C   0  0  0  0  0  3  0  0  0  0  0  0
  185.9280  178.1140  137.8460 C   0  0  0  0  0  3  0  0  0  0  0  0
  189.1630  177.4810  139.6480 C   0  0  0  0  0  0  0  0  0  0  0  0
  186.6260  178.6140  140.2540 C   0  0  2  0  0  3  0  0  0  0  0  0
  190.5240  177.0090  139.3130 C   0  0  0  0  0  0  0  0  0  0  0  0
  191.2260  177.1330  141.6700 C   0  0  0  0  0  3  0  0  0  0  0  0
  184.2500  178.3400  139.6290 C   0  0  0  0  0  3  0  0  0  0  0  0
  187.1160  178.0900  142.6730 C   0  0  0  0  0  0  0  0  0  0  0  0
  184.7710  178.4400  142.0130 C   0  0  0  0  0  3  0  0  0  0  0  0
  188.1580  177.6200  138.6250 N   0  0  0  0  0  0  0  0  0  0  0  0
  189.4070  177.5320  143.2410 N   0  0  0  0  0  0  0  0  0  0  0  0
  188.0520  177.8510  143.6320 C   0  0  0  0  0  0  0  0  0  0  0  0
  191.4170  176.8270  140.2450 N   0  0  0  0  0  0  0  0  0  0  0  0
  188.8320  177.6710  140.9310 C   0  0  1  0  0  3  0  0  0  0  0  0
  185.6800  178.3010  142.9830 C   0  0  0  0  0  3  0  0  0  0  0  0
  186.2700  178.3370  146.9630 C   0  0  0  0  0  0  0  0  0  0  0  0
  187.2910  178.0140  147.8590 C   0  0  0  0  0  3  0  0  0  0  0  0
  187.7570  177.8840  145.0890 C   0  0  0  0  0  0  0  0  0  0  0  0
  188.5460  177.6350  147.3770 C   0  0  0  0  0  3  0  0  0  0  0  0
  186.5040  178.2790  145.5870 C   0  0  0  0  0  3  0  0  0  0  0  0
  188.7790  177.5760  146.0000 C   0  0  0  0  0  3  0  0  0  0  0  0
  185.0230  178.7190  147.4400 O   0  0  0  0  0  1  0  0  0  0  0  0
  190.8630  176.6500  137.9040 C   0  0  0  0  0  2  0  0  0  0  0  0
  193.5630  175.4110  137.6930 C   0  0  0  0  0  1  0  0  0  0  0  0
  191.0920  175.2090  137.7940 N   0  0  0  0  0  0  0  0  0  0  0  0
  192.3020  174.9250  136.9990 C   0  0  1  0  0  3  0  0  0  0  0  0
  190.7970  175.3910  134.9980 C   0  0  0  0  0  2  0  0  0  0  0  0
  189.9850  174.3090  135.6960 C   0  0  0  0  0  2  0  0  0  0  0  0
  189.8880  174.5940  137.2050 C   0  0  0  0  0  2  0  0  0  0  0  0
  192.2200  175.4530  135.5580 C   0  0  0  0  0  2  0  0  0  0  0  0
  1 13  1  0  0  0  0
  3 12  1  0  0  0  0
  4 15  2  0  0  0  0
  5 11  1  0  0  0  0
  6  5  2  0  0  0  0
  6  2  1  0  0  0  0
  8  2  1  6  0  0  0
  8  1  1  0  0  0  0
  8  3  1  0  0  0  0
  9  7  2  0  0  0  0
  9 17  1  0  0  0  0
 10  4  1  0  0  0  0
 11  1  2  0  0  0  0
 12 19  1  0  0  0  0
 12 16  2  0  0  0  0
 13 19  2  0  0  0  0
 14  2  2  0  0  0  0
 14  7  1  0  0  0  0
 15 16  1  0  0  0  0
 16 22  1  0  0  0  0
 17 10  2  0  0  0  0
 18  7  1  1  0  0  0
 18  3  1  0  0  0  0
 18  4  1  0  0  0  0
 20 26  1  0  0  0  0
 20 21  1  0  0  0  0
 22 24  1  0  0  0  0
 22 25  2  0  0  0  0
 23 21  2  0  0  0  0
 24 20  2  0  0  0  0
 25 23  1  0  0  0  0
 27  9  1  0  0  0  0
 29 27  1  0  0  0  0
 30 28  1  1  0  0  0
 30 29  1  0  0  0  0
 31 34  1  0  0  0  0
 31 32  1  0  0  0  0
 32 33  1  0  0  0  0
 33 29  1  0  0  0  0
 34 30  1  0  0  0  0
M  END
>  <MODEL>
4

>  <REMARK>
 VINA RESULT:      -9.9      2.197      3.166
  Name = 
  3 active torsions:
  status: ('A' for Active; 'I' for Inactive)
    1  A    between atoms: C_3  and  N_13
    2  A    between atoms: C_3  and  C_17
    3  A    between atoms: C_12  and  C_28
                            x       y       z     vdW  Elec       q    Type
                         _______ _______ _______ _____ _____    ______ ____

>  <TORSDO>
F 3

$$$$
=
 OpenBabel10252415013D

 34 40  0  0  1  0  0  0  0  0999 V2000
  183.4670  178.7160  143.8140 C   0  0  0  0  0  0  0  0  0  0  0  0
  183.6760  178.9030  141.3230 C   0  0  0  0  0  0  0  0  0  0  0  0
  185.6630  178.5310  142.7230 N   0  0  0  0  0  0  0  0  0  0  0  0
  187.8460  178.0900  141.6260 C   0  0  0  0  0  0  0  0  0  0  0  0
  181.4890  178.9040  142.3710 C   0  0  0  0  0  3  0  0  0  0  0  0
  182.2110  178.9900  141.2470 C   0  0  0  0  0  3  0  0  0  0  0  0
  185.8160  178.4710  140.3270 C   0  0  0  0  0  0  0  0  0  0  0  0
  184.3360  179.1460  142.6590 C   0  0  2  0  0  3  0  0  0  0  0  0
  186.6060  178.2420  139.0980 C   0  0  0  0  0  0  0  0  0  0  0  0
  188.6940  178.0420  140.3900 C   0  0  0  0  0  2  0  0  0  0  0  0
  182.1350  178.6840  143.6860 C   0  0  0  0  0  3  0  0  0  0  0  0
  186.2920  178.2760  143.9940 C   0  0  0  0  0  0  0  0  0  0  0  0
  184.1040  178.4330  145.1090 C   0  0  0  0  0  3  0  0  0  0  0  0
  184.3890  178.6560  140.2630 N   0  0  0  0  0  0  0  0  0  0  0  0
  188.3760  177.9250  142.8020 N   0  0  0  0  0  0  0  0  0  0  0  0
  187.6240  177.9950  144.0360 C   0  0  0  0  0  0  0  0  0  0  0  0
  187.8890  178.0170  139.1600 N   0  0  0  0  0  0  0  0  0  0  0  0
  186.4200  178.3910  141.5190 C   0  0  0  0  0  0  0  0  0  0  0  0
  185.4250  178.2440  145.1970 C   0  0  0  0  0  3  0  0  0  0  0  0
  190.3960  177.1430  146.5050 C   0  0  0  0  0  0  0  0  0  0  0  0
  189.6910  177.1620  147.7100 C   0  0  0  0  0  3  0  0  0  0  0  0
  188.3660  177.7350  145.2970 C   0  0  0  0  0  0  0  0  0  0  0  0
  188.3260  177.4550  147.7140 C   0  0  0  0  0  3  0  0  0  0  0  0
  189.7360  177.4210  145.3050 C   0  0  0  0  0  3  0  0  0  0  0  0
  187.6660  177.7350  146.5140 C   0  0  0  0  0  3  0  0  0  0  0  0
  191.7520  176.8460  146.4970 O   0  0  0  0  0  1  0  0  0  0  0  0
  185.9230  178.1810  137.7720 C   0  0  0  0  0  2  0  0  0  0  0  0
  187.3980  177.8020  135.2130 C   0  0  0  0  0  1  0  0  0  0  0  0
  186.1520  176.8770  137.1490 N   0  0  0  0  0  0  0  0  0  0  0  0
  186.1980  176.9950  135.6790 C   0  0  1  0  0  3  0  0  0  0  0  0
  183.6590  177.0770  135.8510 C   0  0  0  0  0  2  0  0  0  0  0  0
  183.9350  175.7760  136.5920 C   0  0  0  0  0  2  0  0  0  0  0  0
  185.0870  175.9590  137.5950 C   0  0  0  0  0  2  0  0  0  0  0  0
  184.8940  177.5340  135.0700 C   0  0  0  0  0  2  0  0  0  0  0  0
  1 13  1  0  0  0  0
  3 12  1  0  0  0  0
  4 15  2  0  0  0  0
  5 11  1  0  0  0  0
  6  2  1  0  0  0  0
  6  5  2  0  0  0  0
  7 18  2  0  0  0  0
  8  2  1  6  0  0  0
  8  3  1  0  0  0  0
  8  1  1  0  0  0  0
  9 17  2  0  0  0  0
  9  7  1  0  0  0  0
 10  4  1  0  0  0  0
 11  1  2  0  0  0  0
 12 16  2  0  0  0  0
 12 19  1  0  0  0  0
 13 19  2  0  0  0  0
 14  7  1  0  0  0  0
 14  2  2  0  0  0  0
 15 16  1  0  0  0  0
 16 22  1  0  0  0  0
 17 10  1  0  0  0  0
 18  4  1  0  0  0  0
 18  3  1  0  0  0  0
 20 21  1  0  0  0  0
 21 23  2  0  0  0  0
 22 24  1  0  0  0  0
 22 25  2  0  0  0  0
 24 20  2  0  0  0  0
 25 23  1  0  0  0  0
 26 20  1  0  0  0  0
 27  9  1  0  0  0  0
 29 33  1  0  0  0  0
 29 27  1  0  0  0  0
 30 28  1  1  0  0  0
 30 29  1  0  0  0  0
 31 32  1  0  0  0  0
 32 33  1  0  0  0  0
 34 30  1  0  0  0  0
 34 31  1  0  0  0  0
M  END
>  <MODEL>
5

>  <REMARK>
 VINA RESULT:      -9.7      1.443      2.049
  Name = 
  3 active torsions:
  status: ('A' for Active; 'I' for Inactive)
    1  A    between atoms: C_3  and  N_13
    2  A    between atoms: C_3  and  C_17
    3  A    between atoms: C_12  and  C_28
                            x       y       z     vdW  Elec       q    Type
                         _______ _______ _______ _____ _____    ______ ____

>  <TORSDO>
F 3

$$$$
=
 OpenBabel10252415013D

 34 40  0  0  1  0  0  0  0  0999 V2000
  185.7860  178.1830  145.9280 C   0  0  0  0  0  0  0  0  0  0  0  0
  187.7460  177.8070  144.4130 C   0  0  0  0  0  0  0  0  0  0  0  0
  185.5060  178.2130  143.4860 N   0  0  0  0  0  0  0  0  0  0  0  0
  185.2480  178.4970  141.0330 C   0  0  0  0  0  0  0  0  0  0  0  0
  188.0660  177.9570  146.8120 C   0  0  0  0  0  3  0  0  0  0  0  0
  188.6070  177.7650  145.6030 C   0  0  0  0  0  3  0  0  0  0  0  0
  187.4280  178.0910  142.0510 C   0  0  0  0  0  0  0  0  0  0  0  0
  186.2580  177.6400  144.6040 C   0  0  2  0  0  3  0  0  0  0  0  0
  188.0340  178.2020  140.7070 C   0  0  0  0  0  0  0  0  0  0  0  0
  185.8210  178.4250  139.6480 C   0  0  0  0  0  2  0  0  0  0  0  0
  186.6230  178.2510  146.9710 C   0  0  0  0  0  3  0  0  0  0  0  0
  184.1100  178.5390  143.6330 C   0  0  0  0  0  0  0  0  0  0  0  0
  184.3670  178.5390  146.0800 C   0  0  0  0  0  3  0  0  0  0  0  0
  188.2540  177.9510  143.2230 N   0  0  0  0  0  0  0  0  0  0  0  0
  183.9830  178.7300  141.2180 N   0  0  0  0  0  0  0  0  0  0  0  0
  183.3590  178.7760  142.5220 C   0  0  0  0  0  0  0  0  0  0  0  0
  187.2900  178.3880  139.6520 N   0  0  0  0  0  0  0  0  0  0  0  0
  186.1050  178.2390  142.1880 C   0  0  0  0  0  0  0  0  0  0  0  0
  183.5790  178.6890  145.0100 C   0  0  0  0  0  3  0  0  0  0  0  0
  179.7250  179.0040  143.6410 C   0  0  0  0  0  0  0  0  0  0  0  0
  179.1560  179.6700  142.5540 C   0  0  0  0  0  3  0  0  0  0  0  0
  181.9090  179.1030  142.5690 C   0  0  0  0  0  0  0  0  0  0  0  0
  179.9530  180.0460  141.4710 C   0  0  0  0  0  3  0  0  0  0  0  0
  181.0930  178.7160  143.6450 C   0  0  0  0  0  3  0  0  0  0  0  0
  181.3210  179.7580  141.4760 C   0  0  0  0  0  3  0  0  0  0  0  0
  178.9330  178.6240  144.7160 O   0  0  0  0  0  1  0  0  0  0  0  0
  189.5190  178.1890  140.5540 C   0  0  0  0  0  2  0  0  0  0  0  0
  191.2940  177.1920  142.7270 C   0  0  0  0  0  1  0  0  0  0  0  0
  190.0190  176.8160  140.6310 N   0  0  0  0  0  0  0  0  0  0  0  0
  191.3500  176.7740  141.2670 C   0  0  1  0  0  3  0  0  0  0  0  0
  192.1920  177.5320  138.9860 C   0  0  0  0  0  2  0  0  0  0  0  0
  191.4200  176.2820  138.5850 C   0  0  0  0  0  2  0  0  0  0  0  0
  190.0420  176.2540  139.2670 C   0  0  0  0  0  2  0  0  0  0  0  0
  192.4160  177.5720  140.5000 C   0  0  0  0  0  2  0  0  0  0  0  0
  1 13  1  0  0  0  0
  1 11  2  0  0  0  0
  2  6  1  0  0  0  0
  3 12  1  0  0  0  0
  3  8  1  0  0  0  0
  4 15  2  0  0  0  0
  4 18  1  0  0  0  0
  5 11  1  0  0  0  0
  6  5  2  0  0  0  0
  7 18  2  0  0  0  0
  7 14  1  0  0  0  0
  8  2  1  6  0  0  0
  8  1  1  0  0  0  0
  9  7  1  0  0  0  0
 10 17  1  0  0  0  0
 10  4  1  0  0  0  0
 12 19  1  0  0  0  0
 14  2  2  0  0  0  0
 15 16  1  0  0  0  0
 16 22  1  0  0  0  0
 16 12  2  0  0  0  0
 17  9  2  0  0  0  0
 18  3  1  0  0  0  0
 19 13  2  0  0  0  0
 20 24  1  0  0  0  0
 20 26  1  0  0  0  0
 21 20  2  0  0  0  0
 22 24  2  0  0  0  0
 23 25  2  0  0  0  0
 23 21  1  0  0  0  0
 25 22  1  0  0  0  0
 27 29  1  0  0  0  0
 27  9  1  0  0  0  0
 29 30  1  0  0  0  0
 30 28  1  1  0  0  0
 31 34  1  0  0  0  0
 32 31  1  0  0  0  0
 32 33  1  0  0  0  0
 33 29  1  0  0  0  0
 34 30  1  0  0  0  0
M  END
>  <MODEL>
6

>  <REMARK>
 VINA RESULT:      -9.5      3.106      6.693
  Name = 
  3 active torsions:
  status: ('A' for Active; 'I' for Inactive)
    1  A    between atoms: C_3  and  N_13
    2  A    between atoms: C_3  and  C_17
    3  A    between atoms: C_12  and  C_28
                            x       y       z     vdW  Elec       q    Type
                         _______ _______ _______ _____ _____    ______ ____

>  <TORSDO>
F 3

$$$$
=
 OpenBabel10252415013D

 34 40  0  0  1  0  0  0  0  0999 V2000
  189.5460  177.7310  140.1840 C   0  0  0  0  0  0  0  0  0  0  0  0
  187.2710  178.1900  139.2390 C   0  0  0  0  0  0  0  0  0  0  0  0
  187.5850  177.8890  141.6580 N   0  0  0  0  0  0  0  0  0  0  0  0
  185.6690  178.2930  143.1840 C   0  0  0  0  0  0  0  0  0  0  0  0
  189.2210  178.2180  137.7980 C   0  0  0  0  0  3  0  0  0  0  0  0
  187.8930  178.3350  137.9160 C   0  0  0  0  0  3  0  0  0  0  0  0
  185.4600  178.5650  140.7690 C   0  0  0  0  0  0  0  0  0  0  0  0
  188.0620  177.5070  140.3280 C   0  0  2  0  0  3  0  0  0  0  0  0
  184.0620  179.0000  140.9770 C   0  0  0  0  0  0  0  0  0  0  0  0
  184.2060  178.5490  143.3950 C   0  0  0  0  0  3  0  0  0  0  0  0
  190.0800  177.9840  138.9830 C   0  0  0  0  0  3  0  0  0  0  0  0
  188.4210  177.7030  142.8180 C   0  0  0  0  0  0  0  0  0  0  0  0
  190.4040  177.5650  141.3670 C   0  0  0  0  0  3  0  0  0  0  0  0
  186.0570  178.6080  139.4590 N   0  0  0  0  0  0  0  0  0  0  0  0
  186.4550  178.0610  144.1930 N   0  0  0  0  0  0  0  0  0  0  0  0
  187.8650  177.7700  144.0590 C   0  0  0  0  0  0  0  0  0  0  0  0
  183.5380  179.0170  142.1710 N   0  0  0  0  0  0  0  0  0  0  0  0
  186.2090  178.2370  141.8280 C   0  0  1  0  0  3  0  0  0  0  0  0
  189.8780  177.5340  142.5960 C   0  0  0  0  0  3  0  0  0  0  0  0
  190.7000  177.0460  146.4980 C   0  0  0  0  0  0  0  0  0  0  0  0
  190.0260  177.1280  147.7180 C   0  0  0  0  0  3  0  0  0  0  0  0
  188.6400  177.5760  145.3130 C   0  0  0  0  0  0  0  0  0  0  0  0
  188.6610  177.4220  147.7420 C   0  0  0  0  0  3  0  0  0  0  0  0
  190.0090  177.2620  145.3030 C   0  0  0  0  0  3  0  0  0  0  0  0
  187.9710  177.6390  146.5460 C   0  0  0  0  0  3  0  0  0  0  0  0
  192.0550  176.7480  146.4720 O   0  0  0  0  0  1  0  0  0  0  0  0
  183.2590  179.5100  139.8270 C   0  0  0  0  0  2  0  0  0  0  0  0
  182.8590  177.0080  138.2610 C   0  0  0  0  0  1  0  0  0  0  0  0
  181.9850  178.7930  139.7460 N   0  0  0  0  0  0  0  0  0  0  0  0
  181.8390  178.1200  138.4420 C   0  0  1  0  0  3  0  0  0  0  0  0
  181.2140  180.4370  137.5920 C   0  0  0  0  0  2  0  0  0  0  0  0
  180.2080  180.2880  138.7250 C   0  0  0  0  0  2  0  0  0  0  0  0
  180.8960  179.7570  139.9940 C   0  0  0  0  0  2  0  0  0  0  0  0
  181.8560  179.0900  137.2510 C   0  0  0  0  0  2  0  0  0  0  0  0
  1  8  1  0  0  0  0
  1 13  1  0  0  0  0
  2 14  2  0  0  0  0
  3 18  1  0  0  0  0
  3 12  1  0  0  0  0
  4 10  1  0  0  0  0
  4 15  2  0  0  0  0
  5  6  2  0  0  0  0
  5 11  1  0  0  0  0
  6  2  1  0  0  0  0
  7  9  2  0  0  0  0
  8  2  1  6  0  0  0
  8  3  1  0  0  0  0
  9 17  1  0  0  0  0
 11  1  2  0  0  0  0
 12 16  2  0  0  0  0
 13 19  2  0  0  0  0
 14  7  1  0  0  0  0
 16 15  1  0  0  0  0
 16 22  1  0  0  0  0
 17 10  2  0  0  0  0
 18  7  1  1  0  0  0
 18  4  1  0  0  0  0
 19 12  1  0  0  0  0
 20 21  1  0  0  0  0
 21 23  2  0  0  0  0
 22 25  2  0  0  0  0
 24 22  1  0  0  0  0
 24 20  2  0  0  0  0
 25 23  1  0  0  0  0
 26 20  1  0  0  0  0
 27  9  1  0  0  0  0
 29 27  1  0  0  0  0
 29 33  1  0  0  0  0
 30 28  1  6  0  0  0
 30 29  1  0  0  0  0
 31 32  1  0  0  0  0
 32 33  1  0  0  0  0
 34 31  1  0  0  0  0
 34 30  1  0  0  0  0
M  END
>  <MODEL>
7

>  <REMARK>
 VINA RESULT:      -9.4      2.082      4.907
  Name = 
  3 active torsions:
  status: ('A' for Active; 'I' for Inactive)
    1  A    between atoms: C_3  and  N_13
    2  A    between atoms: C_3  and  C_17
    3  A    between atoms: C_12  and  C_28
                            x       y       z     vdW  Elec       q    Type
                         _______ _______ _______ _____ _____    ______ ____

>  <TORSDO>
F 3

$$$$
=
 OpenBabel10252415013D

 34 40  0  0  1  0  0  0  0  0999 V2000
  182.5410  178.9710  143.1190 C   0  0  0  0  0  0  0  0  0  0  0  0
  184.9900  178.4740  143.3000 C   0  0  0  0  0  0  0  0  0  0  0  0
  183.9040  178.6370  141.1000 N   0  0  0  0  0  0  0  0  0  0  0  0
  185.3050  178.5530  139.0530 C   0  0  0  0  0  0  0  0  0  0  0  0
  183.6950  178.9820  145.2860 C   0  0  0  0  0  3  0  0  0  0  0  0
  184.8770  178.6440  144.7550 C   0  0  0  0  0  3  0  0  0  0  0  0
  186.2870  178.4020  141.2810 C   0  0  0  0  0  0  0  0  0  0  0  0
  183.7230  178.2660  142.5050 C   0  0  2  0  0  3  0  0  0  0  0  0
  187.6220  178.3470  140.6480 C   0  0  0  0  0  0  0  0  0  0  0  0
  186.6300  178.3100  138.3930 C   0  0  0  0  0  2  0  0  0  0  0  0
  182.5090  179.2270  144.4320 C   0  0  0  0  0  3  0  0  0  0  0  0
  182.7640  178.9140  140.2640 C   0  0  0  0  0  0  0  0  0  0  0  0
  181.3810  179.2770  142.2660 C   0  0  0  0  0  3  0  0  0  0  0  0
  186.1530  178.4700  142.7140 N   0  0  0  0  0  0  0  0  0  0  0  0
  184.2350  178.7500  138.3420 N   0  0  0  0  0  0  0  0  0  0  0  0
  182.9210  178.9530  138.9120 C   0  0  0  0  0  0  0  0  0  0  0  0
  187.7460  178.3440  139.3490 N   0  0  0  0  0  0  0  0  0  0  0  0
  185.1980  178.5040  140.5090 C   0  0  0  0  0  0  0  0  0  0  0  0
  181.4790  179.2340  140.9340 C   0  0  0  0  0  3  0  0  0  0  0  0
  180.3040  180.7290  136.7890 C   0  0  0  0  0  0  0  0  0  0  0  0
  179.6260  179.6390  136.2400 C   0  0  0  0  0  3  0  0  0  0  0  0
  181.8050  179.2140  137.9650 C   0  0  0  0  0  0  0  0  0  0  0  0
  180.0250  178.3380  136.5560 C   0  0  0  0  0  3  0  0  0  0  0  0
  181.3820  180.5170  137.6520 C   0  0  0  0  0  3  0  0  0  0  0  0
  181.1050  178.1280  137.4190 C   0  0  0  0  0  3  0  0  0  0  0  0
  179.9060  182.0220  136.4810 O   0  0  0  0  0  1  0  0  0  0  0  0
  188.8510  178.3820  141.4930 C   0  0  0  0  0  2  0  0  0  0  0  0
  188.3550  176.0060  143.2180 C   0  0  0  0  0  1  0  0  0  0  0  0
  189.5820  177.1200  141.3710 N   0  0  0  0  0  0  0  0  0  0  0  0
  189.7050  176.4520  142.6810 C   0  0  1  0  0  3  0  0  0  0  0  0
  191.5790  178.1270  143.0830 C   0  0  0  0  0  2  0  0  0  0  0  0
  192.0560  177.5010  141.7800 C   0  0  0  0  0  2  0  0  0  0  0  0
  190.8990  177.4040  140.7710 C   0  0  0  0  0  2  0  0  0  0  0  0
  190.4700  177.2860  143.7200 C   0  0  0  0  0  2  0  0  0  0  0  0
  1 11  2  0  0  0  0
  2  6  1  0  0  0  0
  3  8  1  0  0  0  0
  4 18  1  0  0  0  0
  6  5  2  0  0  0  0
  7 14  1  0  0  0  0
  8  1  1  1  0  0  0
  8  2  1  0  0  0  0
  9  7  1  0  0  0  0
  9 27  1  0  0  0  0
 10  4  1  0  0  0  0
 10 17  1  0  0  0  0
 11  5  1  0  0  0  0
 12 19  1  0  0  0  0
 12  3  1  0  0  0  0
 13  1  1  0  0  0  0
 14  2  2  0  0  0  0
 15 16  1  0  0  0  0
 15  4  2  0  0  0  0
 16 12  2  0  0  0  0
 17  9  2  0  0  0  0
 18  3  1  0  0  0  0
 18  7  2  0  0  0  0
 19 13  2  0  0  0  0
 20 24  1  0  0  0  0
 21 23  1  0  0  0  0
 21 20  2  0  0  0  0
 22 16  1  0  0  0  0
 23 25  2  0  0  0  0
 24 22  2  0  0  0  0
 25 22  1  0  0  0  0
 26 20  1  0  0  0  0
 29 27  1  0  0  0  0
 29 30  1  0  0  0  0
 30 28  1  1  0  0  0
 30 34  1  0  0  0  0
 31 34  1  0  0  0  0
 32 31  1  0  0  0  0
 33 29  1  0  0  0  0
 33 32  1  0  0  0  0
M  END
>  <MODEL>
8

>  <REMARK>
 VINA RESULT:      -9.3      3.693      8.059
  Name = 
  3 active torsions:
  status: ('A' for Active; 'I' for Inactive)
    1  A    between atoms: C_3  and  N_13
    2  A    between atoms: C_3  and  C_17
    3  A    between atoms: C_12  and  C_28
                            x       y       z     vdW  Elec       q    Type
                         _______ _______ _______ _____ _____    ______ ____

>  <TORSDO>
F 3

$$$$
=
 OpenBabel10252415013D

 34 40  0  0  1  0  0  0  0  0999 V2000
  186.0430  178.1000  146.0300 C   0  0  0  0  0  0  0  0  0  0  0  0
  187.9460  177.7290  144.4420 C   0  0  0  0  0  0  0  0  0  0  0  0
  185.6720  178.1310  143.6000 N   0  0  0  0  0  0  0  0  0  0  0  0
  185.3210  178.4160  141.1590 C   0  0  0  0  0  0  0  0  0  0  0  0
  188.3560  177.8790  146.8280 C   0  0  0  0  0  3  0  0  0  0  0  0
  188.8520  177.6890  145.5990 C   0  0  0  0  0  3  0  0  0  0  0  0
  187.5390  178.0150  142.0940 C   0  0  0  0  0  0  0  0  0  0  0  0
  186.4660  177.5590  144.6880 C   0  0  2  0  0  3  0  0  0  0  0  0
  188.0930  178.1280  140.7280 C   0  0  0  0  0  0  0  0  0  0  0  0
  185.8410  178.3460  139.7530 C   0  0  0  0  0  2  0  0  0  0  0  0
  186.9180  178.1690  147.0410 C   0  0  0  0  0  3  0  0  0  0  0  0
  184.2810  178.4530  143.7990 C   0  0  0  0  0  0  0  0  0  0  0  0
  184.6300  178.4530  146.2350 C   0  0  0  0  0  3  0  0  0  0  0  0
  188.4080  177.8750  143.2330 N   0  0  0  0  0  0  0  0  0  0  0  0
  184.0630  178.6460  141.3910 N   0  0  0  0  0  0  0  0  0  0  0  0
  183.4890  178.6900  142.7180 C   0  0  0  0  0  0  0  0  0  0  0  0
  187.3100  178.3120  139.7010 N   0  0  0  0  0  0  0  0  0  0  0  0
  186.2210  178.1590  142.2810 C   0  0  0  0  0  0  0  0  0  0  0  0
  183.8020  178.6010  145.1960 C   0  0  0  0  0  3  0  0  0  0  0  0
  180.0190  180.0740  141.9740 C   0  0  0  0  0  0  0  0  0  0  0  0
  179.3240  179.6710  143.1160 C   0  0  0  0  0  3  0  0  0  0  0  0
  182.0410  179.0130  142.8190 C   0  0  0  0  0  0  0  0  0  0  0  0
  179.9820  178.9500  144.1140 C   0  0  0  0  0  3  0  0  0  0  0  0
  181.3720  179.7530  141.8300 C   0  0  0  0  0  3  0  0  0  0  0  0
  181.3340  178.6280  143.9690 C   0  0  0  0  0  3  0  0  0  0  0  0
  179.3690  180.7960  140.9830 O   0  0  0  0  0  1  0  0  0  0  0  0
  189.5710  178.1180  140.5190 C   0  0  0  0  0  2  0  0  0  0  0  0
  191.5270  177.2600  142.5940 C   0  0  0  0  0  1  0  0  0  0  0  0
  190.0870  176.7540  140.6380 N   0  0  0  0  0  0  0  0  0  0  0  0
  191.4650  176.7540  141.1630 C   0  0  1  0  0  3  0  0  0  0  0  0
  192.1110  177.3720  138.7790 C   0  0  0  0  0  2  0  0  0  0  0  0
  191.3180  176.0990  138.5190 C   0  0  0  0  0  2  0  0  0  0  0  0
  190.0010  176.1100  139.3130 C   0  0  0  0  0  2  0  0  0  0  0  0
  192.4590  177.5060  140.2630 C   0  0  0  0  0  2  0  0  0  0  0  0
  1 13  1  0  0  0  0
  1 11  2  0  0  0  0
  2  6  1  0  0  0  0
  3 12  1  0  0  0  0
  3  8  1  0  0  0  0
  4 15  2  0  0  0  0
  4 18  1  0  0  0  0
  5 11  1  0  0  0  0
  6  5  2  0  0  0  0
  7 18  2  0  0  0  0
  7 14  1  0  0  0  0
  8  2  1  6  0  0  0
  8  1  1  0  0  0  0
  9  7  1  0  0  0  0
 10  4  1  0  0  0  0
 12 19  1  0  0  0  0
 14  2  2  0  0  0  0
 15 16  1  0  0  0  0
 16 22  1  0  0  0  0
 16 12  2  0  0  0  0
 17 10  1  0  0  0  0
 17  9  2  0  0  0  0
 18  3  1  0  0  0  0
 19 13  2  0  0  0  0
 20 21  1  0  0  0  0
 21 23  2  0  0  0  0
 22 25  2  0  0  0  0
 24 20  2  0  0  0  0
 24 22  1  0  0  0  0
 25 23  1  0  0  0  0
 26 20  1  0  0  0  0
 27 29  1  0  0  0  0
 27  9  1  0  0  0  0
 29 30  1  0  0  0  0
 30 28  1  1  0  0  0
 31 34  1  0  0  0  0
 32 31  1  0  0  0  0
 32 33  1  0  0  0  0
 33 29  1  0  0  0  0
 34 30  1  0  0  0  0
M  END
>  <MODEL>
9

>  <REMARK>
 VINA RESULT:      -9.3      3.300      6.716
  Name = 
  3 active torsions:
  status: ('A' for Active; 'I' for Inactive)
    1  A    between atoms: C_3  and  N_13
    2  A    between atoms: C_3  and  C_17
    3  A    between atoms: C_12  and  C_28
                            x       y       z     vdW  Elec       q    Type
                         _______ _______ _______ _____ _____    ______ ____

>  <TORSDO>
F 3

$$$$
