=
 OpenBabel10262423063D

 37 37  0  0  1  0  0  0  0  0999 V2000
  189.0390  177.4140  140.8710 C   0  0  2  0  0  3  0  0  0  0  0  0
  187.8750  178.1300  140.1800 C   0  0  2  0  0  3  0  0  0  0  0  0
  188.3600  179.1290  139.3340 O   0  0  0  0  0  1  0  0  0  0  0  0
  186.8880  178.7140  141.1860 C   0  0  0  0  0  2  0  0  0  0  0  0
  185.1290  179.7630  139.9420 O   0  0  0  0  0  1  0  0  0  0  0  0
  185.4580  178.6190  140.6710 C   0  0  2  0  0  3  0  0  0  0  0  0
  184.5020  178.4490  141.8100 C   0  0  0  0  0  0  0  0  0  0  0  0
  183.1990  178.3580  141.5510 C   0  0  0  0  0  2  0  0  0  0  0  0
  183.7850  178.7490  144.1630 C   0  0  0  0  0  1  0  0  0  0  0  0
  184.9680  178.6040  143.2260 C   0  0  0  0  0  2  0  0  0  0  0  0
  189.1770  177.8660  142.1900 O   0  0  0  0  0  0  0  0  0  0  0  0
  189.1990  176.4820  143.1800 P   0  0  2  0  0  0  0  0  0  0  0  0
  190.2870  175.3470  142.5550 O   0  0  0  0  0  0  0  0  0  0  0  0
  187.8170  175.8720  143.1720 O   0  0  0  0  0  1  0  0  0  0  0  0
  189.6450  176.8800  144.9130 C   0  0  1  0  0  3  0  0  0  0  0  0
  191.7550  178.3580  144.3810 C   0  0  0  0  0  1  0  0  0  0  0  0
  191.1150  177.1860  145.0550 C   0  0  0  0  0  0  0  0  0  0  0  0
  191.8420  176.4880  145.9240 C   0  0  0  0  0  2  0  0  0  0  0  0
  188.7540  177.9880  145.4580 C   0  0  0  0  0  2  0  0  0  0  0  0
  188.8610  178.0600  146.9710 C   0  0  0  0  0  2  0  0  0  0  0  0
  187.5550  177.6320  147.6160 C   0  0  0  0  0  2  0  0  0  0  0  0
  186.3900  177.8970  146.6820 C   0  0  0  0  0  2  0  0  0  0  0  0
  185.7250  179.2030  147.0660 C   0  0  0  0  0  1  0  0  0  0  0  0
  190.3460  177.6160  140.1100 C   0  0  0  0  0  2  0  0  0  0  0  0
  190.2130  177.1590  138.7960 O   0  0  0  0  0  0  0  0  0  0  0  0
  190.9500  175.1570  137.6080 C   0  0  0  0  0  0  0  0  0  0  0  0
  190.7230  175.9040  138.8090 N   0  0  0  0  0  2  0  0  0  0  0  0
  191.3750  173.9750  137.6950 O   0  0  0  0  0  0  0  0  0  0  0  0
  189.1340  175.5310  135.8150 C   0  0  2  0  0  3  0  0  0  0  0  0
  190.2160  174.6190  135.2780 C   0  0  0  0  0  2  0  0  0  0  0  0
  190.5980  175.7190  136.2540 C   0  0  2  0  0  3  0  0  0  0  0  0
  188.2360  174.7500  136.7890 C   0  0  2  0  0  3  0  0  0  0  0  0
  187.6850  173.4670  136.1730 C   0  0  0  0  0  1  0  0  0  0  0  0
  187.2280  175.5490  137.3780 O   0  0  0  0  0  0  0  0  0  0  0  0
  186.0270  175.3750  136.6700 C   0  0  0  0  0  2  0  0  0  0  0  0
  185.7230  177.5130  137.1150 C   0  0  0  0  0  1  0  0  0  0  0  0
  185.6560  176.5830  136.0780 O   0  0  0  0  0  0  0  0  0  0  0  0
  1 24  1  6  0  0  0
  1 11  1  0  0  0  0
  2  3  1  1  0  0  0
  2  1  1  0  0  0  0
  2  4  1  0  0  0  0
  6  5  1  1  0  0  0
  6  4  1  0  0  0  0
  6  7  1  0  0  0  0
  7 10  1  0  0  0  0
  8  7  2  0  0  0  0
 10  9  1  0  0  0  0
 11 12  1  0  0  0  0
 12 13  2  6  0  0  0
 12 15  1  0  0  0  0
 14 12  1  0  0  0  0
 15 17  1  0  0  0  0
 15 19  1  6  0  0  0
 16 17  1  0  0  0  0
 17 18  2  0  0  0  0
 19 20  1  0  0  0  0
 20 21  1  0  0  0  0
 22 23  1  0  0  0  0
 22 21  1  0  0  0  0
 25 27  1  0  0  0  0
 25 24  1  0  0  0  0
 26 28  2  0  0  0  0
 26 27  1  0  0  0  0
 29 31  1  0  0  0  0
 29 32  1  1  0  0  0
 30 29  1  0  0  0  0
 30 31  1  0  0  0  0
 31 26  1  1  0  0  0
 32 33  1  6  0  0  0
 32 34  1  0  0  0  0
 35 34  1  0  0  0  0
 37 35  1  0  0  0  0
 37 36  1  0  0  0  0
M  END
>  <MODEL>
1

>  <REMARK>
 VINA RESULT:      -6.6      0.000      0.000
  Name = 
  21 active torsions:
  status: ('A' for Active; 'I' for Inactive)
    1  A    between atoms: C_1  and  O_17
    2  A    between atoms: C_1  and  C_26
    3  A    between atoms: C_2  and  C_19
    4  A    between atoms: C_2  and  C_35
    5  A    between atoms: C_3  and  C_32
    6  A    between atoms: P_4  and  O_10
    7  A    between atoms: P_4  and  C_13
    8  A    between atoms: C_5  and  O_17
    9  A    between atoms: C_5  and  O_23
   10  A    between atoms: C_6  and  C_31
   11  A    between atoms: C_6  and  C_35
   12  A    between atoms: C_7  and  C_14
   13  A    between atoms: C_7  and  O_27
   14  A    between atoms: O_10  and  C_14
   15  A    between atoms: C_11  and  C_36
   16  A    between atoms: C_13  and  C_16
   17  A    between atoms: C_13  and  C_20
   18  A    between atoms: C_14  and  C_31
   19  A    between atoms: C_20  and  C_25
   20  A    between atoms: C_25  and  C_32
   21  A    between atoms: O_27  and  N_33
                            x       y       z     vdW  Elec       q    Type
                         _______ _______ _______ _____ _____    ______ ____

>  <TORSDO>
F 21

$$$$
=
 OpenBabel10262423063D

 37 37  0  0  1  0  0  0  0  0999 V2000
  189.0310  177.2920  140.9030 C   0  0  2  0  0  3  0  0  0  0  0  0
  187.9340  178.0840  140.1860 C   0  0  2  0  0  3  0  0  0  0  0  0
  188.5050  179.0310  139.3320 O   0  0  0  0  0  1  0  0  0  0  0  0
  186.9820  178.7580  141.1700 C   0  0  0  0  0  2  0  0  0  0  0  0
  185.2470  179.6900  139.8060 O   0  0  0  0  0  1  0  0  0  0  0  0
  185.5390  178.6540  140.6950 C   0  0  2  0  0  3  0  0  0  0  0  0
  184.6000  178.7040  141.8600 C   0  0  0  0  0  0  0  0  0  0  0  0
  185.0890  178.9600  143.0720 C   0  0  0  0  0  2  0  0  0  0  0  0
  183.0060  177.4420  140.4440 C   0  0  0  0  0  1  0  0  0  0  0  0
  183.1790  178.2560  141.7120 C   0  0  0  0  0  2  0  0  0  0  0  0
  189.2160  177.7800  142.2030 O   0  0  0  0  0  0  0  0  0  0  0  0
  189.1490  176.4350  143.2430 P   0  0  2  0  0  0  0  0  0  0  0  0
  190.2620  175.2640  142.7380 O   0  0  0  0  0  0  0  0  0  0  0  0
  187.7620  175.8400  143.1610 O   0  0  0  0  0  1  0  0  0  0  0  0
  189.4800  176.8920  144.9870 C   0  0  1  0  0  3  0  0  0  0  0  0
  191.4380  178.5670  144.4620 C   0  0  0  0  0  1  0  0  0  0  0  0
  190.8960  177.3720  145.1800 C   0  0  0  0  0  0  0  0  0  0  0  0
  191.6470  176.8150  146.1270 C   0  0  0  0  0  2  0  0  0  0  0  0
  188.4430  177.8890  145.4880 C   0  0  0  0  0  2  0  0  0  0  0  0
  187.7730  177.3710  146.7490 C   0  0  0  0  0  2  0  0  0  0  0  0
  187.1170  178.5110  147.5080 C   0  0  0  0  0  2  0  0  0  0  0  0
  186.0080  179.1320  146.6790 C   0  0  0  0  0  2  0  0  0  0  0  0
  184.7880  178.2360  146.7220 C   0  0  0  0  0  1  0  0  0  0  0  0
  190.3480  177.3440  140.1340 C   0  0  0  0  0  2  0  0  0  0  0  0
  190.4950  176.1940  139.3540 O   0  0  0  0  0  0  0  0  0  0  0  0
  190.3260  175.7090  136.9670 C   0  0  0  0  0  0  0  0  0  0  0  0
  190.3340  176.6150  138.0760 N   0  0  0  0  0  2  0  0  0  0  0  0
  190.2280  176.1730  135.8000 O   0  0  0  0  0  0  0  0  0  0  0  0
  191.9970  173.7490  137.1070 C   0  0  2  0  0  3  0  0  0  0  0  0
  191.0950  173.5790  135.9050 C   0  0  0  0  0  2  0  0  0  0  0  0
  190.5350  174.2290  137.1580 C   0  0  2  0  0  3  0  0  0  0  0  0
  193.0490  174.8330  136.8140 C   0  0  2  0  0  3  0  0  0  0  0  0
  193.5620  174.7740  135.3790 C   0  0  0  0  0  1  0  0  0  0  0  0
  194.0940  174.8640  137.7670 O   0  0  0  0  0  0  0  0  0  0  0  0
  195.3260  174.7020  137.1080 C   0  0  0  0  0  2  0  0  0  0  0  0
  197.1080  173.8410  138.0780 C   0  0  0  0  0  1  0  0  0  0  0  0
  196.3660  175.0170  137.9830 O   0  0  0  0  0  0  0  0  0  0  0  0
  1 24  1  6  0  0  0
  1 11  1  0  0  0  0
  2  3  1  1  0  0  0
  2  1  1  0  0  0  0
  2  4  1  0  0  0  0
  6  5  1  6  0  0  0
  6  4  1  0  0  0  0
  6  7  1  0  0  0  0
  7  8  2  0  0  0  0
  9 10  1  0  0  0  0
 10  7  1  0  0  0  0
 11 12  1  0  0  0  0
 12 13  2  6  0  0  0
 12 15  1  0  0  0  0
 14 12  1  0  0  0  0
 15 17  1  0  0  0  0
 15 19  1  6  0  0  0
 16 17  1  0  0  0  0
 17 18  2  0  0  0  0
 19 20  1  0  0  0  0
 20 21  1  0  0  0  0
 22 23  1  0  0  0  0
 22 21  1  0  0  0  0
 25 24  1  0  0  0  0
 26 27  1  0  0  0  0
 27 25  1  0  0  0  0
 28 26  2  0  0  0  0
 29 32  1  6  0  0  0
 29 31  1  0  0  0  0
 30 29  1  0  0  0  0
 30 31  1  0  0  0  0
 31 26  1  6  0  0  0
 32 33  1  6  0  0  0
 32 34  1  0  0  0  0
 35 34  1  0  0  0  0
 35 37  1  0  0  0  0
 37 36  1  0  0  0  0
M  END
>  <MODEL>
2

>  <REMARK>
 VINA RESULT:      -6.4      1.919      3.773
  Name = 
  21 active torsions:
  status: ('A' for Active; 'I' for Inactive)
    1  A    between atoms: C_1  and  O_17
    2  A    between atoms: C_1  and  C_26
    3  A    between atoms: C_2  and  C_19
    4  A    between atoms: C_2  and  C_35
    5  A    between atoms: C_3  and  C_32
    6  A    between atoms: P_4  and  O_10
    7  A    between atoms: P_4  and  C_13
    8  A    between atoms: C_5  and  O_17
    9  A    between atoms: C_5  and  O_23
   10  A    between atoms: C_6  and  C_31
   11  A    between atoms: C_6  and  C_35
   12  A    between atoms: C_7  and  C_14
   13  A    between atoms: C_7  and  O_27
   14  A    between atoms: O_10  and  C_14
   15  A    between atoms: C_11  and  C_36
   16  A    between atoms: C_13  and  C_16
   17  A    between atoms: C_13  and  C_20
   18  A    between atoms: C_14  and  C_31
   19  A    between atoms: C_20  and  C_25
   20  A    between atoms: C_25  and  C_32
   21  A    between atoms: O_27  and  N_33
                            x       y       z     vdW  Elec       q    Type
                         _______ _______ _______ _____ _____    ______ ____

>  <TORSDO>
F 21

$$$$
=
 OpenBabel10262423063D

 37 37  0  0  1  0  0  0  0  0999 V2000
  187.6380  177.8300  141.3920 C   0  0  2  0  0  3  0  0  0  0  0  0
  186.2400  178.4460  141.5040 C   0  0  2  0  0  3  0  0  0  0  0  0
  186.3130  179.8320  141.3570 O   0  0  0  0  0  1  0  0  0  0  0  0
  185.5620  178.0830  142.8230 C   0  0  0  0  0  2  0  0  0  0  0  0
  184.9250  179.5030  144.6440 O   0  0  0  0  0  1  0  0  0  0  0  0
  184.6610  179.2110  143.3050 C   0  0  2  0  0  3  0  0  0  0  0  0
  183.2210  178.8360  143.1400 C   0  0  0  0  0  0  0  0  0  0  0  0
  182.7230  178.7110  141.9120 C   0  0  0  0  0  2  0  0  0  0  0  0
  180.8640  178.6150  143.8720 C   0  0  0  0  0  1  0  0  0  0  0  0
  182.2980  178.8210  144.3200 C   0  0  0  0  0  2  0  0  0  0  0  0
  188.4410  178.2390  142.4640 O   0  0  0  0  0  0  0  0  0  0  0  0
  189.1050  176.8270  143.1430 P   0  0  2  0  0  0  0  0  0  0  0  0
  190.4610  176.3460  142.2520 O   0  0  0  0  0  0  0  0  0  0  0  0
  188.0690  175.7300  143.0630 O   0  0  0  0  0  1  0  0  0  0  0  0
  189.5690  177.0580  144.9010 C   0  0  1  0  0  3  0  0  0  0  0  0
  191.7360  178.4540  144.3800 C   0  0  0  0  0  1  0  0  0  0  0  0
  191.0460  177.3140  145.0600 C   0  0  0  0  0  0  0  0  0  0  0  0
  191.7370  176.6010  145.9470 C   0  0  0  0  0  2  0  0  0  0  0  0
  188.7080  178.1350  145.5480 C   0  0  0  0  0  2  0  0  0  0  0  0
  187.4390  177.5290  146.1200 C   0  0  0  0  0  2  0  0  0  0  0  0
  187.1390  178.1180  147.4870 C   0  0  0  0  0  2  0  0  0  0  0  0
  188.0180  177.4790  148.5450 C   0  0  0  0  0  2  0  0  0  0  0  0
  189.2570  178.3250  148.7470 C   0  0  0  0  0  1  0  0  0  0  0  0
  188.3030  178.2000  140.0700 C   0  0  0  0  0  2  0  0  0  0  0  0
  187.6910  177.5170  139.0150 O   0  0  0  0  0  0  0  0  0  0  0  0
  187.2780  178.0220  136.6620 C   0  0  0  0  0  0  0  0  0  0  0  0
  187.6950  178.3930  137.9810 N   0  0  0  0  0  2  0  0  0  0  0  0
  187.3580  178.8710  135.7360 O   0  0  0  0  0  0  0  0  0  0  0  0
  187.9780  175.6020  136.1110 C   0  0  2  0  0  3  0  0  0  0  0  0
  187.2500  176.2140  134.9340 C   0  0  0  0  0  2  0  0  0  0  0  0
  186.8420  176.6150  136.3410 C   0  0  2  0  0  3  0  0  0  0  0  0
  189.4070  176.1660  136.1860 C   0  0  2  0  0  3  0  0  0  0  0  0
  190.1990  175.9190  134.9060 C   0  0  0  0  0  1  0  0  0  0  0  0
  190.1050  175.7590  137.3470 O   0  0  0  0  0  0  0  0  0  0  0  0
  190.9610  176.7950  137.7590 C   0  0  0  0  0  2  0  0  0  0  0  0
  193.1130  176.3510  137.5920 C   0  0  0  0  0  1  0  0  0  0  0  0
  192.0340  176.2570  138.4690 O   0  0  0  0  0  0  0  0  0  0  0  0
  1 24  1  6  0  0  0
  1  2  1  0  0  0  0
  1 11  1  0  0  0  0
  2  3  1  1  0  0  0
  2  4  1  0  0  0  0
  4  6  1  0  0  0  0
  6  5  1  1  0  0  0
  7  6  1  0  0  0  0
  7 10  1  0  0  0  0
  8  7  2  0  0  0  0
  9 10  1  0  0  0  0
 11 12  1  0  0  0  0
 12 13  2  6  0  0  0
 12 15  1  0  0  0  0
 14 12  1  0  0  0  0
 15 17  1  0  0  0  0
 15 19  1  6  0  0  0
 16 17  1  0  0  0  0
 17 18  2  0  0  0  0
 19 20  1  0  0  0  0
 20 21  1  0  0  0  0
 21 22  1  0  0  0  0
 22 23  1  0  0  0  0
 25 24  1  0  0  0  0
 26 27  1  0  0  0  0
 27 25  1  0  0  0  0
 28 26  2  0  0  0  0
 29 32  1  6  0  0  0
 29 31  1  0  0  0  0
 30 29  1  0  0  0  0
 30 31  1  0  0  0  0
 31 26  1  6  0  0  0
 32 33  1  6  0  0  0
 32 34  1  0  0  0  0
 34 35  1  0  0  0  0
 35 37  1  0  0  0  0
 36 37  1  0  0  0  0
M  END
>  <MODEL>
3

>  <REMARK>
 VINA RESULT:      -6.3      1.714      3.194
  Name = 
  21 active torsions:
  status: ('A' for Active; 'I' for Inactive)
    1  A    between atoms: C_1  and  O_17
    2  A    between atoms: C_1  and  C_26
    3  A    between atoms: C_2  and  C_19
    4  A    between atoms: C_2  and  C_35
    5  A    between atoms: C_3  and  C_32
    6  A    between atoms: P_4  and  O_10
    7  A    between atoms: P_4  and  C_13
    8  A    between atoms: C_5  and  O_17
    9  A    between atoms: C_5  and  O_23
   10  A    between atoms: C_6  and  C_31
   11  A    between atoms: C_6  and  C_35
   12  A    between atoms: C_7  and  C_14
   13  A    between atoms: C_7  and  O_27
   14  A    between atoms: O_10  and  C_14
   15  A    between atoms: C_11  and  C_36
   16  A    between atoms: C_13  and  C_16
   17  A    between atoms: C_13  and  C_20
   18  A    between atoms: C_14  and  C_31
   19  A    between atoms: C_20  and  C_25
   20  A    between atoms: C_25  and  C_32
   21  A    between atoms: O_27  and  N_33
                            x       y       z     vdW  Elec       q    Type
                         _______ _______ _______ _____ _____    ______ ____

>  <TORSDO>
F 21

$$$$
=
 OpenBabel10262423063D

 37 37  0  0  1  0  0  0  0  0999 V2000
  186.5810  178.0880  142.4920 C   0  0  2  0  0  3  0  0  0  0  0  0
  185.9410  177.8410  143.8610 C   0  0  2  0  0  3  0  0  0  0  0  0
  184.6310  178.3220  143.8740 O   0  0  0  0  0  1  0  0  0  0  0  0
  186.7520  178.4700  144.9900 C   0  0  0  0  0  2  0  0  0  0  0  0
  185.5800  178.4620  147.0800 O   0  0  0  0  0  1  0  0  0  0  0  0
  186.5040  177.7540  146.3100 C   0  0  2  0  0  3  0  0  0  0  0  0
  187.7850  177.5980  147.0700 C   0  0  0  0  0  0  0  0  0  0  0  0
  187.8090  177.9100  148.3640 C   0  0  0  0  0  2  0  0  0  0  0  0
  190.0910  176.7230  147.3010 C   0  0  0  0  0  1  0  0  0  0  0  0
  189.0670  177.3130  146.3500 C   0  0  0  0  0  2  0  0  0  0  0  0
  187.9130  178.4930  142.6400 O   0  0  0  0  0  0  0  0  0  0  0  0
  188.8680  177.3340  141.8400 P   0  0  2  0  0  0  0  0  0  0  0  0
  188.3340  177.1530  140.2450 O   0  0  0  0  0  0  0  0  0  0  0  0
  188.7020  176.0110  142.5510 O   0  0  0  0  0  1  0  0  0  0  0  0
  190.6470  177.7770  141.8520 C   0  0  1  0  0  3  0  0  0  0  0  0
  191.1220  179.1690  144.0320 C   0  0  0  0  0  1  0  0  0  0  0  0
  191.1850  177.8920  143.2550 C   0  0  0  0  0  0  0  0  0  0  0  0
  191.5930  176.7930  143.8860 C   0  0  0  0  0  2  0  0  0  0  0  0
  191.4480  176.8110  140.9870 C   0  0  0  0  0  2  0  0  0  0  0  0
  192.4380  177.5700  140.1210 C   0  0  0  0  0  2  0  0  0  0  0  0
  192.7670  176.7750  138.8710 C   0  0  0  0  0  2  0  0  0  0  0  0
  191.5270  176.0750  138.3450 C   0  0  0  0  0  2  0  0  0  0  0  0
  191.9340  174.8040  137.6290 C   0  0  0  0  0  1  0  0  0  0  0  0
  185.8030  179.1310  141.6960 C   0  0  0  0  0  2  0  0  0  0  0  0
  185.8600  178.8360  140.3310 O   0  0  0  0  0  0  0  0  0  0  0  0
  183.6720  179.1910  139.3080 C   0  0  0  0  0  0  0  0  0  0  0  0
  184.9490  179.6580  139.7560 N   0  0  0  0  0  2  0  0  0  0  0  0
  182.8950  179.9980  138.7320 O   0  0  0  0  0  0  0  0  0  0  0  0
  183.8570  176.8100  138.3340 C   0  0  2  0  0  3  0  0  0  0  0  0
  182.4290  177.3020  138.2400 C   0  0  0  0  0  2  0  0  0  0  0  0
  183.2810  177.7400  139.4190 C   0  0  2  0  0  3  0  0  0  0  0  0
  184.7110  177.4900  137.2510 C   0  0  2  0  0  3  0  0  0  0  0  0
  184.2660  177.1170  135.8400 C   0  0  0  0  0  1  0  0  0  0  0  0
  186.1000  177.3170  137.4490 O   0  0  0  0  0  0  0  0  0  0  0  0
  186.8020  178.1060  136.5210 C   0  0  0  0  0  2  0  0  0  0  0  0
  188.7570  178.8660  137.1980 C   0  0  0  0  0  1  0  0  0  0  0  0
  187.3990  179.1800  137.1800 O   0  0  0  0  0  0  0  0  0  0  0  0
  1 24  1  1  0  0  0
  1 11  1  0  0  0  0
  1  2  1  0  0  0  0
  2  3  1  6  0  0  0
  2  4  1  0  0  0  0
  4  6  1  0  0  0  0
  6  7  1  0  0  0  0
  6  5  1  1  0  0  0
  7  8  2  0  0  0  0
 10  7  1  0  0  0  0
 10  9  1  0  0  0  0
 12 13  2  6  0  0  0
 12 15  1  0  0  0  0
 12 14  1  0  0  0  0
 12 11  1  0  0  0  0
 15 19  1  6  0  0  0
 15 17  1  0  0  0  0
 17 18  2  0  0  0  0
 17 16  1  0  0  0  0
 20 19  1  0  0  0  0
 21 20  1  0  0  0  0
 22 21  1  0  0  0  0
 23 22  1  0  0  0  0
 25 24  1  0  0  0  0
 26 27  1  0  0  0  0
 27 25  1  0  0  0  0
 28 26  2  0  0  0  0
 29 32  1  6  0  0  0
 29 31  1  0  0  0  0
 30 29  1  0  0  0  0
 30 31  1  0  0  0  0
 31 26  1  6  0  0  0
 32 33  1  6  0  0  0
 32 34  1  0  0  0  0
 35 37  1  0  0  0  0
 35 34  1  0  0  0  0
 37 36  1  0  0  0  0
M  END
>  <MODEL>
4

>  <REMARK>
 VINA RESULT:      -6.2      2.426      6.082
  Name = 
  21 active torsions:
  status: ('A' for Active; 'I' for Inactive)
    1  A    between atoms: C_1  and  O_17
    2  A    between atoms: C_1  and  C_26
    3  A    between atoms: C_2  and  C_19
    4  A    between atoms: C_2  and  C_35
    5  A    between atoms: C_3  and  C_32
    6  A    between atoms: P_4  and  O_10
    7  A    between atoms: P_4  and  C_13
    8  A    between atoms: C_5  and  O_17
    9  A    between atoms: C_5  and  O_23
   10  A    between atoms: C_6  and  C_31
   11  A    between atoms: C_6  and  C_35
   12  A    between atoms: C_7  and  C_14
   13  A    between atoms: C_7  and  O_27
   14  A    between atoms: O_10  and  C_14
   15  A    between atoms: C_11  and  C_36
   16  A    between atoms: C_13  and  C_16
   17  A    between atoms: C_13  and  C_20
   18  A    between atoms: C_14  and  C_31
   19  A    between atoms: C_20  and  C_25
   20  A    between atoms: C_25  and  C_32
   21  A    between atoms: O_27  and  N_33
                            x       y       z     vdW  Elec       q    Type
                         _______ _______ _______ _____ _____    ______ ____

>  <TORSDO>
F 21

$$$$
=
 OpenBabel10262423063D

 37 37  0  0  1  0  0  0  0  0999 V2000
  187.2910  178.0700  141.7880 C   0  0  2  0  0  3  0  0  0  0  0  0
  185.8870  178.5000  141.3560 C   0  0  2  0  0  3  0  0  0  0  0  0
  185.9670  179.4450  140.3310 O   0  0  0  0  0  1  0  0  0  0  0  0
  185.0730  179.0480  142.5250 C   0  0  0  0  0  2  0  0  0  0  0  0
  183.0560  178.3490  141.4380 O   0  0  0  0  0  1  0  0  0  0  0  0
  183.7410  178.3230  142.6540 C   0  0  2  0  0  3  0  0  0  0  0  0
  182.9040  178.9540  143.7220 C   0  0  0  0  0  0  0  0  0  0  0  0
  183.3540  178.9600  144.9760 C   0  0  0  0  0  2  0  0  0  0  0  0
  180.5140  178.4180  144.1000 C   0  0  0  0  0  1  0  0  0  0  0  0
  181.4930  179.3700  143.4390 C   0  0  0  0  0  2  0  0  0  0  0  0
  187.5630  178.5220  143.0860 O   0  0  0  0  0  0  0  0  0  0  0  0
  187.8240  177.1370  144.0400 P   0  0  2  0  0  0  0  0  0  0  0  0
  188.0290  175.7850  143.0430 O   0  0  0  0  0  0  0  0  0  0  0  0
  186.6000  176.9150  144.8980 O   0  0  0  0  0  1  0  0  0  0  0  0
  189.2770  177.3210  145.1420 C   0  0  1  0  0  3  0  0  0  0  0  0
  191.3750  176.7930  143.6460 C   0  0  0  0  0  1  0  0  0  0  0  0
  190.5030  177.7610  144.3820 C   0  0  0  0  0  0  0  0  0  0  0  0
  190.7410  179.0610  144.2290 C   0  0  0  0  0  2  0  0  0  0  0  0
  188.9500  178.2340  146.3170 C   0  0  0  0  0  2  0  0  0  0  0  0
  189.5430  177.6810  147.6010 C   0  0  0  0  0  2  0  0  0  0  0  0
  190.2350  176.3560  147.3380 C   0  0  0  0  0  2  0  0  0  0  0  0
  191.7120  176.4530  147.6710 C   0  0  0  0  0  2  0  0  0  0  0  0
  192.4620  175.3490  146.9540 C   0  0  0  0  0  1  0  0  0  0  0  0
  188.3530  178.5880  140.8220 C   0  0  0  0  0  2  0  0  0  0  0  0
  188.3160  177.8580  139.6310 O   0  0  0  0  0  0  0  0  0  0  0  0
  190.1380  176.5320  138.6900 C   0  0  0  0  0  0  0  0  0  0  0  0
  189.2780  176.9140  139.7700 N   0  0  0  0  0  2  0  0  0  0  0  0
  190.9740  175.6090  138.8720 O   0  0  0  0  0  0  0  0  0  0  0  0
  188.9410  176.4820  136.4050 C   0  0  2  0  0  3  0  0  0  0  0  0
  190.4090  176.1620  136.2310 C   0  0  0  0  0  2  0  0  0  0  0  0
  189.9940  177.1390  137.3170 C   0  0  2  0  0  3  0  0  0  0  0  0
  188.2110  175.2620  136.9920 C   0  0  2  0  0  3  0  0  0  0  0  0
  188.3990  174.0080  136.1440 C   0  0  0  0  0  1  0  0  0  0  0  0
  186.8540  175.5190  137.2940 O   0  0  0  0  0  0  0  0  0  0  0  0
  186.4740  176.7420  136.7160 C   0  0  0  0  0  2  0  0  0  0  0  0
  184.6280  177.4520  137.6890 C   0  0  0  0  0  1  0  0  0  0  0  0
  185.0880  176.7740  136.5620 O   0  0  0  0  0  0  0  0  0  0  0  0
  1 24  1  6  0  0  0
  1 11  1  0  0  0  0
  2  3  1  6  0  0  0
  2  1  1  0  0  0  0
  2  4  1  0  0  0  0
  4  6  1  0  0  0  0
  6  5  1  6  0  0  0
  6  7  1  0  0  0  0
  7  8  2  0  0  0  0
 10  7  1  0  0  0  0
 10  9  1  0  0  0  0
 11 12  1  0  0  0  0
 12 13  2  6  0  0  0
 12 14  1  0  0  0  0
 12 15  1  0  0  0  0
 15 19  1  1  0  0  0
 16 17  1  0  0  0  0
 17 15  1  0  0  0  0
 18 17  2  0  0  0  0
 19 20  1  0  0  0  0
 21 20  1  0  0  0  0
 21 22  1  0  0  0  0
 23 22  1  0  0  0  0
 25 27  1  0  0  0  0
 25 24  1  0  0  0  0
 26 28  2  0  0  0  0
 26 27  1  0  0  0  0
 29 32  1  1  0  0  0
 29 31  1  0  0  0  0
 30 29  1  0  0  0  0
 30 31  1  0  0  0  0
 31 26  1  1  0  0  0
 32 33  1  6  0  0  0
 32 34  1  0  0  0  0
 35 34  1  0  0  0  0
 37 35  1  0  0  0  0
 37 36  1  0  0  0  0
M  END
>  <MODEL>
5

>  <REMARK>
 VINA RESULT:      -6.1      1.509      2.604
  Name = 
  21 active torsions:
  status: ('A' for Active; 'I' for Inactive)
    1  A    between atoms: C_1  and  O_17
    2  A    between atoms: C_1  and  C_26
    3  A    between atoms: C_2  and  C_19
    4  A    between atoms: C_2  and  C_35
    5  A    between atoms: C_3  and  C_32
    6  A    between atoms: P_4  and  O_10
    7  A    between atoms: P_4  and  C_13
    8  A    between atoms: C_5  and  O_17
    9  A    between atoms: C_5  and  O_23
   10  A    between atoms: C_6  and  C_31
   11  A    between atoms: C_6  and  C_35
   12  A    between atoms: C_7  and  C_14
   13  A    between atoms: C_7  and  O_27
   14  A    between atoms: O_10  and  C_14
   15  A    between atoms: C_11  and  C_36
   16  A    between atoms: C_13  and  C_16
   17  A    between atoms: C_13  and  C_20
   18  A    between atoms: C_14  and  C_31
   19  A    between atoms: C_20  and  C_25
   20  A    between atoms: C_25  and  C_32
   21  A    between atoms: O_27  and  N_33
                            x       y       z     vdW  Elec       q    Type
                         _______ _______ _______ _____ _____    ______ ____

>  <TORSDO>
F 21

$$$$
=
 OpenBabel10262423063D

 37 37  0  0  1  0  0  0  0  0999 V2000
  186.9360  178.2290  142.1350 C   0  0  2  0  0  3  0  0  0  0  0  0
  185.5770  178.5600  141.5120 C   0  0  2  0  0  3  0  0  0  0  0  0
  185.7340  179.4790  140.4730 O   0  0  0  0  0  1  0  0  0  0  0  0
  184.5880  179.0890  142.5480 C   0  0  0  0  0  2  0  0  0  0  0  0
  182.6900  178.9660  141.0910 O   0  0  0  0  0  1  0  0  0  0  0  0
  183.1940  178.5230  142.3160 C   0  0  2  0  0  3  0  0  0  0  0  0
  182.2730  178.9310  143.4230 C   0  0  0  0  0  0  0  0  0  0  0  0
  182.7480  178.9980  144.6650 C   0  0  0  0  0  2  0  0  0  0  0  0
  180.0250  178.4680  144.3540 C   0  0  0  0  0  1  0  0  0  0  0  0
  180.7990  179.0440  143.1840 C   0  0  0  0  0  2  0  0  0  0  0  0
  186.9960  178.6980  143.4540 O   0  0  0  0  0  0  0  0  0  0  0  0
  187.3700  177.3570  144.4320 P   0  0  2  0  0  0  0  0  0  0  0  0
  188.1870  176.1910  143.5180 O   0  0  0  0  0  0  0  0  0  0  0  0
  186.0750  176.7550  144.9250 O   0  0  0  0  0  1  0  0  0  0  0  0
  188.3820  177.8240  145.8880 C   0  0  1  0  0  3  0  0  0  0  0  0
  187.9780  177.5640  148.4730 C   0  0  0  0  0  1  0  0  0  0  0  0
  187.5330  178.0180  147.1190 C   0  0  0  0  0  0  0  0  0  0  0  0
  186.4220  178.7460  147.0350 C   0  0  0  0  0  2  0  0  0  0  0  0
  189.5140  176.8280  146.0990 C   0  0  0  0  0  2  0  0  0  0  0  0
  190.8530  177.4660  145.7720 C   0  0  0  0  0  2  0  0  0  0  0  0
  191.4540  176.8300  144.5320 C   0  0  0  0  0  2  0  0  0  0  0  0
  191.5640  177.8490  143.4120 C   0  0  0  0  0  2  0  0  0  0  0  0
  191.2650  179.2290  143.9580 C   0  0  0  0  0  1  0  0  0  0  0  0
  188.0800  178.8210  141.3180 C   0  0  0  0  0  2  0  0  0  0  0  0
  188.4290  177.9520  140.2800 O   0  0  0  0  0  0  0  0  0  0  0  0
  188.1060  178.6430  137.9610 C   0  0  0  0  0  0  0  0  0  0  0  0
  188.7430  178.7590  139.2380 N   0  0  0  0  0  2  0  0  0  0  0  0
  188.4850  179.3890  137.0200 O   0  0  0  0  0  0  0  0  0  0  0  0
  187.5510  176.3670  136.8830 C   0  0  2  0  0  3  0  0  0  0  0  0
  186.7620  177.4680  136.2090 C   0  0  0  0  0  2  0  0  0  0  0  0
  187.0670  177.5850  137.6920 C   0  0  2  0  0  3  0  0  0  0  0  0
  189.0130  176.4130  136.4090 C   0  0  2  0  0  3  0  0  0  0  0  0
  189.1320  176.6970  134.9150 C   0  0  0  0  0  1  0  0  0  0  0  0
  189.7640  175.2840  136.8120 O   0  0  0  0  0  0  0  0  0  0  0  0
  190.3280  175.5310  138.0760 C   0  0  0  0  0  2  0  0  0  0  0  0
  191.6850  176.7760  139.2880 C   0  0  0  0  0  1  0  0  0  0  0  0
  191.2360  176.5870  137.9820 O   0  0  0  0  0  0  0  0  0  0  0  0
  1 24  1  6  0  0  0
  1 11  1  0  0  0  0
  2  3  1  6  0  0  0
  2  1  1  0  0  0  0
  2  4  1  0  0  0  0
  6  5  1  6  0  0  0
  6  4  1  0  0  0  0
  6  7  1  0  0  0  0
  7  8  2  0  0  0  0
 10  7  1  0  0  0  0
 10  9  1  0  0  0  0
 11 12  1  0  0  0  0
 12 13  2  6  0  0  0
 12 14  1  0  0  0  0
 12 15  1  0  0  0  0
 15 19  1  1  0  0  0
 15 17  1  0  0  0  0
 17 16  1  0  0  0  0
 18 17  2  0  0  0  0
 20 19  1  0  0  0  0
 21 20  1  0  0  0  0
 22 23  1  0  0  0  0
 22 21  1  0  0  0  0
 25 24  1  0  0  0  0
 26 27  1  0  0  0  0
 27 25  1  0  0  0  0
 28 26  2  0  0  0  0
 29 32  1  6  0  0  0
 29 31  1  0  0  0  0
 30 29  1  0  0  0  0
 30 31  1  0  0  0  0
 31 26  1  6  0  0  0
 32 33  1  6  0  0  0
 32 34  1  0  0  0  0
 34 35  1  0  0  0  0
 37 35  1  0  0  0  0
 37 36  1  0  0  0  0
M  END
>  <MODEL>
6

>  <REMARK>
 VINA RESULT:      -6.0      1.762      3.923
  Name = 
  21 active torsions:
  status: ('A' for Active; 'I' for Inactive)
    1  A    between atoms: C_1  and  O_17
    2  A    between atoms: C_1  and  C_26
    3  A    between atoms: C_2  and  C_19
    4  A    between atoms: C_2  and  C_35
    5  A    between atoms: C_3  and  C_32
    6  A    between atoms: P_4  and  O_10
    7  A    between atoms: P_4  and  C_13
    8  A    between atoms: C_5  and  O_17
    9  A    between atoms: C_5  and  O_23
   10  A    between atoms: C_6  and  C_31
   11  A    between atoms: C_6  and  C_35
   12  A    between atoms: C_7  and  C_14
   13  A    between atoms: C_7  and  O_27
   14  A    between atoms: O_10  and  C_14
   15  A    between atoms: C_11  and  C_36
   16  A    between atoms: C_13  and  C_16
   17  A    between atoms: C_13  and  C_20
   18  A    between atoms: C_14  and  C_31
   19  A    between atoms: C_20  and  C_25
   20  A    between atoms: C_25  and  C_32
   21  A    between atoms: O_27  and  N_33
                            x       y       z     vdW  Elec       q    Type
                         _______ _______ _______ _____ _____    ______ ____

>  <TORSDO>
F 21

$$$$
=
 OpenBabel10262423063D

 37 37  0  0  1  0  0  0  0  0999 V2000
  187.8590  178.2360  142.2920 C   0  0  2  0  0  3  0  0  0  0  0  0
  188.5310  177.2750  143.2760 C   0  0  2  0  0  3  0  0  0  0  0  0
  188.0210  175.9850  143.1130 O   0  0  0  0  0  1  0  0  0  0  0  0
  188.3700  177.7350  144.7220 C   0  0  0  0  0  2  0  0  0  0  0  0
  190.6320  178.4000  144.2980 O   0  0  0  0  0  1  0  0  0  0  0  0
  189.7050  178.1620  145.3150 C   0  0  2  0  0  3  0  0  0  0  0  0
  190.2270  177.1100  146.2430 C   0  0  0  0  0  0  0  0  0  0  0  0
  189.5150  176.7930  147.3230 C   0  0  0  0  0  2  0  0  0  0  0  0
  192.0280  175.7910  147.3180 C   0  0  0  0  0  1  0  0  0  0  0  0
  191.6200  176.5830  146.0900 C   0  0  0  0  0  2  0  0  0  0  0  0
  186.8140  177.5930  141.6160 O   0  0  0  0  0  0  0  0  0  0  0  0
  185.5910  178.7540  141.3890 P   0  0  2  0  0  0  0  0  0  0  0  0
  185.4770  179.1550  139.7490 O   0  0  0  0  0  0  0  0  0  0  0  0
  185.9710  179.9990  142.1580 O   0  0  0  0  0  1  0  0  0  0  0  0
  183.9640  178.1720  142.0000 C   0  0  1  0  0  3  0  0  0  0  0  0
  182.3790  179.1210  143.8720 C   0  0  0  0  0  1  0  0  0  0  0  0
  183.7110  178.6090  143.4200 C   0  0  0  0  0  0  0  0  0  0  0  0
  184.6470  178.3970  144.3420 C   0  0  0  0  0  2  0  0  0  0  0  0
  182.8500  178.5870  141.0450 C   0  0  0  0  0  2  0  0  0  0  0  0
  182.4240  177.4110  140.1840 C   0  0  0  0  0  2  0  0  0  0  0  0
  181.1960  177.7710  139.3660 C   0  0  0  0  0  2  0  0  0  0  0  0
  181.1370  179.2690  139.1280 C   0  0  0  0  0  2  0  0  0  0  0  0
  181.5060  179.5630  137.6890 C   0  0  0  0  0  1  0  0  0  0  0  0
  188.8620  178.7970  141.2890 C   0  0  0  0  0  2  0  0  0  0  0  0
  189.0150  177.9140  140.2170 O   0  0  0  0  0  0  0  0  0  0  0  0
  188.4050  178.1690  137.8670 C   0  0  0  0  0  0  0  0  0  0  0  0
  188.8980  178.6840  139.1090 N   0  0  0  0  0  2  0  0  0  0  0  0
  188.3730  178.9260  136.8610 O   0  0  0  0  0  0  0  0  0  0  0  0
  189.1760  175.7560  137.3810 C   0  0  2  0  0  3  0  0  0  0  0  0
  188.2410  176.2330  136.2910 C   0  0  0  0  0  2  0  0  0  0  0  0
  188.0210  176.7190  137.7130 C   0  0  2  0  0  3  0  0  0  0  0  0
  190.5590  176.4030  137.1970 C   0  0  2  0  0  3  0  0  0  0  0  0
  191.2060  176.0270  135.8680 C   0  0  0  0  0  1  0  0  0  0  0  0
  191.4190  176.1980  138.3000 O   0  0  0  0  0  0  0  0  0  0  0  0
  192.7120  176.6390  137.9670 C   0  0  0  0  0  2  0  0  0  0  0  0
  192.6210  177.4050  140.0320 C   0  0  0  0  0  1  0  0  0  0  0  0
  193.4720  176.7710  139.1290 O   0  0  0  0  0  0  0  0  0  0  0  0
  1 24  1  6  0  0  0
  1  2  1  0  0  0  0
  2  3  1  1  0  0  0
  2  4  1  0  0  0  0
  4  6  1  0  0  0  0
  6  5  1  6  0  0  0
  6  7  1  0  0  0  0
  7  8  2  0  0  0  0
 10  7  1  0  0  0  0
 10  9  1  0  0  0  0
 11  1  1  0  0  0  0
 12 13  2  6  0  0  0
 12 11  1  0  0  0  0
 12 15  1  0  0  0  0
 12 14  1  0  0  0  0
 15 19  1  6  0  0  0
 15 17  1  0  0  0  0
 17 16  1  0  0  0  0
 17 18  2  0  0  0  0
 20 19  1  0  0  0  0
 21 20  1  0  0  0  0
 22 21  1  0  0  0  0
 23 22  1  0  0  0  0
 25 24  1  0  0  0  0
 26 27  1  0  0  0  0
 27 25  1  0  0  0  0
 28 26  2  0  0  0  0
 29 32  1  6  0  0  0
 29 31  1  0  0  0  0
 30 29  1  0  0  0  0
 30 31  1  0  0  0  0
 31 26  1  6  0  0  0
 32 33  1  6  0  0  0
 32 34  1  0  0  0  0
 35 34  1  0  0  0  0
 35 37  1  0  0  0  0
 37 36  1  0  0  0  0
M  END
>  <MODEL>
7

>  <REMARK>
 VINA RESULT:      -6.0      2.113      6.400
  Name = 
  21 active torsions:
  status: ('A' for Active; 'I' for Inactive)
    1  A    between atoms: C_1  and  O_17
    2  A    between atoms: C_1  and  C_26
    3  A    between atoms: C_2  and  C_19
    4  A    between atoms: C_2  and  C_35
    5  A    between atoms: C_3  and  C_32
    6  A    between atoms: P_4  and  O_10
    7  A    between atoms: P_4  and  C_13
    8  A    between atoms: C_5  and  O_17
    9  A    between atoms: C_5  and  O_23
   10  A    between atoms: C_6  and  C_31
   11  A    between atoms: C_6  and  C_35
   12  A    between atoms: C_7  and  C_14
   13  A    between atoms: C_7  and  O_27
   14  A    between atoms: O_10  and  C_14
   15  A    between atoms: C_11  and  C_36
   16  A    between atoms: C_13  and  C_16
   17  A    between atoms: C_13  and  C_20
   18  A    between atoms: C_14  and  C_31
   19  A    between atoms: C_20  and  C_25
   20  A    between atoms: C_25  and  C_32
   21  A    between atoms: O_27  and  N_33
                            x       y       z     vdW  Elec       q    Type
                         _______ _______ _______ _____ _____    ______ ____

>  <TORSDO>
F 21

$$$$
=
 OpenBabel10262423063D

 37 37  0  0  1  0  0  0  0  0999 V2000
  184.9010  178.8820  142.0150 C   0  0  2  0  0  3  0  0  0  0  0  0
  184.3880  178.6350  143.4360 C   0  0  2  0  0  3  0  0  0  0  0  0
  183.1580  179.2710  143.6210 O   0  0  0  0  0  1  0  0  0  0  0  0
  185.3900  179.0940  144.4910 C   0  0  0  0  0  2  0  0  0  0  0  0
  184.7100  178.5130  146.7140 O   0  0  0  0  0  1  0  0  0  0  0  0
  185.4850  178.0910  145.6320 C   0  0  2  0  0  3  0  0  0  0  0  0
  186.9090  177.9200  146.0620 C   0  0  0  0  0  0  0  0  0  0  0  0
  187.2210  178.0970  147.3440 C   0  0  0  0  0  2  0  0  0  0  0  0
  187.7380  176.5820  144.1480 C   0  0  0  0  0  1  0  0  0  0  0  0
  187.9990  177.7770  145.0450 C   0  0  0  0  0  2  0  0  0  0  0  0
  184.4980  177.8460  141.1620 O   0  0  0  0  0  0  0  0  0  0  0  0
  183.6180  178.5680  139.8980 P   0  0  2  0  0  0  0  0  0  0  0  0
  184.4330  179.9450  139.3460 O   0  0  0  0  0  0  0  0  0  0  0  0
  182.2730  178.9950  140.4400 O   0  0  0  0  0  1  0  0  0  0  0  0
  183.3390  177.4130  138.5020 C   0  0  1  0  0  3  0  0  0  0  0  0
  181.6880  178.7430  136.9460 C   0  0  0  0  0  1  0  0  0  0  0  0
  181.9810  177.6100  137.8770 C   0  0  0  0  0  0  0  0  0  0  0  0
  181.0520  176.6690  138.0330 C   0  0  0  0  0  2  0  0  0  0  0  0
  184.4750  177.5040  137.4910 C   0  0  0  0  0  2  0  0  0  0  0  0
  184.5000  176.2700  136.6070 C   0  0  0  0  0  2  0  0  0  0  0  0
  185.7870  176.2190  135.8030 C   0  0  0  0  0  2  0  0  0  0  0  0
  186.3140  174.7980  135.7330 C   0  0  0  0  0  2  0  0  0  0  0  0
  186.2710  174.1780  137.1130 C   0  0  0  0  0  1  0  0  0  0  0  0
  186.4200  179.0180  141.9880 C   0  0  0  0  0  2  0  0  0  0  0  0
  186.9610  178.1800  141.0110 O   0  0  0  0  0  0  0  0  0  0  0  0
  188.3030  178.5520  139.0050 C   0  0  0  0  0  0  0  0  0  0  0  0
  187.7320  178.9880  140.2430 N   0  0  0  0  0  2  0  0  0  0  0  0
  189.0550  179.3360  138.3690 O   0  0  0  0  0  0  0  0  0  0  0  0
  189.2460  176.1590  138.8110 C   0  0  2  0  0  3  0  0  0  0  0  0
  189.1320  176.7860  137.4390 C   0  0  0  0  0  2  0  0  0  0  0  0
  188.1060  177.1450  138.4990 C   0  0  2  0  0  3  0  0  0  0  0  0
  190.4600  176.7470  139.5510 C   0  0  2  0  0  3  0  0  0  0  0  0
  191.7520  176.6040  138.7540 C   0  0  0  0  0  1  0  0  0  0  0  0
  190.5820  176.2780  140.8790 O   0  0  0  0  0  0  0  0  0  0  0  0
  190.5990  177.3750  141.7580 C   0  0  0  0  0  2  0  0  0  0  0  0
  191.3420  176.1440  143.4280 C   0  0  0  0  0  1  0  0  0  0  0  0
  191.6700  177.2470  142.6420 O   0  0  0  0  0  0  0  0  0  0  0  0
  1 24  1  1  0  0  0
  1  2  1  0  0  0  0
  2  3  1  1  0  0  0
  2  4  1  0  0  0  0
  4  6  1  0  0  0  0
  6  7  1  0  0  0  0
  6  5  1  1  0  0  0
  7  8  2  0  0  0  0
  9 10  1  0  0  0  0
 10  7  1  0  0  0  0
 11  1  1  0  0  0  0
 12 13  2  6  0  0  0
 12 14  1  0  0  0  0
 12 11  1  0  0  0  0
 15 19  1  6  0  0  0
 15 12  1  0  0  0  0
 16 17  1  0  0  0  0
 17 18  2  0  0  0  0
 17 15  1  0  0  0  0
 20 19  1  0  0  0  0
 21 20  1  0  0  0  0
 22 21  1  0  0  0  0
 22 23  1  0  0  0  0
 25 24  1  0  0  0  0
 26 27  1  0  0  0  0
 27 25  1  0  0  0  0
 28 26  2  0  0  0  0
 29 32  1  1  0  0  0
 30 31  1  0  0  0  0
 30 29  1  0  0  0  0
 31 29  1  0  0  0  0
 31 26  1  1  0  0  0
 32 33  1  6  0  0  0
 32 34  1  0  0  0  0
 34 35  1  0  0  0  0
 35 37  1  0  0  0  0
 37 36  1  0  0  0  0
M  END
>  <MODEL>
8

>  <REMARK>
 VINA RESULT:      -6.0      2.615      7.445
  Name = 
  21 active torsions:
  status: ('A' for Active; 'I' for Inactive)
    1  A    between atoms: C_1  and  O_17
    2  A    between atoms: C_1  and  C_26
    3  A    between atoms: C_2  and  C_19
    4  A    between atoms: C_2  and  C_35
    5  A    between atoms: C_3  and  C_32
    6  A    between atoms: P_4  and  O_10
    7  A    between atoms: P_4  and  C_13
    8  A    between atoms: C_5  and  O_17
    9  A    between atoms: C_5  and  O_23
   10  A    between atoms: C_6  and  C_31
   11  A    between atoms: C_6  and  C_35
   12  A    between atoms: C_7  and  C_14
   13  A    between atoms: C_7  and  O_27
   14  A    between atoms: O_10  and  C_14
   15  A    between atoms: C_11  and  C_36
   16  A    between atoms: C_13  and  C_16
   17  A    between atoms: C_13  and  C_20
   18  A    between atoms: C_14  and  C_31
   19  A    between atoms: C_20  and  C_25
   20  A    between atoms: C_25  and  C_32
   21  A    between atoms: O_27  and  N_33
                            x       y       z     vdW  Elec       q    Type
                         _______ _______ _______ _____ _____    ______ ____

>  <TORSDO>
F 21

$$$$
=
 OpenBabel10262423063D

 37 37  0  0  1  0  0  0  0  0999 V2000
  187.4430  177.9590  141.5570 C   0  0  2  0  0  3  0  0  0  0  0  0
  185.9740  178.3860  141.4880 C   0  0  2  0  0  3  0  0  0  0  0  0
  185.8740  179.6910  141.0040 O   0  0  0  0  0  1  0  0  0  0  0  0
  185.2810  178.2640  142.8430 C   0  0  0  0  0  2  0  0  0  0  0  0
  184.5590  180.0350  144.2850 O   0  0  0  0  0  1  0  0  0  0  0  0
  184.3030  179.4080  143.0640 C   0  0  2  0  0  3  0  0  0  0  0  0
  182.8940  178.9050  143.0380 C   0  0  0  0  0  0  0  0  0  0  0  0
  182.3330  178.6180  141.8640 C   0  0  0  0  0  2  0  0  0  0  0  0
  180.6090  178.5960  143.9460 C   0  0  0  0  0  1  0  0  0  0  0  0
  182.0510  178.9340  144.2760 C   0  0  0  0  0  2  0  0  0  0  0  0
  187.9660  178.2120  142.8310 O   0  0  0  0  0  0  0  0  0  0  0  0
  188.8480  176.8280  143.2800 P   0  0  2  0  0  0  0  0  0  0  0  0
  190.0740  176.5370  142.1500 O   0  0  0  0  0  0  0  0  0  0  0  0
  187.9070  175.6450  143.2780 O   0  0  0  0  0  1  0  0  0  0  0  0
  189.5750  176.9850  144.9560 C   0  0  1  0  0  3  0  0  0  0  0  0
  191.7850  178.2610  144.3180 C   0  0  0  0  0  1  0  0  0  0  0  0
  191.0790  177.0800  144.9060 C   0  0  0  0  0  0  0  0  0  0  0  0
  191.8090  176.1620  145.5350 C   0  0  0  0  0  2  0  0  0  0  0  0
  188.9340  178.1400  145.7150 C   0  0  0  0  0  2  0  0  0  0  0  0
  188.7560  177.7790  147.1800 C   0  0  0  0  0  2  0  0  0  0  0  0
  187.2860  177.5790  147.5010 C   0  0  0  0  0  2  0  0  0  0  0  0
  186.4180  178.3460  146.5210 C   0  0  0  0  0  2  0  0  0  0  0  0
  184.9710  178.2640  146.9600 C   0  0  0  0  0  1  0  0  0  0  0  0
  188.2780  178.6720  140.4980 C   0  0  0  0  0  2  0  0  0  0  0  0
  187.8680  178.2830  139.2200 O   0  0  0  0  0  0  0  0  0  0  0  0
  189.0900  177.8730  137.1460 C   0  0  0  0  0  0  0  0  0  0  0  0
  189.0090  177.9410  138.5750 N   0  0  0  0  0  2  0  0  0  0  0  0
  190.1660  177.4940  136.6130 O   0  0  0  0  0  0  0  0  0  0  0  0
  187.0480  176.9150  135.8970 C   0  0  2  0  0  3  0  0  0  0  0  0
  188.0350  177.4980  134.9100 C   0  0  0  0  0  2  0  0  0  0  0  0
  187.8910  178.1460  136.2760 C   0  0  2  0  0  3  0  0  0  0  0  0
  187.5670  175.5610  136.4100 C   0  0  2  0  0  3  0  0  0  0  0  0
  188.1090  174.6820  135.2880 C   0  0  0  0  0  1  0  0  0  0  0  0
  186.6380  174.8850  137.2340 O   0  0  0  0  0  0  0  0  0  0  0  0
  185.3600  174.9690  136.6550 C   0  0  0  0  0  2  0  0  0  0  0  0
  184.9440  173.0310  137.6190 C   0  0  0  0  0  1  0  0  0  0  0  0
  184.8830  173.6850  136.3900 O   0  0  0  0  0  0  0  0  0  0  0  0
  1 24  1  6  0  0  0
  1 11  1  0  0  0  0
  2  3  1  1  0  0  0
  2  1  1  0  0  0  0
  2  4  1  0  0  0  0
  4  6  1  0  0  0  0
  6  5  1  1  0  0  0
  7  6  1  0  0  0  0
  7 10  1  0  0  0  0
  8  7  2  0  0  0  0
  9 10  1  0  0  0  0
 11 12  1  0  0  0  0
 12 13  2  6  0  0  0
 12 15  1  0  0  0  0
 14 12  1  0  0  0  0
 15 19  1  6  0  0  0
 16 17  1  0  0  0  0
 17 15  1  0  0  0  0
 17 18  2  0  0  0  0
 19 20  1  0  0  0  0
 20 21  1  0  0  0  0
 22 23  1  0  0  0  0
 22 21  1  0  0  0  0
 25 24  1  0  0  0  0
 26 27  1  0  0  0  0
 27 25  1  0  0  0  0
 28 26  2  0  0  0  0
 29 31  1  0  0  0  0
 29 32  1  1  0  0  0
 30 29  1  0  0  0  0
 30 31  1  0  0  0  0
 31 26  1  1  0  0  0
 32 33  1  6  0  0  0
 32 34  1  0  0  0  0
 35 34  1  0  0  0  0
 37 35  1  0  0  0  0
 37 36  1  0  0  0  0
M  END
>  <MODEL>
9

>  <REMARK>
 VINA RESULT:      -5.9      1.680      2.298
  Name = 
  21 active torsions:
  status: ('A' for Active; 'I' for Inactive)
    1  A    between atoms: C_1  and  O_17
    2  A    between atoms: C_1  and  C_26
    3  A    between atoms: C_2  and  C_19
    4  A    between atoms: C_2  and  C_35
    5  A    between atoms: C_3  and  C_32
    6  A    between atoms: P_4  and  O_10
    7  A    between atoms: P_4  and  C_13
    8  A    between atoms: C_5  and  O_17
    9  A    between atoms: C_5  and  O_23
   10  A    between atoms: C_6  and  C_31
   11  A    between atoms: C_6  and  C_35
   12  A    between atoms: C_7  and  C_14
   13  A    between atoms: C_7  and  O_27
   14  A    between atoms: O_10  and  C_14
   15  A    between atoms: C_11  and  C_36
   16  A    between atoms: C_13  and  C_16
   17  A    between atoms: C_13  and  C_20
   18  A    between atoms: C_14  and  C_31
   19  A    between atoms: C_20  and  C_25
   20  A    between atoms: C_25  and  C_32
   21  A    between atoms: O_27  and  N_33
                            x       y       z     vdW  Elec       q    Type
                         _______ _______ _______ _____ _____    ______ ____

>  <TORSDO>
F 21

$$$$
