=
 OpenBabel10262420413D

 55 58  0  0  1  0  0  0  0  0999 V2000
  181.3570  177.5300  141.0810 C   0  0  0  0  0  2  0  0  0  0  0  0
  180.4520  179.7500  138.4150 C   0  0  2  0  0  3  0  0  0  0  0  0
  184.1330  178.3990  137.1990 O   0  0  0  0  0  1  0  0  0  0  0  0
  182.5720  181.0380  138.8830 C   0  0  0  0  0  1  0  0  0  0  0  0
  184.0350  178.1550  138.5700 C   0  0  2  0  0  0  0  0  0  0  0  0
  182.6110  178.4810  139.0640 C   0  0  2  0  0  3  0  0  0  0  0  0
  183.7380  178.2590  141.3950 C   0  0  1  0  0  3  0  0  0  0  0  0
  179.0430  180.8630  140.0100 O   0  0  0  0  0  1  0  0  0  0  0  0
  181.9860  179.7230  138.3830 C   0  0  1  0  0  3  0  0  0  0  0  0
  185.0740  179.0120  139.2950 C   0  0  0  0  0  2  0  0  0  0  0  0
  180.1300  177.4870  140.1660 C   0  0  0  0  0  2  0  0  0  0  0  0
  184.3270  176.6820  138.7950 C   0  0  0  0  0  1  0  0  0  0  0  0
  182.4420  178.5090  140.6080 C   0  0  2  0  0  3  0  0  0  0  0  0
  179.9080  179.7810  139.8610 C   0  0  1  0  0  3  0  0  0  0  0  0
  184.9590  179.0170  140.8330 C   0  0  2  0  0  3  0  0  0  0  0  0
  179.2690  178.5990  140.3010 O   0  0  0  0  0  0  0  0  0  0  0  0
  182.9750  179.9320  143.1480 C   0  0  0  0  0  1  0  0  0  0  0  0
  183.5470  178.5450  142.8890 C   0  0  0  0  0  2  0  0  0  0  0  0
  186.2480  178.5340  141.5050 C   0  0  1  0  0  3  0  0  0  0  0  0
  188.2920  176.5360  141.4100 O   0  0  0  0  0  0  0  0  0  0  0  0
  187.3710  178.5190  140.5760 N   0  0  0  0  0  2  0  0  0  0  0  0
  188.3760  177.5020  140.6030 C   0  0  0  0  0  0  0  0  0  0  0  0
  189.5270  177.5830  139.6600 C   0  0  0  0  0  2  0  0  0  0  0  0
  189.0800  177.3220  138.3010 N   0  0  0  0  0  0  0  0  0  0  0  0
  189.6200  178.3930  137.4780 C   0  0  0  0  0  1  0  0  0  0  0  0
  189.7340  176.0920  137.8720 C   0  0  0  0  0  2  0  0  0  0  0  0
  191.9520  175.1430  137.2480 C   0  0  0  0  0  1  0  0  0  0  0  0
  191.1080  176.4010  137.3020 C   0  0  0  0  0  2  0  0  0  0  0  0
  186.5880  179.3680  142.7320 C   0  0  0  0  0  2  0  0  0  0  0  0
  186.1820  178.1580  144.9620 C   0  0  0  0  0  3  0  0  0  0  0  0
  188.0800  177.2970  146.1490 N   0  0  0  0  0  0  0  0  0  0  0  0
  188.3500  178.0920  143.8390 C   0  0  0  0  0  3  0  0  0  0  0  0
  188.8940  177.2070  144.9290 C   0  0  0  0  0  2  0  0  0  0  0  0
  186.6810  177.6030  146.0680 C   0  0  0  0  0  3  0  0  0  0  0  0
  187.0720  178.4790  143.8290 C   0  0  0  0  0  0  0  0  0  0  0  0
  188.6280  176.8820  147.4360 C   0  0  2  0  0  3  0  0  0  0  0  0
  187.9890  177.6150  148.5150 N   0  0  0  0  0  1  0  0  0  0  0  0
  190.1290  177.1010  147.4770 C   0  0  0  0  0  1  0  0  0  0  0  0
  179.9350  178.6830  137.6700 O   0  0  0  0  0  0  0  0  0  0  0  0
  180.3220  178.9230  136.3470 C   0  0  0  0  0  2  0  0  0  0  0  0
  181.1690  177.8910  135.9100 O   0  0  0  0  0  0  0  0  0  0  0  0
  180.4150  176.8190  135.3600 C   0  0  2  0  0  3  0  0  0  0  0  0
  179.2220  176.5260  136.0200 F   0  0  0  0  0  0  0  0  0  0  0  0
  181.2590  175.5510  135.1990 C   0  0  1  0  0  3  0  0  0  0  0  0
  182.7040  175.8480  134.9670 C   0  0  0  0  0  0  0  0  0  0  0  0
  184.1360  176.1430  134.7370 C   0  0  0  0  0  0  0  0  0  0  0  0
  183.6870  174.8630  134.7520 C   0  0  0  0  0  2  0  0  0  0  0  0
  185.2450  177.1230  134.5940 C   0  0  0  0  0  2  0  0  0  0  0  0
  186.5090  176.5480  135.1990 C   0  0  0  0  0  1  0  0  0  0  0  0
  181.0460  174.5580  136.3350 C   0  0  0  0  0  2  0  0  0  0  0  0
  180.3420  172.6380  135.0830 O   0  0  0  0  0  1  0  0  0  0  0  0
  179.9070  173.6140  135.9860 C   0  0  1  0  0  3  0  0  0  0  0  0
  178.9310  173.6810  138.1730 O   0  0  0  0  0  1  0  0  0  0  0  0
  179.3570  172.9770  137.2190 C   0  0  0  0  0  0  0  0  0  0  0  0
  179.2930  171.5930  137.3050 O   0  0  0  0  0  0  0  0  0  0  0  0
  2 39  1  1  0  0  0
  2 14  1  0  0  0  0
  3  5  1  0  0  0  0
  5 12  1  1  0  0  0
  5  6  1  0  0  0  0
  5 10  1  0  0  0  0
  6 13  1  0  0  0  0
  7 18  1  0  0  0  0
  9  2  1  0  0  0  0
  9  4  1  0  0  0  0
  9  6  1  0  0  0  0
 10 15  1  0  0  0  0
 11 16  1  0  0  0  0
 11  1  1  0  0  0  0
 13  1  1  0  0  0  0
 13  7  1  0  0  0  0
 14  8  1  0  0  0  0
 14 16  1  0  0  0  0
 15  7  1  0  0  0  0
 15 19  1  0  0  0  0
 18 17  1  0  0  0  0
 19 29  1  0  0  0  0
 21 22  1  0  0  0  0
 21 19  1  0  0  0  0
 22 20  2  0  0  0  0
 23 22  1  0  0  0  0
 24 23  1  0  0  0  0
 25 24  1  0  0  0  0
 26 24  1  0  0  0  0
 27 28  1  0  0  0  0
 28 26  1  0  0  0  0
 29 35  1  0  0  0  0
 30 34  2  0  0  0  0
 31 36  1  0  0  0  0
 32 33  1  0  0  0  0
 33 31  1  0  0  0  0
 34 31  1  0  0  0  0
 35 32  2  0  0  0  0
 35 30  1  0  0  0  0
 36 38  1  0  0  0  0
 36 37  1  0  0  0  0
 40 39  1  0  0  0  0
 41 40  1  0  0  0  0
 42 41  1  0  0  0  0
 42 43  1  0  0  0  0
 44 42  1  0  0  0  0
 44 50  1  0  0  0  0
 45 44  1  0  0  0  0
 46 47  1  0  0  0  0
 46 45  2  0  0  0  0
 47 45  1  0  0  0  0
 48 46  1  0  0  0  0
 48 49  1  0  0  0  0
 51 52  1  0  0  0  0
 52 50  1  0  0  0  0
 52 54  1  0  0  0  0
 54 55  2  0  0  0  0
 54 53  1  0  0  0  0
M  END
>  <MODEL>
1

>  <REMARK>
 VINA RESULT:      -4.0      0.000      0.000
  Name = 
  20 active torsions:
  status: ('A' for Active; 'I' for Inactive)
    1  A    between atoms: C_1  and  O_30
    2  A    between atoms: C_1  and  C_53
    3  A    between atoms: C_6  and  C_53
    4  A    between atoms: C_7  and  O_8
    5  A    between atoms: O_8  and  C_20
    6  A    between atoms: C_10  and  N_32
    7  A    between atoms: C_11  and  C_29
    8  A    between atoms: C_11  and  C_38
    9  A    between atoms: C_12  and  C_14
   10  A    between atoms: C_19  and  C_40
   11  A    between atoms: C_20  and  O_30
   12  A    between atoms: N_27  and  C_31
   13  A    between atoms: N_27  and  C_55
   14  A    between atoms: N_28  and  C_49
   15  A    between atoms: C_31  and  C_44
   16  A    between atoms: C_33  and  C_49
   17  A    between atoms: C_33  and  C_52
   18  A    between atoms: C_38  and  C_53
   19  A    between atoms: C_41  and  C_55
   20  A    between atoms: C_45  and  C_49
                            x       y       z     vdW  Elec       q    Type
                         _______ _______ _______ _____ _____    ______ ____

>  <TORSDO>
F 20

$$$$
=
 OpenBabel10262420413D

 55 58  0  0  1  0  0  0  0  0999 V2000
  187.6970  178.6930  138.6500 C   0  0  0  0  0  2  0  0  0  0  0  0
  189.9200  176.0460  137.6980 C   0  0  2  0  0  3  0  0  0  0  0  0
  187.2250  176.0650  134.6000 O   0  0  0  0  0  1  0  0  0  0  0  0
  187.9220  174.5020  137.6520 C   0  0  0  0  0  1  0  0  0  0  0  0
  186.6280  176.7290  135.6730 C   0  0  2  0  0  0  0  0  0  0  0  0
  187.6460  176.9100  136.8170 C   0  0  2  0  0  3  0  0  0  0  0  0
  185.5150  177.5590  138.1530 C   0  0  1  0  0  3  0  0  0  0  0  0
  190.4360  175.8300  140.0330 O   0  0  0  0  0  1  0  0  0  0  0  0
  188.5970  175.7030  136.9990 C   0  0  1  0  0  3  0  0  0  0  0  0
  185.4210  175.9140  136.1420 C   0  0  0  0  0  2  0  0  0  0  0  0
  189.2100  178.7420  138.4150 C   0  0  0  0  0  2  0  0  0  0  0  0
  186.1750  178.0900  135.1740 C   0  0  0  0  0  1  0  0  0  0  0  0
  187.0420  177.3920  138.1640 C   0  0  2  0  0  3  0  0  0  0  0  0
  189.6900  176.5820  139.1290 C   0  0  1  0  0  3  0  0  0  0  0  0
  184.7720  176.4020  137.4520 C   0  0  2  0  0  3  0  0  0  0  0  0
  189.9610  177.9580  139.3180 O   0  0  0  0  0  0  0  0  0  0  0  0
  184.9310  179.2680  139.9400 C   0  0  0  0  0  1  0  0  0  0  0  0
  184.9690  177.7920  139.5670 C   0  0  0  0  0  2  0  0  0  0  0  0
  183.2910  176.7510  137.2630 C   0  0  1  0  0  3  0  0  0  0  0  0
  182.1170  175.4060  135.0290 O   0  0  0  0  0  0  0  0  0  0  0  0
  182.4420  175.5690  137.3410 N   0  0  0  0  0  2  0  0  0  0  0  0
  181.8630  174.9630  136.1820 C   0  0  0  0  0  0  0  0  0  0  0  0
  180.9570  173.7900  136.3430 C   0  0  0  0  0  2  0  0  0  0  0  0
  181.7160  172.6260  136.7720 N   0  0  0  0  0  0  0  0  0  0  0  0
  180.8060  171.4940  136.7050 C   0  0  0  0  0  1  0  0  0  0  0  0
  182.7440  172.4000  135.7650 C   0  0  0  0  0  2  0  0  0  0  0  0
  184.3420  172.7650  137.6420 C   0  0  0  0  0  1  0  0  0  0  0  0
  184.0260  171.9190  136.4240 C   0  0  0  0  0  2  0  0  0  0  0  0
  182.8300  177.8010  138.2630 C   0  0  0  0  0  2  0  0  0  0  0  0
  181.8170  180.1630  138.2510 C   0  0  0  0  0  3  0  0  0  0  0  0
  180.3150  180.7450  136.4740 N   0  0  0  0  0  0  0  0  0  0  0  0
  181.6250  178.6710  136.3260 C   0  0  0  0  0  3  0  0  0  0  0  0
  180.8810  179.7380  135.5670 C   0  0  0  0  0  2  0  0  0  0  0  0
  180.9490  181.0310  137.7290 C   0  0  0  0  0  3  0  0  0  0  0  0
  182.1120  178.8970  137.5490 C   0  0  0  0  0  0  0  0  0  0  0  0
  179.2260  181.6100  136.0330 C   0  0  2  0  0  3  0  0  0  0  0  0
  179.4130  181.9860  134.6420 N   0  0  0  0  0  1  0  0  0  0  0  0
  179.1400  182.8520  136.9000 C   0  0  0  0  0  1  0  0  0  0  0  0
  190.6690  176.9260  136.9080 O   0  0  0  0  0  0  0  0  0  0  0  0
  191.6660  176.1460  136.3130 C   0  0  0  0  0  2  0  0  0  0  0  0
  192.3160  175.3820  137.2970 O   0  0  0  0  0  0  0  0  0  0  0  0
  193.7200  175.6000  137.2580 C   0  0  2  0  0  3  0  0  0  0  0  0
  194.1650  176.4580  136.2520 F   0  0  0  0  0  0  0  0  0  0  0  0
  194.5000  174.2830  137.2170 C   0  0  1  0  0  3  0  0  0  0  0  0
  193.8840  173.2760  136.3030 C   0  0  2  0  0  3  0  0  0  0  0  0
  193.2730  172.2770  135.3990 C   0  0  1  0  0  3  0  0  0  0  0  0
  194.1500  173.1960  134.9230 C   0  0  0  0  0  2  0  0  0  0  0  0
  192.3670  171.1190  135.1780 C   0  0  0  0  0  2  0  0  0  0  0  0
  193.0930  169.8360  135.5270 C   0  0  0  0  0  1  0  0  0  0  0  0
  195.9840  174.4900  136.9370 C   0  0  0  0  0  2  0  0  0  0  0  0
  197.4420  172.6290  137.3330 O   0  0  0  0  0  1  0  0  0  0  0  0
  196.8120  173.7150  137.9480 C   0  0  1  0  0  3  0  0  0  0  0  0
  199.0000  174.6710  138.1530 O   0  0  0  0  0  0  0  0  0  0  0  0
  197.8210  174.6070  138.5920 C   0  0  0  0  0  0  0  0  0  0  0  0
  197.4480  175.3940  139.6740 O   0  0  0  0  0  1  0  0  0  0  0  0
  2 39  1  6  0  0  0
  2 14  1  0  0  0  0
  3  5  1  0  0  0  0
  5 12  1  6  0  0  0
  5 10  1  0  0  0  0
  5  6  1  0  0  0  0
  6  9  1  0  0  0  0
  6 13  1  0  0  0  0
  7 13  1  0  0  0  0
  7 18  1  0  0  0  0
  9  4  1  0  0  0  0
  9  2  1  0  0  0  0
 10 15  1  0  0  0  0
 11  1  1  0  0  0  0
 11 16  1  0  0  0  0
 13  1  1  0  0  0  0
 14 16  1  0  0  0  0
 14  8  1  0  0  0  0
 15  7  1  0  0  0  0
 18 17  1  0  0  0  0
 19 21  1  0  0  0  0
 19 15  1  0  0  0  0
 19 29  1  0  0  0  0
 20 22  2  0  0  0  0
 22 23  1  0  0  0  0
 22 21  1  0  0  0  0
 23 24  1  0  0  0  0
 25 24  1  0  0  0  0
 26 28  1  0  0  0  0
 26 24  1  0  0  0  0
 28 27  1  0  0  0  0
 31 34  1  0  0  0  0
 32 35  2  0  0  0  0
 33 32  1  0  0  0  0
 33 31  1  0  0  0  0
 34 30  2  0  0  0  0
 35 30  1  0  0  0  0
 35 29  1  0  0  0  0
 36 31  1  0  0  0  0
 36 38  1  0  0  0  0
 37 36  1  0  0  0  0
 40 39  1  0  0  0  0
 40 41  1  0  0  0  0
 42 41  1  0  0  0  0
 43 42  1  0  0  0  0
 44 42  1  0  0  0  0
 45 44  1  0  0  0  0
 46 45  1  0  0  0  0
 47 46  1  0  0  0  0
 47 45  1  0  0  0  0
 48 46  1  0  0  0  0
 48 49  1  0  0  0  0
 50 44  1  0  0  0  0
 50 52  1  0  0  0  0
 51 52  1  0  0  0  0
 52 54  1  0  0  0  0
 53 54  2  0  0  0  0
 54 55  1  0  0  0  0
M  END
>  <MODEL>
2

>  <REMARK>
 VINA RESULT:      -3.6      4.783     10.939
  Name = 
  20 active torsions:
  status: ('A' for Active; 'I' for Inactive)
    1  A    between atoms: C_1  and  O_30
    2  A    between atoms: C_1  and  C_53
    3  A    between atoms: C_6  and  C_53
    4  A    between atoms: C_7  and  O_8
    5  A    between atoms: O_8  and  C_20
    6  A    between atoms: C_10  and  N_32
    7  A    between atoms: C_11  and  C_29
    8  A    between atoms: C_11  and  C_38
    9  A    between atoms: C_12  and  C_14
   10  A    between atoms: C_19  and  C_40
   11  A    between atoms: C_20  and  O_30
   12  A    between atoms: N_27  and  C_31
   13  A    between atoms: N_27  and  C_55
   14  A    between atoms: N_28  and  C_49
   15  A    between atoms: C_31  and  C_44
   16  A    between atoms: C_33  and  C_49
   17  A    between atoms: C_33  and  C_52
   18  A    between atoms: C_38  and  C_53
   19  A    between atoms: C_41  and  C_55
   20  A    between atoms: C_45  and  C_49
                            x       y       z     vdW  Elec       q    Type
                         _______ _______ _______ _____ _____    ______ ____

>  <TORSDO>
F 20

$$$$
=
 OpenBabel10262420413D

 55 58  0  0  1  0  0  0  0  0999 V2000
  190.4410  176.6070  139.3650 C   0  0  0  0  0  2  0  0  0  0  0  0
  188.0650  178.1110  137.1390 C   0  0  2  0  0  3  0  0  0  0  0  0
  188.6620  174.4360  135.4090 O   0  0  0  0  0  1  0  0  0  0  0  0
  189.7280  177.7650  135.2710 C   0  0  0  0  0  1  0  0  0  0  0  0
  189.7420  174.6720  136.2620 C   0  0  2  0  0  0  0  0  0  0  0  0
  189.5010  175.9590  137.0760 C   0  0  2  0  0  3  0  0  0  0  0  0
  192.0140  175.6530  137.6590 C   0  0  1  0  0  3  0  0  0  0  0  0
  188.8920  180.2280  137.9140 O   0  0  0  0  0  1  0  0  0  0  0  0
  188.8030  177.0820  136.2710 C   0  0  1  0  0  3  0  0  0  0  0  0
  191.0140  174.7890  135.4200 C   0  0  0  0  0  2  0  0  0  0  0  0
  189.0400  177.1470  139.6710 C   0  0  0  0  0  2  0  0  0  0  0  0
  189.8490  173.4860  137.2040 C   0  0  0  0  0  1  0  0  0  0  0  0
  190.7350  176.4790  137.8630 C   0  0  2  0  0  3  0  0  0  0  0  0
  189.0290  178.8530  138.0920 C   0  0  1  0  0  3  0  0  0  0  0  0
  192.2660  175.2560  136.1890 C   0  0  2  0  0  3  0  0  0  0  0  0
  188.8980  178.5370  139.4640 O   0  0  0  0  0  0  0  0  0  0  0  0
  192.8770  177.2170  139.4650 C   0  0  0  0  0  1  0  0  0  0  0  0
  193.2350  176.3590  138.2590 C   0  0  0  0  0  2  0  0  0  0  0  0
  193.4080  174.2390  136.0950 C   0  0  1  0  0  3  0  0  0  0  0  0
  195.8110  174.6280  134.5940 O   0  0  0  0  0  0  0  0  0  0  0  0
  194.6570  174.7760  136.6240 N   0  0  0  0  0  2  0  0  0  0  0  0
  195.8310  174.9170  135.8220 C   0  0  0  0  0  0  0  0  0  0  0  0
  197.0890  175.4200  136.4450 C   0  0  0  0  0  2  0  0  0  0  0  0
  197.8350  174.3160  137.0270 N   0  0  0  0  0  0  0  0  0  0  0  0
  199.1420  174.3210  136.3880 C   0  0  0  0  0  1  0  0  0  0  0  0
  198.0510  174.6460  138.4300 C   0  0  0  0  0  2  0  0  0  0  0  0
  196.2900  175.2460  140.0870 C   0  0  0  0  0  1  0  0  0  0  0  0
  196.9020  174.1230  139.2740 C   0  0  0  0  0  2  0  0  0  0  0  0
  193.0560  172.9330  136.7930 C   0  0  0  0  0  2  0  0  0  0  0  0
  195.0010  171.4460  137.5710 C   0  0  0  0  0  3  0  0  0  0  0  0
  196.3910  170.4290  135.9030 N   0  0  0  0  0  0  0  0  0  0  0  0
  194.2900  171.5160  135.2350 C   0  0  0  0  0  3  0  0  0  0  0  0
  195.3380  170.4940  134.8810 C   0  0  0  0  0  2  0  0  0  0  0  0
  196.0990  170.7490  137.2700 C   0  0  0  0  0  3  0  0  0  0  0  0
  194.0990  171.9070  136.4980 C   0  0  0  0  0  0  0  0  0  0  0  0
  197.6920  169.8480  135.5880 C   0  0  2  0  0  3  0  0  0  0  0  0
  198.4690  169.6640  136.8020 N   0  0  0  0  0  1  0  0  0  0  0  0
  198.4530  170.7270  134.6130 C   0  0  0  0  0  1  0  0  0  0  0  0
  187.0060  177.4980  137.8180 O   0  0  0  0  0  0  0  0  0  0  0  0
  185.8420  177.9280  137.1710 C   0  0  0  0  0  2  0  0  0  0  0  0
  184.8090  178.0790  138.1110 O   0  0  0  0  0  0  0  0  0  0  0  0
  183.8380  177.0520  137.9620 C   0  0  2  0  0  3  0  0  0  0  0  0
  184.2870  175.8910  137.3320 F   0  0  0  0  0  0  0  0  0  0  0  0
  182.5640  177.5670  137.2840 C   0  0  1  0  0  3  0  0  0  0  0  0
  182.1060  176.6830  136.1720 C   0  0  1  0  0  3  0  0  0  0  0  0
  181.6510  175.8060  135.0700 C   0  0  1  0  0  3  0  0  0  0  0  0
  182.3780  176.9220  134.8110 C   0  0  0  0  0  2  0  0  0  0  0  0
  180.9310  174.5930  134.5990 C   0  0  0  0  0  2  0  0  0  0  0  0
  180.9660  173.5330  135.6800 C   0  0  0  0  0  1  0  0  0  0  0  0
  181.4520  177.8680  138.2820 C   0  0  0  0  0  2  0  0  0  0  0  0
  182.6140  179.9550  138.4790 O   0  0  0  0  0  1  0  0  0  0  0  0
  181.3450  179.3690  138.4960 C   0  0  1  0  0  3  0  0  0  0  0  0
  180.8710  180.1090  136.2670 O   0  0  0  0  0  0  0  0  0  0  0  0
  180.4710  179.9860  137.4560 C   0  0  0  0  0  0  0  0  0  0  0  0
  179.1920  180.4060  137.7970 O   0  0  0  0  0  1  0  0  0  0  0  0
  1 11  1  0  0  0  0
  2 39  1  1  0  0  0
  2 14  1  0  0  0  0
  3  5  1  0  0  0  0
  4  9  1  0  0  0  0
  5  6  1  0  0  0  0
  5 12  1  1  0  0  0
  6 13  1  0  0  0  0
  7 13  1  0  0  0  0
  7 18  1  0  0  0  0
  8 14  1  0  0  0  0
  9  6  1  0  0  0  0
  9  2  1  0  0  0  0
 10 15  1  0  0  0  0
 10  5  1  0  0  0  0
 13  1  1  0  0  0  0
 14 16  1  0  0  0  0
 15  7  1  0  0  0  0
 16 11  1  0  0  0  0
 18 17  1  0  0  0  0
 19 15  1  0  0  0  0
 19 21  1  0  0  0  0
 19 29  1  0  0  0  0
 20 22  2  0  0  0  0
 22 23  1  0  0  0  0
 22 21  1  0  0  0  0
 23 24  1  0  0  0  0
 24 26  1  0  0  0  0
 25 24  1  0  0  0  0
 26 28  1  0  0  0  0
 28 27  1  0  0  0  0
 31 34  1  0  0  0  0
 32 35  2  0  0  0  0
 33 32  1  0  0  0  0
 33 31  1  0  0  0  0
 34 30  2  0  0  0  0
 35 29  1  0  0  0  0
 35 30  1  0  0  0  0
 36 31  1  0  0  0  0
 36 37  1  0  0  0  0
 38 36  1  0  0  0  0
 40 39  1  0  0  0  0
 40 41  1  0  0  0  0
 42 41  1  0  0  0  0
 43 42  1  0  0  0  0
 44 42  1  0  0  0  0
 44 50  1  0  0  0  0
 45 44  1  0  0  0  0
 46 45  1  0  0  0  0
 47 46  1  0  0  0  0
 47 45  1  0  0  0  0
 48 46  1  0  0  0  0
 48 49  1  0  0  0  0
 50 52  1  0  0  0  0
 51 52  1  0  0  0  0
 53 54  2  0  0  0  0
 54 55  1  0  0  0  0
 54 52  1  0  0  0  0
M  END
>  <MODEL>
3

>  <REMARK>
 VINA RESULT:      -3.3      4.596      9.341
  Name = 
  20 active torsions:
  status: ('A' for Active; 'I' for Inactive)
    1  A    between atoms: C_1  and  O_30
    2  A    between atoms: C_1  and  C_53
    3  A    between atoms: C_6  and  C_53
    4  A    between atoms: C_7  and  O_8
    5  A    between atoms: O_8  and  C_20
    6  A    between atoms: C_10  and  N_32
    7  A    between atoms: C_11  and  C_29
    8  A    between atoms: C_11  and  C_38
    9  A    between atoms: C_12  and  C_14
   10  A    between atoms: C_19  and  C_40
   11  A    between atoms: C_20  and  O_30
   12  A    between atoms: N_27  and  C_31
   13  A    between atoms: N_27  and  C_55
   14  A    between atoms: N_28  and  C_49
   15  A    between atoms: C_31  and  C_44
   16  A    between atoms: C_33  and  C_49
   17  A    between atoms: C_33  and  C_52
   18  A    between atoms: C_38  and  C_53
   19  A    between atoms: C_41  and  C_55
   20  A    between atoms: C_45  and  C_49
                            x       y       z     vdW  Elec       q    Type
                         _______ _______ _______ _____ _____    ______ ____

>  <TORSDO>
F 20

$$$$
=
 OpenBabel10262420413D

 55 58  0  0  1  0  0  0  0  0999 V2000
  187.1800  178.8400  140.6180 C   0  0  0  0  0  2  0  0  0  0  0  0
  189.9120  176.8430  139.4360 C   0  0  2  0  0  3  0  0  0  0  0  0
  188.1420  178.0430  135.9310 O   0  0  0  0  0  1  0  0  0  0  0  0
  188.2250  175.4050  138.2270 C   0  0  0  0  0  1  0  0  0  0  0  0
  187.2010  178.2090  136.9490 C   0  0  2  0  0  0  0  0  0  0  0  0
  187.8510  177.9390  138.3200 C   0  0  2  0  0  3  0  0  0  0  0  0
  185.3770  177.9540  139.1140 C   0  0  1  0  0  3  0  0  0  0  0  0
  189.8260  175.7220  141.5570 O   0  0  0  0  0  1  0  0  0  0  0  0
  188.8770  176.7800  138.3040 C   0  0  1  0  0  3  0  0  0  0  0  0
  186.0360  177.2500  136.6990 C   0  0  0  0  0  2  0  0  0  0  0  0
  188.6810  179.0110  140.8740 C   0  0  0  0  0  2  0  0  0  0  0  0
  186.7130  179.6460  136.8900 C   0  0  0  0  0  1  0  0  0  0  0  0
  186.8570  177.8290  139.5090 C   0  0  2  0  0  3  0  0  0  0  0  0
  189.2470  176.7570  140.8270 C   0  0  1  0  0  3  0  0  0  0  0  0
  185.0070  177.1590  137.8440 C   0  0  2  0  0  3  0  0  0  0  0  0
  189.2690  177.9470  141.5920 O   0  0  0  0  0  0  0  0  0  0  0  0
  184.0860  178.8000  141.1310 C   0  0  0  0  0  1  0  0  0  0  0  0
  184.4560  177.5900  140.2840 C   0  0  0  0  0  2  0  0  0  0  0  0
  183.5940  177.5240  137.3750 C   0  0  1  0  0  3  0  0  0  0  0  0
  181.2210  178.5530  138.5940 O   0  0  0  0  0  0  0  0  0  0  0  0
  183.2990  178.9360  137.5890 N   0  0  0  0  0  2  0  0  0  0  0  0
  182.0760  179.3820  138.1800 C   0  0  0  0  0  0  0  0  0  0  0  0
  181.8190  180.8440  138.3160 C   0  0  0  0  0  2  0  0  0  0  0  0
  180.5960  181.2040  137.6150 N   0  0  0  0  0  0  0  0  0  0  0  0
  180.3810  182.6210  137.8660 C   0  0  0  0  0  1  0  0  0  0  0  0
  180.8710  181.0670  136.1900 C   0  0  0  0  0  2  0  0  0  0  0  0
  179.8930  178.9670  135.2710 C   0  0  0  0  0  1  0  0  0  0  0  0
  179.6750  180.4520  135.4830 C   0  0  0  0  0  2  0  0  0  0  0  0
  183.3740  177.1530  135.9160 C   0  0  0  0  0  2  0  0  0  0  0  0
  181.7930  175.3340  136.8060 C   0  0  0  0  0  3  0  0  0  0  0  0
  182.1170  173.0800  136.0540 N   0  0  0  0  0  0  0  0  0  0  0  0
  183.3150  174.9150  134.9410 C   0  0  0  0  0  3  0  0  0  0  0  0
  182.7870  173.5100  134.8190 C   0  0  0  0  0  2  0  0  0  0  0  0
  181.4830  174.0400  136.9100 C   0  0  0  0  0  3  0  0  0  0  0  0
  182.8050  175.7760  135.8250 C   0  0  0  0  0  0  0  0  0  0  0  0
  181.9110  171.6610  136.3270 C   0  0  2  0  0  3  0  0  0  0  0  0
  183.1200  171.0730  136.8770 N   0  0  0  0  0  1  0  0  0  0  0  0
  181.5020  170.9240  135.0650 C   0  0  0  0  0  1  0  0  0  0  0  0
  190.7140  177.9810  139.2930 O   0  0  0  0  0  0  0  0  0  0  0  0
  192.0310  177.5120  139.2430 C   0  0  0  0  0  2  0  0  0  0  0  0
  192.0720  176.2970  138.5380 O   0  0  0  0  0  0  0  0  0  0  0  0
  193.3740  176.0600  138.0190 C   0  0  2  0  0  3  0  0  0  0  0  0
  193.7860  176.9350  137.0140 F   0  0  0  0  0  0  0  0  0  0  0  0
  193.5500  174.6070  137.5660 C   0  0  1  0  0  3  0  0  0  0  0  0
  192.4850  174.1660  136.6170 C   0  0  2  0  0  3  0  0  0  0  0  0
  191.4300  173.7280  135.6770 C   0  0  1  0  0  3  0  0  0  0  0  0
  192.2700  174.7420  135.3510 C   0  0  0  0  0  2  0  0  0  0  0  0
  190.2920  172.8320  135.3410 C   0  0  0  0  0  2  0  0  0  0  0  0
  189.0300  173.6550  135.1880 C   0  0  0  0  0  1  0  0  0  0  0  0
  194.9520  174.3250  137.0380 C   0  0  0  0  0  2  0  0  0  0  0  0
  195.9380  173.1150  138.8570 O   0  0  0  0  0  1  0  0  0  0  0  0
  195.9480  174.3420  138.1850 C   0  0  1  0  0  3  0  0  0  0  0  0
  197.4980  175.5200  136.7890 O   0  0  0  0  0  0  0  0  0  0  0  0
  197.3190  174.6520  137.6840 C   0  0  0  0  0  0  0  0  0  0  0  0
  198.4130  173.9930  138.2290 O   0  0  0  0  0  1  0  0  0  0  0  0
  1 11  1  0  0  0  0
  2 39  1  1  0  0  0
  2 14  1  0  0  0  0
  3  5  1  0  0  0  0
  4  9  1  0  0  0  0
  5 12  1  6  0  0  0
  5  6  1  0  0  0  0
  6 13  1  0  0  0  0
  7 13  1  0  0  0  0
  7 18  1  0  0  0  0
  9  6  1  0  0  0  0
  9  2  1  0  0  0  0
 10  5  1  0  0  0  0
 10 15  1  0  0  0  0
 11 16  1  0  0  0  0
 13  1  1  0  0  0  0
 14  8  1  0  0  0  0
 14 16  1  0  0  0  0
 15  7  1  0  0  0  0
 18 17  1  0  0  0  0
 19 21  1  0  0  0  0
 19 15  1  0  0  0  0
 21 22  1  0  0  0  0
 22 23  1  0  0  0  0
 22 20  2  0  0  0  0
 24 25  1  0  0  0  0
 24 23  1  0  0  0  0
 26 24  1  0  0  0  0
 27 28  1  0  0  0  0
 28 26  1  0  0  0  0
 29 19  1  0  0  0  0
 30 34  2  0  0  0  0
 31 36  1  0  0  0  0
 31 34  1  0  0  0  0
 32 35  2  0  0  0  0
 33 32  1  0  0  0  0
 33 31  1  0  0  0  0
 35 29  1  0  0  0  0
 35 30  1  0  0  0  0
 36 37  1  0  0  0  0
 38 36  1  0  0  0  0
 40 39  1  0  0  0  0
 41 40  1  0  0  0  0
 42 41  1  0  0  0  0
 43 42  1  0  0  0  0
 44 42  1  0  0  0  0
 45 44  1  0  0  0  0
 46 45  1  0  0  0  0
 47 46  1  0  0  0  0
 47 45  1  0  0  0  0
 48 46  1  0  0  0  0
 49 48  1  0  0  0  0
 50 44  1  0  0  0  0
 50 52  1  0  0  0  0
 52 51  1  0  0  0  0
 53 54  2  0  0  0  0
 54 52  1  0  0  0  0
 54 55  1  0  0  0  0
M  END
>  <MODEL>
4

>  <REMARK>
 VINA RESULT:      -3.3      4.281     10.548
  Name = 
  20 active torsions:
  status: ('A' for Active; 'I' for Inactive)
    1  A    between atoms: C_1  and  O_30
    2  A    between atoms: C_1  and  C_53
    3  A    between atoms: C_6  and  C_53
    4  A    between atoms: C_7  and  O_8
    5  A    between atoms: O_8  and  C_20
    6  A    between atoms: C_10  and  N_32
    7  A    between atoms: C_11  and  C_29
    8  A    between atoms: C_11  and  C_38
    9  A    between atoms: C_12  and  C_14
   10  A    between atoms: C_19  and  C_40
   11  A    between atoms: C_20  and  O_30
   12  A    between atoms: N_27  and  C_31
   13  A    between atoms: N_27  and  C_55
   14  A    between atoms: N_28  and  C_49
   15  A    between atoms: C_31  and  C_44
   16  A    between atoms: C_33  and  C_49
   17  A    between atoms: C_33  and  C_52
   18  A    between atoms: C_38  and  C_53
   19  A    between atoms: C_41  and  C_55
   20  A    between atoms: C_45  and  C_49
                            x       y       z     vdW  Elec       q    Type
                         _______ _______ _______ _____ _____    ______ ____

>  <TORSDO>
F 20

$$$$
=
 OpenBabel10262420413D

 55 58  0  0  1  0  0  0  0  0999 V2000
  187.8390  178.9180  140.8050 C   0  0  0  0  0  2  0  0  0  0  0  0
  190.4920  176.6600  139.9560 C   0  0  2  0  0  3  0  0  0  0  0  0
  189.2480  177.9560  136.2630 O   0  0  0  0  0  1  0  0  0  0  0  0
  188.8270  175.3610  138.5720 C   0  0  0  0  0  1  0  0  0  0  0  0
  188.2180  178.2250  137.1660 C   0  0  2  0  0  0  0  0  0  0  0  0
  188.6810  177.9200  138.6040 C   0  0  2  0  0  3  0  0  0  0  0  0
  186.1450  178.1730  139.1100 C   0  0  1  0  0  3  0  0  0  0  0  0
  190.0630  175.5880  142.0610 O   0  0  0  0  0  1  0  0  0  0  0  0
  189.5900  176.6730  138.7130 C   0  0  1  0  0  3  0  0  0  0  0  0
  187.0050  177.3720  136.7910 C   0  0  0  0  0  2  0  0  0  0  0  0
  189.3110  178.9560  141.2290 C   0  0  0  0  0  2  0  0  0  0  0  0
  187.8740  179.6990  137.0420 C   0  0  0  0  0  1  0  0  0  0  0  0
  187.5530  177.9210  139.6720 C   0  0  2  0  0  3  0  0  0  0  0  0
  189.6680  176.6590  141.2620 C   0  0  1  0  0  3  0  0  0  0  0  0
  185.8490  177.3940  137.8120 C   0  0  2  0  0  3  0  0  0  0  0  0
  189.7130  177.8550  142.0170 O   0  0  0  0  0  0  0  0  0  0  0  0
  184.8140  179.1310  141.0510 C   0  0  0  0  0  1  0  0  0  0  0  0
  185.0670  177.9150  140.1700 C   0  0  0  0  0  2  0  0  0  0  0  0
  184.5380  177.8770  137.1820 C   0  0  1  0  0  3  0  0  0  0  0  0
  184.2230  175.0440  136.9500 O   0  0  0  0  0  0  0  0  0  0  0  0
  184.2320  177.1600  135.9500 N   0  0  0  0  0  2  0  0  0  0  0  0
  184.1170  175.7360  135.9000 C   0  0  0  0  0  0  0  0  0  0  0  0
  183.8590  175.0660  134.5940 C   0  0  0  0  0  2  0  0  0  0  0  0
  182.6160  174.3130  134.6540 N   0  0  0  0  0  0  0  0  0  0  0  0
  182.8470  173.2110  135.5750 C   0  0  0  0  0  1  0  0  0  0  0  0
  181.6270  175.1820  135.2780 C   0  0  0  0  0  2  0  0  0  0  0  0
  180.2150  175.2910  137.3290 C   0  0  0  0  0  1  0  0  0  0  0  0
  180.7680  174.3860  136.2470 C   0  0  0  0  0  2  0  0  0  0  0  0
  183.3750  177.7730  138.1570 C   0  0  0  0  0  2  0  0  0  0  0  0
  181.3820  178.7580  136.8690 C   0  0  0  0  0  3  0  0  0  0  0  0
  180.9650  181.1130  137.0510 N   0  0  0  0  0  0  0  0  0  0  0  0
  182.5830  180.0470  138.5620 C   0  0  0  0  0  3  0  0  0  0  0  0
  181.6500  181.2090  138.3460 C   0  0  0  0  0  2  0  0  0  0  0  0
  180.7050  179.8320  136.4580 C   0  0  0  0  0  3  0  0  0  0  0  0
  182.4130  178.8890  137.9180 C   0  0  0  0  0  0  0  0  0  0  0  0
  180.3600  182.2950  136.4440 C   0  0  2  0  0  3  0  0  0  0  0  0
  178.9340  182.3260  136.7150 N   0  0  0  0  0  1  0  0  0  0  0  0
  180.6060  182.3160  134.9470 C   0  0  0  0  0  1  0  0  0  0  0  0
  191.4070  177.7180  139.8980 O   0  0  0  0  0  0  0  0  0  0  0  0
  192.5800  177.1760  139.3630 C   0  0  0  0  0  2  0  0  0  0  0  0
  192.4400  177.0300  137.9720 O   0  0  0  0  0  0  0  0  0  0  0  0
  193.4500  176.1770  137.4510 C   0  0  2  0  0  3  0  0  0  0  0  0
  193.9540  176.5410  136.2020 F   0  0  0  0  0  0  0  0  0  0  0  0
  193.0060  174.7110  137.4390 C   0  0  1  0  0  3  0  0  0  0  0  0
  191.8600  174.4630  136.5150 C   0  0  2  0  0  3  0  0  0  0  0  0
  190.7230  174.2180  135.6010 C   0  0  1  0  0  3  0  0  0  0  0  0
  191.5310  173.2000  135.9880 C   0  0  0  0  0  2  0  0  0  0  0  0
  189.5550  174.7210  134.8300 C   0  0  0  0  0  2  0  0  0  0  0  0
  188.3250  173.9150  135.1930 C   0  0  0  0  0  1  0  0  0  0  0  0
  194.1650  173.7510  137.1960 C   0  0  0  0  0  2  0  0  0  0  0  0
  195.2530  172.8200  139.1190 O   0  0  0  0  0  1  0  0  0  0  0  0
  195.2210  173.9350  138.2740 C   0  0  1  0  0  3  0  0  0  0  0  0
  197.5260  173.3920  137.9100 O   0  0  0  0  0  1  0  0  0  0  0  0
  196.5620  174.1650  137.6610 C   0  0  0  0  0  0  0  0  0  0  0  0
  196.7420  175.2290  136.7880 O   0  0  0  0  0  0  0  0  0  0  0  0
  1 11  1  0  0  0  0
  2 39  1  1  0  0  0
  2 14  1  0  0  0  0
  3  5  1  0  0  0  0
  4  9  1  0  0  0  0
  5 12  1  6  0  0  0
  5  6  1  0  0  0  0
  6  9  1  0  0  0  0
  6 13  1  0  0  0  0
  7 13  1  0  0  0  0
  7 18  1  0  0  0  0
  9  2  1  0  0  0  0
 10  5  1  0  0  0  0
 10 15  1  0  0  0  0
 11 16  1  0  0  0  0
 13  1  1  0  0  0  0
 14 16  1  0  0  0  0
 14  8  1  0  0  0  0
 15  7  1  0  0  0  0
 18 17  1  0  0  0  0
 19 15  1  0  0  0  0
 19 29  1  0  0  0  0
 21 19  1  0  0  0  0
 22 21  1  0  0  0  0
 22 20  2  0  0  0  0
 23 24  1  0  0  0  0
 23 22  1  0  0  0  0
 24 26  1  0  0  0  0
 24 25  1  0  0  0  0
 26 28  1  0  0  0  0
 28 27  1  0  0  0  0
 30 35  1  0  0  0  0
 31 33  1  0  0  0  0
 33 32  1  0  0  0  0
 34 30  2  0  0  0  0
 34 31  1  0  0  0  0
 35 29  1  0  0  0  0
 35 32  2  0  0  0  0
 36 37  1  0  0  0  0
 36 31  1  0  0  0  0
 38 36  1  0  0  0  0
 40 39  1  0  0  0  0
 41 40  1  0  0  0  0
 42 41  1  0  0  0  0
 43 42  1  0  0  0  0
 44 42  1  0  0  0  0
 45 44  1  0  0  0  0
 46 47  1  0  0  0  0
 46 45  1  0  0  0  0
 47 45  1  0  0  0  0
 48 49  1  0  0  0  0
 48 46  1  0  0  0  0
 50 44  1  0  0  0  0
 50 52  1  0  0  0  0
 52 51  1  0  0  0  0
 54 53  1  0  0  0  0
 54 52  1  0  0  0  0
 55 54  2  0  0  0  0
M  END
>  <MODEL>
5

>  <REMARK>
 VINA RESULT:      -3.2      4.505     10.272
  Name = 
  20 active torsions:
  status: ('A' for Active; 'I' for Inactive)
    1  A    between atoms: C_1  and  O_30
    2  A    between atoms: C_1  and  C_53
    3  A    between atoms: C_6  and  C_53
    4  A    between atoms: C_7  and  O_8
    5  A    between atoms: O_8  and  C_20
    6  A    between atoms: C_10  and  N_32
    7  A    between atoms: C_11  and  C_29
    8  A    between atoms: C_11  and  C_38
    9  A    between atoms: C_12  and  C_14
   10  A    between atoms: C_19  and  C_40
   11  A    between atoms: C_20  and  O_30
   12  A    between atoms: N_27  and  C_31
   13  A    between atoms: N_27  and  C_55
   14  A    between atoms: N_28  and  C_49
   15  A    between atoms: C_31  and  C_44
   16  A    between atoms: C_33  and  C_49
   17  A    between atoms: C_33  and  C_52
   18  A    between atoms: C_38  and  C_53
   19  A    between atoms: C_41  and  C_55
   20  A    between atoms: C_45  and  C_49
                            x       y       z     vdW  Elec       q    Type
                         _______ _______ _______ _____ _____    ______ ____

>  <TORSDO>
F 20

$$$$
=
 OpenBabel10262420413D

 55 58  0  0  1  0  0  0  0  0999 V2000
  187.3420  178.8750  140.6890 C   0  0  0  0  0  2  0  0  0  0  0  0
  189.9990  176.7870  139.4930 C   0  0  2  0  0  3  0  0  0  0  0  0
  188.2060  177.9870  136.0000 O   0  0  0  0  0  1  0  0  0  0  0  0
  188.2540  175.3790  138.3310 C   0  0  0  0  0  1  0  0  0  0  0  0
  187.2870  178.1930  137.0290 C   0  0  2  0  0  0  0  0  0  0  0  0
  187.9510  177.9240  138.3940 C   0  0  2  0  0  3  0  0  0  0  0  0
  185.4920  178.0180  139.2260 C   0  0  1  0  0  3  0  0  0  0  0  0
  189.9160  175.6980  141.6310 O   0  0  0  0  0  1  0  0  0  0  0  0
  188.9450  176.7370  138.3780 C   0  0  1  0  0  3  0  0  0  0  0  0
  186.0920  177.2630  136.8120 C   0  0  0  0  0  2  0  0  0  0  0  0
  188.8510  179.0080  140.9190 C   0  0  0  0  0  2  0  0  0  0  0  0
  186.8370  179.6420  136.9580 C   0  0  0  0  0  1  0  0  0  0  0  0
  186.9740  177.8570  139.6000 C   0  0  2  0  0  3  0  0  0  0  0  0
  189.3540  176.7380  140.8960 C   0  0  1  0  0  3  0  0  0  0  0  0
  185.0800  177.2160  137.9740 C   0  0  2  0  0  3  0  0  0  0  0  0
  189.4210  177.9370  141.6430 O   0  0  0  0  0  0  0  0  0  0  0  0
  184.1070  178.9470  141.1430 C   0  0  0  0  0  1  0  0  0  0  0  0
  184.5800  177.6960  140.4160 C   0  0  0  0  0  2  0  0  0  0  0  0
  183.6700  177.6130  137.5220 C   0  0  1  0  0  3  0  0  0  0  0  0
  181.2020  178.6970  138.4770 O   0  0  0  0  0  0  0  0  0  0  0  0
  183.4040  179.0270  137.7560 N   0  0  0  0  0  2  0  0  0  0  0  0
  182.1330  179.5030  138.2080 C   0  0  0  0  0  0  0  0  0  0  0  0
  181.9160  180.9690  138.3710 C   0  0  0  0  0  2  0  0  0  0  0  0
  180.5640  181.3220  137.9660 N   0  0  0  0  0  0  0  0  0  0  0  0
  179.9610  182.0030  139.1010 C   0  0  0  0  0  1  0  0  0  0  0  0
  180.6870  182.3090  136.9010 C   0  0  0  0  0  2  0  0  0  0  0  0
  181.1800  184.6970  136.3890 C   0  0  0  0  0  1  0  0  0  0  0  0
  181.1780  183.6310  137.4660 C   0  0  0  0  0  2  0  0  0  0  0  0
  183.4310  177.2640  136.0600 C   0  0  0  0  0  2  0  0  0  0  0  0
  181.3550  175.7850  136.3840 C   0  0  0  0  0  3  0  0  0  0  0  0
  181.6370  173.4040  136.3230 N   0  0  0  0  0  0  0  0  0  0  0  0
  183.4850  174.8640  135.6190 C   0  0  0  0  0  3  0  0  0  0  0  0
  182.8620  173.4960  135.5190 C   0  0  0  0  0  2  0  0  0  0  0  0
  180.8350  174.5690  136.5620 C   0  0  0  0  0  3  0  0  0  0  0  0
  182.7620  175.9330  135.9620 C   0  0  0  0  0  0  0  0  0  0  0  0
  181.1090  172.1030  136.7200 C   0  0  2  0  0  3  0  0  0  0  0  0
  181.8550  171.0380  136.0740 N   0  0  0  0  0  1  0  0  0  0  0  0
  179.6360  171.9910  136.3710 C   0  0  0  0  0  1  0  0  0  0  0  0
  190.8300  177.9000  139.3220 O   0  0  0  0  0  0  0  0  0  0  0  0
  192.1260  177.3900  139.1970 C   0  0  0  0  0  2  0  0  0  0  0  0
  192.3740  177.0580  137.8540 O   0  0  0  0  0  0  0  0  0  0  0  0
  193.1150  175.8480  137.7630 C   0  0  2  0  0  3  0  0  0  0  0  0
  194.0350  175.6320  138.7880 F   0  0  0  0  0  0  0  0  0  0  0  0
  193.7920  175.6960  136.3980 C   0  0  1  0  0  3  0  0  0  0  0  0
  195.0110  174.8360  136.4520 C   0  0  2  0  0  3  0  0  0  0  0  0
  196.2200  173.9840  136.5050 C   0  0  1  0  0  3  0  0  0  0  0  0
  195.0730  173.5230  135.9470 C   0  0  0  0  0  2  0  0  0  0  0  0
  197.6430  173.7850  136.8870 C   0  0  0  0  0  2  0  0  0  0  0  0
  198.4930  174.8650  136.2490 C   0  0  0  0  0  1  0  0  0  0  0  0
  192.8210  175.2590  135.3080 C   0  0  0  0  0  2  0  0  0  0  0  0
  190.4720  175.7310  135.3870 O   0  0  0  0  0  1  0  0  0  0  0  0
  191.4740  174.9180  135.9250 C   0  0  1  0  0  3  0  0  0  0  0  0
  191.9410  172.5740  136.0920 O   0  0  0  0  0  1  0  0  0  0  0  0
  191.1490  173.4770  135.7110 C   0  0  0  0  0  0  0  0  0  0  0  0
  189.9500  173.1280  135.1050 O   0  0  0  0  0  0  0  0  0  0  0  0
  1 11  1  0  0  0  0
  2 39  1  1  0  0  0
  2 14  1  0  0  0  0
  3  5  1  0  0  0  0
  4  9  1  0  0  0  0
  5 12  1  6  0  0  0
  5  6  1  0  0  0  0
  6 13  1  0  0  0  0
  7 13  1  0  0  0  0
  7 18  1  0  0  0  0
  9  6  1  0  0  0  0
  9  2  1  0  0  0  0
 10  5  1  0  0  0  0
 10 15  1  0  0  0  0
 11 16  1  0  0  0  0
 13  1  1  0  0  0  0
 14  8  1  0  0  0  0
 14 16  1  0  0  0  0
 15  7  1  0  0  0  0
 18 17  1  0  0  0  0
 19 21  1  0  0  0  0
 19 15  1  0  0  0  0
 21 22  1  0  0  0  0
 22 23  1  0  0  0  0
 22 20  2  0  0  0  0
 24 23  1  0  0  0  0
 24 25  1  0  0  0  0
 26 28  1  0  0  0  0
 26 24  1  0  0  0  0
 27 28  1  0  0  0  0
 29 19  1  0  0  0  0
 30 34  2  0  0  0  0
 31 34  1  0  0  0  0
 31 36  1  0  0  0  0
 32 35  2  0  0  0  0
 33 32  1  0  0  0  0
 33 31  1  0  0  0  0
 35 29  1  0  0  0  0
 35 30  1  0  0  0  0
 37 36  1  0  0  0  0
 38 36  1  0  0  0  0
 40 39  1  0  0  0  0
 41 40  1  0  0  0  0
 42 41  1  0  0  0  0
 42 43  1  0  0  0  0
 44 45  1  0  0  0  0
 44 42  1  0  0  0  0
 45 46  1  0  0  0  0
 46 48  1  0  0  0  0
 47 45  1  0  0  0  0
 47 46  1  0  0  0  0
 49 48  1  0  0  0  0
 50 52  1  0  0  0  0
 50 44  1  0  0  0  0
 51 52  1  0  0  0  0
 54 52  1  0  0  0  0
 54 53  1  0  0  0  0
 55 54  2  0  0  0  0
M  END
>  <MODEL>
6

>  <REMARK>
 VINA RESULT:      -2.8      4.207     10.226
  Name = 
  20 active torsions:
  status: ('A' for Active; 'I' for Inactive)
    1  A    between atoms: C_1  and  O_30
    2  A    between atoms: C_1  and  C_53
    3  A    between atoms: C_6  and  C_53
    4  A    between atoms: C_7  and  O_8
    5  A    between atoms: O_8  and  C_20
    6  A    between atoms: C_10  and  N_32
    7  A    between atoms: C_11  and  C_29
    8  A    between atoms: C_11  and  C_38
    9  A    between atoms: C_12  and  C_14
   10  A    between atoms: C_19  and  C_40
   11  A    between atoms: C_20  and  O_30
   12  A    between atoms: N_27  and  C_31
   13  A    between atoms: N_27  and  C_55
   14  A    between atoms: N_28  and  C_49
   15  A    between atoms: C_31  and  C_44
   16  A    between atoms: C_33  and  C_49
   17  A    between atoms: C_33  and  C_52
   18  A    between atoms: C_38  and  C_53
   19  A    between atoms: C_41  and  C_55
   20  A    between atoms: C_45  and  C_49
                            x       y       z     vdW  Elec       q    Type
                         _______ _______ _______ _____ _____    ______ ____

>  <TORSDO>
F 20

$$$$
=
 OpenBabel10262420413D

 55 58  0  0  1  0  0  0  0  0999 V2000
  182.9000  179.4760  143.0650 C   0  0  0  0  0  2  0  0  0  0  0  0
  185.9960  178.4230  141.5950 C   0  0  2  0  0  3  0  0  0  0  0  0
  184.0210  180.0420  138.3800 O   0  0  0  0  0  1  0  0  0  0  0  0
  184.6530  177.0040  139.9950 C   0  0  0  0  0  1  0  0  0  0  0  0
  183.0630  179.7630  139.3570 C   0  0  2  0  0  0  0  0  0  0  0  0
  183.7520  179.3100  140.6590 C   0  0  2  0  0  3  0  0  0  0  0  0
  181.3300  178.6280  141.3020 C   0  0  1  0  0  3  0  0  0  0  0  0
  186.1430  176.8320  143.3870 O   0  0  0  0  0  1  0  0  0  0  0  0
  185.0000  178.4240  140.4260 C   0  0  1  0  0  3  0  0  0  0  0  0
  182.1280  178.6750  138.8280 C   0  0  0  0  0  2  0  0  0  0  0  0
  184.3310  179.8840  143.4330 C   0  0  0  0  0  2  0  0  0  0  0  0
  182.2830  181.0410  139.6110 C   0  0  0  0  0  1  0  0  0  0  0  0
  182.8010  178.7170  141.7340 C   0  0  2  0  0  3  0  0  0  0  0  0
  185.3600  177.8720  142.8900 C   0  0  1  0  0  3  0  0  0  0  0  0
  181.1390  178.1030  139.8640 C   0  0  2  0  0  3  0  0  0  0  0  0
  185.1290  178.8210  143.9120 O   0  0  0  0  0  0  0  0  0  0  0  0
  179.9530  178.6690  143.4370 C   0  0  0  0  0  1  0  0  0  0  0  0
  180.5030  177.8130  142.3040 C   0  0  0  0  0  2  0  0  0  0  0  0
  179.6820  178.2720  139.4190 C   0  0  1  0  0  3  0  0  0  0  0  0
  179.0430  181.0130  138.9100 O   0  0  0  0  0  0  0  0  0  0  0  0
  179.5860  178.8860  138.1000 N   0  0  0  0  0  2  0  0  0  0  0  0
  179.2330  180.2590  137.9170 C   0  0  0  0  0  0  0  0  0  0  0  0
  179.0980  180.8040  136.5360 C   0  0  0  0  0  2  0  0  0  0  0  0
  180.1270  181.8010  136.2880 N   0  0  0  0  0  0  0  0  0  0  0  0
  180.7460  181.4460  135.0210 C   0  0  0  0  0  1  0  0  0  0  0  0
  179.4430  183.0710  136.0810 C   0  0  0  0  0  2  0  0  0  0  0  0
  181.2210  184.5460  137.0160 C   0  0  0  0  0  1  0  0  0  0  0  0
  179.8010  184.0450  137.1900 C   0  0  0  0  0  2  0  0  0  0  0  0
  178.9310  176.9490  139.4420 C   0  0  0  0  0  2  0  0  0  0  0  0
  179.0510  175.8750  137.1110 C   0  0  0  0  0  3  0  0  0  0  0  0
  180.3290  173.8630  136.8520 N   0  0  0  0  0  0  0  0  0  0  0  0
  180.5060  175.1530  138.9360 C   0  0  0  0  0  3  0  0  0  0  0  0
  181.1680  174.1580  138.0200 C   0  0  0  0  0  2  0  0  0  0  0  0
  179.4170  174.8470  136.3440 C   0  0  0  0  0  3  0  0  0  0  0  0
  179.5660  175.9910  138.4900 C   0  0  0  0  0  0  0  0  0  0  0  0
  180.5500  172.6500  136.0700 C   0  0  2  0  0  3  0  0  0  0  0  0
  181.8780  172.6640  135.4830 N   0  0  0  0  0  1  0  0  0  0  0  0
  179.5010  172.5140  134.9810 C   0  0  0  0  0  1  0  0  0  0  0  0
  186.5400  179.7020  141.7660 O   0  0  0  0  0  0  0  0  0  0  0  0
  187.7520  179.6940  141.0680 C   0  0  0  0  0  2  0  0  0  0  0  0
  188.1680  178.3680  140.8620 O   0  0  0  0  0  0  0  0  0  0  0  0
  188.9170  178.2550  139.6590 C   0  0  2  0  0  3  0  0  0  0  0  0
  188.2410  177.6740  138.5860 F   0  0  0  0  0  0  0  0  0  0  0  0
  190.2590  177.5540  139.8870 C   0  0  1  0  0  3  0  0  0  0  0  0
  190.6140  177.4450  141.3330 C   0  0  2  0  0  3  0  0  0  0  0  0
  190.9680  177.3380  142.7650 C   0  0  1  0  0  3  0  0  0  0  0  0
  190.4640  176.2720  142.0960 C   0  0  0  0  0  2  0  0  0  0  0  0
  191.4920  177.9510  144.0150 C   0  0  0  0  0  2  0  0  0  0  0  0
  191.2130  179.4400  144.0030 C   0  0  0  0  0  1  0  0  0  0  0  0
  190.3490  176.2140  139.1650 C   0  0  0  0  0  2  0  0  0  0  0  0
  192.6290  176.6320  138.5550 O   0  0  0  0  0  1  0  0  0  0  0  0
  191.3700  176.3010  138.0430 C   0  0  1  0  0  3  0  0  0  0  0  0
  190.4590  174.6220  136.5970 O   0  0  0  0  0  0  0  0  0  0  0  0
  191.4350  175.0130  137.2920 C   0  0  0  0  0  0  0  0  0  0  0  0
  192.5930  174.2490  137.3400 O   0  0  0  0  0  1  0  0  0  0  0  0
  1 11  1  0  0  0  0
  2 39  1  1  0  0  0
  2 14  1  0  0  0  0
  3  5  1  0  0  0  0
  4  9  1  0  0  0  0
  5 12  1  1  0  0  0
  5  6  1  0  0  0  0
  6 13  1  0  0  0  0
  7 13  1  0  0  0  0
  7 18  1  0  0  0  0
  9  6  1  0  0  0  0
  9  2  1  0  0  0  0
 10  5  1  0  0  0  0
 10 15  1  0  0  0  0
 11 16  1  0  0  0  0
 13  1  1  0  0  0  0
 14  8  1  0  0  0  0
 14 16  1  0  0  0  0
 15  7  1  0  0  0  0
 18 17  1  0  0  0  0
 19 29  1  0  0  0  0
 19 15  1  0  0  0  0
 21 19  1  0  0  0  0
 22 21  1  0  0  0  0
 22 20  2  0  0  0  0
 23 22  1  0  0  0  0
 24 23  1  0  0  0  0
 25 24  1  0  0  0  0
 26 24  1  0  0  0  0
 26 28  1  0  0  0  0
 27 28  1  0  0  0  0
 30 35  1  0  0  0  0
 31 33  1  0  0  0  0
 33 32  1  0  0  0  0
 34 31  1  0  0  0  0
 34 30  2  0  0  0  0
 35 32  2  0  0  0  0
 35 29  1  0  0  0  0
 36 31  1  0  0  0  0
 37 36  1  0  0  0  0
 38 36  1  0  0  0  0
 40 39  1  0  0  0  0
 41 40  1  0  0  0  0
 42 44  1  0  0  0  0
 42 41  1  0  0  0  0
 43 42  1  0  0  0  0
 44 45  1  0  0  0  0
 45 47  1  0  0  0  0
 45 46  1  0  0  0  0
 46 48  1  0  0  0  0
 47 46  1  0  0  0  0
 49 48  1  0  0  0  0
 50 44  1  0  0  0  0
 52 51  1  0  0  0  0
 52 50  1  0  0  0  0
 53 54  2  0  0  0  0
 54 55  1  0  0  0  0
 54 52  1  0  0  0  0
M  END
>  <MODEL>
7

>  <REMARK>
 VINA RESULT:      -2.7      4.404      9.603
  Name = 
  20 active torsions:
  status: ('A' for Active; 'I' for Inactive)
    1  A    between atoms: C_1  and  O_30
    2  A    between atoms: C_1  and  C_53
    3  A    between atoms: C_6  and  C_53
    4  A    between atoms: C_7  and  O_8
    5  A    between atoms: O_8  and  C_20
    6  A    between atoms: C_10  and  N_32
    7  A    between atoms: C_11  and  C_29
    8  A    between atoms: C_11  and  C_38
    9  A    between atoms: C_12  and  C_14
   10  A    between atoms: C_19  and  C_40
   11  A    between atoms: C_20  and  O_30
   12  A    between atoms: N_27  and  C_31
   13  A    between atoms: N_27  and  C_55
   14  A    between atoms: N_28  and  C_49
   15  A    between atoms: C_31  and  C_44
   16  A    between atoms: C_33  and  C_49
   17  A    between atoms: C_33  and  C_52
   18  A    between atoms: C_38  and  C_53
   19  A    between atoms: C_41  and  C_55
   20  A    between atoms: C_45  and  C_49
                            x       y       z     vdW  Elec       q    Type
                         _______ _______ _______ _____ _____    ______ ____

>  <TORSDO>
F 20

$$$$
=
 OpenBabel10262420413D

 55 58  0  0  1  0  0  0  0  0999 V2000
  181.9590  178.9680  142.2730 C   0  0  0  0  0  2  0  0  0  0  0  0
  185.4950  178.7080  141.7400 C   0  0  2  0  0  3  0  0  0  0  0  0
  184.2650  180.7420  138.3920 O   0  0  0  0  0  1  0  0  0  0  0  0
  184.9920  177.5280  139.5650 C   0  0  0  0  0  1  0  0  0  0  0  0
  183.1400  180.1200  138.9350 C   0  0  2  0  0  0  0  0  0  0  0  0
  183.4940  179.4770  140.2900 C   0  0  2  0  0  3  0  0  0  0  0  0
  181.1770  178.3450  139.9710 C   0  0  1  0  0  3  0  0  0  0  0  0
  185.4260  176.7820  143.1720 O   0  0  0  0  0  1  0  0  0  0  0  0
  184.9060  178.8440  140.3280 C   0  0  1  0  0  3  0  0  0  0  0  0
  182.6380  179.0670  137.9460 C   0  0  0  0  0  2  0  0  0  0  0  0
  183.1070  179.4690  143.1560 C   0  0  0  0  0  2  0  0  0  0  0  0
  182.0800  181.1880  139.1390 C   0  0  0  0  0  1  0  0  0  0  0  0
  182.4080  178.5290  140.8720 C   0  0  2  0  0  3  0  0  0  0  0  0
  184.6320  177.7930  142.6360 C   0  0  1  0  0  3  0  0  0  0  0  0
  181.5240  178.1440  138.4820 C   0  0  2  0  0  3  0  0  0  0  0  0
  183.9260  178.4420  143.6750 O   0  0  0  0  0  0  0  0  0  0  0  0
  179.2530  177.7090  141.5040 C   0  0  0  0  0  1  0  0  0  0  0  0
  180.2740  177.2180  140.4870 C   0  0  0  0  0  2  0  0  0  0  0  0
  180.2590  178.2140  137.6200 C   0  0  1  0  0  3  0  0  0  0  0  0
  181.2650  176.5270  135.5420 O   0  0  0  0  0  0  0  0  0  0  0  0
  179.7530  176.8860  137.2920 N   0  0  0  0  0  2  0  0  0  0  0  0
  180.2860  176.1080  136.2170 C   0  0  0  0  0  0  0  0  0  0  0  0
  179.6810  174.7820  135.9020 C   0  0  0  0  0  2  0  0  0  0  0  0
  180.3370  173.7370  136.6710 N   0  0  0  0  0  0  0  0  0  0  0  0
  179.6700  172.4910  136.3250 C   0  0  0  0  0  1  0  0  0  0  0  0
  181.7010  173.6370  136.1670 C   0  0  0  0  0  2  0  0  0  0  0  0
  183.8840  172.6280  136.8200 C   0  0  0  0  0  1  0  0  0  0  0  0
  182.6650  173.3810  137.3140 C   0  0  0  0  0  2  0  0  0  0  0  0
  179.1710  179.0440  138.2870 C   0  0  0  0  0  2  0  0  0  0  0  0
  178.9890  180.3830  136.1020 C   0  0  0  0  0  3  0  0  0  0  0  0
  179.3130  182.7570  136.1940 N   0  0  0  0  0  0  0  0  0  0  0  0
  179.0680  181.4830  138.2820 C   0  0  0  0  0  3  0  0  0  0  0  0
  178.9410  182.8270  137.6130 C   0  0  0  0  0  2  0  0  0  0  0  0
  179.1380  181.5400  135.4550 C   0  0  0  0  0  3  0  0  0  0  0  0
  179.0270  180.3490  137.5780 C   0  0  0  0  0  0  0  0  0  0  0  0
  179.6750  183.9680  135.4640 C   0  0  2  0  0  3  0  0  0  0  0  0
  181.0430  183.8760  134.9830 N   0  0  0  0  0  1  0  0  0  0  0  0
  179.5150  185.1940  136.3440 C   0  0  0  0  0  1  0  0  0  0  0  0
  185.6970  179.9740  142.3010 O   0  0  0  0  0  0  0  0  0  0  0  0
  187.0700  180.0620  142.5530 C   0  0  0  0  0  2  0  0  0  0  0  0
  187.7600  179.1610  141.7240 O   0  0  0  0  0  0  0  0  0  0  0  0
  188.2940  178.0840  142.4830 C   0  0  2  0  0  3  0  0  0  0  0  0
  188.0140  178.1190  143.8490 F   0  0  0  0  0  0  0  0  0  0  0  0
  189.7980  177.9150  142.2510 C   0  0  1  0  0  3  0  0  0  0  0  0
  190.5470  177.6330  143.5110 C   0  0  2  0  0  3  0  0  0  0  0  0
  191.2880  177.3530  144.7600 C   0  0  1  0  0  3  0  0  0  0  0  0
  191.3320  178.5830  144.1920 C   0  0  0  0  0  2  0  0  0  0  0  0
  191.6870  176.4130  145.8410 C   0  0  0  0  0  2  0  0  0  0  0  0
  190.7580  176.5820  147.0260 C   0  0  0  0  0  1  0  0  0  0  0  0
  190.1110  176.9060  141.1520 C   0  0  0  0  0  2  0  0  0  0  0  0
  192.3400  177.5640  140.5640 O   0  0  0  0  0  1  0  0  0  0  0  0
  191.0170  177.5420  140.1110 C   0  0  1  0  0  3  0  0  0  0  0  0
  191.8650  176.8470  137.9810 O   0  0  0  0  0  0  0  0  0  0  0  0
  190.9210  176.8100  138.8150 C   0  0  0  0  0  0  0  0  0  0  0  0
  189.7870  176.0590  138.5340 O   0  0  0  0  0  1  0  0  0  0  0  0
  1 11  1  0  0  0  0
  2 39  1  1  0  0  0
  2 14  1  0  0  0  0
  3  5  1  0  0  0  0
  4  9  1  0  0  0  0
  5 12  1  1  0  0  0
  5  6  1  0  0  0  0
  6  9  1  0  0  0  0
  6 13  1  0  0  0  0
  7 18  1  0  0  0  0
  7 13  1  0  0  0  0
  9  2  1  0  0  0  0
 10 15  1  0  0  0  0
 10  5  1  0  0  0  0
 11 16  1  0  0  0  0
 13  1  1  0  0  0  0
 14  8  1  0  0  0  0
 14 16  1  0  0  0  0
 15  7  1  0  0  0  0
 18 17  1  0  0  0  0
 19 29  1  0  0  0  0
 19 15  1  0  0  0  0
 20 22  2  0  0  0  0
 21 19  1  0  0  0  0
 22 21  1  0  0  0  0
 23 22  1  0  0  0  0
 23 24  1  0  0  0  0
 25 24  1  0  0  0  0
 26 24  1  0  0  0  0
 26 28  1  0  0  0  0
 27 28  1  0  0  0  0
 30 35  1  0  0  0  0
 31 33  1  0  0  0  0
 33 32  1  0  0  0  0
 34 30  2  0  0  0  0
 34 31  1  0  0  0  0
 35 32  2  0  0  0  0
 35 29  1  0  0  0  0
 36 31  1  0  0  0  0
 36 38  1  0  0  0  0
 37 36  1  0  0  0  0
 39 40  1  0  0  0  0
 41 42  1  0  0  0  0
 41 40  1  0  0  0  0
 42 43  1  0  0  0  0
 44 42  1  0  0  0  0
 44 45  1  0  0  0  0
 45 47  1  0  0  0  0
 45 46  1  0  0  0  0
 46 48  1  0  0  0  0
 47 46  1  0  0  0  0
 48 49  1  0  0  0  0
 50 44  1  0  0  0  0
 52 51  1  0  0  0  0
 52 50  1  0  0  0  0
 53 54  2  0  0  0  0
 54 52  1  0  0  0  0
 55 54  1  0  0  0  0
M  END
>  <MODEL>
8

>  <REMARK>
 VINA RESULT:      -2.7      4.191      9.894
  Name = 
  20 active torsions:
  status: ('A' for Active; 'I' for Inactive)
    1  A    between atoms: C_1  and  O_30
    2  A    between atoms: C_1  and  C_53
    3  A    between atoms: C_6  and  C_53
    4  A    between atoms: C_7  and  O_8
    5  A    between atoms: O_8  and  C_20
    6  A    between atoms: C_10  and  N_32
    7  A    between atoms: C_11  and  C_29
    8  A    between atoms: C_11  and  C_38
    9  A    between atoms: C_12  and  C_14
   10  A    between atoms: C_19  and  C_40
   11  A    between atoms: C_20  and  O_30
   12  A    between atoms: N_27  and  C_31
   13  A    between atoms: N_27  and  C_55
   14  A    between atoms: N_28  and  C_49
   15  A    between atoms: C_31  and  C_44
   16  A    between atoms: C_33  and  C_49
   17  A    between atoms: C_33  and  C_52
   18  A    between atoms: C_38  and  C_53
   19  A    between atoms: C_41  and  C_55
   20  A    between atoms: C_45  and  C_49
                            x       y       z     vdW  Elec       q    Type
                         _______ _______ _______ _____ _____    ______ ____

>  <TORSDO>
F 20

$$$$
=
 OpenBabel10262420413D

 55 58  0  0  1  0  0  0  0  0999 V2000
  189.8480  176.2220  140.8250 C   0  0  0  0  0  2  0  0  0  0  0  0
  187.7520  179.0970  140.3790 C   0  0  2  0  0  3  0  0  0  0  0  0
  186.9670  176.9220  136.9860 O   0  0  0  0  0  1  0  0  0  0  0  0
  188.9570  179.5300  138.2020 C   0  0  0  0  0  1  0  0  0  0  0  0
  188.1750  176.4550  137.5070 C   0  0  2  0  0  0  0  0  0  0  0  0
  188.4490  177.1090  138.8760 C   0  0  2  0  0  3  0  0  0  0  0  0
  190.8080  176.0840  138.5100 C   0  0  1  0  0  3  0  0  0  0  0  0
  189.2780  180.2580  141.8240 O   0  0  0  0  0  1  0  0  0  0  0  0
  188.0170  178.5930  138.9530 C   0  0  1  0  0  3  0  0  0  0  0  0
  189.2930  176.7780  136.5150 C   0  0  0  0  0  2  0  0  0  0  0  0
  188.7320  176.7520  141.7310 C   0  0  0  0  0  2  0  0  0  0  0  0
  188.0490  174.9510  137.6770 C   0  0  0  0  0  1  0  0  0  0  0  0
  189.8790  176.8820  139.4390 C   0  0  2  0  0  3  0  0  0  0  0  0
  189.0170  179.0110  141.2620 C   0  0  1  0  0  3  0  0  0  0  0  0
  190.7220  176.5140  137.0310 C   0  0  2  0  0  3  0  0  0  0  0  0
  188.9890  178.0280  142.2780 O   0  0  0  0  0  0  0  0  0  0  0  0
  192.5890  177.4010  139.7550 C   0  0  0  0  0  1  0  0  0  0  0  0
  192.2560  176.1140  139.0130 C   0  0  0  0  0  2  0  0  0  0  0  0
  191.4800  175.5260  136.1390 C   0  0  1  0  0  3  0  0  0  0  0  0
  190.7780  172.7850  136.5560 O   0  0  0  0  0  0  0  0  0  0  0  0
  190.5750  174.7490  135.3000 N   0  0  0  0  0  2  0  0  0  0  0  0
  190.2910  173.3700  135.5510 C   0  0  0  0  0  0  0  0  0  0  0  0
  189.4010  172.6240  134.6170 C   0  0  0  0  0  2  0  0  0  0  0  0
  188.2080  172.1720  135.3160 N   0  0  0  0  0  0  0  0  0  0  0  0
  188.3890  172.5340  136.7130 C   0  0  0  0  0  1  0  0  0  0  0  0
  187.0980  172.9710  134.8150 C   0  0  0  0  0  2  0  0  0  0  0  0
  185.6270  172.4030  136.7450 C   0  0  0  0  0  1  0  0  0  0  0  0
  185.7760  172.3530  135.2370 C   0  0  0  0  0  2  0  0  0  0  0  0
  192.5230  176.2290  135.2820 C   0  0  0  0  0  2  0  0  0  0  0  0
  195.0620  176.6230  135.2800 C   0  0  0  0  0  3  0  0  0  0  0  0
  196.4830  174.8750  136.1030 N   0  0  0  0  0  0  0  0  0  0  0  0
  194.0550  174.7310  136.4540 C   0  0  0  0  0  3  0  0  0  0  0  0
  195.4160  174.2960  136.9290 C   0  0  0  0  0  2  0  0  0  0  0  0
  196.2940  176.1390  135.4520 C   0  0  0  0  0  3  0  0  0  0  0  0
  193.8920  175.8490  135.7410 C   0  0  0  0  0  0  0  0  0  0  0  0
  197.8160  174.2810  136.0940 C   0  0  2  0  0  3  0  0  0  0  0  0
  198.8260  175.3120  135.9300 N   0  0  0  0  0  1  0  0  0  0  0  0
  197.9390  173.2530  134.9850 C   0  0  0  0  0  1  0  0  0  0  0  0
  186.6620  178.4180  140.9350 O   0  0  0  0  0  0  0  0  0  0  0  0
  185.5220  179.0380  140.4110 C   0  0  0  0  0  2  0  0  0  0  0  0
  184.6840  179.4470  141.4620 O   0  0  0  0  0  0  0  0  0  0  0  0
  184.9640  178.7130  142.6460 C   0  0  2  0  0  3  0  0  0  0  0  0
  184.9610  177.3250  142.5040 F   0  0  0  0  0  0  0  0  0  0  0  0
  184.0550  179.1320  143.8050 C   0  0  1  0  0  3  0  0  0  0  0  0
  182.6040  178.9950  143.4770 C   0  0  2  0  0  3  0  0  0  0  0  0
  181.1670  178.8620  143.1520 C   0  0  1  0  0  3  0  0  0  0  0  0
  181.6230  178.5810  144.3980 C   0  0  0  0  0  2  0  0  0  0  0  0
  180.0500  178.9640  142.1770 C   0  0  0  0  0  2  0  0  0  0  0  0
  179.2610  180.2300  142.4420 C   0  0  0  0  0  1  0  0  0  0  0  0
  184.4210  178.4430  145.1140 C   0  0  0  0  0  2  0  0  0  0  0  0
  185.4180  179.6270  146.9450 O   0  0  0  0  0  1  0  0  0  0  0  0
  185.6810  179.0690  145.6900 C   0  0  1  0  0  3  0  0  0  0  0  0
  186.9600  177.2190  144.8640 O   0  0  0  0  0  0  0  0  0  0  0  0
  186.7720  178.0550  145.7870 C   0  0  0  0  0  0  0  0  0  0  0  0
  187.6040  178.0490  146.8980 O   0  0  0  0  0  1  0  0  0  0  0  0
  1 11  1  0  0  0  0
  2 39  1  1  0  0  0
  2 14  1  0  0  0  0
  3  5  1  0  0  0  0
  4  9  1  0  0  0  0
  5 12  1  1  0  0  0
  5  6  1  0  0  0  0
  6  9  1  0  0  0  0
  6 13  1  0  0  0  0
  7 18  1  0  0  0  0
  7 13  1  0  0  0  0
  9  2  1  0  0  0  0
 10 15  1  0  0  0  0
 10  5  1  0  0  0  0
 11 16  1  0  0  0  0
 13  1  1  0  0  0  0
 14  8  1  0  0  0  0
 14 16  1  0  0  0  0
 15  7  1  0  0  0  0
 18 17  1  0  0  0  0
 19 15  1  0  0  0  0
 21 22  1  0  0  0  0
 21 19  1  0  0  0  0
 22 20  2  0  0  0  0
 23 24  1  0  0  0  0
 23 22  1  0  0  0  0
 24 25  1  0  0  0  0
 26 28  1  0  0  0  0
 26 24  1  0  0  0  0
 28 27  1  0  0  0  0
 29 35  1  0  0  0  0
 29 19  1  0  0  0  0
 30 34  2  0  0  0  0
 30 35  1  0  0  0  0
 31 33  1  0  0  0  0
 32 33  1  0  0  0  0
 34 31  1  0  0  0  0
 35 32  2  0  0  0  0
 36 31  1  0  0  0  0
 37 36  1  0  0  0  0
 38 36  1  0  0  0  0
 40 39  1  0  0  0  0
 40 41  1  0  0  0  0
 41 42  1  0  0  0  0
 42 44  1  0  0  0  0
 43 42  1  0  0  0  0
 44 50  1  0  0  0  0
 45 44  1  0  0  0  0
 45 47  1  0  0  0  0
 46 45  1  0  0  0  0
 46 47  1  0  0  0  0
 48 49  1  0  0  0  0
 48 46  1  0  0  0  0
 50 52  1  0  0  0  0
 52 54  1  0  0  0  0
 52 51  1  0  0  0  0
 53 54  2  0  0  0  0
 54 55  1  0  0  0  0
M  END
>  <MODEL>
9

>  <REMARK>
 VINA RESULT:      -2.5      4.861      9.625
  Name = 
  20 active torsions:
  status: ('A' for Active; 'I' for Inactive)
    1  A    between atoms: C_1  and  O_30
    2  A    between atoms: C_1  and  C_53
    3  A    between atoms: C_6  and  C_53
    4  A    between atoms: C_7  and  O_8
    5  A    between atoms: O_8  and  C_20
    6  A    between atoms: C_10  and  N_32
    7  A    between atoms: C_11  and  C_29
    8  A    between atoms: C_11  and  C_38
    9  A    between atoms: C_12  and  C_14
   10  A    between atoms: C_19  and  C_40
   11  A    between atoms: C_20  and  O_30
   12  A    between atoms: N_27  and  C_31
   13  A    between atoms: N_27  and  C_55
   14  A    between atoms: N_28  and  C_49
   15  A    between atoms: C_31  and  C_44
   16  A    between atoms: C_33  and  C_49
   17  A    between atoms: C_33  and  C_52
   18  A    between atoms: C_38  and  C_53
   19  A    between atoms: C_41  and  C_55
   20  A    between atoms: C_45  and  C_49
                            x       y       z     vdW  Elec       q    Type
                         _______ _______ _______ _____ _____    ______ ____

>  <TORSDO>
F 20

$$$$
