=
 OpenBabel10262420383D

 55 59  0  0  1  0  0  0  0  0999 V2000
  186.6340  178.0560  136.0080 O   0  0  0  0  0  0  0  0  0  0  0  0
  188.4030  177.1080  137.2840 C   0  0  1  0  0  3  0  0  0  0  0  0
  187.5410  179.0860  136.2940 C   0  0  0  0  0  2  0  0  0  0  0  0
  186.9350  177.0340  136.9240 C   0  0  2  0  0  3  0  0  0  0  0  0
  188.8220  178.4670  136.8020 C   0  0  0  0  0  2  0  0  0  0  0  0
  188.5630  177.0110  138.7910 C   0  0  0  0  0  2  0  0  0  0  0  0
  189.8680  177.6600  139.2120 C   0  0  0  0  0  2  0  0  0  0  0  0
  190.6750  176.7050  140.0700 C   0  0  0  0  0  2  0  0  0  0  0  0
  192.2410  177.4790  140.5750 S   0  0  0  0  0  0  0  0  0  0  0  0
  192.1280  176.8560  142.1730 O   0  0  0  0  0  0  0  0  0  0  0  0
  191.9960  177.9840  142.9870 C   0  0  0  0  0  2  0  0  0  0  0  0
  190.8430  176.2940  144.1930 O   0  0  0  0  0  1  0  0  0  0  0  0
  191.1900  177.6450  144.2360 C   0  0  0  0  0  0  0  0  0  0  0  0
  191.9610  177.8690  145.3760 O   0  0  0  0  0  1  0  0  0  0  0  0
  189.8920  178.4590  144.2990 C   0  0  0  0  0  2  0  0  0  0  0  0
  188.6830  177.9770  143.4710 C   0  0  2  0  0  3  0  0  0  0  0  0
  188.5690  178.6340  142.2440 O   0  0  0  0  0  1  0  0  0  0  0  0
  187.3110  177.7720  144.1830 C   0  0  2  0  0  0  0  0  0  0  0  0
  184.5630  177.7800  145.0320 O   0  0  0  0  0  1  0  0  0  0  0  0
  185.2190  177.9750  142.6740 C   0  0  1  0  0  3  0  0  0  0  0  0
  184.0910  179.9820  143.9730 C   0  0  0  0  0  1  0  0  0  0  0  0
  184.8410  178.6580  143.9840 C   0  0  1  0  0  0  0  0  0  0  0  0
  184.8650  178.8010  141.4490 C   0  0  0  0  0  1  0  0  0  0  0  0
  186.2850  178.7160  143.4930 C   0  0  1  0  0  3  0  0  0  0  0  0
  188.3530  177.4050  146.5080 C   0  0  0  0  0  2  0  0  0  0  0  0
  186.8590  177.2210  146.6690 C   0  0  0  0  0  2  0  0  0  0  0  0
  187.3950  178.2360  145.6700 C   0  0  0  0  0  3  0  0  0  0  0  0
  186.8830  176.4180  144.0530 O   0  0  0  0  0  0  0  0  0  0  0  0
  187.7670  175.7650  143.3190 O   0  0  0  0  0  1  0  0  0  0  0  0
  186.5650  175.6550  136.3720 C   0  0  2  0  0  3  0  0  0  0  0  0
  187.6410  175.0840  135.4510 C   0  0  0  0  0  2  0  0  0  0  0  0
  187.4070  173.3140  137.0200 O   0  0  0  0  0  1  0  0  0  0  0  0
  187.9070  173.6180  135.7540 C   0  0  2  0  0  3  0  0  0  0  0  0
  189.4010  173.3430  135.7130 C   0  0  0  0  0  2  0  0  0  0  0  0
  190.0510  173.7780  137.0110 C   0  0  0  0  0  1  0  0  0  0  0  0
  185.2410  175.7430  135.6330 C   0  0  0  0  0  2  0  0  0  0  0  0
  183.7490  171.8030  137.0780 C   0  0  0  0  0  1  0  0  0  0  0  0
  181.8620  173.5290  136.5830 C   0  0  2  0  0  3  0  0  0  0  0  0
  183.3820  173.1990  136.6070 C   0  0  1  0  0  3  0  0  0  0  0  0
  182.7380  175.8250  135.8600 C   0  0  2  0  0  3  0  0  0  0  0  0
  181.5990  175.0420  136.5280 C   0  0  0  0  0  2  0  0  0  0  0  0
  184.1710  174.2690  137.3470 C   0  0  0  0  0  2  0  0  0  0  0  0
  184.0780  175.6140  136.6090 C   0  0  1  0  0  3  0  0  0  0  0  0
  182.3980  177.9650  137.1530 C   0  0  0  0  0  2  0  0  0  0  0  0
  180.9460  177.5300  135.2990 C   0  0  0  0  0  2  0  0  0  0  0  0
  180.4070  178.6740  136.0150 N   0  0  0  0  0  2  0  0  0  0  0  0
  181.0620  178.6560  137.3150 C   0  0  2  0  0  3  0  0  0  0  0  0
  182.3670  177.3150  135.7850 C   0  0  2  0  0  3  0  0  0  0  0  0
  181.2730  180.0750  137.8160 C   0  0  0  0  0  2  0  0  0  0  0  0
  180.8960  180.1800  139.2180 N   0  0  0  0  0  0  0  0  0  0  0  0
  179.8830  179.1670  139.4500 C   0  0  0  0  0  1  0  0  0  0  0  0
  180.2410  181.4650  139.3880 C   0  0  0  0  0  1  0  0  0  0  0  0
  180.0780  173.9340  138.1160 C   0  0  0  0  0  1  0  0  0  0  0  0
  181.0570  172.9560  137.6730 N   0  0  0  0  0  0  0  0  0  0  0  0
  180.3890  171.8590  137.2340 O   0  0  0  0  0  1  0  0  0  0  0  0
  1  3  1  0  0  0  0
  1  4  1  0  0  0  0
  2  6  1  1  0  0  0
  3  5  1  0  0  0  0
  4 30  1  6  0  0  0
  4  2  1  0  0  0  0
  5  2  1  0  0  0  0
  6  7  1  0  0  0  0
  7  8  1  0  0  0  0
  8  9  1  0  0  0  0
  9 10  1  0  0  0  0
 10 11  1  0  0  0  0
 11 13  1  0  0  0  0
 12 13  1  0  0  0  0
 13 15  1  0  0  0  0
 13 14  1  0  0  0  0
 16 17  1  6  0  0  0
 16 18  1  0  0  0  0
 16 15  1  0  0  0  0
 18 28  1  6  0  0  0
 18 27  1  0  0  0  0
 20 23  1  6  0  0  0
 20 24  1  0  0  0  0
 20 22  1  0  0  0  0
 22 21  1  6  0  0  0
 22 19  1  0  0  0  0
 24 22  1  0  0  0  0
 24 18  1  1  0  0  0
 25 26  1  0  0  0  0
 27 25  1  0  0  0  0
 27 26  1  0  0  0  0
 29 28  1  0  0  0  0
 30 31  1  6  0  0  0
 31 33  1  0  0  0  0
 33 32  1  1  0  0  0
 34 33  1  0  0  0  0
 34 35  1  0  0  0  0
 36 30  1  0  0  0  0
 38 39  1  0  0  0  0
 38 54  1  1  0  0  0
 39 37  1  1  0  0  0
 39 42  1  0  0  0  0
 40 41  1  1  0  0  0
 40 43  1  0  0  0  0
 41 38  1  0  0  0  0
 43 36  1  6  0  0  0
 43 42  1  0  0  0  0
 44 47  1  0  0  0  0
 45 46  1  0  0  0  0
 46 47  1  0  0  0  0
 47 49  1  6  0  0  0
 48 45  1  1  0  0  0
 48 40  1  0  0  0  0
 48 44  1  0  0  0  0
 49 50  1  0  0  0  0
 50 52  1  0  0  0  0
 50 51  1  0  0  0  0
 54 53  1  0  0  0  0
 55 54  1  0  0  0  0
M  END
>  <MODEL>
1

>  <REMARK>
 VINA RESULT:      -5.6      0.000      0.000
  Name = 
  23 active torsions:
  status: ('A' for Active; 'I' for Inactive)
    1  A    between atoms: C_1  and  C_21
    2  A    between atoms: C_1  and  O_29
    3  A    between atoms: C_1  and  C_38
    4  A    between atoms: C_1  and  C_53
    5  A    between atoms: C_2  and  C_19
    6  A    between atoms: C_2  and  C_28
    7  A    between atoms: C_2  and  C_44
    8  A    between atoms: C_4  and  C_40
    9  A    between atoms: C_8  and  C_20
   10  A    between atoms: C_8  and  O_43
   11  A    between atoms: N_10  and  C_32
   12  A    between atoms: C_16  and  N_17
   13  A    between atoms: C_19  and  C_40
   14  A    between atoms: C_20  and  C_42
   15  A    between atoms: C_21  and  C_42
   16  A    between atoms: C_27  and  C_31
   17  A    between atoms: C_28  and  C_49
   18  A    between atoms: C_31  and  C_54
   19  A    between atoms: C_32  and  C_48
   20  A    between atoms: C_33  and  C_52
   21  A    between atoms: S_35  and  O_43
   22  A    between atoms: S_35  and  C_51
   23  A    between atoms: C_51  and  C_54
                            x       y       z     vdW  Elec       q    Type
                         _______ _______ _______ _____ _____    ______ ____

>  <TORSDO>
F 23

$$$$
=
 OpenBabel10262420383D

 55 59  0  0  1  0  0  0  0  0999 V2000
  189.5720  177.2550  138.5120 O   0  0  0  0  0  0  0  0  0  0  0  0
  187.5470  178.4830  138.7360 C   0  0  1  0  0  3  0  0  0  0  0  0
  189.1490  177.6010  137.2210 C   0  0  0  0  0  2  0  0  0  0  0  0
  188.4380  177.4120  139.3270 C   0  0  2  0  0  3  0  0  0  0  0  0
  188.0690  178.6510  137.3380 C   0  0  0  0  0  2  0  0  0  0  0  0
  186.1110  177.9920  138.7070 C   0  0  0  0  0  2  0  0  0  0  0  0
  185.1900  179.0640  139.2580 C   0  0  0  0  0  2  0  0  0  0  0  0
  183.7460  178.6150  139.1610 C   0  0  0  0  0  2  0  0  0  0  0  0
  182.6650  180.0340  138.8060 S   0  0  0  0  0  0  0  0  0  0  0  0
  181.2620  179.0460  138.7130 O   0  0  0  0  0  0  0  0  0  0  0  0
  181.1300  178.4910  139.9880 C   0  0  0  0  0  2  0  0  0  0  0  0
  179.7740  176.9590  141.1940 O   0  0  0  0  0  1  0  0  0  0  0  0
  180.2980  177.2150  139.9270 C   0  0  0  0  0  0  0  0  0  0  0  0
  179.2400  177.3790  139.0330 O   0  0  0  0  0  1  0  0  0  0  0  0
  181.1560  176.0090  139.5240 C   0  0  0  0  0  2  0  0  0  0  0  0
  180.9250  175.3760  138.1360 C   0  0  2  0  0  3  0  0  0  0  0  0
  179.9780  174.3500  138.1590 O   0  0  0  0  0  1  0  0  0  0  0  0
  182.1570  175.0490  137.2390 C   0  0  2  0  0  0  0  0  0  0  0  0
  180.3910  176.2670  135.3250 O   0  0  0  0  0  1  0  0  0  0  0  0
  182.8270  176.1980  135.0200 C   0  0  1  0  0  3  0  0  0  0  0  0
  181.5440  178.4700  135.4460 C   0  0  0  0  0  1  0  0  0  0  0  0
  181.5940  176.9500  135.5090 C   0  0  1  0  0  0  0  0  0  0  0  0
  183.9570  177.1200  134.5950 C   0  0  0  0  0  1  0  0  0  0  0  0
  182.5730  176.3660  136.5240 C   0  0  1  0  0  3  0  0  0  0  0  0
  181.7410  172.5990  136.5670 C   0  0  0  0  0  2  0  0  0  0  0  0
  182.8750  173.1000  135.6980 C   0  0  0  0  0  2  0  0  0  0  0  0
  181.7600  174.0490  136.1100 C   0  0  0  0  0  3  0  0  0  0  0  0
  183.2380  174.5730  138.0380 O   0  0  0  0  0  0  0  0  0  0  0  0
  184.3380  175.2190  137.6890 O   0  0  0  0  0  1  0  0  0  0  0  0
  188.8230  177.7410  140.7710 C   0  0  2  0  0  3  0  0  0  0  0  0
  189.0730  176.4910  141.6130 C   0  0  0  0  0  2  0  0  0  0  0  0
  190.8150  175.4360  142.8370 O   0  0  0  0  0  1  0  0  0  0  0  0
  190.5520  176.1470  141.6660 C   0  0  2  0  0  3  0  0  0  0  0  0
  191.3820  177.4210  141.6430 C   0  0  0  0  0  2  0  0  0  0  0  0
  192.3940  177.3680  140.5150 C   0  0  0  0  0  1  0  0  0  0  0  0
  187.7340  178.5870  141.4070 C   0  0  0  0  0  2  0  0  0  0  0  0
  183.5880  179.4270  142.8020 C   0  0  0  0  0  1  0  0  0  0  0  0
  185.2820  178.9880  144.7320 C   0  0  2  0  0  3  0  0  0  0  0  0
  185.0180  179.1110  143.2030 C   0  0  1  0  0  3  0  0  0  0  0  0
  187.6370  178.3960  143.9130 C   0  0  2  0  0  3  0  0  0  0  0  0
  186.5970  178.2540  145.0340 C   0  0  0  0  0  2  0  0  0  0  0  0
  185.5630  177.9080  142.4470 C   0  0  0  0  0  2  0  0  0  0  0  0
  187.0940  177.8410  142.5720 C   0  0  1  0  0  3  0  0  0  0  0  0
  188.7880  176.9690  145.6460 C   0  0  0  0  0  2  0  0  0  0  0  0
  190.0730  178.6720  144.5590 C   0  0  0  0  0  2  0  0  0  0  0  0
  190.8710  178.1620  145.6610 N   0  0  0  0  0  2  0  0  0  0  0  0
  189.9330  177.4450  146.5130 C   0  0  2  0  0  3  0  0  0  0  0  0
  188.9400  177.6930  144.3240 C   0  0  2  0  0  3  0  0  0  0  0  0
  190.6190  176.2530  147.1600 C   0  0  0  0  0  2  0  0  0  0  0  0
  192.0620  176.3480  146.9960 N   0  0  0  0  0  0  0  0  0  0  0  0
  192.4590  175.2230  146.1700 C   0  0  0  0  0  1  0  0  0  0  0  0
  192.6550  176.1300  148.3040 C   0  0  0  0  0  1  0  0  0  0  0  0
  184.6700  178.1770  146.8910 C   0  0  0  0  0  1  0  0  0  0  0  0
  184.2090  178.3700  145.5260 N   0  0  0  0  0  0  0  0  0  0  0  0
  183.1240  179.1830  145.5580 O   0  0  0  0  0  1  0  0  0  0  0  0
  1  4  1  0  0  0  0
  2  6  1  6  0  0  0
  2  4  1  0  0  0  0
  3  5  1  0  0  0  0
  3  1  1  0  0  0  0
  4 30  1  1  0  0  0
  5  2  1  0  0  0  0
  6  7  1  0  0  0  0
  8  7  1  0  0  0  0
  9  8  1  0  0  0  0
 10  9  1  0  0  0  0
 10 11  1  0  0  0  0
 13 11  1  0  0  0  0
 13 12  1  0  0  0  0
 14 13  1  0  0  0  0
 15 13  1  0  0  0  0
 16 17  1  1  0  0  0
 16 15  1  0  0  0  0
 18 28  1  1  0  0  0
 18 16  1  0  0  0  0
 19 22  1  0  0  0  0
 20 23  1  6  0  0  0
 20 22  1  0  0  0  0
 20 24  1  0  0  0  0
 22 21  1  6  0  0  0
 22 24  1  0  0  0  0
 24 18  1  1  0  0  0
 26 27  1  0  0  0  0
 26 25  1  0  0  0  0
 27 25  1  0  0  0  0
 27 18  1  0  0  0  0
 29 28  1  0  0  0  0
 30 36  1  1  0  0  0
 30 31  1  0  0  0  0
 31 33  1  0  0  0  0
 33 32  1  1  0  0  0
 34 33  1  0  0  0  0
 35 34  1  0  0  0  0
 38 41  1  0  0  0  0
 38 54  1  1  0  0  0
 39 37  1  1  0  0  0
 39 38  1  0  0  0  0
 40 48  1  0  0  0  0
 40 41  1  1  0  0  0
 42 43  1  0  0  0  0
 42 39  1  0  0  0  0
 43 36  1  6  0  0  0
 43 40  1  0  0  0  0
 44 47  1  0  0  0  0
 45 46  1  0  0  0  0
 46 47  1  0  0  0  0
 47 49  1  6  0  0  0
 48 45  1  1  0  0  0
 48 44  1  0  0  0  0
 50 49  1  0  0  0  0
 50 52  1  0  0  0  0
 51 50  1  0  0  0  0
 54 55  1  0  0  0  0
 54 53  1  0  0  0  0
M  END
>  <MODEL>
2

>  <REMARK>
 VINA RESULT:      -4.8      3.867      9.752
  Name = 
  23 active torsions:
  status: ('A' for Active; 'I' for Inactive)
    1  A    between atoms: C_1  and  C_21
    2  A    between atoms: C_1  and  O_29
    3  A    between atoms: C_1  and  C_38
    4  A    between atoms: C_1  and  C_53
    5  A    between atoms: C_2  and  C_19
    6  A    between atoms: C_2  and  C_28
    7  A    between atoms: C_2  and  C_44
    8  A    between atoms: C_4  and  C_40
    9  A    between atoms: C_8  and  C_20
   10  A    between atoms: C_8  and  O_43
   11  A    between atoms: N_10  and  C_32
   12  A    between atoms: C_16  and  N_17
   13  A    between atoms: C_19  and  C_40
   14  A    between atoms: C_20  and  C_42
   15  A    between atoms: C_21  and  C_42
   16  A    between atoms: C_27  and  C_31
   17  A    between atoms: C_28  and  C_49
   18  A    between atoms: C_31  and  C_54
   19  A    between atoms: C_32  and  C_48
   20  A    between atoms: C_33  and  C_52
   21  A    between atoms: S_35  and  O_43
   22  A    between atoms: S_35  and  C_51
   23  A    between atoms: C_51  and  C_54
                            x       y       z     vdW  Elec       q    Type
                         _______ _______ _______ _____ _____    ______ ____

>  <TORSDO>
F 23

$$$$
=
 OpenBabel10262420383D

 55 59  0  0  1  0  0  0  0  0999 V2000
  184.2190  176.9320  137.9400 O   0  0  0  0  0  0  0  0  0  0  0  0
  186.3430  177.3570  136.9580 C   0  0  1  0  0  3  0  0  0  0  0  0
  184.7530  178.0630  138.5730 C   0  0  0  0  0  2  0  0  0  0  0  0
  185.3120  176.3090  137.3150 C   0  0  2  0  0  3  0  0  0  0  0  0
  185.9270  178.5560  137.7600 C   0  0  0  0  0  2  0  0  0  0  0  0
  187.7200  176.8850  137.3910 C   0  0  0  0  0  2  0  0  0  0  0  0
  188.7840  177.7760  136.7800 C   0  0  0  0  0  2  0  0  0  0  0  0
  190.0860  177.6350  137.5420 C   0  0  0  0  0  2  0  0  0  0  0  0
  190.4370  175.8830  137.8770 S   0  0  0  0  0  0  0  0  0  0  0  0
  191.4280  176.2560  139.2320 O   0  0  0  0  0  0  0  0  0  0  0  0
  190.7620  177.2960  139.8850 C   0  0  0  0  0  2  0  0  0  0  0  0
  190.7580  175.8950  141.8030 O   0  0  0  0  0  1  0  0  0  0  0  0
  190.9890  177.2080  141.3900 C   0  0  0  0  0  0  0  0  0  0  0  0
  192.3090  177.5430  141.6930 O   0  0  0  0  0  1  0  0  0  0  0  0
  190.0180  178.1160  142.1540 C   0  0  0  0  0  2  0  0  0  0  0  0
  188.5420  177.6800  142.2690 C   0  0  2  0  0  3  0  0  0  0  0  0
  187.7180  178.3060  141.3320 O   0  0  0  0  0  1  0  0  0  0  0  0
  187.8920  177.5760  143.6820 C   0  0  2  0  0  0  0  0  0  0  0  0
  185.8580  177.2820  145.6940 O   0  0  0  0  0  1  0  0  0  0  0  0
  185.3390  177.8560  143.3630 C   0  0  1  0  0  3  0  0  0  0  0  0
  184.9660  179.5780  145.3340 C   0  0  0  0  0  1  0  0  0  0  0  0
  185.6220  178.3180  144.7880 C   0  0  1  0  0  0  0  0  0  0  0  0
  184.4620  178.8230  142.5870 C   0  0  0  0  0  1  0  0  0  0  0  0
  186.6710  178.5390  143.7020 C   0  0  1  0  0  3  0  0  0  0  0  0
  189.9770  177.1100  145.1170 C   0  0  0  0  0  2  0  0  0  0  0  0
  188.8270  177.3180  146.0790 C   0  0  0  0  0  2  0  0  0  0  0  0
  188.8750  178.0980  144.7740 C   0  0  0  0  0  3  0  0  0  0  0  0
  187.4560  176.2410  143.9290 O   0  0  0  0  0  0  0  0  0  0  0  0
  188.1160  175.4260  143.1240 O   0  0  0  0  0  1  0  0  0  0  0  0
  184.8760  175.5130  136.0820 C   0  0  2  0  0  3  0  0  0  0  0  0
  185.9150  175.5500  134.9620 C   0  0  0  0  0  2  0  0  0  0  0  0
  186.3370  173.4100  135.9070 O   0  0  0  0  0  1  0  0  0  0  0  0
  186.5800  174.1960  134.7800 C   0  0  2  0  0  3  0  0  0  0  0  0
  188.0780  174.3750  134.5940 C   0  0  0  0  0  2  0  0  0  0  0  0
  188.8370  173.5520  135.6150 C   0  0  0  0  0  1  0  0  0  0  0  0
  183.5470  176.0460  135.5770 C   0  0  0  0  0  2  0  0  0  0  0  0
  183.0690  171.6270  135.8730 C   0  0  0  0  0  1  0  0  0  0  0  0
  180.8290  172.9100  135.5250 C   0  0  2  0  0  3  0  0  0  0  0  0
  182.3750  172.9650  135.6830 C   0  0  1  0  0  3  0  0  0  0  0  0
  181.1050  175.4570  135.4680 C   0  0  2  0  0  3  0  0  0  0  0  0
  180.1730  174.2760  135.7770 C   0  0  0  0  0  2  0  0  0  0  0  0
  182.7890  173.9700  136.7480 C   0  0  0  0  0  2  0  0  0  0  0  0
  182.3920  175.3950  136.3270 C   0  0  1  0  0  3  0  0  0  0  0  0
  181.2030  177.7890  136.4250 C   0  0  0  0  0  2  0  0  0  0  0  0
  179.1230  176.6080  136.5540 C   0  0  0  0  0  2  0  0  0  0  0  0
  178.9960  177.8030  137.3710 N   0  0  0  0  0  2  0  0  0  0  0  0
  180.3600  178.2660  137.5870 C   0  0  2  0  0  3  0  0  0  0  0  0
  180.3520  176.7800  135.6820 C   0  0  2  0  0  3  0  0  0  0  0  0
  180.3930  179.7840  137.6600 C   0  0  0  0  0  2  0  0  0  0  0  0
  181.3490  180.2230  138.6650 N   0  0  0  0  0  0  0  0  0  0  0  0
  180.6870  180.0940  139.9500 C   0  0  0  0  0  1  0  0  0  0  0  0
  181.5670  181.6440  138.4540 C   0  0  0  0  0  1  0  0  0  0  0  0
  178.9560  172.5010  136.9460 C   0  0  0  0  0  1  0  0  0  0  0  0
  180.1300  171.9010  136.3350 N   0  0  0  0  0  0  0  0  0  0  0  0
  179.7180  170.8740  135.5490 O   0  0  0  0  0  1  0  0  0  0  0  0
  1  3  1  0  0  0  0
  2  4  1  0  0  0  0
  2  6  1  1  0  0  0
  2  5  1  0  0  0  0
  4 30  1  6  0  0  0
  4  1  1  0  0  0  0
  5  3  1  0  0  0  0
  7  6  1  0  0  0  0
  7  8  1  0  0  0  0
  8  9  1  0  0  0  0
  9 10  1  0  0  0  0
 10 11  1  0  0  0  0
 11 13  1  0  0  0  0
 13 14  1  0  0  0  0
 13 12  1  0  0  0  0
 13 15  1  0  0  0  0
 15 16  1  0  0  0  0
 16 17  1  6  0  0  0
 16 18  1  0  0  0  0
 18 28  1  1  0  0  0
 18 27  1  0  0  0  0
 20 23  1  6  0  0  0
 20 24  1  0  0  0  0
 20 22  1  0  0  0  0
 22 21  1  1  0  0  0
 22 19  1  0  0  0  0
 24 18  1  1  0  0  0
 24 22  1  0  0  0  0
 25 26  1  0  0  0  0
 27 25  1  0  0  0  0
 27 26  1  0  0  0  0
 29 28  1  0  0  0  0
 30 31  1  6  0  0  0
 33 31  1  0  0  0  0
 33 32  1  1  0  0  0
 34 33  1  0  0  0  0
 34 35  1  0  0  0  0
 36 30  1  0  0  0  0
 38 39  1  0  0  0  0
 38 41  1  0  0  0  0
 38 54  1  1  0  0  0
 39 37  1  1  0  0  0
 39 42  1  0  0  0  0
 40 48  1  0  0  0  0
 40 41  1  1  0  0  0
 40 43  1  0  0  0  0
 43 36  1  6  0  0  0
 43 42  1  0  0  0  0
 44 47  1  0  0  0  0
 45 46  1  0  0  0  0
 46 47  1  0  0  0  0
 47 49  1  6  0  0  0
 48 44  1  1  0  0  0
 48 45  1  0  0  0  0
 49 50  1  0  0  0  0
 50 51  1  0  0  0  0
 52 50  1  0  0  0  0
 54 53  1  0  0  0  0
 55 54  1  0  0  0  0
M  END
>  <MODEL>
3

>  <REMARK>
 VINA RESULT:      -4.8      1.547      2.034
  Name = 
  23 active torsions:
  status: ('A' for Active; 'I' for Inactive)
    1  A    between atoms: C_1  and  C_21
    2  A    between atoms: C_1  and  O_29
    3  A    between atoms: C_1  and  C_38
    4  A    between atoms: C_1  and  C_53
    5  A    between atoms: C_2  and  C_19
    6  A    between atoms: C_2  and  C_28
    7  A    between atoms: C_2  and  C_44
    8  A    between atoms: C_4  and  C_40
    9  A    between atoms: C_8  and  C_20
   10  A    between atoms: C_8  and  O_43
   11  A    between atoms: N_10  and  C_32
   12  A    between atoms: C_16  and  N_17
   13  A    between atoms: C_19  and  C_40
   14  A    between atoms: C_20  and  C_42
   15  A    between atoms: C_21  and  C_42
   16  A    between atoms: C_27  and  C_31
   17  A    between atoms: C_28  and  C_49
   18  A    between atoms: C_31  and  C_54
   19  A    between atoms: C_32  and  C_48
   20  A    between atoms: C_33  and  C_52
   21  A    between atoms: S_35  and  O_43
   22  A    between atoms: S_35  and  C_51
   23  A    between atoms: C_51  and  C_54
                            x       y       z     vdW  Elec       q    Type
                         _______ _______ _______ _____ _____    ______ ____

>  <TORSDO>
F 23

$$$$
=
 OpenBabel10262420383D

 55 59  0  0  1  0  0  0  0  0999 V2000
  188.1720  178.2580  136.5400 O   0  0  0  0  0  0  0  0  0  0  0  0
  189.1900  177.2930  138.4600 C   0  0  1  0  0  3  0  0  0  0  0  0
  188.7260  179.3050  137.2890 C   0  0  0  0  0  2  0  0  0  0  0  0
  188.0920  177.1720  137.4260 C   0  0  2  0  0  3  0  0  0  0  0  0
  189.6570  178.7130  138.3210 C   0  0  0  0  0  2  0  0  0  0  0  0
  188.6140  177.0600  139.8450 C   0  0  0  0  0  2  0  0  0  0  0  0
  189.4820  177.7450  140.8840 C   0  0  0  0  0  2  0  0  0  0  0  0
  190.3830  176.7340  141.5640 C   0  0  0  0  0  2  0  0  0  0  0  0
  191.7940  177.5710  142.3490 S   0  0  0  0  0  0  0  0  0  0  0  0
  191.7440  176.5410  143.7240 O   0  0  0  0  0  0  0  0  0  0  0  0
  191.6950  177.4100  144.8180 C   0  0  0  0  0  2  0  0  0  0  0  0
  191.1630  175.3290  145.8330 O   0  0  0  0  0  1  0  0  0  0  0  0
  191.0790  176.7080  146.0240 C   0  0  0  0  0  0  0  0  0  0  0  0
  191.7840  177.0410  147.1800 O   0  0  0  0  0  1  0  0  0  0  0  0
  189.5960  177.0690  146.1800 C   0  0  0  0  0  2  0  0  0  0  0  0
  188.8260  177.5580  144.9350 C   0  0  2  0  0  3  0  0  0  0  0  0
  189.2350  178.8230  144.5070 O   0  0  0  0  0  1  0  0  0  0  0  0
  187.2800  177.3650  144.8780 C   0  0  2  0  0  0  0  0  0  0  0  0
  184.4320  177.7030  144.6720 O   0  0  0  0  0  1  0  0  0  0  0  0
  185.9530  178.1200  142.7890 C   0  0  1  0  0  3  0  0  0  0  0  0
  184.6200  180.0810  143.9590 C   0  0  0  0  0  1  0  0  0  0  0  0
  185.1740  178.6630  143.9820 C   0  0  1  0  0  0  0  0  0  0  0  0
  186.1770  179.1570  141.7020 C   0  0  0  0  0  1  0  0  0  0  0  0
  186.6940  178.5520  144.0620 C   0  0  1  0  0  3  0  0  0  0  0  0
  186.5810  178.9020  146.8210 C   0  0  0  0  0  2  0  0  0  0  0  0
  187.6370  177.9650  147.3680 C   0  0  0  0  0  2  0  0  0  0  0  0
  186.6640  177.4740  146.3060 C   0  0  0  0  0  3  0  0  0  0  0  0
  186.9600  176.1330  144.2350 O   0  0  0  0  0  0  0  0  0  0  0  0
  187.9100  175.8540  143.3590 O   0  0  0  0  0  1  0  0  0  0  0  0
  188.1670  175.8340  136.6860 C   0  0  2  0  0  3  0  0  0  0  0  0
  189.4110  175.7190  135.8060 C   0  0  0  0  0  2  0  0  0  0  0  0
  189.8020  174.0550  137.4580 O   0  0  0  0  0  1  0  0  0  0  0  0
  190.3570  174.6470  136.3230 C   0  0  2  0  0  3  0  0  0  0  0  0
  191.7000  175.2670  136.6730 C   0  0  0  0  0  2  0  0  0  0  0  0
  192.5740  174.2570  137.3910 C   0  0  0  0  0  1  0  0  0  0  0  0
  186.9170  175.6470  135.8460 C   0  0  0  0  0  2  0  0  0  0  0  0
  186.9930  171.2000  135.6150 C   0  0  0  0  0  1  0  0  0  0  0  0
  184.5950  172.2180  135.5690 C   0  0  2  0  0  3  0  0  0  0  0  0
  186.1320  172.4510  135.6370 C   0  0  1  0  0  3  0  0  0  0  0  0
  184.5610  174.7680  135.8140 C   0  0  2  0  0  3  0  0  0  0  0  0
  183.8030  173.4500  136.0300 C   0  0  0  0  0  2  0  0  0  0  0  0
  186.5040  173.3690  136.7930 C   0  0  0  0  0  2  0  0  0  0  0  0
  185.9080  174.7710  136.5790 C   0  0  1  0  0  3  0  0  0  0  0  0
  183.3290  175.8850  137.7110 C   0  0  0  0  0  2  0  0  0  0  0  0
  182.3310  175.9420  135.5350 C   0  0  0  0  0  2  0  0  0  0  0  0
  181.3390  176.4260  136.4810 N   0  0  0  0  0  2  0  0  0  0  0  0
  181.8230  176.0080  137.7900 C   0  0  2  0  0  3  0  0  0  0  0  0
  183.6740  175.9500  136.2380 C   0  0  2  0  0  3  0  0  0  0  0  0
  181.4430  177.0380  138.8420 C   0  0  0  0  0  2  0  0  0  0  0  0
  182.5080  178.0170  139.0000 N   0  0  0  0  0  0  0  0  0  0  0  0
  182.6170  178.2850  140.4220 C   0  0  0  0  0  1  0  0  0  0  0  0
  182.0510  179.2490  138.3820 C   0  0  0  0  0  1  0  0  0  0  0  0
  182.9180  171.4170  137.0660 C   0  0  0  0  0  1  0  0  0  0  0  0
  184.0860  171.0400  136.2880 N   0  0  0  0  0  0  0  0  0  0  0  0
  183.7130  170.0790  135.4050 O   0  0  0  0  0  1  0  0  0  0  0  0
  1  3  1  0  0  0  0
  1  4  1  0  0  0  0
  2  6  1  1  0  0  0
  3  5  1  0  0  0  0
  4 30  1  6  0  0  0
  4  2  1  0  0  0  0
  5  2  1  0  0  0  0
  6  7  1  0  0  0  0
  7  8  1  0  0  0  0
  8  9  1  0  0  0  0
  9 10  1  0  0  0  0
 10 11  1  0  0  0  0
 11 13  1  0  0  0  0
 12 13  1  0  0  0  0
 13 15  1  0  0  0  0
 13 14  1  0  0  0  0
 16 17  1  1  0  0  0
 16 15  1  0  0  0  0
 18 28  1  6  0  0  0
 18 16  1  0  0  0  0
 18 27  1  0  0  0  0
 20 23  1  6  0  0  0
 20 22  1  0  0  0  0
 20 24  1  0  0  0  0
 22 21  1  6  0  0  0
 22 24  1  0  0  0  0
 22 19  1  0  0  0  0
 24 18  1  1  0  0  0
 25 26  1  0  0  0  0
 27 25  1  0  0  0  0
 27 26  1  0  0  0  0
 29 28  1  0  0  0  0
 30 31  1  6  0  0  0
 31 33  1  0  0  0  0
 33 34  1  0  0  0  0
 33 32  1  1  0  0  0
 34 35  1  0  0  0  0
 36 30  1  0  0  0  0
 38 39  1  0  0  0  0
 38 41  1  0  0  0  0
 38 54  1  1  0  0  0
 39 37  1  1  0  0  0
 39 42  1  0  0  0  0
 40 41  1  1  0  0  0
 40 48  1  0  0  0  0
 40 43  1  0  0  0  0
 43 36  1  6  0  0  0
 43 42  1  0  0  0  0
 44 47  1  0  0  0  0
 45 46  1  0  0  0  0
 46 47  1  0  0  0  0
 47 49  1  1  0  0  0
 48 45  1  6  0  0  0
 48 44  1  0  0  0  0
 49 50  1  0  0  0  0
 50 51  1  0  0  0  0
 52 50  1  0  0  0  0
 54 53  1  0  0  0  0
 55 54  1  0  0  0  0
M  END
>  <MODEL>
4

>  <REMARK>
 VINA RESULT:      -4.6      1.699      2.226
  Name = 
  23 active torsions:
  status: ('A' for Active; 'I' for Inactive)
    1  A    between atoms: C_1  and  C_21
    2  A    between atoms: C_1  and  O_29
    3  A    between atoms: C_1  and  C_38
    4  A    between atoms: C_1  and  C_53
    5  A    between atoms: C_2  and  C_19
    6  A    between atoms: C_2  and  C_28
    7  A    between atoms: C_2  and  C_44
    8  A    between atoms: C_4  and  C_40
    9  A    between atoms: C_8  and  C_20
   10  A    between atoms: C_8  and  O_43
   11  A    between atoms: N_10  and  C_32
   12  A    between atoms: C_16  and  N_17
   13  A    between atoms: C_19  and  C_40
   14  A    between atoms: C_20  and  C_42
   15  A    between atoms: C_21  and  C_42
   16  A    between atoms: C_27  and  C_31
   17  A    between atoms: C_28  and  C_49
   18  A    between atoms: C_31  and  C_54
   19  A    between atoms: C_32  and  C_48
   20  A    between atoms: C_33  and  C_52
   21  A    between atoms: S_35  and  O_43
   22  A    between atoms: S_35  and  C_51
   23  A    between atoms: C_51  and  C_54
                            x       y       z     vdW  Elec       q    Type
                         _______ _______ _______ _____ _____    ______ ____

>  <TORSDO>
F 23

$$$$
=
 OpenBabel10262420383D

 55 59  0  0  1  0  0  0  0  0999 V2000
  184.9780  179.3240  140.6650 O   0  0  0  0  0  0  0  0  0  0  0  0
  184.8610  178.0850  142.6910 C   0  0  1  0  0  3  0  0  0  0  0  0
  186.2860  178.9480  141.0010 C   0  0  0  0  0  2  0  0  0  0  0  0
  184.2360  179.1750  141.8480 C   0  0  2  0  0  3  0  0  0  0  0  0
  186.2180  177.8920  142.0790 C   0  0  0  0  0  2  0  0  0  0  0  0
  184.9930  178.5640  144.1260 C   0  0  0  0  0  2  0  0  0  0  0  0
  186.0310  177.7300  144.8530 C   0  0  0  0  0  2  0  0  0  0  0  0
  187.4250  178.2170  144.5140 C   0  0  0  0  0  2  0  0  0  0  0  0
  188.6030  176.8310  144.5360 S   0  0  0  0  0  0  0  0  0  0  0  0
  189.4710  177.4400  143.1830 O   0  0  0  0  0  0  0  0  0  0  0  0
  189.2680  176.4950  142.1740 C   0  0  0  0  0  2  0  0  0  0  0  0
  190.5770  178.1670  141.1110 O   0  0  0  0  0  1  0  0  0  0  0  0
  189.9380  176.9490  140.8820 C   0  0  0  0  0  0  0  0  0  0  0  0
  190.8930  176.0130  140.4860 O   0  0  0  0  0  1  0  0  0  0  0  0
  188.9070  177.1650  139.7660 C   0  0  0  0  0  2  0  0  0  0  0  0
  189.2990  176.7860  138.3230 C   0  0  2  0  0  3  0  0  0  0  0  0
  190.6800  176.6840  138.1450 O   0  0  0  0  0  1  0  0  0  0  0  0
  188.5810  177.4960  137.1340 C   0  0  2  0  0  0  0  0  0  0  0  0
  185.7710  178.0740  137.3150 O   0  0  0  0  0  1  0  0  0  0  0  0
  186.6790  175.8130  137.6270 C   0  0  1  0  0  3  0  0  0  0  0  0
  185.1700  176.4300  135.5460 C   0  0  0  0  0  1  0  0  0  0  0  0
  186.0660  176.8560  136.7000 C   0  0  1  0  0  0  0  0  0  0  0  0
  186.3790  174.3870  137.1990 C   0  0  0  0  0  1  0  0  0  0  0  0
  187.5420  176.4940  136.5560 C   0  0  1  0  0  3  0  0  0  0  0  0
  188.9980  177.5970  134.5950 C   0  0  0  0  0  2  0  0  0  0  0  0
  189.9540  176.5630  135.1500 C   0  0  0  0  0  2  0  0  0  0  0  0
  189.5920  177.7850  135.9820 C   0  0  0  0  0  3  0  0  0  0  0  0
  187.9160  178.6720  137.5880 O   0  0  0  0  0  0  0  0  0  0  0  0
  188.6470  179.7240  137.2590 O   0  0  0  0  0  1  0  0  0  0  0  0
  182.7630  178.8780  141.5550 C   0  0  2  0  0  3  0  0  0  0  0  0
  181.9370  178.6910  142.8270 C   0  0  0  0  0  2  0  0  0  0  0  0
  180.2860  180.3640  142.4770 O   0  0  0  0  0  1  0  0  0  0  0  0
  180.4660  178.9850  142.5800 C   0  0  2  0  0  3  0  0  0  0  0  0
  179.6300  178.4420  143.7270 C   0  0  0  0  0  2  0  0  0  0  0  0
  179.0060  179.5820  144.5080 C   0  0  0  0  0  1  0  0  0  0  0  0
  182.6580  177.6410  140.6810 C   0  0  0  0  0  2  0  0  0  0  0  0
  181.5080  174.3690  137.8860 C   0  0  0  0  0  1  0  0  0  0  0  0
  181.0690  176.7600  136.9500 C   0  0  2  0  0  3  0  0  0  0  0  0
  181.5910  175.8690  138.1130 C   0  0  1  0  0  3  0  0  0  0  0  0
  181.6300  178.6290  138.6100 C   0  0  2  0  0  3  0  0  0  0  0  0
  180.7770  178.1970  137.4090 C   0  0  0  0  0  2  0  0  0  0  0  0
  180.9700  176.2720  139.4430 C   0  0  0  0  0  2  0  0  0  0  0  0
  181.3980  177.6980  139.8260 C   0  0  1  0  0  3  0  0  0  0  0  0
  180.2930  180.6870  138.0230 C   0  0  0  0  0  2  0  0  0  0  0  0
  182.5390  180.9900  138.7980 C   0  0  0  0  0  2  0  0  0  0  0  0
  182.0720  182.2740  138.3040 N   0  0  0  0  0  2  0  0  0  0  0  0
  180.8970  181.9710  137.4990 C   0  0  2  0  0  3  0  0  0  0  0  0
  181.3250  180.0950  138.9600 C   0  0  2  0  0  3  0  0  0  0  0  0
  179.8830  183.0990  137.6060 C   0  0  0  0  0  2  0  0  0  0  0  0
  180.5320  184.3850  137.3980 N   0  0  0  0  0  0  0  0  0  0  0  0
  179.6010  185.3980  137.8590 C   0  0  0  0  0  1  0  0  0  0  0  0
  180.6650  184.5680  135.9630 C   0  0  0  0  0  1  0  0  0  0  0  0
  179.1190  177.3770  135.7200 C   0  0  0  0  0  1  0  0  0  0  0  0
  179.8940  176.2550  136.2230 N   0  0  0  0  0  0  0  0  0  0  0  0
  180.2870  175.5050  135.1630 O   0  0  0  0  0  1  0  0  0  0  0  0
  1  3  1  0  0  0  0
  1  4  1  0  0  0  0
  2  6  1  1  0  0  0
  3  5  1  0  0  0  0
  4 30  1  6  0  0  0
  4  2  1  0  0  0  0
  5  2  1  0  0  0  0
  6  7  1  0  0  0  0
  8  9  1  0  0  0  0
  8  7  1  0  0  0  0
 10  9  1  0  0  0  0
 11 10  1  0  0  0  0
 13 12  1  0  0  0  0
 13 11  1  0  0  0  0
 14 13  1  0  0  0  0
 15 13  1  0  0  0  0
 16 17  1  1  0  0  0
 16 15  1  0  0  0  0
 18 28  1  1  0  0  0
 18 16  1  0  0  0  0
 20 23  1  6  0  0  0
 22 21  1  6  0  0  0
 22 19  1  0  0  0  0
 22 20  1  0  0  0  0
 24 22  1  0  0  0  0
 24 18  1  1  0  0  0
 24 20  1  0  0  0  0
 25 26  1  0  0  0  0
 25 27  1  0  0  0  0
 26 27  1  0  0  0  0
 27 18  1  0  0  0  0
 29 28  1  0  0  0  0
 30 36  1  6  0  0  0
 30 31  1  0  0  0  0
 33 32  1  1  0  0  0
 33 31  1  0  0  0  0
 33 34  1  0  0  0  0
 34 35  1  0  0  0  0
 38 54  1  1  0  0  0
 38 41  1  0  0  0  0
 38 39  1  0  0  0  0
 39 37  1  6  0  0  0
 39 42  1  0  0  0  0
 40 41  1  6  0  0  0
 40 48  1  0  0  0  0
 40 43  1  0  0  0  0
 42 43  1  0  0  0  0
 43 36  1  6  0  0  0
 45 48  1  0  0  0  0
 46 45  1  0  0  0  0
 47 49  1  1  0  0  0
 47 44  1  0  0  0  0
 47 46  1  0  0  0  0
 48 44  1  6  0  0  0
 50 49  1  0  0  0  0
 50 51  1  0  0  0  0
 52 50  1  0  0  0  0
 53 54  1  0  0  0  0
 55 54  1  0  0  0  0
M  END
>  <MODEL>
5

>  <REMARK>
 VINA RESULT:      -4.5      2.585      6.768
  Name = 
  23 active torsions:
  status: ('A' for Active; 'I' for Inactive)
    1  A    between atoms: C_1  and  C_21
    2  A    between atoms: C_1  and  O_29
    3  A    between atoms: C_1  and  C_38
    4  A    between atoms: C_1  and  C_53
    5  A    between atoms: C_2  and  C_19
    6  A    between atoms: C_2  and  C_28
    7  A    between atoms: C_2  and  C_44
    8  A    between atoms: C_4  and  C_40
    9  A    between atoms: C_8  and  C_20
   10  A    between atoms: C_8  and  O_43
   11  A    between atoms: N_10  and  C_32
   12  A    between atoms: C_16  and  N_17
   13  A    between atoms: C_19  and  C_40
   14  A    between atoms: C_20  and  C_42
   15  A    between atoms: C_21  and  C_42
   16  A    between atoms: C_27  and  C_31
   17  A    between atoms: C_28  and  C_49
   18  A    between atoms: C_31  and  C_54
   19  A    between atoms: C_32  and  C_48
   20  A    between atoms: C_33  and  C_52
   21  A    between atoms: S_35  and  O_43
   22  A    between atoms: S_35  and  C_51
   23  A    between atoms: C_51  and  C_54
                            x       y       z     vdW  Elec       q    Type
                         _______ _______ _______ _____ _____    ______ ____

>  <TORSDO>
F 23

$$$$
=
 OpenBabel10262420383D

 55 59  0  0  1  0  0  0  0  0999 V2000
  179.5290  177.8870  140.7520 O   0  0  0  0  0  0  0  0  0  0  0  0
  181.6860  178.7560  141.2490 C   0  0  1  0  0  3  0  0  0  0  0  0
  179.4170  178.6320  141.9340 C   0  0  0  0  0  2  0  0  0  0  0  0
  180.9030  177.6330  140.6050 C   0  0  2  0  0  3  0  0  0  0  0  0
  180.6670  179.4640  142.0950 C   0  0  0  0  0  2  0  0  0  0  0  0
  182.7850  178.1750  142.1220 C   0  0  0  0  0  2  0  0  0  0  0  0
  184.0500  178.9990  141.9720 C   0  0  0  0  0  2  0  0  0  0  0  0
  184.3890  179.6820  143.2820 C   0  0  0  0  0  2  0  0  0  0  0  0
  183.3460  179.0330  144.6230 S   0  0  0  0  0  0  0  0  0  0  0  0
  184.6460  179.0380  145.7460 O   0  0  0  0  0  0  0  0  0  0  0  0
  185.7310  178.5140  145.0400 C   0  0  0  0  0  2  0  0  0  0  0  0
  186.5380  178.5380  147.2730 O   0  0  0  0  0  1  0  0  0  0  0  0
  186.8030  178.0210  146.0050 C   0  0  0  0  0  0  0  0  0  0  0  0
  186.7750  176.6290  146.0780 O   0  0  0  0  0  1  0  0  0  0  0  0
  188.1970  178.5050  145.5850 C   0  0  0  0  0  2  0  0  0  0  0  0
  189.3370  177.4690  145.4940 C   0  0  2  0  0  3  0  0  0  0  0  0
  190.0510  177.3430  146.6870 O   0  0  0  0  0  1  0  0  0  0  0  0
  190.2510  177.4590  144.2310 C   0  0  2  0  0  0  0  0  0  0  0  0
  188.1570  175.8130  143.1460 O   0  0  0  0  0  1  0  0  0  0  0  0
  189.6220  177.1890  141.7360 C   0  0  1  0  0  3  0  0  0  0  0  0
  187.0470  177.7250  142.0030 C   0  0  0  0  0  1  0  0  0  0  0  0
  188.3120  177.0410  142.5010 C   0  0  1  0  0  0  0  0  0  0  0  0
  189.5160  178.1390  140.5550 C   0  0  0  0  0  1  0  0  0  0  0  0
  189.3970  177.9720  143.0370 C   0  0  1  0  0  3  0  0  0  0  0  0
  191.8610  175.4990  144.6680 C   0  0  0  0  0  2  0  0  0  0  0  0
  192.0350  175.8870  143.2150 C   0  0  0  0  0  2  0  0  0  0  0  0
  190.6670  176.0000  143.8720 C   0  0  0  0  0  3  0  0  0  0  0  0
  191.3720  178.3180  144.4250 O   0  0  0  0  0  0  0  0  0  0  0  0
  190.9470  179.5700  144.4410 O   0  0  0  0  0  1  0  0  0  0  0  0
  181.2890  177.4560  139.1340 C   0  0  2  0  0  3  0  0  0  0  0  0
  180.0780  177.4680  138.2030 C   0  0  0  0  0  2  0  0  0  0  0  0
  180.1340  178.2770  135.9690 O   0  0  0  0  0  1  0  0  0  0  0  0
  180.0870  178.6910  137.3000 C   0  0  2  0  0  3  0  0  0  0  0  0
  181.2980  179.5560  137.6110 C   0  0  0  0  0  2  0  0  0  0  0  0
  180.8580  180.9030  138.1490 C   0  0  0  0  0  1  0  0  0  0  0  0
  182.0620  176.1600  138.9640 C   0  0  0  0  0  2  0  0  0  0  0  0
  181.0350  172.1330  137.3640 C   0  0  0  0  0  1  0  0  0  0  0  0
  183.1620  173.1840  136.2890 C   0  0  2  0  0  3  0  0  0  0  0  0
  181.9960  173.3070  137.3110 C   0  0  1  0  0  3  0  0  0  0  0  0
  183.6780  175.5460  137.1380 C   0  0  2  0  0  3  0  0  0  0  0  0
  183.8090  174.5430  135.9820 C   0  0  0  0  0  2  0  0  0  0  0  0
  181.2600  174.6300  137.1560 C   0  0  0  0  0  2  0  0  0  0  0  0
  182.1920  175.8070  137.4880 C   0  0  1  0  0  3  0  0  0  0  0  0
  185.5980  176.5900  135.8780 C   0  0  0  0  0  2  0  0  0  0  0  0
  184.9950  177.5380  137.9930 C   0  0  0  0  0  2  0  0  0  0  0  0
  186.2530  178.1430  137.5890 N   0  0  0  0  0  2  0  0  0  0  0  0
  186.7730  177.2790  136.5380 C   0  0  2  0  0  3  0  0  0  0  0  0
  184.4060  176.8500  136.7760 C   0  0  2  0  0  3  0  0  0  0  0  0
  187.5320  178.1020  135.5110 C   0  0  0  0  0  2  0  0  0  0  0  0
  188.9480  177.7660  135.5370 N   0  0  0  0  0  0  0  0  0  0  0  0
  189.0480  176.3680  135.1620 C   0  0  0  0  0  1  0  0  0  0  0  0
  189.3810  177.8540  136.9210 C   0  0  0  0  0  1  0  0  0  0  0  0
  182.9460  171.0820  135.1810 C   0  0  0  0  0  1  0  0  0  0  0  0
  182.8410  172.5220  135.0160 N   0  0  0  0  0  0  0  0  0  0  0  0
  181.5670  172.8120  134.6470 O   0  0  0  0  0  1  0  0  0  0  0  0
  1  3  1  0  0  0  0
  2  5  1  0  0  0  0
  2  6  1  1  0  0  0
  3  5  1  0  0  0  0
  4 30  1  6  0  0  0
  4  1  1  0  0  0  0
  4  2  1  0  0  0  0
  7  6  1  0  0  0  0
  7  8  1  0  0  0  0
  8  9  1  0  0  0  0
  9 10  1  0  0  0  0
 11 10  1  0  0  0  0
 11 13  1  0  0  0  0
 13 14  1  0  0  0  0
 13 12  1  0  0  0  0
 15 13  1  0  0  0  0
 16 15  1  0  0  0  0
 16 17  1  1  0  0  0
 18 28  1  1  0  0  0
 18 16  1  0  0  0  0
 20 23  1  6  0  0  0
 20 22  1  0  0  0  0
 20 24  1  0  0  0  0
 22 21  1  6  0  0  0
 22 24  1  0  0  0  0
 22 19  1  0  0  0  0
 24 18  1  1  0  0  0
 26 27  1  0  0  0  0
 26 25  1  0  0  0  0
 27 18  1  0  0  0  0
 27 25  1  0  0  0  0
 28 29  1  0  0  0  0
 30 31  1  6  0  0  0
 33 32  1  6  0  0  0
 33 34  1  0  0  0  0
 33 31  1  0  0  0  0
 34 35  1  0  0  0  0
 36 30  1  0  0  0  0
 38 54  1  6  0  0  0
 38 39  1  0  0  0  0
 39 37  1  6  0  0  0
 40 41  1  6  0  0  0
 40 43  1  0  0  0  0
 41 38  1  0  0  0  0
 42 39  1  0  0  0  0
 42 43  1  0  0  0  0
 43 36  1  1  0  0  0
 44 47  1  0  0  0  0
 46 45  1  0  0  0  0
 47 49  1  6  0  0  0
 47 46  1  0  0  0  0
 48 44  1  6  0  0  0
 48 40  1  0  0  0  0
 48 45  1  0  0  0  0
 49 50  1  0  0  0  0
 50 52  1  0  0  0  0
 51 50  1  0  0  0  0
 54 53  1  0  0  0  0
 55 54  1  0  0  0  0
M  END
>  <MODEL>
6

>  <REMARK>
 VINA RESULT:      -4.3      2.857      6.307
  Name = 
  23 active torsions:
  status: ('A' for Active; 'I' for Inactive)
    1  A    between atoms: C_1  and  C_21
    2  A    between atoms: C_1  and  O_29
    3  A    between atoms: C_1  and  C_38
    4  A    between atoms: C_1  and  C_53
    5  A    between atoms: C_2  and  C_19
    6  A    between atoms: C_2  and  C_28
    7  A    between atoms: C_2  and  C_44
    8  A    between atoms: C_4  and  C_40
    9  A    between atoms: C_8  and  C_20
   10  A    between atoms: C_8  and  O_43
   11  A    between atoms: N_10  and  C_32
   12  A    between atoms: C_16  and  N_17
   13  A    between atoms: C_19  and  C_40
   14  A    between atoms: C_20  and  C_42
   15  A    between atoms: C_21  and  C_42
   16  A    between atoms: C_27  and  C_31
   17  A    between atoms: C_28  and  C_49
   18  A    between atoms: C_31  and  C_54
   19  A    between atoms: C_32  and  C_48
   20  A    between atoms: C_33  and  C_52
   21  A    between atoms: S_35  and  O_43
   22  A    between atoms: S_35  and  C_51
   23  A    between atoms: C_51  and  C_54
                            x       y       z     vdW  Elec       q    Type
                         _______ _______ _______ _____ _____    ______ ____

>  <TORSDO>
F 23

$$$$
=
 OpenBabel10262420383D

 55 59  0  0  1  0  0  0  0  0999 V2000
  188.7310  177.8560  140.3010 O   0  0  0  0  0  0  0  0  0  0  0  0
  188.0140  177.7040  138.0380 C   0  0  1  0  0  3  0  0  0  0  0  0
  187.4540  178.4280  140.2280 C   0  0  0  0  0  2  0  0  0  0  0  0
  189.1960  177.8220  138.9750 C   0  0  2  0  0  3  0  0  0  0  0  0
  186.8360  178.0520  138.9020 C   0  0  0  0  0  2  0  0  0  0  0  0
  188.1560  178.7090  136.9090 C   0  0  0  0  0  2  0  0  0  0  0  0
  186.8890  178.7270  136.0750 C   0  0  0  0  0  2  0  0  0  0  0  0
  187.0590  177.8600  134.8440 C   0  0  0  0  0  2  0  0  0  0  0  0
  185.5870  176.8220  134.5940 S   0  0  0  0  0  0  0  0  0  0  0  0
  184.8810  177.3230  136.0780 O   0  0  0  0  0  0  0  0  0  0  0  0
  184.2210  176.1890  136.5600 C   0  0  0  0  0  2  0  0  0  0  0  0
  182.1530  175.8420  135.4440 O   0  0  0  0  0  1  0  0  0  0  0  0
  182.7140  176.4230  136.5820 C   0  0  0  0  0  0  0  0  0  0  0  0
  182.1550  175.8220  137.7090 O   0  0  0  0  0  1  0  0  0  0  0  0
  182.3820  177.9200  136.5550 C   0  0  0  0  0  2  0  0  0  0  0  0
  181.2640  178.4400  137.4820 C   0  0  2  0  0  3  0  0  0  0  0  0
  180.0850  178.7370  136.7950 O   0  0  0  0  0  1  0  0  0  0  0  0
  181.6160  179.4950  138.5740 C   0  0  2  0  0  0  0  0  0  0  0  0
  179.0210  178.4120  139.1720 O   0  0  0  0  0  1  0  0  0  0  0  0
  180.3620  179.6250  140.8330 C   0  0  1  0  0  3  0  0  0  0  0  0
  179.8700  177.0380  141.0660 C   0  0  0  0  0  1  0  0  0  0  0  0
  179.9420  178.2970  140.2140 C   0  0  1  0  0  0  0  0  0  0  0  0
  180.7730  179.4980  142.2900 C   0  0  0  0  0  1  0  0  0  0  0  0
  181.3460  178.8380  139.9580 C   0  0  1  0  0  3  0  0  0  0  0  0
  180.7020  181.4220  137.1330 C   0  0  0  0  0  2  0  0  0  0  0  0
  181.3630  182.0580  138.3380 C   0  0  0  0  0  2  0  0  0  0  0  0
  180.6550  180.7190  138.4800 C   0  0  0  0  0  3  0  0  0  0  0  0
  182.9890  179.8670  138.4770 O   0  0  0  0  0  0  0  0  0  0  0  0
  183.5890  179.5700  139.6170 O   0  0  0  0  0  1  0  0  0  0  0  0
  190.1960  176.6840  138.7580 C   0  0  2  0  0  3  0  0  0  0  0  0
  190.9410  176.3040  140.0360 C   0  0  0  0  0  2  0  0  0  0  0  0
  193.1610  177.1320  140.2290 O   0  0  0  0  0  1  0  0  0  0  0  0
  191.8310  177.4400  140.5150 C   0  0  2  0  0  3  0  0  0  0  0  0
  191.6600  177.6350  142.0130 C   0  0  0  0  0  2  0  0  0  0  0  0
  190.9750  176.4290  142.6260 C   0  0  0  0  0  1  0  0  0  0  0  0
  191.1870  177.0770  137.6760 C   0  0  0  0  0  2  0  0  0  0  0  0
  187.6550  174.6040  136.5600 C   0  0  0  0  0  1  0  0  0  0  0  0
  189.8980  173.2800  136.6090 C   0  0  2  0  0  3  0  0  0  0  0  0
  189.1530  174.6310  136.8080 C   0  0  1  0  0  3  0  0  0  0  0  0
  191.9360  174.7370  137.1430 C   0  0  2  0  0  3  0  0  0  0  0  0
  191.4130  173.4730  136.4450 C   0  0  0  0  0  2  0  0  0  0  0  0
  189.8310  175.7570  136.0410 C   0  0  0  0  0  2  0  0  0  0  0  0
  191.2440  176.0090  136.5920 C   0  0  1  0  0  3  0  0  0  0  0  0
  194.0160  173.6000  136.2780 C   0  0  0  0  0  2  0  0  0  0  0  0
  194.1780  174.8310  138.3260 C   0  0  0  0  0  2  0  0  0  0  0  0
  195.4140  174.0830  138.1690 N   0  0  0  0  0  2  0  0  0  0  0  0
  195.1250  173.0720  137.1610 C   0  0  2  0  0  3  0  0  0  0  0  0
  193.4640  174.8190  136.9880 C   0  0  2  0  0  3  0  0  0  0  0  0
  196.3640  172.7970  136.3250 C   0  0  0  0  0  2  0  0  0  0  0  0
  197.2050  171.8030  136.9750 N   0  0  0  0  0  0  0  0  0  0  0  0
  198.1950  171.3940  135.9970 C   0  0  0  0  0  1  0  0  0  0  0  0
  196.3710  170.6410  137.2300 C   0  0  0  0  0  1  0  0  0  0  0  0
  190.5520  171.8730  134.7950 C   0  0  0  0  0  1  0  0  0  0  0  0
  189.4150  172.4300  135.5090 N   0  0  0  0  0  0  0  0  0  0  0  0
  188.6810  171.4010  136.0020 O   0  0  0  0  0  1  0  0  0  0  0  0
  2  6  1  6  0  0  0
  2  5  1  0  0  0  0
  2  4  1  0  0  0  0
  3  1  1  0  0  0  0
  4 30  1  1  0  0  0
  4  1  1  0  0  0  0
  5  3  1  0  0  0  0
  7  6  1  0  0  0  0
  8  7  1  0  0  0  0
  9  8  1  0  0  0  0
  9 10  1  0  0  0  0
 10 11  1  0  0  0  0
 11 13  1  0  0  0  0
 12 13  1  0  0  0  0
 13 14  1  0  0  0  0
 15 13  1  0  0  0  0
 15 16  1  0  0  0  0
 16 17  1  6  0  0  0
 16 18  1  0  0  0  0
 18 28  1  6  0  0  0
 19 22  1  0  0  0  0
 20 23  1  1  0  0  0
 22 20  1  0  0  0  0
 22 21  1  1  0  0  0
 24 18  1  6  0  0  0
 24 22  1  0  0  0  0
 24 20  1  0  0  0  0
 25 26  1  0  0  0  0
 25 27  1  0  0  0  0
 26 27  1  0  0  0  0
 27 18  1  0  0  0  0
 28 29  1  0  0  0  0
 30 36  1  6  0  0  0
 30 31  1  0  0  0  0
 31 33  1  0  0  0  0
 33 32  1  1  0  0  0
 33 34  1  0  0  0  0
 34 35  1  0  0  0  0
 38 54  1  6  0  0  0
 38 39  1  0  0  0  0
 39 37  1  6  0  0  0
 40 41  1  6  0  0  0
 41 38  1  0  0  0  0
 42 43  1  0  0  0  0
 42 39  1  0  0  0  0
 43 40  1  0  0  0  0
 43 36  1  1  0  0  0
 44 47  1  0  0  0  0
 46 45  1  0  0  0  0
 47 49  1  6  0  0  0
 47 46  1  0  0  0  0
 48 44  1  6  0  0  0
 48 40  1  0  0  0  0
 48 45  1  0  0  0  0
 49 50  1  0  0  0  0
 50 52  1  0  0  0  0
 51 50  1  0  0  0  0
 53 54  1  0  0  0  0
 54 55  1  0  0  0  0
M  END
>  <MODEL>
7

>  <REMARK>
 VINA RESULT:      -3.9      4.573      9.801
  Name = 
  23 active torsions:
  status: ('A' for Active; 'I' for Inactive)
    1  A    between atoms: C_1  and  C_21
    2  A    between atoms: C_1  and  O_29
    3  A    between atoms: C_1  and  C_38
    4  A    between atoms: C_1  and  C_53
    5  A    between atoms: C_2  and  C_19
    6  A    between atoms: C_2  and  C_28
    7  A    between atoms: C_2  and  C_44
    8  A    between atoms: C_4  and  C_40
    9  A    between atoms: C_8  and  C_20
   10  A    between atoms: C_8  and  O_43
   11  A    between atoms: N_10  and  C_32
   12  A    between atoms: C_16  and  N_17
   13  A    between atoms: C_19  and  C_40
   14  A    between atoms: C_20  and  C_42
   15  A    between atoms: C_21  and  C_42
   16  A    between atoms: C_27  and  C_31
   17  A    between atoms: C_28  and  C_49
   18  A    between atoms: C_31  and  C_54
   19  A    between atoms: C_32  and  C_48
   20  A    between atoms: C_33  and  C_52
   21  A    between atoms: S_35  and  O_43
   22  A    between atoms: S_35  and  C_51
   23  A    between atoms: C_51  and  C_54
                            x       y       z     vdW  Elec       q    Type
                         _______ _______ _______ _____ _____    ______ ____

>  <TORSDO>
F 23

$$$$
=
 OpenBabel10262420383D

 55 59  0  0  1  0  0  0  0  0999 V2000
  181.7590  178.5090  142.8080 O   0  0  0  0  0  0  0  0  0  0  0  0
  184.0030  179.0560  142.2440 C   0  0  1  0  0  3  0  0  0  0  0  0
  182.3530  179.0650  143.9490 C   0  0  0  0  0  2  0  0  0  0  0  0
  182.8300  178.1380  141.9780 C   0  0  2  0  0  3  0  0  0  0  0  0
  183.6490  179.7240  143.5410 C   0  0  0  0  0  2  0  0  0  0  0  0
  185.2680  178.2320  142.4030 C   0  0  0  0  0  2  0  0  0  0  0  0
  186.4480  178.9840  141.8170 C   0  0  0  0  0  2  0  0  0  0  0  0
  186.3960  178.9420  140.3020 C   0  0  0  0  0  2  0  0  0  0  0  0
  187.7880  177.9710  139.6480 S   0  0  0  0  0  0  0  0  0  0  0  0
  188.2420  177.4170  141.2110 O   0  0  0  0  0  0  0  0  0  0  0  0
  189.5750  177.0180  141.0750 C   0  0  0  0  0  2  0  0  0  0  0  0
  190.0740  175.4720  142.8070 O   0  0  0  0  0  1  0  0  0  0  0  0
  190.2080  176.8130  142.4470 C   0  0  0  0  0  0  0  0  0  0  0  0
  191.5660  177.1260  142.3960 O   0  0  0  0  0  1  0  0  0  0  0  0
  189.5040  177.6570  143.5170 C   0  0  0  0  0  2  0  0  0  0  0  0
  188.8400  176.9290  144.7040 C   0  0  2  0  0  3  0  0  0  0  0  0
  187.4460  176.9910  144.6670 O   0  0  0  0  0  1  0  0  0  0  0  0
  189.4220  177.1320  146.1370 C   0  0  2  0  0  0  0  0  0  0  0  0
  191.6950  177.5130  147.8560 O   0  0  0  0  0  1  0  0  0  0  0  0
  191.7940  176.1500  145.8150 C   0  0  1  0  0  3  0  0  0  0  0  0
  192.0130  175.0710  148.2180 C   0  0  0  0  0  1  0  0  0  0  0  0
  191.5890  176.2270  147.3240 C   0  0  1  0  0  0  0  0  0  0  0  0
  192.3390  174.8090  145.3560 C   0  0  0  0  0  1  0  0  0  0  0  0
  190.3950  175.9510  146.4140 C   0  0  1  0  0  3  0  0  0  0  0  0
  187.1880  178.0530  147.0250 C   0  0  0  0  0  2  0  0  0  0  0  0
  188.1990  178.2190  148.1400 C   0  0  0  0  0  2  0  0  0  0  0  0
  188.2910  177.0220  147.2050 C   0  0  0  0  0  3  0  0  0  0  0  0
  190.1300  178.3680  146.2120 O   0  0  0  0  0  0  0  0  0  0  0  0
  190.6020  178.6580  145.0120 O   0  0  0  0  0  1  0  0  0  0  0  0
  182.4310  178.1570  140.5000 C   0  0  2  0  0  3  0  0  0  0  0  0
  180.9630  178.5280  140.2930 C   0  0  0  0  0  2  0  0  0  0  0  0
  179.5680  180.0850  139.1620 O   0  0  0  0  0  1  0  0  0  0  0  0
  180.8220  179.9440  139.7580 C   0  0  2  0  0  3  0  0  0  0  0  0
  181.9100  180.2220  138.7340 C   0  0  0  0  0  2  0  0  0  0  0  0
  182.0080  181.7100  138.4620 C   0  0  0  0  0  1  0  0  0  0  0  0
  182.7160  176.8010  139.8800 C   0  0  0  0  0  2  0  0  0  0  0  0
  179.1190  174.1780  140.0160 C   0  0  0  0  0  1  0  0  0  0  0  0
  180.4930  173.9710  137.8130 C   0  0  2  0  0  3  0  0  0  0  0  0
  180.3290  174.6250  139.2150 C   0  0  1  0  0  3  0  0  0  0  0  0
  182.4960  175.5650  137.7010 C   0  0  2  0  0  3  0  0  0  0  0  0
  181.4480  174.7680  136.9110 C   0  0  0  0  0  2  0  0  0  0  0  0
  180.4220  176.1420  139.1340 C   0  0  0  0  0  2  0  0  0  0  0  0
  181.8220  176.5710  138.6670 C   0  0  1  0  0  3  0  0  0  0  0  0
  184.5850  175.3710  136.3000 C   0  0  0  0  0  2  0  0  0  0  0  0
  184.1340  177.4710  137.3600 C   0  0  0  0  0  2  0  0  0  0  0  0
  185.4830  177.5350  136.8250 N   0  0  0  0  0  2  0  0  0  0  0  0
  185.8550  176.1530  136.5560 C   0  0  2  0  0  3  0  0  0  0  0  0
  183.4470  176.2770  136.7250 C   0  0  2  0  0  3  0  0  0  0  0  0
  186.7600  176.0810  135.3370 C   0  0  0  0  0  2  0  0  0  0  0  0
  187.7360  175.0130  135.4930 N   0  0  0  0  0  0  0  0  0  0  0  0
  187.0150  173.7650  135.3270 C   0  0  0  0  0  1  0  0  0  0  0  0
  188.1890  175.0470  136.8730 C   0  0  0  0  0  1  0  0  0  0  0  0
  179.4250  174.1270  135.6840 C   0  0  0  0  0  1  0  0  0  0  0  0
  179.2510  173.7160  137.0670 N   0  0  0  0  0  0  0  0  0  0  0  0
  178.9620  172.3900  137.0800 O   0  0  0  0  0  1  0  0  0  0  0  0
  1  3  1  0  0  0  0
  2  6  1  1  0  0  0
  2  5  1  0  0  0  0
  4 30  1  6  0  0  0
  4  2  1  0  0  0  0
  4  1  1  0  0  0  0
  5  3  1  0  0  0  0
  7  6  1  0  0  0  0
  8  7  1  0  0  0  0
  9  8  1  0  0  0  0
  9 10  1  0  0  0  0
 11 10  1  0  0  0  0
 11 13  1  0  0  0  0
 13 12  1  0  0  0  0
 13 15  1  0  0  0  0
 14 13  1  0  0  0  0
 15 16  1  0  0  0  0
 16 17  1  1  0  0  0
 16 18  1  0  0  0  0
 18 28  1  1  0  0  0
 18 27  1  0  0  0  0
 20 23  1  1  0  0  0
 20 24  1  0  0  0  0
 20 22  1  0  0  0  0
 22 19  1  0  0  0  0
 22 21  1  1  0  0  0
 24 18  1  6  0  0  0
 24 22  1  0  0  0  0
 25 27  1  0  0  0  0
 25 26  1  0  0  0  0
 27 26  1  0  0  0  0
 29 28  1  0  0  0  0
 30 36  1  1  0  0  0
 31 30  1  0  0  0  0
 33 32  1  6  0  0  0
 33 31  1  0  0  0  0
 34 33  1  0  0  0  0
 35 34  1  0  0  0  0
 38 54  1  6  0  0  0
 38 39  1  0  0  0  0
 39 37  1  6  0  0  0
 40 41  1  6  0  0  0
 40 43  1  0  0  0  0
 41 38  1  0  0  0  0
 42 39  1  0  0  0  0
 43 42  1  0  0  0  0
 43 36  1  1  0  0  0
 44 47  1  0  0  0  0
 46 45  1  0  0  0  0
 47 49  1  6  0  0  0
 47 46  1  0  0  0  0
 48 44  1  1  0  0  0
 48 45  1  0  0  0  0
 48 40  1  0  0  0  0
 49 50  1  0  0  0  0
 50 52  1  0  0  0  0
 51 50  1  0  0  0  0
 53 54  1  0  0  0  0
 54 55  1  0  0  0  0
M  END
>  <MODEL>
8

>  <REMARK>
 VINA RESULT:      -3.9      2.548      6.145
  Name = 
  23 active torsions:
  status: ('A' for Active; 'I' for Inactive)
    1  A    between atoms: C_1  and  C_21
    2  A    between atoms: C_1  and  O_29
    3  A    between atoms: C_1  and  C_38
    4  A    between atoms: C_1  and  C_53
    5  A    between atoms: C_2  and  C_19
    6  A    between atoms: C_2  and  C_28
    7  A    between atoms: C_2  and  C_44
    8  A    between atoms: C_4  and  C_40
    9  A    between atoms: C_8  and  C_20
   10  A    between atoms: C_8  and  O_43
   11  A    between atoms: N_10  and  C_32
   12  A    between atoms: C_16  and  N_17
   13  A    between atoms: C_19  and  C_40
   14  A    between atoms: C_20  and  C_42
   15  A    between atoms: C_21  and  C_42
   16  A    between atoms: C_27  and  C_31
   17  A    between atoms: C_28  and  C_49
   18  A    between atoms: C_31  and  C_54
   19  A    between atoms: C_32  and  C_48
   20  A    between atoms: C_33  and  C_52
   21  A    between atoms: S_35  and  O_43
   22  A    between atoms: S_35  and  C_51
   23  A    between atoms: C_51  and  C_54
                            x       y       z     vdW  Elec       q    Type
                         _______ _______ _______ _____ _____    ______ ____

>  <TORSDO>
F 23

$$$$
=
 OpenBabel10262420383D

 55 59  0  0  1  0  0  0  0  0999 V2000
  184.3470  179.8020  144.5050 O   0  0  0  0  0  0  0  0  0  0  0  0
  183.8100  178.2430  142.7910 C   0  0  1  0  0  3  0  0  0  0  0  0
  183.1290  180.2050  143.9400 C   0  0  0  0  0  2  0  0  0  0  0  0
  184.9160  178.9240  143.5670 C   0  0  2  0  0  3  0  0  0  0  0  0
  182.5960  179.0720  143.0950 C   0  0  0  0  0  2  0  0  0  0  0  0
  184.1250  178.2910  141.3070 C   0  0  0  0  0  2  0  0  0  0  0  0
  183.0730  177.5200  140.5330 C   0  0  0  0  0  2  0  0  0  0  0  0
  182.7110  178.2600  139.2610 C   0  0  0  0  0  2  0  0  0  0  0  0
  181.3440  177.4180  138.4060 S   0  0  0  0  0  0  0  0  0  0  0  0
  182.1230  177.5310  136.8780 O   0  0  0  0  0  0  0  0  0  0  0  0
  182.9060  176.3770  136.7900 C   0  0  0  0  0  2  0  0  0  0  0  0
  181.6950  174.5610  135.8540 O   0  0  0  0  0  1  0  0  0  0  0  0
  182.5650  175.6000  135.5230 C   0  0  0  0  0  0  0  0  0  0  0  0
  181.9300  176.4380  134.6070 O   0  0  0  0  0  1  0  0  0  0  0  0
  183.8200  174.9780  134.8970 C   0  0  0  0  0  2  0  0  0  0  0  0
  184.4300  173.7280  135.5670 C   0  0  2  0  0  3  0  0  0  0  0  0
  183.6380  173.2260  136.6010 O   0  0  0  0  0  1  0  0  0  0  0  0
  185.9520  173.7180  135.9040 C   0  0  2  0  0  0  0  0  0  0  0  0
  188.5660  174.5610  136.7570 O   0  0  0  0  0  1  0  0  0  0  0  0
  186.7050  176.1330  136.4450 C   0  0  1  0  0  3  0  0  0  0  0  0
  188.8260  176.1590  134.8660 C   0  0  0  0  0  1  0  0  0  0  0  0
  187.9390  175.4430  135.8750 C   0  0  1  0  0  0  0  0  0  0  0  0
  186.4450  177.4950  135.8240 C   0  0  0  0  0  1  0  0  0  0  0  0
  186.5540  175.0490  135.3690 C   0  0  1  0  0  3  0  0  0  0  0  0
  186.0270  171.2110  135.3230 C   0  0  0  0  0  2  0  0  0  0  0  0
  187.3300  171.5330  136.0240 C   0  0  0  0  0  2  0  0  0  0  0  0
  186.6740  172.5730  135.1290 C   0  0  0  0  0  3  0  0  0  0  0  0
  186.1460  173.6330  137.3140 O   0  0  0  0  0  0  0  0  0  0  0  0
  184.9770  173.7920  137.9110 O   0  0  0  0  0  1  0  0  0  0  0  0
  185.8370  177.9030  144.2390 C   0  0  2  0  0  3  0  0  0  0  0  0
  186.9310  178.5610  145.0790 C   0  0  0  0  0  2  0  0  0  0  0  0
  186.1080  176.9010  146.5680 O   0  0  0  0  0  1  0  0  0  0  0  0
  187.1420  177.8200  146.3890 C   0  0  2  0  0  3  0  0  0  0  0  0
  187.1570  178.8070  147.5460 C   0  0  0  0  0  2  0  0  0  0  0  0
  186.0560  179.8350  147.3730 C   0  0  0  0  0  1  0  0  0  0  0  0
  186.4610  177.0090  143.1810 C   0  0  0  0  0  2  0  0  0  0  0  0
  186.9460  178.5930  139.0470 C   0  0  0  0  0  1  0  0  0  0  0  0
  189.0210  177.2870  139.9260 C   0  0  2  0  0  3  0  0  0  0  0  0
  187.5780  177.8080  140.1830 C   0  0  1  0  0  3  0  0  0  0  0  0
  188.7720  176.4780  142.3450 C   0  0  2  0  0  3  0  0  0  0  0  0
  189.7380  176.9050  141.2300 C   0  0  0  0  0  2  0  0  0  0  0  0
  187.4850  178.5570  141.5050 C   0  0  0  0  0  2  0  0  0  0  0  0
  187.7700  177.6090  142.6820 C   0  0  1  0  0  3  0  0  0  0  0  0
  189.9650  177.2440  144.4320 C   0  0  0  0  0  2  0  0  0  0  0  0
  190.8910  175.3950  143.2230 C   0  0  0  0  0  2  0  0  0  0  0  0
  191.8670  175.7930  144.2230 N   0  0  0  0  0  2  0  0  0  0  0  0
  191.4580  177.1240  144.6490 C   0  0  2  0  0  3  0  0  0  0  0  0
  189.5720  176.0500  143.5860 C   0  0  2  0  0  3  0  0  0  0  0  0
  191.7830  177.3270  146.1200 C   0  0  0  0  0  2  0  0  0  0  0  0
  190.9380  176.4790  146.9470 N   0  0  0  0  0  0  0  0  0  0  0  0
  190.3470  177.3410  147.9540 C   0  0  0  0  0  1  0  0  0  0  0  0
  191.8150  175.5620  147.6530 C   0  0  0  0  0  1  0  0  0  0  0  0
  191.2890  177.8580  139.4510 C   0  0  0  0  0  1  0  0  0  0  0  0
  189.9020  178.1750  139.1520 N   0  0  0  0  0  0  0  0  0  0  0  0
  189.7030  177.9860  137.8230 O   0  0  0  0  0  1  0  0  0  0  0  0
  2  6  1  6  0  0  0
  2  5  1  0  0  0  0
  2  4  1  0  0  0  0
  3  1  1  0  0  0  0
  4 30  1  1  0  0  0
  4  1  1  0  0  0  0
  5  3  1  0  0  0  0
  7  6  1  0  0  0  0
  8  7  1  0  0  0  0
  9  8  1  0  0  0  0
 10  9  1  0  0  0  0
 11 10  1  0  0  0  0
 13 12  1  0  0  0  0
 13 11  1  0  0  0  0
 14 13  1  0  0  0  0
 15 13  1  0  0  0  0
 15 16  1  0  0  0  0
 16 18  1  0  0  0  0
 16 17  1  1  0  0  0
 18 28  1  1  0  0  0
 20 23  1  6  0  0  0
 22 21  1  6  0  0  0
 22 20  1  0  0  0  0
 22 19  1  0  0  0  0
 24 22  1  0  0  0  0
 24 18  1  1  0  0  0
 24 20  1  0  0  0  0
 25 26  1  0  0  0  0
 27 25  1  0  0  0  0
 27 18  1  0  0  0  0
 27 26  1  0  0  0  0
 28 29  1  0  0  0  0
 30 36  1  6  0  0  0
 30 31  1  0  0  0  0
 31 33  1  0  0  0  0
 33 32  1  1  0  0  0
 33 34  1  0  0  0  0
 35 34  1  0  0  0  0
 38 54  1  1  0  0  0
 38 39  1  0  0  0  0
 38 41  1  0  0  0  0
 39 37  1  6  0  0  0
 39 42  1  0  0  0  0
 40 41  1  6  0  0  0
 40 43  1  0  0  0  0
 40 48  1  0  0  0  0
 42 43  1  0  0  0  0
 43 36  1  6  0  0  0
 44 47  1  0  0  0  0
 45 46  1  0  0  0  0
 46 47  1  0  0  0  0
 47 49  1  1  0  0  0
 48 45  1  6  0  0  0
 48 44  1  0  0  0  0
 49 50  1  0  0  0  0
 50 52  1  0  0  0  0
 50 51  1  0  0  0  0
 54 53  1  0  0  0  0
 55 54  1  0  0  0  0
M  END
>  <MODEL>
9

>  <REMARK>
 VINA RESULT:      -3.7      3.778     10.443
  Name = 
  23 active torsions:
  status: ('A' for Active; 'I' for Inactive)
    1  A    between atoms: C_1  and  C_21
    2  A    between atoms: C_1  and  O_29
    3  A    between atoms: C_1  and  C_38
    4  A    between atoms: C_1  and  C_53
    5  A    between atoms: C_2  and  C_19
    6  A    between atoms: C_2  and  C_28
    7  A    between atoms: C_2  and  C_44
    8  A    between atoms: C_4  and  C_40
    9  A    between atoms: C_8  and  C_20
   10  A    between atoms: C_8  and  O_43
   11  A    between atoms: N_10  and  C_32
   12  A    between atoms: C_16  and  N_17
   13  A    between atoms: C_19  and  C_40
   14  A    between atoms: C_20  and  C_42
   15  A    between atoms: C_21  and  C_42
   16  A    between atoms: C_27  and  C_31
   17  A    between atoms: C_28  and  C_49
   18  A    between atoms: C_31  and  C_54
   19  A    between atoms: C_32  and  C_48
   20  A    between atoms: C_33  and  C_52
   21  A    between atoms: S_35  and  O_43
   22  A    between atoms: S_35  and  C_51
   23  A    between atoms: C_51  and  C_54
                            x       y       z     vdW  Elec       q    Type
                         _______ _______ _______ _____ _____    ______ ____

>  <TORSDO>
F 23

$$$$
