=
 OpenBabel10262422053D

 43 47  0  0  1  0  0  0  0  0999 V2000
  191.5640  176.5430  147.2460 C   0  0  0  0  0  0  0  0  0  0  0  0
  187.3410  177.8930  144.8070 C   0  0  0  0  0  0  0  0  0  0  0  0
  187.9670  177.7430  142.1010 C   0  0  0  0  0  0  0  0  0  0  0  0
  189.3150  177.2600  146.7040 C   0  0  0  0  0  0  0  0  0  0  0  0
  191.8700  176.4550  145.8850 C   0  0  0  0  0  3  0  0  0  0  0  0
  192.5270  176.2290  148.1940 O   0  0  0  0  0  1  0  0  0  0  0  0
  189.6190  177.1780  145.3230 C   0  0  0  0  0  0  0  0  0  0  0  0
  190.2880  176.9440  147.6550 C   0  0  0  0  0  3  0  0  0  0  0  0
  190.9030  176.7710  144.9270 C   0  0  0  0  0  3  0  0  0  0  0  0
  188.9020  177.4310  143.0400 N   0  0  0  0  0  0  0  0  0  0  0  0
  188.6310  177.4980  144.3740 C   0  0  0  0  0  0  0  0  0  0  0  0
  187.0610  177.9670  146.1770 C   0  0  0  0  0  3  0  0  0  0  0  0
  186.3540  178.1940  143.8540 C   0  0  0  0  0  0  0  0  0  0  0  0
  186.6840  178.1220  142.4930 C   0  0  0  0  0  3  0  0  0  0  0  0
  188.0410  177.6540  147.1200 C   0  0  0  0  0  3  0  0  0  0  0  0
  188.2910  177.6330  140.6500 C   0  0  1  0  0  3  0  0  0  0  0  0
  188.1310  178.8740  140.0310 O   0  0  0  0  0  1  0  0  0  0  0  0
  189.6590  177.1690  140.4880 N   0  0  0  0  0  2  0  0  0  0  0  0
  190.0680  177.5000  139.1330 C   0  0  0  0  0  2  0  0  0  0  0  0
  190.0380  176.2560  138.2510 C   0  0  1  0  0  3  0  0  0  0  0  0
  188.6550  176.1020  137.6500 C   0  0  0  0  0  1  0  0  0  0  0  0
  191.0980  176.2520  137.1400 C   0  0  2  0  0  3  0  0  0  0  0  0
  192.3400  174.6630  135.7600 C   0  0  0  0  0  2  0  0  0  0  0  0
  190.4790  176.2150  135.7600 C   0  0  0  0  0  2  0  0  0  0  0  0
  192.0630  175.0760  137.2010 C   0  0  1  0  0  3  0  0  0  0  0  0
  191.5380  175.5970  134.8730 C   0  0  0  0  0  2  0  0  0  0  0  0
  193.3380  175.4530  137.9630 C   0  0  2  0  0  3  0  0  0  0  0  0
  193.5240  176.8390  137.9580 O   0  0  0  0  0  1  0  0  0  0  0  0
  194.5750  174.7530  137.3960 C   0  0  1  0  0  3  0  0  0  0  0  0
  195.4910  175.6980  136.9340 O   0  0  0  0  0  1  0  0  0  0  0  0
  195.2360  173.8660  138.4110 C   0  0  0  0  0  0  0  0  0  0  0  0
  195.0850  172.5480  138.3120 C   0  0  0  0  0  2  0  0  0  0  0  0
  195.7240  175.5080  140.0480 O   0  0  0  0  0  1  0  0  0  0  0  0
  196.2560  174.4190  139.3560 C   0  0  0  0  0  2  0  0  0  0  0  0
  185.0740  178.5850  144.2870 O   0  0  0  0  0  0  0  0  0  0  0  0
  182.7160  178.5000  141.3940 C   0  0  0  0  0  3  0  0  0  0  0  0
  181.5010  178.6990  142.0580 C   0  0  0  0  0  0  0  0  0  0  0  0
  182.6830  178.8360  144.1680 C   0  0  0  0  0  3  0  0  0  0  0  0
  183.9090  178.4630  142.1190 C   0  0  0  0  0  3  0  0  0  0  0  0
  183.9030  178.6370  143.5130 C   0  0  0  0  0  0  0  0  0  0  0  0
  181.4860  178.8720  143.4450 C   0  0  0  0  0  3  0  0  0  0  0  0
  179.2670  177.8300  141.8520 N   0  0  0  0  0  1  0  0  0  0  0  0
  180.2310  178.7560  141.2850 C   0  0  0  0  0  2  0  0  0  0  0  0
  1  8  1  0  0  0  0
  1  6  1  0  0  0  0
  2 12  1  0  0  0  0
  3 14  2  0  0  0  0
  3 10  1  0  0  0  0
  4 15  1  0  0  0  0
  4  8  2  0  0  0  0
  5  1  2  0  0  0  0
  7  4  1  0  0  0  0
  9  7  2  0  0  0  0
  9  5  1  0  0  0  0
 10 11  2  0  0  0  0
 11  2  1  0  0  0  0
 11  7  1  0  0  0  0
 12 15  2  0  0  0  0
 13 35  1  0  0  0  0
 13  2  2  0  0  0  0
 14 13  1  0  0  0  0
 16 17  1  6  0  0  0
 16  3  1  0  0  0  0
 18 16  1  0  0  0  0
 19 18  1  0  0  0  0
 20 21  1  6  0  0  0
 20 19  1  0  0  0  0
 22 25  1  0  0  0  0
 22 20  1  1  0  0  0
 23 25  1  0  0  0  0
 24 22  1  0  0  0  0
 25 27  1  6  0  0  0
 26 23  1  0  0  0  0
 26 24  1  0  0  0  0
 27 28  1  6  0  0  0
 29 30  1  1  0  0  0
 29 27  1  0  0  0  0
 29 31  1  0  0  0  0
 31 34  1  0  0  0  0
 32 31  2  0  0  0  0
 34 33  1  0  0  0  0
 36 37  2  0  0  0  0
 36 39  1  0  0  0  0
 37 41  1  0  0  0  0
 39 40  2  0  0  0  0
 40 38  1  0  0  0  0
 40 35  1  0  0  0  0
 41 38  2  0  0  0  0
 43 42  1  0  0  0  0
 43 37  1  0  0  0  0
M  END
>  <MODEL>
1

>  <REMARK>
 VINA RESULT:     -10.3      0.000      0.000
  Name = 
  12 active torsions:
  status: ('A' for Active; 'I' for Inactive)
    1  A    between atoms: O_1  and  C_34
    2  A    between atoms: O_1  and  C_35
    3  A    between atoms: C_2  and  N_6
    4  A    between atoms: C_2  and  C_13
    5  A    between atoms: C_3  and  C_4
    6  A    between atoms: C_3  and  C_12
    7  A    between atoms: N_6  and  C_12
    8  A    between atoms: C_11  and  C_14
    9  A    between atoms: C_11  and  C_29
   10  A    between atoms: C_14  and  C_22
   11  A    between atoms: C_19  and  C_37
   12  A    between atoms: C_29  and  C_31
                            x       y       z     vdW  Elec       q    Type
                         _______ _______ _______ _____ _____    ______ ____

>  <TORSDO>
F 12

$$$$
=
 OpenBabel10262422053D

 43 47  0  0  1  0  0  0  0  0999 V2000
  191.5850  176.4320  147.1950 C   0  0  0  0  0  0  0  0  0  0  0  0
  187.3630  177.7390  144.7310 C   0  0  0  0  0  0  0  0  0  0  0  0
  188.0680  177.8210  142.0420 C   0  0  0  0  0  0  0  0  0  0  0  0
  189.3150  177.0700  146.6370 C   0  0  0  0  0  0  0  0  0  0  0  0
  191.9320  176.4610  145.8410 C   0  0  0  0  0  3  0  0  0  0  0  0
  192.5370  176.0990  148.1470 O   0  0  0  0  0  1  0  0  0  0  0  0
  189.6610  177.1060  145.2640 C   0  0  0  0  0  0  0  0  0  0  0  0
  190.2780  176.7360  147.5930 C   0  0  0  0  0  3  0  0  0  0  0  0
  190.9750  176.7970  144.8790 C   0  0  0  0  0  3  0  0  0  0  0  0
  188.9920  177.4900  142.9840 N   0  0  0  0  0  0  0  0  0  0  0  0
  188.6830  177.4440  144.3100 C   0  0  0  0  0  0  0  0  0  0  0  0
  187.0410  177.6970  146.0940 C   0  0  0  0  0  3  0  0  0  0  0  0
  186.3870  178.0570  143.7720 C   0  0  0  0  0  0  0  0  0  0  0  0
  186.7560  178.1040  142.4210 C   0  0  0  0  0  3  0  0  0  0  0  0
  188.0120  177.3660  147.0410 C   0  0  0  0  0  3  0  0  0  0  0  0
  188.4360  177.8360  140.5980 C   0  0  1  0  0  3  0  0  0  0  0  0
  188.1540  179.0860  140.0460 O   0  0  0  0  0  1  0  0  0  0  0  0
  189.8510  177.5360  140.4500 N   0  0  0  0  0  2  0  0  0  0  0  0
  189.9630  176.4390  139.5040 C   0  0  0  0  0  2  0  0  0  0  0  0
  189.8680  176.9600  138.0730 C   0  0  1  0  0  3  0  0  0  0  0  0
  191.1880  176.7230  137.3660 C   0  0  0  0  0  1  0  0  0  0  0  0
  188.7180  176.3480  137.2600 C   0  0  2  0  0  3  0  0  0  0  0  0
  187.9410  176.2160  134.9470 C   0  0  0  0  0  2  0  0  0  0  0  0
  189.0730  174.9880  136.7030 C   0  0  0  0  0  2  0  0  0  0  0  0
  188.2780  177.1900  136.0700 C   0  0  1  0  0  3  0  0  0  0  0  0
  188.1860  174.8200  135.4880 C   0  0  0  0  0  2  0  0  0  0  0  0
  187.0960  178.0920  136.4440 C   0  0  2  0  0  3  0  0  0  0  0  0
  187.5460  179.3530  136.8470 O   0  0  0  0  0  1  0  0  0  0  0  0
  186.2210  177.4710  137.5340 C   0  0  1  0  0  3  0  0  0  0  0  0
  185.6890  178.4710  138.3500 O   0  0  0  0  0  1  0  0  0  0  0  0
  185.1060  176.6450  136.9610 C   0  0  0  0  0  0  0  0  0  0  0  0
  184.3420  177.1670  136.0050 C   0  0  0  0  0  2  0  0  0  0  0  0
  183.8210  174.9100  137.9360 O   0  0  0  0  0  1  0  0  0  0  0  0
  185.0110  175.1820  137.2600 C   0  0  0  0  0  2  0  0  0  0  0  0
  185.0760  178.3490  144.1930 O   0  0  0  0  0  0  0  0  0  0  0  0
  181.6060  179.0770  143.0240 C   0  0  0  0  0  3  0  0  0  0  0  0
  181.7550  178.8550  141.6510 C   0  0  0  0  0  0  0  0  0  0  0  0
  184.0840  178.2880  142.0010 C   0  0  0  0  0  3  0  0  0  0  0  0
  182.6970  178.9100  143.8800 C   0  0  0  0  0  3  0  0  0  0  0  0
  183.9450  178.5080  143.3750 C   0  0  0  0  0  0  0  0  0  0  0  0
  182.9940  178.4560  141.1410 C   0  0  0  0  0  3  0  0  0  0  0  0
  180.9890  178.7350  139.3730 N   0  0  0  0  0  1  0  0  0  0  0  0
  180.5890  179.0160  140.7410 C   0  0  0  0  0  2  0  0  0  0  0  0
  1  8  1  0  0  0  0
  1  6  1  0  0  0  0
  2 12  1  0  0  0  0
  3 14  2  0  0  0  0
  3 10  1  0  0  0  0
  4 15  1  0  0  0  0
  4  8  2  0  0  0  0
  5  1  2  0  0  0  0
  7  4  1  0  0  0  0
  9  7  2  0  0  0  0
  9  5  1  0  0  0  0
 10 11  2  0  0  0  0
 11  2  1  0  0  0  0
 11  7  1  0  0  0  0
 12 15  2  0  0  0  0
 13 35  1  0  0  0  0
 13  2  2  0  0  0  0
 14 13  1  0  0  0  0
 16 17  1  1  0  0  0
 16  3  1  0  0  0  0
 18 16  1  0  0  0  0
 19 18  1  0  0  0  0
 20 21  1  6  0  0  0
 20 19  1  0  0  0  0
 22 20  1  6  0  0  0
 23 26  1  0  0  0  0
 23 25  1  0  0  0  0
 24 22  1  0  0  0  0
 25 27  1  1  0  0  0
 25 22  1  0  0  0  0
 26 24  1  0  0  0  0
 27 28  1  1  0  0  0
 27 29  1  0  0  0  0
 29 30  1  6  0  0  0
 31 34  1  0  0  0  0
 31 29  1  0  0  0  0
 32 31  2  0  0  0  0
 34 33  1  0  0  0  0
 36 39  1  0  0  0  0
 37 36  2  0  0  0  0
 38 40  1  0  0  0  0
 40 39  2  0  0  0  0
 40 35  1  0  0  0  0
 41 37  1  0  0  0  0
 41 38  2  0  0  0  0
 42 43  1  0  0  0  0
 43 37  1  0  0  0  0
M  END
>  <MODEL>
2

>  <REMARK>
 VINA RESULT:     -10.1      2.797      4.615
  Name = 
  12 active torsions:
  status: ('A' for Active; 'I' for Inactive)
    1  A    between atoms: O_1  and  C_34
    2  A    between atoms: O_1  and  C_35
    3  A    between atoms: C_2  and  N_6
    4  A    between atoms: C_2  and  C_13
    5  A    between atoms: C_3  and  C_4
    6  A    between atoms: C_3  and  C_12
    7  A    between atoms: N_6  and  C_12
    8  A    between atoms: C_11  and  C_14
    9  A    between atoms: C_11  and  C_29
   10  A    between atoms: C_14  and  C_22
   11  A    between atoms: C_19  and  C_37
   12  A    between atoms: C_29  and  C_31
                            x       y       z     vdW  Elec       q    Type
                         _______ _______ _______ _____ _____    ______ ____

>  <TORSDO>
F 12

$$$$
=
 OpenBabel10262422053D

 43 47  0  0  1  0  0  0  0  0999 V2000
  191.3970  176.7260  147.2310 C   0  0  0  0  0  0  0  0  0  0  0  0
  187.1040  177.8510  144.8000 C   0  0  0  0  0  0  0  0  0  0  0  0
  187.7480  177.7970  142.0940 C   0  0  0  0  0  0  0  0  0  0  0  0
  189.1080  177.3080  146.6920 C   0  0  0  0  0  0  0  0  0  0  0  0
  191.7130  176.6860  145.8690 C   0  0  0  0  0  3  0  0  0  0  0  0
  192.3750  176.4560  148.1760 O   0  0  0  0  0  1  0  0  0  0  0  0
  189.4220  177.2730  145.3120 C   0  0  0  0  0  0  0  0  0  0  0  0
  190.0960  177.0360  147.6420 C   0  0  0  0  0  3  0  0  0  0  0  0
  190.7310  176.9580  144.9130 C   0  0  0  0  0  3  0  0  0  0  0  0
  188.6970  177.5260  143.0310 N   0  0  0  0  0  0  0  0  0  0  0  0
  188.4180  177.5490  144.3640 C   0  0  0  0  0  0  0  0  0  0  0  0
  186.8150  177.8790  146.1700 C   0  0  0  0  0  3  0  0  0  0  0  0
  186.1030  178.1070  143.8480 C   0  0  0  0  0  0  0  0  0  0  0  0
  186.4410  178.0850  142.4880 C   0  0  0  0  0  3  0  0  0  0  0  0
  187.8100  177.6110  147.1110 C   0  0  0  0  0  3  0  0  0  0  0  0
  188.0820  177.7370  140.6430 C   0  0  1  0  0  3  0  0  0  0  0  0
  187.3360  178.6860  139.9420 O   0  0  0  0  0  1  0  0  0  0  0  0
  189.5020  177.9860  140.4580 N   0  0  0  0  0  2  0  0  0  0  0  0
  190.0800  176.7830  139.8840 C   0  0  0  0  0  2  0  0  0  0  0  0
  191.4040  177.1040  139.1970 C   0  0  1  0  0  3  0  0  0  0  0  0
  192.4670  177.3480  140.2500 C   0  0  0  0  0  1  0  0  0  0  0  0
  191.8760  176.0230  138.2140 C   0  0  2  0  0  3  0  0  0  0  0  0
  192.6380  175.8180  135.9010 C   0  0  0  0  0  2  0  0  0  0  0  0
  193.3810  175.8750  138.2070 C   0  0  0  0  0  2  0  0  0  0  0  0
  191.4700  176.2740  136.7690 C   0  0  1  0  0  3  0  0  0  0  0  0
  193.7120  175.3080  136.8440 C   0  0  0  0  0  2  0  0  0  0  0  0
  190.1640  175.5440  136.4320 C   0  0  2  0  0  3  0  0  0  0  0  0
  190.4240  174.3830  135.6970 O   0  0  0  0  0  1  0  0  0  0  0  0
  189.1840  176.4400  135.6730 C   0  0  1  0  0  3  0  0  0  0  0  0
  188.3220  175.6610  134.9000 O   0  0  0  0  0  1  0  0  0  0  0  0
  188.3810  177.3090  136.5970 C   0  0  0  0  0  0  0  0  0  0  0  0
  188.7690  178.5660  136.7990 C   0  0  0  0  0  2  0  0  0  0  0  0
  186.0740  177.8250  136.7380 O   0  0  0  0  0  1  0  0  0  0  0  0
  187.0340  176.8710  137.0770 C   0  0  0  0  0  2  0  0  0  0  0  0
  184.7990  178.4060  144.2830 O   0  0  0  0  0  0  0  0  0  0  0  0
  182.5370  178.6110  141.3200 C   0  0  0  0  0  3  0  0  0  0  0  0
  181.3200  178.8770  141.9550 C   0  0  0  0  0  0  0  0  0  0  0  0
  182.4380  178.8430  144.1030 C   0  0  0  0  0  3  0  0  0  0  0  0
  183.7000  178.4570  142.0780 C   0  0  0  0  0  3  0  0  0  0  0  0
  183.6610  178.5760  143.4770 C   0  0  0  0  0  0  0  0  0  0  0  0
  181.2720  178.9970  143.3460 C   0  0  0  0  0  3  0  0  0  0  0  0
  180.2970  178.5580  139.8000 N   0  0  0  0  0  1  0  0  0  0  0  0
  180.0840  179.0590  141.1460 C   0  0  0  0  0  2  0  0  0  0  0  0
  1  8  1  0  0  0  0
  1  6  1  0  0  0  0
  2 12  1  0  0  0  0
  3 14  2  0  0  0  0
  3 10  1  0  0  0  0
  4 15  1  0  0  0  0
  4  8  2  0  0  0  0
  5  1  2  0  0  0  0
  7  4  1  0  0  0  0
  9  7  2  0  0  0  0
  9  5  1  0  0  0  0
 10 11  2  0  0  0  0
 11  2  1  0  0  0  0
 11  7  1  0  0  0  0
 12 15  2  0  0  0  0
 13 35  1  0  0  0  0
 13  2  2  0  0  0  0
 14 13  1  0  0  0  0
 16 17  1  6  0  0  0
 16  3  1  0  0  0  0
 18 16  1  0  0  0  0
 19 18  1  0  0  0  0
 20 19  1  0  0  0  0
 20 21  1  1  0  0  0
 22 20  1  1  0  0  0
 23 25  1  0  0  0  0
 23 26  1  0  0  0  0
 24 22  1  0  0  0  0
 25 27  1  6  0  0  0
 25 22  1  0  0  0  0
 26 24  1  0  0  0  0
 27 28  1  6  0  0  0
 29 30  1  1  0  0  0
 29 27  1  0  0  0  0
 29 31  1  0  0  0  0
 31 32  2  0  0  0  0
 31 34  1  0  0  0  0
 33 34  1  0  0  0  0
 36 37  2  0  0  0  0
 36 39  1  0  0  0  0
 37 41  1  0  0  0  0
 39 40  2  0  0  0  0
 40 38  1  0  0  0  0
 40 35  1  0  0  0  0
 41 38  2  0  0  0  0
 42 43  1  0  0  0  0
 43 37  1  0  0  0  0
M  END
>  <MODEL>
3

>  <REMARK>
 VINA RESULT:     -10.0      1.881      3.525
  Name = 
  12 active torsions:
  status: ('A' for Active; 'I' for Inactive)
    1  A    between atoms: O_1  and  C_34
    2  A    between atoms: O_1  and  C_35
    3  A    between atoms: C_2  and  N_6
    4  A    between atoms: C_2  and  C_13
    5  A    between atoms: C_3  and  C_4
    6  A    between atoms: C_3  and  C_12
    7  A    between atoms: N_6  and  C_12
    8  A    between atoms: C_11  and  C_14
    9  A    between atoms: C_11  and  C_29
   10  A    between atoms: C_14  and  C_22
   11  A    between atoms: C_19  and  C_37
   12  A    between atoms: C_29  and  C_31
                            x       y       z     vdW  Elec       q    Type
                         _______ _______ _______ _____ _____    ______ ____

>  <TORSDO>
F 12

$$$$
=
 OpenBabel10262422053D

 43 47  0  0  1  0  0  0  0  0999 V2000
  191.3630  176.6900  147.0260 C   0  0  0  0  0  0  0  0  0  0  0  0
  187.1550  177.8500  144.4670 C   0  0  0  0  0  0  0  0  0  0  0  0
  187.9720  178.2600  141.8410 C   0  0  0  0  0  0  0  0  0  0  0  0
  189.0720  177.1750  146.4060 C   0  0  0  0  0  0  0  0  0  0  0  0
  191.7680  176.8830  145.7020 C   0  0  0  0  0  3  0  0  0  0  0  0
  192.2980  176.3530  147.9940 O   0  0  0  0  0  1  0  0  0  0  0  0
  189.4750  177.3760  145.0640 C   0  0  0  0  0  0  0  0  0  0  0  0
  190.0170  176.8360  147.3780 C   0  0  0  0  0  3  0  0  0  0  0  0
  190.8290  177.2250  144.7250 C   0  0  0  0  0  3  0  0  0  0  0  0
  188.8790  177.9210  142.7970 N   0  0  0  0  0  0  0  0  0  0  0  0
  188.5150  177.7170  144.0940 C   0  0  0  0  0  0  0  0  0  0  0  0
  186.7760  177.6460  145.8010 C   0  0  0  0  0  3  0  0  0  0  0  0
  186.1980  178.1730  143.4900 C   0  0  0  0  0  0  0  0  0  0  0  0
  186.6240  178.3850  142.1710 C   0  0  0  0  0  3  0  0  0  0  0  0
  187.7290  177.3120  146.7650 C   0  0  0  0  0  3  0  0  0  0  0  0
  188.4040  178.4490  140.4260 C   0  0  1  0  0  3  0  0  0  0  0  0
  189.3580  177.4880  140.0860 O   0  0  0  0  0  1  0  0  0  0  0  0
  187.2530  178.3390  139.5450 N   0  0  0  0  0  2  0  0  0  0  0  0
  187.6520  177.5190  138.4140 C   0  0  0  0  0  2  0  0  0  0  0  0
  186.6420  177.6510  137.2790 C   0  0  1  0  0  3  0  0  0  0  0  0
  187.2250  178.5270  136.1890 C   0  0  0  0  0  1  0  0  0  0  0  0
  186.1880  176.3080  136.6880 C   0  0  2  0  0  3  0  0  0  0  0  0
  186.0190  173.9560  137.3280 C   0  0  0  0  0  2  0  0  0  0  0  0
  184.7460  175.9950  137.0210 C   0  0  0  0  0  2  0  0  0  0  0  0
  187.0000  175.1110  137.1610 C   0  0  1  0  0  3  0  0  0  0  0  0
  184.6480  174.4860  136.9530 C   0  0  0  0  0  2  0  0  0  0  0  0
  188.1280  174.7890  136.1740 C   0  0  2  0  0  3  0  0  0  0  0  0
  187.7260  173.8000  135.2720 O   0  0  0  0  0  1  0  0  0  0  0  0
  189.4120  174.3630  136.8870 C   0  0  1  0  0  3  0  0  0  0  0  0
  189.9400  173.2210  136.2820 O   0  0  0  0  0  1  0  0  0  0  0  0
  190.4460  175.4520  136.8910 C   0  0  0  0  0  0  0  0  0  0  0  0
  190.3220  176.4600  136.0310 C   0  0  0  0  0  2  0  0  0  0  0  0
  192.4820  176.4080  137.6320 O   0  0  0  0  0  1  0  0  0  0  0  0
  191.4440  175.5510  138.0000 C   0  0  0  0  0  2  0  0  0  0  0  0
  184.8480  178.3040  143.8640 O   0  0  0  0  0  0  0  0  0  0  0  0
  182.6760  178.3540  140.8280 C   0  0  0  0  0  3  0  0  0  0  0  0
  181.4870  178.8410  141.3810 C   0  0  0  0  0  0  0  0  0  0  0  0
  182.5580  178.9770  143.5500 C   0  0  0  0  0  3  0  0  0  0  0  0
  183.8000  178.1740  141.6380 C   0  0  0  0  0  3  0  0  0  0  0  0
  183.7510  178.4900  143.0060 C   0  0  0  0  0  0  0  0  0  0  0  0
  181.4310  179.1570  142.7410 C   0  0  0  0  0  3  0  0  0  0  0  0
  180.4720  180.2480  139.7140 N   0  0  0  0  0  1  0  0  0  0  0  0
  180.2950  179.0500  140.5160 C   0  0  0  0  0  2  0  0  0  0  0  0
  1  8  1  0  0  0  0
  1  6  1  0  0  0  0
  2 12  1  0  0  0  0
  3 14  2  0  0  0  0
  3 10  1  0  0  0  0
  4 15  1  0  0  0  0
  4  8  2  0  0  0  0
  5  1  2  0  0  0  0
  7  4  1  0  0  0  0
  9  7  2  0  0  0  0
  9  5  1  0  0  0  0
 10 11  2  0  0  0  0
 11  2  1  0  0  0  0
 11  7  1  0  0  0  0
 12 15  2  0  0  0  0
 13 35  1  0  0  0  0
 13  2  2  0  0  0  0
 14 13  1  0  0  0  0
 16 17  1  6  0  0  0
 16  3  1  0  0  0  0
 18 16  1  0  0  0  0
 19 18  1  0  0  0  0
 20 21  1  6  0  0  0
 20 19  1  0  0  0  0
 22 24  1  0  0  0  0
 22 25  1  0  0  0  0
 22 20  1  1  0  0  0
 25 27  1  6  0  0  0
 25 23  1  0  0  0  0
 26 24  1  0  0  0  0
 26 23  1  0  0  0  0
 27 28  1  6  0  0  0
 27 29  1  0  0  0  0
 29 30  1  6  0  0  0
 29 31  1  0  0  0  0
 31 34  1  0  0  0  0
 32 31  2  0  0  0  0
 33 34  1  0  0  0  0
 36 37  2  0  0  0  0
 36 39  1  0  0  0  0
 37 41  1  0  0  0  0
 39 40  2  0  0  0  0
 40 38  1  0  0  0  0
 40 35  1  0  0  0  0
 41 38  2  0  0  0  0
 42 43  1  0  0  0  0
 43 37  1  0  0  0  0
M  END
>  <MODEL>
4

>  <REMARK>
 VINA RESULT:      -9.9      2.145      3.415
  Name = 
  12 active torsions:
  status: ('A' for Active; 'I' for Inactive)
    1  A    between atoms: O_1  and  C_34
    2  A    between atoms: O_1  and  C_35
    3  A    between atoms: C_2  and  N_6
    4  A    between atoms: C_2  and  C_13
    5  A    between atoms: C_3  and  C_4
    6  A    between atoms: C_3  and  C_12
    7  A    between atoms: N_6  and  C_12
    8  A    between atoms: C_11  and  C_14
    9  A    between atoms: C_11  and  C_29
   10  A    between atoms: C_14  and  C_22
   11  A    between atoms: C_19  and  C_37
   12  A    between atoms: C_29  and  C_31
                            x       y       z     vdW  Elec       q    Type
                         _______ _______ _______ _____ _____    ______ ____

>  <TORSDO>
F 12

$$$$
=
 OpenBabel10262422053D

 43 47  0  0  1  0  0  0  0  0999 V2000
  187.8160  177.4130  147.3970 C   0  0  0  0  0  0  0  0  0  0  0  0
  186.2950  178.6760  142.7390 C   0  0  0  0  0  0  0  0  0  0  0  0
  188.3860  177.9520  141.0540 C   0  0  0  0  0  0  0  0  0  0  0  0
  186.5470  178.2280  145.5010 C   0  0  0  0  0  0  0  0  0  0  0  0
  188.8590  177.0380  146.5450 C   0  0  0  0  0  3  0  0  0  0  0  0
  187.9250  177.1940  148.7630 O   0  0  0  0  0  1  0  0  0  0  0  0
  187.6010  177.8550  144.6330 C   0  0  0  0  0  0  0  0  0  0  0  0
  186.6620  178.0080  146.8760 C   0  0  0  0  0  3  0  0  0  0  0  0
  188.7530  177.2570  145.1690 C   0  0  0  0  0  3  0  0  0  0  0  0
  188.4780  177.7360  142.3950 N   0  0  0  0  0  0  0  0  0  0  0  0
  187.4760  178.0820  143.2490 C   0  0  0  0  0  0  0  0  0  0  0  0
  185.2640  179.0380  143.6150 C   0  0  0  0  0  3  0  0  0  0  0  0
  186.1680  178.8840  141.3560 C   0  0  0  0  0  0  0  0  0  0  0  0
  187.2320  178.5220  140.5170 C   0  0  0  0  0  3  0  0  0  0  0  0
  185.3890  178.8170  144.9880 C   0  0  0  0  0  3  0  0  0  0  0  0
  189.4920  177.5360  140.1460 C   0  0  1  0  0  3  0  0  0  0  0  0
  190.2450  176.5240  140.7440 O   0  0  0  0  0  1  0  0  0  0  0  0
  188.9390  177.0650  138.8860 N   0  0  0  0  0  2  0  0  0  0  0  0
  189.8990  177.3910  137.8460 C   0  0  0  0  0  2  0  0  0  0  0  0
  190.0200  176.2390  136.8540 C   0  0  1  0  0  3  0  0  0  0  0  0
  191.1280  175.3060  137.3040 C   0  0  0  0  0  1  0  0  0  0  0  0
  188.7190  175.4500  136.6500 C   0  0  2  0  0  3  0  0  0  0  0  0
  187.5420  174.2260  134.8930 C   0  0  0  0  0  2  0  0  0  0  0  0
  188.9080  173.9660  136.8780 C   0  0  0  0  0  2  0  0  0  0  0  0
  188.1150  175.5900  135.2600 C   0  0  1  0  0  3  0  0  0  0  0  0
  187.8150  173.3040  136.0670 C   0  0  0  0  0  2  0  0  0  0  0  0
  187.0590  176.7010  135.2300 C   0  0  2  0  0  3  0  0  0  0  0  0
  187.6300  177.9130  134.8300 O   0  0  0  0  0  1  0  0  0  0  0  0
  186.3610  176.8670  136.5810 C   0  0  1  0  0  3  0  0  0  0  0  0
  186.3730  178.2090  136.9650 O   0  0  0  0  0  1  0  0  0  0  0  0
  184.9460  176.3670  136.5510 C   0  0  0  0  0  0  0  0  0  0  0  0
  184.0750  176.9460  135.7290 C   0  0  0  0  0  2  0  0  0  0  0  0
  184.3120  174.1020  136.2700 O   0  0  0  0  0  1  0  0  0  0  0  0
  184.5780  175.0830  137.2260 C   0  0  0  0  0  2  0  0  0  0  0  0
  184.9940  179.4740  140.8520 O   0  0  0  0  0  0  0  0  0  0  0  0
  182.3960  178.7570  138.2680 C   0  0  0  0  0  3  0  0  0  0  0  0
  182.0170  177.4660  138.6490 C   0  0  0  0  0  0  0  0  0  0  0  0
  183.5990  177.5470  140.4810 C   0  0  0  0  0  3  0  0  0  0  0  0
  183.3790  179.4370  138.9910 C   0  0  0  0  0  3  0  0  0  0  0  0
  183.9860  178.8390  140.1080 C   0  0  0  0  0  0  0  0  0  0  0  0
  182.6160  176.8640  139.7580 C   0  0  0  0  0  3  0  0  0  0  0  0
  180.0020  177.7020  137.3550 N   0  0  0  0  0  1  0  0  0  0  0  0
  180.9580  176.7480  137.8900 C   0  0  0  0  0  2  0  0  0  0  0  0
  1  6  1  0  0  0  0
  2 11  1  0  0  0  0
  2 12  1  0  0  0  0
  3 10  1  0  0  0  0
  4  8  2  0  0  0  0
  5  1  2  0  0  0  0
  7  9  2  0  0  0  0
  7  4  1  0  0  0  0
  8  1  1  0  0  0  0
  9  5  1  0  0  0  0
 10 11  2  0  0  0  0
 11  7  1  0  0  0  0
 12 15  2  0  0  0  0
 13  2  2  0  0  0  0
 14  3  2  0  0  0  0
 14 13  1  0  0  0  0
 15  4  1  0  0  0  0
 16 17  1  1  0  0  0
 16  3  1  0  0  0  0
 18 16  1  0  0  0  0
 19 18  1  0  0  0  0
 20 21  1  1  0  0  0
 20 19  1  0  0  0  0
 22 20  1  6  0  0  0
 22 24  1  0  0  0  0
 23 25  1  0  0  0  0
 23 26  1  0  0  0  0
 25 27  1  1  0  0  0
 25 22  1  0  0  0  0
 26 24  1  0  0  0  0
 27 28  1  1  0  0  0
 27 29  1  0  0  0  0
 29 30  1  6  0  0  0
 31 29  1  0  0  0  0
 31 34  1  0  0  0  0
 32 31  2  0  0  0  0
 33 34  1  0  0  0  0
 35 13  1  0  0  0  0
 36 37  2  0  0  0  0
 36 39  1  0  0  0  0
 37 41  1  0  0  0  0
 39 40  2  0  0  0  0
 40 38  1  0  0  0  0
 40 35  1  0  0  0  0
 41 38  2  0  0  0  0
 42 43  1  0  0  0  0
 43 37  1  0  0  0  0
M  END
>  <MODEL>
5

>  <REMARK>
 VINA RESULT:      -9.6      2.877      5.217
  Name = 
  12 active torsions:
  status: ('A' for Active; 'I' for Inactive)
    1  A    between atoms: O_1  and  C_34
    2  A    between atoms: O_1  and  C_35
    3  A    between atoms: C_2  and  N_6
    4  A    between atoms: C_2  and  C_13
    5  A    between atoms: C_3  and  C_4
    6  A    between atoms: C_3  and  C_12
    7  A    between atoms: N_6  and  C_12
    8  A    between atoms: C_11  and  C_14
    9  A    between atoms: C_11  and  C_29
   10  A    between atoms: C_14  and  C_22
   11  A    between atoms: C_19  and  C_37
   12  A    between atoms: C_29  and  C_31
                            x       y       z     vdW  Elec       q    Type
                         _______ _______ _______ _____ _____    ______ ____

>  <TORSDO>
F 12

$$$$
=
 OpenBabel10262422053D

 43 47  0  0  1  0  0  0  0  0999 V2000
  179.9290  174.4160  138.2660 C   0  0  0  0  0  0  0  0  0  0  0  0
  183.8780  177.5780  138.3500 C   0  0  0  0  0  0  0  0  0  0  0  0
  183.9820  178.5670  140.9480 C   0  0  0  0  0  0  0  0  0  0  0  0
  181.8590  175.7500  137.6630 C   0  0  0  0  0  0  0  0  0  0  0  0
  179.9930  174.9040  139.5750 C   0  0  0  0  0  3  0  0  0  0  0  0
  178.9400  173.5090  137.9140 O   0  0  0  0  0  1  0  0  0  0  0  0
  181.9270  176.2520  138.9850 C   0  0  0  0  0  0  0  0  0  0  0  0
  180.8600  174.8380  137.3120 C   0  0  0  0  0  3  0  0  0  0  0  0
  180.9870  175.8190  139.9340 C   0  0  0  0  0  3  0  0  0  0  0  0
  183.0210  177.6720  140.5920 N   0  0  0  0  0  0  0  0  0  0  0  0
  182.9370  177.1710  139.3280 C   0  0  0  0  0  0  0  0  0  0  0  0
  183.7930  177.0690  137.0480 C   0  0  0  0  0  3  0  0  0  0  0  0
  184.8940  178.4810  138.7040 C   0  0  0  0  0  0  0  0  0  0  0  0
  184.9310  178.9790  140.0140 C   0  0  0  0  0  3  0  0  0  0  0  0
  182.7890  176.1620  136.7060 C   0  0  0  0  0  3  0  0  0  0  0  0
  184.0590  179.0740  142.3480 C   0  0  1  0  0  3  0  0  0  0  0  0
  183.0160  178.5390  143.1060 O   0  0  0  0  0  1  0  0  0  0  0  0
  185.3380  178.7050  142.9320 N   0  0  0  0  0  2  0  0  0  0  0  0
  185.0600  178.0640  144.2060 C   0  0  0  0  0  2  0  0  0  0  0  0
  186.0700  178.5130  145.2580 C   0  0  1  0  0  3  0  0  0  0  0  0
  185.3580  178.7110  146.5820 C   0  0  0  0  0  1  0  0  0  0  0  0
  187.2550  177.5540  145.4370 C   0  0  2  0  0  3  0  0  0  0  0  0
  189.6970  177.5760  145.3410 C   0  0  0  0  0  2  0  0  0  0  0  0
  187.7990  177.5740  146.8480 C   0  0  0  0  0  2  0  0  0  0  0  0
  188.4380  177.8460  144.5240 C   0  0  1  0  0  3  0  0  0  0  0  0
  189.2400  177.1310  146.7180 C   0  0  0  0  0  2  0  0  0  0  0  0
  188.3690  176.9990  143.2490 C   0  0  2  0  0  3  0  0  0  0  0  0
  187.9270  175.7050  143.5400 O   0  0  0  0  0  1  0  0  0  0  0  0
  189.7130  176.9460  142.5200 C   0  0  1  0  0  3  0  0  0  0  0  0
  190.1800  175.6310  142.4690 O   0  0  0  0  0  1  0  0  0  0  0  0
  189.6230  177.5000  141.1280 C   0  0  0  0  0  0  0  0  0  0  0  0
  188.5450  178.1980  140.7800 C   0  0  0  0  0  2  0  0  0  0  0  0
  191.9800  177.6940  140.9830 O   0  0  0  0  0  1  0  0  0  0  0  0
  190.8200  177.5030  140.2300 C   0  0  0  0  0  2  0  0  0  0  0  0
  185.8270  178.8840  137.7310 O   0  0  0  0  0  0  0  0  0  0  0  0
  189.3600  178.2840  136.6820 C   0  0  0  0  0  3  0  0  0  0  0  0
  189.4400  176.9000  136.8610 C   0  0  0  0  0  0  0  0  0  0  0  0
  187.1300  176.8650  137.5890 C   0  0  0  0  0  3  0  0  0  0  0  0
  188.1680  178.9560  136.9620 C   0  0  0  0  0  3  0  0  0  0  0  0
  187.0400  178.2500  137.4140 C   0  0  0  0  0  0  0  0  0  0  0  0
  188.3230  176.1900  137.3100 C   0  0  0  0  0  3  0  0  0  0  0  0
  190.4070  174.8210  136.1290 N   0  0  0  0  0  1  0  0  0  0  0  0
  190.7040  176.1810  136.5450 C   0  0  0  0  0  2  0  0  0  0  0  0
  1  5  1  0  0  0  0
  2 13  2  0  0  0  0
  2 11  1  0  0  0  0
  3 16  1  0  0  0  0
  4  7  2  0  0  0  0
  5  9  2  0  0  0  0
  6  1  1  0  0  0  0
  7 11  1  0  0  0  0
  7  9  1  0  0  0  0
  8  4  1  0  0  0  0
  8  1  2  0  0  0  0
 10  3  1  0  0  0  0
 11 10  2  0  0  0  0
 12  2  1  0  0  0  0
 13 14  1  0  0  0  0
 14  3  2  0  0  0  0
 15 12  2  0  0  0  0
 15  4  1  0  0  0  0
 16 18  1  0  0  0  0
 16 17  1  1  0  0  0
 18 19  1  0  0  0  0
 19 20  1  0  0  0  0
 20 21  1  1  0  0  0
 22 20  1  1  0  0  0
 22 24  1  0  0  0  0
 23 26  1  0  0  0  0
 25 27  1  6  0  0  0
 25 23  1  0  0  0  0
 25 22  1  0  0  0  0
 26 24  1  0  0  0  0
 27 28  1  1  0  0  0
 29 30  1  6  0  0  0
 29 27  1  0  0  0  0
 31 29  1  0  0  0  0
 32 31  2  0  0  0  0
 34 33  1  0  0  0  0
 34 31  1  0  0  0  0
 35 13  1  0  0  0  0
 36 37  2  0  0  0  0
 36 39  1  0  0  0  0
 37 41  1  0  0  0  0
 39 40  2  0  0  0  0
 40 38  1  0  0  0  0
 40 35  1  0  0  0  0
 41 38  2  0  0  0  0
 42 43  1  0  0  0  0
 43 37  1  0  0  0  0
M  END
>  <MODEL>
6

>  <REMARK>
 VINA RESULT:      -9.6      3.341      9.329
  Name = 
  12 active torsions:
  status: ('A' for Active; 'I' for Inactive)
    1  A    between atoms: O_1  and  C_34
    2  A    between atoms: O_1  and  C_35
    3  A    between atoms: C_2  and  N_6
    4  A    between atoms: C_2  and  C_13
    5  A    between atoms: C_3  and  C_4
    6  A    between atoms: C_3  and  C_12
    7  A    between atoms: N_6  and  C_12
    8  A    between atoms: C_11  and  C_14
    9  A    between atoms: C_11  and  C_29
   10  A    between atoms: C_14  and  C_22
   11  A    between atoms: C_19  and  C_37
   12  A    between atoms: C_29  and  C_31
                            x       y       z     vdW  Elec       q    Type
                         _______ _______ _______ _____ _____    ______ ____

>  <TORSDO>
F 12

$$$$
=
 OpenBabel10262422053D

 43 47  0  0  1  0  0  0  0  0999 V2000
  191.2970  176.4660  146.9690 C   0  0  0  0  0  0  0  0  0  0  0  0
  187.1650  177.9400  144.4470 C   0  0  0  0  0  0  0  0  0  0  0  0
  187.9540  178.1510  141.7880 C   0  0  0  0  0  0  0  0  0  0  0  0
  189.0510  177.1560  146.3750 C   0  0  0  0  0  0  0  0  0  0  0  0
  191.6850  176.5600  145.6290 C   0  0  0  0  0  3  0  0  0  0  0  0
  192.2160  176.0760  147.9310 O   0  0  0  0  0  1  0  0  0  0  0  0
  189.4390  177.2570  145.0170 C   0  0  0  0  0  0  0  0  0  0  0  0
  189.9810  176.7640  147.3410 C   0  0  0  0  0  3  0  0  0  0  0  0
  190.7620  176.9540  144.6570 C   0  0  0  0  0  3  0  0  0  0  0  0
  188.8450  177.7620  142.7400 N   0  0  0  0  0  0  0  0  0  0  0  0
  188.4940  177.6530  144.0520 C   0  0  0  0  0  0  0  0  0  0  0  0
  186.8010  177.8340  145.7950 C   0  0  0  0  0  3  0  0  0  0  0  0
  186.2220  178.3170  143.4760 C   0  0  0  0  0  0  0  0  0  0  0  0
  186.6330  178.4280  142.1400 C   0  0  0  0  0  3  0  0  0  0  0  0
  187.7390  177.4460  146.7540 C   0  0  0  0  0  3  0  0  0  0  0  0
  188.3660  178.2330  140.3580 C   0  0  1  0  0  3  0  0  0  0  0  0
  189.1550  177.1310  140.0250 O   0  0  0  0  0  1  0  0  0  0  0  0
  187.1860  178.2740  139.5100 N   0  0  0  0  0  2  0  0  0  0  0  0
  187.6400  178.1650  138.1340 C   0  0  0  0  0  2  0  0  0  0  0  0
  186.7700  177.1770  137.3640 C   0  0  1  0  0  3  0  0  0  0  0  0
  186.4530  177.7500  135.9970 C   0  0  0  0  0  1  0  0  0  0  0  0
  187.3900  175.7800  137.2180 C   0  0  2  0  0  3  0  0  0  0  0  0
  187.5760  173.9920  135.5630 C   0  0  0  0  0  2  0  0  0  0  0  0
  188.7700  175.8280  136.6000 C   0  0  0  0  0  2  0  0  0  0  0  0
  186.5760  174.8220  136.3590 C   0  0  1  0  0  3  0  0  0  0  0  0
  188.9600  174.4690  135.9620 C   0  0  0  0  0  2  0  0  0  0  0  0
  185.6500  173.9610  137.2250 C   0  0  2  0  0  3  0  0  0  0  0  0
  186.2520  172.7340  137.5200 O   0  0  0  0  0  1  0  0  0  0  0  0
  184.2890  173.7350  136.5640 C   0  0  1  0  0  3  0  0  0  0  0  0
  184.0120  172.3690  136.4910 O   0  0  0  0  0  1  0  0  0  0  0  0
  183.1810  174.4330  137.2980 C   0  0  0  0  0  0  0  0  0  0  0  0
  183.4130  175.6320  137.8260 C   0  0  0  0  0  2  0  0  0  0  0  0
  181.0040  174.5010  138.2270 O   0  0  0  0  0  1  0  0  0  0  0  0
  181.7770  173.9250  137.2190 C   0  0  0  0  0  2  0  0  0  0  0  0
  184.9020  178.6020  143.8710 O   0  0  0  0  0  0  0  0  0  0  0  0
  182.6360  178.2550  140.9250 C   0  0  0  0  0  3  0  0  0  0  0  0
  181.4200  178.6360  141.5000 C   0  0  0  0  0  0  0  0  0  0  0  0
  182.5410  179.0010  143.6160 C   0  0  0  0  0  3  0  0  0  0  0  0
  183.7990  178.2420  141.6970 C   0  0  0  0  0  3  0  0  0  0  0  0
  183.7630  178.6210  143.0490 C   0  0  0  0  0  0  0  0  0  0  0  0
  181.3750  179.0130  142.8450 C   0  0  0  0  0  3  0  0  0  0  0  0
  179.8770  177.3310  140.1940 N   0  0  0  0  0  1  0  0  0  0  0  0
  180.1830  178.6670  140.6740 C   0  0  0  0  0  2  0  0  0  0  0  0
  1  8  1  0  0  0  0
  1  6  1  0  0  0  0
  2 12  1  0  0  0  0
  3 14  2  0  0  0  0
  3 10  1  0  0  0  0
  4 15  1  0  0  0  0
  4  8  2  0  0  0  0
  5  1  2  0  0  0  0
  7  4  1  0  0  0  0
  9  7  2  0  0  0  0
  9  5  1  0  0  0  0
 10 11  2  0  0  0  0
 11  2  1  0  0  0  0
 11  7  1  0  0  0  0
 12 15  2  0  0  0  0
 13 35  1  0  0  0  0
 13  2  2  0  0  0  0
 14 13  1  0  0  0  0
 16 17  1  6  0  0  0
 16  3  1  0  0  0  0
 18 16  1  0  0  0  0
 19 18  1  0  0  0  0
 20 21  1  6  0  0  0
 20 19  1  0  0  0  0
 22 20  1  6  0  0  0
 23 26  1  0  0  0  0
 23 25  1  0  0  0  0
 24 22  1  0  0  0  0
 25 22  1  0  0  0  0
 25 27  1  1  0  0  0
 26 24  1  0  0  0  0
 27 28  1  6  0  0  0
 29 30  1  1  0  0  0
 29 27  1  0  0  0  0
 29 31  1  0  0  0  0
 31 32  2  0  0  0  0
 34 31  1  0  0  0  0
 34 33  1  0  0  0  0
 36 37  2  0  0  0  0
 36 39  1  0  0  0  0
 37 41  1  0  0  0  0
 39 40  2  0  0  0  0
 40 38  1  0  0  0  0
 40 35  1  0  0  0  0
 41 38  2  0  0  0  0
 42 43  1  0  0  0  0
 43 37  1  0  0  0  0
M  END
>  <MODEL>
7

>  <REMARK>
 VINA RESULT:      -9.6      3.074      5.377
  Name = 
  12 active torsions:
  status: ('A' for Active; 'I' for Inactive)
    1  A    between atoms: O_1  and  C_34
    2  A    between atoms: O_1  and  C_35
    3  A    between atoms: C_2  and  N_6
    4  A    between atoms: C_2  and  C_13
    5  A    between atoms: C_3  and  C_4
    6  A    between atoms: C_3  and  C_12
    7  A    between atoms: N_6  and  C_12
    8  A    between atoms: C_11  and  C_14
    9  A    between atoms: C_11  and  C_29
   10  A    between atoms: C_14  and  C_22
   11  A    between atoms: C_19  and  C_37
   12  A    between atoms: C_29  and  C_31
                            x       y       z     vdW  Elec       q    Type
                         _______ _______ _______ _____ _____    ______ ____

>  <TORSDO>
F 12

$$$$
=
 OpenBabel10262422053D

 43 47  0  0  1  0  0  0  0  0999 V2000
  191.3580  176.6710  147.0200 C   0  0  0  0  0  0  0  0  0  0  0  0
  187.1760  177.8650  144.4330 C   0  0  0  0  0  0  0  0  0  0  0  0
  188.0080  178.2290  141.8050 C   0  0  0  0  0  0  0  0  0  0  0  0
  189.0760  177.1830  146.3870 C   0  0  0  0  0  0  0  0  0  0  0  0
  191.7700  176.8410  145.6940 C   0  0  0  0  0  3  0  0  0  0  0  0
  192.2850  176.3300  147.9940 O   0  0  0  0  0  1  0  0  0  0  0  0
  189.4870  177.3620  145.0430 C   0  0  0  0  0  0  0  0  0  0  0  0
  190.0130  176.8410  147.3650 C   0  0  0  0  0  3  0  0  0  0  0  0
  190.8400  177.1850  144.7100 C   0  0  0  0  0  3  0  0  0  0  0  0
  188.9070  177.8880  142.7680 N   0  0  0  0  0  0  0  0  0  0  0  0
  188.5350  177.7060  144.0660 C   0  0  0  0  0  0  0  0  0  0  0  0
  186.7910  177.6830  145.7680 C   0  0  0  0  0  3  0  0  0  0  0  0
  186.2280  178.1910  143.4490 C   0  0  0  0  0  0  0  0  0  0  0  0
  186.6610  178.3800  142.1290 C   0  0  0  0  0  3  0  0  0  0  0  0
  187.7350  177.3460  146.7390 C   0  0  0  0  0  3  0  0  0  0  0  0
  188.4460  178.3940  140.3890 C   0  0  1  0  0  3  0  0  0  0  0  0
  189.5880  177.6260  140.1510 O   0  0  0  0  0  1  0  0  0  0  0  0
  187.3760  177.9840  139.4950 N   0  0  0  0  0  2  0  0  0  0  0  0
  187.9340  177.9250  138.1540 C   0  0  0  0  0  2  0  0  0  0  0  0
  187.1200  176.9750  137.2820 C   0  0  1  0  0  3  0  0  0  0  0  0
  186.3760  177.7750  136.2300 C   0  0  0  0  0  1  0  0  0  0  0  0
  187.9540  175.8730  136.6110 C   0  0  2  0  0  3  0  0  0  0  0  0
  189.6670  174.2280  137.1850 C   0  0  0  0  0  2  0  0  0  0  0  0
  187.3040  174.5130  136.7280 C   0  0  0  0  0  2  0  0  0  0  0  0
  189.3580  175.7210  137.1780 C   0  0  1  0  0  3  0  0  0  0  0  0
  188.4450  173.5240  136.6240 C   0  0  0  0  0  2  0  0  0  0  0  0
  190.3710  176.5290  136.3600 C   0  0  2  0  0  3  0  0  0  0  0  0
  189.7760  177.0360  135.2010 O   0  0  0  0  0  1  0  0  0  0  0  0
  191.6080  175.7050  136.0000 C   0  0  1  0  0  3  0  0  0  0  0  0
  191.9310  175.8860  134.6540 O   0  0  0  0  0  1  0  0  0  0  0  0
  192.7920  176.0610  136.8520 C   0  0  0  0  0  0  0  0  0  0  0  0
  193.9520  176.3380  136.2610 C   0  0  0  0  0  2  0  0  0  0  0  0
  193.7460  177.0280  138.7930 O   0  0  0  0  0  1  0  0  0  0  0  0
  192.6210  176.3600  138.3070 C   0  0  0  0  0  2  0  0  0  0  0  0
  184.8790  178.3470  143.8170 O   0  0  0  0  0  0  0  0  0  0  0  0
  182.7030  178.1680  140.7890 C   0  0  0  0  0  3  0  0  0  0  0  0
  181.5060  178.6660  141.3130 C   0  0  0  0  0  0  0  0  0  0  0  0
  182.5760  178.9560  143.4670 C   0  0  0  0  0  3  0  0  0  0  0  0
  183.8310  178.0600  141.6050 C   0  0  0  0  0  3  0  0  0  0  0  0
  183.7780  178.4590  142.9520 C   0  0  0  0  0  0  0  0  0  0  0  0
  181.4450  179.0640  142.6510 C   0  0  0  0  0  3  0  0  0  0  0  0
  179.1010  178.7270  141.2430 N   0  0  0  0  0  1  0  0  0  0  0  0
  180.3090  178.7990  140.4390 C   0  0  0  0  0  2  0  0  0  0  0  0
  1  8  1  0  0  0  0
  1  6  1  0  0  0  0
  2 12  1  0  0  0  0
  3 14  2  0  0  0  0
  3 10  1  0  0  0  0
  4 15  1  0  0  0  0
  4  8  2  0  0  0  0
  5  1  2  0  0  0  0
  7  4  1  0  0  0  0
  9  7  2  0  0  0  0
  9  5  1  0  0  0  0
 10 11  2  0  0  0  0
 11  2  1  0  0  0  0
 11  7  1  0  0  0  0
 12 15  2  0  0  0  0
 13 35  1  0  0  0  0
 13  2  2  0  0  0  0
 14 13  1  0  0  0  0
 16 17  1  1  0  0  0
 16  3  1  0  0  0  0
 18 16  1  0  0  0  0
 19 18  1  0  0  0  0
 20 21  1  6  0  0  0
 20 19  1  0  0  0  0
 22 24  1  0  0  0  0
 22 25  1  0  0  0  0
 22 20  1  1  0  0  0
 25 27  1  6  0  0  0
 25 23  1  0  0  0  0
 26 24  1  0  0  0  0
 26 23  1  0  0  0  0
 27 28  1  6  0  0  0
 29 30  1  6  0  0  0
 29 27  1  0  0  0  0
 29 31  1  0  0  0  0
 31 34  1  0  0  0  0
 32 31  2  0  0  0  0
 34 33  1  0  0  0  0
 36 37  2  0  0  0  0
 36 39  1  0  0  0  0
 37 41  1  0  0  0  0
 39 40  2  0  0  0  0
 40 38  1  0  0  0  0
 40 35  1  0  0  0  0
 41 38  2  0  0  0  0
 43 42  1  0  0  0  0
 43 37  1  0  0  0  0
M  END
>  <MODEL>
8

>  <REMARK>
 VINA RESULT:      -9.6      1.567      2.294
  Name = 
  12 active torsions:
  status: ('A' for Active; 'I' for Inactive)
    1  A    between atoms: O_1  and  C_34
    2  A    between atoms: O_1  and  C_35
    3  A    between atoms: C_2  and  N_6
    4  A    between atoms: C_2  and  C_13
    5  A    between atoms: C_3  and  C_4
    6  A    between atoms: C_3  and  C_12
    7  A    between atoms: N_6  and  C_12
    8  A    between atoms: C_11  and  C_14
    9  A    between atoms: C_11  and  C_29
   10  A    between atoms: C_14  and  C_22
   11  A    between atoms: C_19  and  C_37
   12  A    between atoms: C_29  and  C_31
                            x       y       z     vdW  Elec       q    Type
                         _______ _______ _______ _____ _____    ______ ____

>  <TORSDO>
F 12

$$$$
=
 OpenBabel10262422053D

 43 47  0  0  1  0  0  0  0  0999 V2000
  191.0080  176.7620  146.7600 C   0  0  0  0  0  0  0  0  0  0  0  0
  189.1130  178.2420  142.3080 C   0  0  0  0  0  0  0  0  0  0  0  0
  186.3520  178.2320  142.6370 C   0  0  0  0  0  0  0  0  0  0  0  0
  190.7490  177.4900  144.4650 C   0  0  0  0  0  0  0  0  0  0  0  0
  189.6190  176.7720  146.9260 C   0  0  0  0  0  3  0  0  0  0  0  0
  191.8280  176.3970  147.8180 O   0  0  0  0  0  1  0  0  0  0  0  0
  189.3420  177.4980  144.6230 C   0  0  0  0  0  0  0  0  0  0  0  0
  191.5720  177.1210  145.5320 C   0  0  0  0  0  3  0  0  0  0  0  0
  188.7890  177.1380  145.8630 C   0  0  0  0  0  3  0  0  0  0  0  0
  187.1670  177.8830  143.6690 N   0  0  0  0  0  0  0  0  0  0  0  0
  188.5230  177.8720  143.5410 C   0  0  0  0  0  0  0  0  0  0  0  0
  190.5070  178.2270  142.1720 C   0  0  0  0  0  3  0  0  0  0  0  0
  188.2910  178.6310  141.2380 C   0  0  0  0  0  0  0  0  0  0  0  0
  186.9000  178.6140  141.4130 C   0  0  0  0  0  3  0  0  0  0  0  0
  191.3200  177.8530  143.2430 C   0  0  0  0  0  3  0  0  0  0  0  0
  184.8720  178.2580  142.8200 C   0  0  1  0  0  3  0  0  0  0  0  0
  184.5470  178.9760  143.9720 O   0  0  0  0  0  1  0  0  0  0  0  0
  184.2460  178.8700  141.6590 N   0  0  0  0  0  2  0  0  0  0  0  0
  183.3300  177.8920  141.0990 C   0  0  0  0  0  2  0  0  0  0  0  0
  182.1210  178.5890  140.4810 C   0  0  1  0  0  3  0  0  0  0  0  0
  182.5870  179.5020  139.3640 C   0  0  0  0  0  1  0  0  0  0  0  0
  181.0440  177.6270  139.9590 C   0  0  2  0  0  3  0  0  0  0  0  0
  180.4290  175.2670  140.1060 C   0  0  0  0  0  2  0  0  0  0  0  0
  179.8900  177.4830  140.9260 C   0  0  0  0  0  2  0  0  0  0  0  0
  181.5460  176.2160  139.6870 C   0  0  1  0  0  3  0  0  0  0  0  0
  179.2890  176.1280  140.6180 C   0  0  0  0  0  2  0  0  0  0  0  0
  181.9400  176.0500  138.2150 C   0  0  2  0  0  3  0  0  0  0  0  0
  181.1560  175.0670  137.6030 O   0  0  0  0  0  1  0  0  0  0  0  0
  183.4250  175.7180  138.0510 C   0  0  1  0  0  3  0  0  0  0  0  0
  183.5730  174.4710  137.4440 O   0  0  0  0  0  1  0  0  0  0  0  0
  184.1500  176.7570  137.2460 C   0  0  0  0  0  0  0  0  0  0  0  0
  183.4660  177.4880  136.3700 C   0  0  0  0  0  2  0  0  0  0  0  0
  185.5700  178.4690  138.0640 O   0  0  0  0  0  1  0  0  0  0  0  0
  185.5490  177.1530  137.5980 C   0  0  0  0  0  2  0  0  0  0  0  0
  188.8800  178.9990  140.0140 O   0  0  0  0  0  0  0  0  0  0  0  0
  189.1300  176.0590  137.7260 C   0  0  0  0  0  3  0  0  0  0  0  0
  189.1240  176.7070  136.4880 C   0  0  0  0  0  0  0  0  0  0  0  0
  188.9770  178.8470  137.6130 C   0  0  0  0  0  3  0  0  0  0  0  0
  189.0540  176.8050  138.9050 C   0  0  0  0  0  3  0  0  0  0  0  0
  188.9810  178.2070  138.8580 C   0  0  0  0  0  0  0  0  0  0  0  0
  189.0520  178.1010  136.4320 C   0  0  0  0  0  3  0  0  0  0  0  0
  189.2980  174.4980  135.5490 N   0  0  0  0  0  1  0  0  0  0  0  0
  189.2240  175.9140  135.2320 C   0  0  0  0  0  2  0  0  0  0  0  0
  1  5  1  0  0  0  0
  1  6  1  0  0  0  0
  2 11  1  0  0  0  0
  3 16  1  0  0  0  0
  3 10  1  0  0  0  0
  4  7  2  0  0  0  0
  4  8  1  0  0  0  0
  7  9  1  0  0  0  0
  8  1  2  0  0  0  0
  9  5  2  0  0  0  0
 11 10  2  0  0  0  0
 11  7  1  0  0  0  0
 12  2  1  0  0  0  0
 12 15  2  0  0  0  0
 13 14  1  0  0  0  0
 13  2  2  0  0  0  0
 14  3  2  0  0  0  0
 15  4  1  0  0  0  0
 16 17  1  1  0  0  0
 18 16  1  0  0  0  0
 19 18  1  0  0  0  0
 20 21  1  6  0  0  0
 20 19  1  0  0  0  0
 22 20  1  1  0  0  0
 22 24  1  0  0  0  0
 23 26  1  0  0  0  0
 25 27  1  6  0  0  0
 25 22  1  0  0  0  0
 25 23  1  0  0  0  0
 26 24  1  0  0  0  0
 27 28  1  1  0  0  0
 29 30  1  6  0  0  0
 29 27  1  0  0  0  0
 31 34  1  0  0  0  0
 31 29  1  0  0  0  0
 32 31  2  0  0  0  0
 34 33  1  0  0  0  0
 35 13  1  0  0  0  0
 36 39  1  0  0  0  0
 37 36  2  0  0  0  0
 38 40  1  0  0  0  0
 40 39  2  0  0  0  0
 40 35  1  0  0  0  0
 41 37  1  0  0  0  0
 41 38  2  0  0  0  0
 43 42  1  0  0  0  0
 43 37  1  0  0  0  0
M  END
>  <MODEL>
9

>  <REMARK>
 VINA RESULT:      -9.3      3.315      8.226
  Name = 
  12 active torsions:
  status: ('A' for Active; 'I' for Inactive)
    1  A    between atoms: O_1  and  C_34
    2  A    between atoms: O_1  and  C_35
    3  A    between atoms: C_2  and  N_6
    4  A    between atoms: C_2  and  C_13
    5  A    between atoms: C_3  and  C_4
    6  A    between atoms: C_3  and  C_12
    7  A    between atoms: N_6  and  C_12
    8  A    between atoms: C_11  and  C_14
    9  A    between atoms: C_11  and  C_29
   10  A    between atoms: C_14  and  C_22
   11  A    between atoms: C_19  and  C_37
   12  A    between atoms: C_29  and  C_31
                            x       y       z     vdW  Elec       q    Type
                         _______ _______ _______ _____ _____    ______ ____

>  <TORSDO>
F 12

$$$$
