=
 OpenBabel10262419153D

 34 37  0  0  1  0  0  0  0  0999 V2000
  181.2540  180.5080  139.2540 C   0  0  2  0  0  3  0  0  0  0  0  0
  180.2720  178.2250  139.7870 C   0  0  1  0  0  3  0  0  0  0  0  0
  182.7290  178.4220  139.1570 C   0  0  1  0  0  3  0  0  0  0  0  0
  179.1720  180.4430  140.1160 C   0  0  0  0  0  2  0  0  0  0  0  0
  178.9310  178.9610  139.8410 C   0  0  0  0  0  2  0  0  0  0  0  0
  182.1410  178.2080  141.5510 C   0  0  0  0  0  3  0  0  0  0  0  0
  181.3160  178.9970  138.9420 C   0  0  2  0  0  3  0  0  0  0  0  0
  179.9440  180.9880  139.0780 O   0  0  0  0  0  0  0  0  0  0  0  0
  180.7250  177.8250  141.2040 C   0  0  0  0  0  2  0  0  0  0  0  0
  183.0830  178.4340  140.6220 C   0  0  0  0  0  0  0  0  0  0  0  0
  184.2440  176.8440  137.9270 N   0  0  0  0  0  0  0  0  0  0  0  0
  185.7090  175.3980  136.8130 O   0  0  0  0  0  0  0  0  0  0  0  0
  183.8470  174.3120  137.8220 C   0  0  0  0  0  2  0  0  0  0  0  0
  182.3900  174.4660  135.7510 C   0  0  0  0  0  1  0  0  0  0  0  0
  182.9280  177.0170  138.5550 C   0  0  2  0  0  3  0  0  0  0  0  0
  184.6520  175.5370  137.4850 C   0  0  0  0  0  0  0  0  0  0  0  0
  181.5390  175.3860  137.9550 C   0  0  0  0  0  2  0  0  0  0  0  0
  182.4200  174.3370  137.2690 C   0  0  2  0  0  3  0  0  0  0  0  0
  181.9330  176.6900  137.6240 O   0  0  0  0  0  0  0  0  0  0  0  0
  185.0980  177.9890  137.6210 C   0  0  0  0  0  1  0  0  0  0  0  0
  182.1800  181.2670  138.3570 C   0  0  0  0  0  3  0  0  0  0  0  0
  183.3130  181.5350  138.7220 O   0  0  0  0  0  0  0  0  0  0  0  0
  184.4490  178.8840  141.0470 C   0  0  0  0  0  2  0  0  0  0  0  0
  184.8320  178.3710  142.4350 C   0  0  2  0  0  3  0  0  0  0  0  0
  184.6960  179.5020  143.4330 C   0  0  0  0  0  1  0  0  0  0  0  0
  186.2640  177.8590  142.4680 C   0  0  0  0  0  2  0  0  0  0  0  0
  186.8420  177.9300  143.8710 C   0  0  0  0  0  2  0  0  0  0  0  0
  188.0330  177.4720  146.5870 C   0  0  0  0  0  1  0  0  0  0  0  0
  187.8340  176.7970  144.1360 C   0  0  2  0  0  3  0  0  0  0  0  0
  188.7730  177.1030  145.3140 C   0  0  1  0  0  3  0  0  0  0  0  0
  190.5430  177.7590  143.8310 O   0  0  0  0  0  0  0  0  0  0  0  0
  189.6910  177.6980  142.7090 C   0  0  0  0  0  2  0  0  0  0  0  0
  188.6720  176.5650  142.8750 C   0  0  0  0  0  2  0  0  0  0  0  0
  189.7650  178.1960  144.9170 C   0  0  0  0  0  2  0  0  0  0  0  0
  1 21  1  6  0  0  0
  2  5  1  1  0  0  0
  2  9  1  0  0  0  0
  3 10  1  1  0  0  0
  5  4  1  0  0  0  0
  7  3  1  0  0  0  0
  7  1  1  0  0  0  0
  7  2  1  0  0  0  0
  8  1  1  0  0  0  0
  8  4  1  0  0  0  0
  9  6  1  0  0  0  0
 10 23  1  0  0  0  0
 10  6  2  0  0  0  0
 11 15  1  0  0  0  0
 12 16  2  0  0  0  0
 14 18  1  0  0  0  0
 15  3  1  0  0  0  0
 16 13  1  0  0  0  0
 16 11  1  0  0  0  0
 18 13  1  0  0  0  0
 18 17  1  0  0  0  0
 19 17  1  0  0  0  0
 19 15  1  0  0  0  0
 20 11  1  0  0  0  0
 21 22  2  0  0  0  0
 23 24  1  0  0  0  0
 24 26  1  0  0  0  0
 24 25  1  0  0  0  0
 26 27  1  0  0  0  0
 27 29  1  0  0  0  0
 29 30  1  0  0  0  0
 30 28  1  0  0  0  0
 31 34  1  0  0  0  0
 32 33  1  0  0  0  0
 32 31  1  0  0  0  0
 33 29  1  0  0  0  0
 34 30  1  0  0  0  0
M  END
>  <MODEL>
1

>  <REMARK>
 VINA RESULT:      -6.7      0.000      0.000
  Name = 
  7 active torsions:
  status: ('A' for Active; 'I' for Inactive)
    1  A    between atoms: C_1  and  C_24
    2  A    between atoms: C_3  and  C_13
    3  A    between atoms: C_3  and  C_17
    4  A    between atoms: C_4  and  C_21
    5  A    between atoms: C_5  and  C_18
    6  A    between atoms: C_5  and  C_31
    7  A    between atoms: C_17  and  C_18
                            x       y       z     vdW  Elec       q    Type
                         _______ _______ _______ _____ _____    ______ ____

>  <TORSDO>
F 7

$$$$
=
 OpenBabel10262419153D

 34 37  0  0  1  0  0  0  0  0999 V2000
  181.0120  174.9020  138.1910 C   0  0  2  0  0  3  0  0  0  0  0  0
  181.9000  176.4860  136.4120 C   0  0  1  0  0  3  0  0  0  0  0  0
  181.4250  177.3620  138.7540 C   0  0  1  0  0  3  0  0  0  0  0  0
  181.7170  174.0000  136.2480 C   0  0  0  0  0  2  0  0  0  0  0  0
  181.7150  175.3050  135.4560 C   0  0  0  0  0  2  0  0  0  0  0  0
  183.7660  176.8430  138.1420 C   0  0  0  0  0  3  0  0  0  0  0  0
  181.0020  176.3540  137.6670 C   0  0  2  0  0  3  0  0  0  0  0  0
  180.6530  174.0110  137.1640 O   0  0  0  0  0  0  0  0  0  0  0  0
  183.3970  176.7280  136.6860 C   0  0  0  0  0  2  0  0  0  0  0  0
  182.8830  177.1840  139.0930 C   0  0  0  0  0  0  0  0  0  0  0  0
  180.4790  179.5650  139.4920 N   0  0  0  0  0  0  0  0  0  0  0  0
  179.6190  181.6100  140.2420 O   0  0  0  0  0  0  0  0  0  0  0  0
  180.9220  181.7690  138.2560 C   0  0  0  0  0  2  0  0  0  0  0  0
  178.9370  181.4810  136.7010 C   0  0  0  0  0  1  0  0  0  0  0  0
  181.1200  178.8290  138.3950 C   0  0  2  0  0  3  0  0  0  0  0  0
  180.2990  180.9880  139.3800 C   0  0  0  0  0  0  0  0  0  0  0  0
  180.9410  179.9430  136.4770 C   0  0  0  0  0  2  0  0  0  0  0  0
  180.4460  181.3390  136.8650 C   0  0  2  0  0  3  0  0  0  0  0  0
  180.3270  178.9440  137.2450 O   0  0  0  0  0  0  0  0  0  0  0  0
  179.9000  178.8700  140.6390 C   0  0  0  0  0  1  0  0  0  0  0  0
  180.0570  174.7480  139.3320 C   0  0  0  0  0  3  0  0  0  0  0  0
  179.4700  173.6940  139.5090 O   0  0  0  0  0  0  0  0  0  0  0  0
  183.3120  177.2040  140.5310 C   0  0  0  0  0  2  0  0  0  0  0  0
  183.6200  178.6150  141.0320 C   0  0  2  0  0  3  0  0  0  0  0  0
  185.0090  179.0090  140.5720 C   0  0  0  0  0  1  0  0  0  0  0  0
  183.5660  178.6950  142.5490 C   0  0  0  0  0  2  0  0  0  0  0  0
  184.7280  177.9480  143.1820 C   0  0  0  0  0  2  0  0  0  0  0  0
  187.6830  177.4610  143.3680 C   0  0  0  0  0  1  0  0  0  0  0  0
  185.6530  178.8870  143.9580 C   0  0  2  0  0  3  0  0  0  0  0  0
  186.9180  178.1760  144.4660 C   0  0  1  0  0  3  0  0  0  0  0  0
  185.9880  177.9330  146.6660 O   0  0  0  0  0  0  0  0  0  0  0  0
  184.7250  178.3890  146.2360 C   0  0  0  0  0  2  0  0  0  0  0  0
  184.8880  179.4630  145.1530 C   0  0  0  0  0  2  0  0  0  0  0  0
  186.5540  177.2140  145.5980 C   0  0  0  0  0  2  0  0  0  0  0  0
  1 21  1  1  0  0  0
  2  5  1  1  0  0  0
  2  9  1  0  0  0  0
  2  7  1  0  0  0  0
  3 10  1  6  0  0  0
  4  8  1  0  0  0  0
  5  4  1  0  0  0  0
  6 10  2  0  0  0  0
  7  1  1  0  0  0  0
  7  3  1  0  0  0  0
  8  1  1  0  0  0  0
  9  6  1  0  0  0  0
 10 23  1  0  0  0  0
 11 20  1  0  0  0  0
 13 16  1  0  0  0  0
 14 18  1  0  0  0  0
 15  3  1  0  0  0  0
 15 11  1  0  0  0  0
 16 11  1  0  0  0  0
 16 12  2  0  0  0  0
 17 18  1  0  0  0  0
 17 19  1  0  0  0  0
 18 13  1  0  0  0  0
 19 15  1  0  0  0  0
 21 22  2  0  0  0  0
 23 24  1  0  0  0  0
 24 26  1  0  0  0  0
 25 24  1  0  0  0  0
 26 27  1  0  0  0  0
 27 29  1  0  0  0  0
 28 30  1  0  0  0  0
 29 30  1  0  0  0  0
 29 33  1  0  0  0  0
 30 34  1  0  0  0  0
 32 31  1  0  0  0  0
 33 32  1  0  0  0  0
 34 31  1  0  0  0  0
M  END
>  <MODEL>
2

>  <REMARK>
 VINA RESULT:      -6.2      2.214      5.339
  Name = 
  7 active torsions:
  status: ('A' for Active; 'I' for Inactive)
    1  A    between atoms: C_1  and  C_24
    2  A    between atoms: C_3  and  C_13
    3  A    between atoms: C_3  and  C_17
    4  A    between atoms: C_4  and  C_21
    5  A    between atoms: C_5  and  C_18
    6  A    between atoms: C_5  and  C_31
    7  A    between atoms: C_17  and  C_18
                            x       y       z     vdW  Elec       q    Type
                         _______ _______ _______ _____ _____    ______ ____

>  <TORSDO>
F 7

$$$$
=
 OpenBabel10262419153D

 34 37  0  0  1  0  0  0  0  0999 V2000
  182.6720  178.4200  141.8230 C   0  0  2  0  0  3  0  0  0  0  0  0
  180.3010  179.2430  141.4180 C   0  0  1  0  0  3  0  0  0  0  0  0
  181.5980  178.1520  139.5190 C   0  0  1  0  0  3  0  0  0  0  0  0
  181.4730  179.0730  143.6180 C   0  0  0  0  0  2  0  0  0  0  0  0
  180.4030  179.8250  142.8300 C   0  0  0  0  0  2  0  0  0  0  0  0
  179.9280  176.7920  140.7400 C   0  0  0  0  0  3  0  0  0  0  0  0
  181.6990  179.0220  140.7870 C   0  0  2  0  0  3  0  0  0  0  0  0
  182.7130  179.2230  142.9770 O   0  0  0  0  0  0  0  0  0  0  0  0
  179.3640  178.0200  141.4050 C   0  0  0  0  0  2  0  0  0  0  0  0
  180.9180  176.8440  139.8350 C   0  0  0  0  0  0  0  0  0  0  0  0
  181.5640  178.5830  137.0480 N   0  0  0  0  0  0  0  0  0  0  0  0
  181.5520  178.9240  134.7320 O   0  0  0  0  0  0  0  0  0  0  0  0
  179.5370  179.5690  135.8220 C   0  0  0  0  0  2  0  0  0  0  0  0
  180.2790  181.9680  136.1930 C   0  0  0  0  0  1  0  0  0  0  0  0
  180.9100  178.8560  138.3340 C   0  0  2  0  0  3  0  0  0  0  0  0
  180.9350  179.0160  135.8280 C   0  0  0  0  0  0  0  0  0  0  0  0
  179.5060  180.5750  138.1650 C   0  0  0  0  0  2  0  0  0  0  0  0
  179.3700  180.8390  136.6630 C   0  0  2  0  0  3  0  0  0  0  0  0
  180.8220  180.2430  138.5150 O   0  0  0  0  0  0  0  0  0  0  0  0
  182.9010  177.9990  136.9820 C   0  0  0  0  0  1  0  0  0  0  0  0
  184.0500  178.3130  141.2500 C   0  0  0  0  0  3  0  0  0  0  0  0
  184.6980  179.3180  141.0070 O   0  0  0  0  0  0  0  0  0  0  0  0
  181.4760  175.5700  139.2730 C   0  0  0  0  0  2  0  0  0  0  0  0
  180.6370  175.0180  138.1200 C   0  0  2  0  0  3  0  0  0  0  0  0
  179.8750  173.8020  138.6030 C   0  0  0  0  0  1  0  0  0  0  0  0
  181.5050  174.6150  136.9390 C   0  0  0  0  0  2  0  0  0  0  0  0
  182.9540  174.4350  137.3560 C   0  0  0  0  0  2  0  0  0  0  0  0
  183.5630  171.5130  137.0420 C   0  0  0  0  0  1  0  0  0  0  0  0
  183.8170  173.9090  136.2080 C   0  0  2  0  0  3  0  0  0  0  0  0
  184.5190  172.5870  136.5590 C   0  0  1  0  0  3  0  0  0  0  0  0
  186.5770  173.7230  137.0440 O   0  0  0  0  0  0  0  0  0  0  0  0
  185.9620  174.9870  136.9390 C   0  0  0  0  0  2  0  0  0  0  0  0
  184.8740  174.9600  135.8580 C   0  0  0  0  0  2  0  0  0  0  0  0
  185.6230  172.8430  137.5850 C   0  0  0  0  0  2  0  0  0  0  0  0
  1 21  1  6  0  0  0
  1  8  1  0  0  0  0
  2  9  1  1  0  0  0
  2  5  1  0  0  0  0
  3 10  1  1  0  0  0
  3  7  1  0  0  0  0
  5  4  1  0  0  0  0
  6  9  1  0  0  0  0
  7  2  1  0  0  0  0
  7  1  1  0  0  0  0
  8  4  1  0  0  0  0
 10  6  2  0  0  0  0
 11 15  1  0  0  0  0
 12 16  2  0  0  0  0
 13 16  1  0  0  0  0
 13 18  1  0  0  0  0
 14 18  1  0  0  0  0
 15 19  1  0  0  0  0
 15  3  1  0  0  0  0
 16 11  1  0  0  0  0
 17 19  1  0  0  0  0
 18 17  1  0  0  0  0
 20 11  1  0  0  0  0
 22 21  2  0  0  0  0
 23 10  1  0  0  0  0
 24 25  1  0  0  0  0
 24 23  1  0  0  0  0
 26 27  1  0  0  0  0
 26 24  1  0  0  0  0
 29 30  1  0  0  0  0
 29 27  1  0  0  0  0
 30 28  1  0  0  0  0
 30 34  1  0  0  0  0
 31 34  1  0  0  0  0
 32 31  1  0  0  0  0
 33 29  1  0  0  0  0
 33 32  1  0  0  0  0
M  END
>  <MODEL>
3

>  <REMARK>
 VINA RESULT:      -5.6      3.309      6.312
  Name = 
  7 active torsions:
  status: ('A' for Active; 'I' for Inactive)
    1  A    between atoms: C_1  and  C_24
    2  A    between atoms: C_3  and  C_13
    3  A    between atoms: C_3  and  C_17
    4  A    between atoms: C_4  and  C_21
    5  A    between atoms: C_5  and  C_18
    6  A    between atoms: C_5  and  C_31
    7  A    between atoms: C_17  and  C_18
                            x       y       z     vdW  Elec       q    Type
                         _______ _______ _______ _____ _____    ______ ____

>  <TORSDO>
F 7

$$$$
=
 OpenBabel10262419153D

 34 37  0  0  1  0  0  0  0  0999 V2000
  186.7660  178.1750  137.9140 C   0  0  2  0  0  3  0  0  0  0  0  0
  188.2280  177.0000  136.1980 C   0  0  1  0  0  3  0  0  0  0  0  0
  185.8050  176.2790  136.4940 C   0  0  1  0  0  3  0  0  0  0  0  0
  188.7880  179.0720  137.4760 C   0  0  0  0  0  2  0  0  0  0  0  0
  189.3650  177.8370  136.7890 C   0  0  0  0  0  2  0  0  0  0  0  0
  186.3700  177.7610  134.5940 C   0  0  0  0  0  3  0  0  0  0  0  0
  187.0560  176.8380  137.1990 C   0  0  2  0  0  3  0  0  0  0  0  0
  187.9370  178.6690  138.5170 O   0  0  0  0  0  0  0  0  0  0  0  0
  187.8430  177.5210  134.8010 C   0  0  0  0  0  2  0  0  0  0  0  0
  185.4240  177.1580  135.3290 C   0  0  0  0  0  0  0  0  0  0  0  0
  184.9820  173.9190  136.7120 N   0  0  0  0  0  0  0  0  0  0  0  0
  184.1530  171.7400  136.9220 O   0  0  0  0  0  0  0  0  0  0  0  0
  185.5540  172.0710  135.0270 C   0  0  0  0  0  2  0  0  0  0  0  0
  187.6800  171.4020  136.2410 C   0  0  0  0  0  1  0  0  0  0  0  0
  185.9440  174.8100  136.0510 C   0  0  2  0  0  3  0  0  0  0  0  0
  184.8610  172.5550  136.2700 C   0  0  0  0  0  0  0  0  0  0  0  0
  187.5610  173.6430  135.0620 C   0  0  0  0  0  2  0  0  0  0  0  0
  187.0810  172.1890  135.0830 C   0  0  2  0  0  3  0  0  0  0  0  0
  187.2380  174.3120  136.2510 O   0  0  0  0  0  0  0  0  0  0  0  0
  184.2370  174.3450  137.8930 C   0  0  0  0  0  1  0  0  0  0  0  0
  185.7130  177.9930  138.9620 C   0  0  0  0  0  3  0  0  0  0  0  0
  185.3880  178.9240  139.6790 O   0  0  0  0  0  0  0  0  0  0  0  0
  183.9810  177.5060  135.1110 C   0  0  0  0  0  2  0  0  0  0  0  0
  183.0730  176.9720  136.2190 C   0  0  2  0  0  3  0  0  0  0  0  0
  181.9140  176.2280  135.5900 C   0  0  0  0  0  1  0  0  0  0  0  0
  182.5230  178.0950  137.0830 C   0  0  0  0  0  2  0  0  0  0  0  0
  181.3830  177.6070  137.9610 C   0  0  0  0  0  2  0  0  0  0  0  0
  180.5890  174.8140  138.7180 C   0  0  0  0  0  1  0  0  0  0  0  0
  181.8930  176.9420  139.2400 C   0  0  2  0  0  3  0  0  0  0  0  0
  180.9340  175.8600  139.7620 C   0  0  1  0  0  3  0  0  0  0  0  0
  180.0110  177.3600  141.3940 O   0  0  0  0  0  0  0  0  0  0  0  0
  180.7050  178.4590  140.8480 C   0  0  0  0  0  2  0  0  0  0  0  0
  182.0740  178.0140  140.3190 C   0  0  0  0  0  2  0  0  0  0  0  0
  179.6710  176.5140  140.3230 C   0  0  0  0  0  2  0  0  0  0  0  0
  1  8  1  0  0  0  0
  1 21  1  1  0  0  0
  2  9  1  6  0  0  0
  2  5  1  0  0  0  0
  2  7  1  0  0  0  0
  3 10  1  6  0  0  0
  3  7  1  0  0  0  0
  4  8  1  0  0  0  0
  5  4  1  0  0  0  0
  6  9  1  0  0  0  0
  6 10  2  0  0  0  0
  7  1  1  0  0  0  0
 11 20  1  0  0  0  0
 13 18  1  0  0  0  0
 13 16  1  0  0  0  0
 15 19  1  0  0  0  0
 15  3  1  0  0  0  0
 15 11  1  0  0  0  0
 16 11  1  0  0  0  0
 16 12  2  0  0  0  0
 17 18  1  0  0  0  0
 17 19  1  0  0  0  0
 18 14  1  0  0  0  0
 21 22  2  0  0  0  0
 23 10  1  0  0  0  0
 23 24  1  0  0  0  0
 24 26  1  0  0  0  0
 25 24  1  0  0  0  0
 26 27  1  0  0  0  0
 27 29  1  0  0  0  0
 28 30  1  0  0  0  0
 29 30  1  0  0  0  0
 29 33  1  0  0  0  0
 30 34  1  0  0  0  0
 32 31  1  0  0  0  0
 33 32  1  0  0  0  0
 34 31  1  0  0  0  0
M  END
>  <MODEL>
4

>  <REMARK>
 VINA RESULT:      -5.4      3.773      7.399
  Name = 
  7 active torsions:
  status: ('A' for Active; 'I' for Inactive)
    1  A    between atoms: C_1  and  C_24
    2  A    between atoms: C_3  and  C_13
    3  A    between atoms: C_3  and  C_17
    4  A    between atoms: C_4  and  C_21
    5  A    between atoms: C_5  and  C_18
    6  A    between atoms: C_5  and  C_31
    7  A    between atoms: C_17  and  C_18
                            x       y       z     vdW  Elec       q    Type
                         _______ _______ _______ _____ _____    ______ ____

>  <TORSDO>
F 7

$$$$
=
 OpenBabel10262419153D

 34 37  0  0  1  0  0  0  0  0999 V2000
  190.5820  175.6430  136.9330 C   0  0  2  0  0  3  0  0  0  0  0  0
  189.0780  177.1890  135.5870 C   0  0  1  0  0  3  0  0  0  0  0  0
  188.1640  176.0350  137.6630 C   0  0  1  0  0  3  0  0  0  0  0  0
  191.5410  176.8790  135.3080 C   0  0  0  0  0  2  0  0  0  0  0  0
  190.2410  177.2390  134.5940 C   0  0  0  0  0  2  0  0  0  0  0  0
  188.8720  178.3990  137.8450 C   0  0  0  0  0  3  0  0  0  0  0  0
  189.1350  175.9180  136.4720 C   0  0  2  0  0  3  0  0  0  0  0  0
  191.4420  175.5760  135.8220 O   0  0  0  0  0  0  0  0  0  0  0  0
  188.9590  178.5240  136.3460 C   0  0  0  0  0  2  0  0  0  0  0  0
  188.4590  177.2800  138.4600 C   0  0  0  0  0  0  0  0  0  0  0  0
  186.1350  174.6150  137.2600 N   0  0  0  0  0  0  0  0  0  0  0  0
  184.2600  173.2510  136.9330 O   0  0  0  0  0  0  0  0  0  0  0  0
  183.7600  175.5720  137.1030 C   0  0  0  0  0  2  0  0  0  0  0  0
  183.9200  175.9850  134.6040 C   0  0  0  0  0  1  0  0  0  0  0  0
  186.6770  175.9790  137.2620 C   0  0  2  0  0  3  0  0  0  0  0  0
  184.7200  174.4150  137.0880 C   0  0  0  0  0  0  0  0  0  0  0  0
  185.3130  177.3800  136.1990 C   0  0  0  0  0  2  0  0  0  0  0  0
  184.0110  176.6000  135.9950 C   0  0  2  0  0  3  0  0  0  0  0  0
  186.4390  176.5660  136.0120 O   0  0  0  0  0  0  0  0  0  0  0  0
  187.0120  173.4470  137.2960 C   0  0  0  0  0  1  0  0  0  0  0  0
  190.6570  174.3560  137.6910 C   0  0  0  0  0  3  0  0  0  0  0  0
  190.2590  173.3180  137.1870 O   0  0  0  0  0  0  0  0  0  0  0  0
  188.4720  177.2100  139.9580 C   0  0  0  0  0  2  0  0  0  0  0  0
  189.7660  177.7560  140.5610 C   0  0  2  0  0  3  0  0  0  0  0  0
  190.8700  176.7370  140.3610 C   0  0  0  0  0  1  0  0  0  0  0  0
  189.6190  178.0320  142.0490 C   0  0  0  0  0  2  0  0  0  0  0  0
  188.1590  178.1870  142.4380 C   0  0  0  0  0  2  0  0  0  0  0  0
  185.2600  177.8410  143.1330 C   0  0  0  0  0  1  0  0  0  0  0  0
  187.6660  177.0100  143.2810 C   0  0  2  0  0  3  0  0  0  0  0  0
  186.3670  177.3330  144.0380 C   0  0  1  0  0  3  0  0  0  0  0  0
  187.5700  177.7590  146.0710 O   0  0  0  0  0  0  0  0  0  0  0  0
  188.8130  177.6780  145.4110 C   0  0  0  0  0  2  0  0  0  0  0  0
  188.7530  176.6320  144.2910 C   0  0  0  0  0  2  0  0  0  0  0  0
  186.6570  178.3250  145.1650 C   0  0  0  0  0  2  0  0  0  0  0  0
  1 21  1  6  0  0  0
  2  5  1  1  0  0  0
  2  9  1  0  0  0  0
  2  7  1  0  0  0  0
  3 10  1  6  0  0  0
  4  8  1  0  0  0  0
  5  4  1  0  0  0  0
  6 10  2  0  0  0  0
  7  1  1  0  0  0  0
  7  3  1  0  0  0  0
  8  1  1  0  0  0  0
  9  6  1  0  0  0  0
 10 23  1  0  0  0  0
 11 15  1  0  0  0  0
 11 20  1  0  0  0  0
 12 16  2  0  0  0  0
 14 18  1  0  0  0  0
 15  3  1  0  0  0  0
 16 13  1  0  0  0  0
 16 11  1  0  0  0  0
 18 17  1  0  0  0  0
 18 13  1  0  0  0  0
 19 17  1  0  0  0  0
 19 15  1  0  0  0  0
 22 21  2  0  0  0  0
 23 24  1  0  0  0  0
 24 26  1  0  0  0  0
 25 24  1  0  0  0  0
 26 27  1  0  0  0  0
 27 29  1  0  0  0  0
 28 30  1  0  0  0  0
 29 30  1  0  0  0  0
 29 33  1  0  0  0  0
 30 34  1  0  0  0  0
 32 31  1  0  0  0  0
 33 32  1  0  0  0  0
 34 31  1  0  0  0  0
M  END
>  <MODEL>
5

>  <REMARK>
 VINA RESULT:      -5.4      3.701      6.796
  Name = 
  7 active torsions:
  status: ('A' for Active; 'I' for Inactive)
    1  A    between atoms: C_1  and  C_24
    2  A    between atoms: C_3  and  C_13
    3  A    between atoms: C_3  and  C_17
    4  A    between atoms: C_4  and  C_21
    5  A    between atoms: C_5  and  C_18
    6  A    between atoms: C_5  and  C_31
    7  A    between atoms: C_17  and  C_18
                            x       y       z     vdW  Elec       q    Type
                         _______ _______ _______ _____ _____    ______ ____

>  <TORSDO>
F 7

$$$$
=
 OpenBabel10262419153D

 34 37  0  0  1  0  0  0  0  0999 V2000
  189.9160  176.6430  138.3920 C   0  0  2  0  0  3  0  0  0  0  0  0
  190.9760  175.1350  136.6400 C   0  0  1  0  0  3  0  0  0  0  0  0
  188.4510  175.4470  136.6720 C   0  0  1  0  0  3  0  0  0  0  0  0
  192.1640  176.6680  138.2140 C   0  0  0  0  0  2  0  0  0  0  0  0
  192.2760  175.3750  137.4120 C   0  0  0  0  0  2  0  0  0  0  0  0
  189.7760  176.7350  135.0260 C   0  0  0  0  0  3  0  0  0  0  0  0
  189.7300  175.3760  137.5280 C   0  0  2  0  0  3  0  0  0  0  0  0
  191.1090  176.5550  139.1330 O   0  0  0  0  0  0  0  0  0  0  0  0
  190.9970  175.8950  135.3000 C   0  0  0  0  0  2  0  0  0  0  0  0
  188.5890  176.5080  135.6090 C   0  0  0  0  0  0  0  0  0  0  0  0
  186.7030  173.6590  136.4620 N   0  0  0  0  0  0  0  0  0  0  0  0
  185.0260  172.0370  136.2690 O   0  0  0  0  0  0  0  0  0  0  0  0
  186.7340  171.8750  134.6190 C   0  0  0  0  0  2  0  0  0  0  0  0
  188.1580  170.2700  135.9740 C   0  0  0  0  0  1  0  0  0  0  0  0
  188.0420  174.0970  136.0500 C   0  0  2  0  0  3  0  0  0  0  0  0
  186.1050  172.5150  135.8260 C   0  0  0  0  0  0  0  0  0  0  0  0
  189.1730  172.4270  135.1100 C   0  0  0  0  0  2  0  0  0  0  0  0
  188.1400  171.3220  134.8720 C   0  0  2  0  0  3  0  0  0  0  0  0
  188.9620  173.0790  136.3330 O   0  0  0  0  0  0  0  0  0  0  0  0
  186.0150  174.2740  137.5940 C   0  0  0  0  0  1  0  0  0  0  0  0
  188.7650  176.8120  139.3310 C   0  0  0  0  0  3  0  0  0  0  0  0
  188.9560  177.1310  140.4930 O   0  0  0  0  0  0  0  0  0  0  0  0
  187.4410  177.4350  135.3410 C   0  0  0  0  0  2  0  0  0  0  0  0
  186.2590  177.1940  136.2800 C   0  0  2  0  0  3  0  0  0  0  0  0
  184.9860  177.1300  135.4610 C   0  0  0  0  0  1  0  0  0  0  0  0
  186.1240  178.3060  137.3080 C   0  0  0  0  0  2  0  0  0  0  0  0
  185.2330  177.8830  138.4630 C   0  0  0  0  0  2  0  0  0  0  0  0
  186.0040  178.8160  141.2090 C   0  0  0  0  0  1  0  0  0  0  0  0
  184.5550  179.0810  139.1280 C   0  0  2  0  0  3  0  0  0  0  0  0
  184.6010  179.0050  140.6630 C   0  0  1  0  0  3  0  0  0  0  0  0
  182.3450  178.1890  140.7640 O   0  0  0  0  0  0  0  0  0  0  0  0
  182.2860  178.0350  139.3640 C   0  0  0  0  0  2  0  0  0  0  0  0
  183.0940  179.1410  138.6730 C   0  0  0  0  0  2  0  0  0  0  0  0
  183.6650  177.9010  141.1560 C   0  0  0  0  0  2  0  0  0  0  0  0
  1  8  1  0  0  0  0
  1 21  1  1  0  0  0
  2  9  1  6  0  0  0
  2  5  1  0  0  0  0
  2  7  1  0  0  0  0
  3 10  1  6  0  0  0
  3  7  1  0  0  0  0
  4  8  1  0  0  0  0
  5  4  1  0  0  0  0
  6  9  1  0  0  0  0
  6 10  2  0  0  0  0
  7  1  1  0  0  0  0
 11 20  1  0  0  0  0
 13 18  1  0  0  0  0
 13 16  1  0  0  0  0
 15 19  1  0  0  0  0
 15 11  1  0  0  0  0
 15  3  1  0  0  0  0
 16 12  2  0  0  0  0
 16 11  1  0  0  0  0
 17 19  1  0  0  0  0
 18 17  1  0  0  0  0
 18 14  1  0  0  0  0
 21 22  2  0  0  0  0
 23 10  1  0  0  0  0
 23 24  1  0  0  0  0
 24 26  1  0  0  0  0
 25 24  1  0  0  0  0
 26 27  1  0  0  0  0
 27 29  1  0  0  0  0
 29 30  1  0  0  0  0
 30 34  1  0  0  0  0
 30 28  1  0  0  0  0
 31 34  1  0  0  0  0
 32 31  1  0  0  0  0
 33 29  1  0  0  0  0
 33 32  1  0  0  0  0
M  END
>  <MODEL>
6

>  <REMARK>
 VINA RESULT:      -5.1      4.089      8.143
  Name = 
  7 active torsions:
  status: ('A' for Active; 'I' for Inactive)
    1  A    between atoms: C_1  and  C_24
    2  A    between atoms: C_3  and  C_13
    3  A    between atoms: C_3  and  C_17
    4  A    between atoms: C_4  and  C_21
    5  A    between atoms: C_5  and  C_18
    6  A    between atoms: C_5  and  C_31
    7  A    between atoms: C_17  and  C_18
                            x       y       z     vdW  Elec       q    Type
                         _______ _______ _______ _____ _____    ______ ____

>  <TORSDO>
F 7

$$$$
=
 OpenBabel10262419153D

 34 37  0  0  1  0  0  0  0  0999 V2000
  188.4520  177.9620  136.3510 C   0  0  2  0  0  3  0  0  0  0  0  0
  188.6780  175.4880  135.8100 C   0  0  1  0  0  3  0  0  0  0  0  0
  190.4910  176.6520  137.1640 C   0  0  1  0  0  3  0  0  0  0  0  0
  186.6690  176.9260  135.4380 C   0  0  0  0  0  2  0  0  0  0  0  0
  187.4320  175.6990  134.9460 C   0  0  0  0  0  2  0  0  0  0  0  0
  188.8140  175.2880  138.3690 C   0  0  0  0  0  3  0  0  0  0  0  0
  189.4410  176.8150  136.0480 C   0  0  2  0  0  3  0  0  0  0  0  0
  187.4910  178.0580  135.3280 O   0  0  0  0  0  0  0  0  0  0  0  0
  188.3260  174.6850  137.0770 C   0  0  0  0  0  2  0  0  0  0  0  0
  189.8400  176.1520  138.4280 C   0  0  0  0  0  0  0  0  0  0  0  0
  192.8410  175.9260  137.6580 N   0  0  0  0  0  0  0  0  0  0  0  0
  195.0210  175.2520  138.1840 O   0  0  0  0  0  0  0  0  0  0  0  0
  193.8990  173.8150  136.6540 C   0  0  0  0  0  2  0  0  0  0  0  0
  194.7490  175.0300  134.5940 C   0  0  0  0  0  1  0  0  0  0  0  0
  191.6840  175.7590  136.7700 C   0  0  2  0  0  3  0  0  0  0  0  0
  193.9620  175.0320  137.5360 C   0  0  0  0  0  0  0  0  0  0  0  0
  192.2570  174.6840  134.9080 C   0  0  0  0  0  2  0  0  0  0  0  0
  193.6620  174.1340  135.1750 C   0  0  2  0  0  3  0  0  0  0  0  0
  192.0930  175.9680  135.4460 O   0  0  0  0  0  0  0  0  0  0  0  0
  192.9400  177.0570  138.5770 C   0  0  0  0  0  1  0  0  0  0  0  0
  189.1780  179.2650  136.4670 C   0  0  0  0  0  3  0  0  0  0  0  0
  189.0540  179.9550  137.4640 O   0  0  0  0  0  0  0  0  0  0  0  0
  190.2170  176.7660  139.7440 C   0  0  0  0  0  2  0  0  0  0  0  0
  188.9990  177.1600  140.5790 C   0  0  2  0  0  3  0  0  0  0  0  0
  188.2260  178.2370  139.8450 C   0  0  0  0  0  1  0  0  0  0  0  0
  189.4040  177.6920  141.9440 C   0  0  0  0  0  2  0  0  0  0  0  0
  188.2120  177.7650  142.8830 C   0  0  0  0  0  2  0  0  0  0  0  0
  186.2030  177.6470  145.1100 C   0  0  0  0  0  1  0  0  0  0  0  0
  188.2870  176.7040  143.9820 C   0  0  2  0  0  3  0  0  0  0  0  0
  187.6320  177.1690  145.2930 C   0  0  1  0  0  3  0  0  0  0  0  0
  189.7630  177.7250  146.2480 O   0  0  0  0  0  0  0  0  0  0  0  0
  190.4240  177.5130  145.0200 C   0  0  0  0  0  2  0  0  0  0  0  0
  189.7570  176.3680  144.2480 C   0  0  0  0  0  2  0  0  0  0  0  0
  188.4930  178.2490  145.9480 C   0  0  0  0  0  2  0  0  0  0  0  0
  1 21  1  6  0  0  0
  2  5  1  1  0  0  0
  2  7  1  0  0  0  0
  2  9  1  0  0  0  0
  3 10  1  1  0  0  0
  5  4  1  0  0  0  0
  6 10  2  0  0  0  0
  7  1  1  0  0  0  0
  7  3  1  0  0  0  0
  8  4  1  0  0  0  0
  8  1  1  0  0  0  0
  9  6  1  0  0  0  0
 10 23  1  0  0  0  0
 11 20  1  0  0  0  0
 13 16  1  0  0  0  0
 14 18  1  0  0  0  0
 15  3  1  0  0  0  0
 15 11  1  0  0  0  0
 16 11  1  0  0  0  0
 16 12  2  0  0  0  0
 17 18  1  0  0  0  0
 17 19  1  0  0  0  0
 18 13  1  0  0  0  0
 19 15  1  0  0  0  0
 21 22  2  0  0  0  0
 23 24  1  0  0  0  0
 24 26  1  0  0  0  0
 25 24  1  0  0  0  0
 26 27  1  0  0  0  0
 27 29  1  0  0  0  0
 28 30  1  0  0  0  0
 29 33  1  0  0  0  0
 29 30  1  0  0  0  0
 30 34  1  0  0  0  0
 32 31  1  0  0  0  0
 33 32  1  0  0  0  0
 34 31  1  0  0  0  0
M  END
>  <MODEL>
7

>  <REMARK>
 VINA RESULT:      -5.0      5.287      7.716
  Name = 
  7 active torsions:
  status: ('A' for Active; 'I' for Inactive)
    1  A    between atoms: C_1  and  C_24
    2  A    between atoms: C_3  and  C_13
    3  A    between atoms: C_3  and  C_17
    4  A    between atoms: C_4  and  C_21
    5  A    between atoms: C_5  and  C_18
    6  A    between atoms: C_5  and  C_31
    7  A    between atoms: C_17  and  C_18
                            x       y       z     vdW  Elec       q    Type
                         _______ _______ _______ _____ _____    ______ ____

>  <TORSDO>
F 7

$$$$
=
 OpenBabel10262419153D

 34 37  0  0  1  0  0  0  0  0999 V2000
  191.1430  178.1670  144.1710 C   0  0  2  0  0  3  0  0  0  0  0  0
  189.3420  176.5310  144.9080 C   0  0  1  0  0  3  0  0  0  0  0  0
  188.9520  177.9980  142.8650 C   0  0  1  0  0  3  0  0  0  0  0  0
  191.6790  176.6780  145.7790 C   0  0  0  0  0  2  0  0  0  0  0  0
  190.2430  176.2900  146.1220 C   0  0  0  0  0  2  0  0  0  0  0  0
  189.6410  175.6470  142.5140 C   0  0  0  0  0  3  0  0  0  0  0  0
  189.6240  177.9050  144.2490 C   0  0  2  0  0  3  0  0  0  0  0  0
  191.7250  178.0410  145.4460 O   0  0  0  0  0  0  0  0  0  0  0  0
  189.3770  175.3170  143.9610 C   0  0  0  0  0  2  0  0  0  0  0  0
  189.4020  176.8570  141.9870 C   0  0  0  0  0  0  0  0  0  0  0  0
  186.8280  178.7290  141.7470 N   0  0  0  0  0  0  0  0  0  0  0  0
  184.8730  179.3960  140.6460 O   0  0  0  0  0  0  0  0  0  0  0  0
  184.5100  177.8780  142.4430 C   0  0  0  0  0  2  0  0  0  0  0  0
  184.1840  179.7050  144.1740 C   0  0  0  0  0  1  0  0  0  0  0  0
  187.4140  178.0730  142.9230 C   0  0  2  0  0  3  0  0  0  0  0  0
  185.4010  178.7130  141.5650 C   0  0  0  0  0  0  0  0  0  0  0  0
  185.9230  177.9020  144.5660 C   0  0  0  0  0  2  0  0  0  0  0  0
  184.5760  178.2530  143.9270 C   0  0  2  0  0  3  0  0  0  0  0  0
  186.9550  178.7160  144.0800 O   0  0  0  0  0  0  0  0  0  0  0  0
  187.6470  179.5120  140.8250 C   0  0  0  0  0  1  0  0  0  0  0  0
  191.4140  179.5390  143.6410 C   0  0  0  0  0  3  0  0  0  0  0  0
  191.3050  180.5140  144.3660 O   0  0  0  0  0  0  0  0  0  0  0  0
  189.7610  177.1280  140.5560 C   0  0  0  0  0  2  0  0  0  0  0  0
  191.1210  176.5440  140.1720 C   0  0  2  0  0  3  0  0  0  0  0  0
  192.2100  177.5030  140.6080 C   0  0  0  0  0  1  0  0  0  0  0  0
  191.2330  176.3260  138.6720 C   0  0  0  0  0  2  0  0  0  0  0  0
  189.8630  176.1800  138.0320 C   0  0  0  0  0  2  0  0  0  0  0  0
  189.0550  179.0040  137.4180 C   0  0  0  0  0  1  0  0  0  0  0  0
  189.8420  176.7190  136.6010 C   0  0  2  0  0  3  0  0  0  0  0  0
  188.8440  177.8750  136.4250 C   0  0  1  0  0  3  0  0  0  0  0  0
  187.2030  176.4110  135.4640 O   0  0  0  0  0  0  0  0  0  0  0  0
  187.9700  175.2690  135.7720 C   0  0  0  0  0  2  0  0  0  0  0  0
  189.4660  175.5830  135.6470 C   0  0  0  0  0  2  0  0  0  0  0  0
  187.4130  177.3410  136.4970 C   0  0  0  0  0  2  0  0  0  0  0  0
  1 21  1  1  0  0  0
  1  7  1  0  0  0  0
  1  8  1  0  0  0  0
  2  9  1  6  0  0  0
  2  5  1  0  0  0  0
  3 10  1  6  0  0  0
  3 15  1  0  0  0  0
  3  7  1  0  0  0  0
  4  5  1  0  0  0  0
  6  9  1  0  0  0  0
  7  2  1  0  0  0  0
  8  4  1  0  0  0  0
 10  6  2  0  0  0  0
 11 15  1  0  0  0  0
 12 16  2  0  0  0  0
 13 18  1  0  0  0  0
 15 19  1  0  0  0  0
 16 11  1  0  0  0  0
 16 13  1  0  0  0  0
 18 14  1  0  0  0  0
 18 17  1  0  0  0  0
 19 17  1  0  0  0  0
 20 11  1  0  0  0  0
 21 22  2  0  0  0  0
 23 10  1  0  0  0  0
 24 23  1  0  0  0  0
 24 25  1  0  0  0  0
 26 24  1  0  0  0  0
 27 26  1  0  0  0  0
 29 27  1  0  0  0  0
 30 34  1  0  0  0  0
 30 29  1  0  0  0  0
 30 28  1  0  0  0  0
 31 32  1  0  0  0  0
 31 34  1  0  0  0  0
 33 32  1  0  0  0  0
 33 29  1  0  0  0  0
M  END
>  <MODEL>
8

>  <REMARK>
 VINA RESULT:      -4.8      3.829      8.716
  Name = 
  7 active torsions:
  status: ('A' for Active; 'I' for Inactive)
    1  A    between atoms: C_1  and  C_24
    2  A    between atoms: C_3  and  C_13
    3  A    between atoms: C_3  and  C_17
    4  A    between atoms: C_4  and  C_21
    5  A    between atoms: C_5  and  C_18
    6  A    between atoms: C_5  and  C_31
    7  A    between atoms: C_17  and  C_18
                            x       y       z     vdW  Elec       q    Type
                         _______ _______ _______ _____ _____    ______ ____

>  <TORSDO>
F 7

$$$$
=
 OpenBabel10262419153D

 34 37  0  0  1  0  0  0  0  0999 V2000
  186.6180  178.2530  137.9310 C   0  0  2  0  0  3  0  0  0  0  0  0
  188.1410  177.0200  136.3110 C   0  0  1  0  0  3  0  0  0  0  0  0
  185.6980  176.3360  136.5120 C   0  0  1  0  0  3  0  0  0  0  0  0
  188.6690  179.1150  137.5650 C   0  0  0  0  0  2  0  0  0  0  0  0
  189.2610  177.8570  136.9330 C   0  0  0  0  0  2  0  0  0  0  0  0
  186.3680  177.7660  134.6060 C   0  0  0  0  0  3  0  0  0  0  0  0
  186.9230  176.8960  137.2610 C   0  0  2  0  0  3  0  0  0  0  0  0
  187.7670  178.7460  138.5750 O   0  0  0  0  0  0  0  0  0  0  0  0
  187.8270  177.5140  134.8860 C   0  0  0  0  0  2  0  0  0  0  0  0
  185.3810  177.1910  135.3120 C   0  0  0  0  0  0  0  0  0  0  0  0
  184.8780  173.9820  136.7960 N   0  0  0  0  0  0  0  0  0  0  0  0
  184.0510  171.8080  137.0670 O   0  0  0  0  0  0  0  0  0  0  0  0
  185.4500  172.0890  135.1610 C   0  0  0  0  0  2  0  0  0  0  0  0
  187.5780  171.4550  136.3910 C   0  0  0  0  0  1  0  0  0  0  0  0
  185.8380  174.8550  136.1090 C   0  0  2  0  0  3  0  0  0  0  0  0
  184.7580  172.6060  136.3920 C   0  0  0  0  0  0  0  0  0  0  0  0
  187.4550  173.6630  135.1510 C   0  0  0  0  0  2  0  0  0  0  0  0
  186.9760  172.2100  135.2120 C   0  0  2  0  0  3  0  0  0  0  0  0
  187.1330  174.3640  136.3220 O   0  0  0  0  0  0  0  0  0  0  0  0
  184.1340  174.4390  137.9660 C   0  0  0  0  0  1  0  0  0  0  0  0
  185.5170  178.1080  138.9330 C   0  0  0  0  0  3  0  0  0  0  0  0
  185.4950  178.8050  139.9330 O   0  0  0  0  0  0  0  0  0  0  0  0
  183.9540  177.5520  135.0200 C   0  0  0  0  0  2  0  0  0  0  0  0
  182.9630  176.5500  135.6130 C   0  0  2  0  0  3  0  0  0  0  0  0
  182.7060  175.4530  134.6000 C   0  0  0  0  0  1  0  0  0  0  0  0
  181.6400  177.2120  135.9630 C   0  0  0  0  0  2  0  0  0  0  0  0
  181.8560  178.5770  136.5950 C   0  0  0  0  0  2  0  0  0  0  0  0
  180.7890  181.2520  135.7530 C   0  0  0  0  0  1  0  0  0  0  0  0
  180.5620  179.1470  137.1750 C   0  0  2  0  0  3  0  0  0  0  0  0
  180.5290  180.6840  137.1370 C   0  0  1  0  0  3  0  0  0  0  0  0
  181.1520  180.8300  139.4500 O   0  0  0  0  0  0  0  0  0  0  0  0
  181.4020  179.4450  139.5210 C   0  0  0  0  0  2  0  0  0  0  0  0
  180.4190  178.6800  138.6260 C   0  0  0  0  0  2  0  0  0  0  0  0
  181.5150  181.2500  138.1580 C   0  0  0  0  0  2  0  0  0  0  0  0
  1  8  1  0  0  0  0
  1 21  1  1  0  0  0
  2  9  1  6  0  0  0
  2  5  1  0  0  0  0
  2  7  1  0  0  0  0
  3 10  1  6  0  0  0
  3  7  1  0  0  0  0
  4  8  1  0  0  0  0
  5  4  1  0  0  0  0
  6  9  1  0  0  0  0
  6 10  2  0  0  0  0
  7  1  1  0  0  0  0
 11 20  1  0  0  0  0
 13 18  1  0  0  0  0
 13 16  1  0  0  0  0
 15 19  1  0  0  0  0
 15  3  1  0  0  0  0
 15 11  1  0  0  0  0
 16 11  1  0  0  0  0
 16 12  2  0  0  0  0
 17 18  1  0  0  0  0
 17 19  1  0  0  0  0
 18 14  1  0  0  0  0
 21 22  2  0  0  0  0
 23 10  1  0  0  0  0
 23 24  1  0  0  0  0
 24 26  1  0  0  0  0
 25 24  1  0  0  0  0
 26 27  1  0  0  0  0
 27 29  1  0  0  0  0
 28 30  1  0  0  0  0
 29 33  1  0  0  0  0
 30 29  1  0  0  0  0
 30 34  1  0  0  0  0
 31 32  1  0  0  0  0
 33 32  1  0  0  0  0
 34 31  1  0  0  0  0
M  END
>  <MODEL>
9

>  <REMARK>
 VINA RESULT:      -4.6      3.759      7.841
  Name = 
  7 active torsions:
  status: ('A' for Active; 'I' for Inactive)
    1  A    between atoms: C_1  and  C_24
    2  A    between atoms: C_3  and  C_13
    3  A    between atoms: C_3  and  C_17
    4  A    between atoms: C_4  and  C_21
    5  A    between atoms: C_5  and  C_18
    6  A    between atoms: C_5  and  C_31
    7  A    between atoms: C_17  and  C_18
                            x       y       z     vdW  Elec       q    Type
                         _______ _______ _______ _____ _____    ______ ____

>  <TORSDO>
F 7

$$$$
