=
 OpenBabel10262421383D

 32 37  0  0  1  0  0  0  0  0999 V2000
  186.2090  178.6950  142.2950 C   0  0  2  0  0  3  0  0  0  0  0  0
  185.1320  179.0410  145.9860 C   0  0  0  0  0  3  0  0  0  0  0  0
  183.7430  178.8980  145.7990 C   0  0  0  0  0  3  0  0  0  0  0  0
  185.0630  178.4780  139.9360 C   0  0  0  0  0  0  0  0  0  0  0  0
  183.8160  178.3510  139.3120 C   0  0  0  0  0  0  0  0  0  0  0  0
  181.5600  178.1910  139.1240 C   0  0  0  0  0  0  0  0  0  0  0  0
  186.0090  178.9820  144.8890 C   0  0  0  0  0  3  0  0  0  0  0  0
  185.4720  178.7630  143.6190 C   0  0  0  0  0  0  0  0  0  0  0  0
  183.8430  178.5080  142.0340 C   0  0  0  0  0  0  0  0  0  0  0  0
  181.9870  178.1550  137.9020 N   0  0  0  0  0  0  0  0  0  0  0  0
  183.4540  178.2520  137.8670 C   0  0  0  0  0  3  0  0  0  0  0  0
  183.2130  178.7030  144.5150 C   0  0  0  0  0  3  0  0  0  0  0  0
  184.1050  178.6420  143.4450 C   0  0  0  0  0  0  0  0  0  0  0  0
  182.6380  178.3940  141.4080 N   0  0  0  0  0  0  0  0  0  0  0  0
  186.5540  178.5470  139.0130 Cl  0  0  0  0  0  0  0  0  0  0  0  0
  180.1190  178.1150  139.4890 C   0  0  0  0  0  1  0  0  0  0  0  0
  185.0500  178.5520  141.3390 C   0  0  2  0  0  3  0  0  0  0  0  0
  182.6560  178.3110  140.0490 C   0  0  0  0  0  0  0  0  0  0  0  0
  190.9030  178.7930  143.5430 C   0  0  0  0  0  2  0  0  0  0  0  0
  188.8120  176.7700  143.7250 C   0  0  1  0  0  3  0  0  0  0  0  0
  188.3910  178.0360  141.7630 N   0  0  0  0  0  2  0  0  0  0  0  0
  190.7630  177.7750  142.4130 C   0  0  0  0  0  2  0  0  0  0  0  0
  187.1370  177.5530  142.1850 N   0  0  1  0  0  0  0  0  0  0  0  0
  190.5310  178.2280  144.8450 N   0  0  0  0  0  0  0  0  0  0  0  0
  189.3690  177.1570  142.3740 C   0  0  1  0  0  3  0  0  0  0  0  0
  189.1310  177.7970  144.8240 C   0  0  0  0  0  2  0  0  0  0  0  0
  187.3300  176.8470  143.4620 C   0  0  0  0  0  2  0  0  0  0  0  0
  191.3990  177.1070  145.2000 C   0  0  0  0  0  2  0  0  0  0  0  0
  191.2660  176.7990  146.6810 C   0  0  0  0  0  2  0  0  0  0  0  0
  192.2090  175.7090  147.0680 C   0  0  0  0  0  0  0  0  0  0  0  0
  192.8670  175.7390  148.4040 C   0  0  0  0  0  1  0  0  0  0  0  0
  192.4610  174.8060  146.2870 O   0  0  0  0  0  0  0  0  0  0  0  0
  1  8  1  1  0  0  0
  3  2  1  0  0  0  0
  5  4  2  0  0  0  0
  5 18  1  0  0  0  0
  6 16  1  0  0  0  0
  6 18  2  0  0  0  0
  7  2  2  0  0  0  0
  8  7  1  0  0  0  0
  9 13  1  0  0  0  0
 10  6  1  0  0  0  0
 11 10  2  0  0  0  0
 11  5  1  0  0  0  0
 12  3  2  0  0  0  0
 13  8  2  0  0  0  0
 13 12  1  0  0  0  0
 14  9  2  0  0  0  0
 15  4  1  0  0  0  0
 17  4  1  6  0  0  0
 17  9  1  0  0  0  0
 17  1  1  0  0  0  0
 18 14  1  0  0  0  0
 19 24  1  0  0  0  0
 20 27  1  6  0  0  0
 20 26  1  0  0  0  0
 21 23  1  0  0  0  0
 21 25  1  0  0  0  0
 22 19  1  0  0  0  0
 23  1  1  0  0  0  0
 23 27  1  1  0  0  0
 24 28  1  0  0  0  0
 25 22  1  1  0  0  0
 25 20  1  0  0  0  0
 26 24  1  0  0  0  0
 28 29  1  0  0  0  0
 29 30  1  0  0  0  0
 30 31  1  0  0  0  0
 32 30  2  0  0  0  0
M  END
>  <MODEL>
1

>  <REMARK>
 VINA RESULT:      -9.2      0.000      0.000
  Name = 
  4 active torsions:
  status: ('A' for Active; 'I' for Inactive)
    1  A    between atoms: C_1  and  C_10
    2  A    between atoms: C_3  and  N_14
    3  A    between atoms: C_10  and  C_24
    4  A    between atoms: N_19  and  C_24
                            x       y       z     vdW  Elec       q    Type
                         _______ _______ _______ _____ _____    ______ ____

>  <TORSDO>
F 4

$$$$
=
 OpenBabel10262421383D

 32 37  0  0  1  0  0  0  0  0999 V2000
  187.8380  177.2420  142.4560 C   0  0  2  0  0  3  0  0  0  0  0  0
  184.2030  178.4850  142.0830 C   0  0  0  0  0  3  0  0  0  0  0  0
  183.9890  178.8710  143.4200 C   0  0  0  0  0  3  0  0  0  0  0  0
  189.5880  176.8700  144.3850 C   0  0  0  0  0  0  0  0  0  0  0  0
  189.7870  177.0550  145.7600 C   0  0  0  0  0  0  0  0  0  0  0  0
  189.3110  177.6580  147.8950 C   0  0  0  0  0  0  0  0  0  0  0  0
  185.4370  177.9470  141.6850 C   0  0  0  0  0  3  0  0  0  0  0  0
  186.4470  177.8210  142.6400 C   0  0  0  0  0  0  0  0  0  0  0  0
  187.4020  177.8690  144.7190 C   0  0  0  0  0  0  0  0  0  0  0  0
  190.5040  177.1590  147.9610 N   0  0  0  0  0  0  0  0  0  0  0  0
  190.9500  176.7170  146.6310 C   0  0  0  0  0  2  0  0  0  0  0  0
  185.0030  178.7170  144.3780 C   0  0  0  0  0  3  0  0  0  0  0  0
  186.2210  178.1870  143.9560 C   0  0  0  0  0  0  0  0  0  0  0  0
  187.6090  178.0320  146.0560 N   0  0  0  0  0  0  0  0  0  0  0  0
  190.8140  176.1350  143.3670 Cl  0  0  0  0  0  0  0  0  0  0  0  0
  188.5810  178.1910  149.0770 C   0  0  0  0  0  1  0  0  0  0  0  0
  188.3540  177.3030  143.8730 C   0  0  0  0  0  0  0  0  0  0  0  0
  188.8110  177.6220  146.5450 C   0  0  0  0  0  0  0  0  0  0  0  0
  188.9740  175.9360  137.9180 C   0  0  0  0  0  2  0  0  0  0  0  0
  188.4210  178.4960  139.1990 C   0  0  1  0  0  3  0  0  0  0  0  0
  189.4970  177.1260  140.8090 N   0  0  0  0  0  2  0  0  0  0  0  0
  190.1440  176.7610  138.4510 C   0  0  0  0  0  2  0  0  0  0  0  0
  188.6940  178.0220  141.5420 N   0  0  1  0  0  0  0  0  0  0  0  0
  187.8750  176.7810  137.4380 N   0  0  0  0  0  0  0  0  0  0  0  0
  189.6990  177.7550  139.5190 C   0  0  1  0  0  3  0  0  0  0  0  0
  187.3580  177.6040  138.5340 C   0  0  0  0  0  2  0  0  0  0  0  0
  187.9220  178.8270  140.5810 C   0  0  0  0  0  2  0  0  0  0  0  0
  188.3090  177.6310  136.3310 C   0  0  0  0  0  2  0  0  0  0  0  0
  187.1000  178.1360  135.5630 C   0  0  0  0  0  2  0  0  0  0  0  0
  186.2150  176.9950  135.1870 C   0  0  0  0  0  0  0  0  0  0  0  0
  184.7720  177.0250  135.5550 C   0  0  0  0  0  1  0  0  0  0  0  0
  186.6720  176.0290  134.5980 O   0  0  0  0  0  0  0  0  0  0  0  0
  1  8  1  1  0  0  0
  1 17  1  0  0  0  0
  2  3  1  0  0  0  0
  3 12  2  0  0  0  0
  4  5  1  0  0  0  0
  5 18  2  0  0  0  0
  5 11  1  0  0  0  0
  6 10  2  0  0  0  0
  6 16  1  0  0  0  0
  7  2  2  0  0  0  0
  7  8  1  0  0  0  0
  8 13  2  0  0  0  0
  9 14  2  0  0  0  0
 11 10  1  0  0  0  0
 13 12  1  0  0  0  0
 13  9  1  0  0  0  0
 14 18  1  0  0  0  0
 15  4  1  0  0  0  0
 17  4  2  0  0  0  0
 17  9  1  0  0  0  0
 18  6  1  0  0  0  0
 19 22  1  0  0  0  0
 20 26  1  1  0  0  0
 20 25  1  0  0  0  0
 20 27  1  0  0  0  0
 21 23  1  0  0  0  0
 23 27  1  6  0  0  0
 23  1  1  0  0  0  0
 24 19  1  0  0  0  0
 24 26  1  0  0  0  0
 25 22  1  6  0  0  0
 25 21  1  0  0  0  0
 28 24  1  0  0  0  0
 29 28  1  0  0  0  0
 30 31  1  0  0  0  0
 30 29  1  0  0  0  0
 32 30  2  0  0  0  0
M  END
>  <MODEL>
2

>  <REMARK>
 VINA RESULT:      -9.0      3.683      7.952
  Name = 
  4 active torsions:
  status: ('A' for Active; 'I' for Inactive)
    1  A    between atoms: C_1  and  C_10
    2  A    between atoms: C_3  and  N_14
    3  A    between atoms: C_10  and  C_24
    4  A    between atoms: N_19  and  C_24
                            x       y       z     vdW  Elec       q    Type
                         _______ _______ _______ _____ _____    ______ ____

>  <TORSDO>
F 4

$$$$
=
 OpenBabel10262421383D

 32 37  0  0  1  0  0  0  0  0999 V2000
  187.2870  177.5040  142.3370 C   0  0  2  0  0  3  0  0  0  0  0  0
  183.5870  178.6010  142.2590 C   0  0  0  0  0  3  0  0  0  0  0  0
  183.4380  178.8880  143.6300 C   0  0  0  0  0  3  0  0  0  0  0  0
  189.1640  177.0860  144.1330 C   0  0  0  0  0  0  0  0  0  0  0  0
  189.4370  177.1870  145.5030 C   0  0  0  0  0  0  0  0  0  0  0  0
  189.0660  177.6260  147.6990 C   0  0  0  0  0  0  0  0  0  0  0  0
  184.8170  178.1470  141.7550 C   0  0  0  0  0  3  0  0  0  0  0  0
  185.8870  178.0050  142.6400 C   0  0  0  0  0  0  0  0  0  0  0  0
  186.9620  177.9590  144.6590 C   0  0  0  0  0  0  0  0  0  0  0  0
  190.2810  177.1780  147.6610 N   0  0  0  0  0  0  0  0  0  0  0  0
  190.6650  176.8470  146.2800 C   0  0  0  0  0  3  0  0  0  0  0  0
  184.5140  178.7170  144.5150 C   0  0  0  0  0  3  0  0  0  0  0  0
  185.7250  178.2720  143.9880 C   0  0  0  0  0  0  0  0  0  0  0  0
  187.2420  178.0420  145.9900 N   0  0  0  0  0  0  0  0  0  0  0  0
  190.3560  176.4760  142.9980 Cl  0  0  0  0  0  0  0  0  0  0  0  0
  188.3880  178.0450  148.9540 C   0  0  0  0  0  1  0  0  0  0  0  0
  187.8840  177.4940  143.7230 C   0  0  0  0  0  0  0  0  0  0  0  0
  188.4880  177.6560  146.3800 C   0  0  2  0  0  3  0  0  0  0  0  0
  190.0250  175.9640  138.6320 C   0  0  0  0  0  2  0  0  0  0  0  0
  188.3090  178.2850  139.0410 C   0  0  1  0  0  3  0  0  0  0  0  0
  189.2820  177.7570  141.1390 N   0  0  0  0  0  2  0  0  0  0  0  0
  190.6500  177.2620  139.1400 C   0  0  0  0  0  2  0  0  0  0  0  0
  188.0530  178.3810  141.4310 N   0  0  1  0  0  0  0  0  0  0  0  0
  188.8890  176.2110  137.7370 N   0  0  0  0  0  0  0  0  0  0  0  0
  189.6160  178.1750  139.7920 C   0  0  1  0  0  3  0  0  0  0  0  0
  187.8400  176.9460  138.4480 C   0  0  0  0  0  2  0  0  0  0  0  0
  187.3590  178.6340  140.1570 C   0  0  0  0  0  2  0  0  0  0  0  0
  189.3060  176.9520  136.5490 C   0  0  0  0  0  2  0  0  0  0  0  0
  189.0300  176.1270  135.3030 C   0  0  0  0  0  2  0  0  0  0  0  0
  190.1910  175.2380  135.0060 C   0  0  0  0  0  0  0  0  0  0  0  0
  191.5800  175.7460  135.1890 C   0  0  0  0  0  1  0  0  0  0  0  0
  190.0090  174.1030  134.5940 O   0  0  0  0  0  0  0  0  0  0  0  0
  1  8  1  1  0  0  0
  1 17  1  0  0  0  0
  2  3  1  0  0  0  0
  3 12  2  0  0  0  0
  4  5  1  0  0  0  0
  5 11  2  0  0  0  0
  6 16  1  0  0  0  0
  7  2  2  0  0  0  0
  7  8  1  0  0  0  0
  8 13  2  0  0  0  0
  9 14  2  0  0  0  0
 10  6  2  0  0  0  0
 11 10  1  0  0  0  0
 13 12  1  0  0  0  0
 13  9  1  0  0  0  0
 14 18  1  0  0  0  0
 15  4  1  0  0  0  0
 17  4  2  0  0  0  0
 17  9  1  0  0  0  0
 18  5  1  1  0  0  0
 18  6  1  0  0  0  0
 19 22  1  0  0  0  0
 20 26  1  1  0  0  0
 20 25  1  0  0  0  0
 20 27  1  0  0  0  0
 21 23  1  0  0  0  0
 23 27  1  6  0  0  0
 23  1  1  0  0  0  0
 24 26  1  0  0  0  0
 24 19  1  0  0  0  0
 25 22  1  6  0  0  0
 25 21  1  0  0  0  0
 28 24  1  0  0  0  0
 29 28  1  0  0  0  0
 30 31  1  0  0  0  0
 30 29  1  0  0  0  0
 32 30  2  0  0  0  0
M  END
>  <MODEL>
3

>  <REMARK>
 VINA RESULT:      -8.7      3.984      7.476
  Name = 
  4 active torsions:
  status: ('A' for Active; 'I' for Inactive)
    1  A    between atoms: C_1  and  C_10
    2  A    between atoms: C_3  and  N_14
    3  A    between atoms: C_10  and  C_24
    4  A    between atoms: N_19  and  C_24
                            x       y       z     vdW  Elec       q    Type
                         _______ _______ _______ _____ _____    ______ ____

>  <TORSDO>
F 4

$$$$
=
 OpenBabel10262421383D

 32 37  0  0  1  0  0  0  0  0999 V2000
  188.0970  178.2920  140.9130 C   0  0  2  0  0  3  0  0  0  0  0  0
  184.7590  179.0600  142.6920 C   0  0  0  0  0  3  0  0  0  0  0  0
  183.9160  178.9940  141.5660 C   0  0  0  0  0  3  0  0  0  0  0  0
  188.9640  177.9280  138.4550 C   0  0  0  0  0  0  0  0  0  0  0  0
  188.5330  177.8250  137.1260 C   0  0  0  0  0  0  0  0  0  0  0  0
  187.0890  177.7980  135.3750 C   0  0  0  0  0  0  0  0  0  0  0  0
  186.1400  178.8390  142.5640 C   0  0  0  0  0  3  0  0  0  0  0  0
  186.6510  178.5360  141.3000 C   0  0  0  0  0  0  0  0  0  0  0  0
  186.6270  178.2400  139.0320 C   0  0  0  0  0  0  0  0  0  0  0  0
  188.2520  177.6170  134.8360 N   0  0  0  0  0  0  0  0  0  0  0  0
  189.3020  177.6120  135.8660 C   0  0  0  0  0  3  0  0  0  0  0  0
  184.4440  178.7120  140.2970 C   0  0  0  0  0  3  0  0  0  0  0  0
  185.8160  178.4890  140.1970 C   0  0  0  0  0  0  0  0  0  0  0  0
  186.2280  178.1460  137.7320 N   0  0  0  0  0  0  0  0  0  0  0  0
  190.6610  177.8080  138.8860 Cl  0  0  0  0  0  0  0  0  0  0  0  0
  185.8250  177.8530  134.5940 C   0  0  0  0  0  1  0  0  0  0  0  0
  187.9620  178.1360  139.4180 C   0  0  2  0  0  3  0  0  0  0  0  0
  187.2010  177.9330  136.8050 C   0  0  0  0  0  0  0  0  0  0  0  0
  191.2850  178.3050  144.5790 C   0  0  0  0  0  2  0  0  0  0  0  0
  189.0680  176.5600  143.8420 C   0  0  1  0  0  3  0  0  0  0  0  0
  190.0360  177.3510  141.8250 N   0  0  0  0  0  2  0  0  0  0  0  0
  191.5740  177.0610  143.7400 C   0  0  0  0  0  2  0  0  0  0  0  0
  188.6850  177.0850  141.5260 N   0  0  1  0  0  0  0  0  0  0  0  0
  190.1650  178.0990  145.5050 N   0  0  0  0  0  0  0  0  0  0  0  0
  190.3300  176.5660  143.0090 C   0  0  1  0  0  3  0  0  0  0  0  0
  188.9440  177.7900  144.7560 C   0  0  0  0  0  2  0  0  0  0  0  0
  188.0130  176.6910  142.7750 C   0  0  0  0  0  2  0  0  0  0  0  0
  190.4580  177.0290  146.4560 C   0  0  0  0  0  2  0  0  0  0  0  0
  189.2360  176.7500  147.3130 C   0  0  0  0  0  2  0  0  0  0  0  0
  188.9170  177.9380  148.1590 C   0  0  0  0  0  0  0  0  0  0  0  0
  187.5610  178.5490  148.0950 C   0  0  0  0  0  1  0  0  0  0  0  0
  189.7690  178.4230  148.8860 O   0  0  0  0  0  0  0  0  0  0  0  0
  1  8  1  1  0  0  0
  1 23  1  0  0  0  0
  3  2  2  0  0  0  0
  4 15  1  0  0  0  0
  5  4  2  0  0  0  0
  6 18  2  0  0  0  0
  7  2  1  0  0  0  0
  8  7  2  0  0  0  0
  9 17  1  0  0  0  0
  9 13  1  0  0  0  0
 10  6  1  0  0  0  0
 10 11  2  0  0  0  0
 11  5  1  0  0  0  0
 12  3  1  0  0  0  0
 13 12  2  0  0  0  0
 13  8  1  0  0  0  0
 14  9  2  0  0  0  0
 16  6  1  0  0  0  0
 17  4  1  6  0  0  0
 17  1  1  0  0  0  0
 18  5  1  0  0  0  0
 18 14  1  0  0  0  0
 19 24  1  0  0  0  0
 20 27  1  6  0  0  0
 20 26  1  0  0  0  0
 21 25  1  0  0  0  0
 22 19  1  0  0  0  0
 23 21  1  0  0  0  0
 23 27  1  1  0  0  0
 24 28  1  0  0  0  0
 25 22  1  1  0  0  0
 25 20  1  0  0  0  0
 26 24  1  0  0  0  0
 28 29  1  0  0  0  0
 29 30  1  0  0  0  0
 30 32  2  0  0  0  0
 31 30  1  0  0  0  0
M  END
>  <MODEL>
4

>  <REMARK>
 VINA RESULT:      -8.5      3.014      4.028
  Name = 
  4 active torsions:
  status: ('A' for Active; 'I' for Inactive)
    1  A    between atoms: C_1  and  C_10
    2  A    between atoms: C_3  and  N_14
    3  A    between atoms: C_10  and  C_24
    4  A    between atoms: N_19  and  C_24
                            x       y       z     vdW  Elec       q    Type
                         _______ _______ _______ _____ _____    ______ ____

>  <TORSDO>
F 4

$$$$
=
 OpenBabel10262421383D

 32 37  0  0  1  0  0  0  0  0999 V2000
  186.4550  178.6120  142.1270 C   0  0  2  0  0  3  0  0  0  0  0  0
  184.3090  179.1530  145.2900 C   0  0  0  0  0  3  0  0  0  0  0  0
  183.0410  179.0040  144.6950 C   0  0  0  0  0  3  0  0  0  0  0  0
  186.0790  178.2750  139.5440 C   0  0  0  0  0  0  0  0  0  0  0  0
  185.0790  178.1180  138.5750 C   0  0  0  0  0  0  0  0  0  0  0  0
  182.9850  177.9530  137.7160 C   0  0  0  0  0  0  0  0  0  0  0  0
  185.4770  179.0350  144.5180 C   0  0  0  0  0  3  0  0  0  0  0  0
  185.3500  178.7510  143.1580 C   0  0  0  0  0  0  0  0  0  0  0  0
  184.2780  178.4180  141.1640 C   0  0  0  0  0  0  0  0  0  0  0  0
  183.7640  177.8530  136.6860 N   0  0  0  0  0  0  0  0  0  0  0  0
  185.1740  177.9450  137.0960 C   0  0  0  0  0  3  0  0  0  0  0  0
  182.9250  178.7430  143.3210 C   0  0  0  0  0  3  0  0  0  0  0  0
  184.0990  178.6240  142.5800 C   0  0  0  0  0  0  0  0  0  0  0  0
  183.3190  178.2730  140.2070 N   0  0  0  0  0  0  0  0  0  0  0  0
  187.7820  178.2910  139.1180 Cl  0  0  0  0  0  0  0  0  0  0  0  0
  181.5010  177.9000  137.6270 C   0  0  0  0  0  1  0  0  0  0  0  0
  185.6400  178.4220  140.8710 C   0  0  2  0  0  3  0  0  0  0  0  0
  183.7500  178.1190  138.9250 C   0  0  0  0  0  0  0  0  0  0  0  0
  190.1440  178.5630  145.2870 C   0  0  0  0  0  2  0  0  0  0  0  0
  188.2020  176.5660  144.4260 C   0  0  1  0  0  3  0  0  0  0  0  0
  188.6590  177.9500  142.5540 N   0  0  0  0  0  2  0  0  0  0  0  0
  190.5170  177.6140  144.1490 C   0  0  0  0  0  2  0  0  0  0  0  0
  187.3500  177.4630  142.3620 N   0  0  1  0  0  0  0  0  0  0  0  0
  189.2500  177.9290  146.2640 N   0  0  0  0  0  0  0  0  0  0  0  0
  189.2850  177.0210  143.4740 C   0  0  1  0  0  3  0  0  0  0  0  0
  188.0020  177.5220  145.6140 C   0  0  0  0  0  2  0  0  0  0  0  0
  186.9790  176.6810  143.5530 C   0  0  0  0  0  2  0  0  0  0  0  0
  189.8910  176.7760  146.8920 C   0  0  0  0  0  2  0  0  0  0  0  0
  191.0540  177.2370  147.7540 C   0  0  0  0  0  2  0  0  0  0  0  0
  192.1710  176.2490  147.6850 C   0  0  0  0  0  0  0  0  0  0  0  0
  192.2640  175.3180  146.5260 C   0  0  0  0  0  1  0  0  0  0  0  0
  192.9950  176.1870  148.5820 O   0  0  0  0  0  0  0  0  0  0  0  0
  1 23  1  0  0  0  0
  1  8  1  1  0  0  0
  3  2  1  0  0  0  0
  5 18  1  0  0  0  0
  5  4  2  0  0  0  0
  6 18  2  0  0  0  0
  7  2  2  0  0  0  0
  8  7  1  0  0  0  0
  9 13  1  0  0  0  0
 10 11  2  0  0  0  0
 10  6  1  0  0  0  0
 11  5  1  0  0  0  0
 12  3  2  0  0  0  0
 13  8  2  0  0  0  0
 13 12  1  0  0  0  0
 14  9  2  0  0  0  0
 15  4  1  0  0  0  0
 16  6  1  0  0  0  0
 17  4  1  6  0  0  0
 17  9  1  0  0  0  0
 17  1  1  0  0  0  0
 18 14  1  0  0  0  0
 19 24  1  0  0  0  0
 20 27  1  6  0  0  0
 20 26  1  0  0  0  0
 21 25  1  0  0  0  0
 22 19  1  0  0  0  0
 23 21  1  0  0  0  0
 23 27  1  1  0  0  0
 24 28  1  0  0  0  0
 25 22  1  1  0  0  0
 25 20  1  0  0  0  0
 26 24  1  0  0  0  0
 28 29  1  0  0  0  0
 30 29  1  0  0  0  0
 30 32  2  0  0  0  0
 31 30  1  0  0  0  0
M  END
>  <MODEL>
5

>  <REMARK>
 VINA RESULT:      -8.4      1.256      1.470
  Name = 
  4 active torsions:
  status: ('A' for Active; 'I' for Inactive)
    1  A    between atoms: C_1  and  C_10
    2  A    between atoms: C_3  and  N_14
    3  A    between atoms: C_10  and  C_24
    4  A    between atoms: N_19  and  C_24
                            x       y       z     vdW  Elec       q    Type
                         _______ _______ _______ _____ _____    ______ ____

>  <TORSDO>
F 4

$$$$
=
 OpenBabel10262421383D

 32 37  0  0  1  0  0  0  0  0999 V2000
  186.4700  177.5550  142.9850 C   0  0  2  0  0  3  0  0  0  0  0  0
  183.6410  178.7010  145.3480 C   0  0  0  0  0  3  0  0  0  0  0  0
  184.3910  178.7600  146.5390 C   0  0  0  0  0  3  0  0  0  0  0  0
  188.9910  176.8220  143.1660 C   0  0  0  0  0  0  0  0  0  0  0  0
  190.0510  176.6940  144.0720 C   0  0  0  0  0  0  0  0  0  0  0  0
  191.1470  176.7720  146.0580 C   0  0  0  0  0  0  0  0  0  0  0  0
  184.2480  178.3180  144.1410 C   0  0  0  0  0  3  0  0  0  0  0  0
  185.6120  178.0180  144.1480 C   0  0  0  0  0  0  0  0  0  0  0  0
  187.6800  177.6280  145.0430 C   0  0  0  0  0  0  0  0  0  0  0  0
  192.0270  176.3200  145.2230 N   0  0  0  0  0  0  0  0  0  0  0  0
  191.4500  176.2140  143.8740 C   0  0  0  0  0  3  0  0  0  0  0  0
  185.7560  178.4330  146.5380 C   0  0  0  0  0  3  0  0  0  0  0  0
  186.3360  178.0630  145.3260 C   0  0  0  0  0  0  0  0  0  0  0  0
  188.7210  177.4880  145.9120 N   0  0  0  0  0  0  0  0  0  0  0  0
  189.1670  176.3900  141.4730 Cl  0  0  0  0  0  0  0  0  0  0  0  0
  191.4260  176.9900  147.5030 C   0  0  0  0  0  1  0  0  0  0  0  0
  187.7820  177.3100  143.6900 C   0  0  0  0  0  0  0  0  0  0  0  0
  189.8930  177.0260  145.3970 C   0  0  2  0  0  3  0  0  0  0  0  0
  184.2500  177.3600  138.6690 C   0  0  0  0  0  2  0  0  0  0  0  0
  184.9550  179.5370  140.4760 C   0  0  1  0  0  3  0  0  0  0  0  0
  186.6480  177.8860  140.6750 N   0  0  0  0  0  2  0  0  0  0  0  0
  185.5730  178.0940  138.4580 C   0  0  0  0  0  2  0  0  0  0  0  0
  186.6170  178.5580  141.9140 N   0  0  1  0  0  0  0  0  0  0  0  0
  183.2080  178.2440  139.2060 N   0  0  0  0  0  0  0  0  0  0  0  0
  186.0410  178.7990  139.7260 C   0  0  1  0  0  3  0  0  0  0  0  0
  183.6200  178.7730  140.5080 C   0  0  0  0  0  2  0  0  0  0  0  0
  185.5080  179.5250  141.8770 C   0  0  0  0  0  2  0  0  0  0  0  0
  182.9210  179.3400  138.2830 C   0  0  0  0  0  2  0  0  0  0  0  0
  181.4210  179.5570  138.1890 C   0  0  0  0  0  2  0  0  0  0  0  0
  181.0460  180.8500  138.8320 C   0  0  0  0  0  0  0  0  0  0  0  0
  181.4490  182.1360  138.1970 C   0  0  0  0  0  1  0  0  0  0  0  0
  180.4290  180.8600  139.8850 O   0  0  0  0  0  0  0  0  0  0  0  0
  1 17  1  1  0  0  0
  1  8  1  0  0  0  0
  2  3  1  0  0  0  0
  4 17  2  0  0  0  0
  4  5  1  0  0  0  0
  6 16  1  0  0  0  0
  7  8  1  0  0  0  0
  7  2  2  0  0  0  0
  8 13  2  0  0  0  0
  9 13  1  0  0  0  0
  9 14  2  0  0  0  0
 10  6  2  0  0  0  0
 11  5  2  0  0  0  0
 11 10  1  0  0  0  0
 12  3  2  0  0  0  0
 13 12  1  0  0  0  0
 15  4  1  0  0  0  0
 17  9  1  0  0  0  0
 18  5  1  1  0  0  0
 18 14  1  0  0  0  0
 18  6  1  0  0  0  0
 19 24  1  0  0  0  0
 20 26  1  1  0  0  0
 20 27  1  0  0  0  0
 21 23  1  0  0  0  0
 22 19  1  0  0  0  0
 23 27  1  6  0  0  0
 23  1  1  0  0  0  0
 24 26  1  0  0  0  0
 25 22  1  6  0  0  0
 25 20  1  0  0  0  0
 25 21  1  0  0  0  0
 28 24  1  0  0  0  0
 29 28  1  0  0  0  0
 29 30  1  0  0  0  0
 30 32  2  0  0  0  0
 31 30  1  0  0  0  0
M  END
>  <MODEL>
6

>  <REMARK>
 VINA RESULT:      -7.8      3.122      8.397
  Name = 
  4 active torsions:
  status: ('A' for Active; 'I' for Inactive)
    1  A    between atoms: C_1  and  C_10
    2  A    between atoms: C_3  and  N_14
    3  A    between atoms: C_10  and  C_24
    4  A    between atoms: N_19  and  C_24
                            x       y       z     vdW  Elec       q    Type
                         _______ _______ _______ _____ _____    ______ ____

>  <TORSDO>
F 4

$$$$
=
 OpenBabel10262421383D

 32 37  0  0  1  0  0  0  0  0999 V2000
  185.0470  178.8580  141.7780 C   0  0  2  0  0  3  0  0  0  0  0  0
  187.5110  178.2550  138.8700 C   0  0  0  0  0  3  0  0  0  0  0  0
  188.5960  177.7720  139.6280 C   0  0  0  0  0  3  0  0  0  0  0  0
  185.0610  178.7460  144.4070 C   0  0  0  0  0  0  0  0  0  0  0  0
  185.8590  178.3930  145.5030 C   0  0  0  0  0  0  0  0  0  0  0  0
  187.6880  177.6560  146.6270 C   0  0  0  0  0  0  0  0  0  0  0  0
  186.3120  178.6280  139.4980 C   0  0  0  0  0  3  0  0  0  0  0  0
  186.2170  178.4920  140.8840 C   0  0  0  0  0  0  0  0  0  0  0  0
  186.9340  178.0800  143.0170 C   0  0  0  0  0  0  0  0  0  0  0  0
  186.8360  177.9500  147.5570 N   0  0  0  0  0  0  0  0  0  0  0  0
  185.5840  178.4490  146.9690 C   0  0  0  0  0  2  0  0  0  0  0  0
  188.4970  177.6640  141.0240 C   0  0  0  0  0  3  0  0  0  0  0  0
  187.2940  178.0340  141.6220 C   0  0  0  0  0  0  0  0  0  0  0  0
  187.7000  177.7490  144.0950 N   0  0  0  0  0  0  0  0  0  0  0  0
  183.4360  179.3780  144.6160 Cl  0  0  0  0  0  0  0  0  0  0  0  0
  189.0510  177.1280  146.9040 C   0  0  0  0  0  1  0  0  0  0  0  0
  185.6360  178.5700  143.1380 C   0  0  0  0  0  0  0  0  0  0  0  0
  187.1340  177.9100  145.3230 C   0  0  0  0  0  0  0  0  0  0  0  0
  181.0690  180.4240  139.4720 C   0  0  0  0  0  2  0  0  0  0  0  0
  182.4660  177.8660  139.5700 C   0  0  1  0  0  3  0  0  0  0  0  0
  182.7070  178.8770  141.7020 N   0  0  0  0  0  2  0  0  0  0  0  0
  180.6140  179.3730  140.4840 C   0  0  0  0  0  2  0  0  0  0  0  0
  183.8360  178.0490  141.5390 N   0  0  1  0  0  0  0  0  0  0  0  0
  181.5880  179.8160  138.2410 N   0  0  0  0  0  0  0  0  0  0  0  0
  181.7120  178.3590  140.7840 C   0  0  1  0  0  3  0  0  0  0  0  0
  182.7500  178.9780  138.5460 C   0  0  0  0  0  2  0  0  0  0  0  0
  183.7870  177.4790  140.1830 C   0  0  0  0  0  2  0  0  0  0  0  0
  180.5580  179.0260  137.5690 C   0  0  0  0  0  2  0  0  0  0  0  0
  179.6460  179.9390  136.7680 C   0  0  0  0  0  2  0  0  0  0  0  0
  180.4320  180.6700  135.7310 C   0  0  0  0  0  0  0  0  0  0  0  0
  180.4310  182.1590  135.7140 C   0  0  0  0  0  1  0  0  0  0  0  0
  181.0570  180.0530  134.8830 O   0  0  0  0  0  0  0  0  0  0  0  0
  1  8  1  6  0  0  0
  1 17  1  0  0  0  0
  2  7  2  0  0  0  0
  2  3  1  0  0  0  0
  3 12  2  0  0  0  0
  4 15  1  0  0  0  0
  4  5  1  0  0  0  0
  5 11  1  0  0  0  0
  6 16  1  0  0  0  0
  6 10  2  0  0  0  0
  7  8  1  0  0  0  0
  8 13  2  0  0  0  0
  9 17  1  0  0  0  0
  9 14  2  0  0  0  0
 11 10  1  0  0  0  0
 12 13  1  0  0  0  0
 13  9  1  0  0  0  0
 14 18  1  0  0  0  0
 17  4  2  0  0  0  0
 18  5  2  0  0  0  0
 18  6  1  0  0  0  0
 19 22  1  0  0  0  0
 20 26  1  6  0  0  0
 20 27  1  0  0  0  0
 20 25  1  0  0  0  0
 23 27  1  6  0  0  0
 23 21  1  0  0  0  0
 23  1  1  0  0  0  0
 24 26  1  0  0  0  0
 24 19  1  0  0  0  0
 25 22  1  6  0  0  0
 25 21  1  0  0  0  0
 28 24  1  0  0  0  0
 29 28  1  0  0  0  0
 30 29  1  0  0  0  0
 31 30  1  0  0  0  0
 32 30  2  0  0  0  0
M  END
>  <MODEL>
7

>  <REMARK>
 VINA RESULT:      -7.8      3.861      9.403
  Name = 
  4 active torsions:
  status: ('A' for Active; 'I' for Inactive)
    1  A    between atoms: C_1  and  C_10
    2  A    between atoms: C_3  and  N_14
    3  A    between atoms: C_10  and  C_24
    4  A    between atoms: N_19  and  C_24
                            x       y       z     vdW  Elec       q    Type
                         _______ _______ _______ _____ _____    ______ ____

>  <TORSDO>
F 4

$$$$
=
 OpenBabel10262421383D

 32 37  0  0  1  0  0  0  0  0999 V2000
  187.4180  177.5730  141.9240 C   0  0  2  0  0  3  0  0  0  0  0  0
  187.8100  177.5600  145.7640 C   0  0  0  0  0  3  0  0  0  0  0  0
  189.2170  177.5100  145.8180 C   0  0  0  0  0  3  0  0  0  0  0  0
  188.9580  177.3560  139.8010 C   0  0  0  0  0  0  0  0  0  0  0  0
  190.2960  177.2530  139.4020 C   0  0  0  0  0  0  0  0  0  0  0  0
  192.5520  177.1160  139.6090 C   0  0  0  0  0  0  0  0  0  0  0  0
  187.1440  177.5870  144.5270 C   0  0  0  0  0  3  0  0  0  0  0  0
  187.9090  177.5810  143.3590 C   0  0  0  0  0  0  0  0  0  0  0  0
  189.7970  177.4390  142.0760 C   0  0  0  0  0  0  0  0  0  0  0  0
  192.3420  177.0510  138.3330 N   0  0  0  0  0  0  0  0  0  0  0  0
  190.9020  177.1280  138.0440 C   0  0  0  0  0  3  0  0  0  0  0  0
  189.9740  177.4790  144.6370 C   0  0  0  0  0  3  0  0  0  0  0  0
  189.2900  177.5140  143.4230 C   0  0  0  0  0  0  0  0  0  0  0  0
  191.0940  177.3290  141.6700 N   0  0  0  0  0  0  0  0  0  0  0  0
  187.6450  177.3530  138.6350 Cl  0  0  0  0  0  0  0  0  0  0  0  0
  193.9080  177.0630  140.2190 C   0  0  0  0  0  1  0  0  0  0  0  0
  188.7280  177.4560  141.1830 C   0  0  2  0  0  3  0  0  0  0  0  0
  191.3120  177.2440  140.3290 C   0  0  0  0  0  0  0  0  0  0  0  0
  183.2920  177.6570  139.3610 C   0  0  0  0  0  2  0  0  0  0  0  0
  184.3310  179.2640  141.5600 C   0  0  1  0  0  3  0  0  0  0  0  0
  186.1860  178.6170  140.2300 N   0  0  0  0  0  2  0  0  0  0  0  0
  184.0440  178.9470  139.0390 C   0  0  0  0  0  2  0  0  0  0  0  0
  186.6910  178.7960  141.5330 N   0  0  1  0  0  0  0  0  0  0  0  0
  182.5520  177.7490  140.6240 N   0  0  0  0  0  0  0  0  0  0  0  0
  184.9520  179.3780  140.1870 C   0  0  1  0  0  3  0  0  0  0  0  0
  183.4780  177.9960  141.7330 C   0  0  0  0  0  2  0  0  0  0  0  0
  185.5560  179.0960  142.4220 C   0  0  0  0  0  2  0  0  0  0  0  0
  181.5410  178.8020  140.5670 C   0  0  0  0  0  2  0  0  0  0  0  0
  180.3340  178.4060  141.3980 C   0  0  0  0  0  2  0  0  0  0  0  0
  180.2480  179.2570  142.6210 C   0  0  0  0  0  0  0  0  0  0  0  0
  180.3330  178.6280  143.9680 C   0  0  0  0  0  1  0  0  0  0  0  0
  180.0870  180.4630  142.5220 O   0  0  0  0  0  0  0  0  0  0  0  0
  1  8  1  1  0  0  0
  2  3  1  0  0  0  0
  5  4  2  0  0  0  0
  5 18  1  0  0  0  0
  6 16  1  0  0  0  0
  6 18  2  0  0  0  0
  7  2  2  0  0  0  0
  8 13  2  0  0  0  0
  8  7  1  0  0  0  0
  9 13  1  0  0  0  0
 10  6  1  0  0  0  0
 11 10  2  0  0  0  0
 11  5  1  0  0  0  0
 12  3  2  0  0  0  0
 13 12  1  0  0  0  0
 14  9  2  0  0  0  0
 15  4  1  0  0  0  0
 17  4  1  1  0  0  0
 17  1  1  0  0  0  0
 17  9  1  0  0  0  0
 18 14  1  0  0  0  0
 19 24  1  0  0  0  0
 20 26  1  6  0  0  0
 20 27  1  0  0  0  0
 21 23  1  0  0  0  0
 22 19  1  0  0  0  0
 23  1  1  0  0  0  0
 23 27  1  1  0  0  0
 24 26  1  0  0  0  0
 25 22  1  6  0  0  0
 25 21  1  0  0  0  0
 25 20  1  0  0  0  0
 28 24  1  0  0  0  0
 28 29  1  0  0  0  0
 29 30  1  0  0  0  0
 30 31  1  0  0  0  0
 32 30  2  0  0  0  0
M  END
>  <MODEL>
8

>  <REMARK>
 VINA RESULT:      -7.7      3.343      7.986
  Name = 
  4 active torsions:
  status: ('A' for Active; 'I' for Inactive)
    1  A    between atoms: C_1  and  C_10
    2  A    between atoms: C_3  and  N_14
    3  A    between atoms: C_10  and  C_24
    4  A    between atoms: N_19  and  C_24
                            x       y       z     vdW  Elec       q    Type
                         _______ _______ _______ _____ _____    ______ ____

>  <TORSDO>
F 4

$$$$
=
 OpenBabel10262421383D

 32 37  0  0  1  0  0  0  0  0999 V2000
  188.3720  177.9260  144.0250 C   0  0  2  0  0  3  0  0  0  0  0  0
  189.0280  177.7480  147.8240 C   0  0  0  0  0  3  0  0  0  0  0  0
  187.6910  177.8380  148.2590 C   0  0  0  0  0  3  0  0  0  0  0  0
  186.3290  178.3030  142.4090 C   0  0  0  0  0  0  0  0  0  0  0  0
  184.9380  178.4670  142.3920 C   0  0  0  0  0  0  0  0  0  0  0  0
  182.8290  178.6620  143.2090 C   0  0  0  0  0  0  0  0  0  0  0  0
  189.3350  177.7660  146.4530 C   0  0  0  0  0  3  0  0  0  0  0  0
  188.2850  177.8570  145.5380 C   0  0  0  0  0  0  0  0  0  0  0  0
  186.1290  178.1250  144.8210 C   0  0  0  0  0  0  0  0  0  0  0  0
  182.6910  178.7880  141.9270 N   0  0  0  0  0  0  0  0  0  0  0  0
  183.9960  178.6830  141.2560 C   0  0  0  0  0  3  0  0  0  0  0  0
  186.6460  177.9540  147.3300 C   0  0  0  0  0  3  0  0  0  0  0  0
  186.9770  177.9630  145.9760 C   0  0  0  0  0  0  0  0  0  0  0  0
  184.7780  178.2950  144.7860 N   0  0  0  0  0  0  0  0  0  0  0  0
  187.2790  178.3270  140.9330 Cl  0  0  0  0  0  0  0  0  0  0  0  0
  181.6910  178.7240  144.1640 C   0  0  0  0  0  1  0  0  0  0  0  0
  186.9180  178.1230  143.6720 C   0  0  2  0  0  3  0  0  0  0  0  0
  184.2110  178.4580  143.5590 C   0  0  0  0  0  0  0  0  0  0  0  0
  190.8960  177.8070  139.8760 C   0  0  0  0  0  2  0  0  0  0  0  0
  191.0540  176.3120  142.3740 C   0  0  1  0  0  3  0  0  0  0  0  0
  188.7650  176.8140  142.0030 N   0  0  0  0  0  2  0  0  0  0  0  0
  190.1540  176.4760  139.9860 C   0  0  0  0  0  2  0  0  0  0  0  0
  188.9130  176.7040  143.4000 N   0  0  1  0  0  0  0  0  0  0  0  0
  192.1300  177.8200  140.6690 N   0  0  0  0  0  0  0  0  0  0  0  0
  189.8870  176.0920  141.4380 C   0  0  1  0  0  3  0  0  0  0  0  0
  191.8190  177.6150  142.0860 C   0  0  0  0  0  2  0  0  0  0  0  0
  190.3420  176.4970  143.6890 C   0  0  0  0  0  2  0  0  0  0  0  0
  193.0650  176.7960  140.2050 C   0  0  0  0  0  2  0  0  0  0  0  0
  193.2250  176.8890  138.6970 C   0  0  0  0  0  2  0  0  0  0  0  0
  193.5690  175.5510  138.1320 C   0  0  0  0  0  0  0  0  0  0  0  0
  192.5090  174.7250  137.4900 C   0  0  0  0  0  1  0  0  0  0  0  0
  194.7090  175.1230  138.2120 O   0  0  0  0  0  0  0  0  0  0  0  0
  1  8  1  1  0  0  0
  2  3  1  0  0  0  0
  5  4  2  0  0  0  0
  5 18  1  0  0  0  0
  6 18  2  0  0  0  0
  6 16  1  0  0  0  0
  7  2  2  0  0  0  0
  8 13  2  0  0  0  0
  8  7  1  0  0  0  0
  9 13  1  0  0  0  0
 10  6  1  0  0  0  0
 11 10  2  0  0  0  0
 11  5  1  0  0  0  0
 12  3  2  0  0  0  0
 13 12  1  0  0  0  0
 14  9  2  0  0  0  0
 15  4  1  0  0  0  0
 17  4  1  1  0  0  0
 17  1  1  0  0  0  0
 17  9  1  0  0  0  0
 18 14  1  0  0  0  0
 19 22  1  0  0  0  0
 19 24  1  0  0  0  0
 20 26  1  6  0  0  0
 20 27  1  0  0  0  0
 21 23  1  0  0  0  0
 23 27  1  6  0  0  0
 23  1  1  0  0  0  0
 24 26  1  0  0  0  0
 25 22  1  6  0  0  0
 25 21  1  0  0  0  0
 25 20  1  0  0  0  0
 28 24  1  0  0  0  0
 29 28  1  0  0  0  0
 30 32  2  0  0  0  0
 30 29  1  0  0  0  0
 31 30  1  0  0  0  0
M  END
>  <MODEL>
9

>  <REMARK>
 VINA RESULT:      -7.6      2.922      4.719
  Name = 
  4 active torsions:
  status: ('A' for Active; 'I' for Inactive)
    1  A    between atoms: C_1  and  C_10
    2  A    between atoms: C_3  and  N_14
    3  A    between atoms: C_10  and  C_24
    4  A    between atoms: N_19  and  C_24
                            x       y       z     vdW  Elec       q    Type
                         _______ _______ _______ _____ _____    ______ ____

>  <TORSDO>
F 4

$$$$
