=
 OpenBabel10262421153D

 32 36  0  0  1  0  0  0  0  0999 V2000
  189.3620  177.4570  142.1860 O   0  0  0  0  0  0  0  0  0  0  0  0
  187.7710  177.9500  143.8850 C   0  0  0  0  0  0  0  0  0  0  0  0
  190.4700  176.6700  141.7370 C   0  0  2  0  0  3  0  0  0  0  0  0
  189.0070  177.5530  143.5380 C   0  0  0  0  0  0  0  0  0  0  0  0
  187.3830  178.0210  145.2780 N   0  0  0  0  0  0  0  0  0  0  0  0
  182.9760  178.6250  142.6010 C   0  0  0  0  0  2  0  0  0  0  0  0
  186.8030  178.3730  142.8130 C   0  0  0  0  0  2  0  0  0  0  0  0
  183.6370  178.5770  145.0090 C   0  0  0  0  0  2  0  0  0  0  0  0
  185.1060  178.7250  144.6220 C   0  0  1  0  0  3  0  0  0  0  0  0
  190.0570  177.2770  144.5920 C   0  0  1  0  0  3  0  0  0  0  0  0
  185.9590  177.9700  145.6300 C   0  0  0  0  0  2  0  0  0  0  0  0
  189.4420  176.8670  145.9230 C   0  0  0  0  0  2  0  0  0  0  0  0
  191.0550  176.2350  144.1130 C   0  0  0  0  0  2  0  0  0  0  0  0
  185.3560  178.1390  143.2270 C   0  0  1  0  0  3  0  0  0  0  0  0
  188.4240  177.9230  146.3200 C   0  0  2  0  0  3  0  0  0  0  0  0
  191.6060  176.6500  142.7570 C   0  0  0  0  0  2  0  0  0  0  0  0
  182.7420  179.2480  143.9740 C   0  0  0  0  0  2  0  0  0  0  0  0
  184.4380  178.7920  142.1960 C   0  0  0  0  0  2  0  0  0  0  0  0
  187.8770  177.6070  147.7080 C   0  0  0  0  0  2  0  0  0  0  0  0
  188.7080  178.3040  148.7670 C   0  0  0  0  0  1  0  0  0  0  0  0
  190.9690  177.1640  140.3840 C   0  0  1  0  0  3  0  0  0  0  0  0
  192.4500  177.4820  140.4680 C   0  0  0  0  0  1  0  0  0  0  0  0
  190.7530  176.1950  139.3970 O   0  0  0  0  0  0  0  0  0  0  0  0
  189.6300  176.3160  137.2080 C   0  0  2  0  0  0  0  0  0  0  0  0
  188.8460  179.7310  137.2070 O   0  0  0  0  0  0  0  0  0  0  0  0
  191.0110  175.9020  136.7190 C   0  0  0  0  0  1  0  0  0  0  0  0
  189.3750  178.1000  138.9050 C   0  0  0  0  0  2  0  0  0  0  0  0
  189.2740  177.5410  136.5910 O   0  0  0  0  0  0  0  0  0  0  0  0
  189.5850  176.5940  138.7360 C   0  0  2  0  0  3  0  0  0  0  0  0
  189.1370  178.5480  137.5210 C   0  0  0  0  0  0  0  0  0  0  0  0
  188.6300  175.2300  136.8310 C   0  0  0  0  0  2  0  0  0  0  0  0
  187.3480  175.5550  137.2790 O   0  0  0  0  0  1  0  0  0  0  0  0
  1  4  1  0  0  0  0
  2  5  1  0  0  0  0
  3 21  1  6  0  0  0
  3  1  1  0  0  0  0
  3 16  1  0  0  0  0
  4  2  2  0  0  0  0
  4 10  1  0  0  0  0
  5 11  1  0  0  0  0
  5 15  1  0  0  0  0
  6 17  1  0  0  0  0
  7 14  1  0  0  0  0
  7  2  1  0  0  0  0
  9  8  1  1  0  0  0
  9 11  1  0  0  0  0
 10 13  1  6  0  0  0
 10 12  1  0  0  0  0
 12 15  1  0  0  0  0
 14 18  1  6  0  0  0
 14  9  1  0  0  0  0
 15 19  1  1  0  0  0
 16 13  1  0  0  0  0
 17  8  1  0  0  0  0
 18  6  1  0  0  0  0
 19 20  1  0  0  0  0
 21 22  1  1  0  0  0
 23 21  1  0  0  0  0
 24 26  1  6  0  0  0
 24 29  1  0  0  0  0
 25 30  2  0  0  0  0
 28 24  1  0  0  0  0
 28 30  1  0  0  0  0
 29 27  1  0  0  0  0
 29 23  1  1  0  0  0
 30 27  1  0  0  0  0
 31 24  1  0  0  0  0
 31 32  1  0  0  0  0
M  END
>  <MODEL>
1

>  <REMARK>
 VINA RESULT:     -10.2      0.000      0.000
  Name = 
  5 active torsions:
  status: ('A' for Active; 'I' for Inactive)
    1  A    between atoms: C_3  and  C_22
    2  A    between atoms: C_4  and  C_24
    3  A    between atoms: C_13  and  C_29
    4  A    between atoms: O_16  and  C_20
    5  A    between atoms: O_16  and  C_24
                            x       y       z     vdW  Elec       q    Type
                         _______ _______ _______ _____ _____    ______ ____

>  <TORSDO>
F 5

$$$$
=
 OpenBabel10262421153D

 32 36  0  0  1  0  0  0  0  0999 V2000
  186.8660  178.2110  143.3030 O   0  0  0  0  0  0  0  0  0  0  0  0
  186.6110  178.4460  140.9490 C   0  0  0  0  0  0  0  0  0  0  0  0
  186.2980  177.8490  144.5660 C   0  0  2  0  0  3  0  0  0  0  0  0
  186.0790  178.5060  142.1810 C   0  0  0  0  0  0  0  0  0  0  0  0
  185.7980  178.7170  139.7810 N   0  0  0  0  0  0  0  0  0  0  0  0
  190.2420  176.7710  137.9320 C   0  0  0  0  0  2  0  0  0  0  0  0
  188.0770  178.1470  140.7900 C   0  0  0  0  0  2  0  0  0  0  0  0
  188.1020  177.6250  136.9680 C   0  0  0  0  0  2  0  0  0  0  0  0
  187.7300  178.2450  138.3120 C   0  0  1  0  0  3  0  0  0  0  0  0
  184.6520  178.9620  142.3880 C   0  0  1  0  0  3  0  0  0  0  0  0
  186.2190  178.1900  138.4770 C   0  0  0  0  0  2  0  0  0  0  0  0
  183.7810  178.7030  141.1670 C   0  0  0  0  0  2  0  0  0  0  0  0
  184.0460  178.3250  143.6290 C   0  0  0  0  0  2  0  0  0  0  0  0
  188.3810  177.4670  139.4620 C   0  0  1  0  0  3  0  0  0  0  0  0
  184.4650  179.3230  139.9590 C   0  0  2  0  0  3  0  0  0  0  0  0
  184.9690  178.5560  144.8170 C   0  0  0  0  0  2  0  0  0  0  0  0
  189.6160  177.5820  136.8010 C   0  0  0  0  0  2  0  0  0  0  0  0
  189.8950  177.4000  139.2770 C   0  0  0  0  0  2  0  0  0  0  0  0
  183.5600  179.1880  138.7380 C   0  0  0  0  0  2  0  0  0  0  0  0
  182.4940  180.2660  138.7580 C   0  0  0  0  0  1  0  0  0  0  0  0
  187.2800  178.1300  145.6980 C   0  0  1  0  0  3  0  0  0  0  0  0
  186.5220  178.3310  146.9970 C   0  0  0  0  0  1  0  0  0  0  0  0
  188.1820  177.0680  145.8410 O   0  0  0  0  0  0  0  0  0  0  0  0
  190.3810  177.4890  144.8140 C   0  0  2  0  0  0  0  0  0  0  0  0
  192.4090  176.2450  147.3850 O   0  0  0  0  0  0  0  0  0  0  0  0
  189.8480  176.5010  143.7850 C   0  0  0  0  0  1  0  0  0  0  0  0
  190.1370  177.0430  147.2360 C   0  0  0  0  0  2  0  0  0  0  0  0
  191.5910  176.9840  145.3500 O   0  0  0  0  0  0  0  0  0  0  0  0
  189.4320  177.6680  146.0310 C   0  0  2  0  0  3  0  0  0  0  0  0
  191.4700  176.7210  146.6960 C   0  0  0  0  0  0  0  0  0  0  0  0
  190.6300  178.8260  144.1260 C   0  0  0  0  0  2  0  0  0  0  0  0
  191.9870  179.1560  144.1560 O   0  0  0  0  0  1  0  0  0  0  0  0
  1  3  1  0  0  0  0
  2  4  2  0  0  0  0
  3 16  1  0  0  0  0
  3 21  1  1  0  0  0
  4 10  1  0  0  0  0
  4  1  1  0  0  0  0
  5 15  1  0  0  0  0
  5  2  1  0  0  0  0
  6 18  1  0  0  0  0
  7  2  1  0  0  0  0
  9  8  1  6  0  0  0
  9 11  1  0  0  0  0
  9 14  1  0  0  0  0
 10 12  1  6  0  0  0
 10 13  1  0  0  0  0
 11  5  1  0  0  0  0
 13 16  1  0  0  0  0
 14 18  1  6  0  0  0
 14  7  1  0  0  0  0
 15 19  1  6  0  0  0
 15 12  1  0  0  0  0
 17  8  1  0  0  0  0
 17  6  1  0  0  0  0
 19 20  1  0  0  0  0
 21 23  1  0  0  0  0
 21 22  1  1  0  0  0
 24 26  1  6  0  0  0
 24 28  1  0  0  0  0
 24 29  1  0  0  0  0
 28 30  1  0  0  0  0
 29 23  1  6  0  0  0
 29 27  1  0  0  0  0
 30 27  1  0  0  0  0
 30 25  2  0  0  0  0
 31 32  1  0  0  0  0
 31 24  1  0  0  0  0
M  END
>  <MODEL>
2

>  <REMARK>
 VINA RESULT:     -10.2      2.922      7.682
  Name = 
  5 active torsions:
  status: ('A' for Active; 'I' for Inactive)
    1  A    between atoms: C_3  and  C_22
    2  A    between atoms: C_4  and  C_24
    3  A    between atoms: C_13  and  C_29
    4  A    between atoms: O_16  and  C_20
    5  A    between atoms: O_16  and  C_24
                            x       y       z     vdW  Elec       q    Type
                         _______ _______ _______ _____ _____    ______ ____

>  <TORSDO>
F 5

$$$$
=
 OpenBabel10262421153D

 32 36  0  0  1  0  0  0  0  0999 V2000
  189.2490  177.4800  142.0850 O   0  0  0  0  0  0  0  0  0  0  0  0
  187.6060  177.9940  143.7280 C   0  0  0  0  0  0  0  0  0  0  0  0
  190.3780  176.6980  141.6860 C   0  0  2  0  0  3  0  0  0  0  0  0
  188.8560  177.6060  143.4250 C   0  0  0  0  0  0  0  0  0  0  0  0
  187.1800  178.0950  145.1090 N   0  0  0  0  0  0  0  0  0  0  0  0
  182.8380  178.5670  142.3030 C   0  0  0  0  0  2  0  0  0  0  0  0
  186.6610  178.3750  142.6210 C   0  0  0  0  0  2  0  0  0  0  0  0
  183.4360  178.5900  144.7280 C   0  0  0  0  0  2  0  0  0  0  0  0
  184.9120  178.7490  144.3750 C   0  0  1  0  0  3  0  0  0  0  0  0
  189.8810  177.3720  144.5130 C   0  0  1  0  0  3  0  0  0  0  0  0
  185.7480  178.0330  145.4250 C   0  0  0  0  0  2  0  0  0  0  0  0
  189.2380  176.9870  145.8370 C   0  0  0  0  0  2  0  0  0  0  0  0
  190.9070  176.3330  144.0860 C   0  0  0  0  0  2  0  0  0  0  0  0
  185.2070  178.1310  143.0030 C   0  0  1  0  0  3  0  0  0  0  0  0
  188.1950  178.0390  146.1790 C   0  0  2  0  0  3  0  0  0  0  0  0
  191.4870  176.7210  142.7350 C   0  0  0  0  0  2  0  0  0  0  0  0
  182.5590  179.2210  143.6520 C   0  0  0  0  0  2  0  0  0  0  0  0
  184.3070  178.7440  141.9320 C   0  0  0  0  0  2  0  0  0  0  0  0
  187.6160  177.7500  147.5610 C   0  0  0  0  0  2  0  0  0  0  0  0
  188.6110  178.1420  148.6350 C   0  0  0  0  0  1  0  0  0  0  0  0
  190.9070  177.1650  140.3340 C   0  0  1  0  0  3  0  0  0  0  0  0
  192.4000  177.4140  140.4240 C   0  0  0  0  0  1  0  0  0  0  0  0
  190.6500  176.2030  139.3480 O   0  0  0  0  0  0  0  0  0  0  0  0
  189.5290  177.1370  137.3640 C   0  0  2  0  0  0  0  0  0  0  0  0
  191.3500  175.4540  134.8890 O   0  0  0  0  0  0  0  0  0  0  0  0
  188.3290  176.4250  137.9750 C   0  0  0  0  0  1  0  0  0  0  0  0
  191.7240  176.0040  137.2090 C   0  0  0  0  0  2  0  0  0  0  0  0
  189.7400  176.6400  136.0540 O   0  0  0  0  0  0  0  0  0  0  0  0
  190.8530  176.8610  138.1290 C   0  0  2  0  0  3  0  0  0  0  0  0
  190.9530  175.9960  135.9530 C   0  0  0  0  0  0  0  0  0  0  0  0
  189.2390  178.6320  137.3160 C   0  0  0  0  0  2  0  0  0  0  0  0
  188.6810  179.0700  138.5190 O   0  0  0  0  0  1  0  0  0  0  0  0
  1  4  1  0  0  0  0
  2  5  1  0  0  0  0
  3 21  1  6  0  0  0
  3  1  1  0  0  0  0
  3 16  1  0  0  0  0
  4  2  2  0  0  0  0
  4 10  1  0  0  0  0
  5 11  1  0  0  0  0
  5 15  1  0  0  0  0
  6 17  1  0  0  0  0
  7 14  1  0  0  0  0
  7  2  1  0  0  0  0
  9  8  1  1  0  0  0
  9 11  1  0  0  0  0
 10 13  1  6  0  0  0
 10 12  1  0  0  0  0
 12 15  1  0  0  0  0
 14 18  1  6  0  0  0
 14  9  1  0  0  0  0
 15 19  1  1  0  0  0
 16 13  1  0  0  0  0
 17  8  1  0  0  0  0
 18  6  1  0  0  0  0
 19 20  1  0  0  0  0
 21 22  1  1  0  0  0
 23 21  1  0  0  0  0
 24 26  1  1  0  0  0
 24 29  1  0  0  0  0
 25 30  2  0  0  0  0
 27 29  1  0  0  0  0
 28 24  1  0  0  0  0
 29 23  1  1  0  0  0
 30 28  1  0  0  0  0
 30 27  1  0  0  0  0
 31 24  1  0  0  0  0
 31 32  1  0  0  0  0
M  END
>  <MODEL>
3

>  <REMARK>
 VINA RESULT:     -10.1      0.845      1.744
  Name = 
  5 active torsions:
  status: ('A' for Active; 'I' for Inactive)
    1  A    between atoms: C_3  and  C_22
    2  A    between atoms: C_4  and  C_24
    3  A    between atoms: C_13  and  C_29
    4  A    between atoms: O_16  and  C_20
    5  A    between atoms: O_16  and  C_24
                            x       y       z     vdW  Elec       q    Type
                         _______ _______ _______ _____ _____    ______ ____

>  <TORSDO>
F 5

$$$$
=
 OpenBabel10262421153D

 32 36  0  0  1  0  0  0  0  0999 V2000
  185.2320  178.1760  143.3030 O   0  0  0  0  0  0  0  0  0  0  0  0
  187.4250  177.6450  144.0570 C   0  0  0  0  0  0  0  0  0  0  0  0
  184.0080  178.8910  143.5010 C   0  0  2  0  0  3  0  0  0  0  0  0
  186.1470  177.9480  144.3400 C   0  0  0  0  0  0  0  0  0  0  0  0
  188.3870  177.4410  145.1210 N   0  0  0  0  0  0  0  0  0  0  0  0
  191.1970  177.6520  140.7620 C   0  0  0  0  0  2  0  0  0  0  0  0
  187.8430  177.4660  142.6230 C   0  0  0  0  0  2  0  0  0  0  0  0
  191.6560  177.3250  143.1950 C   0  0  0  0  0  2  0  0  0  0  0  0
  190.1730  177.0720  143.4530 C   0  0  1  0  0  3  0  0  0  0  0  0
  185.6540  177.9760  145.7700 C   0  0  1  0  0  3  0  0  0  0  0  0
  189.8180  177.5980  144.8350 C   0  0  0  0  0  2  0  0  0  0  0  0
  186.7720  178.2790  146.7580 C   0  0  0  0  0  2  0  0  0  0  0  0
  184.5050  178.9580  145.9350 C   0  0  0  0  0  2  0  0  0  0  0  0
  189.3140  177.7990  142.4110 C   0  0  1  0  0  3  0  0  0  0  0  0
  187.9030  177.2950  146.5080 C   0  0  2  0  0  3  0  0  0  0  0  0
  183.4330  178.6610  144.8970 C   0  0  0  0  0  2  0  0  0  0  0  0
  192.0340  176.8900  141.7840 C   0  0  0  0  0  2  0  0  0  0  0  0
  189.7150  177.3820  140.9980 C   0  0  0  0  0  2  0  0  0  0  0  0
  188.9890  177.4910  147.5610 C   0  0  0  0  0  2  0  0  0  0  0  0
  188.4110  178.1720  148.7860 C   0  0  0  0  0  1  0  0  0  0  0  0
  182.9880  178.5200  142.4310 C   0  0  1  0  0  3  0  0  0  0  0  0
  181.6030  178.9590  142.8680 C   0  0  0  0  0  1  0  0  0  0  0  0
  183.3110  179.1310  141.2130 O   0  0  0  0  0  0  0  0  0  0  0  0
  183.9810  178.5420  138.9170 C   0  0  2  0  0  0  0  0  0  0  0  0
  181.8750  175.7830  138.4450 O   0  0  0  0  0  0  0  0  0  0  0  0
  183.4170  179.9270  138.6280 C   0  0  0  0  0  1  0  0  0  0  0  0
  182.7500  176.9550  140.3640 C   0  0  0  0  0  2  0  0  0  0  0  0
  183.2850  177.5910  138.1310 O   0  0  0  0  0  0  0  0  0  0  0  0
  183.7690  178.0950  140.3900 C   0  0  2  0  0  3  0  0  0  0  0  0
  182.5860  176.7050  138.9200 C   0  0  0  0  0  0  0  0  0  0  0  0
  185.4630  178.5320  138.5610 C   0  0  0  0  0  2  0  0  0  0  0  0
  186.2500  178.7010  139.7030 O   0  0  0  0  0  1  0  0  0  0  0  0
  1  3  1  0  0  0  0
  1  4  1  0  0  0  0
  2  4  2  0  0  0  0
  2  5  1  0  0  0  0
  3 21  1  6  0  0  0
  3 16  1  0  0  0  0
  4 10  1  0  0  0  0
  5 15  1  0  0  0  0
  6 18  1  0  0  0  0
  6 17  1  0  0  0  0
  7  2  1  0  0  0  0
  9  8  1  6  0  0  0
  9 11  1  0  0  0  0
 10 13  1  6  0  0  0
 10 12  1  0  0  0  0
 11  5  1  0  0  0  0
 14 18  1  6  0  0  0
 14  7  1  0  0  0  0
 14  9  1  0  0  0  0
 15 12  1  0  0  0  0
 15 19  1  1  0  0  0
 16 13  1  0  0  0  0
 17  8  1  0  0  0  0
 19 20  1  0  0  0  0
 21 22  1  1  0  0  0
 23 21  1  0  0  0  0
 24 26  1  6  0  0  0
 24 29  1  0  0  0  0
 25 30  2  0  0  0  0
 27 29  1  0  0  0  0
 28 24  1  0  0  0  0
 28 30  1  0  0  0  0
 29 23  1  1  0  0  0
 30 27  1  0  0  0  0
 31 24  1  0  0  0  0
 31 32  1  0  0  0  0
M  END
>  <MODEL>
4

>  <REMARK>
 VINA RESULT:      -9.4      2.609      6.209
  Name = 
  5 active torsions:
  status: ('A' for Active; 'I' for Inactive)
    1  A    between atoms: C_3  and  C_22
    2  A    between atoms: C_4  and  C_24
    3  A    between atoms: C_13  and  C_29
    4  A    between atoms: O_16  and  C_20
    5  A    between atoms: O_16  and  C_24
                            x       y       z     vdW  Elec       q    Type
                         _______ _______ _______ _____ _____    ______ ____

>  <TORSDO>
F 5

$$$$
=
 OpenBabel10262421153D

 32 36  0  0  1  0  0  0  0  0999 V2000
  188.1360  177.8070  141.7540 O   0  0  0  0  0  0  0  0  0  0  0  0
  186.9730  177.9250  143.8260 C   0  0  0  0  0  0  0  0  0  0  0  0
  188.3020  178.2810  140.4140 C   0  0  2  0  0  3  0  0  0  0  0  0
  186.9590  178.0160  142.4860 C   0  0  0  0  0  0  0  0  0  0  0  0
  185.7700  178.1720  144.5940 N   0  0  0  0  0  0  0  0  0  0  0  0
  189.6000  177.9510  148.0910 C   0  0  0  0  0  2  0  0  0  0  0  0
  188.2380  177.5120  144.5260 C   0  0  0  0  0  2  0  0  0  0  0  0
  187.1270  178.2930  148.1380 C   0  0  0  0  0  2  0  0  0  0  0  0
  187.0200  177.8060  146.6950 C   0  0  1  0  0  3  0  0  0  0  0  0
  185.6680  178.2690  141.7390 C   0  0  1  0  0  3  0  0  0  0  0  0
  185.8860  178.5510  146.0080 C   0  0  0  0  0  2  0  0  0  0  0  0
  184.6480  179.0130  142.5880 C   0  0  0  0  0  2  0  0  0  0  0  0
  185.9250  179.0050  140.4330 C   0  0  0  0  0  2  0  0  0  0  0  0
  188.3240  178.0820  145.9360 C   0  0  1  0  0  3  0  0  0  0  0  0
  184.4740  178.2520  143.8930 C   0  0  2  0  0  3  0  0  0  0  0  0
  186.9880  178.2640  139.6360 C   0  0  0  0  0  2  0  0  0  0  0  0
  188.3090  177.6320  148.8370 C   0  0  0  0  0  2  0  0  0  0  0  0
  189.5100  177.4440  146.6550 C   0  0  0  0  0  2  0  0  0  0  0  0
  183.3680  178.9030  144.7170 C   0  0  0  0  0  2  0  0  0  0  0  0
  182.0960  179.0010  143.8980 C   0  0  0  0  0  1  0  0  0  0  0  0
  189.3700  177.4730  139.6850 C   0  0  1  0  0  3  0  0  0  0  0  0
  190.1490  176.6340  140.6800 C   0  0  0  0  0  1  0  0  0  0  0  0
  188.7850  176.6390  138.7240 O   0  0  0  0  0  0  0  0  0  0  0  0
  188.2010  176.9020  136.3460 C   0  0  2  0  0  0  0  0  0  0  0  0
  191.0510  175.4280  134.9390 O   0  0  0  0  0  0  0  0  0  0  0  0
  187.0520  175.9880  136.7500 C   0  0  0  0  0  1  0  0  0  0  0  0
  190.5160  176.4150  137.0750 C   0  0  0  0  0  2  0  0  0  0  0  0
  188.9320  176.2850  135.3010 O   0  0  0  0  0  0  0  0  0  0  0  0
  189.2280  177.1280  137.4900 C   0  0  2  0  0  3  0  0  0  0  0  0
  190.2200  175.9980  135.6920 C   0  0  0  0  0  0  0  0  0  0  0  0
  187.6270  178.2310  135.8700 C   0  0  0  0  0  2  0  0  0  0  0  0
  187.7950  179.2220  136.8400 O   0  0  0  0  0  1  0  0  0  0  0  0
  1  4  1  0  0  0  0
  2  7  1  0  0  0  0
  2  5  1  0  0  0  0
  3 21  1  6  0  0  0
  3  1  1  0  0  0  0
  4  2  2  0  0  0  0
  5 11  1  0  0  0  0
  6 17  1  0  0  0  0
  8 17  1  0  0  0  0
  9 11  1  6  0  0  0
  9  8  1  0  0  0  0
 10 13  1  6  0  0  0
 10  4  1  0  0  0  0
 10 12  1  0  0  0  0
 12 15  1  0  0  0  0
 14  7  1  6  0  0  0
 14 18  1  0  0  0  0
 14  9  1  0  0  0  0
 15  5  1  0  0  0  0
 15 19  1  1  0  0  0
 16  3  1  0  0  0  0
 16 13  1  0  0  0  0
 18  6  1  0  0  0  0
 20 19  1  0  0  0  0
 21 22  1  1  0  0  0
 23 21  1  0  0  0  0
 24 26  1  1  0  0  0
 24 29  1  0  0  0  0
 25 30  2  0  0  0  0
 27 29  1  0  0  0  0
 28 30  1  0  0  0  0
 28 24  1  0  0  0  0
 29 23  1  1  0  0  0
 30 27  1  0  0  0  0
 31 24  1  0  0  0  0
 31 32  1  0  0  0  0
M  END
>  <MODEL>
5

>  <REMARK>
 VINA RESULT:      -9.0      1.465      4.440
  Name = 
  5 active torsions:
  status: ('A' for Active; 'I' for Inactive)
    1  A    between atoms: C_3  and  C_22
    2  A    between atoms: C_4  and  C_24
    3  A    between atoms: C_13  and  C_29
    4  A    between atoms: O_16  and  C_20
    5  A    between atoms: O_16  and  C_24
                            x       y       z     vdW  Elec       q    Type
                         _______ _______ _______ _____ _____    ______ ____

>  <TORSDO>
F 5

$$$$
=
 OpenBabel10262421153D

 32 36  0  0  1  0  0  0  0  0999 V2000
  185.2660  178.1510  143.0520 O   0  0  0  0  0  0  0  0  0  0  0  0
  187.4290  177.6120  143.8830 C   0  0  0  0  0  0  0  0  0  0  0  0
  184.0460  178.8840  143.1980 C   0  0  2  0  0  3  0  0  0  0  0  0
  186.1470  177.9350  144.1200 C   0  0  0  0  0  0  0  0  0  0  0  0
  188.3560  177.4190  144.9790 N   0  0  0  0  0  0  0  0  0  0  0  0
  191.2980  177.5050  140.7030 C   0  0  0  0  0  2  0  0  0  0  0  0
  187.8870  177.3970  142.4660 C   0  0  0  0  0  2  0  0  0  0  0  0
  191.6800  177.2260  143.1550 C   0  0  0  0  0  2  0  0  0  0  0  0
  190.1870  176.9950  143.3730 C   0  0  1  0  0  3  0  0  0  0  0  0
  185.6120  177.9990  145.5340 C   0  0  1  0  0  3  0  0  0  0  0  0
  189.7970  177.5540  144.7330 C   0  0  0  0  0  2  0  0  0  0  0  0
  186.7030  178.3100  146.5490 C   0  0  0  0  0  2  0  0  0  0  0  0
  184.4700  178.9970  145.6440 C   0  0  0  0  0  2  0  0  0  0  0  0
  189.3680  177.7090  142.2910 C   0  0  1  0  0  3  0  0  0  0  0  0
  187.8300  177.3080  146.3540 C   0  0  2  0  0  3  0  0  0  0  0  0
  183.4260  178.6900  144.5810 C   0  0  0  0  0  2  0  0  0  0  0  0
  192.0950  176.7560  141.7660 C   0  0  0  0  0  2  0  0  0  0  0  0
  189.8060  177.2580  140.9000 C   0  0  0  0  0  2  0  0  0  0  0  0
  188.8860  177.5140  147.4350 C   0  0  0  0  0  2  0  0  0  0  0  0
  188.2860  178.2510  148.6160 C   0  0  0  0  0  1  0  0  0  0  0  0
  183.0530  178.5020  142.1050 C   0  0  1  0  0  3  0  0  0  0  0  0
  181.6380  178.7690  142.5810 C   0  0  0  0  0  1  0  0  0  0  0  0
  183.3020  179.2350  140.9380 O   0  0  0  0  0  0  0  0  0  0  0  0
  183.2470  178.0430  138.7830 C   0  0  2  0  0  0  0  0  0  0  0  0
  181.1130  180.2070  137.0400 O   0  0  0  0  0  0  0  0  0  0  0  0
  184.7330  178.3750  138.8080 C   0  0  0  0  0  1  0  0  0  0  0  0
  181.5610  179.7590  139.3690 C   0  0  0  0  0  2  0  0  0  0  0  0
  182.6740  178.5960  137.6120 O   0  0  0  0  0  0  0  0  0  0  0  0
  182.4640  178.6770  139.9660 C   0  0  2  0  0  3  0  0  0  0  0  0
  181.7400  179.5600  137.9190 C   0  0  0  0  0  0  0  0  0  0  0  0
  183.0830  176.5280  138.7820 C   0  0  0  0  0  2  0  0  0  0  0  0
  182.2610  176.1160  139.8330 O   0  0  0  0  0  1  0  0  0  0  0  0
  1  3  1  0  0  0  0
  1  4  1  0  0  0  0
  2  4  2  0  0  0  0
  2  5  1  0  0  0  0
  3 21  1  6  0  0  0
  3 16  1  0  0  0  0
  4 10  1  0  0  0  0
  5 15  1  0  0  0  0
  6 18  1  0  0  0  0
  6 17  1  0  0  0  0
  7  2  1  0  0  0  0
  9  8  1  6  0  0  0
  9 11  1  0  0  0  0
 10 13  1  6  0  0  0
 10 12  1  0  0  0  0
 11  5  1  0  0  0  0
 14 18  1  6  0  0  0
 14  7  1  0  0  0  0
 14  9  1  0  0  0  0
 15 12  1  0  0  0  0
 15 19  1  1  0  0  0
 16 13  1  0  0  0  0
 17  8  1  0  0  0  0
 19 20  1  0  0  0  0
 21 22  1  1  0  0  0
 23 21  1  0  0  0  0
 24 26  1  1  0  0  0
 24 29  1  0  0  0  0
 25 30  2  0  0  0  0
 27 29  1  0  0  0  0
 28 30  1  0  0  0  0
 28 24  1  0  0  0  0
 29 23  1  1  0  0  0
 30 27  1  0  0  0  0
 31 24  1  0  0  0  0
 31 32  1  0  0  0  0
M  END
>  <MODEL>
6

>  <REMARK>
 VINA RESULT:      -9.0      3.028      6.333
  Name = 
  5 active torsions:
  status: ('A' for Active; 'I' for Inactive)
    1  A    between atoms: C_3  and  C_22
    2  A    between atoms: C_4  and  C_24
    3  A    between atoms: C_13  and  C_29
    4  A    between atoms: O_16  and  C_20
    5  A    between atoms: O_16  and  C_24
                            x       y       z     vdW  Elec       q    Type
                         _______ _______ _______ _____ _____    ______ ____

>  <TORSDO>
F 5

$$$$
=
 OpenBabel10262421153D

 32 36  0  0  1  0  0  0  0  0999 V2000
  184.7780  178.1590  142.6540 O   0  0  0  0  0  0  0  0  0  0  0  0
  186.7690  177.8610  143.9210 C   0  0  0  0  0  0  0  0  0  0  0  0
  183.5320  178.8400  142.4730 C   0  0  2  0  0  3  0  0  0  0  0  0
  185.4570  178.1460  143.8800 C   0  0  0  0  0  0  0  0  0  0  0  0
  187.4880  177.8770  145.1790 N   0  0  0  0  0  0  0  0  0  0  0  0
  191.1490  177.5030  141.5180 C   0  0  0  0  0  2  0  0  0  0  0  0
  187.4810  177.4690  142.6550 C   0  0  0  0  0  2  0  0  0  0  0  0
  191.0900  177.6000  144.0120 C   0  0  0  0  0  2  0  0  0  0  0  0
  189.5890  177.3240  143.9990 C   0  0  1  0  0  3  0  0  0  0  0  0
  184.6740  178.3840  145.1530 C   0  0  1  0  0  3  0  0  0  0  0  0
  188.9450  178.0520  145.1700 C   0  0  0  0  0  2  0  0  0  0  0  0
  185.5560  178.8960  146.2830 C   0  0  0  0  0  2  0  0  0  0  0  0
  183.5050  179.3260  144.9100 C   0  0  0  0  0  2  0  0  0  0  0  0
  188.9600  177.8300  142.6960 C   0  0  1  0  0  3  0  0  0  0  0  0
  186.7250  177.9380  146.4410 C   0  0  2  0  0  3  0  0  0  0  0  0
  182.6790  178.8140  143.7390 C   0  0  0  0  0  2  0  0  0  0  0  0
  191.7610  176.9570  142.8040 C   0  0  0  0  0  2  0  0  0  0  0  0
  189.6530  177.2080  141.4860 C   0  0  0  0  0  2  0  0  0  0  0  0
  187.5640  178.3530  147.6460 C   0  0  0  0  0  2  0  0  0  0  0  0
  187.9310  177.1340  148.4700 C   0  0  0  0  0  1  0  0  0  0  0  0
  182.7630  178.2530  141.2940 C   0  0  1  0  0  3  0  0  0  0  0  0
  182.1970  179.3720  140.4420 C   0  0  0  0  0  1  0  0  0  0  0  0
  183.6010  177.4470  140.5140 O   0  0  0  0  0  0  0  0  0  0  0  0
  183.6130  177.3440  138.0530 C   0  0  2  0  0  0  0  0  0  0  0  0
  186.8630  178.5230  137.4920 O   0  0  0  0  0  0  0  0  0  0  0  0
  183.4320  175.8570  138.3300 C   0  0  0  0  0  1  0  0  0  0  0  0
  185.2840  178.6670  139.3110 C   0  0  0  0  0  2  0  0  0  0  0  0
  184.7850  177.5260  137.2800 O   0  0  0  0  0  0  0  0  0  0  0  0
  183.8350  178.1790  139.3440 C   0  0  2  0  0  3  0  0  0  0  0  0
  185.7310  178.2530  137.9690 C   0  0  0  0  0  0  0  0  0  0  0  0
  182.3970  177.8510  137.2880 C   0  0  0  0  0  2  0  0  0  0  0  0
  181.3900  176.8840  137.2540 O   0  0  0  0  0  1  0  0  0  0  0  0
  1  4  1  0  0  0  0
  2  5  1  0  0  0  0
  3 21  1  6  0  0  0
  3  1  1  0  0  0  0
  3 16  1  0  0  0  0
  4  2  2  0  0  0  0
  4 10  1  0  0  0  0
  5 15  1  0  0  0  0
  6 17  1  0  0  0  0
  7 14  1  0  0  0  0
  7  2  1  0  0  0  0
  9  8  1  6  0  0  0
  9 11  1  0  0  0  0
 10 13  1  6  0  0  0
 10 12  1  0  0  0  0
 11  5  1  0  0  0  0
 12 15  1  0  0  0  0
 14 18  1  6  0  0  0
 14  9  1  0  0  0  0
 15 19  1  1  0  0  0
 16 13  1  0  0  0  0
 17  8  1  0  0  0  0
 18  6  1  0  0  0  0
 19 20  1  0  0  0  0
 21 22  1  6  0  0  0
 23 21  1  0  0  0  0
 24 26  1  1  0  0  0
 24 29  1  0  0  0  0
 25 30  2  0  0  0  0
 27 29  1  0  0  0  0
 28 30  1  0  0  0  0
 28 24  1  0  0  0  0
 29 23  1  1  0  0  0
 30 27  1  0  0  0  0
 31 24  1  0  0  0  0
 32 31  1  0  0  0  0
M  END
>  <MODEL>
7

>  <REMARK>
 VINA RESULT:      -8.9      2.680      5.844
  Name = 
  5 active torsions:
  status: ('A' for Active; 'I' for Inactive)
    1  A    between atoms: C_3  and  C_22
    2  A    between atoms: C_4  and  C_24
    3  A    between atoms: C_13  and  C_29
    4  A    between atoms: O_16  and  C_20
    5  A    between atoms: O_16  and  C_24
                            x       y       z     vdW  Elec       q    Type
                         _______ _______ _______ _____ _____    ______ ____

>  <TORSDO>
F 5

$$$$
=
 OpenBabel10262421153D

 32 36  0  0  1  0  0  0  0  0999 V2000
  185.4060  178.4240  142.9220 O   0  0  0  0  0  0  0  0  0  0  0  0
  187.4290  177.6420  143.9010 C   0  0  0  0  0  0  0  0  0  0  0  0
  184.2280  179.2310  143.0240 C   0  0  2  0  0  3  0  0  0  0  0  0
  186.1530  178.0380  144.0440 C   0  0  0  0  0  0  0  0  0  0  0  0
  188.2200  177.2730  145.0570 N   0  0  0  0  0  0  0  0  0  0  0  0
  191.5960  177.5490  141.1240 C   0  0  0  0  0  2  0  0  0  0  0  0
  188.0190  177.5320  142.5220 C   0  0  0  0  0  2  0  0  0  0  0  0
  191.6970  177.0030  143.5590 C   0  0  0  0  0  2  0  0  0  0  0  0
  190.1780  176.8670  143.6040 C   0  0  1  0  0  3  0  0  0  0  0  0
  185.4770  178.0050  145.3970 C   0  0  1  0  0  3  0  0  0  0  0  0
  189.6840  177.3200  144.9700 C   0  0  0  0  0  2  0  0  0  0  0  0
  186.4730  178.1310  146.5410 C   0  0  0  0  0  2  0  0  0  0  0  0
  184.3980  179.0720  145.4980 C   0  0  0  0  0  2  0  0  0  0  0  0
  189.5270  177.7440  142.5280 C   0  0  1  0  0  3  0  0  0  0  0  0
  187.5450  177.0700  146.3540 C   0  0  2  0  0  3  0  0  0  0  0  0
  183.4550  178.9510  144.3110 C   0  0  0  0  0  2  0  0  0  0  0  0
  192.2250  176.6400  142.1760 C   0  0  0  0  0  2  0  0  0  0  0  0
  190.0780  177.3990  141.1460 C   0  0  0  0  0  2  0  0  0  0  0  0
  188.4920  177.0870  147.5490 C   0  0  0  0  0  2  0  0  0  0  0  0
  188.1940  178.2830  148.4330 C   0  0  0  0  0  1  0  0  0  0  0  0
  183.3340  179.0350  141.8050 C   0  0  1  0  0  3  0  0  0  0  0  0
  184.1730  178.6110  140.6150 C   0  0  0  0  0  1  0  0  0  0  0  0
  182.3590  178.0630  142.0620 O   0  0  0  0  0  0  0  0  0  0  0  0
  179.9680  178.6400  141.9350 C   0  0  2  0  0  0  0  0  0  0  0  0
  178.9400  176.1350  139.7120 O   0  0  0  0  0  0  0  0  0  0  0  0
  180.0290  178.2960  143.4180 C   0  0  0  0  0  1  0  0  0  0  0  0
  181.0480  177.1770  140.2560 C   0  0  0  0  0  2  0  0  0  0  0  0
  179.0070  177.8080  141.3100 O   0  0  0  0  0  0  0  0  0  0  0  0
  181.3040  178.3590  141.1920 C   0  0  2  0  0  3  0  0  0  0  0  0
  179.5920  176.9790  140.3790 C   0  0  0  0  0  0  0  0  0  0  0  0
  179.5690  180.1030  141.7870 C   0  0  0  0  0  2  0  0  0  0  0  0
  180.0700  180.8650  142.8450 O   0  0  0  0  0  1  0  0  0  0  0  0
  1  3  1  0  0  0  0
  1  4  1  0  0  0  0
  2  4  2  0  0  0  0
  2  5  1  0  0  0  0
  3 21  1  6  0  0  0
  3 16  1  0  0  0  0
  4 10  1  0  0  0  0
  5 15  1  0  0  0  0
  6 18  1  0  0  0  0
  6 17  1  0  0  0  0
  7 14  1  0  0  0  0
  7  2  1  0  0  0  0
  9  8  1  1  0  0  0
  9 11  1  0  0  0  0
 10 13  1  6  0  0  0
 10 12  1  0  0  0  0
 11  5  1  0  0  0  0
 14 18  1  6  0  0  0
 14  9  1  0  0  0  0
 15 12  1  0  0  0  0
 15 19  1  1  0  0  0
 16 13  1  0  0  0  0
 17  8  1  0  0  0  0
 19 20  1  0  0  0  0
 21 22  1  6  0  0  0
 21 23  1  0  0  0  0
 24 26  1  1  0  0  0
 25 30  2  0  0  0  0
 27 30  1  0  0  0  0
 27 29  1  0  0  0  0
 28 24  1  0  0  0  0
 29 24  1  0  0  0  0
 29 23  1  1  0  0  0
 30 28  1  0  0  0  0
 31 24  1  0  0  0  0
 31 32  1  0  0  0  0
M  END
>  <MODEL>
8

>  <REMARK>
 VINA RESULT:      -8.9      3.631      7.566
  Name = 
  5 active torsions:
  status: ('A' for Active; 'I' for Inactive)
    1  A    between atoms: C_3  and  C_22
    2  A    between atoms: C_4  and  C_24
    3  A    between atoms: C_13  and  C_29
    4  A    between atoms: O_16  and  C_20
    5  A    between atoms: O_16  and  C_24
                            x       y       z     vdW  Elec       q    Type
                         _______ _______ _______ _____ _____    ______ ____

>  <TORSDO>
F 5

$$$$
=
 OpenBabel10262421153D

 32 36  0  0  1  0  0  0  0  0999 V2000
  187.7600  178.0660  139.8500 O   0  0  0  0  0  0  0  0  0  0  0  0
  187.6030  178.1250  142.2230 C   0  0  0  0  0  0  0  0  0  0  0  0
  188.3030  177.4580  138.6730 C   0  0  2  0  0  3  0  0  0  0  0  0
  188.3310  177.8910  141.1180 C   0  0  0  0  0  0  0  0  0  0  0  0
  188.1720  177.9150  143.5390 N   0  0  0  0  0  0  0  0  0  0  0  0
  183.0980  178.6560  144.3480 C   0  0  0  0  0  2  0  0  0  0  0  0
  186.2030  178.6590  142.0870 C   0  0  0  0  0  2  0  0  0  0  0  0
  185.1110  178.2260  145.7630 C   0  0  0  0  0  2  0  0  0  0  0  0
  186.0240  178.5520  144.5830 C   0  0  1  0  0  3  0  0  0  0  0  0
  189.7920  177.5110  141.2170 C   0  0  1  0  0  3  0  0  0  0  0  0
  187.2770  177.6950  144.6810 C   0  0  0  0  0  2  0  0  0  0  0  0
  190.1190  176.8230  142.5350 C   0  0  0  0  0  2  0  0  0  0  0  0
  190.2160  176.6500  140.0370 C   0  0  0  0  0  2  0  0  0  0  0  0
  185.3190  178.2460  143.2570 C   0  0  1  0  0  3  0  0  0  0  0  0
  189.6280  177.7110  143.6670 C   0  0  2  0  0  3  0  0  0  0  0  0
  189.8240  177.3420  138.7410 C   0  0  0  0  0  2  0  0  0  0  0  0
  183.8040  179.0030  145.6550 C   0  0  0  0  0  2  0  0  0  0  0  0
  183.9950  179.0020  143.1640 C   0  0  0  0  0  2  0  0  0  0  0  0
  190.0490  177.1100  145.0040 C   0  0  0  0  0  2  0  0  0  0  0  0
  191.5390  176.8310  145.0040 C   0  0  0  0  0  1  0  0  0  0  0  0
  187.8760  178.2240  137.4250 C   0  0  1  0  0  3  0  0  0  0  0  0
  189.0550  179.0000  136.8710 C   0  0  0  0  0  1  0  0  0  0  0  0
  187.3940  177.3430  136.4500 O   0  0  0  0  0  0  0  0  0  0  0  0
  186.0270  175.2960  136.3500 C   0  0  2  0  0  0  0  0  0  0  0  0
  182.8540  176.7760  136.4440 O   0  0  0  0  0  0  0  0  0  0  0  0
  186.7130  175.1630  134.9970 C   0  0  0  0  0  1  0  0  0  0  0  0
  185.0790  177.4630  137.0780 C   0  0  0  0  0  2  0  0  0  0  0  0
  184.6250  175.3140  136.1540 O   0  0  0  0  0  0  0  0  0  0  0  0
  186.3620  176.6310  137.0720 C   0  0  2  0  0  3  0  0  0  0  0  0
  184.0810  176.5180  136.5440 C   0  0  0  0  0  0  0  0  0  0  0  0
  186.4190  174.1050  137.2170 C   0  0  0  0  0  2  0  0  0  0  0  0
  185.2880  173.4060  137.6450 O   0  0  0  0  0  1  0  0  0  0  0  0
  1  4  1  0  0  0  0
  2  5  1  0  0  0  0
  3 21  1  6  0  0  0
  3 16  1  0  0  0  0
  3  1  1  0  0  0  0
  4 10  1  0  0  0  0
  4  2  2  0  0  0  0
  5 15  1  0  0  0  0
  5 11  1  0  0  0  0
  6 17  1  0  0  0  0
  7  2  1  0  0  0  0
  9 11  1  1  0  0  0
  9  8  1  0  0  0  0
 10 13  1  6  0  0  0
 10 12  1  0  0  0  0
 12 15  1  0  0  0  0
 14  7  1  6  0  0  0
 14  9  1  0  0  0  0
 15 19  1  1  0  0  0
 16 13  1  0  0  0  0
 17  8  1  0  0  0  0
 18 14  1  0  0  0  0
 18  6  1  0  0  0  0
 20 19  1  0  0  0  0
 21 22  1  6  0  0  0
 23 21  1  0  0  0  0
 24 26  1  6  0  0  0
 24 29  1  0  0  0  0
 24 31  1  0  0  0  0
 25 30  2  0  0  0  0
 28 24  1  0  0  0  0
 28 30  1  0  0  0  0
 29 23  1  6  0  0  0
 29 27  1  0  0  0  0
 30 27  1  0  0  0  0
 31 32  1  0  0  0  0
M  END
>  <MODEL>
9

>  <REMARK>
 VINA RESULT:      -8.8      2.133      3.602
  Name = 
  5 active torsions:
  status: ('A' for Active; 'I' for Inactive)
    1  A    between atoms: C_3  and  C_22
    2  A    between atoms: C_4  and  C_24
    3  A    between atoms: C_13  and  C_29
    4  A    between atoms: O_16  and  C_20
    5  A    between atoms: O_16  and  C_24
                            x       y       z     vdW  Elec       q    Type
                         _______ _______ _______ _____ _____    ______ ____

>  <TORSDO>
F 5

$$$$
