=
 OpenBabel10262419123D

 34 38  0  0  1  0  0  0  0  0999 V2000
  182.5360  178.7340  142.7700 C   0  0  0  0  0  0  0  0  0  0  0  0
  185.1160  178.4370  142.9070 C   0  0  1  0  0  3  0  0  0  0  0  0
  183.8800  178.8460  140.6320 C   0  0  2  0  0  3  0  0  0  0  0  0
  183.7670  178.6570  144.9700 C   0  0  0  0  0  2  0  0  0  0  0  0
  182.5190  179.1500  138.5120 C   0  0  1  0  0  3  0  0  0  0  0  0
  181.4480  179.0930  136.4050 O   0  0  0  0  0  0  0  0  0  0  0  0
  184.9520  179.2150  144.2050 C   0  0  0  0  0  2  0  0  0  0  0  0
  186.3530  178.9340  140.8010 C   0  0  0  0  0  3  0  0  0  0  0  0
  180.6650  176.1960  136.6960 O   0  0  0  0  0  0  0  0  0  0  0  0
  183.8100  178.3120  142.0750 C   0  0  2  0  0  3  0  0  0  0  0  0
  179.1630  177.5320  138.1070 O   0  0  0  0  0  0  0  0  0  0  0  0
  182.4680  178.9930  144.2480 C   0  0  0  0  0  2  0  0  0  0  0  0
  182.5910  178.4170  139.8740 C   0  0  1  0  0  0  0  0  0  0  0  0
  181.5440  178.5790  137.5100 C   0  0  0  0  0  0  0  0  0  0  0  0
  181.4310  178.9140  142.0470 C   0  0  0  0  0  3  0  0  0  0  0  0
  186.3040  178.9530  142.1370 C   0  0  0  0  0  3  0  0  0  0  0  0
  181.2380  176.3310  139.3050 C   0  0  0  0  0  2  0  0  0  0  0  0
  180.5920  177.1430  137.8600 S   0  0  0  0  0  0  0  0  0  0  0  0
  182.6090  176.8890  139.6660 C   0  0  0  0  0  2  0  0  0  0  0  0
  182.2890  180.6460  138.6900 C   0  0  0  0  0  1  0  0  0  0  0  0
  185.2080  178.4020  139.9850 C   0  0  2  0  0  3  0  0  0  0  0  0
  181.4330  178.7770  140.6510 O   0  0  0  0  0  0  0  0  0  0  0  0
  185.3190  178.8830  138.6760 O   0  0  0  0  0  0  0  0  0  0  0  0
  185.8800  177.8380  137.9360 C   0  0  2  0  0  3  0  0  0  0  0  0
  187.2150  178.2860  137.3740 C   0  0  0  0  0  1  0  0  0  0  0  0
  184.9900  177.4730  136.8450 N   0  0  0  0  0  2  0  0  0  0  0  0
  185.6670  176.4450  136.0720 C   0  0  0  0  0  2  0  0  0  0  0  0
  187.5760  174.5660  137.0950 F   0  0  0  0  0  0  0  0  0  0  0  0
  185.2930  175.0950  136.5840 C   0  0  0  0  0  0  0  0  0  0  0  0
  186.2660  174.2120  137.0800 C   0  0  0  0  0  0  0  0  0  0  0  0
  184.5410  172.5770  137.5540 C   0  0  0  0  0  3  0  0  0  0  0  0
  183.5710  173.4550  137.0620 C   0  0  0  0  0  3  0  0  0  0  0  0
  183.9460  174.7110  136.5780 C   0  0  0  0  0  3  0  0  0  0  0  0
  185.8870  172.9550  137.5620 C   0  0  0  0  0  3  0  0  0  0  0  0
  1 12  1  0  0  0  0
  2 16  1  6  0  0  0
  2  7  1  0  0  0  0
  3 10  1  0  0  0  0
  5 20  1  0  0  0  0
  5 13  1  0  0  0  0
  6 14  2  0  0  0  0
  7  4  1  0  0  0  0
  8 16  2  0  0  0  0
  9 18  2  0  0  0  0
 10  1  1  0  0  0  0
 10  2  1  0  0  0  0
 12  4  1  0  0  0  0
 13  3  1  0  0  0  0
 13 22  1  0  0  0  0
 14 18  1  0  0  0  0
 14  5  1  0  0  0  0
 15  1  2  0  0  0  0
 17 19  1  0  0  0  0
 18 11  2  0  0  0  0
 18 17  1  0  0  0  0
 19 13  1  0  0  0  0
 21  3  1  0  0  0  0
 21  8  1  0  0  0  0
 22 15  1  0  0  0  0
 23 21  1  0  0  0  0
 24 23  1  0  0  0  0
 25 24  1  0  0  0  0
 26 24  1  0  0  0  0
 27 29  1  0  0  0  0
 27 26  1  0  0  0  0
 29 30  1  0  0  0  0
 30 28  1  0  0  0  0
 30 34  2  0  0  0  0
 31 34  1  0  0  0  0
 32 31  2  0  0  0  0
 33 29  2  0  0  0  0
 33 32  1  0  0  0  0
M  END
>  <MODEL>
1

>  <REMARK>
 VINA RESULT:      -7.4      0.000      0.000
  Name = 
  5 active torsions:
  status: ('A' for Active; 'I' for Inactive)
    1  A    between atoms: C_3  and  C_13
    2  A    between atoms: C_3  and  N_17
    3  A    between atoms: O_5  and  C_18
    4  A    between atoms: O_5  and  C_31
    5  A    between atoms: N_17  and  C_18
                            x       y       z     vdW  Elec       q    Type
                         _______ _______ _______ _____ _____    ______ ____

>  <TORSDO>
F 5

$$$$
=
 OpenBabel10262419123D

 34 38  0  0  1  0  0  0  0  0999 V2000
  180.1980  178.6960  141.4210 C   0  0  0  0  0  0  0  0  0  0  0  0
  181.5130  178.7510  143.6650 C   0  0  1  0  0  3  0  0  0  0  0  0
  182.7240  178.6260  141.3430 C   0  0  2  0  0  3  0  0  0  0  0  0
  179.0680  179.1320  143.6340 C   0  0  0  0  0  2  0  0  0  0  0  0
  183.7300  178.4090  139.0240 C   0  0  1  0  0  3  0  0  0  0  0  0
  184.8640  177.8770  137.0190 O   0  0  0  0  0  0  0  0  0  0  0  0
  180.4010  179.7030  144.0810 C   0  0  0  0  0  2  0  0  0  0  0  0
  183.9770  179.0500  143.4410 C   0  0  0  0  0  3  0  0  0  0  0  0
  183.9970  174.9910  137.0990 O   0  0  0  0  0  0  0  0  0  0  0  0
  181.4590  178.3290  142.1710 C   0  0  2  0  0  3  0  0  0  0  0  0
  182.0760  176.3400  136.3730 O   0  0  0  0  0  0  0  0  0  0  0  0
  178.9570  179.1810  142.1150 C   0  0  0  0  0  2  0  0  0  0  0  0
  182.5990  177.9220  139.9620 C   0  0  1  0  0  0  0  0  0  0  0  0
  183.9740  177.5650  137.7950 C   0  0  0  0  0  0  0  0  0  0  0  0
  180.1870  178.6160  140.0910 C   0  0  0  0  0  3  0  0  0  0  0  0
  182.8480  179.2800  144.1200 C   0  0  0  0  0  3  0  0  0  0  0  0
  182.1730  175.6190  138.9530 C   0  0  0  0  0  2  0  0  0  0  0  0
  183.0570  176.0970  137.4850 S   0  0  0  0  0  0  0  0  0  0  0  0
  182.6810  176.3950  140.1620 C   0  0  0  0  0  2  0  0  0  0  0  0
  183.5520  179.8740  138.6410 C   0  0  0  0  0  1  0  0  0  0  0  0
  183.9730  178.2530  142.1660 C   0  0  2  0  0  3  0  0  0  0  0  0
  181.3320  178.2550  139.3640 O   0  0  0  0  0  0  0  0  0  0  0  0
  185.1480  178.5260  141.4560 O   0  0  0  0  0  0  0  0  0  0  0  0
  186.1540  178.6400  142.4190 C   0  0  2  0  0  3  0  0  0  0  0  0
  187.5010  178.7160  141.7270 C   0  0  0  0  0  1  0  0  0  0  0  0
  186.1260  177.4840  143.3020 N   0  0  0  0  0  2  0  0  0  0  0  0
  187.4980  177.2230  143.7020 C   0  0  0  0  0  2  0  0  0  0  0  0
  189.9460  176.7530  145.1210 F   0  0  0  0  0  0  0  0  0  0  0  0
  187.6610  177.4850  145.1610 C   0  0  0  0  0  0  0  0  0  0  0  0
  188.8840  177.2420  145.8090 C   0  0  0  0  0  0  0  0  0  0  0  0
  187.9270  178.0100  147.9000 C   0  0  0  0  0  3  0  0  0  0  0  0
  186.7110  178.2530  147.2560 C   0  0  0  0  0  3  0  0  0  0  0  0
  186.5770  177.9900  145.8890 C   0  0  0  0  0  3  0  0  0  0  0  0
  189.0120  177.5050  147.1770 C   0  0  0  0  0  3  0  0  0  0  0  0
  1 12  1  0  0  0  0
  1 10  1  0  0  0  0
  2  7  1  6  0  0  0
  2 16  1  0  0  0  0
  3 21  1  0  0  0  0
  3 10  1  0  0  0  0
  4  7  1  0  0  0  0
  5 13  1  0  0  0  0
  6 14  2  0  0  0  0
  8 16  2  0  0  0  0
  9 18  2  0  0  0  0
 10  2  1  0  0  0  0
 11 18  2  0  0  0  0
 12  4  1  0  0  0  0
 13 19  1  0  0  0  0
 13  3  1  0  0  0  0
 14  5  1  0  0  0  0
 15  1  2  0  0  0  0
 17 19  1  0  0  0  0
 18 14  1  0  0  0  0
 18 17  1  0  0  0  0
 20  5  1  0  0  0  0
 21  8  1  0  0  0  0
 22 13  1  0  0  0  0
 22 15  1  0  0  0  0
 23 21  1  0  0  0  0
 23 24  1  0  0  0  0
 24 26  1  0  0  0  0
 25 24  1  0  0  0  0
 26 27  1  0  0  0  0
 27 29  1  0  0  0  0
 28 30  1  0  0  0  0
 29 30  2  0  0  0  0
 29 33  1  0  0  0  0
 30 34  1  0  0  0  0
 32 31  1  0  0  0  0
 33 32  2  0  0  0  0
 34 31  2  0  0  0  0
M  END
>  <MODEL>
2

>  <REMARK>
 VINA RESULT:      -7.2      3.018      5.714
  Name = 
  5 active torsions:
  status: ('A' for Active; 'I' for Inactive)
    1  A    between atoms: C_3  and  C_13
    2  A    between atoms: C_3  and  N_17
    3  A    between atoms: O_5  and  C_18
    4  A    between atoms: O_5  and  C_31
    5  A    between atoms: N_17  and  C_18
                            x       y       z     vdW  Elec       q    Type
                         _______ _______ _______ _____ _____    ______ ____

>  <TORSDO>
F 5

$$$$
=
 OpenBabel10262419123D

 34 38  0  0  1  0  0  0  0  0999 V2000
  181.3450  178.8770  135.4150 C   0  0  0  0  0  0  0  0  0  0  0  0
  180.7230  180.1150  137.6160 C   0  0  1  0  0  3  0  0  0  0  0  0
  182.3890  178.0930  137.5800 C   0  0  2  0  0  3  0  0  0  0  0  0
  179.9990  181.0100  135.4250 C   0  0  0  0  0  2  0  0  0  0  0  0
  183.9020  176.0650  137.3800 C   0  0  1  0  0  3  0  0  0  0  0  0
  185.0680  174.0120  137.4860 O   0  0  0  0  0  0  0  0  0  0  0  0
  180.7300  181.3400  136.7130 C   0  0  0  0  0  2  0  0  0  0  0  0
  182.0890  179.4920  139.6050 C   0  0  0  0  0  3  0  0  0  0  0  0
  182.5520  172.3770  137.1840 O   0  0  0  0  0  0  0  0  0  0  0  0
  181.1990  178.8120  136.9190 C   0  0  2  0  0  3  0  0  0  0  0  0
  183.1300  173.2930  134.9790 O   0  0  0  0  0  0  0  0  0  0  0  0
  180.8090  180.0180  134.5990 C   0  0  0  0  0  2  0  0  0  0  0  0
  182.5680  176.6980  136.9140 C   0  0  1  0  0  0  0  0  0  0  0  0
  184.0500  174.5830  137.1270 C   0  0  0  0  0  0  0  0  0  0  0  0
  182.0000  177.9040  134.7840 C   0  0  0  0  0  3  0  0  0  0  0  0
  181.4200  180.4230  138.9160 C   0  0  0  0  0  3  0  0  0  0  0  0
  181.2510  174.5770  136.3940 C   0  0  0  0  0  2  0  0  0  0  0  0
  182.7620  173.6370  136.3940 S   0  0  0  0  0  0  0  0  0  0  0  0
  181.3770  175.7960  137.2990 C   0  0  0  0  0  2  0  0  0  0  0  0
  185.1060  176.8240  136.8330 C   0  0  0  0  0  1  0  0  0  0  0  0
  182.1930  178.0770  139.1090 C   0  0  2  0  0  3  0  0  0  0  0  0
  182.6060  176.8480  135.4830 O   0  0  0  0  0  0  0  0  0  0  0  0
  183.2650  177.4470  139.7510 O   0  0  0  0  0  0  0  0  0  0  0  0
  183.8760  178.4380  140.5250 C   0  0  2  0  0  3  0  0  0  0  0  0
  185.2240  178.7820  139.9200 C   0  0  0  0  0  1  0  0  0  0  0  0
  184.0620  177.9580  141.8850 N   0  0  0  0  0  2  0  0  0  0  0  0
  184.5310  179.0860  142.6730 C   0  0  0  0  0  2  0  0  0  0  0  0
  183.4120  179.3950  145.2940 F   0  0  0  0  0  0  0  0  0  0  0  0
  185.2020  178.5970  143.9110 C   0  0  0  0  0  0  0  0  0  0  0  0
  184.6090  178.7690  145.1730 C   0  0  0  0  0  0  0  0  0  0  0  0
  186.4910  177.6470  146.2100 C   0  0  0  0  0  3  0  0  0  0  0  0
  187.0820  177.4740  144.9550 C   0  0  0  0  0  3  0  0  0  0  0  0
  186.4390  177.9490  143.8080 C   0  0  0  0  0  3  0  0  0  0  0  0
  185.2560  178.2940  146.3180 C   0  0  0  0  0  3  0  0  0  0  0  0
  1 10  1  0  0  0  0
  2  7  1  6  0  0  0
  2 16  1  0  0  0  0
  3 21  1  0  0  0  0
  4  7  1  0  0  0  0
 10  3  1  0  0  0  0
 10  2  1  0  0  0  0
 11 18  2  0  0  0  0
 12  1  1  0  0  0  0
 12  4  1  0  0  0  0
 13 19  1  0  0  0  0
 13  5  1  0  0  0  0
 13  3  1  0  0  0  0
 14  5  1  0  0  0  0
 14  6  2  0  0  0  0
 15  1  2  0  0  0  0
 15 22  1  0  0  0  0
 16  8  2  0  0  0  0
 17 19  1  0  0  0  0
 18 17  1  0  0  0  0
 18 14  1  0  0  0  0
 18  9  2  0  0  0  0
 20  5  1  0  0  0  0
 21  8  1  0  0  0  0
 21 23  1  0  0  0  0
 22 13  1  0  0  0  0
 23 24  1  0  0  0  0
 24 26  1  0  0  0  0
 25 24  1  0  0  0  0
 26 27  1  0  0  0  0
 27 29  1  0  0  0  0
 29 30  1  0  0  0  0
 30 28  1  0  0  0  0
 30 34  2  0  0  0  0
 31 34  1  0  0  0  0
 32 31  2  0  0  0  0
 33 29  2  0  0  0  0
 33 32  1  0  0  0  0
M  END
>  <MODEL>
3

>  <REMARK>
 VINA RESULT:      -6.6      3.083      6.738
  Name = 
  5 active torsions:
  status: ('A' for Active; 'I' for Inactive)
    1  A    between atoms: C_3  and  C_13
    2  A    between atoms: C_3  and  N_17
    3  A    between atoms: O_5  and  C_18
    4  A    between atoms: O_5  and  C_31
    5  A    between atoms: N_17  and  C_18
                            x       y       z     vdW  Elec       q    Type
                         _______ _______ _______ _____ _____    ______ ____

>  <TORSDO>
F 5

$$$$
=
 OpenBabel10262419123D

 34 38  0  0  1  0  0  0  0  0999 V2000
  184.1280  177.1380  135.5310 C   0  0  0  0  0  0  0  0  0  0  0  0
  182.7350  177.8640  137.6050 C   0  0  1  0  0  3  0  0  0  0  0  0
  185.3500  178.0500  137.5480 C   0  0  2  0  0  3  0  0  0  0  0  0
  181.6080  177.2620  135.4850 C   0  0  0  0  0  2  0  0  0  0  0  0
  187.8800  178.0710  137.3620 C   0  0  1  0  0  3  0  0  0  0  0  0
  190.2290  177.8770  137.5430 O   0  0  0  0  0  0  0  0  0  0  0  0
  181.7480  178.3360  136.5470 C   0  0  0  0  0  2  0  0  0  0  0  0
  184.0140  179.0790  139.3660 C   0  0  0  0  0  3  0  0  0  0  0  0
  190.1150  174.8950  137.9700 O   0  0  0  0  0  0  0  0  0  0  0  0
  184.0820  177.3470  137.0280 C   0  0  2  0  0  3  0  0  0  0  0  0
  189.7230  175.3350  135.5850 O   0  0  0  0  0  0  0  0  0  0  0  0
  182.8940  177.1530  134.6740 C   0  0  0  0  0  2  0  0  0  0  0  0
  186.5980  177.2530  137.0720 C   0  0  1  0  0  0  0  0  0  0  0  0
  189.1780  177.3010  137.3060 C   0  0  0  0  0  0  0  0  0  0  0  0
  185.3070  176.9640  134.9360 C   0  0  0  0  0  3  0  0  0  0  0  0
  182.8740  178.9010  138.6880 C   0  0  0  0  0  3  0  0  0  0  0  0
  187.5760  174.8990  137.1290 C   0  0  0  0  0  2  0  0  0  0  0  0
  189.2150  175.5740  136.9780 S   0  0  0  0  0  0  0  0  0  0  0  0
  186.6440  175.8970  137.8050 C   0  0  0  0  0  2  0  0  0  0  0  0
  187.9600  179.3200  136.4910 C   0  0  0  0  0  1  0  0  0  0  0  0
  185.2340  178.2520  139.0720 C   0  0  2  0  0  3  0  0  0  0  0  0
  186.5110  177.0240  135.6530 O   0  0  0  0  0  0  0  0  0  0  0  0
  186.3610  178.9070  139.5830 O   0  0  0  0  0  0  0  0  0  0  0  0
  186.5570  178.3770  140.8620 C   0  0  2  0  0  3  0  0  0  0  0  0
  185.6750  179.1180  141.8490 C   0  0  0  0  0  1  0  0  0  0  0  0
  187.9510  178.5260  141.2480 N   0  0  0  0  0  2  0  0  0  0  0  0
  188.3580  177.2710  141.8590 C   0  0  0  0  0  2  0  0  0  0  0  0
  190.8940  178.1940  142.8290 F   0  0  0  0  0  0  0  0  0  0  0  0
  188.6540  177.4810  143.3050 C   0  0  0  0  0  0  0  0  0  0  0  0
  189.9120  177.9390  143.7290 C   0  0  0  0  0  0  0  0  0  0  0  0
  189.1570  177.8780  146.0320 C   0  0  0  0  0  3  0  0  0  0  0  0
  187.9040  177.4230  145.6110 C   0  0  0  0  0  3  0  0  0  0  0  0
  187.6530  177.2240  144.2500 C   0  0  0  0  0  3  0  0  0  0  0  0
  190.1590  178.1350  145.0920 C   0  0  0  0  0  3  0  0  0  0  0  0
  1 10  1  0  0  0  0
  2  7  1  6  0  0  0
  2 16  1  0  0  0  0
  3 21  1  0  0  0  0
  4  7  1  0  0  0  0
 10  3  1  0  0  0  0
 10  2  1  0  0  0  0
 11 18  2  0  0  0  0
 12  4  1  0  0  0  0
 12  1  1  0  0  0  0
 13  5  1  0  0  0  0
 13  3  1  0  0  0  0
 13 19  1  0  0  0  0
 14  5  1  0  0  0  0
 14  6  2  0  0  0  0
 15  1  2  0  0  0  0
 15 22  1  0  0  0  0
 16  8  2  0  0  0  0
 17 19  1  0  0  0  0
 18 17  1  0  0  0  0
 18 14  1  0  0  0  0
 18  9  2  0  0  0  0
 20  5  1  0  0  0  0
 21  8  1  0  0  0  0
 21 23  1  0  0  0  0
 22 13  1  0  0  0  0
 23 24  1  0  0  0  0
 24 26  1  0  0  0  0
 24 25  1  0  0  0  0
 26 27  1  0  0  0  0
 27 29  1  0  0  0  0
 28 30  1  0  0  0  0
 29 30  2  0  0  0  0
 29 33  1  0  0  0  0
 30 34  1  0  0  0  0
 32 31  1  0  0  0  0
 33 32  2  0  0  0  0
 34 31  2  0  0  0  0
M  END
>  <MODEL>
4

>  <REMARK>
 VINA RESULT:      -6.5      3.657      7.372
  Name = 
  5 active torsions:
  status: ('A' for Active; 'I' for Inactive)
    1  A    between atoms: C_3  and  C_13
    2  A    between atoms: C_3  and  N_17
    3  A    between atoms: O_5  and  C_18
    4  A    between atoms: O_5  and  C_31
    5  A    between atoms: N_17  and  C_18
                            x       y       z     vdW  Elec       q    Type
                         _______ _______ _______ _____ _____    ______ ____

>  <TORSDO>
F 5

$$$$
=
 OpenBabel10262419123D

 34 38  0  0  1  0  0  0  0  0999 V2000
  186.4870  178.4350  141.8510 C   0  0  0  0  0  0  0  0  0  0  0  0
  184.8440  178.2730  143.8610 C   0  0  1  0  0  3  0  0  0  0  0  0
  187.4420  178.3720  144.1900 C   0  0  2  0  0  3  0  0  0  0  0  0
  183.9890  178.6570  141.5700 C   0  0  0  0  0  2  0  0  0  0  0  0
  189.9760  178.3800  144.3240 C   0  0  1  0  0  3  0  0  0  0  0  0
  192.2890  178.0430  144.6780 O   0  0  0  0  0  0  0  0  0  0  0  0
  183.9830  179.1810  142.9940 C   0  0  0  0  0  2  0  0  0  0  0  0
  185.8810  178.5910  146.1040 C   0  0  0  0  0  3  0  0  0  0  0  0
  192.1740  175.1630  143.7930 O   0  0  0  0  0  0  0  0  0  0  0  0
  186.2580  177.9980  143.2800 C   0  0  2  0  0  3  0  0  0  0  0  0
  192.0630  176.5770  141.7880 O   0  0  0  0  0  0  0  0  0  0  0  0
  185.3650  178.8520  140.9430 C   0  0  0  0  0  2  0  0  0  0  0  0
  188.7520  177.8050  143.5710 C   0  0  1  0  0  0  0  0  0  0  0  0
  191.2840  177.6580  144.1000 C   0  0  0  0  0  0  0  0  0  0  0  0
  187.7310  178.4850  141.3780 C   0  0  0  0  0  3  0  0  0  0  0  0
  184.8340  178.7550  145.2880 C   0  0  0  0  0  3  0  0  0  0  0  0
  189.7540  175.6100  142.7450 C   0  0  0  0  0  2  0  0  0  0  0  0
  191.3880  176.2270  143.0830 S   0  0  0  0  0  0  0  0  0  0  0  0
  188.7320  176.2650  143.6650 C   0  0  0  0  0  2  0  0  0  0  0  0
  190.1400  179.8750  144.0750 C   0  0  0  0  0  1  0  0  0  0  0  0
  187.1410  177.9210  145.6330 C   0  0  2  0  0  3  0  0  0  0  0  0
  188.8400  178.1950  142.1880 O   0  0  0  0  0  0  0  0  0  0  0  0
  188.1880  178.2600  146.4990 O   0  0  0  0  0  0  0  0  0  0  0  0
  188.0500  177.4190  147.6060 C   0  0  2  0  0  3  0  0  0  0  0  0
  188.0660  178.2540  148.8720 C   0  0  0  0  0  1  0  0  0  0  0  0
  189.1460  176.4630  147.6400 N   0  0  0  0  0  2  0  0  0  0  0  0
  190.3160  177.1420  147.1070 C   0  0  0  0  0  2  0  0  0  0  0  0
  192.1550  174.9530  146.8780 F   0  0  0  0  0  0  0  0  0  0  0  0
  191.4770  176.9490  148.0230 C   0  0  0  0  0  0  0  0  0  0  0  0
  192.3520  175.8620  147.8650 C   0  0  0  0  0  0  0  0  0  0  0  0
  193.6560  176.6380  149.7560 C   0  0  0  0  0  3  0  0  0  0  0  0
  192.7860  177.7210  149.9130 C   0  0  0  0  0  3  0  0  0  0  0  0
  191.6980  177.8760  149.0490 C   0  0  0  0  0  3  0  0  0  0  0  0
  193.4380  175.7100  148.7330 C   0  0  0  0  0  3  0  0  0  0  0  0
  1 10  1  0  0  0  0
  2  7  1  6  0  0  0
  2 16  1  0  0  0  0
  3 21  1  0  0  0  0
  4  7  1  0  0  0  0
 10  2  1  0  0  0  0
 10  3  1  0  0  0  0
 11 18  2  0  0  0  0
 12  4  1  0  0  0  0
 12  1  1  0  0  0  0
 13 19  1  0  0  0  0
 13  3  1  0  0  0  0
 13  5  1  0  0  0  0
 14  5  1  0  0  0  0
 14  6  2  0  0  0  0
 15  1  2  0  0  0  0
 15 22  1  0  0  0  0
 16  8  2  0  0  0  0
 17 18  1  0  0  0  0
 17 19  1  0  0  0  0
 18  9  2  0  0  0  0
 18 14  1  0  0  0  0
 20  5  1  0  0  0  0
 21  8  1  0  0  0  0
 21 23  1  0  0  0  0
 22 13  1  0  0  0  0
 23 24  1  0  0  0  0
 24 26  1  0  0  0  0
 24 25  1  0  0  0  0
 27 26  1  0  0  0  0
 27 29  1  0  0  0  0
 28 30  1  0  0  0  0
 29 33  1  0  0  0  0
 30 29  2  0  0  0  0
 30 34  1  0  0  0  0
 31 32  1  0  0  0  0
 33 32  2  0  0  0  0
 34 31  2  0  0  0  0
M  END
>  <MODEL>
5

>  <REMARK>
 VINA RESULT:      -6.4      6.629     10.034
  Name = 
  5 active torsions:
  status: ('A' for Active; 'I' for Inactive)
    1  A    between atoms: C_3  and  C_13
    2  A    between atoms: C_3  and  N_17
    3  A    between atoms: O_5  and  C_18
    4  A    between atoms: O_5  and  C_31
    5  A    between atoms: N_17  and  C_18
                            x       y       z     vdW  Elec       q    Type
                         _______ _______ _______ _____ _____    ______ ____

>  <TORSDO>
F 5

$$$$
=
 OpenBabel10262419123D

 34 38  0  0  1  0  0  0  0  0999 V2000
  182.6100  178.7770  142.8510 C   0  0  0  0  0  0  0  0  0  0  0  0
  185.1850  178.4100  142.8200 C   0  0  1  0  0  3  0  0  0  0  0  0
  183.8340  178.9870  140.6490 C   0  0  2  0  0  3  0  0  0  0  0  0
  183.9600  178.5360  144.9680 C   0  0  0  0  0  2  0  0  0  0  0  0
  182.3650  179.4530  138.6330 C   0  0  1  0  0  3  0  0  0  0  0  0
  181.1760  179.5510  136.5920 O   0  0  0  0  0  0  0  0  0  0  0  0
  185.1150  179.1110  144.1700 C   0  0  0  0  0  2  0  0  0  0  0  0
  186.3140  179.0050  140.6800 C   0  0  0  0  0  3  0  0  0  0  0  0
  180.3310  176.6610  136.7540 O   0  0  0  0  0  0  0  0  0  0  0  0
  183.8310  178.3680  142.0590 C   0  0  2  0  0  3  0  0  0  0  0  0
  178.9480  177.9440  138.3270 O   0  0  0  0  0  0  0  0  0  0  0  0
  182.6320  178.9470  144.3430 C   0  0  0  0  0  2  0  0  0  0  0  0
  182.4930  178.6360  139.9420 C   0  0  1  0  0  0  0  0  0  0  0  0
  181.3200  178.9680  137.6560 C   0  0  0  0  0  0  0  0  0  0  0  0
  181.4720  179.0270  142.2050 C   0  0  0  0  0  3  0  0  0  0  0  0
  186.3410  178.9440  142.0160 C   0  0  0  0  0  3  0  0  0  0  0  0
  181.0530  176.6230  139.3300 C   0  0  0  0  0  2  0  0  0  0  0  0
  180.3500  177.5360  137.9750 S   0  0  0  0  0  0  0  0  0  0  0  0
  182.4580  177.1240  139.6430 C   0  0  0  0  0  2  0  0  0  0  0  0
  182.1870  180.9410  138.9130 C   0  0  0  0  0  1  0  0  0  0  0  0
  185.1110  178.5510  139.9020 C   0  0  2  0  0  3  0  0  0  0  0  0
  181.3910  178.9760  140.8050 O   0  0  0  0  0  0  0  0  0  0  0  0
  185.1610  179.1100  138.6190 O   0  0  0  0  0  0  0  0  0  0  0  0
  185.8640  178.1900  137.8350 C   0  0  2  0  0  3  0  0  0  0  0  0
  185.2110  176.8270  137.9610 C   0  0  0  0  0  1  0  0  0  0  0  0
  187.2450  178.1110  138.2850 N   0  0  0  0  0  2  0  0  0  0  0  0
  187.7350  176.7930  137.9190 C   0  0  0  0  0  2  0  0  0  0  0  0
  188.9510  177.1290  140.4940 F   0  0  0  0  0  0  0  0  0  0  0  0
  189.2070  176.7170  138.1440 C   0  0  0  0  0  0  0  0  0  0  0  0
  189.7540  176.8840  139.4280 C   0  0  0  0  0  0  0  0  0  0  0  0
  191.9770  176.5460  138.5240 C   0  0  0  0  0  3  0  0  0  0  0  0
  191.4350  176.3780  137.2470 C   0  0  0  0  0  3  0  0  0  0  0  0
  190.0520  176.4640  137.0570 C   0  0  0  0  0  3  0  0  0  0  0  0
  191.1370  176.7990  139.6120 C   0  0  0  0  0  3  0  0  0  0  0  0
  1 12  1  0  0  0  0
  2 16  1  6  0  0  0
  2  7  1  0  0  0  0
  3 10  1  0  0  0  0
  5 20  1  0  0  0  0
  5 13  1  0  0  0  0
  6 14  2  0  0  0  0
  7  4  1  0  0  0  0
  8 16  2  0  0  0  0
  9 18  2  0  0  0  0
 10  2  1  0  0  0  0
 10  1  1  0  0  0  0
 12  4  1  0  0  0  0
 13  3  1  0  0  0  0
 13 22  1  0  0  0  0
 14 18  1  0  0  0  0
 14  5  1  0  0  0  0
 15  1  2  0  0  0  0
 17 19  1  0  0  0  0
 18 11  2  0  0  0  0
 18 17  1  0  0  0  0
 19 13  1  0  0  0  0
 21  3  1  0  0  0  0
 21  8  1  0  0  0  0
 22 15  1  0  0  0  0
 23 21  1  0  0  0  0
 24 25  1  0  0  0  0
 24 26  1  0  0  0  0
 24 23  1  0  0  0  0
 27 29  1  0  0  0  0
 27 26  1  0  0  0  0
 29 30  1  0  0  0  0
 30 34  2  0  0  0  0
 30 28  1  0  0  0  0
 31 34  1  0  0  0  0
 32 31  2  0  0  0  0
 33 32  1  0  0  0  0
 33 29  2  0  0  0  0
M  END
>  <MODEL>
6

>  <REMARK>
 VINA RESULT:      -6.4      2.004      3.064
  Name = 
  5 active torsions:
  status: ('A' for Active; 'I' for Inactive)
    1  A    between atoms: C_3  and  C_13
    2  A    between atoms: C_3  and  N_17
    3  A    between atoms: O_5  and  C_18
    4  A    between atoms: O_5  and  C_31
    5  A    between atoms: N_17  and  C_18
                            x       y       z     vdW  Elec       q    Type
                         _______ _______ _______ _____ _____    ______ ____

>  <TORSDO>
F 5

$$$$
=
 OpenBabel10262419123D

 34 38  0  0  1  0  0  0  0  0999 V2000
  182.1820  178.6370  142.6060 C   0  0  0  0  0  0  0  0  0  0  0  0
  184.7150  178.8070  143.1700 C   0  0  1  0  0  3  0  0  0  0  0  0
  183.8320  178.8400  140.7020 C   0  0  2  0  0  3  0  0  0  0  0  0
  183.0190  178.9240  144.9690 C   0  0  0  0  0  2  0  0  0  0  0  0
  182.8180  178.7590  138.3780 C   0  0  1  0  0  3  0  0  0  0  0  0
  182.1420  178.3760  136.1450 O   0  0  0  0  0  0  0  0  0  0  0  0
  184.2100  179.6290  144.3470 C   0  0  0  0  0  2  0  0  0  0  0  0
  186.1930  179.3720  141.2440 C   0  0  0  0  0  3  0  0  0  0  0  0
  181.8020  175.4120  136.5830 O   0  0  0  0  0  0  0  0  0  0  0  0
  183.6070  178.4000  142.1610 C   0  0  2  0  0  3  0  0  0  0  0  0
  179.8860  176.5550  137.6110 O   0  0  0  0  0  0  0  0  0  0  0  0
  181.8240  178.9780  144.0250 C   0  0  0  0  0  2  0  0  0  0  0  0
  182.7770  178.1420  139.7970 C   0  0  1  0  0  0  0  0  0  0  0  0
  182.1330  177.9610  137.2940 C   0  0  0  0  0  0  0  0  0  0  0  0
  181.2010  178.5720  141.7070 C   0  0  0  0  0  3  0  0  0  0  0  0
  185.9160  179.4720  142.5490 C   0  0  0  0  0  3  0  0  0  0  0  0
  181.8950  175.8190  139.2250 C   0  0  0  0  0  2  0  0  0  0  0  0
  181.3810  176.4060  137.6260 S   0  0  0  0  0  0  0  0  0  0  0  0
  183.0770  176.6310  139.7400 C   0  0  0  0  0  2  0  0  0  0  0  0
  182.3220  180.2010  138.3750 C   0  0  0  0  0  1  0  0  0  0  0  0
  185.3040  178.5940  140.3150 C   0  0  2  0  0  3  0  0  0  0  0  0
  181.4610  178.3450  140.3470 O   0  0  0  0  0  0  0  0  0  0  0  0
  185.5560  179.0000  138.9990 O   0  0  0  0  0  0  0  0  0  0  0  0
  186.6850  178.2830  138.5930 C   0  0  2  0  0  3  0  0  0  0  0  0
  186.2850  177.2930  137.5150 C   0  0  0  0  0  1  0  0  0  0  0  0
  187.2480  177.5660  139.7260 N   0  0  0  0  0  2  0  0  0  0  0  0
  188.6800  177.4640  139.4930 C   0  0  0  0  0  2  0  0  0  0  0  0
  191.5210  177.7440  139.7560 F   0  0  0  0  0  0  0  0  0  0  0  0
  189.3980  177.3320  140.7930 C   0  0  0  0  0  0  0  0  0  0  0  0
  190.7930  177.4840  140.8700 C   0  0  0  0  0  0  0  0  0  0  0  0
  190.7040  177.0950  143.2600 C   0  0  0  0  0  3  0  0  0  0  0  0
  189.3160  176.9450  143.1860 C   0  0  0  0  0  3  0  0  0  0  0  0
  188.6640  177.0630  141.9550 C   0  0  0  0  0  3  0  0  0  0  0  0
  191.4400  177.3630  142.1030 C   0  0  0  0  0  3  0  0  0  0  0  0
  1 12  1  0  0  0  0
  2 16  1  6  0  0  0
  2  7  1  0  0  0  0
  3 10  1  0  0  0  0
  5 13  1  0  0  0  0
  6 14  2  0  0  0  0
  7  4  1  0  0  0  0
  8 16  2  0  0  0  0
  9 18  2  0  0  0  0
 10  1  1  0  0  0  0
 10  2  1  0  0  0  0
 11 18  2  0  0  0  0
 12  4  1  0  0  0  0
 13 22  1  0  0  0  0
 13  3  1  0  0  0  0
 14 18  1  0  0  0  0
 14  5  1  0  0  0  0
 15  1  2  0  0  0  0
 17 19  1  0  0  0  0
 18 17  1  0  0  0  0
 19 13  1  0  0  0  0
 20  5  1  0  0  0  0
 21  3  1  0  0  0  0
 21  8  1  0  0  0  0
 22 15  1  0  0  0  0
 23 21  1  0  0  0  0
 24 23  1  0  0  0  0
 24 26  1  0  0  0  0
 25 24  1  0  0  0  0
 27 26  1  0  0  0  0
 27 29  1  0  0  0  0
 28 30  1  0  0  0  0
 29 30  2  0  0  0  0
 29 33  1  0  0  0  0
 30 34  1  0  0  0  0
 32 31  1  0  0  0  0
 33 32  2  0  0  0  0
 34 31  2  0  0  0  0
M  END
>  <MODEL>
7

>  <REMARK>
 VINA RESULT:      -6.3      2.288      3.719
  Name = 
  5 active torsions:
  status: ('A' for Active; 'I' for Inactive)
    1  A    between atoms: C_3  and  C_13
    2  A    between atoms: C_3  and  N_17
    3  A    between atoms: O_5  and  C_18
    4  A    between atoms: O_5  and  C_31
    5  A    between atoms: N_17  and  C_18
                            x       y       z     vdW  Elec       q    Type
                         _______ _______ _______ _____ _____    ______ ____

>  <TORSDO>
F 5

$$$$
=
 OpenBabel10262419123D

 34 38  0  0  1  0  0  0  0  0999 V2000
  181.4390  173.0820  136.1820 C   0  0  0  0  0  0  0  0  0  0  0  0
  180.0860  173.5800  138.3470 C   0  0  1  0  0  3  0  0  0  0  0  0
  181.9930  175.1670  137.5010 C   0  0  2  0  0  3  0  0  0  0  0  0
  179.4030  171.7430  136.8350 C   0  0  0  0  0  2  0  0  0  0  0  0
  183.9270  176.5380  136.5950 C   0  0  1  0  0  3  0  0  0  0  0  0
  185.8860  177.7760  136.1330 O   0  0  0  0  0  0  0  0  0  0  0  0
  178.9330  173.0020  137.5390 C   0  0  0  0  0  2  0  0  0  0  0  0
  180.4710  175.8320  139.3420 C   0  0  0  0  0  3  0  0  0  0  0  0
  187.6990  175.6360  137.2400 O   0  0  0  0  0  0  0  0  0  0  0  0
  181.4030  173.7440  137.5410 C   0  0  2  0  0  3  0  0  0  0  0  0
  186.9120  174.8960  135.0350 O   0  0  0  0  0  0  0  0  0  0  0  0
  180.3980  172.0950  135.7360 C   0  0  0  0  0  2  0  0  0  0  0  0
  183.4180  175.1030  136.8800 C   0  0  1  0  0  0  0  0  0  0  0  0
  185.4100  176.6710  136.3450 C   0  0  0  0  0  0  0  0  0  0  0  0
  182.4110  173.4020  135.3290 C   0  0  0  0  0  3  0  0  0  0  0  0
  179.6390  174.8180  139.0790 C   0  0  0  0  0  3  0  0  0  0  0  0
  185.6530  173.9140  137.1870 C   0  0  0  0  0  2  0  0  0  0  0  0
  186.4900  175.2850  136.4220 S   0  0  0  0  0  0  0  0  0  0  0  0
  184.3650  174.3770  137.8570 C   0  0  0  0  0  2  0  0  0  0  0  0
  183.1330  177.2050  135.4780 C   0  0  0  0  0  1  0  0  0  0  0  0
  181.9090  175.7950  138.9060 C   0  0  2  0  0  3  0  0  0  0  0  0
  183.3710  174.3780  135.6370 O   0  0  0  0  0  0  0  0  0  0  0  0
  182.4190  177.0990  138.9080 O   0  0  0  0  0  0  0  0  0  0  0  0
  182.2350  177.5730  140.2100 C   0  0  2  0  0  3  0  0  0  0  0  0
  181.9110  179.0540  140.1600 C   0  0  0  0  0  1  0  0  0  0  0  0
  183.4480  177.3670  140.9860 N   0  0  0  0  0  2  0  0  0  0  0  0
  183.9110  178.6790  141.4060 C   0  0  0  0  0  2  0  0  0  0  0  0
  186.5090  177.9020  142.3390 F   0  0  0  0  0  0  0  0  0  0  0  0
  184.2870  178.6480  142.8490 C   0  0  0  0  0  0  0  0  0  0  0  0
  185.5760  178.2650  143.2550 C   0  0  0  0  0  0  0  0  0  0  0  0
  184.9540  178.6240  145.5700 C   0  0  0  0  0  3  0  0  0  0  0  0
  183.6710  179.0080  145.1670 C   0  0  0  0  0  3  0  0  0  0  0  0
  183.3380  179.0190  143.8100 C   0  0  0  0  0  3  0  0  0  0  0  0
  185.9040  178.2530  144.6140 C   0  0  0  0  0  3  0  0  0  0  0  0
  1 10  1  0  0  0  0
  2  7  1  6  0  0  0
  2 16  1  0  0  0  0
  3 10  1  0  0  0  0
  3 21  1  0  0  0  0
  4  7  1  0  0  0  0
  5 13  1  0  0  0  0
  6 14  2  0  0  0  0
 10  2  1  0  0  0  0
 11 18  2  0  0  0  0
 12  1  1  0  0  0  0
 12  4  1  0  0  0  0
 13  3  1  0  0  0  0
 13 19  1  0  0  0  0
 14 18  1  0  0  0  0
 14  5  1  0  0  0  0
 15 22  1  0  0  0  0
 15  1  2  0  0  0  0
 16  8  2  0  0  0  0
 17 19  1  0  0  0  0
 18 17  1  0  0  0  0
 18  9  2  0  0  0  0
 20  5  1  0  0  0  0
 21 23  1  0  0  0  0
 21  8  1  0  0  0  0
 22 13  1  0  0  0  0
 23 24  1  0  0  0  0
 24 26  1  0  0  0  0
 25 24  1  0  0  0  0
 26 27  1  0  0  0  0
 27 29  1  0  0  0  0
 28 30  1  0  0  0  0
 29 30  2  0  0  0  0
 29 33  1  0  0  0  0
 30 34  1  0  0  0  0
 32 31  1  0  0  0  0
 33 32  2  0  0  0  0
 34 31  2  0  0  0  0
M  END
>  <MODEL>
8

>  <REMARK>
 VINA RESULT:      -6.1      2.911      7.238
  Name = 
  5 active torsions:
  status: ('A' for Active; 'I' for Inactive)
    1  A    between atoms: C_3  and  C_13
    2  A    between atoms: C_3  and  N_17
    3  A    between atoms: O_5  and  C_18
    4  A    between atoms: O_5  and  C_31
    5  A    between atoms: N_17  and  C_18
                            x       y       z     vdW  Elec       q    Type
                         _______ _______ _______ _____ _____    ______ ____

>  <TORSDO>
F 5

$$$$
=
 OpenBabel10262419123D

 34 38  0  0  1  0  0  0  0  0999 V2000
  185.5990  178.2270  144.9420 C   0  0  0  0  0  0  0  0  0  0  0  0
  184.8180  179.3290  142.7190 C   0  0  1  0  0  3  0  0  0  0  0  0
  186.9810  177.8550  142.8580 C   0  0  2  0  0  3  0  0  0  0  0  0
  183.3650  179.3790  144.7220 C   0  0  0  0  0  2  0  0  0  0  0  0
  189.0910  176.4860  143.1890 C   0  0  1  0  0  3  0  0  0  0  0  0
  191.2510  175.5330  143.3230 O   0  0  0  0  0  0  0  0  0  0  0  0
  183.4330  178.9970  143.2550 C   0  0  0  0  0  2  0  0  0  0  0  0
  186.0470  178.5890  140.6810 C   0  0  0  0  0  3  0  0  0  0  0  0
  192.4310  177.9830  144.6270 O   0  0  0  0  0  0  0  0  0  0  0  0
  185.9810  178.7740  143.5850 C   0  0  2  0  0  3  0  0  0  0  0  0
  191.1260  176.7760  146.3220 O   0  0  0  0  0  0  0  0  0  0  0  0
  184.2430  178.4480  145.5500 C   0  0  0  0  0  2  0  0  0  0  0  0
  188.2010  177.6010  143.7890 C   0  0  1  0  0  0  0  0  0  0  0  0
  190.4840  176.3780  143.7630 C   0  0  0  0  0  0  0  0  0  0  0  0
  186.4820  177.4960  145.6190 C   0  0  0  0  0  3  0  0  0  0  0  0
  184.9050  178.9840  141.2550 C   0  0  0  0  0  3  0  0  0  0  0  0
  189.9590  178.8730  145.1290 C   0  0  0  0  0  2  0  0  0  0  0  0
  191.0640  177.4850  145.0000 S   0  0  0  0  0  0  0  0  0  0  0  0
  189.0020  178.9100  143.9440 C   0  0  0  0  0  2  0  0  0  0  0  0
  188.3930  175.1310  143.2180 C   0  0  0  0  0  1  0  0  0  0  0  0
  187.3150  178.4530  141.4770 C   0  0  2  0  0  3  0  0  0  0  0  0
  187.7380  177.1720  145.0830 O   0  0  0  0  0  0  0  0  0  0  0  0
  188.2080  177.6360  140.7740 O   0  0  0  0  0  0  0  0  0  0  0  0
  188.3870  178.2540  139.5330 C   0  0  2  0  0  3  0  0  0  0  0  0
  187.6650  177.4520  138.4670 C   0  0  0  0  0  1  0  0  0  0  0  0
  189.8050  178.3190  139.2150 N   0  0  0  0  0  2  0  0  0  0  0  0
  190.4370  177.1780  139.8560 C   0  0  0  0  0  2  0  0  0  0  0  0
  193.2830  177.5170  139.7790 F   0  0  0  0  0  0  0  0  0  0  0  0
  191.3180  176.4710  138.8840 C   0  0  0  0  0  0  0  0  0  0  0  0
  192.7090  176.6680  138.8900 C   0  0  0  0  0  0  0  0  0  0  0  0
  192.9380  175.1060  137.0500 C   0  0  0  0  0  3  0  0  0  0  0  0
  191.5540  174.9080  137.0440 C   0  0  0  0  0  3  0  0  0  0  0  0
  190.7460  175.5900  137.9580 C   0  0  0  0  0  3  0  0  0  0  0  0
  193.5140  175.9860  137.9720 C   0  0  0  0  0  3  0  0  0  0  0  0
  1 12  1  0  0  0  0
  1 15  2  0  0  0  0
  2 16  1  6  0  0  0
  2  7  1  0  0  0  0
  2 10  1  0  0  0  0
  3 10  1  0  0  0  0
  3 13  1  0  0  0  0
  4 12  1  0  0  0  0
  5 20  1  0  0  0  0
  5 14  1  0  0  0  0
  5 13  1  0  0  0  0
  6 14  2  0  0  0  0
  7  4  1  0  0  0  0
  8 16  2  0  0  0  0
  8 21  1  0  0  0  0
  9 18  2  0  0  0  0
 10  1  1  0  0  0  0
 13 19  1  0  0  0  0
 13 22  1  0  0  0  0
 14 18  1  0  0  0  0
 18 17  1  0  0  0  0
 18 11  2  0  0  0  0
 19 17  1  0  0  0  0
 21  3  1  0  0  0  0
 22 15  1  0  0  0  0
 23 21  1  0  0  0  0
 24 23  1  0  0  0  0
 25 24  1  0  0  0  0
 26 24  1  0  0  0  0
 26 27  1  0  0  0  0
 29 30  1  0  0  0  0
 29 27  1  0  0  0  0
 30 28  1  0  0  0  0
 31 34  1  0  0  0  0
 32 31  2  0  0  0  0
 32 33  1  0  0  0  0
 33 29  2  0  0  0  0
 34 30  2  0  0  0  0
M  END
>  <MODEL>
9

>  <REMARK>
 VINA RESULT:      -6.1      5.136      7.472
  Name = 
  5 active torsions:
  status: ('A' for Active; 'I' for Inactive)
    1  A    between atoms: C_3  and  C_13
    2  A    between atoms: C_3  and  N_17
    3  A    between atoms: O_5  and  C_18
    4  A    between atoms: O_5  and  C_31
    5  A    between atoms: N_17  and  C_18
                            x       y       z     vdW  Elec       q    Type
                         _______ _______ _______ _____ _____    ______ ____

>  <TORSDO>
F 5

$$$$
