=
 OpenBabel10262419153D

 34 39  0  0  1  0  0  0  0  0999 V2000
  189.4980  177.2610  146.7300 C   0  0  0  0  0  0  0  0  0  0  0  0
  191.3160  176.2790  145.4430 C   0  0  0  0  0  0  0  0  0  0  0  0
  189.2050  177.0780  144.3120 C   0  0  0  0  0  0  0  0  0  0  0  0
  188.6520  176.9470  141.8330 C   0  0  2  0  0  3  0  0  0  0  0  0
  190.2950  177.2300  147.8750 C   0  0  0  0  0  3  0  0  0  0  0  0
  192.0930  176.2510  146.6050 C   0  0  0  0  0  3  0  0  0  0  0  0
  190.9170  177.6430  142.6230 C   0  0  0  0  0  3  0  0  0  0  0  0
  190.0260  176.8820  145.4640 C   0  0  0  0  0  0  0  0  0  0  0  0
  191.3720  177.8800  141.2140 C   0  0  0  0  0  2  0  0  0  0  0  0
  189.1450  177.2050  140.4010 C   0  0  0  0  0  2  0  0  0  0  0  0
  191.6010  176.7520  147.8080 C   0  0  0  0  0  3  0  0  0  0  0  0
  187.8310  177.3710  144.4780 C   0  0  0  0  0  0  0  0  0  0  0  0
  188.1600  177.6240  146.8630 C   0  0  0  0  0  3  0  0  0  0  0  0
  191.9130  175.2790  144.1220 Cl  0  0  0  0  0  0  0  0  0  0  0  0
  187.5540  177.7880  142.0950 O   0  0  0  0  0  0  0  0  0  0  0  0
  186.9140  177.3140  143.2600 C   0  0  2  0  0  3  0  0  0  0  0  0
  190.6380  176.9460  140.2590 C   0  0  1  0  0  3  0  0  0  0  0  0
  189.6980  177.1650  142.9130 C   0  0  0  0  0  0  0  0  0  0  0  0
  187.3230  177.6360  145.7550 C   0  0  0  0  0  3  0  0  0  0  0  0
  183.4660  178.7340  142.5700 C   0  0  0  0  0  0  0  0  0  0  0  0
  183.1670  179.3580  143.7850 C   0  0  0  0  0  3  0  0  0  0  0  0
  185.6140  178.0400  143.4510 C   0  0  0  0  0  0  0  0  0  0  0  0
  184.0900  179.3230  144.8350 C   0  0  0  0  0  3  0  0  0  0  0  0
  184.6870  178.0750  142.4030 C   0  0  0  0  0  3  0  0  0  0  0  0
  185.3110  178.6640  144.6700 C   0  0  0  0  0  3  0  0  0  0  0  0
  182.3090  178.7760  141.2580 Cl  0  0  0  0  0  0  0  0  0  0  0  0
  191.0480  177.2180  138.8930 N   0  0  0  0  0  2  0  0  0  0  0  0
  191.5040  176.0060  138.3540 N   0  0  0  0  0  2  0  0  0  0  0  0
  190.0170  177.0790  136.7440 C   0  0  0  0  0  2  0  0  0  0  0  0
  190.0340  173.5270  137.2820 N   0  0  0  0  0  2  0  0  0  0  0  0
  189.7760  174.7910  137.2310 C   0  0  0  0  0  0  0  0  0  0  0  0
  188.5310  176.7140  136.8380 C   0  0  0  0  0  3  0  0  0  0  0  0
  190.8210  175.8230  137.0840 C   0  0  2  0  0  3  0  0  0  0  0  0
  188.4670  175.2800  137.0400 N   0  0  0  0  0  0  0  0  0  0  0  0
  1 13  1  0  0  0  0
  1  5  2  0  0  0  0
  2  8  2  0  0  0  0
  2  6  1  0  0  0  0
  3 12  2  0  0  0  0
  3  8  1  0  0  0  0
  4 10  1  6  0  0  0
  4 15  1  0  0  0  0
  4 18  1  0  0  0  0
  6 11  2  0  0  0  0
  7 18  2  0  0  0  0
  8  1  1  0  0  0  0
  9  7  1  0  0  0  0
 11  5  1  0  0  0  0
 12 19  1  0  0  0  0
 14  2  1  0  0  0  0
 15 16  1  0  0  0  0
 16 22  1  1  0  0  0
 16 12  1  0  0  0  0
 17 27  1  6  0  0  0
 17 10  1  0  0  0  0
 17  9  1  0  0  0  0
 18  3  1  0  0  0  0
 19 13  2  0  0  0  0
 20 21  1  0  0  0  0
 21 23  2  0  0  0  0
 22 25  2  0  0  0  0
 24 20  2  0  0  0  0
 24 22  1  0  0  0  0
 25 23  1  0  0  0  0
 26 20  1  0  0  0  0
 28 27  1  0  0  0  0
 29 32  1  0  0  0  0
 29 33  1  0  0  0  0
 31 30  2  0  0  0  0
 32 34  2  0  0  0  0
 33 31  1  0  0  0  0
 33 28  1  1  0  0  0
 34 31  1  0  0  0  0
M  END
>  <MODEL>
1

>  <REMARK>
 VINA RESULT:     -11.4      0.000      0.000
  Name = 
  4 active torsions:
  status: ('A' for Active; 'I' for Inactive)
    1  A    between atoms: N_3  and  N_13
    2  A    between atoms: N_3  and  C_29
    3  A    between atoms: C_12  and  C_28
    4  A    between atoms: N_13  and  C_33
                            x       y       z     vdW  Elec       q    Type
                         _______ _______ _______ _____ _____    ______ ____

>  <TORSDO>
F 4

$$$$
=
 OpenBabel10262419153D

 34 39  0  0  1  0  0  0  0  0999 V2000
  189.4790  177.2690  146.7260 C   0  0  0  0  0  0  0  0  0  0  0  0
  191.3060  176.2670  145.4670 C   0  0  0  0  0  0  0  0  0  0  0  0
  189.2120  177.0700  144.3060 C   0  0  0  0  0  0  0  0  0  0  0  0
  188.6860  176.9240  141.8220 C   0  0  2  0  0  3  0  0  0  0  0  0
  190.2630  177.2410  147.8800 C   0  0  0  0  0  3  0  0  0  0  0  0
  192.0690  176.2420  146.6380 C   0  0  0  0  0  3  0  0  0  0  0  0
  190.9460  177.6130  142.6320 C   0  0  0  0  0  3  0  0  0  0  0  0
  190.0200  176.8780  145.4690 C   0  0  0  0  0  0  0  0  0  0  0  0
  191.4180  177.8360  141.2270 C   0  0  0  0  0  2  0  0  0  0  0  0
  189.1970  177.1680  140.3940 C   0  0  0  0  0  2  0  0  0  0  0  0
  191.5660  176.7550  147.8310 C   0  0  0  0  0  3  0  0  0  0  0  0
  187.8390  177.3720  144.4540 C   0  0  0  0  0  0  0  0  0  0  0  0
  188.1420  177.6410  146.8410 C   0  0  0  0  0  3  0  0  0  0  0  0
  191.9120  175.2540  144.1600 Cl  0  0  0  0  0  0  0  0  0  0  0  0
  187.5910  177.7730  142.0650 O   0  0  0  0  0  0  0  0  0  0  0  0
  186.9340  177.3120  143.2260 C   0  0  2  0  0  3  0  0  0  0  0  0
  190.6900  176.9000  140.2710 C   0  0  1  0  0  3  0  0  0  0  0  0
  189.7210  177.1430  142.9120 C   0  0  0  0  0  0  0  0  0  0  0  0
  187.3170  177.6500  145.7240 C   0  0  0  0  0  3  0  0  0  0  0  0
  183.4860  178.7120  142.5020 C   0  0  0  0  0  0  0  0  0  0  0  0
  183.1940  179.3800  143.6950 C   0  0  0  0  0  3  0  0  0  0  0  0
  185.6370  178.0470  143.3970 C   0  0  0  0  0  0  0  0  0  0  0  0
  184.1220  179.3810  144.7420 C   0  0  0  0  0  3  0  0  0  0  0  0
  184.7050  178.0450  142.3540 C   0  0  0  0  0  3  0  0  0  0  0  0
  185.3410  178.7140  144.5940 C   0  0  0  0  0  3  0  0  0  0  0  0
  182.3230  178.7100  141.1950 Cl  0  0  0  0  0  0  0  0  0  0  0  0
  191.1170  177.1590  138.9070 N   0  0  0  0  0  2  0  0  0  0  0  0
  192.4750  176.8140  138.8310 N   0  0  0  0  0  2  0  0  0  0  0  0
  191.4100  175.6160  136.9910 C   0  0  0  0  0  2  0  0  0  0  0  0
  194.9000  175.2530  137.7640 N   0  0  0  0  0  2  0  0  0  0  0  0
  193.6260  175.1170  137.5990 C   0  0  0  0  0  0  0  0  0  0  0  0
  191.6430  174.1010  136.9360 C   0  0  0  0  0  3  0  0  0  0  0  0
  192.6980  176.2610  137.5050 C   0  0  2  0  0  3  0  0  0  0  0  0
  193.0470  173.8860  137.2260 N   0  0  0  0  0  0  0  0  0  0  0  0
  1 13  1  0  0  0  0
  1  5  2  0  0  0  0
  2  8  2  0  0  0  0
  2  6  1  0  0  0  0
  3 12  2  0  0  0  0
  3  8  1  0  0  0  0
  4 10  1  6  0  0  0
  4 15  1  0  0  0  0
  4 18  1  0  0  0  0
  6 11  2  0  0  0  0
  7 18  2  0  0  0  0
  8  1  1  0  0  0  0
  9  7  1  0  0  0  0
 11  5  1  0  0  0  0
 12 19  1  0  0  0  0
 14  2  1  0  0  0  0
 15 16  1  0  0  0  0
 16 22  1  1  0  0  0
 16 12  1  0  0  0  0
 17 27  1  6  0  0  0
 17 10  1  0  0  0  0
 17  9  1  0  0  0  0
 18  3  1  0  0  0  0
 19 13  2  0  0  0  0
 20 21  1  0  0  0  0
 21 23  2  0  0  0  0
 22 25  2  0  0  0  0
 24 20  2  0  0  0  0
 24 22  1  0  0  0  0
 25 23  1  0  0  0  0
 26 20  1  0  0  0  0
 28 27  1  0  0  0  0
 29 33  1  0  0  0  0
 31 30  2  0  0  0  0
 32 29  1  0  0  0  0
 32 34  2  0  0  0  0
 33 31  1  0  0  0  0
 33 28  1  1  0  0  0
 34 31  1  0  0  0  0
M  END
>  <MODEL>
2

>  <REMARK>
 VINA RESULT:     -11.4      1.119      1.639
  Name = 
  4 active torsions:
  status: ('A' for Active; 'I' for Inactive)
    1  A    between atoms: N_3  and  N_13
    2  A    between atoms: N_3  and  C_29
    3  A    between atoms: C_12  and  C_28
    4  A    between atoms: N_13  and  C_33
                            x       y       z     vdW  Elec       q    Type
                         _______ _______ _______ _____ _____    ______ ____

>  <TORSDO>
F 4

$$$$
=
 OpenBabel10262419153D

 34 39  0  0  1  0  0  0  0  0999 V2000
  187.0630  178.2840  146.9240 C   0  0  0  0  0  0  0  0  0  0  0  0
  189.3080  177.3760  146.6800 C   0  0  0  0  0  0  0  0  0  0  0  0
  187.8350  177.7630  144.6660 C   0  0  0  0  0  0  0  0  0  0  0  0
  188.3940  177.2530  142.2380 C   0  0  2  0  0  3  0  0  0  0  0  0
  187.2990  178.4950  148.2840 C   0  0  0  0  0  3  0  0  0  0  0  0
  189.5180  177.5890  148.0450 C   0  0  0  0  0  3  0  0  0  0  0  0
  190.0660  178.3140  143.7600 C   0  0  0  0  0  3  0  0  0  0  0  0
  188.0990  177.8150  146.0690 C   0  0  0  0  0  0  0  0  0  0  0  0
  191.0620  178.4240  142.6450 C   0  0  0  0  0  2  0  0  0  0  0  0
  189.4330  177.3860  141.1140 C   0  0  0  0  0  2  0  0  0  0  0  0
  188.5350  178.1750  148.8380 C   0  0  0  0  0  3  0  0  0  0  0  0
  186.5060  177.9050  144.2020 C   0  0  0  0  0  0  0  0  0  0  0  0
  185.7760  178.4950  146.4340 C   0  0  0  0  0  3  0  0  0  0  0  0
  190.4660  176.2970  145.9060 Cl  0  0  0  0  0  0  0  0  0  0  0  0
  187.2440  177.9810  141.8820 O   0  0  0  0  0  0  0  0  0  0  0  0
  186.1970  177.5830  142.7420 C   0  0  2  0  0  3  0  0  0  0  0  0
  190.8580  177.2950  141.6430 C   0  0  1  0  0  3  0  0  0  0  0  0
  188.8690  177.7310  143.6000 C   0  0  0  0  0  0  0  0  0  0  0  0
  185.4900  178.2650  145.0950 C   0  0  0  0  0  3  0  0  0  0  0  0
  182.6060  178.7990  142.7110 C   0  0  0  0  0  0  0  0  0  0  0  0
  182.4780  179.2730  141.4030 C   0  0  0  0  0  3  0  0  0  0  0  0
  184.9010  178.1640  142.2600 C   0  0  0  0  0  0  0  0  0  0  0  0
  183.5600  179.1960  140.5210 C   0  0  0  0  0  3  0  0  0  0  0  0
  183.8160  178.2470  143.1400 C   0  0  0  0  0  3  0  0  0  0  0  0
  184.7700  178.6440  140.9490 C   0  0  0  0  0  3  0  0  0  0  0  0
  181.2510  178.8990  143.8150 Cl  0  0  0  0  0  0  0  0  0  0  0  0
  191.7920  177.4400  140.5410 N   0  0  0  0  0  2  0  0  0  0  0  0
  191.4410  176.4820  139.5790 N   0  0  0  0  0  2  0  0  0  0  0  0
  190.3510  177.0160  137.4620 C   0  0  0  0  0  2  0  0  0  0  0  0
  193.8580  176.2720  137.6890 N   0  0  0  0  0  2  0  0  0  0  0  0
  192.5830  176.2770  137.4850 C   0  0  0  0  0  0  0  0  0  0  0  0
  190.5970  176.0430  136.3020 C   0  0  0  0  0  3  0  0  0  0  0  0
  191.6430  177.0960  138.2760 C   0  0  2  0  0  3  0  0  0  0  0  0
  192.0080  175.7140  136.3270 N   0  0  0  0  0  0  0  0  0  0  0  0
  1  5  2  0  0  0  0
  2  6  1  0  0  0  0
  3  8  1  0  0  0  0
  4 10  1  6  0  0  0
  4 18  1  0  0  0  0
  5 11  1  0  0  0  0
  6 11  2  0  0  0  0
  8  2  2  0  0  0  0
  8  1  1  0  0  0  0
  9  7  1  0  0  0  0
 10 17  1  0  0  0  0
 12  3  2  0  0  0  0
 12 19  1  0  0  0  0
 13  1  1  0  0  0  0
 14  2  1  0  0  0  0
 15  4  1  0  0  0  0
 15 16  1  0  0  0  0
 16 22  1  6  0  0  0
 16 12  1  0  0  0  0
 17 27  1  6  0  0  0
 17  9  1  0  0  0  0
 18  7  2  0  0  0  0
 18  3  1  0  0  0  0
 19 13  2  0  0  0  0
 20 24  1  0  0  0  0
 20 26  1  0  0  0  0
 21 20  2  0  0  0  0
 22 24  2  0  0  0  0
 23 25  2  0  0  0  0
 23 21  1  0  0  0  0
 25 22  1  0  0  0  0
 28 27  1  0  0  0  0
 29 33  1  0  0  0  0
 31 30  2  0  0  0  0
 31 33  1  0  0  0  0
 32 34  2  0  0  0  0
 32 29  1  0  0  0  0
 33 28  1  1  0  0  0
 34 31  1  0  0  0  0
M  END
>  <MODEL>
3

>  <REMARK>
 VINA RESULT:     -10.4      1.614      2.399
  Name = 
  4 active torsions:
  status: ('A' for Active; 'I' for Inactive)
    1  A    between atoms: N_3  and  N_13
    2  A    between atoms: N_3  and  C_29
    3  A    between atoms: C_12  and  C_28
    4  A    between atoms: N_13  and  C_33
                            x       y       z     vdW  Elec       q    Type
                         _______ _______ _______ _____ _____    ______ ____

>  <TORSDO>
F 4

$$$$
=
 OpenBabel10262419153D

 34 39  0  0  1  0  0  0  0  0999 V2000
  189.2230  177.1130  145.6170 C   0  0  0  0  0  0  0  0  0  0  0  0
  187.0960  178.2270  146.0130 C   0  0  0  0  0  0  0  0  0  0  0  0
  188.0020  177.9450  143.6730 C   0  0  0  0  0  0  0  0  0  0  0  0
  186.9440  178.7680  141.5110 C   0  0  2  0  0  3  0  0  0  0  0  0
  189.2930  176.7720  146.9690 C   0  0  0  0  0  3  0  0  0  0  0  0
  187.1920  177.8810  147.3640 C   0  0  0  0  0  3  0  0  0  0  0  0
  185.5740  177.6870  143.2980 C   0  0  0  0  0  3  0  0  0  0  0  0
  188.0720  177.7590  145.0880 C   0  0  0  0  0  0  0  0  0  0  0  0
  184.3370  177.7860  142.4560 C   0  0  0  0  0  2  0  0  0  0  0  0
  185.6610  178.8480  140.6690 C   0  0  0  0  0  2  0  0  0  0  0  0
  188.2660  177.1300  147.8360 C   0  0  0  0  0  3  0  0  0  0  0  0
  189.1600  177.7460  142.8860 C   0  0  0  0  0  0  0  0  0  0  0  0
  190.3280  176.8510  144.8090 C   0  0  0  0  0  3  0  0  0  0  0  0
  185.9120  179.4780  145.6460 Cl  0  0  0  0  0  0  0  0  0  0  0  0
  187.8930  177.9910  140.8210 O   0  0  0  0  0  0  0  0  0  0  0  0
  189.1490  178.2010  141.4290 C   0  0  2  0  0  3  0  0  0  0  0  0
  184.4200  178.9990  141.5380 C   0  0  1  0  0  3  0  0  0  0  0  0
  186.7550  178.1820  142.9000 C   0  0  0  0  0  0  0  0  0  0  0  0
  190.3130  177.2040  143.4660 C   0  0  0  0  0  3  0  0  0  0  0  0
  190.8550  176.1560  138.7300 C   0  0  0  0  0  0  0  0  0  0  0  0
  192.2050  176.4070  138.9950 C   0  0  0  0  0  3  0  0  0  0  0  0
  190.2250  177.5710  140.5940 C   0  0  0  0  0  0  0  0  0  0  0  0
  192.5670  177.2410  140.0570 C   0  0  0  0  0  3  0  0  0  0  0  0
  189.8660  176.7390  139.5280 C   0  0  0  0  0  3  0  0  0  0  0  0
  191.5790  177.8240  140.8550 C   0  0  0  0  0  3  0  0  0  0  0  0
  190.4030  175.1140  137.4000 Cl  0  0  0  0  0  0  0  0  0  0  0  0
  183.2420  179.0560  140.6910 N   0  0  0  0  0  2  0  0  0  0  0  0
  182.3050  178.1640  141.2340 N   0  0  0  0  0  2  0  0  0  0  0  0
  181.0740  179.3850  142.9510 C   0  0  0  0  0  2  0  0  0  0  0  0
  179.4290  177.6170  140.2910 N   0  0  0  0  0  2  0  0  0  0  0  0
  179.9220  178.0330  141.4100 C   0  0  0  0  0  0  0  0  0  0  0  0
  179.9480  178.6210  143.6590 C   0  0  0  0  0  3  0  0  0  0  0  0
  181.0940  178.9270  141.4920 C   0  0  2  0  0  3  0  0  0  0  0  0
  179.2300  177.8930  142.6310 N   0  0  0  0  0  0  0  0  0  0  0  0
  1  5  2  0  0  0  0
  2  6  1  0  0  0  0
  3  8  1  0  0  0  0
  4 10  1  6  0  0  0
  4 18  1  0  0  0  0
  5 11  1  0  0  0  0
  6 11  2  0  0  0  0
  8  1  1  0  0  0  0
  8  2  2  0  0  0  0
  9  7  1  0  0  0  0
 10 17  1  0  0  0  0
 12 19  1  0  0  0  0
 12  3  2  0  0  0  0
 13  1  1  0  0  0  0
 14  2  1  0  0  0  0
 15 16  1  0  0  0  0
 15  4  1  0  0  0  0
 16 22  1  6  0  0  0
 16 12  1  0  0  0  0
 17 27  1  6  0  0  0
 17  9  1  0  0  0  0
 18  7  2  0  0  0  0
 18  3  1  0  0  0  0
 19 13  2  0  0  0  0
 20 21  2  0  0  0  0
 20 24  1  0  0  0  0
 21 23  1  0  0  0  0
 22 25  1  0  0  0  0
 23 25  2  0  0  0  0
 24 22  2  0  0  0  0
 26 20  1  0  0  0  0
 27 28  1  0  0  0  0
 29 32  1  0  0  0  0
 30 31  2  0  0  0  0
 31 33  1  0  0  0  0
 31 34  1  0  0  0  0
 33 28  1  1  0  0  0
 33 29  1  0  0  0  0
 34 32  2  0  0  0  0
M  END
>  <MODEL>
4

>  <REMARK>
 VINA RESULT:     -10.2      3.810      7.171
  Name = 
  4 active torsions:
  status: ('A' for Active; 'I' for Inactive)
    1  A    between atoms: N_3  and  N_13
    2  A    between atoms: N_3  and  C_29
    3  A    between atoms: C_12  and  C_28
    4  A    between atoms: N_13  and  C_33
                            x       y       z     vdW  Elec       q    Type
                         _______ _______ _______ _____ _____    ______ ____

>  <TORSDO>
F 4

$$$$
=
 OpenBabel10262419153D

 34 39  0  0  1  0  0  0  0  0999 V2000
  187.1480  177.6850  144.8340 C   0  0  0  0  0  0  0  0  0  0  0  0
  185.0160  178.8550  144.7540 C   0  0  0  0  0  0  0  0  0  0  0  0
  186.3070  178.3590  142.6420 C   0  0  0  0  0  0  0  0  0  0  0  0
  185.6650  179.0020  140.2670 C   0  0  2  0  0  3  0  0  0  0  0  0
  186.9720  177.4630  146.2010 C   0  0  0  0  0  3  0  0  0  0  0  0
  184.8650  178.6280  146.1250 C   0  0  0  0  0  3  0  0  0  0  0  0
  183.9760  178.0990  141.8690 C   0  0  0  0  0  3  0  0  0  0  0  0
  186.1250  178.2960  144.0580 C   0  0  0  0  0  0  0  0  0  0  0  0
  182.9080  178.1390  140.8180 C   0  0  0  0  0  2  0  0  0  0  0  0
  184.5520  179.0250  139.2090 C   0  0  0  0  0  2  0  0  0  0  0  0
  185.8190  177.9080  146.8400 C   0  0  0  0  0  3  0  0  0  0  0  0
  187.5790  178.0770  142.0910 C   0  0  0  0  0  0  0  0  0  0  0  0
  188.3690  177.3400  144.2580 C   0  0  0  0  0  3  0  0  0  0  0  0
  183.9490  180.0840  144.0810 Cl  0  0  0  0  0  0  0  0  0  0  0  0
  186.6980  178.1560  139.8220 O   0  0  0  0  0  0  0  0  0  0  0  0
  187.8350  178.4040  140.6220 C   0  0  2  0  0  3  0  0  0  0  0  0
  183.1830  179.2660  139.8300 C   0  0  1  0  0  3  0  0  0  0  0  0
  185.2210  178.5430  141.6450 C   0  0  0  0  0  0  0  0  0  0  0  0
  188.5980  177.5740  142.9080 C   0  0  0  0  0  3  0  0  0  0  0  0
  189.9650  176.2730  138.3200 C   0  0  0  0  0  0  0  0  0  0  0  0
  191.2220  176.3740  138.9220 C   0  0  0  0  0  3  0  0  0  0  0  0
  189.0210  177.6900  140.0450 C   0  0  0  0  0  0  0  0  0  0  0  0
  191.3820  177.1340  140.0850 C   0  0  0  0  0  3  0  0  0  0  0  0
  188.8660  176.9310  138.8790 C   0  0  0  0  0  3  0  0  0  0  0  0
  190.2850  177.7920  140.6450 C   0  0  0  0  0  3  0  0  0  0  0  0
  189.7660  175.3240  136.8630 Cl  0  0  0  0  0  0  0  0  0  0  0  0
  182.1720  179.2630  138.7870 N   0  0  0  0  0  2  0  0  0  0  0  0
  181.9890  180.5970  138.3930 N   0  0  0  0  0  2  0  0  0  0  0  0
  180.3650  181.5940  136.8690 C   0  0  0  0  0  2  0  0  0  0  0  0
  179.7330  181.2250  140.3860 N   0  0  0  0  0  2  0  0  0  0  0  0
  179.9870  181.6390  139.1890 C   0  0  0  0  0  0  0  0  0  0  0  0
  179.7830  182.9520  137.2830 C   0  0  0  0  0  3  0  0  0  0  0  0
  180.5670  180.7740  138.1430 C   0  0  2  0  0  3  0  0  0  0  0  0
  179.4890  182.8630  138.6990 N   0  0  0  0  0  0  0  0  0  0  0  0
  1  5  2  0  0  0  0
  2  6  1  0  0  0  0
  3  8  1  0  0  0  0
  4 10  1  6  0  0  0
  4 18  1  0  0  0  0
  5 11  1  0  0  0  0
  6 11  2  0  0  0  0
  8  2  2  0  0  0  0
  8  1  1  0  0  0  0
  9  7  1  0  0  0  0
 10 17  1  0  0  0  0
 12  3  2  0  0  0  0
 12 19  1  0  0  0  0
 13  1  1  0  0  0  0
 14  2  1  0  0  0  0
 15  4  1  0  0  0  0
 15 16  1  0  0  0  0
 16 22  1  6  0  0  0
 16 12  1  0  0  0  0
 17 27  1  6  0  0  0
 17  9  1  0  0  0  0
 18  7  2  0  0  0  0
 18  3  1  0  0  0  0
 19 13  2  0  0  0  0
 20 24  2  0  0  0  0
 20 21  1  0  0  0  0
 21 23  2  0  0  0  0
 22 25  2  0  0  0  0
 23 25  1  0  0  0  0
 24 22  1  0  0  0  0
 26 20  1  0  0  0  0
 28 27  1  0  0  0  0
 29 32  1  0  0  0  0
 29 33  1  0  0  0  0
 31 30  2  0  0  0  0
 32 34  2  0  0  0  0
 33 28  1  1  0  0  0
 33 31  1  0  0  0  0
 34 31  1  0  0  0  0
M  END
>  <MODEL>
5

>  <REMARK>
 VINA RESULT:     -10.0      4.539      7.692
  Name = 
  4 active torsions:
  status: ('A' for Active; 'I' for Inactive)
    1  A    between atoms: N_3  and  N_13
    2  A    between atoms: N_3  and  C_29
    3  A    between atoms: C_12  and  C_28
    4  A    between atoms: N_13  and  C_33
                            x       y       z     vdW  Elec       q    Type
                         _______ _______ _______ _____ _____    ______ ____

>  <TORSDO>
F 4

$$$$
=
 OpenBabel10262419153D

 34 39  0  0  1  0  0  0  0  0999 V2000
  191.2380  176.4260  145.0240 C   0  0  0  0  0  0  0  0  0  0  0  0
  189.8090  177.3790  146.7480 C   0  0  0  0  0  0  0  0  0  0  0  0
  189.1730  177.5160  144.3080 C   0  0  0  0  0  0  0  0  0  0  0  0
  187.1150  178.6380  143.3210 C   0  0  2  0  0  3  0  0  0  0  0  0
  192.0550  175.8730  146.0120 C   0  0  0  0  0  3  0  0  0  0  0  0
  190.6460  176.8220  147.7180 C   0  0  0  0  0  3  0  0  0  0  0  0
  186.9660  177.2300  145.3790 C   0  0  0  0  0  3  0  0  0  0  0  0
  190.0370  177.1050  145.3690 C   0  0  0  0  0  0  0  0  0  0  0  0
  185.4800  177.4170  145.4390 C   0  0  0  0  0  2  0  0  0  0  0  0
  185.5900  178.8050  143.4060 C   0  0  0  0  0  2  0  0  0  0  0  0
  191.7440  176.0460  147.3570 C   0  0  0  0  0  3  0  0  0  0  0  0
  189.6470  177.4910  142.9760 C   0  0  0  0  0  0  0  0  0  0  0  0
  191.6520  176.3410  143.6970 C   0  0  0  0  0  3  0  0  0  0  0  0
  188.7140  178.6270  147.3350 Cl  0  0  0  0  0  0  0  0  0  0  0  0
  187.4380  178.0200  142.0990 O   0  0  0  0  0  0  0  0  0  0  0  0
  188.8250  178.1760  141.8880 C   0  0  2  0  0  3  0  0  0  0  0  0
  185.0930  178.7650  144.8440 C   0  0  1  0  0  3  0  0  0  0  0  0
  187.7280  177.8280  144.4510 C   0  0  0  0  0  0  0  0  0  0  0  0
  190.8860  176.9060  142.6860 C   0  0  0  0  0  3  0  0  0  0  0  0
  188.8390  177.9130  138.1050 C   0  0  0  0  0  0  0  0  0  0  0  0
  189.8290  176.9500  137.8910 C   0  0  0  0  0  3  0  0  0  0  0  0
  189.1760  177.7320  140.4980 C   0  0  0  0  0  0  0  0  0  0  0  0
  190.4960  176.3770  138.9790 C   0  0  0  0  0  3  0  0  0  0  0  0
  188.5140  178.3050  139.4070 C   0  0  0  0  0  3  0  0  0  0  0  0
  190.1710  176.7680  140.2800 C   0  0  0  0  0  3  0  0  0  0  0  0
  188.0080  178.6310  136.7430 Cl  0  0  0  0  0  0  0  0  0  0  0  0
  183.6490  178.9140  144.8610 N   0  0  0  0  0  2  0  0  0  0  0  0
  183.1580  178.2640  143.7190 N   0  0  0  0  0  2  0  0  0  0  0  0
  180.7740  178.7230  143.9680 C   0  0  0  0  0  2  0  0  0  0  0  0
  182.4700  179.0020  140.8140 N   0  0  0  0  0  2  0  0  0  0  0  0
  181.7460  178.6640  141.8280 C   0  0  0  0  0  0  0  0  0  0  0  0
  179.8350  178.0170  142.9820 C   0  0  0  0  0  3  0  0  0  0  0  0
  182.0580  179.0690  143.2130 C   0  0  2  0  0  3  0  0  0  0  0  0
  180.4590  178.1090  141.6770 N   0  0  0  0  0  0  0  0  0  0  0  0
  1  8  1  0  0  0  0
  1  5  2  0  0  0  0
  2 14  1  0  0  0  0
  2  6  1  0  0  0  0
  3 18  1  0  0  0  0
  3  8  1  0  0  0  0
  4 10  1  1  0  0  0
  4 18  1  0  0  0  0
  5 11  1  0  0  0  0
  7  9  1  0  0  0  0
  8  2  2  0  0  0  0
 10 17  1  0  0  0  0
 11  6  2  0  0  0  0
 12  3  2  0  0  0  0
 13  1  1  0  0  0  0
 15  4  1  0  0  0  0
 16 22  1  6  0  0  0
 16 15  1  0  0  0  0
 16 12  1  0  0  0  0
 17 27  1  6  0  0  0
 17  9  1  0  0  0  0
 18  7  2  0  0  0  0
 19 12  1  0  0  0  0
 19 13  2  0  0  0  0
 20 24  1  0  0  0  0
 21 20  2  0  0  0  0
 21 23  1  0  0  0  0
 23 25  2  0  0  0  0
 24 22  2  0  0  0  0
 25 22  1  0  0  0  0
 26 20  1  0  0  0  0
 28 27  1  0  0  0  0
 30 31  2  0  0  0  0
 31 33  1  0  0  0  0
 32 29  1  0  0  0  0
 33 28  1  1  0  0  0
 33 29  1  0  0  0  0
 34 31  1  0  0  0  0
 34 32  2  0  0  0  0
M  END
>  <MODEL>
6

>  <REMARK>
 VINA RESULT:      -9.9      3.697      6.683
  Name = 
  4 active torsions:
  status: ('A' for Active; 'I' for Inactive)
    1  A    between atoms: N_3  and  N_13
    2  A    between atoms: N_3  and  C_29
    3  A    between atoms: C_12  and  C_28
    4  A    between atoms: N_13  and  C_33
                            x       y       z     vdW  Elec       q    Type
                         _______ _______ _______ _____ _____    ______ ____

>  <TORSDO>
F 4

$$$$
=
 OpenBabel10262419153D

 34 39  0  0  1  0  0  0  0  0999 V2000
  184.8310  178.6110  144.7190 C   0  0  0  0  0  0  0  0  0  0  0  0
  186.9500  177.5000  144.2710 C   0  0  0  0  0  0  0  0  0  0  0  0
  185.4670  178.2850  142.3830 C   0  0  0  0  0  0  0  0  0  0  0  0
  185.8880  178.0130  139.8900 C   0  0  2  0  0  3  0  0  0  0  0  0
  185.1330  178.6300  146.0820 C   0  0  0  0  0  3  0  0  0  0  0  0
  187.2260  177.5230  145.6410 C   0  0  0  0  0  3  0  0  0  0  0  0
  187.7170  178.6940  141.4490 C   0  0  0  0  0  3  0  0  0  0  0  0
  185.7800  178.1390  143.7700 C   0  0  0  0  0  0  0  0  0  0  0  0
  188.6820  178.8280  140.3100 C   0  0  0  0  0  2  0  0  0  0  0  0
  186.8990  178.1660  138.7430 C   0  0  0  0  0  2  0  0  0  0  0  0
  186.3410  178.1130  146.5400 C   0  0  0  0  0  3  0  0  0  0  0  0
  184.1490  178.6250  141.9990 C   0  0  0  0  0  0  0  0  0  0  0  0
  183.5620  179.0190  144.3150 C   0  0  0  0  0  3  0  0  0  0  0  0
  187.9520  176.4020  143.3260 Cl  0  0  0  0  0  0  0  0  0  0  0  0
  184.8170  178.8990  139.6730 O   0  0  0  0  0  0  0  0  0  0  0  0
  183.7590  178.5170  140.5280 C   0  0  2  0  0  3  0  0  0  0  0  0
  188.3200  177.8570  139.1940 C   0  0  1  0  0  3  0  0  0  0  0  0
  186.4560  178.2690  141.2750 C   0  0  0  0  0  0  0  0  0  0  0  0
  183.2090  178.9850  142.9720 C   0  0  0  0  0  3  0  0  0  0  0  0
  181.4540  181.0280  138.8660 C   0  0  0  0  0  0  0  0  0  0  0  0
  180.2280  180.7290  139.4680 C   0  0  0  0  0  3  0  0  0  0  0  0
  182.5230  179.2900  140.1740 C   0  0  0  0  0  0  0  0  0  0  0  0
  180.1460  179.7100  140.4210 C   0  0  0  0  0  3  0  0  0  0  0  0
  182.6000  180.3090  139.2180 C   0  0  0  0  0  3  0  0  0  0  0  0
  181.2910  178.9900  140.7730 C   0  0  0  0  0  3  0  0  0  0  0  0
  181.5550  182.3020  137.6710 Cl  0  0  0  0  0  0  0  0  0  0  0  0
  189.2290  178.0300  138.0760 N   0  0  0  0  0  2  0  0  0  0  0  0
  189.3890  176.7710  137.4790 N   0  0  0  0  0  2  0  0  0  0  0  0
  191.5270  176.8200  138.6540 C   0  0  0  0  0  2  0  0  0  0  0  0
  190.1180  173.7860  137.3440 N   0  0  0  0  0  2  0  0  0  0  0  0
  190.8090  174.8480  137.5930 C   0  0  0  0  0  0  0  0  0  0  0  0
  192.7090  176.1380  137.9520 C   0  0  0  0  0  3  0  0  0  0  0  0
  190.2740  176.0020  138.3410 C   0  0  2  0  0  3  0  0  0  0  0  0
  192.2070  174.8910  137.4110 N   0  0  0  0  0  0  0  0  0  0  0  0
  1  5  2  0  0  0  0
  2  6  1  0  0  0  0
  3  8  1  0  0  0  0
  4 10  1  6  0  0  0
  4 18  1  0  0  0  0
  5 11  1  0  0  0  0
  6 11  2  0  0  0  0
  8  2  2  0  0  0  0
  8  1  1  0  0  0  0
  9  7  1  0  0  0  0
 10 17  1  0  0  0  0
 12  3  2  0  0  0  0
 12 19  1  0  0  0  0
 13  1  1  0  0  0  0
 14  2  1  0  0  0  0
 15  4  1  0  0  0  0
 15 16  1  0  0  0  0
 16 22  1  1  0  0  0
 16 12  1  0  0  0  0
 17 27  1  6  0  0  0
 17  9  1  0  0  0  0
 18  7  2  0  0  0  0
 18  3  1  0  0  0  0
 19 13  2  0  0  0  0
 20 24  2  0  0  0  0
 20 21  1  0  0  0  0
 21 23  2  0  0  0  0
 22 25  2  0  0  0  0
 23 25  1  0  0  0  0
 24 22  1  0  0  0  0
 26 20  1  0  0  0  0
 28 27  1  0  0  0  0
 30 31  2  0  0  0  0
 31 33  1  0  0  0  0
 32 29  1  0  0  0  0
 33 28  1  6  0  0  0
 33 29  1  0  0  0  0
 34 31  1  0  0  0  0
 34 32  2  0  0  0  0
M  END
>  <MODEL>
7

>  <REMARK>
 VINA RESULT:      -9.8      2.594      4.244
  Name = 
  4 active torsions:
  status: ('A' for Active; 'I' for Inactive)
    1  A    between atoms: N_3  and  N_13
    2  A    between atoms: N_3  and  C_29
    3  A    between atoms: C_12  and  C_28
    4  A    between atoms: N_13  and  C_33
                            x       y       z     vdW  Elec       q    Type
                         _______ _______ _______ _____ _____    ______ ____

>  <TORSDO>
F 4

$$$$
=
 OpenBabel10262419153D

 34 39  0  0  1  0  0  0  0  0999 V2000
  181.1930  178.7400  143.6200 C   0  0  0  0  0  0  0  0  0  0  0  0
  180.8060  179.2840  141.2790 C   0  0  0  0  0  0  0  0  0  0  0  0
  183.1290  178.7750  142.1300 C   0  0  0  0  0  0  0  0  0  0  0  0
  185.2900  178.7990  140.7910 C   0  0  2  0  0  3  0  0  0  0  0  0
  179.8150  178.7250  143.8410 C   0  0  0  0  0  3  0  0  0  0  0  0
  179.4310  179.2710  141.5270 C   0  0  0  0  0  3  0  0  0  0  0  0
  183.2020  177.7860  139.8680 C   0  0  0  0  0  3  0  0  0  0  0  0
  181.7180  178.9180  142.3100 C   0  0  0  0  0  0  0  0  0  0  0  0
  183.9200  177.3610  138.6230 C   0  0  0  0  0  2  0  0  0  0  0  0
  186.0000  178.3450  139.5070 C   0  0  0  0  0  2  0  0  0  0  0  0
  178.9340  178.9620  142.7910 C   0  0  0  0  0  3  0  0  0  0  0  0
  183.9740  178.7400  143.2630 C   0  0  0  0  0  0  0  0  0  0  0  0
  182.0420  178.6280  144.7190 C   0  0  0  0  0  3  0  0  0  0  0  0
  181.2850  180.0540  139.7700 Cl  0  0  0  0  0  0  0  0  0  0  0  0
  185.9110  178.1860  141.8950 O   0  0  0  0  0  0  0  0  0  0  0  0
  185.4820  178.8570  143.0610 C   0  0  2  0  0  3  0  0  0  0  0  0
  185.0560  178.3280  138.3120 C   0  0  1  0  0  3  0  0  0  0  0  0
  183.8030  178.4910  140.8380 C   0  0  0  0  0  0  0  0  0  0  0  0
  183.4200  178.6720  144.5470 C   0  0  0  0  0  3  0  0  0  0  0  0
  188.3290  177.4220  145.1130 C   0  0  0  0  0  0  0  0  0  0  0  0
  187.8250  177.5280  146.4130 C   0  0  0  0  0  3  0  0  0  0  0  0
  186.2860  178.3860  144.2370 C   0  0  0  0  0  0  0  0  0  0  0  0
  186.5520  178.0650  146.6270 C   0  0  0  0  0  3  0  0  0  0  0  0
  187.5620  177.8510  144.0270 C   0  0  0  0  0  3  0  0  0  0  0  0
  185.7830  178.4940  145.5420 C   0  0  0  0  0  3  0  0  0  0  0  0
  189.9240  176.7530  144.8460 Cl  0  0  0  0  0  0  0  0  0  0  0  0
  185.7760  177.8790  137.1340 N   0  0  0  0  0  2  0  0  0  0  0  0
  186.8480  177.0940  137.5840 N   0  0  0  0  0  2  0  0  0  0  0  0
  188.6630  176.0080  136.3670 C   0  0  0  0  0  2  0  0  0  0  0  0
  188.9070  179.3780  137.5900 N   0  0  0  0  0  2  0  0  0  0  0  0
  189.0040  178.1090  137.3670 C   0  0  0  0  0  0  0  0  0  0  0  0
  190.0510  176.0640  137.0170 C   0  0  0  0  0  3  0  0  0  0  0  0
  187.9580  177.3300  136.6750 C   0  0  2  0  0  3  0  0  0  0  0  0
  190.2200  177.4130  137.5200 N   0  0  0  0  0  0  0  0  0  0  0  0
  1  5  1  0  0  0  0
  1 13  1  0  0  0  0
  2  6  2  0  0  0  0
  2  8  1  0  0  0  0
  3  8  1  0  0  0  0
  3 12  2  0  0  0  0
  4 10  1  6  0  0  0
  4 18  1  0  0  0  0
  4 15  1  0  0  0  0
  6 11  1  0  0  0  0
  7 18  2  0  0  0  0
  8  1  2  0  0  0  0
  9  7  1  0  0  0  0
 11  5  2  0  0  0  0
 12 19  1  0  0  0  0
 14  2  1  0  0  0  0
 15 16  1  0  0  0  0
 16 12  1  0  0  0  0
 16 22  1  1  0  0  0
 17 27  1  6  0  0  0
 17  9  1  0  0  0  0
 17 10  1  0  0  0  0
 18  3  1  0  0  0  0
 19 13  2  0  0  0  0
 20 21  1  0  0  0  0
 21 23  2  0  0  0  0
 22 25  2  0  0  0  0
 24 22  1  0  0  0  0
 24 20  2  0  0  0  0
 25 23  1  0  0  0  0
 26 20  1  0  0  0  0
 27 28  1  0  0  0  0
 29 33  1  0  0  0  0
 29 32  1  0  0  0  0
 31 34  1  0  0  0  0
 31 30  2  0  0  0  0
 32 34  2  0  0  0  0
 33 31  1  0  0  0  0
 33 28  1  1  0  0  0
M  END
>  <MODEL>
8

>  <REMARK>
 VINA RESULT:      -9.7      2.337      6.913
  Name = 
  4 active torsions:
  status: ('A' for Active; 'I' for Inactive)
    1  A    between atoms: N_3  and  N_13
    2  A    between atoms: N_3  and  C_29
    3  A    between atoms: C_12  and  C_28
    4  A    between atoms: N_13  and  C_33
                            x       y       z     vdW  Elec       q    Type
                         _______ _______ _______ _____ _____    ______ ____

>  <TORSDO>
F 4

$$$$
=
 OpenBabel10262419153D

 34 39  0  0  1  0  0  0  0  0999 V2000
  187.2890  177.6240  144.6010 C   0  0  0  0  0  0  0  0  0  0  0  0
  185.1640  178.8090  144.6630 C   0  0  0  0  0  0  0  0  0  0  0  0
  186.3170  178.3190  142.4700 C   0  0  0  0  0  0  0  0  0  0  0  0
  185.5310  178.9820  140.1440 C   0  0  2  0  0  3  0  0  0  0  0  0
  187.1980  177.3940  145.9750 C   0  0  0  0  0  3  0  0  0  0  0  0
  185.0990  178.5730  146.0390 C   0  0  0  0  0  3  0  0  0  0  0  0
  183.9390  178.0780  141.8440 C   0  0  0  0  0  3  0  0  0  0  0  0
  186.2230  178.2470  143.8950 C   0  0  0  0  0  0  0  0  0  0  0  0
  182.8080  178.1310  140.8630 C   0  0  0  0  0  2  0  0  0  0  0  0
  184.3530  179.0180  139.1590 C   0  0  0  0  0  2  0  0  0  0  0  0
  186.0910  177.8420  146.6880 C   0  0  0  0  0  3  0  0  0  0  0  0
  187.5490  178.0320  141.8390 C   0  0  0  0  0  0  0  0  0  0  0  0
  188.4690  177.2760  143.9470 C   0  0  0  0  0  3  0  0  0  0  0  0
  184.0650  180.0480  144.0660 Cl  0  0  0  0  0  0  0  0  0  0  0  0
  186.5280  178.1320  139.6310 O   0  0  0  0  0  0  0  0  0  0  0  0
  187.7140  178.3670  140.3590 C   0  0  2  0  0  3  0  0  0  0  0  0
  183.0270  179.2630  139.8660 C   0  0  1  0  0  3  0  0  0  0  0  0
  185.1710  178.5160  141.5450 C   0  0  0  0  0  0  0  0  0  0  0  0
  188.6150  177.5180  142.5870 C   0  0  0  0  0  3  0  0  0  0  0  0
  191.2270  177.1510  139.6140 C   0  0  0  0  0  0  0  0  0  0  0  0
  191.0090  176.3010  138.5260 C   0  0  0  0  0  3  0  0  0  0  0  0
  188.8570  177.6500  139.7030 C   0  0  0  0  0  0  0  0  0  0  0  0
  189.7160  176.1220  138.0250 C   0  0  0  0  0  3  0  0  0  0  0  0
  190.1530  177.8230  140.2030 C   0  0  0  0  0  3  0  0  0  0  0  0
  188.6410  176.7940  138.6140 C   0  0  0  0  0  3  0  0  0  0  0  0
  192.8460  177.3710  140.2410 Cl  0  0  0  0  0  0  0  0  0  0  0  0
  181.9530  179.2740  138.8900 N   0  0  0  0  0  2  0  0  0  0  0  0
  182.4160  178.5750  137.7650 N   0  0  0  0  0  2  0  0  0  0  0  0
  180.0890  177.9660  138.1740 C   0  0  0  0  0  2  0  0  0  0  0  0
  182.5430  175.5780  137.0850 N   0  0  0  0  0  2  0  0  0  0  0  0
  181.6840  176.2970  137.7290 C   0  0  0  0  0  0  0  0  0  0  0  0
  179.8480  176.7520  139.0800 C   0  0  0  0  0  3  0  0  0  0  0  0
  181.3460  177.6820  137.3500 C   0  0  2  0  0  3  0  0  0  0  0  0
  180.8030  175.7380  138.6790 N   0  0  0  0  0  0  0  0  0  0  0  0
  1  5  2  0  0  0  0
  2  6  1  0  0  0  0
  3  8  1  0  0  0  0
  4 10  1  6  0  0  0
  4 18  1  0  0  0  0
  5 11  1  0  0  0  0
  6 11  2  0  0  0  0
  8  1  1  0  0  0  0
  8  2  2  0  0  0  0
  9  7  1  0  0  0  0
 10 17  1  0  0  0  0
 12  3  2  0  0  0  0
 12 19  1  0  0  0  0
 13  1  1  0  0  0  0
 14  2  1  0  0  0  0
 15  4  1  0  0  0  0
 15 16  1  0  0  0  0
 16 22  1  6  0  0  0
 16 12  1  0  0  0  0
 17 27  1  6  0  0  0
 17  9  1  0  0  0  0
 18  7  2  0  0  0  0
 18  3  1  0  0  0  0
 19 13  2  0  0  0  0
 20 24  1  0  0  0  0
 20 26  1  0  0  0  0
 21 20  2  0  0  0  0
 22 24  2  0  0  0  0
 23 21  1  0  0  0  0
 23 25  2  0  0  0  0
 25 22  1  0  0  0  0
 28 27  1  0  0  0  0
 29 32  1  0  0  0  0
 30 31  2  0  0  0  0
 31 34  1  0  0  0  0
 33 31  1  0  0  0  0
 33 28  1  1  0  0  0
 33 29  1  0  0  0  0
 34 32  2  0  0  0  0
M  END
>  <MODEL>
9

>  <REMARK>
 VINA RESULT:      -9.7      3.552      7.064
  Name = 
  4 active torsions:
  status: ('A' for Active; 'I' for Inactive)
    1  A    between atoms: N_3  and  N_13
    2  A    between atoms: N_3  and  C_29
    3  A    between atoms: C_12  and  C_28
    4  A    between atoms: N_13  and  C_33
                            x       y       z     vdW  Elec       q    Type
                         _______ _______ _______ _____ _____    ______ ____

>  <TORSDO>
F 4

$$$$
