=
 OpenBabel10262421213D

 32 34  0  0  1  0  0  0  0  0999 V2000
  186.5260  177.7610  142.4700 O   0  0  0  0  0  0  0  0  0  0  0  0
  186.1930  178.9210  141.7660 C   0  0  0  0  0  2  0  0  0  0  0  0
  185.1320  178.6290  140.7120 C   0  0  2  0  0  3  0  0  0  0  0  0
  184.8050  179.7850  139.9970 O   0  0  0  0  0  1  0  0  0  0  0  0
  183.8880  177.9430  141.2910 C   0  0  2  0  0  3  0  0  0  0  0  0
  183.4030  176.9810  140.4040 O   0  0  0  0  0  1  0  0  0  0  0  0
  182.7720  178.8980  141.7420 C   0  0  0  0  0  2  0  0  0  0  0  0
  182.3860  178.7390  143.2100 C   0  0  2  0  0  3  0  0  0  0  0  0
  180.9890  179.3060  143.4290 C   0  0  1  0  0  3  0  0  0  0  0  0
  180.0540  178.8380  142.3320 C   0  0  0  0  0  2  0  0  0  0  0  0
  180.0170  178.1700  143.6890 C   0  0  2  0  0  3  0  0  0  0  0  0
  178.9310  178.6580  144.4120 O   0  0  0  0  0  1  0  0  0  0  0  0
  183.3850  179.4830  144.0830 C   0  0  0  0  0  2  0  0  0  0  0  0
  183.9060  178.5780  145.1860 C   0  0  0  0  0  2  0  0  0  0  0  0
  185.1180  178.6600  147.2400 O   0  0  0  0  0  1  0  0  0  0  0  0
  184.9450  179.3070  146.0160 C   0  0  0  0  0  2  0  0  0  0  0  0
  187.9180  177.6600  142.3750 C   0  0  2  0  0  3  0  0  0  0  0  0
  188.5680  177.8950  143.7370 C   0  0  1  0  0  3  0  0  0  0  0  0
  187.5660  177.6560  144.9100 C   0  0  0  0  0  2  0  0  0  0  0  0
  191.4930  176.3630  146.8840 C   0  0  0  0  0  0  0  0  0  0  0  0
  189.8740  177.0760  143.8580 C   0  0  0  0  0  2  0  0  0  0  0  0
  190.1990  176.5300  147.3650 O   0  0  0  0  0  0  0  0  0  0  0  0
  189.4020  176.7300  146.2190 C   0  0  1  0  0  3  0  0  0  0  0  0
  188.2320  177.6800  146.3030 C   0  0  0  0  0  2  0  0  0  0  0  0
  191.6460  176.7000  145.6410 N   0  0  0  0  0  0  0  0  0  0  0  0
  192.5990  175.8020  147.7040 C   0  0  0  0  0  1  0  0  0  0  0  0
  190.3880  177.3130  145.2570 C   0  0  1  0  0  3  0  0  0  0  0  0
  188.4520  178.6640  141.3560 C   0  0  0  0  0  2  0  0  0  0  0  0
  189.0480  177.9800  140.1660 C   0  0  0  0  0  0  0  0  0  0  0  0
  188.7590  178.4000  138.9330 C   0  0  0  0  0  2  0  0  0  0  0  0
  191.3780  177.1860  139.8770 C   0  0  0  0  0  1  0  0  0  0  0  0
  189.9870  176.8360  140.3740 C   0  0  0  0  0  2  0  0  0  0  0  0
  2  1  1  0  0  0  0
  3  4  1  1  0  0  0
  3  5  1  0  0  0  0
  3  2  1  0  0  0  0
  5  6  1  6  0  0  0
  5  7  1  0  0  0  0
  8  7  1  6  0  0  0
  8 13  1  0  0  0  0
  9  8  1  6  0  0  0
  9 11  1  0  0  0  0
 10  9  1  0  0  0  0
 10 11  1  0  0  0  0
 11 12  1  1  0  0  0
 13 14  1  0  0  0  0
 14 16  1  0  0  0  0
 16 15  1  0  0  0  0
 17 28  1  6  0  0  0
 17  1  1  0  0  0  0
 18 17  1  6  0  0  0
 18 21  1  0  0  0  0
 18 19  1  0  0  0  0
 19 24  1  0  0  0  0
 20 22  1  0  0  0  0
 20 26  1  0  0  0  0
 23 24  1  1  0  0  0
 23 22  1  0  0  0  0
 25 20  2  0  0  0  0
 27 21  1  6  0  0  0
 27 25  1  0  0  0  0
 27 23  1  0  0  0  0
 29 32  1  0  0  0  0
 29 28  1  0  0  0  0
 30 29  2  0  0  0  0
 31 32  1  0  0  0  0
M  END
>  <MODEL>
1

>  <REMARK>
 VINA RESULT:      -7.6      0.000      0.000
  Name = 
  14 active torsions:
  status: ('A' for Active; 'I' for Inactive)
    1  A    between atoms: C_1  and  C_4
    2  A    between atoms: C_1  and  O_5
    3  A    between atoms: C_2  and  C_14
    4  A    between atoms: C_3  and  C_20
    5  A    between atoms: C_4  and  C_24
    6  A    between atoms: O_5  and  C_14
    7  A    between atoms: C_13  and  C_29
    8  A    between atoms: C_13  and  C_30
    9  A    between atoms: C_14  and  C_30
   10  A    between atoms: C_15  and  C_20
   11  A    between atoms: C_15  and  C_26
   12  A    between atoms: C_16  and  C_20
   13  A    between atoms: C_16  and  C_24
   14  A    between atoms: C_19  and  C_26
                            x       y       z     vdW  Elec       q    Type
                         _______ _______ _______ _____ _____    ______ ____

>  <TORSDO>
F 14

$$$$
=
 OpenBabel10262421213D

 32 34  0  0  1  0  0  0  0  0999 V2000
  188.8740  178.3030  143.1920 O   0  0  0  0  0  0  0  0  0  0  0  0
  190.1090  177.8910  142.6860 C   0  0  0  0  0  2  0  0  0  0  0  0
  189.9570  176.6250  141.8500 C   0  0  2  0  0  3  0  0  0  0  0  0
  190.4720  175.5150  142.5240 O   0  0  0  0  0  1  0  0  0  0  0  0
  190.5470  176.7650  140.4410 C   0  0  2  0  0  3  0  0  0  0  0  0
  191.7660  177.4440  140.4880 O   0  0  0  0  0  1  0  0  0  0  0  0
  189.6020  177.3860  139.4020 C   0  0  0  0  0  2  0  0  0  0  0  0
  189.3730  176.5030  138.1780 C   0  0  2  0  0  3  0  0  0  0  0  0
  190.2990  176.9490  137.0530 C   0  0  1  0  0  3  0  0  0  0  0  0
  191.6470  176.2710  137.1840 C   0  0  0  0  0  2  0  0  0  0  0  0
  190.6400  175.7570  136.1780 C   0  0  2  0  0  3  0  0  0  0  0  0
  190.9860  176.2120  134.9070 O   0  0  0  0  0  1  0  0  0  0  0  0
  187.9240  176.6220  137.7280 C   0  0  0  0  0  2  0  0  0  0  0  0
  187.4560  178.0640  137.8110 C   0  0  0  0  0  2  0  0  0  0  0  0
  185.9550  178.8090  139.5100 O   0  0  0  0  0  1  0  0  0  0  0  0
  186.0210  178.1230  138.2960 C   0  0  0  0  0  2  0  0  0  0  0  0
  188.6950  177.5680  144.3690 C   0  0  2  0  0  3  0  0  0  0  0  0
  187.2160  177.5130  144.7470 C   0  0  1  0  0  3  0  0  0  0  0  0
  186.9290  178.2590  146.0890 C   0  0  0  0  0  2  0  0  0  0  0  0
  182.9940  178.9940  143.8600 C   0  0  0  0  0  0  0  0  0  0  0  0
  186.3410  177.9960  143.5670 C   0  0  0  0  0  2  0  0  0  0  0  0
  183.4150  179.2650  145.1580 O   0  0  0  0  0  0  0  0  0  0  0  0
  184.7990  178.9970  145.1610 C   0  0  1  0  0  3  0  0  0  0  0  0
  185.4240  178.4060  146.4010 C   0  0  0  0  0  2  0  0  0  0  0  0
  183.8590  178.3450  143.1450 N   0  0  0  0  0  0  0  0  0  0  0  0
  181.6870  179.4490  143.3180 C   0  0  0  0  0  1  0  0  0  0  0  0
  184.9170  177.9810  144.0680 C   0  0  1  0  0  3  0  0  0  0  0  0
  189.5070  178.1850  145.5060 C   0  0  0  0  0  2  0  0  0  0  0  0
  190.2330  177.1430  146.2950 C   0  0  0  0  0  0  0  0  0  0  0  0
  189.6880  176.6330  147.4010 C   0  0  0  0  0  2  0  0  0  0  0  0
  192.1930  175.7240  146.8350 C   0  0  0  0  0  1  0  0  0  0  0  0
  191.5660  176.6610  145.8180 C   0  0  0  0  0  2  0  0  0  0  0  0
  1 17  1  0  0  0  0
  2  1  1  0  0  0  0
  3  4  1  1  0  0  0
  3  2  1  0  0  0  0
  5  6  1  1  0  0  0
  5  3  1  0  0  0  0
  7  5  1  0  0  0  0
  8 13  1  6  0  0  0
  8  7  1  0  0  0  0
  9 10  1  0  0  0  0
  9  8  1  1  0  0  0
 11 12  1  6  0  0  0
 11  9  1  0  0  0  0
 11 10  1  0  0  0  0
 13 14  1  0  0  0  0
 14 16  1  0  0  0  0
 16 15  1  0  0  0  0
 17 28  1  1  0  0  0
 18 17  1  6  0  0  0
 18 19  1  0  0  0  0
 19 24  1  0  0  0  0
 20 22  1  0  0  0  0
 21 18  1  0  0  0  0
 22 23  1  0  0  0  0
 23 24  1  1  0  0  0
 25 20  2  0  0  0  0
 25 27  1  0  0  0  0
 26 20  1  0  0  0  0
 27 21  1  6  0  0  0
 27 23  1  0  0  0  0
 28 29  1  0  0  0  0
 29 30  2  0  0  0  0
 32 29  1  0  0  0  0
 32 31  1  0  0  0  0
M  END
>  <MODEL>
2

>  <REMARK>
 VINA RESULT:      -7.5      3.016      7.928
  Name = 
  14 active torsions:
  status: ('A' for Active; 'I' for Inactive)
    1  A    between atoms: C_1  and  C_4
    2  A    between atoms: C_1  and  O_5
    3  A    between atoms: C_2  and  C_14
    4  A    between atoms: C_3  and  C_20
    5  A    between atoms: C_4  and  C_24
    6  A    between atoms: O_5  and  C_14
    7  A    between atoms: C_13  and  C_29
    8  A    between atoms: C_13  and  C_30
    9  A    between atoms: C_14  and  C_30
   10  A    between atoms: C_15  and  C_20
   11  A    between atoms: C_15  and  C_26
   12  A    between atoms: C_16  and  C_20
   13  A    between atoms: C_16  and  C_24
   14  A    between atoms: C_19  and  C_26
                            x       y       z     vdW  Elec       q    Type
                         _______ _______ _______ _____ _____    ______ ____

>  <TORSDO>
F 14

$$$$
=
 OpenBabel10262421213D

 32 34  0  0  1  0  0  0  0  0999 V2000
  190.6470  176.6540  140.9300 O   0  0  0  0  0  0  0  0  0  0  0  0
  191.6660  177.3200  141.6150 C   0  0  0  0  0  2  0  0  0  0  0  0
  191.4700  177.2080  143.1220 C   0  0  2  0  0  3  0  0  0  0  0  0
  191.5020  175.8730  143.5330 O   0  0  0  0  0  1  0  0  0  0  0  0
  190.2090  177.9290  143.6150 C   0  0  2  0  0  3  0  0  0  0  0  0
  190.5520  179.0410  144.3850 O   0  0  0  0  0  1  0  0  0  0  0  0
  189.1960  177.0350  144.3450 C   0  0  0  0  0  2  0  0  0  0  0  0
  188.2560  177.8040  145.2710 C   0  0  2  0  0  3  0  0  0  0  0  0
  188.2510  177.1450  146.6450 C   0  0  1  0  0  3  0  0  0  0  0  0
  189.6690  176.9720  147.1490 C   0  0  0  0  0  2  0  0  0  0  0  0
  188.8180  178.1100  147.6700 C   0  0  2  0  0  3  0  0  0  0  0  0
  188.3230  177.7760  148.9290 O   0  0  0  0  0  1  0  0  0  0  0  0
  186.8500  177.7960  144.6910 C   0  0  0  0  0  2  0  0  0  0  0  0
  185.9260  178.6690  145.5220 C   0  0  0  0  0  2  0  0  0  0  0  0
  183.5920  179.0740  145.8120 O   0  0  0  0  0  1  0  0  0  0  0  0
  184.5660  178.7730  144.8590 C   0  0  0  0  0  2  0  0  0  0  0  0
  190.7790  177.0520  139.5950 C   0  0  2  0  0  3  0  0  0  0  0  0
  189.6210  177.9600  139.1870 C   0  0  1  0  0  3  0  0  0  0  0  0
  189.2460  177.7870  137.6810 C   0  0  0  0  0  2  0  0  0  0  0  0
  185.1430  178.7860  139.4590 C   0  0  0  0  0  0  0  0  0  0  0  0
  188.4260  177.7720  140.1510 C   0  0  0  0  0  2  0  0  0  0  0  0
  185.5980  178.6190  138.1550 O   0  0  0  0  0  0  0  0  0  0  0  0
  186.9060  178.1080  138.2820 C   0  0  1  0  0  3  0  0  0  0  0  0
  187.9530  178.5280  137.2800 C   0  0  0  0  0  2  0  0  0  0  0  0
  186.0720  178.7080  140.3600 N   0  0  0  0  0  0  0  0  0  0  0  0
  183.7110  178.9870  139.8010 C   0  0  0  0  0  1  0  0  0  0  0  0
  187.3170  178.6450  139.6170 C   0  0  1  0  0  3  0  0  0  0  0  0
  190.8350  175.8280  138.6830 C   0  0  0  0  0  2  0  0  0  0  0  0
  192.2010  175.6300  138.1060 C   0  0  0  0  0  0  0  0  0  0  0  0
  193.1410  176.5620  138.2670 C   0  0  0  0  0  2  0  0  0  0  0  0
  193.9350  173.9250  137.6290 C   0  0  0  0  0  1  0  0  0  0  0  0
  192.5070  174.3670  137.3670 C   0  0  0  0  0  2  0  0  0  0  0  0
  1  2  1  0  0  0  0
  2  3  1  0  0  0  0
  3  4  1  6  0  0  0
  3  5  1  0  0  0  0
  5  7  1  0  0  0  0
  5  6  1  1  0  0  0
  8  7  1  6  0  0  0
  9  8  1  6  0  0  0
  9 10  1  0  0  0  0
  9 11  1  0  0  0  0
 10 11  1  0  0  0  0
 11 12  1  1  0  0  0
 13  8  1  0  0  0  0
 13 14  1  0  0  0  0
 16 14  1  0  0  0  0
 16 15  1  0  0  0  0
 17 28  1  6  0  0  0
 17  1  1  0  0  0  0
 18 17  1  1  0  0  0
 18 21  1  0  0  0  0
 19 18  1  0  0  0  0
 20 26  1  0  0  0  0
 20 25  2  0  0  0  0
 22 23  1  0  0  0  0
 22 20  1  0  0  0  0
 23 24  1  6  0  0  0
 23 27  1  0  0  0  0
 24 19  1  0  0  0  0
 27 21  1  1  0  0  0
 27 25  1  0  0  0  0
 29 30  2  0  0  0  0
 29 28  1  0  0  0  0
 32 31  1  0  0  0  0
 32 29  1  0  0  0  0
M  END
>  <MODEL>
3

>  <REMARK>
 VINA RESULT:      -7.5      2.813      7.151
  Name = 
  14 active torsions:
  status: ('A' for Active; 'I' for Inactive)
    1  A    between atoms: C_1  and  C_4
    2  A    between atoms: C_1  and  O_5
    3  A    between atoms: C_2  and  C_14
    4  A    between atoms: C_3  and  C_20
    5  A    between atoms: C_4  and  C_24
    6  A    between atoms: O_5  and  C_14
    7  A    between atoms: C_13  and  C_29
    8  A    between atoms: C_13  and  C_30
    9  A    between atoms: C_14  and  C_30
   10  A    between atoms: C_15  and  C_20
   11  A    between atoms: C_15  and  C_26
   12  A    between atoms: C_16  and  C_20
   13  A    between atoms: C_16  and  C_24
   14  A    between atoms: C_19  and  C_26
                            x       y       z     vdW  Elec       q    Type
                         _______ _______ _______ _____ _____    ______ ____

>  <TORSDO>
F 14

$$$$
=
 OpenBabel10262421213D

 32 34  0  0  1  0  0  0  0  0999 V2000
  188.4130  177.0100  142.1160 O   0  0  0  0  0  0  0  0  0  0  0  0
  188.3860  177.6210  140.8600 C   0  0  0  0  0  2  0  0  0  0  0  0
  189.3840  176.9630  139.9150 C   0  0  2  0  0  3  0  0  0  0  0  0
  190.4010  176.3230  140.6280 O   0  0  0  0  0  1  0  0  0  0  0  0
  189.9420  177.9330  138.8660 C   0  0  2  0  0  3  0  0  0  0  0  0
  189.1720  179.0960  138.8170 O   0  0  0  0  0  1  0  0  0  0  0  0
  190.1340  177.3320  137.4660 C   0  0  0  0  0  2  0  0  0  0  0  0
  188.8420  176.8200  136.8360 C   0  0  2  0  0  3  0  0  0  0  0  0
  189.0980  175.4650  136.1880 C   0  0  1  0  0  3  0  0  0  0  0  0
  189.7870  174.5370  137.1680 C   0  0  0  0  0  2  0  0  0  0  0  0
  188.3010  174.3980  136.9160 C   0  0  2  0  0  3  0  0  0  0  0  0
  188.0790  173.3280  136.0510 O   0  0  0  0  0  1  0  0  0  0  0  0
  188.3590  177.8090  135.7860 C   0  0  0  0  0  2  0  0  0  0  0  0
  186.9990  178.3680  136.1650 C   0  0  0  0  0  2  0  0  0  0  0  0
  186.0030  178.5730  138.3240 O   0  0  0  0  0  1  0  0  0  0  0  0
  186.4570  177.6470  137.3840 C   0  0  0  0  0  2  0  0  0  0  0  0
  187.7670  177.9050  142.9750 C   0  0  2  0  0  3  0  0  0  0  0  0
  188.5550  178.0670  144.2740 C   0  0  1  0  0  3  0  0  0  0  0  0
  187.6520  177.8700  145.5320 C   0  0  0  0  0  2  0  0  0  0  0  0
  191.6470  176.2740  147.1080 C   0  0  0  0  0  0  0  0  0  0  0  0
  189.8070  177.1590  144.2590 C   0  0  0  0  0  2  0  0  0  0  0  0
  190.4170  176.5160  147.7110 O   0  0  0  0  0  0  0  0  0  0  0  0
  189.5330  176.7940  146.6480 C   0  0  1  0  0  3  0  0  0  0  0  0
  188.4440  177.8190  146.8560 C   0  0  0  0  0  2  0  0  0  0  0  0
  191.7070  176.6260  145.8620 N   0  0  0  0  0  0  0  0  0  0  0  0
  192.7820  175.6220  147.8110 C   0  0  0  0  0  1  0  0  0  0  0  0
  190.4640  177.3310  145.6070 C   0  0  1  0  0  3  0  0  0  0  0  0
  186.3500  177.4190  143.2760 C   0  0  0  0  0  2  0  0  0  0  0  0
  185.3250  178.4450  142.9120 C   0  0  0  0  0  0  0  0  0  0  0  0
  185.5570  179.3080  141.9220 C   0  0  0  0  0  2  0  0  0  0  0  0
  184.2320  178.9940  145.0680 C   0  0  0  0  0  1  0  0  0  0  0  0
  184.0280  178.4790  143.6550 C   0  0  0  0  0  2  0  0  0  0  0  0
  1 17  1  0  0  0  0
  2  1  1  0  0  0  0
  3  4  1  1  0  0  0
  3  2  1  0  0  0  0
  5  6  1  6  0  0  0
  5  3  1  0  0  0  0
  7  5  1  0  0  0  0
  8 13  1  6  0  0  0
  8  7  1  0  0  0  0
  9  8  1  1  0  0  0
  9 11  1  0  0  0  0
  9 10  1  0  0  0  0
 11 12  1  6  0  0  0
 11 10  1  0  0  0  0
 13 14  1  0  0  0  0
 14 16  1  0  0  0  0
 16 15  1  0  0  0  0
 17 28  1  1  0  0  0
 18 17  1  6  0  0  0
 18 19  1  0  0  0  0
 19 24  1  0  0  0  0
 20 22  1  0  0  0  0
 20 26  1  0  0  0  0
 21 18  1  0  0  0  0
 23 24  1  1  0  0  0
 23 22  1  0  0  0  0
 25 20  2  0  0  0  0
 27 21  1  6  0  0  0
 27 25  1  0  0  0  0
 27 23  1  0  0  0  0
 29 28  1  0  0  0  0
 29 32  1  0  0  0  0
 30 29  2  0  0  0  0
 32 31  1  0  0  0  0
M  END
>  <MODEL>
4

>  <REMARK>
 VINA RESULT:      -7.4      2.607      6.697
  Name = 
  14 active torsions:
  status: ('A' for Active; 'I' for Inactive)
    1  A    between atoms: C_1  and  C_4
    2  A    between atoms: C_1  and  O_5
    3  A    between atoms: C_2  and  C_14
    4  A    between atoms: C_3  and  C_20
    5  A    between atoms: C_4  and  C_24
    6  A    between atoms: O_5  and  C_14
    7  A    between atoms: C_13  and  C_29
    8  A    between atoms: C_13  and  C_30
    9  A    between atoms: C_14  and  C_30
   10  A    between atoms: C_15  and  C_20
   11  A    between atoms: C_15  and  C_26
   12  A    between atoms: C_16  and  C_20
   13  A    between atoms: C_16  and  C_24
   14  A    between atoms: C_19  and  C_26
                            x       y       z     vdW  Elec       q    Type
                         _______ _______ _______ _____ _____    ______ ____

>  <TORSDO>
F 14

$$$$
=
 OpenBabel10262421213D

 32 34  0  0  1  0  0  0  0  0999 V2000
  188.9600  178.4340  142.4990 O   0  0  0  0  0  0  0  0  0  0  0  0
  188.9780  177.7030  141.3090 C   0  0  0  0  0  2  0  0  0  0  0  0
  188.4910  178.5550  140.1430 C   0  0  2  0  0  3  0  0  0  0  0  0
  187.0990  178.5020  140.0310 O   0  0  0  0  0  1  0  0  0  0  0  0
  189.1860  178.2090  138.8190 C   0  0  2  0  0  3  0  0  0  0  0  0
  189.1080  179.2840  137.9320 O   0  0  0  0  0  1  0  0  0  0  0  0
  188.7120  176.9060  138.1600 C   0  0  0  0  0  2  0  0  0  0  0  0
  189.8320  176.1160  137.4890 C   0  0  2  0  0  3  0  0  0  0  0  0
  189.2920  174.7700  137.0220 C   0  0  1  0  0  3  0  0  0  0  0  0
  187.9850  174.9590  136.2780 C   0  0  0  0  0  2  0  0  0  0  0  0
  189.2660  174.7360  135.5050 C   0  0  2  0  0  3  0  0  0  0  0  0
  189.3220  173.4090  135.0800 O   0  0  0  0  0  1  0  0  0  0  0  0
  190.9670  175.8980  138.4790 C   0  0  0  0  0  2  0  0  0  0  0  0
  192.1660  175.2730  137.7870 C   0  0  0  0  0  2  0  0  0  0  0  0
  193.6870  176.9420  138.5590 O   0  0  0  0  0  1  0  0  0  0  0  0
  193.1710  176.3440  137.4090 C   0  0  0  0  0  2  0  0  0  0  0  0
  188.9590  177.4760  143.5200 C   0  0  2  0  0  3  0  0  0  0  0  0
  187.5720  177.3670  144.1510 C   0  0  1  0  0  3  0  0  0  0  0  0
  187.5460  177.9390  145.6040 C   0  0  0  0  0  2  0  0  0  0  0  0
  183.2860  178.9260  144.2380 C   0  0  0  0  0  0  0  0  0  0  0  0
  186.5070  177.9900  143.2190 C   0  0  0  0  0  2  0  0  0  0  0  0
  183.9400  179.0360  145.4600 O   0  0  0  0  0  0  0  0  0  0  0  0
  185.2970  178.7770  145.1780 C   0  0  1  0  0  3  0  0  0  0  0  0
  186.1260  178.0390  146.2010 C   0  0  0  0  0  2  0  0  0  0  0  0
  183.9950  178.3760  143.3020 N   0  0  0  0  0  0  0  0  0  0  0  0
  181.9110  179.4390  144.0030 C   0  0  0  0  0  1  0  0  0  0  0  0
  185.1970  177.9050  143.9650 C   0  0  1  0  0  3  0  0  0  0  0  0
  189.9950  177.8360  144.5820 C   0  0  0  0  0  2  0  0  0  0  0  0
  191.0390  176.7730  144.7180 C   0  0  0  0  0  0  0  0  0  0  0  0
  191.4040  176.0480  143.6590 C   0  0  0  0  0  2  0  0  0  0  0  0
  190.6870  176.7560  147.1710 C   0  0  0  0  0  1  0  0  0  0  0  0
  191.6850  176.5480  146.0470 C   0  0  0  0  0  2  0  0  0  0  0  0
  1 17  1  0  0  0  0
  2  1  1  0  0  0  0
  3  4  1  6  0  0  0
  3  2  1  0  0  0  0
  5  6  1  6  0  0  0
  5  3  1  0  0  0  0
  7  5  1  0  0  0  0
  8  7  1  1  0  0  0
  8 13  1  0  0  0  0
  9  8  1  6  0  0  0
 10  9  1  0  0  0  0
 11 12  1  1  0  0  0
 11 10  1  0  0  0  0
 11  9  1  0  0  0  0
 14 13  1  0  0  0  0
 16 14  1  0  0  0  0
 16 15  1  0  0  0  0
 17 28  1  1  0  0  0
 18 17  1  6  0  0  0
 18 19  1  0  0  0  0
 19 24  1  0  0  0  0
 20 22  1  0  0  0  0
 21 18  1  0  0  0  0
 23 22  1  0  0  0  0
 23 24  1  1  0  0  0
 25 27  1  0  0  0  0
 25 20  2  0  0  0  0
 26 20  1  0  0  0  0
 27 21  1  6  0  0  0
 27 23  1  0  0  0  0
 28 29  1  0  0  0  0
 29 32  1  0  0  0  0
 30 29  2  0  0  0  0
 32 31  1  0  0  0  0
M  END
>  <MODEL>
5

>  <REMARK>
 VINA RESULT:      -7.3      3.394      7.913
  Name = 
  14 active torsions:
  status: ('A' for Active; 'I' for Inactive)
    1  A    between atoms: C_1  and  C_4
    2  A    between atoms: C_1  and  O_5
    3  A    between atoms: C_2  and  C_14
    4  A    between atoms: C_3  and  C_20
    5  A    between atoms: C_4  and  C_24
    6  A    between atoms: O_5  and  C_14
    7  A    between atoms: C_13  and  C_29
    8  A    between atoms: C_13  and  C_30
    9  A    between atoms: C_14  and  C_30
   10  A    between atoms: C_15  and  C_20
   11  A    between atoms: C_15  and  C_26
   12  A    between atoms: C_16  and  C_20
   13  A    between atoms: C_16  and  C_24
   14  A    between atoms: C_19  and  C_26
                            x       y       z     vdW  Elec       q    Type
                         _______ _______ _______ _____ _____    ______ ____

>  <TORSDO>
F 14

$$$$
=
 OpenBabel10262421213D

 32 34  0  0  1  0  0  0  0  0999 V2000
  188.8090  176.9660  140.8970 O   0  0  0  0  0  0  0  0  0  0  0  0
  190.2000  177.0890  140.9530 C   0  0  0  0  0  2  0  0  0  0  0  0
  190.6490  177.5400  142.3370 C   0  0  2  0  0  3  0  0  0  0  0  0
  191.9850  177.9470  142.3230 O   0  0  0  0  0  1  0  0  0  0  0  0
  190.3820  176.4890  143.4230 C   0  0  2  0  0  3  0  0  0  0  0  0
  190.3650  175.2080  142.8690 O   0  0  0  0  0  1  0  0  0  0  0  0
  189.1310  176.7440  144.2770 C   0  0  0  0  0  2  0  0  0  0  0  0
  189.4250  176.8810  145.7680 C   0  0  2  0  0  3  0  0  0  0  0  0
  188.6000  178.0250  146.3430 C   0  0  1  0  0  3  0  0  0  0  0  0
  187.1220  177.7050  146.2470 C   0  0  0  0  0  2  0  0  0  0  0  0
  187.8450  177.5390  147.5660 C   0  0  2  0  0  3  0  0  0  0  0  0
  187.5610  178.6290  148.3870 O   0  0  0  0  0  1  0  0  0  0  0  0
  190.9060  177.1640  145.9720 C   0  0  0  0  0  2  0  0  0  0  0  0
  191.3460  176.7290  147.3590 C   0  0  0  0  0  2  0  0  0  0  0  0
  193.3690  175.5890  147.9110 O   0  0  0  0  0  1  0  0  0  0  0  0
  192.1350  175.4360  147.2790 C   0  0  0  0  0  2  0  0  0  0  0  0
  188.3990  177.8760  139.9160 C   0  0  2  0  0  3  0  0  0  0  0  0
  187.1580  178.6390  140.3770 C   0  0  1  0  0  3  0  0  0  0  0  0
  185.9490  178.4210  139.4130 C   0  0  0  0  0  2  0  0  0  0  0  0
  183.7600  178.9200  143.4070 C   0  0  0  0  0  0  0  0  0  0  0  0
  186.8420  178.3080  141.8540 C   0  0  0  0  0  2  0  0  0  0  0  0
  183.3210  178.8090  142.0920 O   0  0  0  0  0  0  0  0  0  0  0  0
  184.4680  178.4580  141.3490 C   0  0  1  0  0  3  0  0  0  0  0  0
  184.6230  179.0020  139.9490 C   0  0  0  0  0  2  0  0  0  0  0  0
  185.0500  178.9540  143.5370 N   0  0  0  0  0  0  0  0  0  0  0  0
  182.8370  178.9470  144.5720 C   0  0  0  0  0  1  0  0  0  0  0  0
  185.5650  179.0410  142.1830 C   0  0  1  0  0  3  0  0  0  0  0  0
  188.1110  177.1450  138.6060 C   0  0  0  0  0  2  0  0  0  0  0  0
  189.0460  177.5720  137.5190 C   0  0  0  0  0  0  0  0  0  0  0  0
  190.0500  176.7770  137.1430 C   0  0  0  0  0  2  0  0  0  0  0  0
  187.5130  178.8920  136.0880 C   0  0  0  0  0  1  0  0  0  0  0  0
  188.8300  178.8870  136.8420 C   0  0  0  0  0  2  0  0  0  0  0  0
  1  2  1  0  0  0  0
  2  3  1  0  0  0  0
  3  4  1  6  0  0  0
  3  5  1  0  0  0  0
  5  6  1  6  0  0  0
  5  7  1  0  0  0  0
  8  7  1  6  0  0  0
  8 13  1  0  0  0  0
  9  8  1  6  0  0  0
  9 11  1  0  0  0  0
 10  9  1  0  0  0  0
 10 11  1  0  0  0  0
 11 12  1  1  0  0  0
 13 14  1  0  0  0  0
 16 14  1  0  0  0  0
 16 15  1  0  0  0  0
 17 28  1  6  0  0  0
 17  1  1  0  0  0  0
 18 17  1  6  0  0  0
 18 21  1  0  0  0  0
 19 24  1  0  0  0  0
 19 18  1  0  0  0  0
 20 25  2  0  0  0  0
 20 26  1  0  0  0  0
 22 20  1  0  0  0  0
 23 24  1  6  0  0  0
 23 22  1  0  0  0  0
 23 27  1  0  0  0  0
 27 21  1  1  0  0  0
 27 25  1  0  0  0  0
 29 28  1  0  0  0  0
 30 29  2  0  0  0  0
 31 32  1  0  0  0  0
 32 29  1  0  0  0  0
M  END
>  <MODEL>
6

>  <REMARK>
 VINA RESULT:      -7.3      2.403      6.913
  Name = 
  14 active torsions:
  status: ('A' for Active; 'I' for Inactive)
    1  A    between atoms: C_1  and  C_4
    2  A    between atoms: C_1  and  O_5
    3  A    between atoms: C_2  and  C_14
    4  A    between atoms: C_3  and  C_20
    5  A    between atoms: C_4  and  C_24
    6  A    between atoms: O_5  and  C_14
    7  A    between atoms: C_13  and  C_29
    8  A    between atoms: C_13  and  C_30
    9  A    between atoms: C_14  and  C_30
   10  A    between atoms: C_15  and  C_20
   11  A    between atoms: C_15  and  C_26
   12  A    between atoms: C_16  and  C_20
   13  A    between atoms: C_16  and  C_24
   14  A    between atoms: C_19  and  C_26
                            x       y       z     vdW  Elec       q    Type
                         _______ _______ _______ _____ _____    ______ ____

>  <TORSDO>
F 14

$$$$
=
 OpenBabel10262421213D

 32 34  0  0  1  0  0  0  0  0999 V2000
  188.9170  178.3460  140.7380 O   0  0  0  0  0  0  0  0  0  0  0  0
  189.5480  177.1050  140.8590 C   0  0  0  0  0  2  0  0  0  0  0  0
  190.2300  176.9740  142.2150 C   0  0  2  0  0  3  0  0  0  0  0  0
  190.4050  175.6310  142.5600 O   0  0  0  0  0  1  0  0  0  0  0  0
  189.5170  177.7620  143.3210 C   0  0  2  0  0  3  0  0  0  0  0  0
  190.4040  178.6400  143.9440 O   0  0  0  0  0  1  0  0  0  0  0  0
  188.7690  176.9020  144.3490 C   0  0  0  0  0  2  0  0  0  0  0  0
  187.8270  177.7010  145.2470 C   0  0  2  0  0  3  0  0  0  0  0  0
  187.8750  177.1330  146.6610 C   0  0  1  0  0  3  0  0  0  0  0  0
  189.3070  177.0600  147.1490 C   0  0  0  0  0  2  0  0  0  0  0  0
  188.4110  178.1880  147.6110 C   0  0  2  0  0  3  0  0  0  0  0  0
  187.9520  177.9140  148.8980 O   0  0  0  0  0  1  0  0  0  0  0  0
  186.4090  177.6120  144.7050 C   0  0  0  0  0  2  0  0  0  0  0  0
  185.6620  178.9120  144.9510 C   0  0  0  0  0  2  0  0  0  0  0  0
  184.5480  178.3290  146.9790 O   0  0  0  0  0  1  0  0  0  0  0  0
  184.3370  178.6350  145.6340 C   0  0  0  0  0  2  0  0  0  0  0  0
  188.1700  178.2660  139.5570 C   0  0  2  0  0  3  0  0  0  0  0  0
  186.6860  178.0850  139.8710 C   0  0  1  0  0  3  0  0  0  0  0  0
  186.2330  178.9710  141.0750 C   0  0  0  0  0  2  0  0  0  0  0  0
  182.3870  178.9060  138.5860 C   0  0  0  0  0  0  0  0  0  0  0  0
  185.8380  178.2900  138.5950 C   0  0  0  0  0  2  0  0  0  0  0  0
  182.6930  179.4040  139.8480 O   0  0  0  0  0  0  0  0  0  0  0  0
  184.0960  179.3090  139.9530 C   0  0  1  0  0  3  0  0  0  0  0  0
  184.7050  178.9770  141.2940 C   0  0  0  0  0  2  0  0  0  0  0  0
  183.3630  178.2740  138.0130 N   0  0  0  0  0  0  0  0  0  0  0  0
  181.0740  179.1200  137.9240 C   0  0  0  0  0  1  0  0  0  0  0  0
  184.3960  178.1730  139.0270 C   0  0  1  0  0  3  0  0  0  0  0  0
  188.6710  177.1090  138.6940 C   0  0  0  0  0  2  0  0  0  0  0  0
  189.3200  177.5980  137.4390 C   0  0  0  0  0  0  0  0  0  0  0  0
  189.0580  178.8220  136.9770 C   0  0  0  0  0  2  0  0  0  0  0  0
  191.4760  176.3850  137.6030 C   0  0  0  0  0  1  0  0  0  0  0  0
  190.2850  176.7100  136.7200 C   0  0  0  0  0  2  0  0  0  0  0  0
  1  2  1  0  0  0  0
  2  3  1  0  0  0  0
  3  4  1  1  0  0  0
  3  5  1  0  0  0  0
  5  6  1  1  0  0  0
  5  7  1  0  0  0  0
  8  7  1  6  0  0  0
  9  8  1  6  0  0  0
  9 10  1  0  0  0  0
  9 11  1  0  0  0  0
 10 11  1  0  0  0  0
 11 12  1  1  0  0  0
 13 14  1  0  0  0  0
 13  8  1  0  0  0  0
 14 16  1  0  0  0  0
 16 15  1  0  0  0  0
 17 28  1  6  0  0  0
 17  1  1  0  0  0  0
 18 17  1  6  0  0  0
 18 19  1  0  0  0  0
 19 24  1  0  0  0  0
 20 22  1  0  0  0  0
 21 18  1  0  0  0  0
 22 23  1  0  0  0  0
 23 24  1  1  0  0  0
 25 20  2  0  0  0  0
 25 27  1  0  0  0  0
 26 20  1  0  0  0  0
 27 21  1  6  0  0  0
 27 23  1  0  0  0  0
 29 28  1  0  0  0  0
 30 29  2  0  0  0  0
 32 29  1  0  0  0  0
 32 31  1  0  0  0  0
M  END
>  <MODEL>
7

>  <REMARK>
 VINA RESULT:      -7.1      3.133      7.160
  Name = 
  14 active torsions:
  status: ('A' for Active; 'I' for Inactive)
    1  A    between atoms: C_1  and  C_4
    2  A    between atoms: C_1  and  O_5
    3  A    between atoms: C_2  and  C_14
    4  A    between atoms: C_3  and  C_20
    5  A    between atoms: C_4  and  C_24
    6  A    between atoms: O_5  and  C_14
    7  A    between atoms: C_13  and  C_29
    8  A    between atoms: C_13  and  C_30
    9  A    between atoms: C_14  and  C_30
   10  A    between atoms: C_15  and  C_20
   11  A    between atoms: C_15  and  C_26
   12  A    between atoms: C_16  and  C_20
   13  A    between atoms: C_16  and  C_24
   14  A    between atoms: C_19  and  C_26
                            x       y       z     vdW  Elec       q    Type
                         _______ _______ _______ _____ _____    ______ ____

>  <TORSDO>
F 14

$$$$
=
 OpenBabel10262421213D

 32 34  0  0  1  0  0  0  0  0999 V2000
  188.7160  178.2360  142.9240 O   0  0  0  0  0  0  0  0  0  0  0  0
  190.0250  177.9700  142.5140 C   0  0  0  0  0  2  0  0  0  0  0  0
  190.0710  176.7440  141.6090 C   0  0  2  0  0  3  0  0  0  0  0  0
  190.5450  175.6280  142.3020 O   0  0  0  0  0  1  0  0  0  0  0  0
  190.8520  176.9880  140.3120 C   0  0  2  0  0  3  0  0  0  0  0  0
  192.1210  177.4960  140.5940 O   0  0  0  0  0  1  0  0  0  0  0  0
  190.1250  177.8510  139.2700 C   0  0  0  0  0  2  0  0  0  0  0  0
  189.7050  177.0810  138.0220 C   0  0  2  0  0  3  0  0  0  0  0  0
  188.1960  176.8680  138.0440 C   0  0  1  0  0  3  0  0  0  0  0  0
  187.4910  178.0390  137.3900 C   0  0  0  0  0  2  0  0  0  0  0  0
  187.6820  176.7500  136.6210 C   0  0  2  0  0  3  0  0  0  0  0  0
  186.4890  176.0290  136.6290 O   0  0  0  0  0  1  0  0  0  0  0  0
  190.4130  175.7350  137.9910 C   0  0  0  0  0  2  0  0  0  0  0  0
  191.3170  175.6360  136.7750 C   0  0  0  0  0  2  0  0  0  0  0  0
  193.0090  174.1660  137.5930 O   0  0  0  0  0  1  0  0  0  0  0  0
  191.9440  174.2570  136.6970 C   0  0  0  0  0  2  0  0  0  0  0  0
  188.5630  177.5510  144.1340 C   0  0  2  0  0  3  0  0  0  0  0  0
  187.0910  177.4990  144.5390 C   0  0  1  0  0  3  0  0  0  0  0  0
  186.8310  178.2440  145.8860 C   0  0  0  0  0  2  0  0  0  0  0  0
  182.8580  178.9930  143.7310 C   0  0  0  0  0  0  0  0  0  0  0  0
  186.1970  177.9870  143.3760 C   0  0  0  0  0  2  0  0  0  0  0  0
  183.3030  179.2610  145.0220 O   0  0  0  0  0  0  0  0  0  0  0  0
  184.6870  178.9890  144.9990 C   0  0  1  0  0  3  0  0  0  0  0  0
  185.3330  178.3950  146.2270 C   0  0  0  0  0  2  0  0  0  0  0  0
  183.7080  178.3430  142.9990 N   0  0  0  0  0  0  0  0  0  0  0  0
  181.5420  179.4520  143.2140 C   0  0  0  0  0  1  0  0  0  0  0  0
  184.7820  177.9750  143.9030 C   0  0  1  0  0  3  0  0  0  0  0  0
  189.3880  178.2240  145.2290 C   0  0  0  0  0  2  0  0  0  0  0  0
  190.1330  177.2230  146.0540 C   0  0  0  0  0  0  0  0  0  0  0  0
  191.3170  176.7620  145.6450 C   0  0  0  0  0  2  0  0  0  0  0  0
  189.3630  177.9310  148.3000 C   0  0  0  0  0  1  0  0  0  0  0  0
  189.5490  176.7620  147.3500 C   0  0  0  0  0  2  0  0  0  0  0  0
  1 17  1  0  0  0  0
  2  1  1  0  0  0  0
  3  4  1  1  0  0  0
  3  2  1  0  0  0  0
  5  6  1  1  0  0  0
  5  3  1  0  0  0  0
  7  5  1  0  0  0  0
  8 13  1  1  0  0  0
  8  7  1  0  0  0  0
  9  8  1  6  0  0  0
 10  9  1  0  0  0  0
 11 12  1  1  0  0  0
 11 10  1  0  0  0  0
 11  9  1  0  0  0  0
 14 13  1  0  0  0  0
 16 14  1  0  0  0  0
 16 15  1  0  0  0  0
 17 28  1  1  0  0  0
 18 17  1  6  0  0  0
 18 19  1  0  0  0  0
 19 24  1  0  0  0  0
 20 22  1  0  0  0  0
 21 18  1  0  0  0  0
 23 22  1  0  0  0  0
 23 24  1  1  0  0  0
 25 20  2  0  0  0  0
 25 27  1  0  0  0  0
 26 20  1  0  0  0  0
 27 21  1  6  0  0  0
 27 23  1  0  0  0  0
 28 29  1  0  0  0  0
 29 32  1  0  0  0  0
 30 29  2  0  0  0  0
 32 31  1  0  0  0  0
M  END
>  <MODEL>
8

>  <REMARK>
 VINA RESULT:      -7.1      3.222      8.018
  Name = 
  14 active torsions:
  status: ('A' for Active; 'I' for Inactive)
    1  A    between atoms: C_1  and  C_4
    2  A    between atoms: C_1  and  O_5
    3  A    between atoms: C_2  and  C_14
    4  A    between atoms: C_3  and  C_20
    5  A    between atoms: C_4  and  C_24
    6  A    between atoms: O_5  and  C_14
    7  A    between atoms: C_13  and  C_29
    8  A    between atoms: C_13  and  C_30
    9  A    between atoms: C_14  and  C_30
   10  A    between atoms: C_15  and  C_20
   11  A    between atoms: C_15  and  C_26
   12  A    between atoms: C_16  and  C_20
   13  A    between atoms: C_16  and  C_24
   14  A    between atoms: C_19  and  C_26
                            x       y       z     vdW  Elec       q    Type
                         _______ _______ _______ _____ _____    ______ ____

>  <TORSDO>
F 14

$$$$
=
 OpenBabel10262421213D

 32 34  0  0  1  0  0  0  0  0999 V2000
  187.0850  178.3790  144.0780 O   0  0  0  0  0  0  0  0  0  0  0  0
  186.8090  177.2020  144.7790 C   0  0  0  0  0  2  0  0  0  0  0  0
  186.6960  177.4760  146.2740 C   0  0  2  0  0  3  0  0  0  0  0  0
  186.2070  178.7630  146.5120 O   0  0  0  0  0  1  0  0  0  0  0  0
  188.0040  177.2110  147.0310 C   0  0  2  0  0  3  0  0  0  0  0  0
  187.7490  176.9960  148.3860 O   0  0  0  0  0  1  0  0  0  0  0  0
  189.0940  178.2730  146.8300 C   0  0  0  0  0  2  0  0  0  0  0  0
  190.4380  177.6960  146.3920 C   0  0  2  0  0  3  0  0  0  0  0  0
  190.4610  177.5660  144.8740 C   0  0  1  0  0  3  0  0  0  0  0  0
  190.5200  178.9370  144.2310 C   0  0  0  0  0  2  0  0  0  0  0  0
  191.7770  178.1020  144.3410 C   0  0  2  0  0  3  0  0  0  0  0  0
  192.0440  177.5060  143.1100 O   0  0  0  0  0  1  0  0  0  0  0  0
  190.6370  176.3290  147.0280 C   0  0  0  0  0  2  0  0  0  0  0  0
  192.0550  175.8350  146.7970 C   0  0  0  0  0  2  0  0  0  0  0  0
  192.8130  176.8290  148.8310 O   0  0  0  0  0  1  0  0  0  0  0  0
  192.7600  175.6270  148.1240 C   0  0  0  0  0  2  0  0  0  0  0  0
  186.6190  178.1510  142.7790 C   0  0  2  0  0  3  0  0  0  0  0  0
  187.7680  178.2250  141.7750 C   0  0  1  0  0  3  0  0  0  0  0  0
  188.7270  176.9980  141.8960 C   0  0  0  0  0  2  0  0  0  0  0  0
  189.0500  177.8770  137.4110 C   0  0  0  0  0  0  0  0  0  0  0  0
  187.2200  178.4460  140.3460 C   0  0  0  0  0  2  0  0  0  0  0  0
  189.7170  176.9960  138.2570 O   0  0  0  0  0  0  0  0  0  0  0  0
  189.0100  177.0480  139.4760 C   0  0  1  0  0  3  0  0  0  0  0  0
  189.7790  176.9270  140.7690 C   0  0  0  0  0  2  0  0  0  0  0  0
  188.2080  178.6580  138.0130 N   0  0  0  0  0  0  0  0  0  0  0  0
  189.2430  177.8930  135.9380 C   0  0  0  0  0  1  0  0  0  0  0  0
  188.4190  178.4220  139.4300 C   0  0  1  0  0  3  0  0  0  0  0  0
  185.5400  179.1710  142.4200 C   0  0  0  0  0  2  0  0  0  0  0  0
  184.1870  178.5370  142.3370 C   0  0  0  0  0  0  0  0  0  0  0  0
  183.8190  177.8760  141.2390 C   0  0  0  0  0  2  0  0  0  0  0  0
  183.7710  179.6490  144.5130 C   0  0  0  0  0  1  0  0  0  0  0  0
  183.2620  178.6320  143.5080 C   0  0  0  0  0  2  0  0  0  0  0  0
  1  2  1  0  0  0  0
  2  3  1  0  0  0  0
  3  4  1  6  0  0  0
  3  5  1  0  0  0  0
  5  6  1  1  0  0  0
  7  5  1  0  0  0  0
  8  7  1  6  0  0  0
  8 13  1  0  0  0  0
  9  8  1  1  0  0  0
 10 11  1  0  0  0  0
 10  9  1  0  0  0  0
 11 12  1  6  0  0  0
 11  9  1  0  0  0  0
 14 13  1  0  0  0  0
 14 16  1  0  0  0  0
 16 15  1  0  0  0  0
 17 28  1  6  0  0  0
 17  1  1  0  0  0  0
 18 19  1  0  0  0  0
 18 17  1  1  0  0  0
 20 25  2  0  0  0  0
 20 22  1  0  0  0  0
 21 18  1  0  0  0  0
 22 23  1  0  0  0  0
 23 24  1  1  0  0  0
 24 19  1  0  0  0  0
 25 27  1  0  0  0  0
 26 20  1  0  0  0  0
 27 23  1  0  0  0  0
 27 21  1  1  0  0  0
 29 28  1  0  0  0  0
 29 32  1  0  0  0  0
 30 29  2  0  0  0  0
 32 31  1  0  0  0  0
M  END
>  <MODEL>
9

>  <REMARK>
 VINA RESULT:      -7.1      2.818      7.833
  Name = 
  14 active torsions:
  status: ('A' for Active; 'I' for Inactive)
    1  A    between atoms: C_1  and  C_4
    2  A    between atoms: C_1  and  O_5
    3  A    between atoms: C_2  and  C_14
    4  A    between atoms: C_3  and  C_20
    5  A    between atoms: C_4  and  C_24
    6  A    between atoms: O_5  and  C_14
    7  A    between atoms: C_13  and  C_29
    8  A    between atoms: C_13  and  C_30
    9  A    between atoms: C_14  and  C_30
   10  A    between atoms: C_15  and  C_20
   11  A    between atoms: C_15  and  C_26
   12  A    between atoms: C_16  and  C_20
   13  A    between atoms: C_16  and  C_24
   14  A    between atoms: C_19  and  C_26
                            x       y       z     vdW  Elec       q    Type
                         _______ _______ _______ _____ _____    ______ ____

>  <TORSDO>
F 14

$$$$
