=
 OpenBabel10252415033D

 34 39  0  0  1  0  0  0  0  0999 V2000
  192.2950  173.9640  135.8740 C   0  0  1  0  0  3  0  0  0  0  0  0
  193.3910  176.0070  136.8030 C   0  0  1  0  0  3  0  0  0  0  0  0
  190.8340  175.7150  136.8120 C   0  0  1  0  0  3  0  0  0  0  0  0
  189.3430  177.6980  137.5180 C   0  0  2  0  0  3  0  0  0  0  0  0
  194.7690  174.1700  135.7750 C   0  0  0  0  0  2  0  0  0  0  0  0
  194.7170  175.2490  136.8530 C   0  0  0  0  0  2  0  0  0  0  0  0
  190.7060  176.7000  139.2010 C   0  0  0  0  0  2  0  0  0  0  0  0
  192.2050  175.0350  136.9710 C   0  0  1  0  0  3  0  0  0  0  0  0
  189.3190  178.5490  138.7730 C   0  0  0  0  0  2  0  0  0  0  0  0
  193.6090  173.2000  135.9540 C   0  0  0  0  0  2  0  0  0  0  0  0
  189.6930  174.7060  136.9750 C   0  0  1  0  0  3  0  0  0  0  0  0
  191.1780  173.0430  135.9110 N   0  0  0  0  0  0  0  0  0  0  0  0
  193.4050  176.9530  137.8110 F   0  0  0  0  0  0  0  0  0  0  0  0
  187.8390  176.6440  137.5720 S   0  0  0  0  0  0  0  0  0  0  0  0
  188.4030  175.3330  136.4380 C   0  0  2  0  0  3  0  0  0  0  0  0
  190.0600  177.8480  139.8300 N   0  0  0  0  0  0  0  0  0  0  0  0
  190.6330  176.9390  137.7120 C   0  0  1  0  0  3  0  0  0  0  0  0
  190.0070  173.3640  136.3430 C   0  0  0  0  0  3  0  0  0  0  0  0
  185.5300  172.9790  137.2050 C   0  0  0  0  0  0  0  0  0  0  0  0
  185.2050  172.4970  135.9350 C   0  0  0  0  0  3  0  0  0  0  0  0
  187.2890  174.3430  136.2440 C   0  0  0  0  0  0  0  0  0  0  0  0
  185.9210  172.9360  134.8160 C   0  0  0  0  0  3  0  0  0  0  0  0
  186.5700  173.9000  137.3590 C   0  0  0  0  0  3  0  0  0  0  0  0
  186.9610  173.8560  134.9690 C   0  0  0  0  0  3  0  0  0  0  0  0
  184.8370  172.5540  138.2890 F   0  0  0  0  0  0  0  0  0  0  0  0
  189.0910  177.3200  140.7770 C   0  0  0  0  0  2  0  0  0  0  0  0
  189.7730  176.3560  141.7340 C   0  0  0  0  0  2  0  0  0  0  0  0
  191.2340  176.4880  144.4280 C   0  0  0  0  0  1  0  0  0  0  0  0
  189.2010  176.4980  143.0630 N   0  0  0  0  0  0  0  0  0  0  0  0
  190.1200  177.3430  143.8480 C   0  0  1  0  0  3  0  0  0  0  0  0
  188.1350  177.3980  145.4140 C   0  0  0  0  0  2  0  0  0  0  0  0
  187.1740  177.2770  144.2280 C   0  0  0  0  0  2  0  0  0  0  0  0
  187.9160  177.1780  142.8910 C   0  0  0  0  0  2  0  0  0  0  0  0
  189.4260  178.0970  144.9970 C   0  0  0  0  0  2  0  0  0  0  0  0
  1 12  1  0  0  0  0
  1 10  1  1  0  0  0
  1  8  1  0  0  0  0
  2  6  1  0  0  0  0
  2  8  1  0  0  0  0
  2 13  1  1  0  0  0
  3  8  1  0  0  0  0
  3 11  1  0  0  0  0
  3 17  1  0  0  0  0
  4 14  1  0  0  0  0
  4 17  1  0  0  0  0
  4  9  1  0  0  0  0
  5 10  1  0  0  0  0
  5  6  1  0  0  0  0
  7 16  1  0  0  0  0
  9 16  1  0  0  0  0
 12 18  2  0  0  0  0
 15 11  1  0  0  0  0
 15 14  1  0  0  0  0
 16 26  1  0  0  0  0
 17  7  1  0  0  0  0
 18 11  1  0  0  0  0
 19 23  1  0  0  0  0
 19 25  1  0  0  0  0
 20 19  2  0  0  0  0
 21 15  1  0  0  0  0
 21 23  2  0  0  0  0
 22 24  2  0  0  0  0
 22 20  1  0  0  0  0
 24 21  1  0  0  0  0
 26 27  1  0  0  0  0
 27 29  1  0  0  0  0
 29 30  1  0  0  0  0
 30 28  1  0  0  0  0
 30 34  1  0  0  0  0
 32 31  1  0  0  0  0
 33 29  1  0  0  0  0
 33 32  1  0  0  0  0
 34 31  1  0  0  0  0
M  END
>  <MODEL>
1

>  <REMARK>
 VINA RESULT:      -8.1      0.000      0.000
  Name = 
  4 active torsions:
  status: ('A' for Active; 'I' for Inactive)
    1  A    between atoms: C_3  and  N_13
    2  A    between atoms: C_3  and  C_17
    3  A    between atoms: C_12  and  C_28
    4  A    between atoms: C_17  and  N_29
                            x       y       z     vdW  Elec       q    Type
                         _______ _______ _______ _____ _____    ______ ____

>  <TORSDO>
F 4

$$$$
=
 OpenBabel10252415033D

 34 39  0  0  1  0  0  0  0  0999 V2000
  187.0100  178.1510  144.8060 C   0  0  1  0  0  3  0  0  0  0  0  0
  184.6760  179.0380  144.8590 C   0  0  1  0  0  3  0  0  0  0  0  0
  185.9190  178.6210  142.6440 C   0  0  1  0  0  3  0  0  0  0  0  0
  184.8560  179.4160  140.4340 C   0  0  2  0  0  3  0  0  0  0  0  0
  185.9130  178.5630  146.9970 C   0  0  0  0  0  2  0  0  0  0  0  0
  184.5520  178.5700  146.3080 C   0  0  0  0  0  2  0  0  0  0  0  0
  183.7690  177.6390  141.5940 C   0  0  0  0  0  2  0  0  0  0  0  0
  185.6560  178.1360  144.0810 C   0  0  1  0  0  3  0  0  0  0  0  0
  183.5040  179.1400  139.8050 C   0  0  0  0  0  2  0  0  0  0  0  0
  186.8750  177.6570  146.2390 C   0  0  0  0  0  2  0  0  0  0  0  0
  186.9070  177.7000  141.9220 C   0  0  1  0  0  3  0  0  0  0  0  0
  188.0180  177.3820  144.1060 N   0  0  0  0  0  0  0  0  0  0  0  0
  183.4150  179.0050  144.2930 F   0  0  0  0  0  0  0  0  0  0  0  0
  186.0950  178.5100  139.4250 S   0  0  0  0  0  0  0  0  0  0  0  0
  187.4230  178.4190  140.6710 C   0  0  2  0  0  3  0  0  0  0  0  0
  182.9150  177.9620  140.4550 N   0  0  0  0  0  0  0  0  0  0  0  0
  184.6500  178.8440  141.8150 C   0  0  1  0  0  3  0  0  0  0  0  0
  188.0220  177.2150  142.8280 C   0  0  0  0  0  3  0  0  0  0  0  0
  191.0020  177.2830  140.1350 C   0  0  0  0  0  0  0  0  0  0  0  0
  190.9000  176.5620  138.9440 C   0  0  0  0  0  3  0  0  0  0  0  0
  188.6260  177.7630  140.0550 C   0  0  0  0  0  0  0  0  0  0  0  0
  189.6620  176.4390  138.3030 C   0  0  0  0  0  3  0  0  0  0  0  0
  189.8670  177.8830  140.6890 C   0  0  0  0  0  3  0  0  0  0  0  0
  188.5280  177.0390  138.8570 C   0  0  0  0  0  3  0  0  0  0  0  0
  192.2010  177.4020  140.7550 F   0  0  0  0  0  0  0  0  0  0  0  0
  183.0100  176.8480  139.5270 C   0  0  0  0  0  2  0  0  0  0  0  0
  182.7060  177.3210  138.1150 C   0  0  0  0  0  2  0  0  0  0  0  0
  184.9620  177.0210  136.0590 C   0  0  0  0  0  1  0  0  0  0  0  0
  182.9300  176.2350  137.1740 N   0  0  0  0  0  0  0  0  0  0  0  0
  184.3870  176.0400  137.0670 C   0  0  1  0  0  3  0  0  0  0  0  0
  183.6430  173.9150  135.9160 C   0  0  0  0  0  2  0  0  0  0  0  0
  182.3860  173.8630  136.7880 C   0  0  0  0  0  2  0  0  0  0  0  0
  182.3050  175.0460  137.7580 C   0  0  0  0  0  2  0  0  0  0  0  0
  184.7840  174.6120  136.6510 C   0  0  0  0  0  2  0  0  0  0  0  0
  1 10  1  1  0  0  0
  2 13  1  6  0  0  0
  2  6  1  0  0  0  0
  3  8  1  0  0  0  0
  4 17  1  0  0  0  0
  6  5  1  0  0  0  0
  7 17  1  0  0  0  0
  8  1  1  0  0  0  0
  8  2  1  0  0  0  0
  9  4  1  0  0  0  0
  9 16  1  0  0  0  0
 10  5  1  0  0  0  0
 11  3  1  0  0  0  0
 11 18  1  0  0  0  0
 12  1  1  0  0  0  0
 14  4  1  0  0  0  0
 14 15  1  0  0  0  0
 15 11  1  0  0  0  0
 16  7  1  0  0  0  0
 17  3  1  0  0  0  0
 18 12  2  0  0  0  0
 19 23  1  0  0  0  0
 19 25  1  0  0  0  0
 20 19  2  0  0  0  0
 21 15  1  0  0  0  0
 21 23  2  0  0  0  0
 22 24  2  0  0  0  0
 22 20  1  0  0  0  0
 24 21  1  0  0  0  0
 26 16  1  0  0  0  0
 27 26  1  0  0  0  0
 28 30  1  0  0  0  0
 29 33  1  0  0  0  0
 29 27  1  0  0  0  0
 30 29  1  0  0  0  0
 31 34  1  0  0  0  0
 31 32  1  0  0  0  0
 32 33  1  0  0  0  0
 34 30  1  0  0  0  0
M  END
>  <MODEL>
2

>  <REMARK>
 VINA RESULT:      -7.9      3.700      8.962
  Name = 
  4 active torsions:
  status: ('A' for Active; 'I' for Inactive)
    1  A    between atoms: C_3  and  N_13
    2  A    between atoms: C_3  and  C_17
    3  A    between atoms: C_12  and  C_28
    4  A    between atoms: C_17  and  N_29
                            x       y       z     vdW  Elec       q    Type
                         _______ _______ _______ _____ _____    ______ ____

>  <TORSDO>
F 4

$$$$
=
 OpenBabel10252415033D

 34 39  0  0  1  0  0  0  0  0999 V2000
  187.8190  178.1250  139.2130 C   0  0  1  0  0  3  0  0  0  0  0  0
  186.5990  177.8550  137.0510 C   0  0  1  0  0  3  0  0  0  0  0  0
  185.3570  178.0210  139.2990 C   0  0  1  0  0  3  0  0  0  0  0  0
  182.8140  177.5980  139.3660 C   0  0  2  0  0  3  0  0  0  0  0  0
  189.1130  177.9280  137.1010 C   0  0  0  0  0  2  0  0  0  0  0  0
  187.8620  178.2880  136.3070 C   0  0  0  0  0  2  0  0  0  0  0  0
  183.5690  179.5510  138.2250 C   0  0  0  0  0  2  0  0  0  0  0  0
  186.5440  178.5060  138.4480 C   0  0  1  0  0  3  0  0  0  0  0  0
  181.6630  178.2290  138.6060 C   0  0  0  0  0  2  0  0  0  0  0  0
  189.0670  178.5870  138.4740 C   0  0  0  0  0  2  0  0  0  0  0  0
  185.3560  178.6880  140.6780 C   0  0  1  0  0  3  0  0  0  0  0  0
  187.8230  178.6380  140.5670 N   0  0  0  0  0  0  0  0  0  0  0  0
  185.5090  178.2250  136.2870 F   0  0  0  0  0  0  0  0  0  0  0  0
  182.6850  178.1960  141.0990 S   0  0  0  0  0  0  0  0  0  0  0  0
  184.4140  177.9060  141.5990 C   0  0  2  0  0  3  0  0  0  0  0  0
  182.1240  179.4940  138.0200 N   0  0  0  0  0  0  0  0  0  0  0  0
  183.9950  178.1550  138.6100 C   0  0  1  0  0  3  0  0  0  0  0  0
  186.7510  178.8430  141.2510 C   0  0  0  0  0  3  0  0  0  0  0  0
  185.9080  178.2130  145.0720 C   0  0  0  0  0  0  0  0  0  0  0  0
  184.8980  178.8870  145.7620 C   0  0  0  0  0  3  0  0  0  0  0  0
  184.5670  178.2570  143.0520 C   0  0  0  0  0  0  0  0  0  0  0  0
  183.7190  179.2460  145.1000 C   0  0  0  0  0  3  0  0  0  0  0  0
  185.7430  177.8980  143.7200 C   0  0  0  0  0  3  0  0  0  0  0  0
  183.5530  178.9320  143.7490 C   0  0  0  0  0  3  0  0  0  0  0  0
  187.0500  177.8640  145.7130 F   0  0  0  0  0  0  0  0  0  0  0  0
  181.5460  180.5800  138.7940 C   0  0  0  0  0  2  0  0  0  0  0  0
  180.3460  181.1570  138.0620 C   0  0  0  0  0  2  0  0  0  0  0  0
  180.6880  181.0060  135.0170 C   0  0  0  0  0  1  0  0  0  0  0  0
  180.7840  182.2030  137.1510 N   0  0  0  0  0  0  0  0  0  0  0  0
  180.0180  182.0450  135.9010 C   0  0  1  0  0  3  0  0  0  0  0  0
  180.9800  184.3420  135.4600 C   0  0  0  0  0  2  0  0  0  0  0  0
  180.9710  184.6520  136.9590 C   0  0  0  0  0  2  0  0  0  0  0  0
  180.4470  183.4760  137.7900 C   0  0  0  0  0  2  0  0  0  0  0  0
  179.8730  183.3540  135.1030 C   0  0  0  0  0  2  0  0  0  0  0  0
  1 10  1  6  0  0  0
  1 12  1  0  0  0  0
  2 13  1  6  0  0  0
  2  8  1  0  0  0  0
  3 11  1  0  0  0  0
  4 14  1  0  0  0  0
  5 10  1  0  0  0  0
  6  2  1  0  0  0  0
  6  5  1  0  0  0  0
  7 17  1  0  0  0  0
  8  1  1  0  0  0  0
  8  3  1  0  0  0  0
  9  4  1  0  0  0  0
 11 18  1  0  0  0  0
 11 15  1  0  0  0  0
 12 18  2  0  0  0  0
 14 15  1  0  0  0  0
 15 21  1  0  0  0  0
 16  7  1  0  0  0  0
 16  9  1  0  0  0  0
 16 26  1  0  0  0  0
 17  3  1  0  0  0  0
 17  4  1  0  0  0  0
 19 25  1  0  0  0  0
 19 20  1  0  0  0  0
 21 23  1  0  0  0  0
 21 24  2  0  0  0  0
 22 20  2  0  0  0  0
 23 19  2  0  0  0  0
 24 22  1  0  0  0  0
 27 26  1  0  0  0  0
 28 30  1  0  0  0  0
 29 33  1  0  0  0  0
 29 27  1  0  0  0  0
 30 29  1  0  0  0  0
 31 32  1  0  0  0  0
 32 33  1  0  0  0  0
 34 31  1  0  0  0  0
 34 30  1  0  0  0  0
M  END
>  <MODEL>
3

>  <REMARK>
 VINA RESULT:      -7.8      6.474      9.536
  Name = 
  4 active torsions:
  status: ('A' for Active; 'I' for Inactive)
    1  A    between atoms: C_3  and  N_13
    2  A    between atoms: C_3  and  C_17
    3  A    between atoms: C_12  and  C_28
    4  A    between atoms: C_17  and  N_29
                            x       y       z     vdW  Elec       q    Type
                         _______ _______ _______ _____ _____    ______ ____

>  <TORSDO>
F 4

$$$$
=
 OpenBabel10252415033D

 34 39  0  0  1  0  0  0  0  0999 V2000
  186.9850  178.1330  144.7970 C   0  0  1  0  0  3  0  0  0  0  0  0
  184.6580  179.0400  144.8480 C   0  0  1  0  0  3  0  0  0  0  0  0
  185.8990  178.6110  142.6350 C   0  0  1  0  0  3  0  0  0  0  0  0
  184.8420  179.4130  140.4230 C   0  0  2  0  0  3  0  0  0  0  0  0
  185.8920  178.5560  146.9870 C   0  0  0  0  0  2  0  0  0  0  0  0
  184.5310  178.5740  146.2990 C   0  0  0  0  0  2  0  0  0  0  0  0
  183.7410  177.6460  141.5840 C   0  0  0  0  0  2  0  0  0  0  0  0
  185.6320  178.1290  144.0720 C   0  0  1  0  0  3  0  0  0  0  0  0
  183.4880  179.1480  139.7950 C   0  0  0  0  0  2  0  0  0  0  0  0
  186.8460  177.6420  146.2300 C   0  0  0  0  0  2  0  0  0  0  0  0
  186.8790  177.6810  141.9130 C   0  0  1  0  0  3  0  0  0  0  0  0
  187.9870  177.3560  144.0970 N   0  0  0  0  0  0  0  0  0  0  0  0
  183.3980  179.0170  144.2830 F   0  0  0  0  0  0  0  0  0  0  0  0
  186.0750  178.4960  139.4150 S   0  0  0  0  0  0  0  0  0  0  0  0
  187.4010  178.3950  140.6620 C   0  0  2  0  0  3  0  0  0  0  0  0
  182.8890  177.9750  140.4460 N   0  0  0  0  0  0  0  0  0  0  0  0
  184.6320  178.8440  141.8050 C   0  0  1  0  0  3  0  0  0  0  0  0
  187.9900  177.1880  142.8200 C   0  0  0  0  0  3  0  0  0  0  0  0
  189.5590  176.4540  138.2210 C   0  0  0  0  0  0  0  0  0  0  0  0
  190.8020  176.4710  138.8580 C   0  0  0  0  0  3  0  0  0  0  0  0
  188.5990  177.7290  140.0460 C   0  0  0  0  0  0  0  0  0  0  0  0
  190.9480  177.1160  140.0910 C   0  0  0  0  0  3  0  0  0  0  0  0
  188.4600  177.0810  138.8140 C   0  0  0  0  0  3  0  0  0  0  0  0
  189.8490  177.7430  140.6840 C   0  0  0  0  0  3  0  0  0  0  0  0
  189.4190  175.8290  137.0270 F   0  0  0  0  0  0  0  0  0  0  0  0
  182.9760  176.8590  139.5180 C   0  0  0  0  0  2  0  0  0  0  0  0
  181.6670  176.7120  138.7600 C   0  0  0  0  0  2  0  0  0  0  0  0
  179.6710  175.0990  140.4400 C   0  0  0  0  0  1  0  0  0  0  0  0
  181.3230  175.3040  138.6450 N   0  0  0  0  0  0  0  0  0  0  0  0
  179.8830  175.1780  138.9370 C   0  0  1  0  0  3  0  0  0  0  0  0
  180.2680  172.8740  137.9700 C   0  0  0  0  0  2  0  0  0  0  0  0
  181.3650  173.4230  137.0540 C   0  0  0  0  0  2  0  0  0  0  0  0
  181.5890  174.9250  137.2550 C   0  0  0  0  0  2  0  0  0  0  0  0
  179.2300  173.9490  138.2790 C   0  0  0  0  0  2  0  0  0  0  0  0
  1 10  1  1  0  0  0
  2 13  1  6  0  0  0
  2  6  1  0  0  0  0
  3  8  1  0  0  0  0
  4 17  1  0  0  0  0
  6  5  1  0  0  0  0
  7 17  1  0  0  0  0
  8  1  1  0  0  0  0
  8  2  1  0  0  0  0
  9  4  1  0  0  0  0
  9 16  1  0  0  0  0
 10  5  1  0  0  0  0
 11  3  1  0  0  0  0
 11 18  1  0  0  0  0
 12  1  1  0  0  0  0
 14  4  1  0  0  0  0
 14 15  1  0  0  0  0
 15 11  1  0  0  0  0
 16  7  1  0  0  0  0
 17  3  1  0  0  0  0
 18 12  2  0  0  0  0
 19 23  2  0  0  0  0
 19 20  1  0  0  0  0
 20 22  2  0  0  0  0
 21 15  1  0  0  0  0
 21 24  2  0  0  0  0
 22 24  1  0  0  0  0
 23 21  1  0  0  0  0
 25 19  1  0  0  0  0
 26 16  1  0  0  0  0
 27 26  1  0  0  0  0
 29 27  1  0  0  0  0
 29 30  1  0  0  0  0
 30 28  1  0  0  0  0
 31 34  1  0  0  0  0
 32 33  1  0  0  0  0
 32 31  1  0  0  0  0
 33 29  1  0  0  0  0
 34 30  1  0  0  0  0
M  END
>  <MODEL>
4

>  <REMARK>
 VINA RESULT:      -7.6      4.341      9.248
  Name = 
  4 active torsions:
  status: ('A' for Active; 'I' for Inactive)
    1  A    between atoms: C_3  and  N_13
    2  A    between atoms: C_3  and  C_17
    3  A    between atoms: C_12  and  C_28
    4  A    between atoms: C_17  and  N_29
                            x       y       z     vdW  Elec       q    Type
                         _______ _______ _______ _____ _____    ______ ____

>  <TORSDO>
F 4

$$$$
=
 OpenBabel10252415033D

 34 39  0  0  1  0  0  0  0  0999 V2000
  187.1750  178.1430  144.9500 C   0  0  1  0  0  3  0  0  0  0  0  0
  184.8300  179.0000  145.0410 C   0  0  1  0  0  3  0  0  0  0  0  0
  186.0430  178.5970  142.8070 C   0  0  1  0  0  3  0  0  0  0  0  0
  184.9330  179.3760  140.6130 C   0  0  2  0  0  3  0  0  0  0  0  0
  186.1080  178.5420  147.1590 C   0  0  0  0  0  2  0  0  0  0  0  0
  184.7360  178.5310  146.4930 C   0  0  0  0  0  2  0  0  0  0  0  0
  183.8890  177.5850  141.7920 C   0  0  0  0  0  2  0  0  0  0  0  0
  185.8100  178.1100  144.2480 C   0  0  1  0  0  3  0  0  0  0  0  0
  183.5740  179.0820  140.0070 C   0  0  0  0  0  2  0  0  0  0  0  0
  187.0700  177.6490  146.3860 C   0  0  0  0  0  2  0  0  0  0  0  0
  187.0310  177.6880  142.0690 C   0  0  1  0  0  3  0  0  0  0  0  0
  188.1810  177.3880  144.2340 N   0  0  0  0  0  0  0  0  0  0  0  0
  183.5610  178.9490  144.4960 F   0  0  0  0  0  0  0  0  0  0  0  0
  186.1680  178.4860  139.5850 S   0  0  0  0  0  0  0  0  0  0  0  0
  187.5170  178.4130  140.8100 C   0  0  2  0  0  3  0  0  0  0  0  0
  183.0120  177.8960  140.6680 N   0  0  0  0  0  0  0  0  0  0  0  0
  184.7580  178.8020  141.9980 C   0  0  1  0  0  3  0  0  0  0  0  0
  188.1670  177.2190  142.9570 C   0  0  0  0  0  3  0  0  0  0  0  0
  191.0910  177.2770  140.2450 C   0  0  0  0  0  0  0  0  0  0  0  0
  190.9890  176.5990  139.0280 C   0  0  0  0  0  3  0  0  0  0  0  0
  188.7180  177.7730  140.1740 C   0  0  0  0  0  0  0  0  0  0  0  0
  189.7520  176.5060  138.3800 C   0  0  0  0  0  3  0  0  0  0  0  0
  189.9580  177.8630  140.8160 C   0  0  0  0  0  3  0  0  0  0  0  0
  188.6200  177.0920  138.9500 C   0  0  0  0  0  3  0  0  0  0  0  0
  192.2890  177.3670  140.8720 F   0  0  0  0  0  0  0  0  0  0  0  0
  183.1070  176.7820  139.7380 C   0  0  0  0  0  2  0  0  0  0  0  0
  181.7260  176.4210  139.2180 C   0  0  0  0  0  2  0  0  0  0  0  0
  179.5910  177.9220  137.6040 C   0  0  0  0  0  1  0  0  0  0  0  0
  181.6700  176.6400  137.7810 N   0  0  0  0  0  0  0  0  0  0  0  0
  181.1090  177.9870  137.5640 C   0  0  1  0  0  3  0  0  0  0  0  0
  181.9550  177.5530  135.2200 C   0  0  0  0  0  2  0  0  0  0  0  0
  183.0960  176.6950  135.7730 C   0  0  0  0  0  2  0  0  0  0  0  0
  183.0520  176.5880  137.3010 C   0  0  0  0  0  2  0  0  0  0  0  0
  181.5420  178.6210  136.2290 C   0  0  0  0  0  2  0  0  0  0  0  0
  1 10  1  1  0  0  0
  2 13  1  6  0  0  0
  2  6  1  0  0  0  0
  3  8  1  0  0  0  0
  4 17  1  0  0  0  0
  6  5  1  0  0  0  0
  7 17  1  0  0  0  0
  8  1  1  0  0  0  0
  8  2  1  0  0  0  0
  9  4  1  0  0  0  0
  9 16  1  0  0  0  0
 10  5  1  0  0  0  0
 11  3  1  0  0  0  0
 11 18  1  0  0  0  0
 12  1  1  0  0  0  0
 14  4  1  0  0  0  0
 14 15  1  0  0  0  0
 15 11  1  0  0  0  0
 16  7  1  0  0  0  0
 17  3  1  0  0  0  0
 18 12  2  0  0  0  0
 19 23  1  0  0  0  0
 19 25  1  0  0  0  0
 20 19  2  0  0  0  0
 21 15  1  0  0  0  0
 21 23  2  0  0  0  0
 22 24  2  0  0  0  0
 22 20  1  0  0  0  0
 24 21  1  0  0  0  0
 26 16  1  0  0  0  0
 27 26  1  0  0  0  0
 29 27  1  0  0  0  0
 30 28  1  0  0  0  0
 30 29  1  0  0  0  0
 31 32  1  0  0  0  0
 31 34  1  0  0  0  0
 32 33  1  0  0  0  0
 33 29  1  0  0  0  0
 34 30  1  0  0  0  0
M  END
>  <MODEL>
5

>  <REMARK>
 VINA RESULT:      -7.5      4.367      9.273
  Name = 
  4 active torsions:
  status: ('A' for Active; 'I' for Inactive)
    1  A    between atoms: C_3  and  N_13
    2  A    between atoms: C_3  and  C_17
    3  A    between atoms: C_12  and  C_28
    4  A    between atoms: C_17  and  N_29
                            x       y       z     vdW  Elec       q    Type
                         _______ _______ _______ _____ _____    ______ ____

>  <TORSDO>
F 4

$$$$
=
 OpenBabel10252415033D

 34 39  0  0  1  0  0  0  0  0999 V2000
  185.3710  178.5470  142.1140 C   0  0  1  0  0  3  0  0  0  0  0  0
  184.9660  178.9650  139.6840 C   0  0  1  0  0  3  0  0  0  0  0  0
  187.3120  178.4290  140.5970 C   0  0  1  0  0  3  0  0  0  0  0  0
  189.3490  178.6210  139.0260 C   0  0  2  0  0  3  0  0  0  0  0  0
  183.0770  179.1020  141.3390 C   0  0  0  0  0  2  0  0  0  0  0  0
  183.4730  178.7320  139.9140 C   0  0  0  0  0  2  0  0  0  0  0  0
  187.7750  176.8880  138.5710 C   0  0  0  0  0  2  0  0  0  0  0  0
  185.8020  178.1510  140.6940 C   0  0  1  0  0  3  0  0  0  0  0  0
  189.6520  177.9880  137.6820 C   0  0  0  0  0  2  0  0  0  0  0  0
  183.8890  178.2850  142.3350 C   0  0  0  0  0  2  0  0  0  0  0  0
  188.0930  177.6070  141.6270 C   0  0  1  0  0  3  0  0  0  0  0  0
  186.1540  177.8810  143.1330 N   0  0  0  0  0  0  0  0  0  0  0  0
  185.2580  178.5950  138.3850 F   0  0  0  0  0  0  0  0  0  0  0  0
  190.4600  177.8140  140.2460 S   0  0  0  0  0  0  0  0  0  0  0  0
  189.5040  178.1910  141.7530 C   0  0  2  0  0  3  0  0  0  0  0  0
  188.7510  176.8450  137.4860 N   0  0  0  0  0  0  0  0  0  0  0  0
  187.8920  178.2600  139.1890 C   0  0  1  0  0  3  0  0  0  0  0  0
  187.3740  177.5050  142.9580 C   0  0  0  0  0  3  0  0  0  0  0  0
  191.5230  175.9100  144.0110 C   0  0  0  0  0  0  0  0  0  0  0  0
  191.6760  176.6970  145.1550 C   0  0  0  0  0  3  0  0  0  0  0  0
  190.2590  177.6860  142.9490 C   0  0  0  0  0  0  0  0  0  0  0  0
  191.1200  177.9800  145.2000 C   0  0  0  0  0  3  0  0  0  0  0  0
  190.8160  176.4030  142.9110 C   0  0  0  0  0  3  0  0  0  0  0  0
  190.4130  178.4740  144.1000 C   0  0  0  0  0  3  0  0  0  0  0  0
  192.0610  174.6660  143.9680 F   0  0  0  0  0  0  0  0  0  0  0  0
  189.5280  175.6300  137.6670 C   0  0  0  0  0  2  0  0  0  0  0  0
  190.4970  175.4560  136.5100 C   0  0  0  0  0  2  0  0  0  0  0  0
  191.7560  172.7640  135.7490 C   0  0  0  0  0  1  0  0  0  0  0  0
  191.7390  174.8730  136.9920 N   0  0  0  0  0  0  0  0  0  0  0  0
  192.3560  174.1560  135.8610 C   0  0  1  0  0  3  0  0  0  0  0  0
  194.3370  174.1460  137.4330 C   0  0  0  0  0  2  0  0  0  0  0  0
  193.8870  175.4790  138.0350 C   0  0  0  0  0  2  0  0  0  0  0  0
  192.5900  175.9920  137.4020 C   0  0  0  0  0  2  0  0  0  0  0  0
  193.8850  174.0270  135.9800 C   0  0  0  0  0  2  0  0  0  0  0  0
  1 10  1  1  0  0  0
  1 12  1  0  0  0  0
  2 13  1  6  0  0  0
  2  6  1  0  0  0  0
  2  8  1  0  0  0  0
  3  8  1  0  0  0  0
  3 11  1  0  0  0  0
  4 17  1  0  0  0  0
  4 14  1  0  0  0  0
  5 10  1  0  0  0  0
  6  5  1  0  0  0  0
  7 17  1  0  0  0  0
  8  1  1  0  0  0  0
  9  4  1  0  0  0  0
 11 15  1  0  0  0  0
 11 18  1  0  0  0  0
 14 15  1  0  0  0  0
 15 21  1  0  0  0  0
 16 26  1  0  0  0  0
 16  9  1  0  0  0  0
 16  7  1  0  0  0  0
 17  3  1  0  0  0  0
 18 12  2  0  0  0  0
 19 20  1  0  0  0  0
 20 22  2  0  0  0  0
 21 24  2  0  0  0  0
 23 21  1  0  0  0  0
 23 19  2  0  0  0  0
 24 22  1  0  0  0  0
 25 19  1  0  0  0  0
 27 29  1  0  0  0  0
 27 26  1  0  0  0  0
 28 30  1  0  0  0  0
 29 33  1  0  0  0  0
 30 34  1  0  0  0  0
 30 29  1  0  0  0  0
 31 32  1  0  0  0  0
 33 32  1  0  0  0  0
 34 31  1  0  0  0  0
M  END
>  <MODEL>
6

>  <REMARK>
 VINA RESULT:      -7.5      2.862      8.575
  Name = 
  4 active torsions:
  status: ('A' for Active; 'I' for Inactive)
    1  A    between atoms: C_3  and  N_13
    2  A    between atoms: C_3  and  C_17
    3  A    between atoms: C_12  and  C_28
    4  A    between atoms: C_17  and  N_29
                            x       y       z     vdW  Elec       q    Type
                         _______ _______ _______ _____ _____    ______ ____

>  <TORSDO>
F 4

$$$$
=
 OpenBabel10252415033D

 34 39  0  0  1  0  0  0  0  0999 V2000
  192.0970  173.9000  136.2990 C   0  0  1  0  0  3  0  0  0  0  0  0
  193.1950  175.8940  137.3260 C   0  0  1  0  0  3  0  0  0  0  0  0
  190.6380  175.7280  137.0810 C   0  0  1  0  0  3  0  0  0  0  0  0
  189.1850  177.7880  137.6270 C   0  0  2  0  0  3  0  0  0  0  0  0
  194.5750  173.9830  136.4470 C   0  0  0  0  0  2  0  0  0  0  0  0
  194.4700  175.0720  137.5100 C   0  0  0  0  0  2  0  0  0  0  0  0
  190.3230  176.7390  139.4420 C   0  0  0  0  0  2  0  0  0  0  0  0
  191.9520  174.9830  137.3780 C   0  0  1  0  0  3  0  0  0  0  0  0
  189.0780  178.6490  138.8710 C   0  0  0  0  0  2  0  0  0  0  0  0
  193.3560  173.0730  136.5120 C   0  0  0  0  0  2  0  0  0  0  0  0
  189.4390  174.7770  137.1330 C   0  0  1  0  0  3  0  0  0  0  0  0
  190.9380  173.0350  136.2280 N   0  0  0  0  0  0  0  0  0  0  0  0
  193.1560  176.8460  138.3270 F   0  0  0  0  0  0  0  0  0  0  0  0
  187.6330  176.8090  137.5350 S   0  0  0  0  0  0  0  0  0  0  0  0
  188.2410  175.4620  136.4670 C   0  0  2  0  0  3  0  0  0  0  0  0
  189.6750  177.9220  139.9990 N   0  0  0  0  0  0  0  0  0  0  0  0
  190.4100  176.9680  137.9520 C   0  0  1  0  0  3  0  0  0  0  0  0
  189.7470  173.4170  136.5400 C   0  0  0  0  0  3  0  0  0  0  0  0
  185.2790  173.1480  136.9710 C   0  0  0  0  0  0  0  0  0  0  0  0
  184.9760  172.7780  135.6580 C   0  0  0  0  0  3  0  0  0  0  0  0
  187.1040  174.5270  136.1670 C   0  0  0  0  0  0  0  0  0  0  0  0
  185.7350  173.2800  134.5960 C   0  0  0  0  0  3  0  0  0  0  0  0
  186.3420  174.0200  137.2240 C   0  0  0  0  0  3  0  0  0  0  0  0
  186.7980  174.1520  134.8490 C   0  0  0  0  0  3  0  0  0  0  0  0
  184.5430  172.6610  137.9990 F   0  0  0  0  0  0  0  0  0  0  0  0
  188.5920  177.4500  140.8460 C   0  0  0  0  0  2  0  0  0  0  0  0
  187.8150  178.6320  141.4020 C   0  0  0  0  0  2  0  0  0  0  0  0
  186.5580  177.5090  143.9650 C   0  0  0  0  0  1  0  0  0  0  0  0
  186.4320  178.2450  141.6330 N   0  0  0  0  0  0  0  0  0  0  0  0
  186.1010  178.6100  143.0230 C   0  0  1  0  0  3  0  0  0  0  0  0
  183.7580  178.1530  142.1900 C   0  0  0  0  0  2  0  0  0  0  0  0
  184.1490  178.6140  140.7830 C   0  0  0  0  0  2  0  0  0  0  0  0
  185.6220  179.0300  140.7000 C   0  0  0  0  0  2  0  0  0  0  0  0
  184.5990  178.8620  143.2470 C   0  0  0  0  0  2  0  0  0  0  0  0
  1 10  1  1  0  0  0
  1  8  1  0  0  0  0
  2  8  1  0  0  0  0
  2  6  1  0  0  0  0
  2 13  1  1  0  0  0
  3 11  1  0  0  0  0
  3  8  1  0  0  0  0
  3 17  1  0  0  0  0
  4 17  1  0  0  0  0
  4  9  1  0  0  0  0
  5 10  1  0  0  0  0
  5  6  1  0  0  0  0
  7 16  1  0  0  0  0
  9 16  1  0  0  0  0
 12  1  1  0  0  0  0
 12 18  2  0  0  0  0
 14  4  1  0  0  0  0
 15 11  1  0  0  0  0
 15 14  1  0  0  0  0
 16 26  1  0  0  0  0
 17  7  1  0  0  0  0
 18 11  1  0  0  0  0
 19 23  1  0  0  0  0
 19 25  1  0  0  0  0
 20 19  2  0  0  0  0
 21 15  1  0  0  0  0
 21 23  2  0  0  0  0
 22 24  2  0  0  0  0
 22 20  1  0  0  0  0
 24 21  1  0  0  0  0
 26 27  1  0  0  0  0
 27 29  1  0  0  0  0
 29 30  1  0  0  0  0
 30 34  1  0  0  0  0
 30 28  1  0  0  0  0
 31 34  1  0  0  0  0
 32 31  1  0  0  0  0
 33 32  1  0  0  0  0
 33 29  1  0  0  0  0
M  END
>  <MODEL>
7

>  <REMARK>
 VINA RESULT:      -7.5      1.603      2.182
  Name = 
  4 active torsions:
  status: ('A' for Active; 'I' for Inactive)
    1  A    between atoms: C_3  and  N_13
    2  A    between atoms: C_3  and  C_17
    3  A    between atoms: C_12  and  C_28
    4  A    between atoms: C_17  and  N_29
                            x       y       z     vdW  Elec       q    Type
                         _______ _______ _______ _____ _____    ______ ____

>  <TORSDO>
F 4

$$$$
=
 OpenBabel10252415033D

 34 39  0  0  1  0  0  0  0  0999 V2000
  185.7500  178.3260  143.5700 C   0  0  1  0  0  3  0  0  0  0  0  0
  185.1870  179.2250  141.3090 C   0  0  1  0  0  3  0  0  0  0  0  0
  187.5410  178.3510  141.8750 C   0  0  1  0  0  3  0  0  0  0  0  0
  189.4500  178.6830  140.1740 C   0  0  2  0  0  3  0  0  0  0  0  0
  183.4610  179.1900  143.1380 C   0  0  0  0  0  2  0  0  0  0  0  0
  183.7030  179.0670  141.6370 C   0  0  0  0  0  2  0  0  0  0  0  0
  187.6910  177.1910  139.5680 C   0  0  0  0  0  2  0  0  0  0  0  0
  186.0240  178.1740  142.0670 C   0  0  1  0  0  3  0  0  0  0  0  0
  189.5830  178.2950  138.7140 C   0  0  0  0  0  2  0  0  0  0  0  0
  184.2720  178.1390  143.8840 C   0  0  0  0  0  2  0  0  0  0  0  0
  188.3240  177.2920  142.6570 C   0  0  1  0  0  3  0  0  0  0  0  0
  186.5490  177.4220  144.3700 N   0  0  0  0  0  0  0  0  0  0  0  0
  185.3370  179.0870  139.9420 F   0  0  0  0  0  0  0  0  0  0  0  0
  190.5790  177.5780  141.1130 S   0  0  0  0  0  0  0  0  0  0  0  0
  189.7880  177.7340  142.7480 C   0  0  2  0  0  3  0  0  0  0  0  0
  188.5670  177.2800  138.4030 N   0  0  0  0  0  0  0  0  0  0  0  0
  187.9850  178.4090  140.4100 C   0  0  1  0  0  3  0  0  0  0  0  0
  187.7110  176.9950  144.0110 C   0  0  0  0  0  3  0  0  0  0  0  0
  191.4440  176.7390  146.0120 C   0  0  0  0  0  0  0  0  0  0  0  0
  192.0740  175.5420  145.6630 C   0  0  0  0  0  3  0  0  0  0  0  0
  190.5890  176.9560  143.7530 C   0  0  0  0  0  0  0  0  0  0  0  0
  191.9660  175.0490  144.3580 C   0  0  0  0  0  3  0  0  0  0  0  0
  190.7030  177.4440  145.0590 C   0  0  0  0  0  3  0  0  0  0  0  0
  191.2260  175.7540  143.4050 C   0  0  0  0  0  3  0  0  0  0  0  0
  191.5500  177.2160  147.2760 F   0  0  0  0  0  0  0  0  0  0  0  0
  189.2410  175.9980  138.2830 C   0  0  0  0  0  2  0  0  0  0  0  0
  189.1170  175.4770  136.8610 C   0  0  0  0  0  2  0  0  0  0  0  0
  186.2760  175.7660  135.7400 C   0  0  0  0  0  1  0  0  0  0  0  0
  188.0660  174.4730  136.7960 N   0  0  0  0  0  0  0  0  0  0  0  0
  187.3290  174.6900  135.5380 C   0  0  1  0  0  3  0  0  0  0  0  0
  186.3980  172.4130  136.1280 C   0  0  0  0  0  2  0  0  0  0  0  0
  187.7130  172.0350  136.8150 C   0  0  0  0  0  2  0  0  0  0  0  0
  188.7380  173.1720  136.7690 C   0  0  0  0  0  2  0  0  0  0  0  0
  186.6420  173.4190  135.0050 C   0  0  0  0  0  2  0  0  0  0  0  0
  1 10  1  6  0  0  0
  1 12  1  0  0  0  0
  2 13  1  6  0  0  0
  2  6  1  0  0  0  0
  2  8  1  0  0  0  0
  3  8  1  0  0  0  0
  3 11  1  0  0  0  0
  4 17  1  0  0  0  0
  4 14  1  0  0  0  0
  5 10  1  0  0  0  0
  6  5  1  0  0  0  0
  7 17  1  0  0  0  0
  8  1  1  0  0  0  0
  9  4  1  0  0  0  0
 11 15  1  0  0  0  0
 11 18  1  0  0  0  0
 14 15  1  0  0  0  0
 15 21  1  0  0  0  0
 16  9  1  0  0  0  0
 16  7  1  0  0  0  0
 17  3  1  0  0  0  0
 18 12  2  0  0  0  0
 19 25  1  0  0  0  0
 20 19  1  0  0  0  0
 21 23  1  0  0  0  0
 22 20  2  0  0  0  0
 23 19  2  0  0  0  0
 24 21  2  0  0  0  0
 24 22  1  0  0  0  0
 26 16  1  0  0  0  0
 27 26  1  0  0  0  0
 29 27  1  0  0  0  0
 30 28  1  0  0  0  0
 30 29  1  0  0  0  0
 31 32  1  0  0  0  0
 33 29  1  0  0  0  0
 33 32  1  0  0  0  0
 34 30  1  0  0  0  0
 34 31  1  0  0  0  0
M  END
>  <MODEL>
8

>  <REMARK>
 VINA RESULT:      -7.2      3.143      8.985
  Name = 
  4 active torsions:
  status: ('A' for Active; 'I' for Inactive)
    1  A    between atoms: C_3  and  N_13
    2  A    between atoms: C_3  and  C_17
    3  A    between atoms: C_12  and  C_28
    4  A    between atoms: C_17  and  N_29
                            x       y       z     vdW  Elec       q    Type
                         _______ _______ _______ _____ _____    ______ ____

>  <TORSDO>
F 4

$$$$
=
 OpenBabel10252415033D

 34 39  0  0  1  0  0  0  0  0999 V2000
  185.6770  178.4360  144.3350 C   0  0  1  0  0  3  0  0  0  0  0  0
  185.0640  179.3780  142.1040 C   0  0  1  0  0  3  0  0  0  0  0  0
  187.4350  178.5110  142.6060 C   0  0  1  0  0  3  0  0  0  0  0  0
  189.3080  178.8950  140.8760 C   0  0  2  0  0  3  0  0  0  0  0  0
  183.3730  179.2890  143.9650 C   0  0  0  0  0  2  0  0  0  0  0  0
  183.5870  179.2000  142.4570 C   0  0  0  0  0  2  0  0  0  0  0  0
  187.5500  177.4020  140.2720 C   0  0  0  0  0  2  0  0  0  0  0  0
  185.9230  178.3180  142.8240 C   0  0  1  0  0  3  0  0  0  0  0  0
  189.4160  178.5390  139.4060 C   0  0  0  0  0  2  0  0  0  0  0  0
  184.2080  178.2300  144.6730 C   0  0  0  0  0  2  0  0  0  0  0  0
  188.2410  177.4430  143.3500 C   0  0  1  0  0  3  0  0  0  0  0  0
  186.4990  177.5210  145.1000 N   0  0  0  0  0  0  0  0  0  0  0  0
  185.1880  179.2700  140.7320 F   0  0  0  0  0  0  0  0  0  0  0  0
  190.4630  177.7800  141.7690 S   0  0  0  0  0  0  0  0  0  0  0  0
  189.7040  177.8950  143.4230 C   0  0  2  0  0  3  0  0  0  0  0  0
  188.4020  177.5240  139.0930 N   0  0  0  0  0  0  0  0  0  0  0  0
  187.8500  178.6040  141.1340 C   0  0  1  0  0  3  0  0  0  0  0  0
  187.6570  177.1120  144.7090 C   0  0  0  0  0  3  0  0  0  0  0  0
  191.3000  176.7530  146.6680 C   0  0  0  0  0  0  0  0  0  0  0  0
  192.0570  175.6570  146.2460 C   0  0  0  0  0  3  0  0  0  0  0  0
  190.5300  177.1020  144.3950 C   0  0  0  0  0  0  0  0  0  0  0  0
  192.0550  175.2810  144.8990 C   0  0  0  0  0  3  0  0  0  0  0  0
  190.5380  177.4740  145.7440 C   0  0  0  0  0  3  0  0  0  0  0  0
  191.2940  176.0020  143.9750 C   0  0  0  0  0  3  0  0  0  0  0  0
  191.3030  177.1170  147.9730 F   0  0  0  0  0  0  0  0  0  0  0  0
  189.0830  176.2500  138.9330 C   0  0  0  0  0  2  0  0  0  0  0  0
  189.7270  176.1750  137.5580 C   0  0  0  0  0  2  0  0  0  0  0  0
  190.3010  173.3820  136.4260 C   0  0  0  0  0  1  0  0  0  0  0  0
  190.9600  175.4070  137.6350 N   0  0  0  0  0  0  0  0  0  0  0  0
  191.1000  174.6730  136.3630 C   0  0  1  0  0  3  0  0  0  0  0  0
  193.4380  174.3160  137.2580 C   0  0  0  0  0  2  0  0  0  0  0  0
  193.3850  175.6640  137.9810 C   0  0  0  0  0  2  0  0  0  0  0  0
  192.0450  176.3790  137.7770 C   0  0  0  0  0  2  0  0  0  0  0  0
  192.5600  174.3350  136.0100 C   0  0  0  0  0  2  0  0  0  0  0  0
  1 10  1  6  0  0  0
  1 12  1  0  0  0  0
  2 13  1  6  0  0  0
  2  6  1  0  0  0  0
  2  8  1  0  0  0  0
  3  8  1  0  0  0  0
  3 11  1  0  0  0  0
  4 17  1  0  0  0  0
  4 14  1  0  0  0  0
  5 10  1  0  0  0  0
  6  5  1  0  0  0  0
  7 17  1  0  0  0  0
  8  1  1  0  0  0  0
  9  4  1  0  0  0  0
 11 15  1  0  0  0  0
 11 18  1  0  0  0  0
 14 15  1  0  0  0  0
 15 21  1  0  0  0  0
 16  9  1  0  0  0  0
 16  7  1  0  0  0  0
 17  3  1  0  0  0  0
 18 12  2  0  0  0  0
 19 25  1  0  0  0  0
 20 19  1  0  0  0  0
 21 23  1  0  0  0  0
 22 20  2  0  0  0  0
 23 19  2  0  0  0  0
 24 21  2  0  0  0  0
 24 22  1  0  0  0  0
 26 16  1  0  0  0  0
 27 29  1  0  0  0  0
 27 26  1  0  0  0  0
 29 33  1  0  0  0  0
 30 28  1  0  0  0  0
 30 29  1  0  0  0  0
 31 32  1  0  0  0  0
 33 32  1  0  0  0  0
 34 30  1  0  0  0  0
 34 31  1  0  0  0  0
M  END
>  <MODEL>
9

>  <REMARK>
 VINA RESULT:      -7.1      3.129      9.176
  Name = 
  4 active torsions:
  status: ('A' for Active; 'I' for Inactive)
    1  A    between atoms: C_3  and  N_13
    2  A    between atoms: C_3  and  C_17
    3  A    between atoms: C_12  and  C_28
    4  A    between atoms: C_17  and  N_29
                            x       y       z     vdW  Elec       q    Type
                         _______ _______ _______ _____ _____    ______ ____

>  <TORSDO>
F 4

$$$$
