=
 OpenBabel10262421563D

 30 33  0  0  0  0  0  0  0  0999 V2000
  183.7730  179.0350  140.2620 N   0  0  0  0  0  0  0  0  0  0  0  0
  185.8330  178.6810  141.4200 C   0  0  0  0  0  0  0  0  0  0  0  0
  181.5540  178.6270  143.7810 C   0  0  0  0  0  3  0  0  0  0  0  0
  182.4180  179.1380  140.1950 C   0  0  0  0  0  0  0  0  0  0  0  0
  180.1670  178.7740  143.7500 C   0  0  0  0  0  3  0  0  0  0  0  0
  186.5160  178.4200  142.6110 C   0  0  0  0  0  3  0  0  0  0  0  0
  186.5320  178.8310  140.2680 F   0  0  0  0  0  0  0  0  0  0  0  0
  182.3140  178.7500  142.6050 C   0  0  0  0  0  0  0  0  0  0  0  0
  185.8110  178.2630  143.8060 C   0  0  0  0  0  3  0  0  0  0  0  0
  184.4350  178.7860  141.4220 C   0  0  0  0  0  0  0  0  0  0  0  0
  181.6540  179.0160  141.3790 C   0  0  0  0  0  0  0  0  0  0  0  0
  179.5200  179.0520  142.5450 C   0  0  0  0  0  3  0  0  0  0  0  0
  180.2610  179.1760  141.3690 C   0  0  0  0  0  3  0  0  0  0  0  0
  184.4180  178.3670  143.8160 C   0  0  0  0  0  3  0  0  0  0  0  0
  183.7150  178.6290  142.6270 C   0  0  0  0  0  0  0  0  0  0  0  0
  180.8940  175.8870  137.6450 C   0  0  0  0  0  2  0  0  0  0  0  0
  180.2440  178.6470  137.3500 O   0  0  0  0  0  0  0  0  0  0  0  0
  181.1930  178.3530  138.1260 C   0  0  0  0  0  0  0  0  0  0  0  0
  182.9690  176.6040  138.6560 C   0  0  0  0  0  2  0  0  0  0  0  0
  181.6520  176.9930  138.1930 N   0  0  0  0  0  0  0  0  0  0  0  0
  181.8030  179.3910  138.9180 N   0  0  0  0  0  0  0  0  0  0  0  0
  181.7200  174.6470  137.9260 C   0  0  0  0  0  2  0  0  0  0  0  0
  183.1090  175.1340  138.3130 C   0  0  0  0  0  2  0  0  0  0  0  0
  181.8740  180.7410  138.3720 C   0  0  0  0  0  2  0  0  0  0  0  0
  180.7510  181.5940  138.9400 C   0  0  0  0  0  2  0  0  0  0  0  0
  179.8860  182.1360  137.8190 C   0  0  0  0  0  2  0  0  0  0  0  0
  180.3150  183.4800  137.4680 N   0  0  0  0  0  2  0  0  0  0  0  0
  180.9280  182.9060  135.2880 O   0  0  0  0  0  0  0  0  0  0  0  0
  180.8300  183.7960  136.1760 C   0  0  0  0  0  0  0  0  0  0  0  0
  181.2370  185.1280  135.8860 N   0  0  0  0  0  1  0  0  0  0  0  0
  1 10  1  0  0  0  0
  2 10  2  0  0  0  0
  2  6  1  0  0  0  0
  4  1  2  0  0  0  0
  4 11  1  0  0  0  0
  5  3  1  0  0  0  0
  6  9  2  0  0  0  0
  7  2  1  0  0  0  0
  8 15  1  0  0  0  0
  8  3  2  0  0  0  0
  9 14  1  0  0  0  0
 10 15  1  0  0  0  0
 11  8  1  0  0  0  0
 12  5  2  0  0  0  0
 13 11  2  0  0  0  0
 13 12  1  0  0  0  0
 15 14  2  0  0  0  0
 16 22  1  0  0  0  0
 16 20  1  0  0  0  0
 17 18  2  0  0  0  0
 18 20  1  0  0  0  0
 18 21  1  0  0  0  0
 20 19  1  0  0  0  0
 21  4  1  0  0  0  0
 22 23  1  0  0  0  0
 23 19  1  0  0  0  0
 24 21  1  0  0  0  0
 24 25  1  0  0  0  0
 26 25  1  0  0  0  0
 27 26  1  0  0  0  0
 28 29  2  0  0  0  0
 29 27  1  0  0  0  0
 30 29  1  0  0  0  0
M  END
>  <MODEL>
1

>  <REMARK>
 VINA RESULT:      -6.7      0.000      0.000
  Name = 
  5 active torsions:
  status: ('A' for Active; 'I' for Inactive)
    1  A    between atoms: C_4  and  N_13
    2  A    between atoms: N_7  and  C_16
    3  A    between atoms: N_13  and  C_27
    4  A    between atoms: C_16  and  C_30
    5  A    between atoms: C_27  and  C_30
                            x       y       z     vdW  Elec       q    Type
                         _______ _______ _______ _____ _____    ______ ____

>  <TORSDO>
F 5

$$$$
=
 OpenBabel10262421563D

 30 33  0  0  0  0  0  0  0  0999 V2000
  187.8120  177.6220  143.4450 N   0  0  0  0  0  0  0  0  0  0  0  0
  187.2700  177.7110  145.7700 C   0  0  0  0  0  0  0  0  0  0  0  0
  184.0300  179.0320  142.3570 C   0  0  0  0  0  3  0  0  0  0  0  0
  187.5260  177.7700  142.1230 C   0  0  0  0  0  0  0  0  0  0  0  0
  183.7250  179.2380  141.0110 C   0  0  0  0  0  3  0  0  0  0  0  0
  186.3450  177.9860  146.7820 C   0  0  0  0  0  3  0  0  0  0  0  0
  188.5070  177.2660  146.0990 F   0  0  0  0  0  0  0  0  0  0  0  0
  185.2940  178.5480  142.7390 C   0  0  0  0  0  0  0  0  0  0  0  0
  185.0670  178.4450  146.4600 C   0  0  0  0  0  3  0  0  0  0  0  0
  186.9140  177.8950  144.4270 C   0  0  0  0  0  0  0  0  0  0  0  0
  186.2560  178.2590  141.7390 C   0  0  0  0  0  0  0  0  0  0  0  0
  184.6790  178.9690  140.0290 C   0  0  0  0  0  3  0  0  0  0  0  0
  185.9370  178.4870  140.3920 C   0  0  0  0  0  3  0  0  0  0  0  0
  184.7060  178.6330  145.1230 C   0  0  0  0  0  3  0  0  0  0  0  0
  185.6220  178.3600  144.0930 C   0  0  0  0  0  0  0  0  0  0  0  0
  191.7540  177.2480  143.2380 C   0  0  0  0  0  2  0  0  0  0  0  0
  190.5840  176.3820  140.7870 O   0  0  0  0  0  0  0  0  0  0  0  0
  189.9030  177.1520  141.5160 C   0  0  0  0  0  0  0  0  0  0  0  0
  190.0310  178.9400  143.3280 C   0  0  0  0  0  2  0  0  0  0  0  0
  190.5060  177.7300  142.6850 N   0  0  0  0  0  0  0  0  0  0  0  0
  188.5390  177.4440  141.1520 N   0  0  0  0  0  0  0  0  0  0  0  0
  192.0280  178.1180  144.4490 C   0  0  0  0  0  2  0  0  0  0  0  0
  191.0980  179.3170  144.3360 C   0  0  0  0  0  2  0  0  0  0  0  0
  188.1830  177.4890  139.7400 C   0  0  0  0  0  2  0  0  0  0  0  0
  189.1100  178.4390  138.9980 C   0  0  0  0  0  2  0  0  0  0  0  0
  189.4170  177.8990  137.6150 C   0  0  0  0  0  2  0  0  0  0  0  0
  189.3930  176.4450  137.6340 N   0  0  0  0  0  2  0  0  0  0  0  0
  191.7030  176.2260  137.3590 O   0  0  0  0  0  0  0  0  0  0  0  0
  190.5820  175.6680  137.4990 C   0  0  0  0  0  0  0  0  0  0  0  0
  190.5000  174.2470  137.5240 N   0  0  0  0  0  1  0  0  0  0  0  0
  1 10  1  0  0  0  0
  2  7  1  0  0  0  0
  2  6  1  0  0  0  0
  3  8  1  0  0  0  0
  4  1  2  0  0  0  0
  5  3  2  0  0  0  0
  8 15  1  0  0  0  0
  9  6  2  0  0  0  0
 10  2  2  0  0  0  0
 11  4  1  0  0  0  0
 11  8  2  0  0  0  0
 12 13  2  0  0  0  0
 12  5  1  0  0  0  0
 13 11  1  0  0  0  0
 14  9  1  0  0  0  0
 15 10  1  0  0  0  0
 15 14  2  0  0  0  0
 16 22  1  0  0  0  0
 17 18  2  0  0  0  0
 18 20  1  0  0  0  0
 19 23  1  0  0  0  0
 20 16  1  0  0  0  0
 20 19  1  0  0  0  0
 21 18  1  0  0  0  0
 21  4  1  0  0  0  0
 23 22  1  0  0  0  0
 24 21  1  0  0  0  0
 25 24  1  0  0  0  0
 26 27  1  0  0  0  0
 26 25  1  0  0  0  0
 28 29  2  0  0  0  0
 29 30  1  0  0  0  0
 29 27  1  0  0  0  0
M  END
>  <MODEL>
2

>  <REMARK>
 VINA RESULT:      -6.6      5.830      8.322
  Name = 
  5 active torsions:
  status: ('A' for Active; 'I' for Inactive)
    1  A    between atoms: C_4  and  N_13
    2  A    between atoms: N_7  and  C_16
    3  A    between atoms: N_13  and  C_27
    4  A    between atoms: C_16  and  C_30
    5  A    between atoms: C_27  and  C_30
                            x       y       z     vdW  Elec       q    Type
                         _______ _______ _______ _____ _____    ______ ____

>  <TORSDO>
F 5

$$$$
=
 OpenBabel10262421563D

 30 33  0  0  0  0  0  0  0  0999 V2000
  183.4470  178.9070  139.8100 N   0  0  0  0  0  0  0  0  0  0  0  0
  185.7200  178.6420  139.1240 C   0  0  0  0  0  0  0  0  0  0  0  0
  184.4740  178.5940  143.8500 C   0  0  0  0  0  3  0  0  0  0  0  0
  182.4580  178.9800  140.7420 C   0  0  0  0  0  0  0  0  0  0  0  0
  183.4870  178.7120  144.8300 C   0  0  0  0  0  3  0  0  0  0  0  0
  187.0630  178.4420  139.4560 C   0  0  0  0  0  3  0  0  0  0  0  0
  185.3650  178.7600  137.8210 F   0  0  0  0  0  0  0  0  0  0  0  0
  184.1440  178.6860  142.4860 C   0  0  0  0  0  0  0  0  0  0  0  0
  187.4460  178.3180  140.7930 C   0  0  0  0  0  3  0  0  0  0  0  0
  184.7520  178.7180  140.1350 C   0  0  0  0  0  0  0  0  0  0  0  0
  182.7910  178.8890  142.1130 C   0  0  0  0  0  0  0  0  0  0  0  0
  182.1590  178.9280  144.4620 C   0  0  0  0  0  3  0  0  0  0  0  0
  181.8150  179.0200  143.1120 C   0  0  0  0  0  3  0  0  0  0  0  0
  186.4870  178.3950  141.8060 C   0  0  0  0  0  3  0  0  0  0  0  0
  185.1320  178.5950  141.4900 C   0  0  0  0  0  0  0  0  0  0  0  0
  179.8800  175.6030  139.5840 C   0  0  0  0  0  2  0  0  0  0  0  0
  178.9660  178.2350  140.1850 O   0  0  0  0  0  0  0  0  0  0  0  0
  180.2070  178.0710  140.0340 C   0  0  0  0  0  0  0  0  0  0  0  0
  181.9840  176.6050  138.9450 C   0  0  0  0  0  2  0  0  0  0  0  0
  180.6980  176.7970  139.5860 N   0  0  0  0  0  0  0  0  0  0  0  0
  181.1010  179.1690  140.3010 N   0  0  0  0  0  0  0  0  0  0  0  0
  180.7700  174.4990  139.0480 C   0  0  0  0  0  2  0  0  0  0  0  0
  181.9730  175.1840  138.4160 C   0  0  0  0  0  2  0  0  0  0  0  0
  180.6420  180.5280  140.0410 C   0  0  0  0  0  2  0  0  0  0  0  0
  180.7050  180.8240  138.5510 C   0  0  0  0  0  2  0  0  0  0  0  0
  181.5940  182.0250  138.2920 C   0  0  0  0  0  2  0  0  0  0  0  0
  181.0310  182.8390  137.2270 N   0  0  0  0  0  2  0  0  0  0  0  0
  182.3960  184.6820  137.6720 O   0  0  0  0  0  0  0  0  0  0  0  0
  181.4820  184.1680  136.9720 C   0  0  0  0  0  0  0  0  0  0  0  0
  180.8950  184.9210  135.9170 N   0  0  0  0  0  1  0  0  0  0  0  0
  1 10  2  0  0  0  0
  1  4  1  0  0  0  0
  2  6  2  0  0  0  0
  2 10  1  0  0  0  0
  3  5  2  0  0  0  0
  4 11  2  0  0  0  0
  6  9  1  0  0  0  0
  7  2  1  0  0  0  0
  8  3  1  0  0  0  0
  9 14  2  0  0  0  0
 10 15  1  0  0  0  0
 11  8  1  0  0  0  0
 11 13  1  0  0  0  0
 12  5  1  0  0  0  0
 13 12  2  0  0  0  0
 15 14  1  0  0  0  0
 15  8  2  0  0  0  0
 16 20  1  0  0  0  0
 18 17  2  0  0  0  0
 18 21  1  0  0  0  0
 19 20  1  0  0  0  0
 20 18  1  0  0  0  0
 21  4  1  0  0  0  0
 22 16  1  0  0  0  0
 23 19  1  0  0  0  0
 23 22  1  0  0  0  0
 24 21  1  0  0  0  0
 25 24  1  0  0  0  0
 26 25  1  0  0  0  0
 27 26  1  0  0  0  0
 29 27  1  0  0  0  0
 29 28  2  0  0  0  0
 30 29  1  0  0  0  0
M  END
>  <MODEL>
3

>  <REMARK>
 VINA RESULT:      -6.6      1.567      2.173
  Name = 
  5 active torsions:
  status: ('A' for Active; 'I' for Inactive)
    1  A    between atoms: C_4  and  N_13
    2  A    between atoms: N_7  and  C_16
    3  A    between atoms: N_13  and  C_27
    4  A    between atoms: C_16  and  C_30
    5  A    between atoms: C_27  and  C_30
                            x       y       z     vdW  Elec       q    Type
                         _______ _______ _______ _____ _____    ______ ____

>  <TORSDO>
F 5

$$$$
=
 OpenBabel10262421563D

 30 33  0  0  0  0  0  0  0  0999 V2000
  183.2370  180.1380  139.3550 N   0  0  0  0  0  0  0  0  0  0  0  0
  181.9570  181.8820  138.3430 C   0  0  0  0  0  0  0  0  0  0  0  0
  180.2590  177.3060  138.5910 C   0  0  0  0  0  3  0  0  0  0  0  0
  183.4370  178.8540  139.7610 C   0  0  0  0  0  0  0  0  0  0  0  0
  180.4560  175.9740  138.9550 C   0  0  0  0  0  3  0  0  0  0  0  0
  180.7880  182.3020  137.7020 C   0  0  0  0  0  3  0  0  0  0  0  0
  182.9430  182.7800  138.5890 F   0  0  0  0  0  0  0  0  0  0  0  0
  181.2460  178.2730  138.8500 C   0  0  0  0  0  0  0  0  0  0  0  0
  179.7630  181.3910  137.4410 C   0  0  0  0  0  3  0  0  0  0  0  0
  182.1030  180.5420  138.7270 C   0  0  0  0  0  0  0  0  0  0  0  0
  182.4450  177.8820  139.4980 C   0  0  0  0  0  0  0  0  0  0  0  0
  181.6430  175.5870  139.5780 C   0  0  0  0  0  3  0  0  0  0  0  0
  182.6320  176.5350  139.8440 C   0  0  0  0  0  3  0  0  0  0  0  0
  179.9020  180.0530  137.8190 C   0  0  0  0  0  3  0  0  0  0  0  0
  181.0710  179.6140  138.4660 C   0  0  0  0  0  0  0  0  0  0  0  0
  187.2610  178.5290  137.6020 C   0  0  0  0  0  2  0  0  0  0  0  0
  186.9880  178.7690  140.4290 O   0  0  0  0  0  0  0  0  0  0  0  0
  185.9450  178.5280  139.7630 C   0  0  0  0  0  0  0  0  0  0  0  0
  185.0600  177.5320  137.5910 C   0  0  0  0  0  2  0  0  0  0  0  0
  186.0570  178.2530  138.3570 N   0  0  0  0  0  0  0  0  0  0  0  0
  184.6680  178.5210  140.4310 N   0  0  0  0  0  0  0  0  0  0  0  0
  186.9590  178.1000  136.1800 C   0  0  0  0  0  2  0  0  0  0  0  0
  185.6990  177.2500  136.2460 C   0  0  0  0  0  2  0  0  0  0  0  0
  184.6030  178.0840  141.8190 C   0  0  0  0  0  2  0  0  0  0  0  0
  184.1470  179.2310  142.7070 C   0  0  0  0  0  2  0  0  0  0  0  0
  183.4390  178.6930  143.9360 C   0  0  0  0  0  2  0  0  0  0  0  0
  184.0060  179.2890  145.1350 N   0  0  0  0  0  2  0  0  0  0  0  0
  185.7480  177.7400  145.2950 O   0  0  0  0  0  0  0  0  0  0  0  0
  185.1690  178.7560  145.7660 C   0  0  0  0  0  0  0  0  0  0  0  0
  185.6810  179.3780  146.9390 N   0  0  0  0  0  1  0  0  0  0  0  0
  1  4  1  0  0  0  0
  2  7  1  0  0  0  0
  2 10  1  0  0  0  0
  3  8  1  0  0  0  0
  3  5  2  0  0  0  0
  4 21  1  0  0  0  0
  5 12  1  0  0  0  0
  6  2  2  0  0  0  0
  8 11  1  0  0  0  0
  9  6  1  0  0  0  0
  9 14  2  0  0  0  0
 10  1  2  0  0  0  0
 11  4  2  0  0  0  0
 11 13  1  0  0  0  0
 12 13  2  0  0  0  0
 14 15  1  0  0  0  0
 15 10  1  0  0  0  0
 15  8  2  0  0  0  0
 16 20  1  0  0  0  0
 18 17  2  0  0  0  0
 18 21  1  0  0  0  0
 19 20  1  0  0  0  0
 20 18  1  0  0  0  0
 21 24  1  0  0  0  0
 22 23  1  0  0  0  0
 22 16  1  0  0  0  0
 23 19  1  0  0  0  0
 24 25  1  0  0  0  0
 25 26  1  0  0  0  0
 26 27  1  0  0  0  0
 27 29  1  0  0  0  0
 28 29  2  0  0  0  0
 29 30  1  0  0  0  0
M  END
>  <MODEL>
4

>  <REMARK>
 VINA RESULT:      -6.5      3.457      6.699
  Name = 
  5 active torsions:
  status: ('A' for Active; 'I' for Inactive)
    1  A    between atoms: C_4  and  N_13
    2  A    between atoms: N_7  and  C_16
    3  A    between atoms: N_13  and  C_27
    4  A    between atoms: C_16  and  C_30
    5  A    between atoms: C_27  and  C_30
                            x       y       z     vdW  Elec       q    Type
                         _______ _______ _______ _____ _____    ______ ____

>  <TORSDO>
F 5

$$$$
=
 OpenBabel10262421563D

 30 33  0  0  0  0  0  0  0  0999 V2000
  184.1180  178.4040  141.2260 N   0  0  0  0  0  0  0  0  0  0  0  0
  185.3240  178.1690  143.2750 C   0  0  0  0  0  0  0  0  0  0  0  0
  180.6810  179.6950  143.2250 C   0  0  0  0  0  3  0  0  0  0  0  0
  183.0080  178.6970  140.4950 C   0  0  0  0  0  0  0  0  0  0  0  0
  179.5430  180.0470  142.4980 C   0  0  0  0  0  3  0  0  0  0  0  0
  185.3590  178.2570  144.6690 C   0  0  0  0  0  3  0  0  0  0  0  0
  186.4310  177.7670  142.6030 F   0  0  0  0  0  0  0  0  0  0  0  0
  181.8410  179.2490  142.5690 C   0  0  0  0  0  0  0  0  0  0  0  0
  184.2280  178.6710  145.3760 C   0  0  0  0  0  3  0  0  0  0  0  0
  184.1510  178.4960  142.5800 C   0  0  0  0  0  0  0  0  0  0  0  0
  181.8420  179.1480  141.1550 C   0  0  0  0  0  0  0  0  0  0  0  0
  179.5510  179.9630  141.1050 C   0  0  0  0  0  3  0  0  0  0  0  0
  180.6940  179.5200  140.4390 C   0  0  0  0  0  3  0  0  0  0  0  0
  183.0550  178.9990  144.6910 C   0  0  0  0  0  3  0  0  0  0  0  0
  183.0030  178.9160  143.2890 C   0  0  0  0  0  0  0  0  0  0  0  0
  180.0470  176.3300  138.2550 C   0  0  0  0  0  2  0  0  0  0  0  0
  181.8280  178.2380  137.1090 O   0  0  0  0  0  0  0  0  0  0  0  0
  182.0380  177.8890  138.3030 C   0  0  0  0  0  0  0  0  0  0  0  0
  181.6790  176.0340  140.0120 C   0  0  0  0  0  2  0  0  0  0  0  0
  181.2590  176.8250  138.8720 N   0  0  0  0  0  0  0  0  0  0  0  0
  183.0640  178.5590  139.0620 N   0  0  0  0  0  0  0  0  0  0  0  0
  179.5440  175.2270  139.1660 C   0  0  0  0  0  2  0  0  0  0  0  0
  180.6960  174.8830  140.0990 C   0  0  0  0  0  2  0  0  0  0  0  0
  184.2470  179.0480  138.3660 C   0  0  0  0  0  2  0  0  0  0  0  0
  185.0890  177.8790  137.8820 C   0  0  0  0  0  2  0  0  0  0  0  0
  186.5560  178.2610  137.8640 C   0  0  0  0  0  2  0  0  0  0  0  0
  187.0870  178.2540  139.2180 N   0  0  0  0  0  2  0  0  0  0  0  0
  189.3200  178.2650  138.5340 O   0  0  0  0  0  0  0  0  0  0  0  0
  188.4890  178.2560  139.4810 C   0  0  0  0  0  0  0  0  0  0  0  0
  188.9530  178.2480  140.8260 N   0  0  0  0  0  1  0  0  0  0  0  0
  1 10  1  0  0  0  0
  2  6  1  0  0  0  0
  4 11  1  0  0  0  0
  4  1  2  0  0  0  0
  5  3  2  0  0  0  0
  6  9  2  0  0  0  0
  7  2  1  0  0  0  0
  8  3  1  0  0  0  0
  8 15  1  0  0  0  0
 10  2  2  0  0  0  0
 10 15  1  0  0  0  0
 11  8  2  0  0  0  0
 12  5  1  0  0  0  0
 13 12  2  0  0  0  0
 13 11  1  0  0  0  0
 14  9  1  0  0  0  0
 15 14  2  0  0  0  0
 16 20  1  0  0  0  0
 16 22  1  0  0  0  0
 17 18  2  0  0  0  0
 18 20  1  0  0  0  0
 18 21  1  0  0  0  0
 19 23  1  0  0  0  0
 20 19  1  0  0  0  0
 21  4  1  0  0  0  0
 22 23  1  0  0  0  0
 24 21  1  0  0  0  0
 25 24  1  0  0  0  0
 26 25  1  0  0  0  0
 26 27  1  0  0  0  0
 27 29  1  0  0  0  0
 28 29  2  0  0  0  0
 29 30  1  0  0  0  0
M  END
>  <MODEL>
5

>  <REMARK>
 VINA RESULT:      -6.3      2.753      4.393
  Name = 
  5 active torsions:
  status: ('A' for Active; 'I' for Inactive)
    1  A    between atoms: C_4  and  N_13
    2  A    between atoms: N_7  and  C_16
    3  A    between atoms: N_13  and  C_27
    4  A    between atoms: C_16  and  C_30
    5  A    between atoms: C_27  and  C_30
                            x       y       z     vdW  Elec       q    Type
                         _______ _______ _______ _____ _____    ______ ____

>  <TORSDO>
F 5

$$$$
=
 OpenBabel10262421563D

 30 33  0  0  0  0  0  0  0  0999 V2000
  188.3380  177.5130  144.5740 N   0  0  0  0  0  0  0  0  0  0  0  0
  189.2320  177.3770  146.7850 C   0  0  0  0  0  0  0  0  0  0  0  0
  184.5970  178.7130  146.0010 C   0  0  0  0  0  3  0  0  0  0  0  0
  187.3400  177.7440  143.6770 C   0  0  0  0  0  0  0  0  0  0  0  0
  183.5690  179.0020  145.1030 C   0  0  0  0  0  3  0  0  0  0  0  0
  189.0550  177.4990  148.1660 C   0  0  0  0  0  3  0  0  0  0  0  0
  190.4400  177.0020  146.2970 F   0  0  0  0  0  0  0  0  0  0  0  0
  185.8570  178.2980  145.5380 C   0  0  0  0  0  0  0  0  0  0  0  0
  187.8170  177.8840  148.6840 C   0  0  0  0  0  3  0  0  0  0  0  0
  188.1650  177.6390  145.9150 C   0  0  0  0  0  0  0  0  0  0  0  0
  186.0730  178.1630  144.1430 C   0  0  0  0  0  0  0  0  0  0  0  0
  183.7870  178.8840  143.7300 C   0  0  0  0  0  3  0  0  0  0  0  0
  185.0330  178.4720  143.2540 C   0  0  0  0  0  3  0  0  0  0  0  0
  186.7490  178.1490  147.8230 C   0  0  0  0  0  3  0  0  0  0  0  0
  186.9090  178.0290  146.4320 C   0  0  0  0  0  0  0  0  0  0  0  0
  191.4240  177.1290  142.1490 C   0  0  0  0  0  2  0  0  0  0  0  0
  189.0310  176.6030  140.6930 O   0  0  0  0  0  0  0  0  0  0  0  0
  188.9260  177.2530  141.7690 C   0  0  0  0  0  0  0  0  0  0  0  0
  190.1640  178.7660  143.4020 C   0  0  0  0  0  2  0  0  0  0  0  0
  190.1160  177.6680  142.4580 N   0  0  0  0  0  0  0  0  0  0  0  0
  187.6150  177.5730  142.2740 N   0  0  0  0  0  0  0  0  0  0  0  0
  192.3850  177.8220  143.0940 C   0  0  0  0  0  2  0  0  0  0  0  0
  191.6350  179.0120  143.6750 C   0  0  0  0  0  2  0  0  0  0  0  0
  186.5360  177.8140  141.3240 C   0  0  0  0  0  2  0  0  0  0  0  0
  187.0480  178.6280  140.1460 C   0  0  0  0  0  2  0  0  0  0  0  0
  186.1390  178.4430  138.9470 C   0  0  0  0  0  2  0  0  0  0  0  0
  184.7660  178.2590  139.3890 N   0  0  0  0  0  2  0  0  0  0  0  0
  184.1820  180.5010  139.0940 O   0  0  0  0  0  0  0  0  0  0  0  0
  183.8360  179.3390  139.4380 C   0  0  0  0  0  0  0  0  0  0  0  0
  182.5040  179.1030  139.8800 N   0  0  0  0  0  1  0  0  0  0  0  0
  1 10  1  0  0  0  0
  2  6  1  0  0  0  0
  4 11  1  0  0  0  0
  4  1  2  0  0  0  0
  5  3  2  0  0  0  0
  6  9  2  0  0  0  0
  7  2  1  0  0  0  0
  8  3  1  0  0  0  0
  8 15  1  0  0  0  0
 10 15  1  0  0  0  0
 10  2  2  0  0  0  0
 11  8  2  0  0  0  0
 12  5  1  0  0  0  0
 13 12  2  0  0  0  0
 13 11  1  0  0  0  0
 14  9  1  0  0  0  0
 15 14  2  0  0  0  0
 16 20  1  0  0  0  0
 16 22  1  0  0  0  0
 17 18  2  0  0  0  0
 18 21  1  0  0  0  0
 18 20  1  0  0  0  0
 19 23  1  0  0  0  0
 20 19  1  0  0  0  0
 21  4  1  0  0  0  0
 22 23  1  0  0  0  0
 24 21  1  0  0  0  0
 25 24  1  0  0  0  0
 26 27  1  0  0  0  0
 26 25  1  0  0  0  0
 27 29  1  0  0  0  0
 28 29  2  0  0  0  0
 29 30  1  0  0  0  0
M  END
>  <MODEL>
6

>  <REMARK>
 VINA RESULT:      -6.3      4.228      7.189
  Name = 
  5 active torsions:
  status: ('A' for Active; 'I' for Inactive)
    1  A    between atoms: C_4  and  N_13
    2  A    between atoms: N_7  and  C_16
    3  A    between atoms: N_13  and  C_27
    4  A    between atoms: C_16  and  C_30
    5  A    between atoms: C_27  and  C_30
                            x       y       z     vdW  Elec       q    Type
                         _______ _______ _______ _____ _____    ______ ____

>  <TORSDO>
F 5

$$$$
=
 OpenBabel10262421563D

 30 33  0  0  0  0  0  0  0  0999 V2000
  182.0670  179.0670  141.4000 N   0  0  0  0  0  0  0  0  0  0  0  0
  182.5580  178.9980  143.7370 C   0  0  0  0  0  0  0  0  0  0  0  0
  186.0580  178.3400  140.3900 C   0  0  0  0  0  3  0  0  0  0  0  0
  182.4080  179.0080  140.0830 C   0  0  0  0  0  0  0  0  0  0  0  0
  186.4270  178.2290  139.0490 C   0  0  0  0  0  3  0  0  0  0  0  0
  183.4890  178.8500  144.7680 C   0  0  0  0  0  3  0  0  0  0  0  0
  181.2550  179.2200  144.0400 F   0  0  0  0  0  0  0  0  0  0  0  0
  184.7220  178.5950  140.7460 C   0  0  0  0  0  0  0  0  0  0  0  0
  184.8340  178.6200  144.4730 C   0  0  0  0  0  3  0  0  0  0  0  0
  182.9730  178.9170  142.4010 C   0  0  0  0  0  0  0  0  0  0  0  0
  183.7500  178.7500  139.7260 C   0  0  0  0  0  0  0  0  0  0  0  0
  185.4670  178.3660  138.0460 C   0  0  0  0  0  3  0  0  0  0  0  0
  184.1370  178.6200  138.3830 C   0  0  0  0  0  3  0  0  0  0  0  0
  185.2550  178.5360  143.1440 C   0  0  0  0  0  3  0  0  0  0  0  0
  184.3320  178.6840  142.0940 C   0  0  0  0  0  0  0  0  0  0  0  0
  178.9310  176.3220  139.7940 C   0  0  0  0  0  2  0  0  0  0  0  0
  179.1220  178.8940  138.5810 O   0  0  0  0  0  0  0  0  0  0  0  0
  180.1770  178.3960  139.0580 C   0  0  0  0  0  0  0  0  0  0  0  0
  181.3420  176.2170  139.6790 C   0  0  0  0  0  2  0  0  0  0  0  0
  180.1600  177.0450  139.5450 N   0  0  0  0  0  0  0  0  0  0  0  0
  181.3790  179.1910  139.0920 N   0  0  0  0  0  0  0  0  0  0  0  0
  179.3540  174.9540  140.2930 C   0  0  0  0  0  2  0  0  0  0  0  0
  180.8350  174.8180  139.9680 C   0  0  0  0  0  2  0  0  0  0  0  0
  181.6050  180.1680  138.0340 C   0  0  0  0  0  2  0  0  0  0  0  0
  181.6560  181.5710  138.6210 C   0  0  0  0  0  2  0  0  0  0  0  0
  180.4050  182.3420  138.2460 C   0  0  0  0  0  2  0  0  0  0  0  0
  180.5080  182.8180  136.8760 N   0  0  0  0  0  2  0  0  0  0  0  0
  181.1410  184.9820  137.4880 O   0  0  0  0  0  0  0  0  0  0  0  0
  180.8830  184.1590  136.5690 C   0  0  0  0  0  0  0  0  0  0  0  0
  180.9670  184.5730  135.2100 N   0  0  0  0  0  1  0  0  0  0  0  0
  1 10  1  0  0  0  0
  2  7  1  0  0  0  0
  2  6  1  0  0  0  0
  3  8  1  0  0  0  0
  4  1  2  0  0  0  0
  5  3  2  0  0  0  0
  8 15  1  0  0  0  0
  9  6  2  0  0  0  0
 10  2  2  0  0  0  0
 11  4  1  0  0  0  0
 11  8  2  0  0  0  0
 12 13  2  0  0  0  0
 12  5  1  0  0  0  0
 13 11  1  0  0  0  0
 14  9  1  0  0  0  0
 15 10  1  0  0  0  0
 15 14  2  0  0  0  0
 16 22  1  0  0  0  0
 17 18  2  0  0  0  0
 18 21  1  0  0  0  0
 18 20  1  0  0  0  0
 19 23  1  0  0  0  0
 20 19  1  0  0  0  0
 20 16  1  0  0  0  0
 21  4  1  0  0  0  0
 23 22  1  0  0  0  0
 24 25  1  0  0  0  0
 24 21  1  0  0  0  0
 26 25  1  0  0  0  0
 27 26  1  0  0  0  0
 29 27  1  0  0  0  0
 29 28  2  0  0  0  0
 30 29  1  0  0  0  0
M  END
>  <MODEL>
7

>  <REMARK>
 VINA RESULT:      -6.2      2.059      3.303
  Name = 
  5 active torsions:
  status: ('A' for Active; 'I' for Inactive)
    1  A    between atoms: C_4  and  N_13
    2  A    between atoms: N_7  and  C_16
    3  A    between atoms: N_13  and  C_27
    4  A    between atoms: C_16  and  C_30
    5  A    between atoms: C_27  and  C_30
                            x       y       z     vdW  Elec       q    Type
                         _______ _______ _______ _____ _____    ______ ____

>  <TORSDO>
F 5

$$$$
=
 OpenBabel10262421563D

 30 33  0  0  0  0  0  0  0  0999 V2000
  181.6650  178.2730  141.4730 N   0  0  0  0  0  0  0  0  0  0  0  0
  182.3970  178.8810  143.6640 C   0  0  0  0  0  0  0  0  0  0  0  0
  185.5420  178.5560  139.9370 C   0  0  0  0  0  3  0  0  0  0  0  0
  181.8630  178.0240  140.1500 C   0  0  0  0  0  0  0  0  0  0  0  0
  185.7820  178.2610  138.5940 C   0  0  0  0  0  3  0  0  0  0  0  0
  183.4310  179.2520  144.5290 C   0  0  0  0  0  3  0  0  0  0  0  0
  181.1340  178.7690  144.1430 F   0  0  0  0  0  0  0  0  0  0  0  0
  184.2420  178.4760  140.4660 C   0  0  0  0  0  0  0  0  0  0  0  0
  184.7380  179.3710  144.0530 C   0  0  0  0  0  3  0  0  0  0  0  0
  182.6710  178.6280  142.3130 C   0  0  0  0  0  0  0  0  0  0  0  0
  183.1700  178.1020  139.6180 C   0  0  0  0  0  0  0  0  0  0  0  0
  184.7280  177.8780  137.7640 C   0  0  0  0  0  3  0  0  0  0  0  0
  183.4320  177.7950  138.2740 C   0  0  0  0  0  3  0  0  0  0  0  0
  185.0180  179.1200  142.7080 C   0  0  0  0  0  3  0  0  0  0  0  0
  183.9910  178.7460  141.8240 C   0  0  0  0  0  0  0  0  0  0  0  0
  180.4620  180.5700  136.8410 C   0  0  0  0  0  2  0  0  0  0  0  0
  179.7450  177.8380  137.2260 O   0  0  0  0  0  0  0  0  0  0  0  0
  180.3330  178.4240  138.1750 C   0  0  0  0  0  0  0  0  0  0  0  0
  180.8080  180.6950  139.2290 C   0  0  0  0  0  2  0  0  0  0  0  0
  180.5810  179.8370  138.0840 N   0  0  0  0  0  0  0  0  0  0  0  0
  180.7310  177.6650  139.3340 N   0  0  0  0  0  0  0  0  0  0  0  0
  180.8060  182.0070  137.1800 C   0  0  0  0  0  2  0  0  0  0  0  0
  180.7600  182.1140  138.6980 C   0  0  0  0  0  2  0  0  0  0  0  0
  179.9120  176.5330  139.7470 C   0  0  0  0  0  2  0  0  0  0  0  0
  180.7310  175.2530  139.7070 C   0  0  0  0  0  2  0  0  0  0  0  0
  180.6160  174.5990  138.3440 C   0  0  0  0  0  2  0  0  0  0  0  0
  181.8990  174.6440  137.6620 N   0  0  0  0  0  2  0  0  0  0  0  0
  180.9800  175.2070  135.5900 O   0  0  0  0  0  0  0  0  0  0  0  0
  182.0080  174.9560  136.2740 C   0  0  0  0  0  0  0  0  0  0  0  0
  183.2900  174.9840  135.6570 N   0  0  0  0  0  1  0  0  0  0  0  0
  1 10  1  0  0  0  0
  2  7  1  0  0  0  0
  2  6  1  0  0  0  0
  3  8  1  0  0  0  0
  4  1  2  0  0  0  0
  5  3  2  0  0  0  0
  8 15  1  0  0  0  0
  9  6  2  0  0  0  0
 10  2  2  0  0  0  0
 11  4  1  0  0  0  0
 11  8  2  0  0  0  0
 12 13  2  0  0  0  0
 12  5  1  0  0  0  0
 13 11  1  0  0  0  0
 14  9  1  0  0  0  0
 15 10  1  0  0  0  0
 15 14  2  0  0  0  0
 16 22  1  0  0  0  0
 16 20  1  0  0  0  0
 17 18  2  0  0  0  0
 18 21  1  0  0  0  0
 20 18  1  0  0  0  0
 20 19  1  0  0  0  0
 21 24  1  0  0  0  0
 21  4  1  0  0  0  0
 22 23  1  0  0  0  0
 23 19  1  0  0  0  0
 25 24  1  0  0  0  0
 26 25  1  0  0  0  0
 27 26  1  0  0  0  0
 28 29  2  0  0  0  0
 29 27  1  0  0  0  0
 30 29  1  0  0  0  0
M  END
>  <MODEL>
8

>  <REMARK>
 VINA RESULT:      -6.1      2.503      5.438
  Name = 
  5 active torsions:
  status: ('A' for Active; 'I' for Inactive)
    1  A    between atoms: C_4  and  N_13
    2  A    between atoms: N_7  and  C_16
    3  A    between atoms: N_13  and  C_27
    4  A    between atoms: C_16  and  C_30
    5  A    between atoms: C_27  and  C_30
                            x       y       z     vdW  Elec       q    Type
                         _______ _______ _______ _____ _____    ______ ____

>  <TORSDO>
F 5

$$$$
=
 OpenBabel10262421563D

 30 33  0  0  0  0  0  0  0  0999 V2000
  188.0240  178.0160  144.5130 N   0  0  0  0  0  0  0  0  0  0  0  0
  186.7840  178.7150  146.4320 C   0  0  0  0  0  0  0  0  0  0  0  0
  190.9820  176.2530  146.8830 C   0  0  0  0  0  3  0  0  0  0  0  0
  189.0830  177.4210  143.9000 C   0  0  0  0  0  0  0  0  0  0  0  0
  192.0560  175.5950  146.2810 C   0  0  0  0  0  3  0  0  0  0  0  0
  186.6530  178.7850  147.8220 C   0  0  0  0  0  3  0  0  0  0  0  0
  185.8310  179.2670  145.6430 F   0  0  0  0  0  0  0  0  0  0  0  0
  189.9850  176.8600  146.1000 C   0  0  0  0  0  0  0  0  0  0  0  0
  187.6270  178.2200  148.6490 C   0  0  0  0  0  3  0  0  0  0  0  0
  187.8960  178.0780  145.8640 C   0  0  0  0  0  0  0  0  0  0  0  0
  190.0850  176.8080  144.6870 C   0  0  0  0  0  0  0  0  0  0  0  0
  192.1450  175.5310  144.8900 C   0  0  0  0  0  3  0  0  0  0  0  0
  191.1630  176.1300  144.0990 C   0  0  0  0  0  3  0  0  0  0  0  0
  188.7360  177.5830  148.0900 C   0  0  0  0  0  3  0  0  0  0  0  0
  188.8850  177.5040  146.6940 C   0  0  0  0  0  0  0  0  0  0  0  0
  185.9160  179.2230  141.4280 C   0  0  0  0  0  2  0  0  0  0  0  0
  188.5230  178.5300  140.5060 O   0  0  0  0  0  0  0  0  0  0  0  0
  188.1750  178.1030  141.6400 C   0  0  0  0  0  0  0  0  0  0  0  0
  186.1770  177.5000  143.1020 C   0  0  0  0  0  2  0  0  0  0  0  0
  186.8220  178.3020  142.0820 N   0  0  0  0  0  0  0  0  0  0  0  0
  189.1390  177.4150  142.4610 N   0  0  0  0  0  0  0  0  0  0  0  0
  184.6140  179.1320  142.1990 C   0  0  0  0  0  2  0  0  0  0  0  0
  184.7100  177.8800  143.0580 C   0  0  0  0  0  2  0  0  0  0  0  0
  190.1690  176.6140  141.8120 C   0  0  0  0  0  2  0  0  0  0  0  0
  191.3190  177.5040  141.3660 C   0  0  0  0  0  2  0  0  0  0  0  0
  191.6180  177.2760  139.8970 C   0  0  0  0  0  2  0  0  0  0  0  0
  190.9110  176.0970  139.4240 N   0  0  0  0  0  2  0  0  0  0  0  0
  191.6870  176.2940  137.2290 O   0  0  0  0  0  0  0  0  0  0  0  0
  190.9900  175.6610  138.0680 C   0  0  0  0  0  0  0  0  0  0  0  0
  190.2760  174.5000  137.6580 N   0  0  0  0  0  1  0  0  0  0  0  0
  1 10  1  0  0  0  0
  2  6  1  0  0  0  0
  4  1  2  0  0  0  0
  4 11  1  0  0  0  0
  5  3  1  0  0  0  0
  6  9  2  0  0  0  0
  7  2  1  0  0  0  0
  8 15  1  0  0  0  0
  8  3  2  0  0  0  0
 10  2  2  0  0  0  0
 10 15  1  0  0  0  0
 11  8  1  0  0  0  0
 12  5  2  0  0  0  0
 13 11  2  0  0  0  0
 13 12  1  0  0  0  0
 14  9  1  0  0  0  0
 15 14  2  0  0  0  0
 16 20  1  0  0  0  0
 16 22  1  0  0  0  0
 17 18  2  0  0  0  0
 18 20  1  0  0  0  0
 18 21  1  0  0  0  0
 20 19  1  0  0  0  0
 21  4  1  0  0  0  0
 22 23  1  0  0  0  0
 23 19  1  0  0  0  0
 24 21  1  0  0  0  0
 25 24  1  0  0  0  0
 26 25  1  0  0  0  0
 27 26  1  0  0  0  0
 28 29  2  0  0  0  0
 29 27  1  0  0  0  0
 30 29  1  0  0  0  0
M  END
>  <MODEL>
9

>  <REMARK>
 VINA RESULT:      -6.1      5.696      9.265
  Name = 
  5 active torsions:
  status: ('A' for Active; 'I' for Inactive)
    1  A    between atoms: C_4  and  N_13
    2  A    between atoms: N_7  and  C_16
    3  A    between atoms: N_13  and  C_27
    4  A    between atoms: C_16  and  C_30
    5  A    between atoms: C_27  and  C_30
                            x       y       z     vdW  Elec       q    Type
                         _______ _______ _______ _____ _____    ______ ____

>  <TORSDO>
F 5

$$$$
