=
 OpenBabel10262419413D

 31 34  0  0  1  0  0  0  0  0999 V2000
  189.1410  178.3670  139.2990 C   0  0  0  0  0  0  0  0  0  0  0  0
  187.0530  178.2730  142.5070 C   0  0  2  0  0  3  0  0  0  0  0  0
  185.6160  178.4810  142.0360 C   0  0  0  0  0  0  0  0  0  0  0  0
  183.9780  179.0730  140.3510 C   0  0  0  0  0  3  0  0  0  0  0  0
  188.0920  177.9040  141.4520 C   0  0  0  0  0  0  0  0  0  0  0  0
  190.1200  177.4100  139.5580 C   0  0  0  0  0  3  0  0  0  0  0  0
  185.3030  178.8350  140.7170 C   0  0  0  0  0  3  0  0  0  0  0  0
  188.4670  176.9330  144.1730 C   0  0  2  0  0  3  0  0  0  0  0  0
  189.1550  179.0680  138.1020 O   0  0  0  0  0  1  0  0  0  0  0  0
  184.8350  178.0550  144.3420 N   0  0  0  0  0  2  0  0  0  0  0  0
  182.9880  178.9750  141.2750 N   0  0  0  0  0  0  0  0  0  0  0  0
  189.2340  176.2510  143.0430 C   0  0  0  0  0  2  0  0  0  0  0  0
  187.0650  177.3160  143.7090 C   0  0  1  0  0  3  0  0  0  0  0  0
  188.1470  178.6200  140.2450 C   0  0  0  0  0  3  0  0  0  0  0  0
  182.2300  178.5660  143.4570 F   0  0  0  0  0  0  0  0  0  0  0  0
  189.1370  176.9860  141.7350 C   0  0  0  0  0  0  0  0  0  0  0  0
  190.1190  176.7270  140.7740 C   0  0  0  0  0  3  0  0  0  0  0  0
  186.1960  177.8690  144.8320 C   0  0  0  0  0  2  0  0  0  0  0  0
  184.5670  178.4140  142.9790 C   0  0  0  0  0  0  0  0  0  0  0  0
  183.2500  178.6530  142.5690 C   0  0  0  0  0  0  0  0  0  0  0  0
  189.2500  178.0190  144.9340 C   0  0  0  0  0  2  0  0  0  0  0  0
  192.1410  176.4720  146.5710 O   0  0  0  0  0  0  0  0  0  0  0  0
  190.9670  176.9060  146.4090 C   0  0  0  0  0  0  0  0  0  0  0  0
  190.6330  177.6490  145.2230 N   0  0  0  0  0  0  0  0  0  0  0  0
  191.2230  179.5060  143.7480 C   0  0  0  0  0  1  0  0  0  0  0  0
  191.6860  178.2100  144.3860 C   0  0  0  0  0  2  0  0  0  0  0  0
  189.9500  176.6810  147.4870 C   0  0  0  0  0  2  0  0  0  0  0  0
  189.6030  177.9750  148.2110 C   0  0  0  0  0  2  0  0  0  0  0  0
  188.1760  177.9540  148.7360 C   0  0  2  0  0  3  0  0  0  0  0  0
  187.6220  176.6250  148.5670 N   0  0  0  0  0  1  0  0  0  0  0  0
  187.3250  178.9540  147.9750 C   0  0  0  0  0  1  0  0  0  0  0  0
  1  6  2  0  0  0  0
  1 14  1  0  0  0  0
  2  5  1  6  0  0  0
  2 13  1  0  0  0  0
  3  2  1  0  0  0  0
  3 19  1  0  0  0  0
  4  7  1  0  0  0  0
  4 11  2  0  0  0  0
  5 16  1  0  0  0  0
  6 17  1  0  0  0  0
  7  3  2  0  0  0  0
  8 21  1  6  0  0  0
  9  1  1  0  0  0  0
 10 18  1  0  0  0  0
 11 20  1  0  0  0  0
 12  8  1  0  0  0  0
 13  8  1  0  0  0  0
 13 18  1  1  0  0  0
 14  5  2  0  0  0  0
 16 12  1  0  0  0  0
 17 16  2  0  0  0  0
 19 10  1  0  0  0  0
 20 19  2  0  0  0  0
 20 15  1  0  0  0  0
 21 24  1  0  0  0  0
 23 22  2  0  0  0  0
 23 27  1  0  0  0  0
 24 23  1  0  0  0  0
 25 26  1  0  0  0  0
 26 24  1  0  0  0  0
 27 28  1  0  0  0  0
 28 29  1  0  0  0  0
 29 31  1  6  0  0  0
 30 29  1  0  0  0  0
M  END
>  <MODEL>
1

>  <REMARK>
 VINA RESULT:      -9.3      0.000      0.000
  Name = 
  6 active torsions:
  status: ('A' for Active; 'I' for Inactive)
    1  A    between atoms: C_1  and  C_24
    2  A    between atoms: C_6  and  C_19
    3  A    between atoms: C_6  and  C_24
    4  A    between atoms: C_9  and  N_22
    5  A    between atoms: C_15  and  C_23
    6  A    between atoms: N_22  and  C_23
                            x       y       z     vdW  Elec       q    Type
                         _______ _______ _______ _____ _____    ______ ____

>  <TORSDO>
F 6

$$$$
=
 OpenBabel10262419413D

 31 34  0  0  1  0  0  0  0  0999 V2000
  189.1530  176.9730  141.3850 C   0  0  0  0  0  0  0  0  0  0  0  0
  186.8430  177.7370  144.3420 C   0  0  2  0  0  3  0  0  0  0  0  0
  187.7520  177.6680  145.5660 C   0  0  0  0  0  0  0  0  0  0  0  0
  189.8400  177.1010  146.6550 C   0  0  0  0  0  3  0  0  0  0  0  0
  187.5130  177.8320  142.9730 C   0  0  0  0  0  0  0  0  0  0  0  0
  188.6500  177.8140  140.3950 C   0  0  0  0  0  3  0  0  0  0  0  0
  189.0710  177.2010  145.4960 C   0  0  0  0  0  3  0  0  0  0  0  0
  184.8990  179.0680  143.3300 C   0  0  2  0  0  3  0  0  0  0  0  0
  190.2240  176.1350  141.1080 O   0  0  0  0  0  1  0  0  0  0  0  0
  185.8760  178.4730  146.9600 N   0  0  0  0  0  2  0  0  0  0  0  0
  189.3100  177.4430  147.8570 N   0  0  0  0  0  0  0  0  0  0  0  0
  185.7530  179.4970  142.1400 C   0  0  0  0  0  2  0  0  0  0  0  0
  185.7770  178.8230  144.5550 C   0  0  1  0  0  3  0  0  0  0  0  0
  188.5790  176.9730  142.6570 C   0  0  0  0  0  3  0  0  0  0  0  0
  187.5420  178.2130  149.1930 F   0  0  0  0  0  0  0  0  0  0  0  0
  186.9620  178.6280  141.9360 C   0  0  0  0  0  0  0  0  0  0  0  0
  187.5560  178.6340  140.6700 C   0  0  0  0  0  3  0  0  0  0  0  0
  184.9730  178.5330  145.8150 C   0  0  0  0  0  2  0  0  0  0  0  0
  187.2210  177.9900  146.8350 C   0  0  0  0  0  0  0  0  0  0  0  0
  188.0300  177.8830  147.9720 C   0  0  0  0  0  0  0  0  0  0  0  0
  183.8460  177.9870  143.0250 C   0  0  0  0  0  2  0  0  0  0  0  0
  181.3190  178.5880  140.4390 O   0  0  0  0  0  0  0  0  0  0  0  0
  182.4190  178.2580  140.9620 C   0  0  0  0  0  0  0  0  0  0  0  0
  182.6530  178.5050  142.3600 N   0  0  0  0  0  0  0  0  0  0  0  0
  180.8080  178.6800  143.9550 C   0  0  0  0  0  1  0  0  0  0  0  0
  181.8030  179.4360  143.0940 C   0  0  0  0  0  2  0  0  0  0  0  0
  183.4870  177.6560  140.0990 C   0  0  0  0  0  2  0  0  0  0  0  0
  183.9210  178.6100  138.9950 C   0  0  0  0  0  2  0  0  0  0  0  0
  184.2970  177.8600  137.7260 C   0  0  2  0  0  3  0  0  0  0  0  0
  183.8050  176.4980  137.8100 N   0  0  0  0  0  1  0  0  0  0  0  0
  185.8050  177.8400  137.5590 C   0  0  0  0  0  1  0  0  0  0  0  0
  1 14  1  0  0  0  0
  2  5  1  6  0  0  0
  2 13  1  0  0  0  0
  2  3  1  0  0  0  0
  3 19  1  0  0  0  0
  4 11  2  0  0  0  0
  6 17  1  0  0  0  0
  6  1  2  0  0  0  0
  7  3  2  0  0  0  0
  7  4  1  0  0  0  0
  8 21  1  6  0  0  0
  8 13  1  0  0  0  0
  9  1  1  0  0  0  0
 11 20  1  0  0  0  0
 12  8  1  0  0  0  0
 13 18  1  1  0  0  0
 14  5  2  0  0  0  0
 16 12  1  0  0  0  0
 16  5  1  0  0  0  0
 17 16  2  0  0  0  0
 18 10  1  0  0  0  0
 19 10  1  0  0  0  0
 19 20  2  0  0  0  0
 20 15  1  0  0  0  0
 22 23  2  0  0  0  0
 23 24  1  0  0  0  0
 24 21  1  0  0  0  0
 24 26  1  0  0  0  0
 26 25  1  0  0  0  0
 27 23  1  0  0  0  0
 28 27  1  0  0  0  0
 29 31  1  1  0  0  0
 29 30  1  0  0  0  0
 29 28  1  0  0  0  0
M  END
>  <MODEL>
2

>  <REMARK>
 VINA RESULT:      -8.8      2.761      7.291
  Name = 
  6 active torsions:
  status: ('A' for Active; 'I' for Inactive)
    1  A    between atoms: C_1  and  C_24
    2  A    between atoms: C_6  and  C_19
    3  A    between atoms: C_6  and  C_24
    4  A    between atoms: C_9  and  N_22
    5  A    between atoms: C_15  and  C_23
    6  A    between atoms: N_22  and  C_23
                            x       y       z     vdW  Elec       q    Type
                         _______ _______ _______ _____ _____    ______ ____

>  <TORSDO>
F 6

$$$$
=
 OpenBabel10262419413D

 31 34  0  0  1  0  0  0  0  0999 V2000
  190.3580  176.7910  146.3810 C   0  0  0  0  0  0  0  0  0  0  0  0
  187.5970  177.7170  143.8940 C   0  0  2  0  0  3  0  0  0  0  0  0
  186.4100  178.1130  144.7690 C   0  0  0  0  0  0  0  0  0  0  0  0
  185.2700  178.2430  146.9030 C   0  0  0  0  0  3  0  0  0  0  0  0
  188.9670  177.6340  144.5640 C   0  0  0  0  0  0  0  0  0  0  0  0
  191.5000  177.2660  145.7410 C   0  0  0  0  0  3  0  0  0  0  0  0
  186.4040  177.9210  146.1570 C   0  0  0  0  0  3  0  0  0  0  0  0
  188.8370  178.3610  141.7450 C   0  0  2  0  0  3  0  0  0  0  0  0
  190.4640  176.1480  147.6060 O   0  0  0  0  0  1  0  0  0  0  0  0
  185.1910  178.8130  142.7360 N   0  0  0  0  0  2  0  0  0  0  0  0
  184.1650  178.7330  146.2860 N   0  0  0  0  0  0  0  0  0  0  0  0
  190.1130  178.6740  142.5220 C   0  0  0  0  0  2  0  0  0  0  0  0
  187.6100  178.5820  142.6250 C   0  0  1  0  0  3  0  0  0  0  0  0
  189.1060  176.9610  145.7890 C   0  0  0  0  0  3  0  0  0  0  0  0
  182.9960  179.4090  144.3680 F   0  0  0  0  0  0  0  0  0  0  0  0
  190.1440  178.0460  143.8870 C   0  0  0  0  0  0  0  0  0  0  0  0
  191.3920  177.8860  144.4960 C   0  0  0  0  0  3  0  0  0  0  0  0
  186.2980  178.4270  141.8680 C   0  0  0  0  0  2  0  0  0  0  0  0
  185.2350  178.5980  144.1540 C   0  0  0  0  0  0  0  0  0  0  0  0
  184.1220  178.9170  144.9410 C   0  0  0  0  0  0  0  0  0  0  0  0
  188.8660  177.0480  140.9410 C   0  0  0  0  0  2  0  0  0  0  0  0
  189.7140  177.9930  137.5030 O   0  0  0  0  0  0  0  0  0  0  0  0
  189.0150  177.7880  138.5340 C   0  0  0  0  0  0  0  0  0  0  0  0
  189.6000  177.1490  139.6830 N   0  0  0  0  0  0  0  0  0  0  0  0
  192.0180  177.2870  140.0160 C   0  0  0  0  0  1  0  0  0  0  0  0
  190.8580  176.4220  139.5580 C   0  0  0  0  0  2  0  0  0  0  0  0
  187.5670  178.1720  138.5230 C   0  0  0  0  0  2  0  0  0  0  0  0
  186.7650  177.3120  137.5540 C   0  0  0  0  0  2  0  0  0  0  0  0
  185.3330  177.8070  137.4240 C   0  0  2  0  0  3  0  0  0  0  0  0
  185.0700  178.7930  138.4550 N   0  0  0  0  0  1  0  0  0  0  0  0
  184.3650  176.6490  137.5790 C   0  0  0  0  0  1  0  0  0  0  0  0
  1  9  1  0  0  0  0
  2  5  1  1  0  0  0
  2  3  1  0  0  0  0
  3  7  1  0  0  0  0
  5 14  2  0  0  0  0
  6  1  2  0  0  0  0
  7  4  2  0  0  0  0
  8 21  1  1  0  0  0
  8 12  1  0  0  0  0
  8 13  1  0  0  0  0
 10 19  1  0  0  0  0
 11  4  1  0  0  0  0
 12 16  1  0  0  0  0
 13 18  1  6  0  0  0
 13  2  1  0  0  0  0
 14  1  1  0  0  0  0
 15 20  1  0  0  0  0
 16 17  2  0  0  0  0
 16  5  1  0  0  0  0
 17  6  1  0  0  0  0
 18 10  1  0  0  0  0
 19  3  2  0  0  0  0
 19 20  1  0  0  0  0
 20 11  2  0  0  0  0
 22 23  2  0  0  0  0
 23 24  1  0  0  0  0
 24 21  1  0  0  0  0
 26 24  1  0  0  0  0
 26 25  1  0  0  0  0
 27 23  1  0  0  0  0
 28 27  1  0  0  0  0
 29 28  1  0  0  0  0
 29 31  1  1  0  0  0
 29 30  1  0  0  0  0
M  END
>  <MODEL>
3

>  <REMARK>
 VINA RESULT:      -8.6      2.062      6.358
  Name = 
  6 active torsions:
  status: ('A' for Active; 'I' for Inactive)
    1  A    between atoms: C_1  and  C_24
    2  A    between atoms: C_6  and  C_19
    3  A    between atoms: C_6  and  C_24
    4  A    between atoms: C_9  and  N_22
    5  A    between atoms: C_15  and  C_23
    6  A    between atoms: N_22  and  C_23
                            x       y       z     vdW  Elec       q    Type
                         _______ _______ _______ _____ _____    ______ ____

>  <TORSDO>
F 6

$$$$
=
 OpenBabel10262419413D

 31 34  0  0  1  0  0  0  0  0999 V2000
  190.0200  177.0060  145.7460 C   0  0  0  0  0  0  0  0  0  0  0  0
  187.1620  177.8700  143.3500 C   0  0  2  0  0  3  0  0  0  0  0  0
  186.0020  178.2630  144.2620 C   0  0  0  0  0  0  0  0  0  0  0  0
  184.9380  178.4050  146.4340 C   0  0  0  0  0  3  0  0  0  0  0  0
  188.5550  177.8110  143.9700 C   0  0  0  0  0  0  0  0  0  0  0  0
  191.1340  177.4860  145.0600 C   0  0  0  0  0  3  0  0  0  0  0  0
  186.0480  178.0870  145.6510 C   0  0  0  0  0  3  0  0  0  0  0  0
  188.3160  178.5030  141.1500 C   0  0  2  0  0  3  0  0  0  0  0  0
  190.1780  176.3780  146.9740 O   0  0  0  0  0  1  0  0  0  0  0  0
  184.7030  178.9250  142.2660 N   0  0  0  0  0  2  0  0  0  0  0  0
  183.8050  178.8750  145.8520 N   0  0  0  0  0  0  0  0  0  0  0  0
  189.6160  178.8400  141.8770 C   0  0  0  0  0  2  0  0  0  0  0  0
  187.1190  178.7210  142.0710 C   0  0  1  0  0  3  0  0  0  0  0  0
  188.7460  177.1540  145.1970 C   0  0  0  0  0  3  0  0  0  0  0  0
  182.5610  179.5150  143.9690 F   0  0  0  0  0  0  0  0  0  0  0  0
  189.7020  178.2290  143.2470 C   0  0  0  0  0  0  0  0  0  0  0  0
  190.9730  178.0900  143.8130 C   0  0  0  0  0  3  0  0  0  0  0  0
  185.7820  178.5420  141.3630 C   0  0  0  0  0  2  0  0  0  0  0  0
  184.8000  178.7270  143.6840 C   0  0  0  0  0  0  0  0  0  0  0  0
  183.7130  179.0430  144.5070 C   0  0  0  0  0  0  0  0  0  0  0  0
  188.3320  177.1810  140.3610 C   0  0  0  0  0  2  0  0  0  0  0  0
  189.6420  176.8770  136.9520 O   0  0  0  0  0  0  0  0  0  0  0  0
  189.6080  176.8350  138.2120 C   0  0  0  0  0  0  0  0  0  0  0  0
  188.4710  177.3630  138.9180 N   0  0  0  0  0  0  0  0  0  0  0  0
  186.3360  177.4730  137.7330 C   0  0  0  0  0  1  0  0  0  0  0  0
  187.5340  178.2530  138.2420 C   0  0  0  0  0  2  0  0  0  0  0  0
  190.7840  176.2790  138.9570 C   0  0  0  0  0  2  0  0  0  0  0  0
  191.9200  175.9040  138.0140 C   0  0  0  0  0  2  0  0  0  0  0  0
  193.2200  176.5870  138.4080 C   0  0  2  0  0  3  0  0  0  0  0  0
  194.3060  175.6280  138.3420 N   0  0  0  0  0  1  0  0  0  0  0  0
  193.1160  177.1310  139.8210 C   0  0  0  0  0  1  0  0  0  0  0  0
  1  9  1  0  0  0  0
  2  5  1  1  0  0  0
  2  3  1  0  0  0  0
  3  7  1  0  0  0  0
  5 14  2  0  0  0  0
  6  1  2  0  0  0  0
  7  4  2  0  0  0  0
  8 21  1  1  0  0  0
  8 12  1  0  0  0  0
  8 13  1  0  0  0  0
 10 19  1  0  0  0  0
 11  4  1  0  0  0  0
 12 16  1  0  0  0  0
 13 18  1  6  0  0  0
 13  2  1  0  0  0  0
 14  1  1  0  0  0  0
 15 20  1  0  0  0  0
 16 17  2  0  0  0  0
 16  5  1  0  0  0  0
 17  6  1  0  0  0  0
 18 10  1  0  0  0  0
 19  3  2  0  0  0  0
 19 20  1  0  0  0  0
 20 11  2  0  0  0  0
 22 23  2  0  0  0  0
 23 24  1  0  0  0  0
 23 27  1  0  0  0  0
 24 21  1  0  0  0  0
 25 26  1  0  0  0  0
 26 24  1  0  0  0  0
 28 29  1  0  0  0  0
 28 27  1  0  0  0  0
 29 31  1  1  0  0  0
 30 29  1  0  0  0  0
M  END
>  <MODEL>
4

>  <REMARK>
 VINA RESULT:      -8.4      2.513      6.428
  Name = 
  6 active torsions:
  status: ('A' for Active; 'I' for Inactive)
    1  A    between atoms: C_1  and  C_24
    2  A    between atoms: C_6  and  C_19
    3  A    between atoms: C_6  and  C_24
    4  A    between atoms: C_9  and  N_22
    5  A    between atoms: C_15  and  C_23
    6  A    between atoms: N_22  and  C_23
                            x       y       z     vdW  Elec       q    Type
                         _______ _______ _______ _____ _____    ______ ____

>  <TORSDO>
F 6

$$$$
=
 OpenBabel10262419413D

 31 34  0  0  1  0  0  0  0  0999 V2000
  191.1560  177.2300  141.5640 C   0  0  0  0  0  0  0  0  0  0  0  0
  187.4580  178.2120  141.7220 C   0  0  2  0  0  3  0  0  0  0  0  0
  187.0260  178.3150  140.2620 C   0  0  0  0  0  0  0  0  0  0  0  0
  187.5020  178.4140  137.8880 C   0  0  0  0  0  3  0  0  0  0  0  0
  188.7740  177.4960  142.0170 C   0  0  0  0  0  0  0  0  0  0  0  0
  191.2760  176.3660  142.6500 C   0  0  0  0  0  3  0  0  0  0  0  0
  187.9410  178.2530  139.2030 C   0  0  0  0  0  3  0  0  0  0  0  0
  186.6620  177.4050  144.0220 C   0  0  2  0  0  3  0  0  0  0  0  0
  192.2650  177.5240  140.7830 O   0  0  0  0  0  1  0  0  0  0  0  0
  184.6950  178.6540  141.0120 N   0  0  0  0  0  2  0  0  0  0  0  0
  186.1880  178.6430  137.6310 N   0  0  0  0  0  0  0  0  0  0  0  0
  187.7890  176.3790  144.1020 C   0  0  0  0  0  2  0  0  0  0  0  0
  186.2910  177.6760  142.5660 C   0  0  1  0  0  3  0  0  0  0  0  0
  189.9190  177.8000  141.2610 C   0  0  0  0  0  3  0  0  0  0  0  0
  183.9710  178.9590  138.3270 F   0  0  0  0  0  0  0  0  0  0  0  0
  188.9260  176.6750  143.1640 C   0  0  0  0  0  0  0  0  0  0  0  0
  190.1660  176.0950  143.4490 C   0  0  0  0  0  3  0  0  0  0  0  0
  185.0750  178.5810  142.4190 C   0  0  0  0  0  2  0  0  0  0  0  0
  185.6710  178.5820  139.9630 C   0  0  0  0  0  0  0  0  0  0  0  0
  185.2720  178.7290  138.6300 C   0  0  0  0  0  0  0  0  0  0  0  0
  186.8390  178.6440  144.9170 C   0  0  0  0  0  2  0  0  0  0  0  0
  187.5490  178.0040  148.4550 O   0  0  0  0  0  0  0  0  0  0  0  0
  187.7340  178.0930  147.2100 C   0  0  0  0  0  0  0  0  0  0  0  0
  186.6260  178.3750  146.3370 N   0  0  0  0  0  0  0  0  0  0  0  0
  184.2820  178.8780  145.8590 C   0  0  0  0  0  1  0  0  0  0  0  0
  185.2570  178.2100  146.8100 C   0  0  0  0  0  2  0  0  0  0  0  0
  189.1060  177.8510  146.6570 C   0  0  0  0  0  2  0  0  0  0  0  0
  189.7990  176.6910  147.3610 C   0  0  0  0  0  2  0  0  0  0  0  0
  191.3130  176.8260  147.2970 C   0  0  2  0  0  3  0  0  0  0  0  0
  191.6830  177.5080  146.0720 N   0  0  0  0  0  1  0  0  0  0  0  0
  191.9600  175.4540  147.3230 C   0  0  0  0  0  1  0  0  0  0  0  0
  1  6  1  0  0  0  0
  2  3  1  6  0  0  0
  2  5  1  0  0  0  0
  2 13  1  0  0  0  0
  4  7  1  0  0  0  0
  5 16  2  0  0  0  0
  6 17  2  0  0  0  0
  7  3  2  0  0  0  0
  8 12  1  0  0  0  0
  8 21  1  6  0  0  0
  9  1  1  0  0  0  0
 10 18  1  0  0  0  0
 11  4  2  0  0  0  0
 11 20  1  0  0  0  0
 13 18  1  1  0  0  0
 13  8  1  0  0  0  0
 14  1  2  0  0  0  0
 14  5  1  0  0  0  0
 15 20  1  0  0  0  0
 16 17  1  0  0  0  0
 16 12  1  0  0  0  0
 19  3  1  0  0  0  0
 19 10  1  0  0  0  0
 20 19  2  0  0  0  0
 21 24  1  0  0  0  0
 23 22  2  0  0  0  0
 24 26  1  0  0  0  0
 24 23  1  0  0  0  0
 25 26  1  0  0  0  0
 27 23  1  0  0  0  0
 27 28  1  0  0  0  0
 29 31  1  6  0  0  0
 29 28  1  0  0  0  0
 30 29  1  0  0  0  0
M  END
>  <MODEL>
5

>  <REMARK>
 VINA RESULT:      -8.3      2.252      3.778
  Name = 
  6 active torsions:
  status: ('A' for Active; 'I' for Inactive)
    1  A    between atoms: C_1  and  C_24
    2  A    between atoms: C_6  and  C_19
    3  A    between atoms: C_6  and  C_24
    4  A    between atoms: C_9  and  N_22
    5  A    between atoms: C_15  and  C_23
    6  A    between atoms: N_22  and  C_23
                            x       y       z     vdW  Elec       q    Type
                         _______ _______ _______ _____ _____    ______ ____

>  <TORSDO>
F 6

$$$$
=
 OpenBabel10262419413D

 31 34  0  0  1  0  0  0  0  0999 V2000
  189.0600  178.2530  139.6890 C   0  0  0  0  0  0  0  0  0  0  0  0
  186.1980  178.4670  142.2250 C   0  0  2  0  0  3  0  0  0  0  0  0
  184.9480  178.6740  141.3740 C   0  0  0  0  0  0  0  0  0  0  0  0
  183.8400  179.1750  139.2780 C   0  0  0  0  0  3  0  0  0  0  0  0
  187.4610  177.9880  141.5120 C   0  0  0  0  0  0  0  0  0  0  0  0
  189.8910  177.2940  140.2650 C   0  0  0  0  0  3  0  0  0  0  0  0
  185.0100  178.9320  139.9990 C   0  0  0  0  0  3  0  0  0  0  0  0
  187.0610  177.2250  144.2950 C   0  0  2  0  0  3  0  0  0  0  0  0
  189.4210  178.8580  138.4930 O   0  0  0  0  0  1  0  0  0  0  0  0
  183.5680  178.4520  143.4130 N   0  0  0  0  0  2  0  0  0  0  0  0
  182.6380  179.1750  139.9100 N   0  0  0  0  0  0  0  0  0  0  0  0
  188.0660  176.4370  143.4600 C   0  0  0  0  0  2  0  0  0  0  0  0
  185.8490  177.6080  143.4490 C   0  0  1  0  0  3  0  0  0  0  0  0
  187.8650  178.6060  140.3160 C   0  0  0  0  0  3  0  0  0  0  0  0
  181.3140  178.9600  141.8340 F   0  0  0  0  0  0  0  0  0  0  0  0
  188.3510  177.0700  142.1260 C   0  0  0  0  0  0  0  0  0  0  0  0
  189.5380  176.7100  141.4810 C   0  0  0  0  0  3  0  0  0  0  0  0
  184.7420  178.2700  144.2590 C   0  0  0  0  0  2  0  0  0  0  0  0
  183.6850  178.7100  142.0070 C   0  0  0  0  0  0  0  0  0  0  0  0
  182.5350  178.9490  141.2450 C   0  0  0  0  0  0  0  0  0  0  0  0
  187.6640  178.3470  145.1600 C   0  0  0  0  0  2  0  0  0  0  0  0
  188.5680  177.5240  148.6150 O   0  0  0  0  0  0  0  0  0  0  0  0
  188.6450  177.5890  147.3570 C   0  0  0  0  0  0  0  0  0  0  0  0
  187.5410  178.1100  146.5960 N   0  0  0  0  0  0  0  0  0  0  0  0
  185.9320  179.6770  147.5610 C   0  0  0  0  0  1  0  0  0  0  0  0
  186.2200  178.2310  147.2030 C   0  0  0  0  0  2  0  0  0  0  0  0
  189.8730  177.0700  146.6730 C   0  0  0  0  0  2  0  0  0  0  0  0
  191.0110  176.8410  147.6580 C   0  0  0  0  0  2  0  0  0  0  0  0
  191.8730  175.6570  147.2490 C   0  0  2  0  0  3  0  0  0  0  0  0
  193.1730  175.7670  147.8820 N   0  0  0  0  0  1  0  0  0  0  0  0
  192.0490  175.6360  145.7420 C   0  0  0  0  0  1  0  0  0  0  0  0
  1  6  2  0  0  0  0
  1 14  1  0  0  0  0
  2  3  1  6  0  0  0
  2 13  1  0  0  0  0
  3 19  1  0  0  0  0
  4 11  2  0  0  0  0
  4  7  1  0  0  0  0
  5 16  1  0  0  0  0
  5  2  1  0  0  0  0
  6 17  1  0  0  0  0
  7  3  2  0  0  0  0
  8 21  1  6  0  0  0
  9  1  1  0  0  0  0
 10 18  1  0  0  0  0
 11 20  1  0  0  0  0
 12  8  1  0  0  0  0
 13 18  1  1  0  0  0
 13  8  1  0  0  0  0
 14  5  2  0  0  0  0
 16 12  1  0  0  0  0
 17 16  2  0  0  0  0
 19 10  1  0  0  0  0
 20 15  1  0  0  0  0
 20 19  2  0  0  0  0
 21 24  1  0  0  0  0
 23 22  2  0  0  0  0
 24 26  1  0  0  0  0
 24 23  1  0  0  0  0
 26 25  1  0  0  0  0
 27 23  1  0  0  0  0
 27 28  1  0  0  0  0
 29 31  1  6  0  0  0
 29 28  1  0  0  0  0
 29 30  1  0  0  0  0
M  END
>  <MODEL>
6

>  <REMARK>
 VINA RESULT:      -8.2      1.719      2.796
  Name = 
  6 active torsions:
  status: ('A' for Active; 'I' for Inactive)
    1  A    between atoms: C_1  and  C_24
    2  A    between atoms: C_6  and  C_19
    3  A    between atoms: C_6  and  C_24
    4  A    between atoms: C_9  and  N_22
    5  A    between atoms: C_15  and  C_23
    6  A    between atoms: N_22  and  C_23
                            x       y       z     vdW  Elec       q    Type
                         _______ _______ _______ _____ _____    ______ ____

>  <TORSDO>
F 6

$$$$
=
 OpenBabel10262419413D

 31 34  0  0  1  0  0  0  0  0999 V2000
  186.0720  179.0760  146.3430 C   0  0  0  0  0  0  0  0  0  0  0  0
  189.2370  177.5350  144.8360 C   0  0  2  0  0  3  0  0  0  0  0  0
  190.0680  177.1100  146.0440 C   0  0  0  0  0  0  0  0  0  0  0  0
  190.5510  177.1050  148.4180 C   0  0  0  0  0  3  0  0  0  0  0  0
  187.7640  177.8600  145.0760 C   0  0  0  0  0  0  0  0  0  0  0  0
  185.0890  178.6660  145.4440 C   0  0  0  0  0  3  0  0  0  0  0  0
  189.7250  177.4670  147.3540 C   0  0  0  0  0  3  0  0  0  0  0  0
  188.5480  176.7880  142.4830 C   0  0  2  0  0  3  0  0  0  0  0  0
  185.7320  179.8710  147.4290 O   0  0  0  0  0  1  0  0  0  0  0  0
  191.6780  176.0300  144.5110 N   0  0  0  0  0  2  0  0  0  0  0  0
  191.6980  176.4160  148.1860 N   0  0  0  0  0  0  0  0  0  0  0  0
  187.0770  176.7240  142.8850 C   0  0  0  0  0  2  0  0  0  0  0  0
  189.4420  176.5300  143.6930 C   0  0  1  0  0  3  0  0  0  0  0  0
  187.3980  178.6890  146.1500 C   0  0  0  0  0  3  0  0  0  0  0  0
  193.2320  175.3800  146.7460 F   0  0  0  0  0  0  0  0  0  0  0  0
  186.7690  177.5120  144.1270 C   0  0  0  0  0  0  0  0  0  0  0  0
  185.4400  177.8910  144.3380 C   0  0  0  0  0  3  0  0  0  0  0  0
  190.9190  176.4360  143.3330 C   0  0  0  0  0  2  0  0  0  0  0  0
  191.2820  176.4180  145.8330 C   0  0  0  0  0  0  0  0  0  0  0  0
  192.0780  176.0670  146.9300 C   0  0  0  0  0  0  0  0  0  0  0  0
  188.9340  177.9880  141.5990 C   0  0  0  0  0  2  0  0  0  0  0  0
  188.1560  177.8630  138.0200 O   0  0  0  0  0  0  0  0  0  0  0  0
  187.9900  178.0260  139.2600 C   0  0  0  0  0  0  0  0  0  0  0  0
  189.0340  177.6590  140.1790 N   0  0  0  0  0  0  0  0  0  0  0  0
  191.4640  177.4410  140.0190 C   0  0  0  0  0  1  0  0  0  0  0  0
  190.1210  176.7880  139.7480 C   0  0  0  0  0  2  0  0  0  0  0  0
  186.6780  178.5540  139.7580 C   0  0  0  0  0  2  0  0  0  0  0  0
  185.5530  178.2880  138.7670 C   0  0  0  0  0  2  0  0  0  0  0  0
  184.2200  178.8060  139.2850 C   0  0  2  0  0  3  0  0  0  0  0  0
  184.1710  180.2470  139.1270 N   0  0  0  0  0  1  0  0  0  0  0  0
  184.0600  178.4560  140.7530 C   0  0  0  0  0  1  0  0  0  0  0  0
  1  9  1  0  0  0  0
  2  5  1  1  0  0  0
  2  3  1  0  0  0  0
  3  7  1  0  0  0  0
  5 14  2  0  0  0  0
  6  1  2  0  0  0  0
  7  4  2  0  0  0  0
  8 21  1  1  0  0  0
  8 12  1  0  0  0  0
  8 13  1  0  0  0  0
 10 19  1  0  0  0  0
 11  4  1  0  0  0  0
 12 16  1  0  0  0  0
 13 18  1  6  0  0  0
 13  2  1  0  0  0  0
 14  1  1  0  0  0  0
 15 20  1  0  0  0  0
 16 17  2  0  0  0  0
 16  5  1  0  0  0  0
 17  6  1  0  0  0  0
 18 10  1  0  0  0  0
 19  3  2  0  0  0  0
 19 20  1  0  0  0  0
 20 11  2  0  0  0  0
 22 23  2  0  0  0  0
 23 27  1  0  0  0  0
 23 24  1  0  0  0  0
 24 21  1  0  0  0  0
 26 25  1  0  0  0  0
 26 24  1  0  0  0  0
 28 29  1  0  0  0  0
 28 27  1  0  0  0  0
 29 31  1  1  0  0  0
 30 29  1  0  0  0  0
M  END
>  <MODEL>
7

>  <REMARK>
 VINA RESULT:      -7.9      3.152      7.547
  Name = 
  6 active torsions:
  status: ('A' for Active; 'I' for Inactive)
    1  A    between atoms: C_1  and  C_24
    2  A    between atoms: C_6  and  C_19
    3  A    between atoms: C_6  and  C_24
    4  A    between atoms: C_9  and  N_22
    5  A    between atoms: C_15  and  C_23
    6  A    between atoms: N_22  and  C_23
                            x       y       z     vdW  Elec       q    Type
                         _______ _______ _______ _____ _____    ______ ____

>  <TORSDO>
F 6

$$$$
=
 OpenBabel10262419413D

 31 34  0  0  1  0  0  0  0  0999 V2000
  188.1220  177.3240  147.6840 C   0  0  0  0  0  0  0  0  0  0  0  0
  187.0200  177.8230  144.0510 C   0  0  2  0  0  3  0  0  0  0  0  0
  185.5660  178.2770  144.1500 C   0  0  0  0  0  0  0  0  0  0  0  0
  183.5100  178.6270  145.3830 C   0  0  0  0  0  3  0  0  0  0  0  0
  187.8620  177.8790  145.3230 C   0  0  0  0  0  0  0  0  0  0  0  0
  189.4450  177.7600  147.6510 C   0  0  0  0  0  3  0  0  0  0  0  0
  184.8560  178.2590  145.3570 C   0  0  0  0  0  3  0  0  0  0  0  0
  189.1930  178.2420  142.7560 C   0  0  2  0  0  3  0  0  0  0  0  0
  187.5770  176.8430  148.8660 O   0  0  0  0  0  1  0  0  0  0  0  0
  185.5590  178.6700  141.7100 N   0  0  0  0  0  2  0  0  0  0  0  0
  182.8810  178.9920  144.2360 N   0  0  0  0  0  0  0  0  0  0  0  0
  189.9120  178.7010  144.0220 C   0  0  0  0  0  2  0  0  0  0  0  0
  187.6970  178.5230  142.8620 C   0  0  1  0  0  3  0  0  0  0  0  0
  187.3450  177.3690  146.5260 C   0  0  0  0  0  3  0  0  0  0  0  0
  182.8600  179.3770  141.9230 F   0  0  0  0  0  0  0  0  0  0  0  0
  189.2310  178.2490  145.2850 C   0  0  0  0  0  0  0  0  0  0  0  0
  189.9970  178.2160  146.4540 C   0  0  0  0  0  3  0  0  0  0  0  0
  186.9410  178.2230  141.5740 C   0  0  0  0  0  2  0  0  0  0  0  0
  184.8760  178.6350  142.9700 C   0  0  0  0  0  0  0  0  0  0  0  0
  183.5280  179.0050  143.0420 C   0  0  0  0  0  0  0  0  0  0  0  0
  189.5850  176.8420  142.2510 C   0  0  0  0  0  2  0  0  0  0  0  0
  192.1550  177.0030  139.6430 O   0  0  0  0  0  0  0  0  0  0  0  0
  191.0140  176.8980  140.1730 C   0  0  0  0  0  0  0  0  0  0  0  0
  190.8940  176.7990  141.6030 N   0  0  0  0  0  0  0  0  0  0  0  0
  191.6400  175.6340  143.6190 C   0  0  0  0  0  1  0  0  0  0  0  0
  192.0560  176.4630  142.4180 C   0  0  0  0  0  2  0  0  0  0  0  0
  189.8040  176.8260  139.2930 C   0  0  0  0  0  2  0  0  0  0  0  0
  189.4250  178.1960  138.7440 C   0  0  0  0  0  2  0  0  0  0  0  0
  188.6070  178.0780  137.4680 C   0  0  2  0  0  3  0  0  0  0  0  0
  188.0670  179.3790  137.1220 N   0  0  0  0  0  1  0  0  0  0  0  0
  187.4660  177.0970  137.6680 C   0  0  0  0  0  1  0  0  0  0  0  0
  1  9  1  0  0  0  0
  2  3  1  1  0  0  0
  2  5  1  0  0  0  0
  3  7  1  0  0  0  0
  5 14  1  0  0  0  0
  6  1  1  0  0  0  0
  7  4  2  0  0  0  0
  8 21  1  1  0  0  0
  8 13  1  0  0  0  0
  8 12  1  0  0  0  0
 10 19  1  0  0  0  0
 11  4  1  0  0  0  0
 12 16  1  0  0  0  0
 13 18  1  6  0  0  0
 13  2  1  0  0  0  0
 14  1  2  0  0  0  0
 15 20  1  0  0  0  0
 16  5  2  0  0  0  0
 16 17  1  0  0  0  0
 17  6  2  0  0  0  0
 18 10  1  0  0  0  0
 19 20  1  0  0  0  0
 19  3  2  0  0  0  0
 20 11  2  0  0  0  0
 22 23  2  0  0  0  0
 23 24  1  0  0  0  0
 24 21  1  0  0  0  0
 24 26  1  0  0  0  0
 26 25  1  0  0  0  0
 27 23  1  0  0  0  0
 28 27  1  0  0  0  0
 29 31  1  1  0  0  0
 29 28  1  0  0  0  0
 30 29  1  0  0  0  0
M  END
>  <MODEL>
8

>  <REMARK>
 VINA RESULT:      -7.6      2.332      6.045
  Name = 
  6 active torsions:
  status: ('A' for Active; 'I' for Inactive)
    1  A    between atoms: C_1  and  C_24
    2  A    between atoms: C_6  and  C_19
    3  A    between atoms: C_6  and  C_24
    4  A    between atoms: C_9  and  N_22
    5  A    between atoms: C_15  and  C_23
    6  A    between atoms: N_22  and  C_23
                            x       y       z     vdW  Elec       q    Type
                         _______ _______ _______ _____ _____    ______ ____

>  <TORSDO>
F 6

$$$$
=
 OpenBabel10262419413D

 31 34  0  0  1  0  0  0  0  0999 V2000
  188.3920  178.2870  139.9230 C   0  0  0  0  0  0  0  0  0  0  0  0
  186.4420  178.3040  143.2190 C   0  0  2  0  0  3  0  0  0  0  0  0
  185.0040  178.6120  142.8110 C   0  0  0  0  0  0  0  0  0  0  0  0
  183.3380  179.3270  141.2030 C   0  0  0  0  0  3  0  0  0  0  0  0
  187.4080  177.8760  142.1170 C   0  0  0  0  0  0  0  0  0  0  0  0
  189.3150  177.2640  140.1350 C   0  0  0  0  0  3  0  0  0  0  0  0
  184.6590  178.9980  141.5090 C   0  0  0  0  0  3  0  0  0  0  0  0
  187.8340  176.8580  144.8140 C   0  0  2  0  0  3  0  0  0  0  0  0
  188.4020  178.9960  138.7310 O   0  0  0  0  0  1  0  0  0  0  0  0
  184.2960  178.2190  145.1460 N   0  0  0  0  0  2  0  0  0  0  0  0
  182.3850  179.2870  142.1680 N   0  0  0  0  0  0  0  0  0  0  0  0
  188.5040  176.1370  143.6480 C   0  0  0  0  0  2  0  0  0  0  0  0
  186.4420  177.3390  144.4140 C   0  0  1  0  0  3  0  0  0  0  0  0
  187.4590  178.5980  140.9130 C   0  0  0  0  0  3  0  0  0  0  0  0
  181.6950  178.9110  144.3780 F   0  0  0  0  0  0  0  0  0  0  0  0
  188.4000  176.8890  142.3500 C   0  0  0  0  0  0  0  0  0  0  0  0
  189.3210  176.5730  141.3460 C   0  0  0  0  0  3  0  0  0  0  0  0
  185.6610  177.9380  145.5760 C   0  0  0  0  0  2  0  0  0  0  0  0
  183.9940  178.6070  143.7990 C   0  0  0  0  0  0  0  0  0  0  0  0
  182.6800  178.9370  143.4470 C   0  0  0  0  0  0  0  0  0  0  0  0
  188.7190  177.8830  145.5460 C   0  0  0  0  0  2  0  0  0  0  0  0
  191.2250  176.7190  147.9540 O   0  0  0  0  0  0  0  0  0  0  0  0
  190.7030  177.0230  146.8460 C   0  0  0  0  0  0  0  0  0  0  0  0
  189.3080  177.3710  146.7810 N   0  0  0  0  0  0  0  0  0  0  0  0
  188.1900  178.2530  148.7670 C   0  0  0  0  0  1  0  0  0  0  0  0
  188.4150  177.0390  147.8850 C   0  0  0  0  0  2  0  0  0  0  0  0
  191.5400  176.9660  145.6040 C   0  0  0  0  0  2  0  0  0  0  0  0
  191.5830  178.3130  144.8930 C   0  0  0  0  0  2  0  0  0  0  0  0
  192.0430  178.1670  143.4510 C   0  0  2  0  0  3  0  0  0  0  0  0
  191.1630  178.9310  142.5870 N   0  0  0  0  0  1  0  0  0  0  0  0
  192.0080  176.7070  143.0380 C   0  0  0  0  0  1  0  0  0  0  0  0
  1  6  2  0  0  0  0
  1 14  1  0  0  0  0
  2  5  1  6  0  0  0
  2 13  1  0  0  0  0
  3  2  1  0  0  0  0
  3 19  1  0  0  0  0
  4  7  1  0  0  0  0
  4 11  2  0  0  0  0
  5 16  1  0  0  0  0
  6 17  1  0  0  0  0
  7  3  2  0  0  0  0
  8 21  1  6  0  0  0
  9  1  1  0  0  0  0
 10 18  1  0  0  0  0
 11 20  1  0  0  0  0
 12  8  1  0  0  0  0
 13  8  1  0  0  0  0
 13 18  1  1  0  0  0
 14  5  2  0  0  0  0
 16 12  1  0  0  0  0
 17 16  2  0  0  0  0
 19 10  1  0  0  0  0
 20 19  2  0  0  0  0
 20 15  1  0  0  0  0
 21 24  1  0  0  0  0
 23 22  2  0  0  0  0
 24 23  1  0  0  0  0
 24 26  1  0  0  0  0
 26 25  1  0  0  0  0
 27 23  1  0  0  0  0
 28 27  1  0  0  0  0
 29 31  1  6  0  0  0
 29 28  1  0  0  0  0
 30 29  1  0  0  0  0
M  END
>  <MODEL>
9

>  <REMARK>
 VINA RESULT:      -7.5      1.166      2.881
  Name = 
  6 active torsions:
  status: ('A' for Active; 'I' for Inactive)
    1  A    between atoms: C_1  and  C_24
    2  A    between atoms: C_6  and  C_19
    3  A    between atoms: C_6  and  C_24
    4  A    between atoms: C_9  and  N_22
    5  A    between atoms: C_15  and  C_23
    6  A    between atoms: N_22  and  C_23
                            x       y       z     vdW  Elec       q    Type
                         _______ _______ _______ _____ _____    ______ ____

>  <TORSDO>
F 6

$$$$
