=
 OpenBabel10262419383D

 31 34  0  0  1  0  0  0  0  0999 V2000
  190.6190  177.1930  147.1310 C   0  0  0  0  0  0  0  0  0  0  0  0
  188.3200  177.5440  144.0930 C   0  0  0  0  0  0  0  0  0  0  0  0
  187.0290  177.8980  144.5700 C   0  0  0  0  0  0  0  0  0  0  0  0
  185.4370  178.2270  146.3880 C   0  0  0  0  0  3  0  0  0  0  0  0
  189.4730  177.1730  144.9810 C   0  0  0  0  0  0  0  0  0  0  0  0
  191.7020  176.5130  146.5710 C   0  0  0  0  0  3  0  0  0  0  0  0
  186.7110  177.8810  145.9390 C   0  0  0  0  0  3  0  0  0  0  0  0
  189.8930  177.1790  142.1320 C   0  0  2  0  0  3  0  0  0  0  0  0
  190.6390  177.5330  148.4420 F   0  0  0  0  0  0  0  0  0  0  0  0
  186.3070  178.2540  142.2820 C   0  0  0  0  0  3  0  0  0  0  0  0
  184.4500  178.5930  145.4730 C   0  0  0  0  0  3  0  0  0  0  0  0
  190.5770  176.1080  142.9810 C   0  0  0  0  0  2  0  0  0  0  0  0
  188.5310  177.5190  142.6930 C   0  0  0  0  0  0  0  0  0  0  0  0
  189.5170  177.5230  146.3400 C   0  0  0  0  0  3  0  0  0  0  0  0
  183.6370  179.0070  143.1670 C   0  0  0  0  0  1  0  0  0  0  0  0
  190.5850  176.5090  144.4210 C   0  0  0  0  0  0  0  0  0  0  0  0
  191.6840  176.1700  145.2170 C   0  0  0  0  0  3  0  0  0  0  0  0
  187.5370  177.8940  141.8430 N   0  0  0  0  0  0  0  0  0  0  0  0
  186.0140  178.2590  143.6460 C   0  0  0  0  0  0  0  0  0  0  0  0
  184.7280  178.6120  144.1060 C   0  0  0  0  0  0  0  0  0  0  0  0
  191.9460  177.3640  140.1520 O   0  0  0  0  0  0  0  0  0  0  0  0
  190.8540  176.8290  139.8160 C   0  0  0  0  0  0  0  0  0  0  0  0
  189.7840  176.7140  140.7560 N   0  0  0  0  0  2  0  0  0  0  0  0
  190.9790  174.9140  138.4150 O   0  0  0  0  0  1  0  0  0  0  0  0
  190.6780  176.2780  138.4390 C   0  0  1  0  0  3  0  0  0  0  0  0
  188.7240  175.3750  137.3640 O   0  0  0  0  0  1  0  0  0  0  0  0
  189.2620  176.5380  137.9210 C   0  0  2  0  0  3  0  0  0  0  0  0
  189.2560  177.6500  136.8830 C   0  0  0  0  0  2  0  0  0  0  0  0
  188.5770  178.8650  137.4140 C   0  0  0  0  0  0  0  0  0  0  0  0
  189.0250  179.4390  138.4410 O   0  0  0  0  0  1  0  0  0  0  0  0
  187.4700  179.3850  136.7580 O   0  0  0  0  0  0  0  0  0  0  0  0
  1  9  1  0  0  0  0
  2  3  1  0  0  0  0
  2  5  1  0  0  0  0
  3  7  1  0  0  0  0
  5 14  1  0  0  0  0
  6  1  1  0  0  0  0
  7  4  2  0  0  0  0
  8 23  1  6  0  0  0
  8 13  1  0  0  0  0
  8 12  1  0  0  0  0
 10 19  1  0  0  0  0
 11  4  1  0  0  0  0
 12 16  1  0  0  0  0
 13  2  2  0  0  0  0
 14  1  2  0  0  0  0
 15 20  1  0  0  0  0
 16  5  2  0  0  0  0
 16 17  1  0  0  0  0
 17  6  2  0  0  0  0
 18 10  2  0  0  0  0
 18 13  1  0  0  0  0
 19 20  1  0  0  0  0
 19  3  2  0  0  0  0
 20 11  2  0  0  0  0
 22 21  2  0  0  0  0
 22 23  1  0  0  0  0
 25 24  1  1  0  0  0
 25 22  1  0  0  0  0
 27 26  1  6  0  0  0
 27 25  1  0  0  0  0
 28 29  1  0  0  0  0
 28 27  1  0  0  0  0
 29 30  1  0  0  0  0
 31 29  2  0  0  0  0
M  END
>  <MODEL>
1

>  <REMARK>
 VINA RESULT:     -11.1      0.000      0.000
  Name = 
  5 active torsions:
  status: ('A' for Active; 'I' for Inactive)
    1  A    between atoms: C_1  and  C_24
    2  A    between atoms: C_9  and  C_22
    3  A    between atoms: C_15  and  N_23
    4  A    between atoms: C_19  and  C_22
    5  A    between atoms: C_19  and  C_24
                            x       y       z     vdW  Elec       q    Type
                         _______ _______ _______ _____ _____    ______ ____

>  <TORSDO>
F 5

$$$$
=
 OpenBabel10262419383D

 31 34  0  0  1  0  0  0  0  0999 V2000
  190.8070  176.9680  146.1560 C   0  0  0  0  0  0  0  0  0  0  0  0
  187.8650  177.6900  143.8200 C   0  0  0  0  0  0  0  0  0  0  0  0
  186.7350  177.9840  144.6300 C   0  0  0  0  0  0  0  0  0  0  0  0
  185.6300  178.0880  146.8010 C   0  0  0  0  0  3  0  0  0  0  0  0
  189.1840  177.2130  144.3560 C   0  0  0  0  0  0  0  0  0  0  0  0
  191.7050  176.3620  145.2770 C   0  0  0  0  0  3  0  0  0  0  0  0
  186.7500  177.8000  146.0230 C   0  0  0  0  0  3  0  0  0  0  0  0
  188.9170  177.5690  141.5110 C   0  0  2  0  0  3  0  0  0  0  0  0
  191.1470  177.1450  147.4560 F   0  0  0  0  0  0  0  0  0  0  0  0
  185.5020  178.6180  142.6390 C   0  0  0  0  0  3  0  0  0  0  0  0
  184.4660  178.5640  146.1990 C   0  0  0  0  0  3  0  0  0  0  0  0
  189.7510  176.4010  142.0370 C   0  0  0  0  0  2  0  0  0  0  0  0
  187.7370  177.8370  142.4170 C   0  0  0  0  0  0  0  0  0  0  0  0
  189.5590  177.3930  145.6970 C   0  0  0  0  0  3  0  0  0  0  0  0
  183.1410  179.2570  144.2200 C   0  0  0  0  0  1  0  0  0  0  0  0
  190.1120  176.6220  143.4720 C   0  0  0  0  0  0  0  0  0  0  0  0
  191.3570  176.1870  143.9360 C   0  0  0  0  0  3  0  0  0  0  0  0
  186.5820  178.3140  141.8800 N   0  0  0  0  0  0  0  0  0  0  0  0
  185.5410  178.4560  144.0250 C   0  0  0  0  0  0  0  0  0  0  0  0
  184.4120  178.7510  144.8170 C   0  0  0  0  0  0  0  0  0  0  0  0
  189.1190  179.3430  139.2800 O   0  0  0  0  0  0  0  0  0  0  0  0
  188.6090  178.2070  139.0790 C   0  0  0  0  0  0  0  0  0  0  0  0
  188.4710  177.2750  140.1550 N   0  0  0  0  0  2  0  0  0  0  0  0
  187.6990  178.9160  137.0020 O   0  0  0  0  0  1  0  0  0  0  0  0
  188.1740  177.8070  137.7090 C   0  0  1  0  0  3  0  0  0  0  0  0
  189.3830  177.5940  135.6400 O   0  0  0  0  0  1  0  0  0  0  0  0
  189.3090  177.1170  136.9510 C   0  0  2  0  0  3  0  0  0  0  0  0
  189.1160  175.6090  136.9340 C   0  0  0  0  0  2  0  0  0  0  0  0
  190.2370  174.9240  137.6390 C   0  0  0  0  0  0  0  0  0  0  0  0
  190.8520  175.5140  138.5640 O   0  0  0  0  0  1  0  0  0  0  0  0
  190.5800  173.6230  137.2980 O   0  0  0  0  0  0  0  0  0  0  0  0
  1  9  1  0  0  0  0
  2  5  1  0  0  0  0
  2  3  1  0  0  0  0
  3  7  1  0  0  0  0
  5 14  2  0  0  0  0
  6  1  2  0  0  0  0
  7  4  2  0  0  0  0
  8 23  1  6  0  0  0
  8 12  1  0  0  0  0
  8 13  1  0  0  0  0
 10 19  1  0  0  0  0
 11  4  1  0  0  0  0
 12 16  1  0  0  0  0
 13  2  2  0  0  0  0
 14  1  1  0  0  0  0
 15 20  1  0  0  0  0
 16 17  2  0  0  0  0
 16  5  1  0  0  0  0
 17  6  1  0  0  0  0
 18 13  1  0  0  0  0
 18 10  2  0  0  0  0
 19  3  2  0  0  0  0
 19 20  1  0  0  0  0
 20 11  2  0  0  0  0
 22 21  2  0  0  0  0
 22 23  1  0  0  0  0
 25 24  1  6  0  0  0
 25 22  1  0  0  0  0
 27 26  1  6  0  0  0
 27 25  1  0  0  0  0
 28 27  1  0  0  0  0
 28 29  1  0  0  0  0
 29 30  1  0  0  0  0
 31 29  2  0  0  0  0
M  END
>  <MODEL>
2

>  <REMARK>
 VINA RESULT:     -10.7      1.166      2.356
  Name = 
  5 active torsions:
  status: ('A' for Active; 'I' for Inactive)
    1  A    between atoms: C_1  and  C_24
    2  A    between atoms: C_9  and  C_22
    3  A    between atoms: C_15  and  N_23
    4  A    between atoms: C_19  and  C_22
    5  A    between atoms: C_19  and  C_24
                            x       y       z     vdW  Elec       q    Type
                         _______ _______ _______ _____ _____    ______ ____

>  <TORSDO>
F 5

$$$$
=
 OpenBabel10262419383D

 31 34  0  0  1  0  0  0  0  0999 V2000
  190.7640  177.0570  146.5880 C   0  0  0  0  0  0  0  0  0  0  0  0
  187.9560  177.6430  144.0570 C   0  0  0  0  0  0  0  0  0  0  0  0
  186.7790  177.9640  144.7870 C   0  0  0  0  0  0  0  0  0  0  0  0
  185.5510  178.1580  146.8850 C   0  0  0  0  0  3  0  0  0  0  0  0
  189.2450  177.2030  144.6890 C   0  0  0  0  0  0  0  0  0  0  0  0
  191.7150  176.4190  145.7900 C   0  0  0  0  0  3  0  0  0  0  0  0
  186.7160  177.8440  146.1850 C   0  0  0  0  0  3  0  0  0  0  0  0
  189.1390  177.4240  141.8200 C   0  0  2  0  0  3  0  0  0  0  0  0
  191.0280  177.2970  147.8950 F   0  0  0  0  0  0  0  0  0  0  0  0
  185.6580  178.4930  142.7020 C   0  0  0  0  0  3  0  0  0  0  0  0
  184.4200  178.5950  146.1960 C   0  0  0  0  0  3  0  0  0  0  0  0
  189.9490  176.2900  142.4470 C   0  0  0  0  0  2  0  0  0  0  0  0
  187.9080  177.7240  142.6440 C   0  0  0  0  0  0  0  0  0  0  0  0
  189.5420  177.4490  146.0390 C   0  0  0  0  0  3  0  0  0  0  0  0
  183.2070  179.1840  144.1150 C   0  0  0  0  0  1  0  0  0  0  0  0
  190.2260  176.5810  143.8880 C   0  0  0  0  0  0  0  0  0  0  0  0
  191.4460  176.1790  144.4410 C   0  0  0  0  0  3  0  0  0  0  0  0
  186.7820  178.1650  142.0210 N   0  0  0  0  0  0  0  0  0  0  0  0
  185.6190  178.3960  144.0940 C   0  0  0  0  0  0  0  0  0  0  0  0
  184.4450  178.7170  144.8060 C   0  0  0  0  0  0  0  0  0  0  0  0
  189.0610  179.2190  139.5970 O   0  0  0  0  0  0  0  0  0  0  0  0
  188.7620  178.0120  139.3850 C   0  0  0  0  0  0  0  0  0  0  0  0
  188.7730  177.0650  140.4560 N   0  0  0  0  0  2  0  0  0  0  0  0
  188.5560  176.1610  137.9100 O   0  0  0  0  0  1  0  0  0  0  0  0
  188.4260  177.5490  138.0070 C   0  0  1  0  0  3  0  0  0  0  0  0
  187.0580  179.2770  137.0420 O   0  0  0  0  0  1  0  0  0  0  0  0
  187.0210  177.9990  137.6040 C   0  0  2  0  0  3  0  0  0  0  0  0
  186.0820  177.9960  138.8010 C   0  0  0  0  0  2  0  0  0  0  0  0
  184.8170  178.7160  138.4830 C   0  0  0  0  0  0  0  0  0  0  0  0
  183.9420  178.1650  137.7660 O   0  0  0  0  0  0  0  0  0  0  0  0
  184.5890  179.9830  139.0050 O   0  0  0  0  0  1  0  0  0  0  0  0
  1  9  1  0  0  0  0
  2  5  1  0  0  0  0
  2  3  1  0  0  0  0
  3  7  1  0  0  0  0
  5 14  2  0  0  0  0
  6  1  2  0  0  0  0
  7  4  2  0  0  0  0
  8 23  1  6  0  0  0
  8 12  1  0  0  0  0
  8 13  1  0  0  0  0
 10 19  1  0  0  0  0
 11  4  1  0  0  0  0
 12 16  1  0  0  0  0
 13  2  2  0  0  0  0
 14  1  1  0  0  0  0
 15 20  1  0  0  0  0
 16 17  2  0  0  0  0
 16  5  1  0  0  0  0
 17  6  1  0  0  0  0
 18 13  1  0  0  0  0
 18 10  2  0  0  0  0
 19  3  2  0  0  0  0
 19 20  1  0  0  0  0
 20 11  2  0  0  0  0
 22 21  2  0  0  0  0
 22 23  1  0  0  0  0
 25 24  1  1  0  0  0
 25 22  1  0  0  0  0
 27 26  1  1  0  0  0
 27 25  1  0  0  0  0
 27 28  1  0  0  0  0
 29 28  1  0  0  0  0
 29 31  1  0  0  0  0
 30 29  2  0  0  0  0
M  END
>  <MODEL>
3

>  <REMARK>
 VINA RESULT:     -10.6      1.555      2.119
  Name = 
  5 active torsions:
  status: ('A' for Active; 'I' for Inactive)
    1  A    between atoms: C_1  and  C_24
    2  A    between atoms: C_9  and  C_22
    3  A    between atoms: C_15  and  N_23
    4  A    between atoms: C_19  and  C_22
    5  A    between atoms: C_19  and  C_24
                            x       y       z     vdW  Elec       q    Type
                         _______ _______ _______ _____ _____    ______ ____

>  <TORSDO>
F 5

$$$$
=
 OpenBabel10262419383D

 31 34  0  0  1  0  0  0  0  0999 V2000
  185.1450  178.2560  143.0390 C   0  0  0  0  0  0  0  0  0  0  0  0
  188.8460  177.4320  143.5520 C   0  0  0  0  0  0  0  0  0  0  0  0
  189.0730  177.3280  144.9520 C   0  0  0  0  0  0  0  0  0  0  0  0
  188.3390  177.5920  147.2620 C   0  0  0  0  0  3  0  0  0  0  0  0
  187.5510  177.8850  142.9410 C   0  0  0  0  0  0  0  0  0  0  0  0
  185.1460  178.6760  141.7080 C   0  0  0  0  0  3  0  0  0  0  0  0
  188.0970  177.6960  145.8920 C   0  0  0  0  0  3  0  0  0  0  0  0
  189.7140  177.1720  141.1790 C   0  0  2  0  0  3  0  0  0  0  0  0
  183.9860  178.2310  143.7400 F   0  0  0  0  0  0  0  0  0  0  0  0
  191.3160  176.5200  144.5030 C   0  0  0  0  0  3  0  0  0  0  0  0
  189.5690  177.1210  147.7190 C   0  0  0  0  0  3  0  0  0  0  0  0
  188.8030  178.3390  140.8010 C   0  0  0  0  0  2  0  0  0  0  0  0
  189.9110  177.1080  142.6760 C   0  0  0  0  0  0  0  0  0  0  0  0
  186.3370  177.8600  143.6470 C   0  0  0  0  0  3  0  0  0  0  0  0
  191.8670  176.2620  147.3510 C   0  0  0  0  0  1  0  0  0  0  0  0
  187.5330  178.2870  141.5880 C   0  0  0  0  0  0  0  0  0  0  0  0
  186.3390  178.6930  140.9840 C   0  0  0  0  0  3  0  0  0  0  0  0
  191.0890  176.6450  143.1740 N   0  0  0  0  0  0  0  0  0  0  0  0
  190.3260  176.8630  145.4260 C   0  0  0  0  0  0  0  0  0  0  0  0
  190.5660  176.7550  146.8120 C   0  0  0  0  0  0  0  0  0  0  0  0
  190.5570  175.6470  138.9140 O   0  0  0  0  0  0  0  0  0  0  0  0
  191.3510  176.5200  139.3600 C   0  0  0  0  0  0  0  0  0  0  0  0
  190.9940  177.3110  140.4960 N   0  0  0  0  0  2  0  0  0  0  0  0
  193.6200  177.1780  139.6140 O   0  0  0  0  0  1  0  0  0  0  0  0
  192.6600  176.7630  138.6860 C   0  0  1  0  0  3  0  0  0  0  0  0
  194.4340  175.1840  138.2980 O   0  0  0  0  0  1  0  0  0  0  0  0
  193.1290  175.5190  137.9300 C   0  0  2  0  0  3  0  0  0  0  0  0
  193.0650  175.7380  136.4260 C   0  0  0  0  0  2  0  0  0  0  0  0
  194.4190  176.0350  135.8770 C   0  0  0  0  0  0  0  0  0  0  0  0
  195.0560  175.1440  135.2570 O   0  0  0  0  0  0  0  0  0  0  0  0
  194.9640  177.3040  136.0200 O   0  0  0  0  0  1  0  0  0  0  0  0
  1 14  1  0  0  0  0
  1  9  1  0  0  0  0
  2  3  1  0  0  0  0
  3 19  2  0  0  0  0
  3  7  1  0  0  0  0
  4 11  1  0  0  0  0
  5  2  1  0  0  0  0
  5 14  2  0  0  0  0
  6  1  2  0  0  0  0
  7  4  2  0  0  0  0
  8 23  1  6  0  0  0
  8 13  1  0  0  0  0
 10 19  1  0  0  0  0
 12  8  1  0  0  0  0
 12 16  1  0  0  0  0
 13 18  1  0  0  0  0
 13  2  2  0  0  0  0
 16  5  1  0  0  0  0
 17 16  2  0  0  0  0
 17  6  1  0  0  0  0
 18 10  2  0  0  0  0
 19 20  1  0  0  0  0
 20 15  1  0  0  0  0
 20 11  2  0  0  0  0
 21 22  2  0  0  0  0
 22 23  1  0  0  0  0
 25 22  1  0  0  0  0
 25 24  1  1  0  0  0
 27 26  1  1  0  0  0
 27 25  1  0  0  0  0
 28 27  1  0  0  0  0
 29 31  1  0  0  0  0
 29 28  1  0  0  0  0
 30 29  2  0  0  0  0
M  END
>  <MODEL>
4

>  <REMARK>
 VINA RESULT:     -10.4      2.605      5.164
  Name = 
  5 active torsions:
  status: ('A' for Active; 'I' for Inactive)
    1  A    between atoms: C_1  and  C_24
    2  A    between atoms: C_9  and  C_22
    3  A    between atoms: C_15  and  N_23
    4  A    between atoms: C_19  and  C_22
    5  A    between atoms: C_19  and  C_24
                            x       y       z     vdW  Elec       q    Type
                         _______ _______ _______ _____ _____    ______ ____

>  <TORSDO>
F 5

$$$$
=
 OpenBabel10262419383D

 31 34  0  0  1  0  0  0  0  0999 V2000
  190.6390  177.0500  146.7270 C   0  0  0  0  0  0  0  0  0  0  0  0
  188.0340  177.6240  143.9830 C   0  0  0  0  0  0  0  0  0  0  0  0
  186.8080  177.9600  144.6190 C   0  0  0  0  0  0  0  0  0  0  0  0
  185.4250  178.1860  146.6140 C   0  0  0  0  0  3  0  0  0  0  0  0
  189.2690  177.1840  144.7160 C   0  0  0  0  0  0  0  0  0  0  0  0
  191.6420  176.3970  146.0100 C   0  0  0  0  0  3  0  0  0  0  0  0
  186.6380  177.8570  146.0090 C   0  0  0  0  0  3  0  0  0  0  0  0
  189.3820  177.3720  141.8450 C   0  0  2  0  0  3  0  0  0  0  0  0
  190.8040  177.3030  148.0470 F   0  0  0  0  0  0  0  0  0  0  0  0
  185.8520  178.4730  142.4490 C   0  0  0  0  0  3  0  0  0  0  0  0
  184.3540  178.6220  145.8370 C   0  0  0  0  0  3  0  0  0  0  0  0
  190.1340  176.2400  142.5440 C   0  0  0  0  0  2  0  0  0  0  0  0
  188.0940  177.6890  142.5690 C   0  0  0  0  0  0  0  0  0  0  0  0
  189.4640  177.4430  146.0820 C   0  0  0  0  0  3  0  0  0  0  0  0
  183.3050  179.1940  143.6630 C   0  0  0  0  0  1  0  0  0  0  0  0
  190.3030  176.5460  143.9980 C   0  0  0  0  0  0  0  0  0  0  0  0
  191.4740  176.1430  144.6480 C   0  0  0  0  0  3  0  0  0  0  0  0
  187.0220  178.1290  141.8580 N   0  0  0  0  0  0  0  0  0  0  0  0
  185.7070  178.3920  143.8350 C   0  0  0  0  0  0  0  0  0  0  0  0
  184.4840  178.7280  144.4520 C   0  0  0  0  0  0  0  0  0  0  0  0
  191.2710  177.5010  139.7040 O   0  0  0  0  0  0  0  0  0  0  0  0
  190.1120  177.0790  139.4380 C   0  0  0  0  0  0  0  0  0  0  0  0
  189.1180  176.9990  140.4610 N   0  0  0  0  0  2  0  0  0  0  0  0
  189.1320  177.6480  137.3490 O   0  0  0  0  0  1  0  0  0  0  0  0
  189.7740  176.6270  138.0560 C   0  0  1  0  0  3  0  0  0  0  0  0
  190.8470  176.2640  135.9330 O   0  0  0  0  0  1  0  0  0  0  0  0
  191.0220  176.1460  137.3140 C   0  0  2  0  0  3  0  0  0  0  0  0
  191.3410  174.7000  137.6640 C   0  0  0  0  0  2  0  0  0  0  0  0
  190.5980  173.7640  136.7750 C   0  0  0  0  0  0  0  0  0  0  0  0
  191.2210  173.0710  135.9290 O   0  0  0  0  0  0  0  0  0  0  0  0
  189.2220  173.6310  136.9000 O   0  0  0  0  0  1  0  0  0  0  0  0
  1  9  1  0  0  0  0
  2  3  1  0  0  0  0
  2  5  1  0  0  0  0
  3  7  1  0  0  0  0
  5 14  2  0  0  0  0
  6  1  2  0  0  0  0
  7  4  2  0  0  0  0
  8 23  1  6  0  0  0
  8 12  1  0  0  0  0
  8 13  1  0  0  0  0
 10 19  1  0  0  0  0
 11  4  1  0  0  0  0
 12 16  1  0  0  0  0
 13  2  2  0  0  0  0
 14  1  1  0  0  0  0
 15 20  1  0  0  0  0
 16 17  2  0  0  0  0
 16  5  1  0  0  0  0
 17  6  1  0  0  0  0
 18 10  2  0  0  0  0
 18 13  1  0  0  0  0
 19 20  1  0  0  0  0
 19  3  2  0  0  0  0
 20 11  2  0  0  0  0
 22 21  2  0  0  0  0
 22 23  1  0  0  0  0
 25 24  1  6  0  0  0
 25 22  1  0  0  0  0
 27 26  1  6  0  0  0
 27 28  1  0  0  0  0
 27 25  1  0  0  0  0
 29 31  1  0  0  0  0
 29 28  1  0  0  0  0
 30 29  2  0  0  0  0
M  END
>  <MODEL>
5

>  <REMARK>
 VINA RESULT:     -10.0      1.212      2.289
  Name = 
  5 active torsions:
  status: ('A' for Active; 'I' for Inactive)
    1  A    between atoms: C_1  and  C_24
    2  A    between atoms: C_9  and  C_22
    3  A    between atoms: C_15  and  N_23
    4  A    between atoms: C_19  and  C_22
    5  A    between atoms: C_19  and  C_24
                            x       y       z     vdW  Elec       q    Type
                         _______ _______ _______ _____ _____    ______ ____

>  <TORSDO>
F 5

$$$$
=
 OpenBabel10262419383D

 31 34  0  0  1  0  0  0  0  0999 V2000
  190.8810  176.9400  146.0510 C   0  0  0  0  0  0  0  0  0  0  0  0
  187.9220  177.6500  143.7330 C   0  0  0  0  0  0  0  0  0  0  0  0
  186.7990  177.9530  144.5500 C   0  0  0  0  0  0  0  0  0  0  0  0
  185.7120  178.0790  146.7290 C   0  0  0  0  0  3  0  0  0  0  0  0
  189.2440  177.1740  144.2620 C   0  0  0  0  0  0  0  0  0  0  0  0
  191.7700  176.3240  145.1700 C   0  0  0  0  0  3  0  0  0  0  0  0
  186.8260  177.7810  145.9430 C   0  0  0  0  0  3  0  0  0  0  0  0
  188.9550  177.5050  141.4160 C   0  0  2  0  0  3  0  0  0  0  0  0
  191.2320  177.1270  147.3460 F   0  0  0  0  0  0  0  0  0  0  0  0
  185.5520  178.5730  142.5630 C   0  0  0  0  0  3  0  0  0  0  0  0
  184.5440  178.5530  146.1320 C   0  0  0  0  0  3  0  0  0  0  0  0
  189.7890  176.3400  141.9460 C   0  0  0  0  0  2  0  0  0  0  0  0
  187.7830  177.7850  142.3290 C   0  0  0  0  0  0  0  0  0  0  0  0
  189.6310  177.3650  145.5990 C   0  0  0  0  0  3  0  0  0  0  0  0
  183.2060  179.2320  144.1580 C   0  0  0  0  0  1  0  0  0  0  0  0
  190.1630  176.5730  143.3750 C   0  0  0  0  0  0  0  0  0  0  0  0
  191.4110  176.1390  143.8330 C   0  0  0  0  0  3  0  0  0  0  0  0
  186.6240  178.2600  141.7980 N   0  0  0  0  0  0  0  0  0  0  0  0
  185.6020  178.4230  143.9500 C   0  0  0  0  0  0  0  0  0  0  0  0
  184.4800  178.7280  144.7490 C   0  0  0  0  0  0  0  0  0  0  0  0
  189.1770  179.2450  139.1600 O   0  0  0  0  0  0  0  0  0  0  0  0
  188.6460  178.1160  138.9780 C   0  0  0  0  0  0  0  0  0  0  0  0
  188.4960  177.2020  140.0670 N   0  0  0  0  0  2  0  0  0  0  0  0
  189.0290  178.2580  136.6370 O   0  0  0  0  0  1  0  0  0  0  0  0
  188.1970  177.7050  137.6150 C   0  0  1  0  0  3  0  0  0  0  0  0
  189.3890  175.6730  137.1230 O   0  0  0  0  0  1  0  0  0  0  0  0
  188.1410  176.1820  137.4910 C   0  0  2  0  0  3  0  0  0  0  0  0
  187.0960  175.7560  136.4700 C   0  0  0  0  0  2  0  0  0  0  0  0
  186.1110  174.8190  137.0800 C   0  0  0  0  0  0  0  0  0  0  0  0
  186.4860  173.6910  137.4930 O   0  0  0  0  0  1  0  0  0  0  0  0
  184.7850  175.2040  137.2260 O   0  0  0  0  0  0  0  0  0  0  0  0
  1  9  1  0  0  0  0
  2  5  1  0  0  0  0
  2  3  1  0  0  0  0
  3  7  1  0  0  0  0
  5 14  2  0  0  0  0
  6  1  2  0  0  0  0
  7  4  2  0  0  0  0
  8 23  1  6  0  0  0
  8 12  1  0  0  0  0
  8 13  1  0  0  0  0
 10 19  1  0  0  0  0
 11  4  1  0  0  0  0
 12 16  1  0  0  0  0
 13  2  2  0  0  0  0
 14  1  1  0  0  0  0
 15 20  1  0  0  0  0
 16 17  2  0  0  0  0
 16  5  1  0  0  0  0
 17  6  1  0  0  0  0
 18 13  1  0  0  0  0
 18 10  2  0  0  0  0
 19  3  2  0  0  0  0
 19 20  1  0  0  0  0
 20 11  2  0  0  0  0
 22 21  2  0  0  0  0
 22 23  1  0  0  0  0
 25 24  1  6  0  0  0
 25 22  1  0  0  0  0
 27 26  1  6  0  0  0
 27 25  1  0  0  0  0
 28 29  1  0  0  0  0
 28 27  1  0  0  0  0
 29 31  2  0  0  0  0
 29 30  1  0  0  0  0
M  END
>  <MODEL>
6

>  <REMARK>
 VINA RESULT:     -10.0      1.515      2.310
  Name = 
  5 active torsions:
  status: ('A' for Active; 'I' for Inactive)
    1  A    between atoms: C_1  and  C_24
    2  A    between atoms: C_9  and  C_22
    3  A    between atoms: C_15  and  N_23
    4  A    between atoms: C_19  and  C_22
    5  A    between atoms: C_19  and  C_24
                            x       y       z     vdW  Elec       q    Type
                         _______ _______ _______ _____ _____    ______ ____

>  <TORSDO>
F 5

$$$$
=
 OpenBabel10262419383D

 31 34  0  0  1  0  0  0  0  0999 V2000
  187.4520  178.0000  146.8600 C   0  0  0  0  0  0  0  0  0  0  0  0
  186.1820  178.1730  143.2550 C   0  0  0  0  0  0  0  0  0  0  0  0
  184.7880  178.4460  143.3030 C   0  0  0  0  0  0  0  0  0  0  0  0
  182.6980  178.6860  144.5350 C   0  0  0  0  0  3  0  0  0  0  0  0
  187.0260  177.8870  144.4640 C   0  0  0  0  0  0  0  0  0  0  0  0
  188.6930  177.3880  146.6780 C   0  0  0  0  0  3  0  0  0  0  0  0
  184.0670  178.4210  144.5080 C   0  0  0  0  0  3  0  0  0  0  0  0
  188.3010  177.8950  141.8820 C   0  0  2  0  0  3  0  0  0  0  0  0
  187.0470  178.3520  148.1040 F   0  0  0  0  0  0  0  0  0  0  0  0
  184.7860  178.7340  140.8940 C   0  0  0  0  0  3  0  0  0  0  0  0
  182.0200  178.9790  143.3530 C   0  0  0  0  0  3  0  0  0  0  0  0
  188.7540  176.8790  142.9290 C   0  0  0  0  0  2  0  0  0  0  0  0
  186.8150  178.1500  141.9880 C   0  0  0  0  0  0  0  0  0  0  0  0
  186.6290  178.2510  145.7610 C   0  0  0  0  0  3  0  0  0  0  0  0
  181.9330  179.3170  140.8970 C   0  0  0  0  0  1  0  0  0  0  0  0
  188.2940  177.2920  144.2910 C   0  0  0  0  0  0  0  0  0  0  0  0
  189.1130  177.0320  145.3950 C   0  0  0  0  0  3  0  0  0  0  0  0
  186.1100  178.4510  140.8650 N   0  0  0  0  0  0  0  0  0  0  0  0
  184.0870  178.7320  142.1030 C   0  0  0  0  0  0  0  0  0  0  0  0
  182.7040  179.0040  142.1360 C   0  0  0  0  0  0  0  0  0  0  0  0
  190.9560  177.6130  140.8620 O   0  0  0  0  0  0  0  0  0  0  0  0
  190.0010  177.2860  140.1060 C   0  0  0  0  0  0  0  0  0  0  0  0
  188.6480  177.4110  140.5520 N   0  0  0  0  0  2  0  0  0  0  0  0
  190.9110  175.4920  138.8410 O   0  0  0  0  0  1  0  0  0  0  0  0
  190.2710  176.7310  138.7470 C   0  0  1  0  0  3  0  0  0  0  0  0
  188.8880  175.3680  137.3260 O   0  0  0  0  0  1  0  0  0  0  0  0
  188.9820  176.6240  137.9310 C   0  0  2  0  0  3  0  0  0  0  0  0
  188.9180  177.7080  136.8660 C   0  0  0  0  0  2  0  0  0  0  0  0
  187.5910  178.3850  136.8790 C   0  0  0  0  0  0  0  0  0  0  0  0
  187.5250  179.6410  136.8370 O   0  0  0  0  0  0  0  0  0  0  0  0
  186.4260  177.6310  136.9050 O   0  0  0  0  0  1  0  0  0  0  0  0
  1  9  1  0  0  0  0
  2  3  1  0  0  0  0
  2  5  1  0  0  0  0
  3  7  1  0  0  0  0
  5 14  1  0  0  0  0
  6  1  1  0  0  0  0
  7  4  2  0  0  0  0
  8 23  1  6  0  0  0
  8 13  1  0  0  0  0
  8 12  1  0  0  0  0
 10 19  1  0  0  0  0
 11  4  1  0  0  0  0
 12 16  1  0  0  0  0
 13  2  2  0  0  0  0
 14  1  2  0  0  0  0
 15 20  1  0  0  0  0
 16  5  2  0  0  0  0
 16 17  1  0  0  0  0
 17  6  2  0  0  0  0
 18 10  2  0  0  0  0
 18 13  1  0  0  0  0
 19 20  1  0  0  0  0
 19  3  2  0  0  0  0
 20 11  2  0  0  0  0
 22 23  1  0  0  0  0
 22 21  2  0  0  0  0
 25 24  1  1  0  0  0
 25 22  1  0  0  0  0
 27 26  1  6  0  0  0
 27 25  1  0  0  0  0
 28 29  1  0  0  0  0
 28 27  1  0  0  0  0
 29 31  1  0  0  0  0
 30 29  2  0  0  0  0
M  END
>  <MODEL>
7

>  <REMARK>
 VINA RESULT:      -9.7      1.452      2.304
  Name = 
  5 active torsions:
  status: ('A' for Active; 'I' for Inactive)
    1  A    between atoms: C_1  and  C_24
    2  A    between atoms: C_9  and  C_22
    3  A    between atoms: C_15  and  N_23
    4  A    between atoms: C_19  and  C_22
    5  A    between atoms: C_19  and  C_24
                            x       y       z     vdW  Elec       q    Type
                         _______ _______ _______ _____ _____    ______ ____

>  <TORSDO>
F 5

$$$$
=
 OpenBabel10262419383D

 31 34  0  0  1  0  0  0  0  0999 V2000
  183.9410  178.6280  144.2120 C   0  0  0  0  0  0  0  0  0  0  0  0
  187.6670  177.7640  144.0970 C   0  0  0  0  0  0  0  0  0  0  0  0
  188.1300  177.6790  145.4390 C   0  0  0  0  0  0  0  0  0  0  0  0
  187.8070  177.9880  147.8360 C   0  0  0  0  0  3  0  0  0  0  0  0
  186.2910  178.2240  143.7090 C   0  0  0  0  0  0  0  0  0  0  0  0
  183.7190  179.0270  142.8930 C   0  0  0  0  0  3  0  0  0  0  0  0
  187.3330  178.0730  146.5260 C   0  0  0  0  0  3  0  0  0  0  0  0
  188.1120  177.4540  141.6160 C   0  0  2  0  0  3  0  0  0  0  0  0
  182.9200  178.6300  145.1020 F   0  0  0  0  0  0  0  0  0  0  0  0
  190.2540  176.8340  144.6270 C   0  0  0  0  0  3  0  0  0  0  0  0
  189.0920  177.5080  148.0830 C   0  0  0  0  0  3  0  0  0  0  0  0
  187.1620  178.6270  141.3780 C   0  0  0  0  0  2  0  0  0  0  0  0
  188.5630  177.4120  143.0580 C   0  0  0  0  0  0  0  0  0  0  0  0
  185.2170  178.2260  144.6140 C   0  0  0  0  0  3  0  0  0  0  0  0
  191.2830  176.6140  147.3420 C   0  0  0  0  0  1  0  0  0  0  0  0
  186.0460  178.6040  142.3730 C   0  0  0  0  0  0  0  0  0  0  0  0
  184.7700  179.0170  141.9750 C   0  0  0  0  0  3  0  0  0  0  0  0
  189.8040  176.9410  143.3540 N   0  0  0  0  0  0  0  0  0  0  0  0
  189.4420  177.2040  145.7000 C   0  0  0  0  0  0  0  0  0  0  0  0
  189.9140  177.1150  147.0250 C   0  0  0  0  0  0  0  0  0  0  0  0
  188.1240  176.7530  138.8450 O   0  0  0  0  0  0  0  0  0  0  0  0
  189.1930  177.2050  139.3390 C   0  0  0  0  0  0  0  0  0  0  0  0
  189.2570  177.5660  140.7210 N   0  0  0  0  0  2  0  0  0  0  0  0
  191.5250  176.8290  139.0760 O   0  0  0  0  0  1  0  0  0  0  0  0
  190.3980  177.4000  138.4790 C   0  0  1  0  0  3  0  0  0  0  0  0
  191.3610  176.3190  136.5570 O   0  0  0  0  0  1  0  0  0  0  0  0
  190.1700  176.8310  137.0780 C   0  0  2  0  0  3  0  0  0  0  0  0
  189.6200  177.8950  136.1390 C   0  0  0  0  0  2  0  0  0  0  0  0
  188.2900  177.4900  135.6020 C   0  0  0  0  0  0  0  0  0  0  0  0
  187.2800  178.2090  135.8150 O   0  0  0  0  0  1  0  0  0  0  0  0
  188.1710  176.3360  134.8390 O   0  0  0  0  0  0  0  0  0  0  0  0
  1 14  1  0  0  0  0
  1  9  1  0  0  0  0
  2  3  1  0  0  0  0
  3 19  2  0  0  0  0
  3  7  1  0  0  0  0
  4 11  1  0  0  0  0
  5  2  1  0  0  0  0
  5 14  2  0  0  0  0
  6  1  2  0  0  0  0
  7  4  2  0  0  0  0
  8 23  1  6  0  0  0
  8 13  1  0  0  0  0
 10 19  1  0  0  0  0
 12  8  1  0  0  0  0
 12 16  1  0  0  0  0
 13 18  1  0  0  0  0
 13  2  2  0  0  0  0
 16  5  1  0  0  0  0
 17 16  2  0  0  0  0
 17  6  1  0  0  0  0
 18 10  2  0  0  0  0
 19 20  1  0  0  0  0
 20 15  1  0  0  0  0
 20 11  2  0  0  0  0
 21 22  2  0  0  0  0
 22 23  1  0  0  0  0
 25 24  1  1  0  0  0
 25 22  1  0  0  0  0
 27 26  1  6  0  0  0
 27 25  1  0  0  0  0
 28 27  1  0  0  0  0
 29 30  1  0  0  0  0
 29 28  1  0  0  0  0
 31 29  2  0  0  0  0
M  END
>  <MODEL>
8

>  <REMARK>
 VINA RESULT:      -9.6      2.053      4.548
  Name = 
  5 active torsions:
  status: ('A' for Active; 'I' for Inactive)
    1  A    between atoms: C_1  and  C_24
    2  A    between atoms: C_9  and  C_22
    3  A    between atoms: C_15  and  N_23
    4  A    between atoms: C_19  and  C_22
    5  A    between atoms: C_19  and  C_24
                            x       y       z     vdW  Elec       q    Type
                         _______ _______ _______ _____ _____    ______ ____

>  <TORSDO>
F 5

$$$$
=
 OpenBabel10262419383D

 31 34  0  0  1  0  0  0  0  0999 V2000
  186.7150  177.8260  147.1300 C   0  0  0  0  0  0  0  0  0  0  0  0
  187.7010  178.0620  143.4410 C   0  0  0  0  0  0  0  0  0  0  0  0
  189.1040  177.8500  143.3560 C   0  0  0  0  0  0  0  0  0  0  0  0
  191.2930  177.5890  144.3980 C   0  0  0  0  0  3  0  0  0  0  0  0
  186.9450  178.1910  144.7320 C   0  0  0  0  0  0  0  0  0  0  0  0
  185.4410  178.3950  147.1040 C   0  0  0  0  0  3  0  0  0  0  0  0
  189.9170  177.7920  144.5000 C   0  0  0  0  0  3  0  0  0  0  0  0
  185.4710  178.3740  142.2650 C   0  0  2  0  0  3  0  0  0  0  0  0
  187.2310  177.3740  148.2980 F   0  0  0  0  0  0  0  0  0  0  0  0
  188.9270  177.7980  140.9380 C   0  0  0  0  0  3  0  0  0  0  0  0
  191.8860  177.4430  143.1440 C   0  0  0  0  0  3  0  0  0  0  0  0
  185.0640  179.2620  143.4400 C   0  0  0  0  0  2  0  0  0  0  0  0
  186.9690  178.1790  142.2330 C   0  0  0  0  0  0  0  0  0  0  0  0
  187.4580  177.7210  145.9520 C   0  0  0  0  0  3  0  0  0  0  0  0
  191.7920  177.3490  140.6680 C   0  0  0  0  0  1  0  0  0  0  0  0
  185.6460  178.7400  144.7150 C   0  0  0  0  0  0  0  0  0  0  0  0
  184.9080  178.8540  145.8980 C   0  0  0  0  0  3  0  0  0  0  0  0
  187.5940  178.0210  141.0360 N   0  0  0  0  0  0  0  0  0  0  0  0
  189.7180  177.7150  142.0840 C   0  0  0  0  0  0  0  0  0  0  0  0
  191.1090  177.5050  141.9860 C   0  0  0  0  0  0  0  0  0  0  0  0
  182.9640  177.8230  141.0090 O   0  0  0  0  0  0  0  0  0  0  0  0
  183.7290  178.6550  140.4480 C   0  0  0  0  0  0  0  0  0  0  0  0
  185.0010  178.9680  141.0200 N   0  0  0  0  0  2  0  0  0  0  0  0
  184.0940  180.4760  138.9670 O   0  0  0  0  0  1  0  0  0  0  0  0
  183.3020  179.3480  139.1970 C   0  0  1  0  0  3  0  0  0  0  0  0
  182.1280  177.7120  137.8800 O   0  0  0  0  0  1  0  0  0  0  0  0
  183.3400  178.3960  138.0010 C   0  0  2  0  0  3  0  0  0  0  0  0
  184.4780  177.3960  138.1350 C   0  0  0  0  0  2  0  0  0  0  0  0
  185.6410  177.8020  137.2960 C   0  0  0  0  0  0  0  0  0  0  0  0
  185.7210  177.4150  136.1020 O   0  0  0  0  0  0  0  0  0  0  0  0
  186.6200  178.6350  137.8220 O   0  0  0  0  0  1  0  0  0  0  0  0
  1  9  1  0  0  0  0
  2  5  1  0  0  0  0
  3  2  1  0  0  0  0
  3  7  1  0  0  0  0
  4  7  2  0  0  0  0
  5 14  1  0  0  0  0
  6  1  1  0  0  0  0
  8 23  1  6  0  0  0
  8 12  1  0  0  0  0
 10 18  2  0  0  0  0
 10 19  1  0  0  0  0
 11  4  1  0  0  0  0
 12 16  1  0  0  0  0
 13  8  1  0  0  0  0
 13  2  2  0  0  0  0
 14  1  2  0  0  0  0
 15 20  1  0  0  0  0
 16  5  2  0  0  0  0
 16 17  1  0  0  0  0
 17  6  2  0  0  0  0
 18 13  1  0  0  0  0
 19  3  2  0  0  0  0
 20 19  1  0  0  0  0
 20 11  2  0  0  0  0
 22 21  2  0  0  0  0
 22 23  1  0  0  0  0
 25 24  1  6  0  0  0
 25 22  1  0  0  0  0
 27 26  1  1  0  0  0
 27 28  1  0  0  0  0
 27 25  1  0  0  0  0
 29 31  1  0  0  0  0
 29 28  1  0  0  0  0
 30 29  2  0  0  0  0
M  END
>  <MODEL>
9

>  <REMARK>
 VINA RESULT:      -9.4      2.677      5.535
  Name = 
  5 active torsions:
  status: ('A' for Active; 'I' for Inactive)
    1  A    between atoms: C_1  and  C_24
    2  A    between atoms: C_9  and  C_22
    3  A    between atoms: C_15  and  N_23
    4  A    between atoms: C_19  and  C_22
    5  A    between atoms: C_19  and  C_24
                            x       y       z     vdW  Elec       q    Type
                         _______ _______ _______ _____ _____    ______ ____

>  <TORSDO>
F 5

$$$$
