=
 OpenBabel10262420363D

 55 61  0  0  1  0  0  0  0  0999 V2000
  189.8870  177.2240  140.6080 C   0  0  0  0  0  3  0  0  0  0  0  0
  189.3810  178.4230  138.0920 C   0  0  1  0  0  3  0  0  0  0  0  0
  188.2270  178.3670  139.0900 C   0  0  0  0  0  2  0  0  0  0  0  0
  190.5980  176.7980  139.5610 C   0  0  0  0  0  3  0  0  0  0  0  0
  188.7310  178.0600  140.4250 N   0  0  0  0  0  0  0  0  0  0  0  0
  190.1880  177.1230  138.1510 C   0  0  0  0  0  2  0  0  0  0  0  0
  188.8730  178.7140  136.6810 C   0  0  0  0  0  2  0  0  0  0  0  0
  187.3510  178.7640  136.6080 C   0  0  0  0  0  2  0  0  0  0  0  0
  186.8500  178.0330  135.3700 C   0  0  0  0  0  2  0  0  0  0  0  0
  185.8930  176.9060  135.7340 C   0  0  0  0  0  2  0  0  0  0  0  0
  185.2470  177.1650  137.0810 C   0  0  0  0  0  2  0  0  0  0  0  0
  183.8150  177.3790  136.8950 N   0  0  0  0  0  2  0  0  0  0  0  0
  180.5450  176.7570  139.3180 C   0  0  2  0  0  0  0  0  0  0  0  0
  180.2520  173.8640  138.6590 O   0  0  0  0  0  1  0  0  0  0  0  0
  182.3810  175.9520  138.3860 C   0  0  2  0  0  0  0  0  0  0  0  0
  183.9740  177.5570  139.2300 F   0  0  0  0  0  0  0  0  0  0  0  0
  181.4880  176.1180  136.0140 O   0  0  0  0  0  1  0  0  0  0  0  0
  181.3000  175.6720  137.3280 C   0  0  2  0  0  0  0  0  0  0  0  0
  183.0990  177.3240  138.1760 C   0  0  1  0  0  0  0  0  0  0  0  0
  180.9400  178.2440  139.2320 C   0  0  0  0  0  2  0  0  0  0  0  0
  180.0320  176.2260  137.9760 C   0  0  1  0  0  0  0  0  0  0  0  0
  179.5030  176.5610  140.4040 C   0  0  0  0  0  1  0  0  0  0  0  0
  180.1120  174.7540  137.5880 C   0  0  2  0  0  0  0  0  0  0  0  0
  182.0510  178.4560  138.1830 C   0  0  0  0  0  2  0  0  0  0  0  0
  183.3010  174.9020  138.4190 O   0  0  0  0  0  1  0  0  0  0  0  0
  179.3230  177.0890  137.1310 O   0  0  0  0  0  1  0  0  0  0  0  0
  181.7070  176.0240  139.6220 O   0  0  0  0  0  0  0  0  0  0  0  0
  179.2740  174.3020  136.4000 C   0  0  0  0  0  2  0  0  0  0  0  0
  179.6710  173.0260  135.9980 O   0  0  0  0  0  1  0  0  0  0  0  0
  188.0350  178.6120  141.5770 C   0  0  0  0  0  2  0  0  0  0  0  0
  187.1150  177.5650  142.1850 C   0  0  0  0  0  2  0  0  0  0  0  0
  189.0740  176.9470  146.7240 C   0  0  0  0  0  2  0  0  0  0  0  0
  184.2000  177.7980  142.5030 C   0  0  0  0  0  2  0  0  0  0  0  0
  187.9070  177.8660  148.7440 C   0  0  0  0  0  2  0  0  0  0  0  0
  187.1660  178.6010  146.3960 C   0  0  1  0  0  3  0  0  0  0  0  0
  186.7440  178.2790  147.8320 C   0  0  0  0  0  2  0  0  0  0  0  0
  189.2430  177.7330  148.0210 C   0  0  0  0  0  2  0  0  0  0  0  0
  188.0560  177.5560  145.8610 N   0  0  0  0  0  0  0  0  0  0  0  0
  185.8920  178.3930  144.3220 C   0  0  0  0  0  0  0  0  0  0  0  0
  183.6450  179.5340  144.0890 C   0  0  0  0  0  2  0  0  0  0  0  0
  185.9690  178.7490  145.5710 N   0  0  0  0  0  0  0  0  0  0  0  0
  182.4900  179.4200  143.1150 C   0  0  1  0  0  3  0  0  0  0  0  0
  188.0830  177.3070  144.4420 C   0  0  0  0  0  0  0  0  0  0  0  0
  182.7470  178.1680  142.2840 C   0  0  0  0  0  2  0  0  0  0  0  0
  187.0580  177.7270  143.6750 C   0  0  0  0  0  0  0  0  0  0  0  0
  184.6580  178.6100  143.6150 N   0  0  0  0  0  0  0  0  0  0  0  0
  189.2620  176.5960  143.8300 C   0  0  0  0  0  2  0  0  0  0  0  0
  190.6430  178.5420  143.7570 O   0  0  0  0  0  1  0  0  0  0  0  0
  190.5780  177.2390  144.2500 C   0  0  2  0  0  3  0  0  0  0  0  0
  191.7720  176.4390  143.7490 C   0  0  0  0  0  2  0  0  0  0  0  0
  192.2810  176.9920  142.5870 F   0  0  0  0  0  0  0  0  0  0  0  0
  181.1810  179.3000  143.8810 C   0  0  0  0  0  2  0  0  0  0  0  0
  180.0160  179.5260  142.9780 C   0  0  0  0  0  0  0  0  0  0  0  0
  179.0120  178.7670  143.0390 O   0  0  0  0  0  1  0  0  0  0  0  0
  180.0240  180.5930  142.0890 O   0  0  0  0  0  0  0  0  0  0  0  0
  2  7  1  6  0  0  0
  2  6  1  0  0  0  0
  2  3  1  0  0  0  0
  3  5  1  0  0  0  0
  4  1  2  0  0  0  0
  5  1  1  0  0  0  0
  5 30  1  0  0  0  0
  6  4  1  0  0  0  0
  8  7  1  0  0  0  0
  9 10  1  0  0  0  0
  9  8  1  0  0  0  0
 10 11  1  0  0  0  0
 12 11  1  0  0  0  0
 12 19  1  0  0  0  0
 13 27  1  0  0  0  0
 13 22  1  1  0  0  0
 15 25  1  1  0  0  0
 15 27  1  0  0  0  0
 18 17  1  6  0  0  0
 18 23  1  0  0  0  0
 18 21  1  0  0  0  0
 18 15  1  0  0  0  0
 19 24  1  0  0  0  0
 19 15  1  0  0  0  0
 19 16  1  1  0  0  0
 20 13  1  0  0  0  0
 21 26  1  6  0  0  0
 21 13  1  0  0  0  0
 23 21  1  0  0  0  0
 23 14  1  1  0  0  0
 24 20  1  0  0  0  0
 28 23  1  0  0  0  0
 29 28  1  0  0  0  0
 30 31  1  0  0  0  0
 31 45  1  0  0  0  0
 32 37  1  0  0  0  0
 33 46  1  0  0  0  0
 35 36  1  1  0  0  0
 36 34  1  0  0  0  0
 37 34  1  0  0  0  0
 38 35  1  0  0  0  0
 38 32  1  0  0  0  0
 39 41  2  0  0  0  0
 41 35  1  0  0  0  0
 42 52  1  1  0  0  0
 42 40  1  0  0  0  0
 43 38  1  0  0  0  0
 44 33  1  0  0  0  0
 44 42  1  0  0  0  0
 45 39  1  0  0  0  0
 45 43  2  0  0  0  0
 46 40  1  0  0  0  0
 46 39  1  0  0  0  0
 47 49  1  0  0  0  0
 47 43  1  0  0  0  0
 49 48  1  6  0  0  0
 50 49  1  0  0  0  0
 51 50  1  0  0  0  0
 53 54  1  0  0  0  0
 53 52  1  0  0  0  0
 55 53  2  0  0  0  0
M  END
>  <MODEL>
1

>  <REMARK>
 VINA RESULT:      -7.9      0.000      0.000
  Name = 
  16 active torsions:
  status: ('A' for Active; 'I' for Inactive)
    1  A    between atoms: C_2  and  C_28
    2  A    between atoms: C_2  and  N_44
    3  A    between atoms: C_4  and  C_40
    4  A    between atoms: C_8  and  N_22
    5  A    between atoms: C_8  and  C_43
    6  A    between atoms: C_10  and  C_32
    7  A    between atoms: C_11  and  C_38
    8  A    between atoms: C_19  and  C_40
    9  A    between atoms: C_19  and  C_45
   10  A    between atoms: C_20  and  N_22
   11  A    between atoms: C_27  and  C_54
   12  A    between atoms: C_28  and  C_49
   13  A    between atoms: C_32  and  C_39
   14  A    between atoms: C_35  and  C_43
   15  A    between atoms: C_35  and  C_51
   16  A    between atoms: C_51  and  C_54
                            x       y       z     vdW  Elec       q    Type
                         _______ _______ _______ _____ _____    ______ ____

>  <TORSDO>
F 16

$$$$
=
 OpenBabel10262420363D

 55 61  0  0  1  0  0  0  0  0999 V2000
  187.9450  177.4440  145.1520 C   0  0  0  0  0  3  0  0  0  0  0  0
  190.3820  178.1170  143.8750 C   0  0  1  0  0  3  0  0  0  0  0  0
  189.3260  177.3940  143.0410 C   0  0  0  0  0  2  0  0  0  0  0  0
  189.0440  177.5160  145.9060 C   0  0  0  0  0  3  0  0  0  0  0  0
  188.0330  177.4410  143.7170 N   0  0  0  0  0  0  0  0  0  0  0  0
  190.4170  177.5380  145.2920 C   0  0  0  0  0  2  0  0  0  0  0  0
  191.7510  178.0540  143.2010 C   0  0  0  0  0  2  0  0  0  0  0  0
  191.8340  176.9520  142.1500 C   0  0  0  0  0  2  0  0  0  0  0  0
  192.0020  177.5490  140.7590 C   0  0  0  0  0  2  0  0  0  0  0  0
  193.3270  177.1430  140.1310 C   0  0  0  0  0  2  0  0  0  0  0  0
  193.1070  176.5370  138.7580 C   0  0  0  0  0  2  0  0  0  0  0  0
  194.3320  175.8730  138.3240 N   0  0  0  0  0  2  0  0  0  0  0  0
  195.1720  172.7930  135.7240 C   0  0  2  0  0  0  0  0  0  0  0  0
  197.3830  171.6400  137.3590 O   0  0  0  0  0  1  0  0  0  0  0  0
  195.1130  173.5420  137.8030 C   0  0  2  0  0  0  0  0  0  0  0  0
  192.7820  174.1570  137.9240 F   0  0  0  0  0  0  0  0  0  0  0  0
  196.9120  175.2970  137.4320 O   0  0  0  0  0  1  0  0  0  0  0  0
  196.5140  173.9590  137.3210 C   0  0  2  0  0  0  0  0  0  0  0  0
  194.0340  174.6480  137.5710 C   0  0  1  0  0  0  0  0  0  0  0  0
  194.1410  173.7840  135.1500 C   0  0  0  0  0  2  0  0  0  0  0  0
  196.5530  173.4370  135.8860 C   0  0  1  0  0  0  0  0  0  0  0  0
  195.2570  171.5630  134.8390 C   0  0  0  0  0  1  0  0  0  0  0  0
  197.5760  172.9490  136.9050 C   0  0  2  0  0  0  0  0  0  0  0  0
  193.9860  175.0100  136.0720 C   0  0  0  0  0  2  0  0  0  0  0  0
  195.1650  173.1620  139.1460 O   0  0  0  0  0  1  0  0  0  0  0  0
  196.9580  174.4120  134.9640 O   0  0  0  0  0  1  0  0  0  0  0  0
  194.7440  172.4330  137.0160 O   0  0  0  0  0  0  0  0  0  0  0  0
  199.0090  173.4350  136.7370 C   0  0  0  0  0  2  0  0  0  0  0  0
  199.1090  174.7650  137.1510 O   0  0  0  0  0  1  0  0  0  0  0  0
  186.8250  177.4790  142.9070 C   0  0  0  0  0  2  0  0  0  0  0  0
  186.9420  178.5590  141.8420 C   0  0  0  0  0  2  0  0  0  0  0  0
  182.0480  178.1260  141.0130 C   0  0  0  0  0  2  0  0  0  0  0  0
  188.3330  177.6690  139.4090 C   0  0  0  0  0  2  0  0  0  0  0  0
  181.1370  178.2910  138.6830 C   0  0  0  0  0  2  0  0  0  0  0  0
  183.5620  178.9970  139.1610 C   0  0  1  0  0  3  0  0  0  0  0  0
  182.5820  178.3630  138.1690 C   0  0  0  0  0  2  0  0  0  0  0  0
  180.9720  178.7480  140.1280 C   0  0  0  0  0  2  0  0  0  0  0  0
  183.3920  178.4260  140.5070 N   0  0  0  0  0  0  0  0  0  0  0  0
  185.9570  178.6040  139.4390 C   0  0  0  0  0  0  0  0  0  0  0  0
  187.5260  178.8660  137.4710 C   0  0  0  0  0  2  0  0  0  0  0  0
  184.9250  178.8020  138.6710 N   0  0  0  0  0  0  0  0  0  0  0  0
  188.9610  178.4630  137.1930 C   0  0  1  0  0  3  0  0  0  0  0  0
  184.5170  178.3870  141.4070 C   0  0  0  0  0  0  0  0  0  0  0  0
  189.3650  177.5080  138.3100 C   0  0  0  0  0  2  0  0  0  0  0  0
  185.7650  178.4980  140.9130 C   0  0  0  0  0  0  0  0  0  0  0  0
  187.2510  178.4440  138.8310 N   0  0  0  0  0  0  0  0  0  0  0  0
  184.2850  178.2400  142.8880 C   0  0  0  0  0  2  0  0  0  0  0  0
  184.9080  180.2900  143.9410 O   0  0  0  0  0  1  0  0  0  0  0  0
  183.8090  179.5480  143.5090 C   0  0  2  0  0  3  0  0  0  0  0  0
  182.8640  179.2980  144.6760 C   0  0  0  0  0  2  0  0  0  0  0  0
  181.7770  178.5420  144.2730 F   0  0  0  0  0  0  0  0  0  0  0  0
  189.0480  177.7770  135.8380 C   0  0  0  0  0  2  0  0  0  0  0  0
  189.4050  176.3380  135.9950 C   0  0  0  0  0  0  0  0  0  0  0  0
  188.4990  175.4620  136.0290 O   0  0  0  0  0  0  0  0  0  0  0  0
  190.7380  175.9580  136.0740 O   0  0  0  0  0  1  0  0  0  0  0  0
  1  4  2  0  0  0  0
  2  7  1  6  0  0  0
  2  6  1  0  0  0  0
  3  5  1  0  0  0  0
  3  2  1  0  0  0  0
  5  1  1  0  0  0  0
  6  4  1  0  0  0  0
  8  7  1  0  0  0  0
  9  8  1  0  0  0  0
 10  9  1  0  0  0  0
 11 10  1  0  0  0  0
 12 11  1  0  0  0  0
 13 22  1  6  0  0  0
 13 21  1  0  0  0  0
 13 27  1  0  0  0  0
 15 25  1  1  0  0  0
 18 17  1  1  0  0  0
 18 15  1  0  0  0  0
 19 15  1  0  0  0  0
 19 16  1  1  0  0  0
 19 12  1  0  0  0  0
 20 13  1  0  0  0  0
 20 24  1  0  0  0  0
 21 26  1  6  0  0  0
 21 23  1  0  0  0  0
 21 18  1  0  0  0  0
 23 18  1  0  0  0  0
 23 14  1  1  0  0  0
 24 19  1  0  0  0  0
 27 15  1  0  0  0  0
 28 23  1  0  0  0  0
 28 29  1  0  0  0  0
 30  5  1  0  0  0  0
 31 30  1  0  0  0  0
 34 37  1  0  0  0  0
 35 36  1  6  0  0  0
 35 38  1  0  0  0  0
 36 34  1  0  0  0  0
 37 32  1  0  0  0  0
 38 32  1  0  0  0  0
 38 43  1  0  0  0  0
 39 45  1  0  0  0  0
 40 46  1  0  0  0  0
 41 35  1  0  0  0  0
 41 39  2  0  0  0  0
 42 52  1  6  0  0  0
 42 40  1  0  0  0  0
 42 44  1  0  0  0  0
 43 47  1  0  0  0  0
 44 33  1  0  0  0  0
 45 43  2  0  0  0  0
 45 31  1  0  0  0  0
 46 33  1  0  0  0  0
 46 39  1  0  0  0  0
 47 49  1  0  0  0  0
 49 48  1  1  0  0  0
 49 50  1  0  0  0  0
 51 50  1  0  0  0  0
 52 53  1  0  0  0  0
 53 54  2  0  0  0  0
 53 55  1  0  0  0  0
M  END
>  <MODEL>
2

>  <REMARK>
 VINA RESULT:      -6.5      5.169     10.931
  Name = 
  16 active torsions:
  status: ('A' for Active; 'I' for Inactive)
    1  A    between atoms: C_2  and  C_28
    2  A    between atoms: C_2  and  N_44
    3  A    between atoms: C_4  and  C_40
    4  A    between atoms: C_8  and  N_22
    5  A    between atoms: C_8  and  C_43
    6  A    between atoms: C_10  and  C_32
    7  A    between atoms: C_11  and  C_38
    8  A    between atoms: C_19  and  C_40
    9  A    between atoms: C_19  and  C_45
   10  A    between atoms: C_20  and  N_22
   11  A    between atoms: C_27  and  C_54
   12  A    between atoms: C_28  and  C_49
   13  A    between atoms: C_32  and  C_39
   14  A    between atoms: C_35  and  C_43
   15  A    between atoms: C_35  and  C_51
   16  A    between atoms: C_51  and  C_54
                            x       y       z     vdW  Elec       q    Type
                         _______ _______ _______ _____ _____    ______ ____

>  <TORSDO>
F 16

$$$$
=
 OpenBabel10262420363D

 55 61  0  0  1  0  0  0  0  0999 V2000
  185.6210  178.9590  139.2910 C   0  0  0  0  0  3  0  0  0  0  0  0
  185.4400  179.2120  142.1070 C   0  0  1  0  0  3  0  0  0  0  0  0
  186.5020  178.2660  141.5520 C   0  0  0  0  0  2  0  0  0  0  0  0
  184.4310  179.2620  139.8140 C   0  0  0  0  0  3  0  0  0  0  0  0
  186.7040  178.5160  140.1280 N   0  0  0  0  0  0  0  0  0  0  0  0
  184.1540  179.0970  141.2830 C   0  0  0  0  0  2  0  0  0  0  0  0
  185.1900  178.9470  143.5910 C   0  0  0  0  0  2  0  0  0  0  0  0
  183.9650  179.6860  144.1170 C   0  0  0  0  0  2  0  0  0  0  0  0
  182.7670  178.7500  144.1940 C   0  0  0  0  0  2  0  0  0  0  0  0
  181.5060  179.4070  143.6480 C   0  0  0  0  0  2  0  0  0  0  0  0
  180.5610  178.3650  143.0800 C   0  0  0  0  0  2  0  0  0  0  0  0
  181.0780  177.8950  141.7990 N   0  0  0  0  0  2  0  0  0  0  0  0
  179.7860  177.9070  137.8900 C   0  0  2  0  0  0  0  0  0  0  0  0
  179.8070  174.9420  137.5770 O   0  0  0  0  0  1  0  0  0  0  0  0
  179.8490  176.8890  139.8510 C   0  0  2  0  0  0  0  0  0  0  0  0
  178.9310  178.6480  141.2250 F   0  0  0  0  0  0  0  0  0  0  0  0
  182.3520  176.4620  139.7730 O   0  0  0  0  0  1  0  0  0  0  0  0
  181.1060  176.3570  139.1410 C   0  0  2  0  0  0  0  0  0  0  0  0
  180.1270  178.1630  140.7120 C   0  0  1  0  0  0  0  0  0  0  0  0
  180.0840  179.3240  138.4160 C   0  0  0  0  0  2  0  0  0  0  0  0
  181.0580  177.0600  137.7850 C   0  0  1  0  0  0  0  0  0  0  0  0
  179.0880  177.9900  136.5440 C   0  0  0  0  0  1  0  0  0  0  0  0
  181.0420  175.5370  137.8580 C   0  0  2  0  0  0  0  0  0  0  0  0
  180.7290  179.2650  139.8150 C   0  0  0  0  0  2  0  0  0  0  0  0
  179.2720  175.8770  140.6210 O   0  0  0  0  0  1  0  0  0  0  0  0
  182.2660  177.6880  137.4560 O   0  0  0  0  0  1  0  0  0  0  0  0
  178.9550  177.2690  138.8300 O   0  0  0  0  0  0  0  0  0  0  0  0
  182.2980  174.8070  137.4040 C   0  0  0  0  0  2  0  0  0  0  0  0
  181.9470  173.6510  136.7050 O   0  0  0  0  0  1  0  0  0  0  0  0
  188.0270  178.3010  139.5640 C   0  0  0  0  0  2  0  0  0  0  0  0
  188.2890  176.8130  139.3940 C   0  0  0  0  0  2  0  0  0  0  0  0
  191.8470  175.5220  136.1540 C   0  0  0  0  0  2  0  0  0  0  0  0
  189.3270  176.3000  142.0980 C   0  0  0  0  0  2  0  0  0  0  0  0
  194.2630  175.6160  136.8190 C   0  0  0  0  0  2  0  0  0  0  0  0
  192.4850  176.7350  138.2990 C   0  0  1  0  0  3  0  0  0  0  0  0
  193.8120  175.9750  138.2420 C   0  0  0  0  0  2  0  0  0  0  0  0
  193.2450  175.9720  135.7410 C   0  0  0  0  0  2  0  0  0  0  0  0
  191.4680  176.0860  137.4540 N   0  0  0  0  0  0  0  0  0  0  0  0
  190.7980  176.7790  140.0660 C   0  0  0  0  0  0  0  0  0  0  0  0
  191.4470  177.4100  142.4290 C   0  0  0  0  0  2  0  0  0  0  0  0
  192.0440  176.8160  139.6900 N   0  0  0  0  0  0  0  0  0  0  0  0
  190.7790  177.2900  143.7840 C   0  0  1  0  0  3  0  0  0  0  0  0
  190.0750  176.2160  137.7950 C   0  0  0  0  0  0  0  0  0  0  0  0
  189.5720  176.3790  143.5920 C   0  0  0  0  0  2  0  0  0  0  0  0
  189.7300  176.5770  139.0470 C   0  0  0  0  0  0  0  0  0  0  0  0
  190.4950  176.8860  141.4680 N   0  0  0  0  0  0  0  0  0  0  0  0
  189.0210  175.9660  136.7480 C   0  0  0  0  0  2  0  0  0  0  0  0
  189.3910  178.3090  136.4790 O   0  0  0  0  0  1  0  0  0  0  0  0
  188.7950  177.1980  135.8820 C   0  0  2  0  0  3  0  0  0  0  0  0
  187.3110  177.4620  135.6680 C   0  0  0  0  0  2  0  0  0  0  0  0
  187.0590  178.8220  135.6030 F   0  0  0  0  0  0  0  0  0  0  0  0
  191.7530  176.6910  144.7870 C   0  0  0  0  0  2  0  0  0  0  0  0
  191.3110  176.9680  146.1840 C   0  0  0  0  0  0  0  0  0  0  0  0
  190.1690  177.4530  146.4020 O   0  0  0  0  0  0  0  0  0  0  0  0
  192.1480  176.6630  147.2490 O   0  0  0  0  0  1  0  0  0  0  0  0
  1  4  2  0  0  0  0
  1  5  1  0  0  0  0
  2  7  1  1  0  0  0
  3  2  1  0  0  0  0
  4  6  1  0  0  0  0
  5  3  1  0  0  0  0
  6  2  1  0  0  0  0
  7  8  1  0  0  0  0
  8  9  1  0  0  0  0
 10  9  1  0  0  0  0
 11 10  1  0  0  0  0
 12 11  1  0  0  0  0
 13 22  1  6  0  0  0
 13 20  1  0  0  0  0
 13 27  1  0  0  0  0
 15 25  1  1  0  0  0
 15 19  1  0  0  0  0
 18 17  1  1  0  0  0
 18 15  1  0  0  0  0
 19 16  1  1  0  0  0
 19 12  1  0  0  0  0
 20 24  1  0  0  0  0
 21 26  1  6  0  0  0
 21 23  1  0  0  0  0
 21 13  1  0  0  0  0
 21 18  1  0  0  0  0
 23 14  1  6  0  0  0
 23 18  1  0  0  0  0
 24 19  1  0  0  0  0
 27 15  1  0  0  0  0
 28 23  1  0  0  0  0
 29 28  1  0  0  0  0
 30  5  1  0  0  0  0
 31 30  1  0  0  0  0
 32 38  1  0  0  0  0
 33 44  1  0  0  0  0
 34 36  1  0  0  0  0
 35 36  1  1  0  0  0
 35 41  1  0  0  0  0
 37 32  1  0  0  0  0
 37 34  1  0  0  0  0
 38 43  1  0  0  0  0
 38 35  1  0  0  0  0
 39 46  1  0  0  0  0
 40 42  1  0  0  0  0
 41 39  2  0  0  0  0
 42 52  1  1  0  0  0
 43 45  2  0  0  0  0
 44 42  1  0  0  0  0
 45 31  1  0  0  0  0
 45 39  1  0  0  0  0
 46 33  1  0  0  0  0
 46 40  1  0  0  0  0
 47 43  1  0  0  0  0
 49 48  1  1  0  0  0
 49 47  1  0  0  0  0
 50 49  1  0  0  0  0
 51 50  1  0  0  0  0
 52 53  1  0  0  0  0
 53 54  2  0  0  0  0
 53 55  1  0  0  0  0
M  END
>  <MODEL>
3

>  <REMARK>
 VINA RESULT:      -6.4      2.709      7.328
  Name = 
  16 active torsions:
  status: ('A' for Active; 'I' for Inactive)
    1  A    between atoms: C_2  and  C_28
    2  A    between atoms: C_2  and  N_44
    3  A    between atoms: C_4  and  C_40
    4  A    between atoms: C_8  and  N_22
    5  A    between atoms: C_8  and  C_43
    6  A    between atoms: C_10  and  C_32
    7  A    between atoms: C_11  and  C_38
    8  A    between atoms: C_19  and  C_40
    9  A    between atoms: C_19  and  C_45
   10  A    between atoms: C_20  and  N_22
   11  A    between atoms: C_27  and  C_54
   12  A    between atoms: C_28  and  C_49
   13  A    between atoms: C_32  and  C_39
   14  A    between atoms: C_35  and  C_43
   15  A    between atoms: C_35  and  C_51
   16  A    between atoms: C_51  and  C_54
                            x       y       z     vdW  Elec       q    Type
                         _______ _______ _______ _____ _____    ______ ____

>  <TORSDO>
F 16

$$$$
=
 OpenBabel10262420363D

 55 61  0  0  1  0  0  0  0  0999 V2000
  191.6910  177.2040  140.0310 C   0  0  0  0  0  3  0  0  0  0  0  0
  191.5040  176.3710  137.3300 C   0  0  1  0  0  3  0  0  0  0  0  0
  190.4820  175.8050  138.3140 C   0  0  0  0  0  2  0  0  0  0  0  0
  192.8130  177.1750  139.3090 C   0  0  0  0  0  3  0  0  0  0  0  0
  190.4860  176.5860  139.5480 N   0  0  0  0  0  0  0  0  0  0  0  0
  192.8810  176.4490  137.9940 C   0  0  0  0  0  2  0  0  0  0  0  0
  191.5380  175.5500  136.0420 C   0  0  0  0  0  2  0  0  0  0  0  0
  190.2230  174.8270  135.7760 C   0  0  0  0  0  2  0  0  0  0  0  0
  190.3940  173.3230  135.9410 C   0  0  0  0  0  2  0  0  0  0  0  0
  190.5440  172.6250  134.5970 C   0  0  0  0  0  2  0  0  0  0  0  0
  191.7190  171.6660  134.6180 C   0  0  0  0  0  2  0  0  0  0  0  0
  192.9490  172.4180  134.8400 N   0  0  0  0  0  2  0  0  0  0  0  0
  196.6060  171.6030  136.5490 C   0  0  2  0  0  0  0  0  0  0  0  0
  196.7960  174.1740  138.0460 O   0  0  0  0  0  1  0  0  0  0  0  0
  194.6380  172.6010  136.6920 C   0  0  2  0  0  0  0  0  0  0  0  0
  193.2100  170.6780  136.3920 F   0  0  0  0  0  0  0  0  0  0  0  0
  195.0900  174.2060  134.7760 O   0  0  0  0  0  1  0  0  0  0  0  0
  195.5140  173.6540  135.9910 C   0  0  2  0  0  0  0  0  0  0  0  0
  193.8840  171.6690  135.6890 C   0  0  1  0  0  0  0  0  0  0  0  0
  196.1910  170.5430  135.5110 C   0  0  0  0  0  2  0  0  0  0  0  0
  196.8730  172.9630  135.8970 C   0  0  1  0  0  0  0  0  0  0  0  0
  197.8270  171.1280  137.3140 C   0  0  0  0  0  1  0  0  0  0  0  0
  196.7360  174.2800  136.6520 C   0  0  2  0  0  0  0  0  0  0  0  0
  194.9090  170.9730  134.7690 C   0  0  0  0  0  2  0  0  0  0  0  0
  193.7470  173.2260  137.5660 O   0  0  0  0  0  1  0  0  0  0  0  0
  197.4130  173.0020  134.6050 O   0  0  0  0  0  1  0  0  0  0  0  0
  195.5220  171.7860  137.4280 O   0  0  0  0  0  0  0  0  0  0  0  0
  197.3510  175.5160  136.0110 C   0  0  0  0  0  2  0  0  0  0  0  0
  198.7090  175.3000  135.7720 O   0  0  0  0  0  1  0  0  0  0  0  0
  189.2420  176.7230  140.2890 C   0  0  0  0  0  2  0  0  0  0  0  0
  188.7480  178.1600  140.2220 C   0  0  0  0  0  2  0  0  0  0  0  0
  183.8650  179.1450  140.3270 C   0  0  0  0  0  2  0  0  0  0  0  0
  189.8120  178.6720  142.9160 C   0  0  0  0  0  2  0  0  0  0  0  0
  182.5710  178.9150  142.4620 C   0  0  0  0  0  2  0  0  0  0  0  0
  184.9450  177.9460  142.2960 C   0  0  1  0  0  3  0  0  0  0  0  0
  183.8940  178.6200  143.1820 C   0  0  0  0  0  2  0  0  0  0  0  0
  182.5950  178.5970  140.9710 C   0  0  0  0  0  2  0  0  0  0  0  0
  185.0650  178.6380  141.0020 N   0  0  0  0  0  0  0  0  0  0  0  0
  187.3820  178.0520  142.4290 C   0  0  0  0  0  0  0  0  0  0  0  0
  188.5670  177.4390  144.5800 C   0  0  0  0  0  2  0  0  0  0  0  0
  186.2220  177.9280  143.0060 N   0  0  0  0  0  0  0  0  0  0  0  0
  189.9720  177.6330  145.1130 C   0  0  1  0  0  3  0  0  0  0  0  0
  186.3200  178.6040  140.2940 C   0  0  0  0  0  0  0  0  0  0  0  0
  190.6610  178.6140  144.1710 C   0  0  0  0  0  2  0  0  0  0  0  0
  187.4490  178.2960  140.9610 C   0  0  0  0  0  0  0  0  0  0  0  0
  188.5690  177.9980  143.2410 N   0  0  0  0  0  0  0  0  0  0  0  0
  186.3530  178.8950  138.8160 C   0  0  0  0  0  2  0  0  0  0  0  0
  187.5780  177.8740  137.0390 O   0  0  0  0  0  1  0  0  0  0  0  0
  186.6030  177.6290  138.0060 C   0  0  2  0  0  3  0  0  0  0  0  0
  185.3270  177.1350  137.3380 C   0  0  0  0  0  2  0  0  0  0  0  0
  184.3160  178.0720  137.4610 F   0  0  0  0  0  0  0  0  0  0  0  0
  189.9130  178.1940  146.5260 C   0  0  0  0  0  2  0  0  0  0  0  0
  189.2240  177.2410  147.4440 C   0  0  0  0  0  0  0  0  0  0  0  0
  189.6200  176.0480  147.5310 O   0  0  0  0  0  0  0  0  0  0  0  0
  188.1640  177.6770  148.2270 O   0  0  0  0  0  1  0  0  0  0  0  0
  2  7  1  6  0  0  0
  2  6  1  0  0  0  0
  2  3  1  0  0  0  0
  3  5  1  0  0  0  0
  4  1  2  0  0  0  0
  5  1  1  0  0  0  0
  5 30  1  0  0  0  0
  6  4  1  0  0  0  0
  8  9  1  0  0  0  0
  8  7  1  0  0  0  0
 10 11  1  0  0  0  0
 10  9  1  0  0  0  0
 11 12  1  0  0  0  0
 12 19  1  0  0  0  0
 13 22  1  1  0  0  0
 13 27  1  0  0  0  0
 15 27  1  0  0  0  0
 15 25  1  1  0  0  0
 18 17  1  6  0  0  0
 18 23  1  0  0  0  0
 18 15  1  0  0  0  0
 19 16  1  1  0  0  0
 19 15  1  0  0  0  0
 20 13  1  0  0  0  0
 21 26  1  6  0  0  0
 21 18  1  0  0  0  0
 21 13  1  0  0  0  0
 21 23  1  0  0  0  0
 23 14  1  1  0  0  0
 24 20  1  0  0  0  0
 24 19  1  0  0  0  0
 28 23  1  0  0  0  0
 29 28  1  0  0  0  0
 31 30  1  0  0  0  0
 31 45  1  0  0  0  0
 32 37  1  0  0  0  0
 32 38  1  0  0  0  0
 33 46  1  0  0  0  0
 33 44  1  0  0  0  0
 34 36  1  0  0  0  0
 35 41  1  0  0  0  0
 35 36  1  1  0  0  0
 37 34  1  0  0  0  0
 38 35  1  0  0  0  0
 39 41  2  0  0  0  0
 39 46  1  0  0  0  0
 40 42  1  0  0  0  0
 42 52  1  1  0  0  0
 43 45  2  0  0  0  0
 43 38  1  0  0  0  0
 44 42  1  0  0  0  0
 45 39  1  0  0  0  0
 46 40  1  0  0  0  0
 47 43  1  0  0  0  0
 49 48  1  6  0  0  0
 49 47  1  0  0  0  0
 50 51  1  0  0  0  0
 50 49  1  0  0  0  0
 52 53  1  0  0  0  0
 53 54  2  0  0  0  0
 53 55  1  0  0  0  0
M  END
>  <MODEL>
4

>  <REMARK>
 VINA RESULT:      -6.0      5.665     10.440
  Name = 
  16 active torsions:
  status: ('A' for Active; 'I' for Inactive)
    1  A    between atoms: C_2  and  C_28
    2  A    between atoms: C_2  and  N_44
    3  A    between atoms: C_4  and  C_40
    4  A    between atoms: C_8  and  N_22
    5  A    between atoms: C_8  and  C_43
    6  A    between atoms: C_10  and  C_32
    7  A    between atoms: C_11  and  C_38
    8  A    between atoms: C_19  and  C_40
    9  A    between atoms: C_19  and  C_45
   10  A    between atoms: C_20  and  N_22
   11  A    between atoms: C_27  and  C_54
   12  A    between atoms: C_28  and  C_49
   13  A    between atoms: C_32  and  C_39
   14  A    between atoms: C_35  and  C_43
   15  A    between atoms: C_35  and  C_51
   16  A    between atoms: C_51  and  C_54
                            x       y       z     vdW  Elec       q    Type
                         _______ _______ _______ _____ _____    ______ ____

>  <TORSDO>
F 16

$$$$
=
 OpenBabel10262420363D

 55 61  0  0  1  0  0  0  0  0999 V2000
  191.6860  177.1680  141.2590 C   0  0  0  0  0  3  0  0  0  0  0  0
  191.3720  177.0460  138.4460 C   0  0  1  0  0  3  0  0  0  0  0  0
  190.3510  176.2980  139.3020 C   0  0  0  0  0  2  0  0  0  0  0  0
  192.7830  177.2710  140.5050 C   0  0  0  0  0  3  0  0  0  0  0  0
  190.4350  176.7450  140.6890 N   0  0  0  0  0  0  0  0  0  0  0  0
  192.7710  176.8940  139.0490 C   0  0  0  0  0  2  0  0  0  0  0  0
  191.3230  176.5720  136.9950 C   0  0  0  0  0  2  0  0  0  0  0  0
  189.9920  175.9200  136.6390 C   0  0  0  0  0  2  0  0  0  0  0  0
  190.2070  174.4950  136.1490 C   0  0  0  0  0  2  0  0  0  0  0  0
  190.8760  174.4670  134.7820 C   0  0  0  0  0  2  0  0  0  0  0  0
  191.6870  173.1970  134.6070 C   0  0  0  0  0  2  0  0  0  0  0  0
  193.1010  173.4980  134.8100 N   0  0  0  0  0  2  0  0  0  0  0  0
  196.3190  171.5670  136.5030 C   0  0  2  0  0  0  0  0  0  0  0  0
  197.1270  173.8440  138.2490 O   0  0  0  0  0  1  0  0  0  0  0  0
  194.6890  173.0460  136.7040 C   0  0  2  0  0  0  0  0  0  0  0  0
  192.8110  171.6210  136.1890 F   0  0  0  0  0  0  0  0  0  0  0  0
  195.6440  174.6320  134.9650 O   0  0  0  0  0  1  0  0  0  0  0  0
  195.8480  173.8790  136.1280 C   0  0  2  0  0  0  0  0  0  0  0  0
  193.7590  172.4490  135.6000 C   0  0  1  0  0  0  0  0  0  0  0  0
  195.6810  170.7570  135.3570 C   0  0  0  0  0  2  0  0  0  0  0  0
  196.9730  172.8550  135.9930 C   0  0  1  0  0  0  0  0  0  0  0  0
  197.3310  170.7100  137.2420 C   0  0  0  0  0  1  0  0  0  0  0  0
  197.1620  174.0860  136.8710 C   0  0  2  0  0  0  0  0  0  0  0  0
  194.5980  171.5850  134.6370 C   0  0  0  0  0  2  0  0  0  0  0  0
  193.9600  173.8110  137.6180 O   0  0  0  0  0  1  0  0  0  0  0  0
  197.5620  172.8590  134.7220 O   0  0  0  0  0  1  0  0  0  0  0  0
  195.2850  171.9590  137.3740 O   0  0  0  0  0  0  0  0  0  0  0  0
  198.1160  175.1600  136.3670 C   0  0  0  0  0  2  0  0  0  0  0  0
  197.4020  176.3200  136.0580 O   0  0  0  0  0  1  0  0  0  0  0  0
  189.2240  176.7480  141.4940 C   0  0  0  0  0  2  0  0  0  0  0  0
  188.5200  178.0920  141.3770 C   0  0  0  0  0  2  0  0  0  0  0  0
  186.8520  177.5580  146.0410 C   0  0  0  0  0  2  0  0  0  0  0  0
  186.1910  177.9740  139.5860 C   0  0  0  0  0  2  0  0  0  0  0  0
  184.5250  178.2700  146.6450 C   0  0  0  0  0  2  0  0  0  0  0  0
  185.5390  178.9890  144.3960 C   0  0  1  0  0  3  0  0  0  0  0  0
  184.2790  178.5730  145.1610 C   0  0  0  0  0  2  0  0  0  0  0  0
  185.9940  178.3160  147.0500 C   0  0  0  0  0  2  0  0  0  0  0  0
  186.6550  178.0720  144.6820 N   0  0  0  0  0  0  0  0  0  0  0  0
  186.0820  178.7020  142.0310 C   0  0  0  0  0  0  0  0  0  0  0  0
  184.5140  179.5810  140.2500 C   0  0  0  0  0  2  0  0  0  0  0  0
  185.2360  179.0240  142.9670 N   0  0  0  0  0  0  0  0  0  0  0  0
  184.3720  179.3650  138.7560 C   0  0  1  0  0  3  0  0  0  0  0  0
  187.6810  177.8740  143.6900 C   0  0  0  0  0  0  0  0  0  0  0  0
  185.2630  178.1790  138.4050 C   0  0  0  0  0  2  0  0  0  0  0  0
  187.4330  178.1980  142.4060 C   0  0  0  0  0  0  0  0  0  0  0  0
  185.6640  178.7970  140.6580 N   0  0  0  0  0  0  0  0  0  0  0  0
  189.0230  177.3270  144.1000 C   0  0  0  0  0  2  0  0  0  0  0  0
  190.7450  178.9790  144.0650 O   0  0  0  0  0  1  0  0  0  0  0  0
  189.8210  178.3500  144.8980 C   0  0  2  0  0  3  0  0  0  0  0  0
  190.5420  177.7000  146.0710 C   0  0  0  0  0  2  0  0  0  0  0  0
  191.8320  177.3430  145.7170 F   0  0  0  0  0  0  0  0  0  0  0  0
  182.9200  179.0690  138.4150 C   0  0  0  0  0  2  0  0  0  0  0  0
  182.2580  178.3200  139.5220 C   0  0  0  0  0  0  0  0  0  0  0  0
  181.3750  178.8790  140.2260 O   0  0  0  0  0  1  0  0  0  0  0  0
  182.5940  176.9930  139.7590 O   0  0  0  0  0  0  0  0  0  0  0  0
  2  7  1  6  0  0  0
  2  6  1  0  0  0  0
  2  3  1  0  0  0  0
  3  5  1  0  0  0  0
  4  1  2  0  0  0  0
  5  1  1  0  0  0  0
  5 30  1  0  0  0  0
  6  4  1  0  0  0  0
  8  7  1  0  0  0  0
  9  8  1  0  0  0  0
 10  9  1  0  0  0  0
 11 10  1  0  0  0  0
 11 12  1  0  0  0  0
 12 19  1  0  0  0  0
 13 22  1  1  0  0  0
 13 27  1  0  0  0  0
 15 27  1  0  0  0  0
 15 25  1  1  0  0  0
 18 17  1  6  0  0  0
 18 15  1  0  0  0  0
 18 23  1  0  0  0  0
 19 16  1  1  0  0  0
 19 15  1  0  0  0  0
 20 13  1  0  0  0  0
 21 26  1  6  0  0  0
 21 18  1  0  0  0  0
 21 13  1  0  0  0  0
 21 23  1  0  0  0  0
 23 14  1  1  0  0  0
 24 20  1  0  0  0  0
 24 19  1  0  0  0  0
 28 23  1  0  0  0  0
 29 28  1  0  0  0  0
 31 30  1  0  0  0  0
 31 45  1  0  0  0  0
 32 37  1  0  0  0  0
 33 46  1  0  0  0  0
 34 37  1  0  0  0  0
 35 38  1  0  0  0  0
 35 36  1  1  0  0  0
 36 34  1  0  0  0  0
 38 32  1  0  0  0  0
 39 45  1  0  0  0  0
 39 41  2  0  0  0  0
 40 46  1  0  0  0  0
 41 35  1  0  0  0  0
 42 52  1  1  0  0  0
 42 40  1  0  0  0  0
 43 47  1  0  0  0  0
 43 38  1  0  0  0  0
 44 42  1  0  0  0  0
 44 33  1  0  0  0  0
 45 43  2  0  0  0  0
 46 39  1  0  0  0  0
 47 49  1  0  0  0  0
 49 48  1  6  0  0  0
 49 50  1  0  0  0  0
 51 50  1  0  0  0  0
 52 53  1  0  0  0  0
 53 55  2  0  0  0  0
 53 54  1  0  0  0  0
M  END
>  <MODEL>
5

>  <REMARK>
 VINA RESULT:      -5.9      5.379      9.342
  Name = 
  16 active torsions:
  status: ('A' for Active; 'I' for Inactive)
    1  A    between atoms: C_2  and  C_28
    2  A    between atoms: C_2  and  N_44
    3  A    between atoms: C_4  and  C_40
    4  A    between atoms: C_8  and  N_22
    5  A    between atoms: C_8  and  C_43
    6  A    between atoms: C_10  and  C_32
    7  A    between atoms: C_11  and  C_38
    8  A    between atoms: C_19  and  C_40
    9  A    between atoms: C_19  and  C_45
   10  A    between atoms: C_20  and  N_22
   11  A    between atoms: C_27  and  C_54
   12  A    between atoms: C_28  and  C_49
   13  A    between atoms: C_32  and  C_39
   14  A    between atoms: C_35  and  C_43
   15  A    between atoms: C_35  and  C_51
   16  A    between atoms: C_51  and  C_54
                            x       y       z     vdW  Elec       q    Type
                         _______ _______ _______ _____ _____    ______ ____

>  <TORSDO>
F 16

$$$$
=
 OpenBabel10262420363D

 55 61  0  0  1  0  0  0  0  0999 V2000
  191.4890  177.7400  142.0980 C   0  0  0  0  0  3  0  0  0  0  0  0
  189.0390  176.8030  143.1660 C   0  0  1  0  0  3  0  0  0  0  0  0
  189.1840  176.8200  141.6460 C   0  0  0  0  0  2  0  0  0  0  0  0
  191.0970  178.2260  143.2780 C   0  0  0  0  0  3  0  0  0  0  0  0
  190.5870  176.9790  141.2760 N   0  0  0  0  0  0  0  0  0  0  0  0
  189.6860  178.0530  143.7680 C   0  0  0  0  0  2  0  0  0  0  0  0
  187.5740  176.6670  143.5760 C   0  0  0  0  0  2  0  0  0  0  0  0
  187.1380  177.7550  144.5510 C   0  0  0  0  0  2  0  0  0  0  0  0
  185.7600  178.2870  144.1810 C   0  0  0  0  0  2  0  0  0  0  0  0
  185.4490  178.0610  142.7080 C   0  0  0  0  0  2  0  0  0  0  0  0
  184.1020  178.6560  142.3460 C   0  0  0  0  0  2  0  0  0  0  0  0
  183.4410  177.7920  141.3740 N   0  0  0  0  0  2  0  0  0  0  0  0
  181.4910  178.8640  137.9090 C   0  0  2  0  0  0  0  0  0  0  0  0
  180.3230  176.1680  137.3980 O   0  0  0  0  0  1  0  0  0  0  0  0
  181.5570  177.5990  139.7210 C   0  0  2  0  0  0  0  0  0  0  0  0
  181.6720  179.3340  141.3950 F   0  0  0  0  0  0  0  0  0  0  0  0
  183.6400  176.3340  139.0040 O   0  0  0  0  0  1  0  0  0  0  0  0
  182.3480  176.7740  138.6900 C   0  0  2  0  0  0  0  0  0  0  0  0
  182.4650  178.5430  140.5730 C   0  0  1  0  0  0  0  0  0  0  0  0
  182.4030  179.9850  138.4420 C   0  0  0  0  0  2  0  0  0  0  0  0
  182.2970  177.6490  137.4390 C   0  0  1  0  0  0  0  0  0  0  0  0
  180.6210  179.3950  136.7840 C   0  0  0  0  0  1  0  0  0  0  0  0
  181.7210  176.2390  137.4090 C   0  0  2  0  0  0  0  0  0  0  0  0
  183.2460  179.4860  139.6340 C   0  0  0  0  0  2  0  0  0  0  0  0
  180.8070  176.7500  140.5370 O   0  0  0  0  0  1  0  0  0  0  0  0
  183.5610  177.8530  136.8680 O   0  0  0  0  0  1  0  0  0  0  0  0
  180.6880  178.4230  138.9780 O   0  0  0  0  0  0  0  0  0  0  0  0
  182.4870  175.1910  136.6130 C   0  0  0  0  0  2  0  0  0  0  0  0
  181.6880  174.7080  135.5750 O   0  0  0  0  0  1  0  0  0  0  0  0
  191.0590  176.3570  140.0500 C   0  0  0  0  0  2  0  0  0  0  0  0
  190.7170  177.2310  138.8530 C   0  0  0  0  0  2  0  0  0  0  0  0
  186.6860  175.2060  136.7380 C   0  0  0  0  0  2  0  0  0  0  0  0
  193.0410  175.6140  138.0550 C   0  0  0  0  0  2  0  0  0  0  0  0
  186.8880  173.9230  134.5940 C   0  0  0  0  0  2  0  0  0  0  0  0
  188.8520  175.3640  135.4110 C   0  0  1  0  0  3  0  0  0  0  0  0
  188.4110  174.0880  134.6890 C   0  0  0  0  0  2  0  0  0  0  0  0
  186.1020  174.9930  135.3440 C   0  0  0  0  0  2  0  0  0  0  0  0
  188.1130  175.5370  136.6730 N   0  0  0  0  0  0  0  0  0  0  0  0
  190.8850  175.7930  136.6960 C   0  0  0  0  0  0  0  0  0  0  0  0
  193.1570  175.4050  135.6500 C   0  0  0  0  0  2  0  0  0  0  0  0
  190.2930  175.3010  135.6460 N   0  0  0  0  0  0  0  0  0  0  0  0
  194.5710  175.2970  136.1860 C   0  0  1  0  0  3  0  0  0  0  0  0
  188.7300  176.2500  137.7630 C   0  0  0  0  0  0  0  0  0  0  0  0
  194.4510  175.1840  137.7020 C   0  0  0  0  0  2  0  0  0  0  0  0
  190.0680  176.4080  137.7790 C   0  0  0  0  0  0  0  0  0  0  0  0
  192.3160  175.6810  136.7990 N   0  0  0  0  0  0  0  0  0  0  0  0
  187.8730  176.8250  138.8600 C   0  0  0  0  0  2  0  0  0  0  0  0
  186.4310  178.6850  139.2580 O   0  0  0  0  0  1  0  0  0  0  0  0
  187.6320  178.3150  138.6540 C   0  0  2  0  0  3  0  0  0  0  0  0
  187.5960  178.6730  137.1740 C   0  0  0  0  0  2  0  0  0  0  0  0
  188.6940  179.4420  136.8290 F   0  0  0  0  0  0  0  0  0  0  0  0
  195.2480  174.0660  135.6050 C   0  0  0  0  0  2  0  0  0  0  0  0
  194.9280  172.8540  136.4130 C   0  0  0  0  0  0  0  0  0  0  0  0
  193.8420  172.2400  136.2300 O   0  0  0  0  0  0  0  0  0  0  0  0
  195.8400  172.3830  137.3480 O   0  0  0  0  0  1  0  0  0  0  0  0
  1  4  2  0  0  0  0
  2  7  1  6  0  0  0
  2  6  1  0  0  0  0
  3  2  1  0  0  0  0
  4  6  1  0  0  0  0
  5  3  1  0  0  0  0
  5  1  1  0  0  0  0
  7  8  1  0  0  0  0
  9  8  1  0  0  0  0
 10  9  1  0  0  0  0
 11 10  1  0  0  0  0
 12 11  1  0  0  0  0
 13 22  1  6  0  0  0
 13 20  1  0  0  0  0
 13 27  1  0  0  0  0
 15 25  1  1  0  0  0
 15 19  1  0  0  0  0
 18 17  1  1  0  0  0
 18 15  1  0  0  0  0
 19 12  1  0  0  0  0
 19 16  1  1  0  0  0
 20 24  1  0  0  0  0
 21 26  1  6  0  0  0
 21 13  1  0  0  0  0
 21 18  1  0  0  0  0
 23 14  1  6  0  0  0
 23 21  1  0  0  0  0
 23 18  1  0  0  0  0
 24 19  1  0  0  0  0
 27 15  1  0  0  0  0
 28 23  1  0  0  0  0
 29 28  1  0  0  0  0
 30  5  1  0  0  0  0
 31 30  1  0  0  0  0
 34 36  1  0  0  0  0
 34 37  1  0  0  0  0
 35 36  1  1  0  0  0
 35 41  1  0  0  0  0
 35 38  1  0  0  0  0
 37 32  1  0  0  0  0
 38 32  1  0  0  0  0
 38 43  1  0  0  0  0
 39 46  1  0  0  0  0
 39 45  1  0  0  0  0
 40 42  1  0  0  0  0
 40 46  1  0  0  0  0
 41 39  2  0  0  0  0
 42 52  1  6  0  0  0
 42 44  1  0  0  0  0
 43 45  2  0  0  0  0
 43 47  1  0  0  0  0
 44 33  1  0  0  0  0
 45 31  1  0  0  0  0
 46 33  1  0  0  0  0
 49 47  1  0  0  0  0
 49 48  1  6  0  0  0
 50 49  1  0  0  0  0
 51 50  1  0  0  0  0
 52 53  1  0  0  0  0
 53 55  1  0  0  0  0
 54 53  2  0  0  0  0
M  END
>  <MODEL>
6

>  <REMARK>
 VINA RESULT:      -5.9      3.464      8.609
  Name = 
  16 active torsions:
  status: ('A' for Active; 'I' for Inactive)
    1  A    between atoms: C_2  and  C_28
    2  A    between atoms: C_2  and  N_44
    3  A    between atoms: C_4  and  C_40
    4  A    between atoms: C_8  and  N_22
    5  A    between atoms: C_8  and  C_43
    6  A    between atoms: C_10  and  C_32
    7  A    between atoms: C_11  and  C_38
    8  A    between atoms: C_19  and  C_40
    9  A    between atoms: C_19  and  C_45
   10  A    between atoms: C_20  and  N_22
   11  A    between atoms: C_27  and  C_54
   12  A    between atoms: C_28  and  C_49
   13  A    between atoms: C_32  and  C_39
   14  A    between atoms: C_35  and  C_43
   15  A    between atoms: C_35  and  C_51
   16  A    between atoms: C_51  and  C_54
                            x       y       z     vdW  Elec       q    Type
                         _______ _______ _______ _____ _____    ______ ____

>  <TORSDO>
F 16

$$$$
=
 OpenBabel10262420363D

 55 61  0  0  1  0  0  0  0  0999 V2000
  191.0450  177.3280  139.9930 C   0  0  0  0  0  3  0  0  0  0  0  0
  189.4430  177.1580  142.3230 C   0  0  1  0  0  3  0  0  0  0  0  0
  188.7810  177.6800  141.0500 C   0  0  0  0  0  2  0  0  0  0  0  0
  191.6510  177.4550  141.1760 C   0  0  0  0  0  3  0  0  0  0  0  0
  189.6110  177.3730  139.8890 N   0  0  0  0  0  0  0  0  0  0  0  0
  190.8680  177.7080  142.4340 C   0  0  0  0  0  2  0  0  0  0  0  0
  188.6060  177.4950  143.5550 C   0  0  0  0  0  2  0  0  0  0  0  0
  187.1530  177.0580  143.4100 C   0  0  0  0  0  2  0  0  0  0  0  0
  186.2530  177.8720  144.3300 C   0  0  0  0  0  2  0  0  0  0  0  0
  184.9980  178.3460  143.6100 C   0  0  0  0  0  2  0  0  0  0  0  0
  185.2530  178.4840  142.1220 C   0  0  0  0  0  2  0  0  0  0  0  0
  184.0720  179.0550  141.4830 N   0  0  0  0  0  2  0  0  0  0  0  0
  181.7440  177.6050  138.4120 C   0  0  2  0  0  0  0  0  0  0  0  0
  180.4230  180.2080  137.8060 O   0  0  0  0  0  1  0  0  0  0  0  0
  182.8550  179.2980  139.2980 C   0  0  2  0  0  0  0  0  0  0  0  0
  185.0310  178.2710  139.4890 F   0  0  0  0  0  0  0  0  0  0  0  0
  181.3240  179.5070  141.3140 O   0  0  0  0  0  1  0  0  0  0  0  0
  181.4550  179.4350  139.9210 C   0  0  2  0  0  0  0  0  0  0  0  0
  183.8310  178.4450  140.1690 C   0  0  1  0  0  0  0  0  0  0  0  0
  182.5040  176.4880  139.1530 C   0  0  0  0  0  2  0  0  0  0  0  0
  180.6890  178.2650  139.3050 C   0  0  1  0  0  0  0  0  0  0  0  0
  181.1050  177.0490  137.1520 C   0  0  0  0  0  1  0  0  0  0  0  0
  180.2050  179.6940  139.0900 C   0  0  2  0  0  0  0  0  0  0  0  0
  183.2210  177.0460  140.3990 C   0  0  0  0  0  2  0  0  0  0  0  0
  183.3860  180.5630  139.0390 O   0  0  0  0  0  1  0  0  0  0  0  0
  180.0260  177.4850  140.2620 O   0  0  0  0  0  1  0  0  0  0  0  0
  182.6750  178.6080  138.0820 O   0  0  0  0  0  0  0  0  0  0  0  0
  178.9310  180.1120  139.8110 C   0  0  0  0  0  2  0  0  0  0  0  0
  179.0630  181.4190  140.2870 O   0  0  0  0  0  1  0  0  0  0  0  0
  188.9590  177.1180  138.6140 C   0  0  0  0  0  2  0  0  0  0  0  0
  190.0000  176.9040  137.5260 C   0  0  0  0  0  2  0  0  0  0  0  0
  186.9590  173.3200  135.8730 C   0  0  0  0  0  2  0  0  0  0  0  0
  192.6480  175.6950  137.9440 C   0  0  0  0  0  2  0  0  0  0  0  0
  187.8770  171.3690  134.5940 C   0  0  0  0  0  2  0  0  0  0  0  0
  189.3510  173.4320  135.0100 C   0  0  1  0  0  3  0  0  0  0  0  0
  189.2880  171.9090  134.8660 C   0  0  0  0  0  2  0  0  0  0  0  0
  186.7870  172.4340  134.6420 C   0  0  0  0  0  2  0  0  0  0  0  0
  188.2970  173.9210  135.9150 N   0  0  0  0  0  0  0  0  0  0  0  0
  190.9090  174.8030  136.2990 C   0  0  0  0  0  0  0  0  0  0  0  0
  193.4040  174.5700  135.9430 C   0  0  0  0  0  2  0  0  0  0  0  0
  190.6790  173.8080  135.4930 N   0  0  0  0  0  0  0  0  0  0  0  0
  194.6340  175.0210  136.7060 C   0  0  1  0  0  3  0  0  0  0  0  0
  188.5110  175.1340  136.6620 C   0  0  0  0  0  0  0  0  0  0  0  0
  194.1470  175.5020  138.0670 C   0  0  0  0  0  2  0  0  0  0  0  0
  189.7660  175.5930  136.8370 C   0  0  0  0  0  0  0  0  0  0  0  0
  192.2670  175.0800  136.6860 N   0  0  0  0  0  0  0  0  0  0  0  0
  187.3310  175.8840  137.2230 C   0  0  0  0  0  2  0  0  0  0  0  0
  187.0010  177.7290  135.7450 O   0  0  0  0  0  1  0  0  0  0  0  0
  186.4790  176.4890  136.1150 C   0  0  2  0  0  3  0  0  0  0  0  0
  185.0300  176.6500  136.5540 C   0  0  0  0  0  2  0  0  0  0  0  0
  184.2640  175.5840  136.1150 F   0  0  0  0  0  0  0  0  0  0  0  0
  195.5990  173.8550  136.8590 C   0  0  0  0  0  2  0  0  0  0  0  0
  196.5320  174.0870  137.9990 C   0  0  0  0  0  0  0  0  0  0  0  0
  196.3710  173.4660  139.0840 O   0  0  0  0  0  1  0  0  0  0  0  0
  197.5980  174.9640  137.8550 O   0  0  0  0  0  0  0  0  0  0  0  0
  1  4  2  0  0  0  0
  2  6  1  0  0  0  0
  2  7  1  1  0  0  0
  3  2  1  0  0  0  0
  4  6  1  0  0  0  0
  5  1  1  0  0  0  0
  5  3  1  0  0  0  0
  8  7  1  0  0  0  0
  8  9  1  0  0  0  0
 10  9  1  0  0  0  0
 11 10  1  0  0  0  0
 12 11  1  0  0  0  0
 13 22  1  6  0  0  0
 13 20  1  0  0  0  0
 13 21  1  0  0  0  0
 15 25  1  6  0  0  0
 15 18  1  0  0  0  0
 15 19  1  0  0  0  0
 18 17  1  1  0  0  0
 19 16  1  6  0  0  0
 19 24  1  0  0  0  0
 19 12  1  0  0  0  0
 20 24  1  0  0  0  0
 21 18  1  0  0  0  0
 21 26  1  1  0  0  0
 23 14  1  6  0  0  0
 23 21  1  0  0  0  0
 23 28  1  0  0  0  0
 23 18  1  0  0  0  0
 27 13  1  0  0  0  0
 27 15  1  0  0  0  0
 28 29  1  0  0  0  0
 30  5  1  0  0  0  0
 31 30  1  0  0  0  0
 32 38  1  0  0  0  0
 33 44  1  0  0  0  0
 34 37  1  0  0  0  0
 34 36  1  0  0  0  0
 35 36  1  1  0  0  0
 35 41  1  0  0  0  0
 35 38  1  0  0  0  0
 37 32  1  0  0  0  0
 38 43  1  0  0  0  0
 39 46  1  0  0  0  0
 39 45  1  0  0  0  0
 40 46  1  0  0  0  0
 40 42  1  0  0  0  0
 41 39  2  0  0  0  0
 42 52  1  1  0  0  0
 42 44  1  0  0  0  0
 43 45  2  0  0  0  0
 43 47  1  0  0  0  0
 45 31  1  0  0  0  0
 46 33  1  0  0  0  0
 49 48  1  1  0  0  0
 49 50  1  0  0  0  0
 49 47  1  0  0  0  0
 51 50  1  0  0  0  0
 52 53  1  0  0  0  0
 53 54  1  0  0  0  0
 55 53  2  0  0  0  0
M  END
>  <MODEL>
7

>  <REMARK>
 VINA RESULT:      -5.9      3.736      9.254
  Name = 
  16 active torsions:
  status: ('A' for Active; 'I' for Inactive)
    1  A    between atoms: C_2  and  C_28
    2  A    between atoms: C_2  and  N_44
    3  A    between atoms: C_4  and  C_40
    4  A    between atoms: C_8  and  N_22
    5  A    between atoms: C_8  and  C_43
    6  A    between atoms: C_10  and  C_32
    7  A    between atoms: C_11  and  C_38
    8  A    between atoms: C_19  and  C_40
    9  A    between atoms: C_19  and  C_45
   10  A    between atoms: C_20  and  N_22
   11  A    between atoms: C_27  and  C_54
   12  A    between atoms: C_28  and  C_49
   13  A    between atoms: C_32  and  C_39
   14  A    between atoms: C_35  and  C_43
   15  A    between atoms: C_35  and  C_51
   16  A    between atoms: C_51  and  C_54
                            x       y       z     vdW  Elec       q    Type
                         _______ _______ _______ _____ _____    ______ ____

>  <TORSDO>
F 16

$$$$
=
 OpenBabel10262420363D

 55 61  0  0  1  0  0  0  0  0999 V2000
  189.0160  177.6110  141.5910 C   0  0  0  0  0  3  0  0  0  0  0  0
  189.3290  178.5130  138.9240 C   0  0  1  0  0  3  0  0  0  0  0  0
  187.9280  178.0930  139.3660 C   0  0  0  0  0  2  0  0  0  0  0  0
  190.2020  177.4260  141.0060 C   0  0  0  0  0  3  0  0  0  0  0  0
  187.8660  178.0040  140.8220 N   0  0  0  0  0  0  0  0  0  0  0  0
  190.3720  177.5620  139.5180 C   0  0  0  0  0  2  0  0  0  0  0  0
  189.4250  178.5830  137.4010 C   0  0  0  0  0  2  0  0  0  0  0  0
  188.2790  177.8540  136.7090 C   0  0  0  0  0  2  0  0  0  0  0  0
  188.7620  176.5390  136.1130 C   0  0  0  0  0  2  0  0  0  0  0  0
  190.0260  176.7290  135.2860 C   0  0  0  0  0  2  0  0  0  0  0  0
  190.7890  175.4250  135.1660 C   0  0  0  0  0  2  0  0  0  0  0  0
  192.1720  175.6370  135.5820 N   0  0  0  0  0  2  0  0  0  0  0  0
  194.8340  172.9350  137.1840 C   0  0  2  0  0  0  0  0  0  0  0  0
  196.8530  174.9740  137.9910 O   0  0  0  0  0  1  0  0  0  0  0  0
  193.9620  174.9660  137.2130 C   0  0  2  0  0  0  0  0  0  0  0  0
  191.6360  174.3810  137.4900 F   0  0  0  0  0  0  0  0  0  0  0  0
  194.8860  175.6120  134.9370 O   0  0  0  0  0  1  0  0  0  0  0  0
  195.1280  175.1010  136.2180 C   0  0  2  0  0  0  0  0  0  0  0  0
  192.6100  174.5980  136.5220 C   0  0  1  0  0  0  0  0  0  0  0  0
  193.6560  172.2470  136.4670 C   0  0  0  0  0  2  0  0  0  0  0  0
  195.7300  173.6970  136.2030 C   0  0  1  0  0  0  0  0  0  0  0  0
  195.6410  171.9080  137.9560 C   0  0  0  0  0  1  0  0  0  0  0  0
  196.5820  174.8900  136.6210 C   0  0  2  0  0  0  0  0  0  0  0  0
  192.7810  173.2830  135.7320 C   0  0  0  0  0  2  0  0  0  0  0  0
  193.8400  176.1360  137.9670 O   0  0  0  0  0  1  0  0  0  0  0  0
  195.8990  173.1940  134.9060 O   0  0  0  0  0  1  0  0  0  0  0  0
  194.2970  173.8930  138.0640 O   0  0  0  0  0  0  0  0  0  0  0  0
  197.6710  175.3380  135.6570 C   0  0  0  0  0  2  0  0  0  0  0  0
  198.9200  174.9250  136.1270 O   0  0  0  0  0  1  0  0  0  0  0  0
  186.6100  178.3140  141.4860 C   0  0  0  0  0  2  0  0  0  0  0  0
  185.6790  179.0450  140.5310 C   0  0  0  0  0  2  0  0  0  0  0  0
  181.9690  178.8710  143.8520 C   0  0  0  0  0  2  0  0  0  0  0  0
  185.0170  177.1680  138.3650 C   0  0  0  0  0  2  0  0  0  0  0  0
  179.6480  178.2560  143.1290 C   0  0  0  0  0  2  0  0  0  0  0  0
  181.4290  178.8200  141.3650 C   0  0  1  0  0  3  0  0  0  0  0  0
  180.2060  177.9740  141.7270 C   0  0  0  0  0  2  0  0  0  0  0  0
  180.4890  179.2330  143.9430 C   0  0  0  0  0  2  0  0  0  0  0  0
  182.4170  178.8130  142.4560 N   0  0  0  0  0  0  0  0  0  0  0  0
  183.2820  178.3010  139.8600 C   0  0  0  0  0  0  0  0  0  0  0  0
  182.8260  177.6390  137.4600 C   0  0  0  0  0  2  0  0  0  0  0  0
  182.0080  178.3090  140.1230 N   0  0  0  0  0  0  0  0  0  0  0  0
  183.6500  177.0070  136.3560 C   0  0  1  0  0  3  0  0  0  0  0  0
  183.8140  178.9890  142.1490 C   0  0  0  0  0  0  0  0  0  0  0  0
  184.9300  176.4980  137.0080 C   0  0  0  0  0  2  0  0  0  0  0  0
  184.2490  178.7720  140.8920 C   0  0  0  0  0  0  0  0  0  0  0  0
  183.7230  177.7850  138.5910 N   0  0  0  0  0  0  0  0  0  0  0  0
  184.7680  179.4300  143.2280 C   0  0  0  0  0  2  0  0  0  0  0  0
  184.3520  179.1130  145.5570 O   0  0  0  0  0  1  0  0  0  0  0  0
  184.7690  178.4570  144.4000 C   0  0  2  0  0  3  0  0  0  0  0  0
  186.1510  177.8540  144.6190 C   0  0  0  0  0  2  0  0  0  0  0  0
  186.1100  176.8800  145.6020 F   0  0  0  0  0  0  0  0  0  0  0  0
  182.8720  175.8620  135.7260 C   0  0  0  0  0  2  0  0  0  0  0  0
  181.9190  175.2670  136.7060 C   0  0  0  0  0  0  0  0  0  0  0  0
  180.6800  175.4560  136.5780 O   0  0  0  0  0  0  0  0  0  0  0  0
  182.3950  174.4770  137.7440 O   0  0  0  0  0  1  0  0  0  0  0  0
  2  7  1  6  0  0  0
  2  3  1  0  0  0  0
  2  6  1  0  0  0  0
  3  5  1  0  0  0  0
  4  1  2  0  0  0  0
  5 30  1  0  0  0  0
  5  1  1  0  0  0  0
  6  4  1  0  0  0  0
  8  7  1  0  0  0  0
  9  8  1  0  0  0  0
 10  9  1  0  0  0  0
 11 10  1  0  0  0  0
 11 12  1  0  0  0  0
 12 19  1  0  0  0  0
 13 22  1  1  0  0  0
 13 27  1  0  0  0  0
 15 25  1  1  0  0  0
 15 27  1  0  0  0  0
 18 17  1  6  0  0  0
 18 23  1  0  0  0  0
 18 15  1  0  0  0  0
 19 15  1  0  0  0  0
 19 16  1  1  0  0  0
 20 13  1  0  0  0  0
 21 26  1  6  0  0  0
 21 18  1  0  0  0  0
 21 23  1  0  0  0  0
 21 13  1  0  0  0  0
 23 14  1  1  0  0  0
 24 20  1  0  0  0  0
 24 19  1  0  0  0  0
 28 29  1  0  0  0  0
 28 23  1  0  0  0  0
 31 45  1  0  0  0  0
 31 30  1  0  0  0  0
 32 37  1  0  0  0  0
 33 46  1  0  0  0  0
 34 37  1  0  0  0  0
 35 36  1  1  0  0  0
 35 38  1  0  0  0  0
 36 34  1  0  0  0  0
 38 32  1  0  0  0  0
 39 41  2  0  0  0  0
 39 45  1  0  0  0  0
 40 46  1  0  0  0  0
 41 35  1  0  0  0  0
 42 52  1  1  0  0  0
 42 44  1  0  0  0  0
 42 40  1  0  0  0  0
 43 38  1  0  0  0  0
 43 47  1  0  0  0  0
 44 33  1  0  0  0  0
 45 43  2  0  0  0  0
 46 39  1  0  0  0  0
 47 49  1  0  0  0  0
 49 50  1  0  0  0  0
 49 48  1  1  0  0  0
 50 51  1  0  0  0  0
 52 53  1  0  0  0  0
 53 55  1  0  0  0  0
 54 53  2  0  0  0  0
M  END
>  <MODEL>
8

>  <REMARK>
 VINA RESULT:      -5.7      4.704      9.518
  Name = 
  16 active torsions:
  status: ('A' for Active; 'I' for Inactive)
    1  A    between atoms: C_2  and  C_28
    2  A    between atoms: C_2  and  N_44
    3  A    between atoms: C_4  and  C_40
    4  A    between atoms: C_8  and  N_22
    5  A    between atoms: C_8  and  C_43
    6  A    between atoms: C_10  and  C_32
    7  A    between atoms: C_11  and  C_38
    8  A    between atoms: C_19  and  C_40
    9  A    between atoms: C_19  and  C_45
   10  A    between atoms: C_20  and  N_22
   11  A    between atoms: C_27  and  C_54
   12  A    between atoms: C_28  and  C_49
   13  A    between atoms: C_32  and  C_39
   14  A    between atoms: C_35  and  C_43
   15  A    between atoms: C_35  and  C_51
   16  A    between atoms: C_51  and  C_54
                            x       y       z     vdW  Elec       q    Type
                         _______ _______ _______ _____ _____    ______ ____

>  <TORSDO>
F 16

$$$$
=
 OpenBabel10262420363D

 55 61  0  0  1  0  0  0  0  0999 V2000
  190.3940  176.9130  139.5870 C   0  0  0  0  0  3  0  0  0  0  0  0
  189.8330  176.1220  136.9250 C   0  0  1  0  0  3  0  0  0  0  0  0
  188.7260  175.9430  137.9610 C   0  0  0  0  0  2  0  0  0  0  0  0
  191.4150  176.5040  138.8300 C   0  0  0  0  0  3  0  0  0  0  0  0
  189.0350  176.7090  139.1650 N   0  0  0  0  0  0  0  0  0  0  0  0
  191.1890  175.7640  137.5410 C   0  0  0  0  0  2  0  0  0  0  0  0
  189.5460  175.3040  135.6670 C   0  0  0  0  0  2  0  0  0  0  0  0
  188.3490  175.8350  134.8880 C   0  0  0  0  0  2  0  0  0  0  0  0
  187.2600  174.7750  134.7900 C   0  0  0  0  0  2  0  0  0  0  0  0
  187.5440  173.5930  135.7060 C   0  0  0  0  0  2  0  0  0  0  0  0
  186.3350  173.2760  136.5640 C   0  0  0  0  0  2  0  0  0  0  0  0
  185.1210  173.6210  135.8310 N   0  0  0  0  0  2  0  0  0  0  0  0
  181.7920  175.1660  137.6970 C   0  0  2  0  0  0  0  0  0  0  0  0
  180.3080  175.7600  135.1790 O   0  0  0  0  0  1  0  0  0  0  0  0
  182.6550  174.0780  135.9760 C   0  0  2  0  0  0  0  0  0  0  0  0
  183.7360  172.2770  137.1650 F   0  0  0  0  0  0  0  0  0  0  0  0
  183.9840  176.0700  135.1290 O   0  0  0  0  0  1  0  0  0  0  0  0
  182.7500  175.5510  135.5420 C   0  0  2  0  0  0  0  0  0  0  0  0
  183.9410  173.5710  136.7040 C   0  0  1  0  0  0  0  0  0  0  0  0
  182.9370  174.8710  138.6840 C   0  0  0  0  0  2  0  0  0  0  0  0
  182.1500  176.3000  136.7310 C   0  0  1  0  0  0  0  0  0  0  0  0
  180.5220  175.4960  138.4600 C   0  0  0  0  0  1  0  0  0  0  0  0
  181.5230  176.4340  135.3480 C   0  0  2  0  0  0  0  0  0  0  0  0
  184.2200  174.4640  137.9310 C   0  0  0  0  0  2  0  0  0  0  0  0
  182.3490  173.2750  134.8750 O   0  0  0  0  0  1  0  0  0  0  0  0
  182.9680  177.3430  137.1840 O   0  0  0  0  0  1  0  0  0  0  0  0
  181.6000  174.0140  136.9100 O   0  0  0  0  0  0  0  0  0  0  0  0
  181.6970  177.7660  134.6330 C   0  0  0  0  0  2  0  0  0  0  0  0
  180.6100  178.5970  134.9080 O   0  0  0  0  0  1  0  0  0  0  0  0
  187.9350  177.2610  139.9400 C   0  0  0  0  0  2  0  0  0  0  0  0
  188.4640  178.2370  140.9800 C   0  0  0  0  0  2  0  0  0  0  0  0
  184.0590  179.5020  142.9330 C   0  0  0  0  0  2  0  0  0  0  0  0
  190.4240  178.1920  143.1720 C   0  0  0  0  0  2  0  0  0  0  0  0
  183.5380  178.9810  145.3300 C   0  0  0  0  0  2  0  0  0  0  0  0
  185.5810  177.9060  144.2030 C   0  0  1  0  0  3  0  0  0  0  0  0
  184.9790  178.4780  145.4890 C   0  0  0  0  0  2  0  0  0  0  0  0
  183.0210  178.9320  143.8960 C   0  0  0  0  0  2  0  0  0  0  0  0
  185.3440  178.8070  143.0630 N   0  0  0  0  0  0  0  0  0  0  0  0
  187.9150  177.8280  143.4850 C   0  0  0  0  0  0  0  0  0  0  0  0
  189.6680  176.7670  144.9710 C   0  0  0  0  0  2  0  0  0  0  0  0
  187.0100  177.6780  144.4090 N   0  0  0  0  0  0  0  0  0  0  0  0
  191.1840  176.7730  144.9990 C   0  0  1  0  0  3  0  0  0  0  0  0
  186.2740  178.8180  141.9620 C   0  0  0  0  0  0  0  0  0  0  0  0
  191.6300  177.8580  144.0270 C   0  0  0  0  0  2  0  0  0  0  0  0
  187.5150  178.3240  142.1390 C   0  0  0  0  0  0  0  0  0  0  0  0
  189.2890  177.5540  143.8130 N   0  0  0  0  0  0  0  0  0  0  0  0
  185.8450  179.3630  140.6250 C   0  0  0  0  0  2  0  0  0  0  0  0
  184.4000  177.6090  139.8930 O   0  0  0  0  0  1  0  0  0  0  0  0
  184.4190  178.9470  140.2870 C   0  0  2  0  0  3  0  0  0  0  0  0
  183.8330  179.8170  139.1830 C   0  0  0  0  0  2  0  0  0  0  0  0
  182.4740  179.5910  139.0490 F   0  0  0  0  0  0  0  0  0  0  0  0
  191.6710  177.0760  146.4080 C   0  0  0  0  0  2  0  0  0  0  0  0
  192.3250  175.8790  147.0110 C   0  0  0  0  0  0  0  0  0  0  0  0
  192.3260  174.7810  146.3930 O   0  0  0  0  0  0  0  0  0  0  0  0
  192.9630  175.9830  148.2400 O   0  0  0  0  0  1  0  0  0  0  0  0
  2  7  1  6  0  0  0
  2  6  1  0  0  0  0
  2  3  1  0  0  0  0
  3  5  1  0  0  0  0
  4  1  2  0  0  0  0
  5  1  1  0  0  0  0
  5 30  1  0  0  0  0
  6  4  1  0  0  0  0
  8  7  1  0  0  0  0
  9  8  1  0  0  0  0
  9 10  1  0  0  0  0
 10 11  1  0  0  0  0
 12 11  1  0  0  0  0
 12 19  1  0  0  0  0
 13 22  1  1  0  0  0
 13 20  1  0  0  0  0
 15 25  1  6  0  0  0
 15 19  1  0  0  0  0
 15 27  1  0  0  0  0
 18 17  1  6  0  0  0
 18 15  1  0  0  0  0
 18 21  1  0  0  0  0
 19 16  1  1  0  0  0
 19 24  1  0  0  0  0
 21 26  1  1  0  0  0
 21 13  1  0  0  0  0
 23 14  1  6  0  0  0
 23 18  1  0  0  0  0
 23 21  1  0  0  0  0
 24 20  1  0  0  0  0
 27 13  1  0  0  0  0
 28 29  1  0  0  0  0
 28 23  1  0  0  0  0
 30 31  1  0  0  0  0
 31 45  1  0  0  0  0
 32 38  1  0  0  0  0
 32 37  1  0  0  0  0
 33 46  1  0  0  0  0
 33 44  1  0  0  0  0
 34 36  1  0  0  0  0
 35 41  1  0  0  0  0
 35 36  1  1  0  0  0
 37 34  1  0  0  0  0
 38 35  1  0  0  0  0
 39 46  1  0  0  0  0
 39 41  2  0  0  0  0
 40 42  1  0  0  0  0
 42 52  1  1  0  0  0
 43 45  2  0  0  0  0
 43 38  1  0  0  0  0
 44 42  1  0  0  0  0
 45 39  1  0  0  0  0
 46 40  1  0  0  0  0
 47 43  1  0  0  0  0
 49 48  1  6  0  0  0
 49 47  1  0  0  0  0
 50 49  1  0  0  0  0
 51 50  1  0  0  0  0
 52 53  1  0  0  0  0
 53 55  1  0  0  0  0
 54 53  2  0  0  0  0
M  END
>  <MODEL>
9

>  <REMARK>
 VINA RESULT:      -5.7      2.860      5.899
  Name = 
  16 active torsions:
  status: ('A' for Active; 'I' for Inactive)
    1  A    between atoms: C_2  and  C_28
    2  A    between atoms: C_2  and  N_44
    3  A    between atoms: C_4  and  C_40
    4  A    between atoms: C_8  and  N_22
    5  A    between atoms: C_8  and  C_43
    6  A    between atoms: C_10  and  C_32
    7  A    between atoms: C_11  and  C_38
    8  A    between atoms: C_19  and  C_40
    9  A    between atoms: C_19  and  C_45
   10  A    between atoms: C_20  and  N_22
   11  A    between atoms: C_27  and  C_54
   12  A    between atoms: C_28  and  C_49
   13  A    between atoms: C_32  and  C_39
   14  A    between atoms: C_35  and  C_43
   15  A    between atoms: C_35  and  C_51
   16  A    between atoms: C_51  and  C_54
                            x       y       z     vdW  Elec       q    Type
                         _______ _______ _______ _____ _____    ______ ____

>  <TORSDO>
F 16

$$$$
