=
 OpenBabel10262420063D

 27 29  0  0  1  0  0  0  0  0999 V2000
  189.1480  177.9530  144.0690 C   0  0  2  0  0  3  0  0  0  0  0  0
  191.4800  176.3110  147.2910 C   0  0  0  0  0  3  0  0  0  0  0  0
  189.9860  177.3900  145.1800 C   0  0  0  0  0  0  0  0  0  0  0  0
  191.1560  176.6600  144.9190 C   0  0  0  0  0  3  0  0  0  0  0  0
  191.9020  176.1250  145.9730 C   0  0  0  0  0  3  0  0  0  0  0  0
  190.3120  177.0320  147.5570 C   0  0  0  0  0  3  0  0  0  0  0  0
  189.5660  177.5670  146.5030 C   0  0  0  0  0  3  0  0  0  0  0  0
  187.7420  176.8650  143.6380 S   0  0  0  0  0  0  0  0  0  0  0  0
  184.3520  178.8320  145.0950 C   0  0  0  0  0  2  0  0  0  0  0  0
  183.5500  178.6970  143.8040 C   0  0  0  0  0  2  0  0  0  0  0  0
  186.4630  178.1670  143.7620 C   0  0  1  0  0  3  0  0  0  0  0  0
  186.2080  177.7330  146.1780 C   0  0  0  0  0  2  0  0  0  0  0  0
  184.4140  179.0690  142.6070 C   0  0  0  0  0  2  0  0  0  0  0  0
  185.5870  178.0990  142.5110 C   0  0  0  0  0  2  0  0  0  0  0  0
  185.6270  178.0420  145.0190 C   0  0  0  0  0  0  0  0  0  0  0  0
  189.9460  178.2640  142.8930 N   0  0  0  0  0  2  0  0  0  0  0  0
  189.4260  177.4540  141.8040 C   0  0  0  0  0  2  0  0  0  0  0  0
  192.8310  177.2270  140.1820 C   0  0  0  0  0  3  0  0  0  0  0  0
  193.5160  176.7280  137.9300 O   0  0  0  0  0  1  0  0  0  0  0  0
  191.1610  176.7660  138.4840 C   0  0  0  0  0  0  0  0  0  0  0  0
  190.8810  176.4580  137.1910 F   0  0  0  0  0  0  0  0  0  0  0  0
  190.1310  176.9530  139.4380 C   0  0  0  0  0  0  0  0  0  0  0  0
  192.5020  176.9070  138.8640 C   0  0  0  0  0  0  0  0  0  0  0  0
  190.4790  177.2790  140.7620 C   0  0  0  0  0  0  0  0  0  0  0  0
  191.8230  177.4110  141.1290 C   0  0  0  0  0  3  0  0  0  0  0  0
  188.0240  177.7760  138.3660 C   0  0  0  0  0  1  0  0  0  0  0  0
  188.7670  176.8280  139.1200 O   0  0  0  0  0  0  0  0  0  0  0  0
  1 16  1  6  0  0  0
  1  3  1  0  0  0  0
  2  6  1  0  0  0  0
  3  7  1  0  0  0  0
  4  3  2  0  0  0  0
  4  5  1  0  0  0  0
  5  2  2  0  0  0  0
  7  6  2  0  0  0  0
  8  1  1  0  0  0  0
 10  9  1  0  0  0  0
 11  8  1  6  0  0  0
 11 15  1  0  0  0  0
 13 10  1  0  0  0  0
 14 13  1  0  0  0  0
 14 11  1  0  0  0  0
 15  9  1  0  0  0  0
 15 12  2  0  0  0  0
 17 16  1  0  0  0  0
 18 25  1  0  0  0  0
 19 23  1  0  0  0  0
 20 23  1  0  0  0  0
 20 22  2  0  0  0  0
 21 20  1  0  0  0  0
 22 24  1  0  0  0  0
 23 18  2  0  0  0  0
 24 25  2  0  0  0  0
 24 17  1  0  0  0  0
 26 27  1  0  0  0  0
 27 22  1  0  0  0  0
M  END
>  <MODEL>
1

>  <REMARK>
 VINA RESULT:      -8.7      0.000      0.000
  Name = 
  7 active torsions:
  status: ('A' for Active; 'I' for Inactive)
    1  A    between atoms: S_1  and  C_15
    2  A    between atoms: S_1  and  C_18
    3  A    between atoms: N_2  and  C_6
    4  A    between atoms: N_2  and  C_15
    5  A    between atoms: C_6  and  C_17
    6  A    between atoms: C_9  and  C_15
    7  A    between atoms: C_14  and  O_19
                            x       y       z     vdW  Elec       q    Type
                         _______ _______ _______ _____ _____    ______ ____

>  <TORSDO>
F 7

$$$$
=
 OpenBabel10262420063D

 27 29  0  0  1  0  0  0  0  0999 V2000
  188.8200  177.9540  143.8660 C   0  0  2  0  0  3  0  0  0  0  0  0
  191.3570  176.5110  147.0280 C   0  0  0  0  0  3  0  0  0  0  0  0
  189.7280  177.4640  144.9560 C   0  0  0  0  0  0  0  0  0  0  0  0
  190.9650  176.8660  144.6670 C   0  0  0  0  0  3  0  0  0  0  0  0
  191.7770  176.3940  145.7010 C   0  0  0  0  0  3  0  0  0  0  0  0
  190.1240  177.1000  147.3220 C   0  0  0  0  0  3  0  0  0  0  0  0
  189.3110  177.5730  146.2870 C   0  0  0  0  0  3  0  0  0  0  0  0
  187.3610  176.8750  143.6360 S   0  0  0  0  0  0  0  0  0  0  0  0
  184.1500  178.9460  145.3340 C   0  0  0  0  0  2  0  0  0  0  0  0
  183.2330  178.7920  144.1250 C   0  0  0  0  0  2  0  0  0  0  0  0
  186.1210  178.2040  143.8380 C   0  0  1  0  0  3  0  0  0  0  0  0
  186.0780  177.8420  146.2780 C   0  0  0  0  0  2  0  0  0  0  0  0
  183.9920  179.1140  142.8450 C   0  0  0  0  0  2  0  0  0  0  0  0
  185.1350  178.1200  142.6730 C   0  0  0  0  0  2  0  0  0  0  0  0
  185.3990  178.1300  145.1680 C   0  0  0  0  0  0  0  0  0  0  0  0
  189.5320  178.1420  142.6110 N   0  0  0  0  0  2  0  0  0  0  0  0
  188.5880  177.8560  141.5440 C   0  0  0  0  0  2  0  0  0  0  0  0
  191.2430  176.5080  139.2170 C   0  0  0  0  0  3  0  0  0  0  0  0
  191.4520  176.5340  136.8200 O   0  0  0  0  0  1  0  0  0  0  0  0
  189.5280  177.5650  137.8650 C   0  0  0  0  0  0  0  0  0  0  0  0
  189.0740  177.9020  136.6300 F   0  0  0  0  0  0  0  0  0  0  0  0
  188.8080  177.9080  139.0340 C   0  0  0  0  0  0  0  0  0  0  0  0
  190.7410  176.8690  137.9660 C   0  0  0  0  0  0  0  0  0  0  0  0
  189.3310  177.5400  140.2890 C   0  0  0  0  0  0  0  0  0  0  0  0
  190.5400  176.8410  140.3750 C   0  0  0  0  0  3  0  0  0  0  0  0
  186.3940  178.1160  138.4070 C   0  0  0  0  0  1  0  0  0  0  0  0
  187.5880  178.6060  139.0000 O   0  0  0  0  0  0  0  0  0  0  0  0
  1 16  1  6  0  0  0
  1  3  1  0  0  0  0
  2  6  1  0  0  0  0
  3  7  1  0  0  0  0
  4  3  2  0  0  0  0
  4  5  1  0  0  0  0
  5  2  2  0  0  0  0
  7  6  2  0  0  0  0
  8  1  1  0  0  0  0
 10  9  1  0  0  0  0
 11  8  1  6  0  0  0
 11 15  1  0  0  0  0
 13 10  1  0  0  0  0
 14 13  1  0  0  0  0
 14 11  1  0  0  0  0
 15  9  1  0  0  0  0
 15 12  2  0  0  0  0
 17 16  1  0  0  0  0
 18 25  1  0  0  0  0
 19 23  1  0  0  0  0
 20 23  1  0  0  0  0
 20 22  2  0  0  0  0
 21 20  1  0  0  0  0
 22 24  1  0  0  0  0
 23 18  2  0  0  0  0
 24 25  2  0  0  0  0
 24 17  1  0  0  0  0
 26 27  1  0  0  0  0
 27 22  1  0  0  0  0
M  END
>  <MODEL>
2

>  <REMARK>
 VINA RESULT:      -8.6      1.060      1.223
  Name = 
  7 active torsions:
  status: ('A' for Active; 'I' for Inactive)
    1  A    between atoms: S_1  and  C_15
    2  A    between atoms: S_1  and  C_18
    3  A    between atoms: N_2  and  C_6
    4  A    between atoms: N_2  and  C_15
    5  A    between atoms: C_6  and  C_17
    6  A    between atoms: C_9  and  C_15
    7  A    between atoms: C_14  and  O_19
                            x       y       z     vdW  Elec       q    Type
                         _______ _______ _______ _____ _____    ______ ____

>  <TORSDO>
F 7

$$$$
=
 OpenBabel10262420063D

 27 29  0  0  1  0  0  0  0  0999 V2000
  188.6740  177.9890  144.1280 C   0  0  2  0  0  3  0  0  0  0  0  0
  191.3300  176.6320  147.2300 C   0  0  0  0  0  3  0  0  0  0  0  0
  189.6230  177.5310  145.1980 C   0  0  0  0  0  0  0  0  0  0  0  0
  190.9090  177.0620  144.8870 C   0  0  0  0  0  3  0  0  0  0  0  0
  191.7600  176.6160  145.9010 C   0  0  0  0  0  3  0  0  0  0  0  0
  190.0490  177.0930  147.5460 C   0  0  0  0  0  3  0  0  0  0  0  0
  189.1970  177.5390  146.5310 C   0  0  0  0  0  3  0  0  0  0  0  0
  187.2240  176.8870  143.9650 S   0  0  0  0  0  0  0  0  0  0  0  0
  183.8940  179.1350  145.1230 C   0  0  0  0  0  2  0  0  0  0  0  0
  183.0880  178.8460  143.8610 C   0  0  0  0  0  2  0  0  0  0  0  0
  185.9840  178.2300  143.9030 C   0  0  1  0  0  3  0  0  0  0  0  0
  185.7180  178.1450  146.3550 C   0  0  0  0  0  2  0  0  0  0  0  0
  183.9620  179.0220  142.6270 C   0  0  0  0  0  2  0  0  0  0  0  0
  185.1060  178.0150  142.6710 C   0  0  0  0  0  2  0  0  0  0  0  0
  185.1450  178.3060  145.1630 C   0  0  0  0  0  0  0  0  0  0  0  0
  189.3440  178.1620  142.8480 N   0  0  0  0  0  2  0  0  0  0  0  0
  189.0170  176.9980  142.0410 C   0  0  0  0  0  2  0  0  0  0  0  0
  187.4810  178.3990  138.8860 C   0  0  0  0  0  3  0  0  0  0  0  0
  188.3370  178.6600  136.6520 O   0  0  0  0  0  1  0  0  0  0  0  0
  189.7360  177.6730  138.3620 C   0  0  0  0  0  0  0  0  0  0  0  0
  190.7210  177.5360  137.4370 F   0  0  0  0  0  0  0  0  0  0  0  0
  189.9160  177.2460  139.7000 C   0  0  0  0  0  0  0  0  0  0  0  0
  188.5190  178.2440  137.9650 C   0  0  0  0  0  0  0  0  0  0  0  0
  188.8570  177.4070  140.6140 C   0  0  0  0  0  0  0  0  0  0  0  0
  187.6500  177.9830  140.2060 C   0  0  0  0  0  3  0  0  0  0  0  0
  192.3110  177.3810  140.4120 C   0  0  0  0  0  1  0  0  0  0  0  0
  191.1110  176.6650  140.1600 O   0  0  0  0  0  0  0  0  0  0  0  0
  1 16  1  6  0  0  0
  1  3  1  0  0  0  0
  2  6  1  0  0  0  0
  3  7  1  0  0  0  0
  4  3  2  0  0  0  0
  4  5  1  0  0  0  0
  5  2  2  0  0  0  0
  7  6  2  0  0  0  0
  8  1  1  0  0  0  0
  9 15  1  0  0  0  0
 10  9  1  0  0  0  0
 11  8  1  1  0  0  0
 11 15  1  0  0  0  0
 13 14  1  0  0  0  0
 13 10  1  0  0  0  0
 14 11  1  0  0  0  0
 15 12  2  0  0  0  0
 17 16  1  0  0  0  0
 18 25  1  0  0  0  0
 19 23  1  0  0  0  0
 20 22  2  0  0  0  0
 21 20  1  0  0  0  0
 22 27  1  0  0  0  0
 22 24  1  0  0  0  0
 23 20  1  0  0  0  0
 23 18  2  0  0  0  0
 24 17  1  0  0  0  0
 25 24  2  0  0  0  0
 27 26  1  0  0  0  0
M  END
>  <MODEL>
3

>  <REMARK>
 VINA RESULT:      -8.4      1.087      2.291
  Name = 
  7 active torsions:
  status: ('A' for Active; 'I' for Inactive)
    1  A    between atoms: S_1  and  C_15
    2  A    between atoms: S_1  and  C_18
    3  A    between atoms: N_2  and  C_6
    4  A    between atoms: N_2  and  C_15
    5  A    between atoms: C_6  and  C_17
    6  A    between atoms: C_9  and  C_15
    7  A    between atoms: C_14  and  O_19
                            x       y       z     vdW  Elec       q    Type
                         _______ _______ _______ _____ _____    ______ ____

>  <TORSDO>
F 7

$$$$
=
 OpenBabel10262420063D

 27 29  0  0  1  0  0  0  0  0999 V2000
  187.6160  177.2340  143.8400 C   0  0  2  0  0  3  0  0  0  0  0  0
  183.8840  178.9170  145.1670 C   0  0  0  0  0  3  0  0  0  0  0  0
  186.3000  177.8030  144.2840 C   0  0  0  0  0  0  0  0  0  0  0  0
  185.3130  178.1790  143.3590 C   0  0  0  0  0  3  0  0  0  0  0  0
  184.1090  178.7310  143.8010 C   0  0  0  0  0  3  0  0  0  0  0  0
  184.8650  178.5490  146.0920 C   0  0  0  0  0  3  0  0  0  0  0  0
  186.0710  177.9960  145.6510 C   0  0  0  0  0  3  0  0  0  0  0  0
  189.0390  178.1990  144.4650 S   0  0  0  0  0  0  0  0  0  0  0  0
  190.9730  176.1300  147.5420 C   0  0  0  0  0  2  0  0  0  0  0  0
  192.2750  175.9270  146.7740 C   0  0  0  0  0  2  0  0  0  0  0  0
  189.8490  176.7950  145.3120 C   0  0  1  0  0  3  0  0  0  0  0  0
  189.0790  177.6270  147.5040 C   0  0  0  0  0  2  0  0  0  0  0  0
  191.9800  175.4520  145.3570 C   0  0  0  0  0  2  0  0  0  0  0  0
  191.1850  176.5250  144.6200 C   0  0  0  0  0  2  0  0  0  0  0  0
  190.0450  177.0430  146.7940 C   0  0  0  0  0  0  0  0  0  0  0  0
  187.6820  177.0860  142.3940 N   0  0  0  0  0  2  0  0  0  0  0  0
  188.4120  178.2350  141.8860 C   0  0  0  0  0  2  0  0  0  0  0  0
  191.2090  176.8060  139.7850 C   0  0  0  0  0  3  0  0  0  0  0  0
  191.4930  176.5930  137.4040 O   0  0  0  0  0  1  0  0  0  0  0  0
  189.4840  177.6150  138.2830 C   0  0  0  0  0  0  0  0  0  0  0  0
  189.0510  177.7950  137.0080 F   0  0  0  0  0  0  0  0  0  0  0  0
  188.7090  178.0370  139.3910 C   0  0  0  0  0  0  0  0  0  0  0  0
  190.7280  177.0050  138.4890 C   0  0  0  0  0  0  0  0  0  0  0  0
  189.2110  177.8330  140.6910 C   0  0  0  0  0  0  0  0  0  0  0  0
  190.4530  177.2170  140.8820 C   0  0  0  0  0  3  0  0  0  0  0  0
  186.3490  178.0940  138.5590 C   0  0  0  0  0  1  0  0  0  0  0  0
  187.4540  178.6570  139.2520 O   0  0  0  0  0  0  0  0  0  0  0  0
  1 16  1  6  0  0  0
  1  3  1  0  0  0  0
  1  8  1  0  0  0  0
  2  6  1  0  0  0  0
  3  7  1  0  0  0  0
  4  5  1  0  0  0  0
  4  3  2  0  0  0  0
  5  2  2  0  0  0  0
  7  6  2  0  0  0  0
 10  9  1  0  0  0  0
 11  8  1  6  0  0  0
 11 15  1  0  0  0  0
 13 10  1  0  0  0  0
 14 11  1  0  0  0  0
 14 13  1  0  0  0  0
 15 12  2  0  0  0  0
 15  9  1  0  0  0  0
 17 16  1  0  0  0  0
 18 25  1  0  0  0  0
 19 23  1  0  0  0  0
 20 23  1  0  0  0  0
 20 22  2  0  0  0  0
 21 20  1  0  0  0  0
 22 24  1  0  0  0  0
 23 18  2  0  0  0  0
 24 25  2  0  0  0  0
 24 17  1  0  0  0  0
 26 27  1  0  0  0  0
 27 22  1  0  0  0  0
M  END
>  <MODEL>
4

>  <REMARK>
 VINA RESULT:      -8.4      1.330      4.742
  Name = 
  7 active torsions:
  status: ('A' for Active; 'I' for Inactive)
    1  A    between atoms: S_1  and  C_15
    2  A    between atoms: S_1  and  C_18
    3  A    between atoms: N_2  and  C_6
    4  A    between atoms: N_2  and  C_15
    5  A    between atoms: C_6  and  C_17
    6  A    between atoms: C_9  and  C_15
    7  A    between atoms: C_14  and  O_19
                            x       y       z     vdW  Elec       q    Type
                         _______ _______ _______ _____ _____    ______ ____

>  <TORSDO>
F 7

$$$$
=
 OpenBabel10262420063D

 27 29  0  0  1  0  0  0  0  0999 V2000
  188.0370  177.8270  142.5210 C   0  0  2  0  0  3  0  0  0  0  0  0
  191.4580  177.4350  139.9390 C   0  0  0  0  0  3  0  0  0  0  0  0
  189.2190  177.7110  141.6030 C   0  0  0  0  0  0  0  0  0  0  0  0
  189.0620  177.6370  140.2090 C   0  0  0  0  0  3  0  0  0  0  0  0
  190.1790  177.5020  139.3810 C   0  0  0  0  0  3  0  0  0  0  0  0
  191.6200  177.5030  141.3260 C   0  0  0  0  0  3  0  0  0  0  0  0
  190.5030  177.6380  142.1550 C   0  0  0  0  0  3  0  0  0  0  0  0
  187.9890  176.4890  143.7670 S   0  0  0  0  0  0  0  0  0  0  0  0
  189.2640  177.8780  147.4980 C   0  0  0  0  0  2  0  0  0  0  0  0
  187.9060  177.7200  148.1750 C   0  0  0  0  0  2  0  0  0  0  0  0
  188.0780  177.5940  145.2210 C   0  0  1  0  0  3  0  0  0  0  0  0
  190.4370  176.9740  145.5920 C   0  0  0  0  0  2  0  0  0  0  0  0
  186.8070  178.2830  147.2840 C   0  0  0  0  0  2  0  0  0  0  0  0
  186.7560  177.4900  145.9830 C   0  0  0  0  0  2  0  0  0  0  0  0
  189.2520  177.2750  146.1230 C   0  0  0  0  0  0  0  0  0  0  0  0
  186.7840  177.8990  141.7840 N   0  0  0  0  0  2  0  0  0  0  0  0
  186.2010  179.1980  142.0730 C   0  0  0  0  0  2  0  0  0  0  0  0
  183.2130  179.0260  144.3810 C   0  0  0  0  0  3  0  0  0  0  0  0
  180.8760  178.6290  143.9680 O   0  0  0  0  0  1  0  0  0  0  0  0
  182.4350  178.6280  142.1170 C   0  0  0  0  0  0  0  0  0  0  0  0
  181.3970  178.3670  141.2810 F   0  0  0  0  0  0  0  0  0  0  0  0
  183.7590  178.7590  141.6320 C   0  0  0  0  0  0  0  0  0  0  0  0
  182.1730  178.7610  143.4880 C   0  0  0  0  0  0  0  0  0  0  0  0
  184.7960  179.0230  142.5470 C   0  0  0  0  0  0  0  0  0  0  0  0
  184.5200  179.1580  143.9120 C   0  0  0  0  0  3  0  0  0  0  0  0
  183.7230  179.5710  139.2650 C   0  0  0  0  0  1  0  0  0  0  0  0
  184.0860  178.6360  140.2710 O   0  0  0  0  0  0  0  0  0  0  0  0
  1 16  1  6  0  0  0
  1  8  1  0  0  0  0
  2  6  1  0  0  0  0
  3  7  1  0  0  0  0
  3  1  1  0  0  0  0
  4  3  2  0  0  0  0
  5  2  2  0  0  0  0
  5  4  1  0  0  0  0
  6  7  2  0  0  0  0
  9 10  1  0  0  0  0
 11  8  1  6  0  0  0
 11 14  1  0  0  0  0
 11 15  1  0  0  0  0
 12 15  2  0  0  0  0
 13 10  1  0  0  0  0
 14 13  1  0  0  0  0
 15  9  1  0  0  0  0
 16 17  1  0  0  0  0
 17 24  1  0  0  0  0
 20 23  1  0  0  0  0
 21 20  1  0  0  0  0
 22 20  2  0  0  0  0
 22 24  1  0  0  0  0
 23 19  1  0  0  0  0
 23 18  2  0  0  0  0
 24 25  2  0  0  0  0
 25 18  1  0  0  0  0
 26 27  1  0  0  0  0
 27 22  1  0  0  0  0
M  END
>  <MODEL>
5

>  <REMARK>
 VINA RESULT:      -8.3      3.245      6.757
  Name = 
  7 active torsions:
  status: ('A' for Active; 'I' for Inactive)
    1  A    between atoms: S_1  and  C_15
    2  A    between atoms: S_1  and  C_18
    3  A    between atoms: N_2  and  C_6
    4  A    between atoms: N_2  and  C_15
    5  A    between atoms: C_6  and  C_17
    6  A    between atoms: C_9  and  C_15
    7  A    between atoms: C_14  and  O_19
                            x       y       z     vdW  Elec       q    Type
                         _______ _______ _______ _____ _____    ______ ____

>  <TORSDO>
F 7

$$$$
=
 OpenBabel10262420063D

 27 29  0  0  1  0  0  0  0  0999 V2000
  188.6640  177.9430  142.0980 C   0  0  2  0  0  3  0  0  0  0  0  0
  190.1780  177.2990  138.1220 C   0  0  0  0  0  3  0  0  0  0  0  0
  189.1930  177.7480  140.7080 C   0  0  0  0  0  0  0  0  0  0  0  0
  188.6800  178.4700  139.6190 C   0  0  0  0  0  3  0  0  0  0  0  0
  189.1740  178.2470  138.3310 C   0  0  0  0  0  3  0  0  0  0  0  0
  190.6890  176.5730  139.2020 C   0  0  0  0  0  3  0  0  0  0  0  0
  190.1950  176.7960  140.4910 C   0  0  0  0  0  3  0  0  0  0  0  0
  188.7510  176.4140  143.0990 S   0  0  0  0  0  0  0  0  0  0  0  0
  191.5980  176.7450  146.1430 C   0  0  0  0  0  2  0  0  0  0  0  0
  190.5820  176.7500  147.2810 C   0  0  0  0  0  2  0  0  0  0  0  0
  189.6480  177.1700  144.5020 C   0  0  1  0  0  3  0  0  0  0  0  0
  191.7220  176.0020  143.8500 C   0  0  0  0  0  2  0  0  0  0  0  0
  189.4340  177.6960  146.9560 C   0  0  0  0  0  2  0  0  0  0  0  0
  188.7100  177.2020  145.7090 C   0  0  0  0  0  2  0  0  0  0  0  0
  190.9340  176.4390  144.8320 C   0  0  0  0  0  0  0  0  0  0  0  0
  187.3130  178.4850  142.0920 N   0  0  0  0  0  2  0  0  0  0  0  0
  186.4830  177.5570  142.8420 C   0  0  0  0  0  2  0  0  0  0  0  0
  183.0260  178.7340  141.8700 C   0  0  0  0  0  3  0  0  0  0  0  0
  181.1720  179.5450  143.1720 O   0  0  0  0  0  1  0  0  0  0  0  0
  183.2280  178.9130  144.2820 C   0  0  0  0  0  0  0  0  0  0  0  0
  182.6570  179.2490  145.4680 F   0  0  0  0  0  0  0  0  0  0  0  0
  184.5560  178.4270  144.2130 C   0  0  0  0  0  0  0  0  0  0  0  0
  182.4750  179.0640  143.1090 C   0  0  0  0  0  0  0  0  0  0  0  0
  185.0980  178.1020  142.9550 C   0  0  0  0  0  0  0  0  0  0  0  0
  184.3330  178.2530  141.7930 C   0  0  0  0  0  3  0  0  0  0  0  0
  185.6810  179.2830  146.2780 C   0  0  0  0  0  1  0  0  0  0  0  0
  185.3640  178.2540  145.3510 O   0  0  0  0  0  0  0  0  0  0  0  0
  1 16  1  6  0  0  0
  1  8  1  0  0  0  0
  2  5  2  0  0  0  0
  2  6  1  0  0  0  0
  3  1  1  0  0  0  0
  4  3  2  0  0  0  0
  5  4  1  0  0  0  0
  6  7  2  0  0  0  0
  7  3  1  0  0  0  0
  9 10  1  0  0  0  0
 11  8  1  6  0  0  0
 11 15  1  0  0  0  0
 11 14  1  0  0  0  0
 12 15  2  0  0  0  0
 13 10  1  0  0  0  0
 14 13  1  0  0  0  0
 15  9  1  0  0  0  0
 16 17  1  0  0  0  0
 17 24  1  0  0  0  0
 18 23  1  0  0  0  0
 20 21  1  0  0  0  0
 22 20  1  0  0  0  0
 22 27  1  0  0  0  0
 23 19  1  0  0  0  0
 23 20  2  0  0  0  0
 24 22  2  0  0  0  0
 25 18  2  0  0  0  0
 25 24  1  0  0  0  0
 27 26  1  0  0  0  0
M  END
>  <MODEL>
6

>  <REMARK>
 VINA RESULT:      -8.3      3.647      7.564
  Name = 
  7 active torsions:
  status: ('A' for Active; 'I' for Inactive)
    1  A    between atoms: S_1  and  C_15
    2  A    between atoms: S_1  and  C_18
    3  A    between atoms: N_2  and  C_6
    4  A    between atoms: N_2  and  C_15
    5  A    between atoms: C_6  and  C_17
    6  A    between atoms: C_9  and  C_15
    7  A    between atoms: C_14  and  O_19
                            x       y       z     vdW  Elec       q    Type
                         _______ _______ _______ _____ _____    ______ ____

>  <TORSDO>
F 7

$$$$
=
 OpenBabel10262420063D

 27 29  0  0  1  0  0  0  0  0999 V2000
  187.7060  177.2560  143.9420 C   0  0  2  0  0  3  0  0  0  0  0  0
  183.9370  178.9840  145.0940 C   0  0  0  0  0  3  0  0  0  0  0  0
  186.4060  177.8770  144.3620 C   0  0  0  0  0  0  0  0  0  0  0  0
  186.1100  178.1180  145.7140 C   0  0  0  0  0  3  0  0  0  0  0  0
  184.8800  178.6720  146.0760 C   0  0  0  0  0  3  0  0  0  0  0  0
  184.2240  178.7410  143.7480 C   0  0  0  0  0  3  0  0  0  0  0  0
  185.4550  178.1870  143.3840 C   0  0  0  0  0  3  0  0  0  0  0  0
  189.1540  178.2140  144.5190 S   0  0  0  0  0  0  0  0  0  0  0  0
  190.9720  176.2290  147.7190 C   0  0  0  0  0  2  0  0  0  0  0  0
  192.3000  176.0030  147.0030 C   0  0  0  0  0  2  0  0  0  0  0  0
  189.9300  176.8330  145.4320 C   0  0  1  0  0  3  0  0  0  0  0  0
  189.0850  177.7280  147.5720 C   0  0  0  0  0  2  0  0  0  0  0  0
  192.0550  175.4890  145.5910 C   0  0  0  0  0  2  0  0  0  0  0  0
  191.2890  176.5420  144.7960 C   0  0  0  0  0  2  0  0  0  0  0  0
  190.0740  177.1230  146.9130 C   0  0  0  0  0  0  0  0  0  0  0  0
  187.7640  177.0390  142.5050 N   0  0  0  0  0  2  0  0  0  0  0  0
  188.5870  178.1010  141.9510 C   0  0  0  0  0  2  0  0  0  0  0  0
  188.0800  178.0500  138.2070 C   0  0  0  0  0  3  0  0  0  0  0  0
  189.4510  177.2390  136.4030 O   0  0  0  0  0  1  0  0  0  0  0  0
  190.2270  177.0270  138.6850 C   0  0  0  0  0  0  0  0  0  0  0  0
  191.3550  176.4320  138.2170 F   0  0  0  0  0  0  0  0  0  0  0  0
  190.0210  177.2270  140.0720 C   0  0  0  0  0  0  0  0  0  0  0  0
  189.2540  177.4370  137.7650 C   0  0  0  0  0  0  0  0  0  0  0  0
  188.8300  177.8430  140.5010 C   0  0  0  0  0  0  0  0  0  0  0  0
  187.8690  178.2530  139.5700 C   0  0  0  0  0  3  0  0  0  0  0  0
  192.1860  177.5030  141.2960 C   0  0  0  0  0  1  0  0  0  0  0  0
  190.9570  176.8370  141.0460 O   0  0  0  0  0  0  0  0  0  0  0  0
  1 16  1  6  0  0  0
  1  3  1  0  0  0  0
  1  8  1  0  0  0  0
  2  5  1  0  0  0  0
  3  4  1  0  0  0  0
  4  5  2  0  0  0  0
  6  2  2  0  0  0  0
  7  6  1  0  0  0  0
  7  3  2  0  0  0  0
 10  9  1  0  0  0  0
 11  8  1  6  0  0  0
 11 15  1  0  0  0  0
 13 10  1  0  0  0  0
 14 11  1  0  0  0  0
 14 13  1  0  0  0  0
 15 12  2  0  0  0  0
 15  9  1  0  0  0  0
 17 16  1  0  0  0  0
 18 25  1  0  0  0  0
 19 23  1  0  0  0  0
 20 22  2  0  0  0  0
 21 20  1  0  0  0  0
 22 24  1  0  0  0  0
 22 27  1  0  0  0  0
 23 18  2  0  0  0  0
 23 20  1  0  0  0  0
 24 17  1  0  0  0  0
 25 24  2  0  0  0  0
 27 26  1  0  0  0  0
M  END
>  <MODEL>
7

>  <REMARK>
 VINA RESULT:      -8.1      1.448      5.103
  Name = 
  7 active torsions:
  status: ('A' for Active; 'I' for Inactive)
    1  A    between atoms: S_1  and  C_15
    2  A    between atoms: S_1  and  C_18
    3  A    between atoms: N_2  and  C_6
    4  A    between atoms: N_2  and  C_15
    5  A    between atoms: C_6  and  C_17
    6  A    between atoms: C_9  and  C_15
    7  A    between atoms: C_14  and  O_19
                            x       y       z     vdW  Elec       q    Type
                         _______ _______ _______ _____ _____    ______ ____

>  <TORSDO>
F 7

$$$$
=
 OpenBabel10262420063D

 27 29  0  0  1  0  0  0  0  0999 V2000
  188.2600  177.0780  143.2540 C   0  0  2  0  0  3  0  0  0  0  0  0
  190.2870  177.1350  147.0500 C   0  0  0  0  0  3  0  0  0  0  0  0
  188.9440  177.0840  144.5900 C   0  0  0  0  0  0  0  0  0  0  0  0
  188.2640  177.4560  145.7610 C   0  0  0  0  0  3  0  0  0  0  0  0
  188.9340  177.4790  146.9870 C   0  0  0  0  0  3  0  0  0  0  0  0
  190.9700  176.7690  145.8870 C   0  0  0  0  0  3  0  0  0  0  0  0
  190.3000  176.7460  144.6600 C   0  0  0  0  0  3  0  0  0  0  0  0
  188.8650  178.4100  142.1560 S   0  0  0  0  0  0  0  0  0  0  0  0
  191.1210  176.7500  139.0510 C   0  0  0  0  0  2  0  0  0  0  0  0
  190.1960  177.2320  137.9370 C   0  0  0  0  0  2  0  0  0  0  0  0
  189.2510  177.3150  140.7430 C   0  0  1  0  0  3  0  0  0  0  0  0
  191.6480  177.3450  141.3300 C   0  0  0  0  0  2  0  0  0  0  0  0
  188.7440  176.9530  138.3020 C   0  0  0  0  0  2  0  0  0  0  0  0
  188.3810  177.7350  139.5590 C   0  0  0  0  0  2  0  0  0  0  0  0
  190.7200  177.3390  140.3730 C   0  0  0  0  0  0  0  0  0  0  0  0
  186.8120  177.1290  143.3870 N   0  0  0  0  0  2  0  0  0  0  0  0
  186.3630  178.3010  142.6540 C   0  0  0  0  0  2  0  0  0  0  0  0
  183.1140  178.9980  144.4540 C   0  0  0  0  0  3  0  0  0  0  0  0
  180.8490  179.2120  143.6700 O   0  0  0  0  0  1  0  0  0  0  0  0
  182.6210  178.7380  142.0920 C   0  0  0  0  0  0  0  0  0  0  0  0
  181.6950  178.7280  141.0990 F   0  0  0  0  0  0  0  0  0  0  0  0
  183.9910  178.5010  141.8260 C   0  0  0  0  0  0  0  0  0  0  0  0
  182.1930  178.9830  143.4040 C   0  0  0  0  0  0  0  0  0  0  0  0
  184.9060  178.5160  142.8960 C   0  0  0  0  0  0  0  0  0  0  0  0
  184.4660  178.7670  144.2010 C   0  0  0  0  0  3  0  0  0  0  0  0
  184.5570  179.2140  139.4950 C   0  0  0  0  0  1  0  0  0  0  0  0
  184.4830  178.2480  140.5330 O   0  0  0  0  0  0  0  0  0  0  0  0
  1  8  1  6  0  0  0
  1 16  1  0  0  0  0
  1  3  1  0  0  0  0
  3  7  2  0  0  0  0
  3  4  1  0  0  0  0
  4  5  2  0  0  0  0
  5  2  1  0  0  0  0
  6  2  2  0  0  0  0
  7  6  1  0  0  0  0
  9 15  1  0  0  0  0
 10 13  1  0  0  0  0
 10  9  1  0  0  0  0
 11  8  1  1  0  0  0
 13 14  1  0  0  0  0
 14 11  1  0  0  0  0
 15 11  1  0  0  0  0
 15 12  2  0  0  0  0
 17 24  1  0  0  0  0
 17 16  1  0  0  0  0
 20 23  1  0  0  0  0
 21 20  1  0  0  0  0
 22 20  2  0  0  0  0
 22 24  1  0  0  0  0
 23 19  1  0  0  0  0
 23 18  2  0  0  0  0
 24 25  2  0  0  0  0
 25 18  1  0  0  0  0
 26 27  1  0  0  0  0
 27 22  1  0  0  0  0
M  END
>  <MODEL>
8

>  <REMARK>
 VINA RESULT:      -8.1      3.144      6.764
  Name = 
  7 active torsions:
  status: ('A' for Active; 'I' for Inactive)
    1  A    between atoms: S_1  and  C_15
    2  A    between atoms: S_1  and  C_18
    3  A    between atoms: N_2  and  C_6
    4  A    between atoms: N_2  and  C_15
    5  A    between atoms: C_6  and  C_17
    6  A    between atoms: C_9  and  C_15
    7  A    between atoms: C_14  and  O_19
                            x       y       z     vdW  Elec       q    Type
                         _______ _______ _______ _____ _____    ______ ____

>  <TORSDO>
F 7

$$$$
=
 OpenBabel10262420063D

 27 29  0  0  1  0  0  0  0  0999 V2000
  189.0760  177.6690  144.1820 C   0  0  2  0  0  3  0  0  0  0  0  0
  191.7770  176.2320  147.2080 C   0  0  0  0  0  3  0  0  0  0  0  0
  189.9950  177.1570  145.2530 C   0  0  0  0  0  0  0  0  0  0  0  0
  189.7360  177.3870  146.6140 C   0  0  0  0  0  3  0  0  0  0  0  0
  190.6240  176.9230  147.5870 C   0  0  0  0  0  3  0  0  0  0  0  0
  192.0430  176.0050  145.8550 C   0  0  0  0  0  3  0  0  0  0  0  0
  191.1550  176.4700  144.8800 C   0  0  0  0  0  3  0  0  0  0  0  0
  187.9180  176.3840  143.5860 S   0  0  0  0  0  0  0  0  0  0  0  0
  184.8970  179.2020  144.2290 C   0  0  0  0  0  2  0  0  0  0  0  0
  185.3250  179.5400  145.6540 C   0  0  0  0  0  2  0  0  0  0  0  0
  186.4260  177.1230  144.3430 C   0  0  1  0  0  3  0  0  0  0  0  0
  185.8820  178.2750  142.2300 C   0  0  0  0  0  2  0  0  0  0  0  0
  185.6060  178.2630  146.4350 C   0  0  0  0  0  2  0  0  0  0  0  0
  186.7640  177.5160  145.7810 C   0  0  0  0  0  2  0  0  0  0  0  0
  185.9060  178.3120  143.5620 C   0  0  0  0  0  0  0  0  0  0  0  0
  189.8110  178.2620  143.0750 N   0  0  0  0  0  2  0  0  0  0  0  0
  189.2770  177.6810  141.8550 C   0  0  0  0  0  2  0  0  0  0  0  0
  192.7610  177.2530  140.4540 C   0  0  0  0  0  3  0  0  0  0  0  0
  193.5600  176.7630  138.2380 O   0  0  0  0  0  1  0  0  0  0  0  0
  191.1810  176.9540  138.6370 C   0  0  0  0  0  0  0  0  0  0  0  0
  190.9680  176.6970  137.3200 F   0  0  0  0  0  0  0  0  0  0  0  0
  190.1040  177.1890  139.5260 C   0  0  0  0  0  0  0  0  0  0  0  0
  192.5000  176.9900  139.1080 C   0  0  0  0  0  0  0  0  0  0  0  0
  190.3840  177.4570  140.8790 C   0  0  0  0  0  0  0  0  0  0  0  0
  191.7060  177.4850  141.3380 C   0  0  0  0  0  3  0  0  0  0  0  0
  188.1660  178.1240  138.2470 C   0  0  0  0  0  1  0  0  0  0  0  0
  188.7590  177.1690  139.1160 O   0  0  0  0  0  0  0  0  0  0  0  0
  1 16  1  6  0  0  0
  1  3  1  0  0  0  0
  2  5  1  0  0  0  0
  3  4  1  0  0  0  0
  4  5  2  0  0  0  0
  6  2  2  0  0  0  0
  7  3  2  0  0  0  0
  7  6  1  0  0  0  0
  8  1  1  0  0  0  0
  9 10  1  0  0  0  0
 10 13  1  0  0  0  0
 11  8  1  6  0  0  0
 11 14  1  0  0  0  0
 12 15  2  0  0  0  0
 14 13  1  0  0  0  0
 15  9  1  0  0  0  0
 15 11  1  0  0  0  0
 17 16  1  0  0  0  0
 18 25  1  0  0  0  0
 19 23  1  0  0  0  0
 20 23  1  0  0  0  0
 20 22  2  0  0  0  0
 21 20  1  0  0  0  0
 22 24  1  0  0  0  0
 23 18  2  0  0  0  0
 24 25  2  0  0  0  0
 24 17  1  0  0  0  0
 26 27  1  0  0  0  0
 27 22  1  0  0  0  0
M  END
>  <MODEL>
9

>  <REMARK>
 VINA RESULT:      -8.0      0.641      1.747
  Name = 
  7 active torsions:
  status: ('A' for Active; 'I' for Inactive)
    1  A    between atoms: S_1  and  C_15
    2  A    between atoms: S_1  and  C_18
    3  A    between atoms: N_2  and  C_6
    4  A    between atoms: N_2  and  C_15
    5  A    between atoms: C_6  and  C_17
    6  A    between atoms: C_9  and  C_15
    7  A    between atoms: C_14  and  O_19
                            x       y       z     vdW  Elec       q    Type
                         _______ _______ _______ _____ _____    ______ ____

>  <TORSDO>
F 7

$$$$
