=
 OpenBabel10262419203D

 31 35  0  0  1  0  0  0  0  0999 V2000
  190.8800  177.0300  139.3570 C   0  0  0  0  0  0  0  0  0  0  0  0
  188.3950  177.2740  142.1830 N   0  0  0  0  0  0  0  0  0  0  0  0
  188.9940  176.5510  143.2800 C   0  0  0  0  0  0  0  0  0  0  0  0
  189.0260  177.3980  140.8880 C   0  0  0  0  0  0  0  0  0  0  0  0
  190.1900  177.7090  138.3500 C   0  0  0  0  0  3  0  0  0  0  0  0
  189.8900  175.6870  143.0800 O   0  0  0  0  0  0  0  0  0  0  0  0
  186.4680  178.5220  141.3880 C   0  0  0  0  0  0  0  0  0  0  0  0
  192.1100  176.5190  139.1090 F   0  0  0  0  0  0  0  0  0  0  0  0
  187.1210  177.2410  144.7620 C   0  0  0  0  0  3  0  0  0  0  0  0
  187.0880  178.6310  140.1330 O   0  0  0  0  0  0  0  0  0  0  0  0
  187.1000  177.8850  142.3990 C   0  0  0  0  0  0  0  0  0  0  0  0
  190.3020  176.8780  140.6210 C   0  0  0  0  0  3  0  0  0  0  0  0
  188.3460  178.0880  139.8720 C   0  0  0  0  0  0  0  0  0  0  0  0
  188.9220  178.2380  138.6090 C   0  0  0  0  0  3  0  0  0  0  0  0
  186.4630  177.7540  143.7220 C   0  0  0  0  0  3  0  0  0  0  0  0
  188.5670  176.8340  144.6900 C   0  0  2  0  0  3  0  0  0  0  0  0
  184.4680  179.3570  140.2050 C   0  0  0  0  0  2  0  0  0  0  0  0
  184.0120  178.2260  141.0960 C   0  0  1  0  0  3  0  0  0  0  0  0
  185.1150  179.1610  141.5640 C   0  0  1  0  0  3  0  0  0  0  0  0
  182.6730  178.6230  141.7060 C   0  0  0  0  0  2  0  0  0  0  0  0
  180.3020  177.1320  138.9740 C   0  0  0  0  0  0  0  0  0  0  0  0
  179.8170  180.0830  140.9830 C   0  0  0  0  0  1  0  0  0  0  0  0
  179.3010  176.3820  139.2470 N   0  0  0  0  0  2  0  0  0  0  0  0
  181.8620  176.8250  139.7530 S   0  0  0  0  0  0  0  0  0  0  0  0
  180.8320  179.3820  140.1030 C   0  0  1  0  0  3  0  0  0  0  0  0
  181.4660  178.2090  140.8630 C   0  0  2  0  0  3  0  0  0  0  0  0
  180.0300  178.8370  138.5520 S   0  0  0  0  0  0  0  0  0  0  0  0
  189.4510  177.9310  145.2730 C   0  0  0  0  0  2  0  0  0  0  0  0
  189.7850  177.6610  146.7330 C   0  0  0  0  0  2  0  0  0  0  0  0
  192.0070  176.2820  146.9270 N   0  0  0  0  0  0  0  0  0  0  0  0
  191.0270  176.8910  146.8410 C   0  0  0  0  0  0  0  0  0  0  0  0
  1 12  1  0  0  0  0
  2 11  1  0  0  0  0
  2  3  1  0  0  0  0
  3 16  1  0  0  0  0
  4  2  1  0  0  0  0
  5 14  1  0  0  0  0
  5  1  2  0  0  0  0
  6  3  2  0  0  0  0
  7 11  2  0  0  0  0
  8  1  1  0  0  0  0
 10  7  1  0  0  0  0
 11 15  1  0  0  0  0
 12  4  2  0  0  0  0
 13 10  1  0  0  0  0
 13  4  1  0  0  0  0
 14 13  2  0  0  0  0
 15  9  2  0  0  0  0
 16  9  1  0  0  0  0
 16 28  1  6  0  0  0
 17 18  1  0  0  0  0
 17 19  1  0  0  0  0
 18 19  1  0  0  0  0
 18 20  1  1  0  0  0
 19  7  1  6  0  0  0
 21 23  2  0  0  0  0
 21 24  1  0  0  0  0
 24 26  1  0  0  0  0
 25 26  1  0  0  0  0
 25 22  1  1  0  0  0
 26 20  1  6  0  0  0
 27 21  1  0  0  0  0
 27 25  1  0  0  0  0
 28 29  1  0  0  0  0
 29 31  1  0  0  0  0
 31 30  3  0  0  0  0
M  END
>  <MODEL>
1

>  <REMARK>
 VINA RESULT:      -8.7      0.000      0.000
  Name = 
  6 active torsions:
  status: ('A' for Active; 'I' for Inactive)
    1  A    between atoms: C_3  and  C_9
    2  A    between atoms: C_3  and  C_22
    3  A    between atoms: C_15  and  C_23
    4  A    between atoms: C_18  and  C_26
    5  A    between atoms: C_26  and  C_31
    6  A    between atoms: C_30  and  C_31
                            x       y       z     vdW  Elec       q    Type
                         _______ _______ _______ _____ _____    ______ ____

>  <TORSDO>
F 6

$$$$
=
 OpenBabel10262419203D

 31 35  0  0  1  0  0  0  0  0999 V2000
  185.1550  178.1800  146.0310 C   0  0  0  0  0  0  0  0  0  0  0  0
  188.8320  177.9210  145.2370 N   0  0  0  0  0  0  0  0  0  0  0  0
  189.4960  177.8770  146.5190 C   0  0  0  0  0  0  0  0  0  0  0  0
  187.3980  178.0460  145.1010 C   0  0  0  0  0  0  0  0  0  0  0  0
  184.6200  178.2630  144.7440 C   0  0  0  0  0  3  0  0  0  0  0  0
  188.9360  178.3160  147.5590 O   0  0  0  0  0  0  0  0  0  0  0  0
  189.0860  177.9450  142.8210 C   0  0  0  0  0  0  0  0  0  0  0  0
  184.3340  178.2060  147.1090 F   0  0  0  0  0  0  0  0  0  0  0  0
  191.6750  177.4990  145.3810 C   0  0  0  0  0  3  0  0  0  0  0  0
  187.6930  178.0720  142.7020 O   0  0  0  0  0  0  0  0  0  0  0  0
  189.6510  177.8480  144.0450 C   0  0  0  0  0  0  0  0  0  0  0  0
  186.5370  178.0690  146.2090 C   0  0  0  0  0  3  0  0  0  0  0  0
  186.8500  178.1190  143.8110 C   0  0  0  0  0  0  0  0  0  0  0  0
  185.4690  178.2320  143.6340 C   0  0  0  0  0  3  0  0  0  0  0  0
  191.1130  177.7210  144.1930 C   0  0  0  0  0  3  0  0  0  0  0  0
  190.8700  177.2870  146.6340 C   0  0  2  0  0  3  0  0  0  0  0  0
  189.9430  176.4560  141.0480 C   0  0  0  0  0  2  0  0  0  0  0  0
  189.0370  177.4610  140.3780 C   0  0  1  0  0  3  0  0  0  0  0  0
  189.9010  177.8860  141.5550 C   0  0  1  0  0  3  0  0  0  0  0  0
  189.6840  177.8670  139.0590 C   0  0  0  0  0  2  0  0  0  0  0  0
  189.1930  175.6320  135.8850 C   0  0  0  0  0  0  0  0  0  0  0  0
  187.4410  178.6480  136.7860 C   0  0  0  0  0  1  0  0  0  0  0  0
  188.2810  174.7390  135.7900 N   0  0  0  0  0  2  0  0  0  0  0  0
  190.1710  175.7280  137.3590 S   0  0  0  0  0  0  0  0  0  0  0  0
  188.8310  178.0590  136.6570 C   0  0  1  0  0  3  0  0  0  0  0  0
  189.1200  177.1300  137.8440 C   0  0  2  0  0  3  0  0  0  0  0  0
  188.9860  177.1900  135.0550 S   0  0  0  0  0  0  0  0  0  0  0  0
  190.7540  175.7970  146.9380 C   0  0  0  0  0  2  0  0  0  0  0  0
  192.1130  175.1810  147.2360 C   0  0  0  0  0  2  0  0  0  0  0  0
  193.3180  176.5020  149.1550 N   0  0  0  0  0  0  0  0  0  0  0  0
  192.7860  175.9190  148.3080 C   0  0  0  0  0  0  0  0  0  0  0  0
  1 12  1  0  0  0  0
  1  8  1  0  0  0  0
  2  3  1  0  0  0  0
  3 16  1  0  0  0  0
  3  6  2  0  0  0  0
  4  2  1  0  0  0  0
  4 12  2  0  0  0  0
  5  1  2  0  0  0  0
  7 11  2  0  0  0  0
  9 16  1  0  0  0  0
 10  7  1  0  0  0  0
 10 13  1  0  0  0  0
 11 15  1  0  0  0  0
 11  2  1  0  0  0  0
 13  4  1  0  0  0  0
 14 13  2  0  0  0  0
 14  5  1  0  0  0  0
 15  9  2  0  0  0  0
 16 28  1  6  0  0  0
 17 19  1  0  0  0  0
 18 20  1  6  0  0  0
 18 17  1  0  0  0  0
 18 19  1  0  0  0  0
 19  7  1  1  0  0  0
 21 24  1  0  0  0  0
 23 21  2  0  0  0  0
 24 26  1  0  0  0  0
 25 22  1  1  0  0  0
 25 26  1  0  0  0  0
 26 20  1  1  0  0  0
 27 21  1  0  0  0  0
 27 25  1  0  0  0  0
 28 29  1  0  0  0  0
 29 31  1  0  0  0  0
 31 30  3  0  0  0  0
M  END
>  <MODEL>
2

>  <REMARK>
 VINA RESULT:      -7.7      4.529      6.454
  Name = 
  6 active torsions:
  status: ('A' for Active; 'I' for Inactive)
    1  A    between atoms: C_3  and  C_9
    2  A    between atoms: C_3  and  C_22
    3  A    between atoms: C_15  and  C_23
    4  A    between atoms: C_18  and  C_26
    5  A    between atoms: C_26  and  C_31
    6  A    between atoms: C_30  and  C_31
                            x       y       z     vdW  Elec       q    Type
                         _______ _______ _______ _____ _____    ______ ____

>  <TORSDO>
F 6

$$$$
=
 OpenBabel10262419203D

 31 35  0  0  1  0  0  0  0  0999 V2000
  190.0780  177.0760  146.4400 C   0  0  0  0  0  0  0  0  0  0  0  0
  187.7800  177.6500  143.5070 N   0  0  0  0  0  0  0  0  0  0  0  0
  186.4430  177.5490  144.0450 C   0  0  0  0  0  0  0  0  0  0  0  0
  188.9660  177.4640  144.3130 C   0  0  0  0  0  0  0  0  0  0  0  0
  191.3220  177.1450  145.8090 C   0  0  0  0  0  3  0  0  0  0  0  0
  186.2190  176.9390  145.1250 O   0  0  0  0  0  0  0  0  0  0  0  0
  189.1490  177.9790  141.5280 C   0  0  0  0  0  0  0  0  0  0  0  0
  190.0080  176.8530  147.7750 F   0  0  0  0  0  0  0  0  0  0  0  0
  185.5020  178.2050  141.8390 C   0  0  0  0  0  3  0  0  0  0  0  0
  190.2930  177.7920  142.3200 O   0  0  0  0  0  0  0  0  0  0  0  0
  187.9230  177.9340  142.0940 C   0  0  0  0  0  0  0  0  0  0  0  0
  188.9050  177.2380  145.6970 C   0  0  0  0  0  3  0  0  0  0  0  0
  190.2210  177.5430  143.6900 C   0  0  0  0  0  0  0  0  0  0  0  0
  191.3920  177.3790  144.4320 C   0  0  0  0  0  3  0  0  0  0  0  0
  186.7080  178.1210  141.2790 C   0  0  0  0  0  3  0  0  0  0  0  0
  185.2940  178.1940  143.3290 C   0  0  2  0  0  3  0  0  0  0  0  0
  190.5990  177.5570  139.5750 C   0  0  0  0  0  2  0  0  0  0  0  0
  189.2430  176.9790  139.2480 C   0  0  1  0  0  3  0  0  0  0  0  0
  189.3450  178.2600  140.0600 C   0  0  1  0  0  3  0  0  0  0  0  0
  188.9420  177.2890  137.7870 C   0  0  0  0  0  2  0  0  0  0  0  0
  186.3810  175.2100  135.6820 C   0  0  0  0  0  0  0  0  0  0  0  0
  185.7450  178.0530  137.8020 C   0  0  0  0  0  1  0  0  0  0  0  0
  185.6690  174.2670  136.1750 N   0  0  0  0  0  2  0  0  0  0  0  0
  188.1110  175.2850  136.0560 S   0  0  0  0  0  0  0  0  0  0  0  0
  186.6490  177.5620  136.6900 C   0  0  1  0  0  3  0  0  0  0  0  0
  187.6930  176.5870  137.2540 C   0  0  2  0  0  3  0  0  0  0  0  0
  185.6420  176.7960  135.3690 S   0  0  0  0  0  0  0  0  0  0  0  0
  185.1130  179.6170  143.8450 C   0  0  0  0  0  2  0  0  0  0  0  0
  183.8530  179.7480  144.6880 C   0  0  0  0  0  2  0  0  0  0  0  0
  181.7580  178.9230  143.3430 N   0  0  0  0  0  0  0  0  0  0  0  0
  182.6830  179.2870  143.9360 C   0  0  0  0  0  0  0  0  0  0  0  0
  1  8  1  0  0  0  0
  2  3  1  0  0  0  0
  2  4  1  0  0  0  0
  3  6  2  0  0  0  0
  4 12  1  0  0  0  0
  5  1  1  0  0  0  0
  7 11  2  0  0  0  0
  7 10  1  0  0  0  0
  9 16  1  0  0  0  0
 10 13  1  0  0  0  0
 11  2  1  0  0  0  0
 12  1  2  0  0  0  0
 13  4  2  0  0  0  0
 13 14  1  0  0  0  0
 14  5  2  0  0  0  0
 15  9  2  0  0  0  0
 15 11  1  0  0  0  0
 16 28  1  1  0  0  0
 16  3  1  0  0  0  0
 17 19  1  0  0  0  0
 18 20  1  6  0  0  0
 18 17  1  0  0  0  0
 18 19  1  0  0  0  0
 19  7  1  1  0  0  0
 21 24  1  0  0  0  0
 21 23  2  0  0  0  0
 24 26  1  0  0  0  0
 25 26  1  0  0  0  0
 25 22  1  1  0  0  0
 26 20  1  6  0  0  0
 27 21  1  0  0  0  0
 27 25  1  0  0  0  0
 28 29  1  0  0  0  0
 30 31  3  0  0  0  0
 31 29  1  0  0  0  0
M  END
>  <MODEL>
3

>  <REMARK>
 VINA RESULT:      -7.7      3.447      6.115
  Name = 
  6 active torsions:
  status: ('A' for Active; 'I' for Inactive)
    1  A    between atoms: C_3  and  C_9
    2  A    between atoms: C_3  and  C_22
    3  A    between atoms: C_15  and  C_23
    4  A    between atoms: C_18  and  C_26
    5  A    between atoms: C_26  and  C_31
    6  A    between atoms: C_30  and  C_31
                            x       y       z     vdW  Elec       q    Type
                         _______ _______ _______ _____ _____    ______ ____

>  <TORSDO>
F 6

$$$$
=
 OpenBabel10262419203D

 31 35  0  0  1  0  0  0  0  0999 V2000
  189.3120  177.0880  147.1440 C   0  0  0  0  0  0  0  0  0  0  0  0
  187.9780  177.6620  143.6650 N   0  0  0  0  0  0  0  0  0  0  0  0
  186.5410  177.6900  143.8080 C   0  0  0  0  0  0  0  0  0  0  0  0
  188.8720  177.4360  144.7780 C   0  0  0  0  0  0  0  0  0  0  0  0
  190.6830  177.0300  146.8870 C   0  0  0  0  0  3  0  0  0  0  0  0
  185.9730  177.1590  144.8000 O   0  0  0  0  0  0  0  0  0  0  0  0
  189.8670  177.7790  142.1420 C   0  0  0  0  0  0  0  0  0  0  0  0
  188.8540  176.9460  148.4120 F   0  0  0  0  0  0  0  0  0  0  0  0
  186.3100  178.2870  141.4050 C   0  0  0  0  0  3  0  0  0  0  0  0
  190.7250  177.5540  143.2300 O   0  0  0  0  0  0  0  0  0  0  0  0
  188.5320  177.8550  142.3410 C   0  0  0  0  0  0  0  0  0  0  0  0
  188.4100  177.2930  146.0960 C   0  0  0  0  0  3  0  0  0  0  0  0
  190.2530  177.3880  144.5320 C   0  0  0  0  0  0  0  0  0  0  0  0
  191.1530  177.1800  145.5790 C   0  0  0  0  0  3  0  0  0  0  0  0
  187.6130  178.0840  141.2110 C   0  0  0  0  0  3  0  0  0  0  0  0
  185.6950  178.3750  142.7750 C   0  0  2  0  0  3  0  0  0  0  0  0
  191.8940  177.3940  140.7860 C   0  0  0  0  0  2  0  0  0  0  0  0
  190.7760  176.6160  140.1350 C   0  0  1  0  0  3  0  0  0  0  0  0
  190.4860  177.9620  140.7800 C   0  0  1  0  0  3  0  0  0  0  0  0
  190.9220  176.7620  138.6250 C   0  0  0  0  0  2  0  0  0  0  0  0
  188.0110  175.6590  136.2550 C   0  0  0  0  0  0  0  0  0  0  0  0
  188.7810  178.9660  137.4560 C   0  0  0  0  0  1  0  0  0  0  0  0
  186.8190  175.4300  136.6660 N   0  0  0  0  0  2  0  0  0  0  0  0
  189.3860  174.9860  137.1460 S   0  0  0  0  0  0  0  0  0  0  0  0
  189.4080  177.7450  136.8150 C   0  0  1  0  0  3  0  0  0  0  0  0
  189.6010  176.6420  137.8650 C   0  0  2  0  0  3  0  0  0  0  0  0
  188.3720  177.1830  135.4160 S   0  0  0  0  0  0  0  0  0  0  0  0
  185.5010  179.8350  143.1720 C   0  0  0  0  0  2  0  0  0  0  0  0
  184.4820  179.9770  144.2930 C   0  0  0  0  0  2  0  0  0  0  0  0
  182.1980  178.8900  143.6000 N   0  0  0  0  0  0  0  0  0  0  0  0
  183.2060  179.3700  143.9060 C   0  0  0  0  0  0  0  0  0  0  0  0
  1  8  1  0  0  0  0
  2  3  1  0  0  0  0
  2  4  1  0  0  0  0
  3  6  2  0  0  0  0
  4 12  1  0  0  0  0
  5  1  1  0  0  0  0
  7 11  2  0  0  0  0
  7 10  1  0  0  0  0
  9 16  1  0  0  0  0
 10 13  1  0  0  0  0
 11  2  1  0  0  0  0
 12  1  2  0  0  0  0
 13  4  2  0  0  0  0
 13 14  1  0  0  0  0
 14  5  2  0  0  0  0
 15  9  2  0  0  0  0
 15 11  1  0  0  0  0
 16 28  1  1  0  0  0
 16  3  1  0  0  0  0
 18 20  1  6  0  0  0
 18 19  1  0  0  0  0
 18 17  1  0  0  0  0
 19 17  1  0  0  0  0
 19  7  1  1  0  0  0
 21 23  2  0  0  0  0
 21 24  1  0  0  0  0
 24 26  1  0  0  0  0
 25 22  1  1  0  0  0
 25 26  1  0  0  0  0
 26 20  1  6  0  0  0
 27 21  1  0  0  0  0
 27 25  1  0  0  0  0
 28 29  1  0  0  0  0
 30 31  3  0  0  0  0
 31 29  1  0  0  0  0
M  END
>  <MODEL>
4

>  <REMARK>
 VINA RESULT:      -7.7      3.863      6.914
  Name = 
  6 active torsions:
  status: ('A' for Active; 'I' for Inactive)
    1  A    between atoms: C_3  and  C_9
    2  A    between atoms: C_3  and  C_22
    3  A    between atoms: C_15  and  C_23
    4  A    between atoms: C_18  and  C_26
    5  A    between atoms: C_26  and  C_31
    6  A    between atoms: C_30  and  C_31
                            x       y       z     vdW  Elec       q    Type
                         _______ _______ _______ _____ _____    ______ ____

>  <TORSDO>
F 6

$$$$
=
 OpenBabel10262419203D

 31 35  0  0  1  0  0  0  0  0999 V2000
  190.0750  177.1040  146.2840 C   0  0  0  0  0  0  0  0  0  0  0  0
  187.7180  177.7070  143.4040 N   0  0  0  0  0  0  0  0  0  0  0  0
  186.3920  177.5900  143.9650 C   0  0  0  0  0  0  0  0  0  0  0  0
  188.9200  177.5170  144.1840 C   0  0  0  0  0  0  0  0  0  0  0  0
  191.3060  177.1910  145.6310 C   0  0  0  0  0  3  0  0  0  0  0  0
  186.1930  176.9610  145.0400 O   0  0  0  0  0  0  0  0  0  0  0  0
  189.0480  178.0750  141.4050 C   0  0  0  0  0  0  0  0  0  0  0  0
  190.0320  176.8600  147.6170 F   0  0  0  0  0  0  0  0  0  0  0  0
  185.4050  178.2720  141.7880 C   0  0  0  0  0  3  0  0  0  0  0  0
  190.2080  177.8840  142.1720 O   0  0  0  0  0  0  0  0  0  0  0  0
  187.8330  178.0140  141.9930 C   0  0  0  0  0  0  0  0  0  0  0  0
  188.8870  177.2700  145.5660 C   0  0  0  0  0  3  0  0  0  0  0  0
  190.1630  177.6130  143.5390 C   0  0  0  0  0  0  0  0  0  0  0  0
  191.3490  177.4460  144.2570 C   0  0  0  0  0  3  0  0  0  0  0  0
  186.6020  178.2040  141.2040 C   0  0  0  0  0  3  0  0  0  0  0  0
  185.2250  178.2370  143.2810 C   0  0  2  0  0  3  0  0  0  0  0  0
  190.4980  177.7460  139.4330 C   0  0  0  0  0  2  0  0  0  0  0  0
  189.1690  177.1030  139.1140 C   0  0  1  0  0  3  0  0  0  0  0  0
  189.2140  178.3800  139.9380 C   0  0  1  0  0  3  0  0  0  0  0  0
  188.8380  177.4110  137.6590 C   0  0  0  0  0  2  0  0  0  0  0  0
  187.4960  174.1210  136.0190 C   0  0  0  0  0  0  0  0  0  0  0  0
  190.9100  175.2220  136.3460 C   0  0  0  0  0  1  0  0  0  0  0  0
  187.3130  173.9890  134.7590 N   0  0  0  0  0  2  0  0  0  0  0  0
  186.9190  175.5830  136.8370 S   0  0  0  0  0  0  0  0  0  0  0  0
  189.6270  175.0370  137.1300 C   0  0  1  0  0  3  0  0  0  0  0  0
  188.6400  176.1640  136.7960 C   0  0  2  0  0  3  0  0  0  0  0  0
  188.9230  173.3860  136.7810 S   0  0  0  0  0  0  0  0  0  0  0  0
  185.0460  179.6510  143.8220 C   0  0  0  0  0  2  0  0  0  0  0  0
  183.8190  179.7540  144.7170 C   0  0  0  0  0  2  0  0  0  0  0  0
  181.6880  178.8890  143.4560 N   0  0  0  0  0  0  0  0  0  0  0  0
  182.6290  179.2710  144.0130 C   0  0  0  0  0  0  0  0  0  0  0  0
  1  8  1  0  0  0  0
  2  3  1  0  0  0  0
  2  4  1  0  0  0  0
  3  6  2  0  0  0  0
  4 12  1  0  0  0  0
  5  1  1  0  0  0  0
  7 11  2  0  0  0  0
  7 10  1  0  0  0  0
  9 16  1  0  0  0  0
 10 13  1  0  0  0  0
 11  2  1  0  0  0  0
 12  1  2  0  0  0  0
 13  4  2  0  0  0  0
 13 14  1  0  0  0  0
 14  5  2  0  0  0  0
 15  9  2  0  0  0  0
 15 11  1  0  0  0  0
 16 28  1  1  0  0  0
 16  3  1  0  0  0  0
 17 19  1  0  0  0  0
 18 20  1  6  0  0  0
 18 17  1  0  0  0  0
 18 19  1  0  0  0  0
 19  7  1  1  0  0  0
 21 27  1  0  0  0  0
 21 24  1  0  0  0  0
 23 21  2  0  0  0  0
 25 22  1  6  0  0  0
 26 24  1  0  0  0  0
 26 25  1  0  0  0  0
 26 20  1  1  0  0  0
 27 25  1  0  0  0  0
 28 29  1  0  0  0  0
 30 31  3  0  0  0  0
 31 29  1  0  0  0  0
M  END
>  <MODEL>
5

>  <REMARK>
 VINA RESULT:      -7.5      3.604      6.808
  Name = 
  6 active torsions:
  status: ('A' for Active; 'I' for Inactive)
    1  A    between atoms: C_3  and  C_9
    2  A    between atoms: C_3  and  C_22
    3  A    between atoms: C_15  and  C_23
    4  A    between atoms: C_18  and  C_26
    5  A    between atoms: C_26  and  C_31
    6  A    between atoms: C_30  and  C_31
                            x       y       z     vdW  Elec       q    Type
                         _______ _______ _______ _____ _____    ______ ____

>  <TORSDO>
F 6

$$$$
=
 OpenBabel10262419203D

 31 35  0  0  1  0  0  0  0  0999 V2000
  190.4400  177.0980  145.3020 C   0  0  0  0  0  0  0  0  0  0  0  0
  187.7480  177.7450  142.7410 N   0  0  0  0  0  0  0  0  0  0  0  0
  186.5010  177.5980  143.4540 C   0  0  0  0  0  0  0  0  0  0  0  0
  189.0380  177.5500  143.3670 C   0  0  0  0  0  0  0  0  0  0  0  0
  191.5820  177.2150  144.5070 C   0  0  0  0  0  3  0  0  0  0  0  0
  186.4370  176.9410  144.5280 O   0  0  0  0  0  0  0  0  0  0  0  0
  188.8260  178.1780  140.6070 C   0  0  0  0  0  0  0  0  0  0  0  0
  190.5590  176.8210  146.6230 F   0  0  0  0  0  0  0  0  0  0  0  0
  185.2540  178.3230  141.4290 C   0  0  0  0  0  3  0  0  0  0  0  0
  190.0710  177.9810  141.2240 O   0  0  0  0  0  0  0  0  0  0  0  0
  187.6910  178.0880  141.3350 C   0  0  0  0  0  0  0  0  0  0  0  0
  189.1730  177.2680  144.7350 C   0  0  0  0  0  3  0  0  0  0  0  0
  190.1920  177.6760  142.5800 C   0  0  0  0  0  0  0  0  0  0  0  0
  191.4580  177.5050  143.1460 C   0  0  0  0  0  3  0  0  0  0  0  0
  186.3720  178.2840  140.7050 C   0  0  0  0  0  3  0  0  0  0  0  0
  185.2550  178.2490  142.9310 C   0  0  2  0  0  3  0  0  0  0  0  0
  190.0250  177.9050  138.4660 C   0  0  0  0  0  2  0  0  0  0  0  0
  188.6690  177.2650  138.2940 C   0  0  1  0  0  3  0  0  0  0  0  0
  188.8110  178.5200  139.1400 C   0  0  1  0  0  3  0  0  0  0  0  0
  188.1630  177.6080  136.8990 C   0  0  0  0  0  2  0  0  0  0  0  0
  184.7870  175.7010  136.3730 C   0  0  0  0  0  0  0  0  0  0  0  0
  188.1330  174.5450  135.7060 C   0  0  0  0  0  1  0  0  0  0  0  0
  184.1860  175.6350  135.2440 N   0  0  0  0  0  2  0  0  0  0  0  0
  185.4100  177.2580  136.9420 S   0  0  0  0  0  0  0  0  0  0  0  0
  187.2810  175.2120  136.7670 C   0  0  1  0  0  3  0  0  0  0  0  0
  187.0490  176.6850  136.4040 C   0  0  2  0  0  3  0  0  0  0  0  0
  185.7080  174.2990  136.9600 S   0  0  0  0  0  0  0  0  0  0  0  0
  185.1300  179.6470  143.5260 C   0  0  0  0  0  2  0  0  0  0  0  0
  183.9390  179.7470  144.4700 C   0  0  0  0  0  2  0  0  0  0  0  0
  184.4450  178.4960  146.7200 N   0  0  0  0  0  0  0  0  0  0  0  0
  184.2220  179.0480  145.7270 C   0  0  0  0  0  0  0  0  0  0  0  0
  1  8  1  0  0  0  0
  2  4  1  0  0  0  0
  2  3  1  0  0  0  0
  3  6  2  0  0  0  0
  4 12  2  0  0  0  0
  5  1  2  0  0  0  0
  7 10  1  0  0  0  0
  7 11  2  0  0  0  0
  9 16  1  0  0  0  0
 10 13  1  0  0  0  0
 11  2  1  0  0  0  0
 12  1  1  0  0  0  0
 13 14  2  0  0  0  0
 13  4  1  0  0  0  0
 14  5  1  0  0  0  0
 15 11  1  0  0  0  0
 15  9  2  0  0  0  0
 16  3  1  0  0  0  0
 16 28  1  1  0  0  0
 17 19  1  0  0  0  0
 18 20  1  6  0  0  0
 18 17  1  0  0  0  0
 18 19  1  0  0  0  0
 19  7  1  1  0  0  0
 21 24  1  0  0  0  0
 21 27  1  0  0  0  0
 23 21  2  0  0  0  0
 25 22  1  6  0  0  0
 25 27  1  0  0  0  0
 26 25  1  0  0  0  0
 26 20  1  1  0  0  0
 26 24  1  0  0  0  0
 28 29  1  0  0  0  0
 29 31  1  0  0  0  0
 31 30  3  0  0  0  0
M  END
>  <MODEL>
6

>  <REMARK>
 VINA RESULT:      -7.5      3.326      5.682
  Name = 
  6 active torsions:
  status: ('A' for Active; 'I' for Inactive)
    1  A    between atoms: C_3  and  C_9
    2  A    between atoms: C_3  and  C_22
    3  A    between atoms: C_15  and  C_23
    4  A    between atoms: C_18  and  C_26
    5  A    between atoms: C_26  and  C_31
    6  A    between atoms: C_30  and  C_31
                            x       y       z     vdW  Elec       q    Type
                         _______ _______ _______ _____ _____    ______ ____

>  <TORSDO>
F 6

$$$$
=
 OpenBabel10262419203D

 31 35  0  0  1  0  0  0  0  0999 V2000
  189.4210  177.1650  147.1720 C   0  0  0  0  0  0  0  0  0  0  0  0
  187.8600  177.6470  143.7740 N   0  0  0  0  0  0  0  0  0  0  0  0
  186.4350  177.6510  144.0070 C   0  0  0  0  0  0  0  0  0  0  0  0
  188.8270  177.4600  144.8320 C   0  0  0  0  0  0  0  0  0  0  0  0
  190.7740  177.1280  146.8290 C   0  0  0  0  0  3  0  0  0  0  0  0
  185.9420  177.1280  145.0420 O   0  0  0  0  0  0  0  0  0  0  0  0
  189.6470  177.7710  142.1330 C   0  0  0  0  0  0  0  0  0  0  0  0
  189.0470  177.0380  148.4680 F   0  0  0  0  0  0  0  0  0  0  0  0
  186.0410  178.1980  141.6140 C   0  0  0  0  0  3  0  0  0  0  0  0
  190.5760  177.5830  143.1680 O   0  0  0  0  0  0  0  0  0  0  0  0
  188.3260  177.8260  142.4150 C   0  0  0  0  0  0  0  0  0  0  0  0
  188.4520  177.3330  146.1790 C   0  0  0  0  0  3  0  0  0  0  0  0
  190.1900  177.4330  144.5000 C   0  0  0  0  0  0  0  0  0  0  0  0
  191.1590  177.2620  145.4920 C   0  0  0  0  0  3  0  0  0  0  0  0
  187.3330  178.0160  141.3410 C   0  0  0  0  0  3  0  0  0  0  0  0
  185.5130  178.3000  143.0180 C   0  0  2  0  0  3  0  0  0  0  0  0
  191.6290  177.5030  140.6850 C   0  0  0  0  0  2  0  0  0  0  0  0
  190.5560  176.5950  140.1330 C   0  0  1  0  0  3  0  0  0  0  0  0
  190.1760  177.9400  140.7320 C   0  0  1  0  0  3  0  0  0  0  0  0
  190.6100  176.6770  138.6130 C   0  0  0  0  0  2  0  0  0  0  0  0
  193.3810  174.7120  136.6720 C   0  0  0  0  0  0  0  0  0  0  0  0
  189.9320  173.8000  137.1750 C   0  0  0  0  0  1  0  0  0  0  0  0
  194.0520  173.7520  137.1880 N   0  0  0  0  0  2  0  0  0  0  0  0
  193.1470  176.2080  137.5910 S   0  0  0  0  0  0  0  0  0  0  0  0
  190.8200  174.9490  136.7420 C   0  0  1  0  0  3  0  0  0  0  0  0
  191.4770  175.5960  137.9680 C   0  0  2  0  0  3  0  0  0  0  0  0
  192.0610  174.3490  135.5380 S   0  0  0  0  0  0  0  0  0  0  0  0
  185.3150  179.7630  143.4000 C   0  0  0  0  0  2  0  0  0  0  0  0
  184.1410  179.9360  144.3530 C   0  0  0  0  0  2  0  0  0  0  0  0
  181.9530  178.9360  143.3060 N   0  0  0  0  0  0  0  0  0  0  0  0
  182.9190  179.3780  143.7680 C   0  0  0  0  0  0  0  0  0  0  0  0
  1  8  1  0  0  0  0
  2  3  1  0  0  0  0
  2  4  1  0  0  0  0
  3  6  2  0  0  0  0
  4 12  1  0  0  0  0
  5  1  1  0  0  0  0
  7 11  2  0  0  0  0
  7 10  1  0  0  0  0
  9 16  1  0  0  0  0
 10 13  1  0  0  0  0
 11  2  1  0  0  0  0
 12  1  2  0  0  0  0
 13  4  2  0  0  0  0
 13 14  1  0  0  0  0
 14  5  2  0  0  0  0
 15  9  2  0  0  0  0
 15 11  1  0  0  0  0
 16 28  1  1  0  0  0
 16  3  1  0  0  0  0
 17 19  1  0  0  0  0
 18 20  1  6  0  0  0
 18 17  1  0  0  0  0
 18 19  1  0  0  0  0
 19  7  1  1  0  0  0
 21 23  2  0  0  0  0
 21 24  1  0  0  0  0
 24 26  1  0  0  0  0
 25 22  1  1  0  0  0
 25 26  1  0  0  0  0
 26 20  1  6  0  0  0
 27 21  1  0  0  0  0
 27 25  1  0  0  0  0
 28 29  1  0  0  0  0
 30 31  3  0  0  0  0
 31 29  1  0  0  0  0
M  END
>  <MODEL>
7

>  <REMARK>
 VINA RESULT:      -7.5      4.426      8.146
  Name = 
  6 active torsions:
  status: ('A' for Active; 'I' for Inactive)
    1  A    between atoms: C_3  and  C_9
    2  A    between atoms: C_3  and  C_22
    3  A    between atoms: C_15  and  C_23
    4  A    between atoms: C_18  and  C_26
    5  A    between atoms: C_26  and  C_31
    6  A    between atoms: C_30  and  C_31
                            x       y       z     vdW  Elec       q    Type
                         _______ _______ _______ _____ _____    ______ ____

>  <TORSDO>
F 6

$$$$
=
 OpenBabel10262419203D

 31 35  0  0  1  0  0  0  0  0999 V2000
  190.8260  177.1870  140.8780 C   0  0  0  0  0  0  0  0  0  0  0  0
  187.7560  177.5040  143.0440 N   0  0  0  0  0  0  0  0  0  0  0  0
  188.1190  176.9060  144.3080 C   0  0  0  0  0  0  0  0  0  0  0  0
  188.6590  177.5630  141.9160 C   0  0  0  0  0  0  0  0  0  0  0  0
  190.3560  177.7420  139.6850 C   0  0  0  0  0  3  0  0  0  0  0  0
  189.0710  176.0840  144.3910 O   0  0  0  0  0  0  0  0  0  0  0  0
  186.0120  178.5690  141.7300 C   0  0  0  0  0  0  0  0  0  0  0  0
  192.1000  176.7330  140.9570 F   0  0  0  0  0  0  0  0  0  0  0  0
  185.9320  177.5980  145.2670 C   0  0  0  0  0  3  0  0  0  0  0  0
  186.8960  178.6150  140.6410 O   0  0  0  0  0  0  0  0  0  0  0  0
  186.4220  178.0520  142.9100 C   0  0  0  0  0  0  0  0  0  0  0  0
  189.9830  177.1010  141.9890 C   0  0  0  0  0  3  0  0  0  0  0  0
  188.2010  178.1300  140.7170 C   0  0  0  0  0  0  0  0  0  0  0  0
  189.0430  178.2140  139.6060 C   0  0  0  0  0  3  0  0  0  0  0  0
  185.5070  177.9870  144.0640 C   0  0  0  0  0  3  0  0  0  0  0  0
  187.3720  177.2740  145.5560 C   0  0  2  0  0  3  0  0  0  0  0  0
  184.3040  179.1950  140.0610 C   0  0  0  0  0  2  0  0  0  0  0  0
  183.7020  178.1080  140.9190 C   0  0  1  0  0  3  0  0  0  0  0  0
  184.6300  179.1390  141.5430 C   0  0  1  0  0  3  0  0  0  0  0  0
  182.2440  178.4690  141.1760 C   0  0  0  0  0  2  0  0  0  0  0  0
  179.7140  179.6920  138.4530 C   0  0  0  0  0  0  0  0  0  0  0  0
  181.0500  176.3810  138.9340 C   0  0  0  0  0  1  0  0  0  0  0  0
  180.0640  180.0180  137.2650 N   0  0  0  0  0  2  0  0  0  0  0  0
  180.6440  180.2960  139.8340 S   0  0  0  0  0  0  0  0  0  0  0  0
  180.4000  177.5330  139.6720 C   0  0  1  0  0  3  0  0  0  0  0  0
  181.4220  178.6550  139.9000 C   0  0  2  0  0  3  0  0  0  0  0  0
  178.9400  178.1180  138.7390 S   0  0  0  0  0  0  0  0  0  0  0  0
  188.0560  178.4630  146.2200 C   0  0  0  0  0  2  0  0  0  0  0  0
  188.5770  178.1040  147.6040 C   0  0  0  0  0  2  0  0  0  0  0  0
  190.8270  176.7690  147.4180 N   0  0  0  0  0  0  0  0  0  0  0  0
  189.8340  177.3580  147.5000 C   0  0  0  0  0  0  0  0  0  0  0  0
  1  8  1  0  0  0  0
  1 12  1  0  0  0  0
  2  3  1  0  0  0  0
  3  6  2  0  0  0  0
  3 16  1  0  0  0  0
  4 12  2  0  0  0  0
  4  2  1  0  0  0  0
  5  1  2  0  0  0  0
  7 11  2  0  0  0  0
  9 16  1  0  0  0  0
 10 13  1  0  0  0  0
 10  7  1  0  0  0  0
 11  2  1  0  0  0  0
 11 15  1  0  0  0  0
 13  4  1  0  0  0  0
 14  5  1  0  0  0  0
 14 13  2  0  0  0  0
 15  9  2  0  0  0  0
 16 28  1  6  0  0  0
 17 18  1  0  0  0  0
 17 19  1  0  0  0  0
 18 20  1  1  0  0  0
 18 19  1  0  0  0  0
 19  7  1  6  0  0  0
 21 27  1  0  0  0  0
 21 24  1  0  0  0  0
 23 21  2  0  0  0  0
 24 26  1  0  0  0  0
 25 22  1  6  0  0  0
 25 26  1  0  0  0  0
 26 20  1  1  0  0  0
 27 25  1  0  0  0  0
 28 29  1  0  0  0  0
 30 31  3  0  0  0  0
 31 29  1  0  0  0  0
M  END
>  <MODEL>
8

>  <REMARK>
 VINA RESULT:      -7.5      1.457      1.795
  Name = 
  6 active torsions:
  status: ('A' for Active; 'I' for Inactive)
    1  A    between atoms: C_3  and  C_9
    2  A    between atoms: C_3  and  C_22
    3  A    between atoms: C_15  and  C_23
    4  A    between atoms: C_18  and  C_26
    5  A    between atoms: C_26  and  C_31
    6  A    between atoms: C_30  and  C_31
                            x       y       z     vdW  Elec       q    Type
                         _______ _______ _______ _____ _____    ______ ____

>  <TORSDO>
F 6

$$$$
=
 OpenBabel10262419203D

 31 35  0  0  1  0  0  0  0  0999 V2000
  190.2550  177.1140  142.0940 C   0  0  0  0  0  0  0  0  0  0  0  0
  186.6330  177.8900  142.8030 N   0  0  0  0  0  0  0  0  0  0  0  0
  186.4270  177.5140  144.1820 C   0  0  0  0  0  0  0  0  0  0  0  0
  187.9010  177.7250  142.1260 C   0  0  0  0  0  0  0  0  0  0  0  0
  190.3320  177.4640  140.7440 C   0  0  0  0  0  3  0  0  0  0  0  0
  187.1930  176.6940  144.7560 O   0  0  0  0  0  0  0  0  0  0  0  0
  185.6340  178.7530  140.7640 C   0  0  0  0  0  0  0  0  0  0  0  0
  191.3530  176.6470  142.7360 F   0  0  0  0  0  0  0  0  0  0  0  0
  184.1140  178.4220  144.0860 C   0  0  0  0  0  3  0  0  0  0  0  0
  186.8680  178.5840  140.1170 O   0  0  0  0  0  0  0  0  0  0  0  0
  185.5100  178.4410  142.0730 C   0  0  0  0  0  0  0  0  0  0  0  0
  189.0460  177.2470  142.7830 C   0  0  0  0  0  3  0  0  0  0  0  0
  187.9920  178.0840  140.7730 C   0  0  0  0  0  0  0  0  0  0  0  0
  189.2000  177.9490  140.0840 C   0  0  0  0  0  3  0  0  0  0  0  0
  184.2210  178.6050  142.7700 C   0  0  0  0  0  3  0  0  0  0  0  0
  185.2960  178.1150  144.9640 C   0  0  2  0  0  3  0  0  0  0  0  0
  184.7620  179.1200  138.4830 C   0  0  0  0  0  2  0  0  0  0  0  0
  183.7780  178.2190  139.1900 C   0  0  1  0  0  3  0  0  0  0  0  0
  184.4890  179.3180  139.9640 C   0  0  1  0  0  3  0  0  0  0  0  0
  182.3740  178.6590  138.7950 C   0  0  0  0  0  2  0  0  0  0  0  0
  180.6670  175.1420  138.6170 C   0  0  0  0  0  0  0  0  0  0  0  0
  179.6830  178.1880  136.9650 C   0  0  0  0  0  1  0  0  0  0  0  0
  179.6560  174.8150  139.3320 N   0  0  0  0  0  2  0  0  0  0  0  0
  182.0420  175.9640  139.3720 S   0  0  0  0  0  0  0  0  0  0  0  0
  180.8800  177.2970  137.2290 C   0  0  1  0  0  3  0  0  0  0  0  0
  181.3810  177.5030  138.6650 C   0  0  2  0  0  3  0  0  0  0  0  0
  180.4340  175.5540  136.9040 S   0  0  0  0  0  0  0  0  0  0  0  0
  185.7820  179.3840  145.6550 C   0  0  0  0  0  2  0  0  0  0  0  0
  185.8030  179.2210  147.1680 C   0  0  0  0  0  2  0  0  0  0  0  0
  187.9470  177.9100  147.9200 N   0  0  0  0  0  0  0  0  0  0  0  0
  187.0000  178.4880  147.5880 C   0  0  0  0  0  0  0  0  0  0  0  0
  1  8  1  0  0  0  0
  1 12  1  0  0  0  0
  2  3  1  0  0  0  0
  3  6  2  0  0  0  0
  3 16  1  0  0  0  0
  4 12  2  0  0  0  0
  4  2  1  0  0  0  0
  5  1  2  0  0  0  0
  7 11  2  0  0  0  0
  9 16  1  0  0  0  0
 10  7  1  0  0  0  0
 10 13  1  0  0  0  0
 11 15  1  0  0  0  0
 11  2  1  0  0  0  0
 13  4  1  0  0  0  0
 14  5  1  0  0  0  0
 14 13  2  0  0  0  0
 15  9  2  0  0  0  0
 16 28  1  6  0  0  0
 17 18  1  0  0  0  0
 17 19  1  0  0  0  0
 18 20  1  6  0  0  0
 18 19  1  0  0  0  0
 19  7  1  1  0  0  0
 21 23  2  0  0  0  0
 21 24  1  0  0  0  0
 25 22  1  1  0  0  0
 25 26  1  0  0  0  0
 26 20  1  6  0  0  0
 26 24  1  0  0  0  0
 27 25  1  0  0  0  0
 27 21  1  0  0  0  0
 28 29  1  0  0  0  0
 29 31  1  0  0  0  0
 31 30  3  0  0  0  0
M  END
>  <MODEL>
9

>  <REMARK>
 VINA RESULT:      -7.4      2.209      2.831
  Name = 
  6 active torsions:
  status: ('A' for Active; 'I' for Inactive)
    1  A    between atoms: C_3  and  C_9
    2  A    between atoms: C_3  and  C_22
    3  A    between atoms: C_15  and  C_23
    4  A    between atoms: C_18  and  C_26
    5  A    between atoms: C_26  and  C_31
    6  A    between atoms: C_30  and  C_31
                            x       y       z     vdW  Elec       q    Type
                         _______ _______ _______ _____ _____    ______ ____

>  <TORSDO>
F 6

$$$$
