=
 OpenBabel10262421453D

 30 32  0  0  1  0  0  0  0  0999 V2000
  182.6320  178.8040  139.8990 C   0  0  0  0  0  0  0  0  0  0  0  0
  180.4470  177.5110  140.0700 C   0  0  2  0  0  3  0  0  0  0  0  0
  182.3440  179.9950  139.3610 C   0  0  0  0  0  3  0  0  0  0  0  0
  178.9310  179.8760  137.7000 C   0  0  0  0  0  3  0  0  0  0  0  0
  179.9550  179.6160  138.6180 C   0  0  0  0  0  0  0  0  0  0  0  0
  181.4220  181.0940  137.3590 C   0  0  0  0  0  3  0  0  0  0  0  0
  181.2220  180.2230  138.4350 C   0  0  0  0  0  0  0  0  0  0  0  0
  179.6120  178.7860  139.8320 C   0  0  2  0  0  3  0  0  0  0  0  0
  179.1510  180.7260  136.6130 C   0  0  0  0  0  3  0  0  0  0  0  0
  180.3940  181.3390  136.4470 C   0  0  0  0  0  3  0  0  0  0  0  0
  181.8590  177.5770  139.4570 C   0  0  2  0  0  3  0  0  0  0  0  0
  185.0330  178.6390  140.7110 C   0  0  0  0  0  0  0  0  0  0  0  0
  185.9420  178.5830  141.7730 C   0  0  0  0  0  3  0  0  0  0  0  0
  185.6740  178.5250  139.0770 Cl  0  0  0  0  0  0  0  0  0  0  0  0
  183.2090  178.7540  142.3090 C   0  0  0  0  0  3  0  0  0  0  0  0
  183.5540  178.7370  145.0150 Cl  0  0  0  0  0  0  0  0  0  0  0  0
  183.6470  178.7290  140.9760 C   0  0  0  0  0  0  0  0  0  0  0  0
  185.4900  178.6180  143.0930 C   0  0  0  0  0  3  0  0  0  0  0  0
  184.1240  178.7000  143.3600 C   0  0  0  0  0  0  0  0  0  0  0  0
  179.9570  180.8820  141.0070 O   0  0  0  0  0  1  0  0  0  0  0  0
  179.3400  179.6330  141.0810 C   0  0  2  0  0  3  0  0  0  0  0  0
  179.7570  178.9220  142.3310 C   0  0  0  0  0  3  0  0  0  0  0  0
  178.9330  178.5910  143.1700 O   0  0  0  0  0  0  0  0  0  0  0  0
  182.6540  176.2800  139.6320 C   0  0  0  0  0  2  0  0  0  0  0  0
  182.3790  176.0820  137.2670 O   0  0  0  0  0  1  0  0  0  0  0  0
  183.2670  175.8330  138.3150 C   0  0  0  0  0  2  0  0  0  0  0  0
  179.6540  176.3350  139.5040 C   0  0  0  0  0  2  0  0  0  0  0  0
  179.6500  174.1130  140.3780 O   0  0  0  0  0  1  0  0  0  0  0  0
  179.1770  175.4050  140.6070 C   0  0  1  0  0  3  0  0  0  0  0  0
  179.6520  175.8560  141.8230 F   0  0  0  0  0  0  0  0  0  0  0  0
  1 17  1  0  0  0  0
  2 27  1  6  0  0  0
  3  1  2  0  0  0  0
  4  5  1  0  0  0  0
  5  8  1  0  0  0  0
  6  7  1  0  0  0  0
  7  5  2  0  0  0  0
  7  3  1  0  0  0  0
  8  2  1  0  0  0  0
  8 21  1  1  0  0  0
  9  4  2  0  0  0  0
 10  9  1  0  0  0  0
 10  6  2  0  0  0  0
 11 24  1  1  0  0  0
 11  1  1  0  0  0  0
 11  2  1  0  0  0  0
 12 17  2  0  0  0  0
 12 13  1  0  0  0  0
 13 18  2  0  0  0  0
 14 12  1  0  0  0  0
 15 19  2  0  0  0  0
 17 15  1  0  0  0  0
 18 19  1  0  0  0  0
 19 16  1  0  0  0  0
 21 20  1  6  0  0  0
 21 22  1  0  0  0  0
 22 23  2  0  0  0  0
 25 26  1  0  0  0  0
 26 24  1  0  0  0  0
 27 29  1  0  0  0  0
 29 28  1  6  0  0  0
 29 30  1  0  0  0  0
M  END
>  <MODEL>
1

>  <REMARK>
 VINA RESULT:      -5.4      0.000      0.000
  Name = 
  7 active torsions:
  status: ('A' for Active; 'I' for Inactive)
    1  A    between atoms: C_1  and  C_22
    2  A    between atoms: C_4  and  C_25
    3  A    between atoms: C_7  and  C_30
    4  A    between atoms: C_10  and  C_23
    5  A    between atoms: C_10  and  C_26
    6  A    between atoms: C_11  and  C_25
    7  A    between atoms: C_13  and  C_30
                            x       y       z     vdW  Elec       q    Type
                         _______ _______ _______ _____ _____    ______ ____

>  <TORSDO>
F 7

$$$$
=
 OpenBabel10262421453D

 30 32  0  0  1  0  0  0  0  0999 V2000
  184.3760  178.9190  139.5960 C   0  0  0  0  0  0  0  0  0  0  0  0
  183.9380  177.0670  137.9070 C   0  0  2  0  0  3  0  0  0  0  0  0
  183.2840  179.6920  139.6260 C   0  0  0  0  0  3  0  0  0  0  0  0
  181.1560  179.0470  136.5470 C   0  0  0  0  0  3  0  0  0  0  0  0
  182.0190  178.8050  137.6220 C   0  0  0  0  0  0  0  0  0  0  0  0
  181.8500  181.1490  138.2520 C   0  0  0  0  0  3  0  0  0  0  0  0
  182.3810  179.8740  138.4770 C   0  0  0  0  0  0  0  0  0  0  0  0
  182.4260  177.3730  137.8830 C   0  0  2  0  0  3  0  0  0  0  0  0
  180.6540  180.3300  136.3170 C   0  0  0  0  0  3  0  0  0  0  0  0
  180.9950  181.3780  137.1730 C   0  0  0  0  0  3  0  0  0  0  0  0
  184.8060  178.2820  138.2900 C   0  0  2  0  0  3  0  0  0  0  0  0
  184.4170  178.3970  142.0820 C   0  0  0  0  0  0  0  0  0  0  0  0
  185.1510  178.1270  143.2420 C   0  0  0  0  0  3  0  0  0  0  0  0
  182.6660  178.4840  142.2230 Cl  0  0  0  0  0  0  0  0  0  0  0  0
  186.4940  178.6120  140.8450 C   0  0  0  0  0  3  0  0  0  0  0  0
  188.9660  178.3070  141.9600 Cl  0  0  0  0  0  0  0  0  0  0  0  0
  185.0920  178.6400  140.8630 C   0  0  0  0  0  0  0  0  0  0  0  0
  186.5460  178.0950  143.2050 C   0  0  0  0  0  3  0  0  0  0  0  0
  187.2170  178.3410  142.0070 C   0  0  0  0  0  0  0  0  0  0  0  0
  182.4160  176.0100  139.8910 O   0  0  0  0  0  1  0  0  0  0  0  0
  181.6060  176.7080  138.9940 C   0  0  2  0  0  3  0  0  0  0  0  0
  180.5510  175.8050  138.4360 C   0  0  0  0  0  3  0  0  0  0  0  0
  180.8370  174.9130  137.6530 O   0  0  0  0  0  0  0  0  0  0  0  0
  186.3080  177.9900  138.2390 C   0  0  0  0  0  2  0  0  0  0  0  0
  188.1570  179.2340  137.3790 O   0  0  0  0  0  1  0  0  0  0  0  0
  186.9490  178.6340  137.0200 C   0  0  0  0  0  2  0  0  0  0  0  0
  184.3170  176.5320  136.5280 C   0  0  0  0  0  2  0  0  0  0  0  0
  186.0520  174.8920  136.5410 O   0  0  0  0  0  1  0  0  0  0  0  0
  184.6670  175.0550  136.5830 C   0  0  1  0  0  3  0  0  0  0  0  0
  184.1790  174.5120  137.7550 F   0  0  0  0  0  0  0  0  0  0  0  0
  1  3  2  0  0  0  0
  1 17  1  0  0  0  0
  2 27  1  6  0  0  0
  2 11  1  0  0  0  0
  4  5  1  0  0  0  0
  5  8  1  0  0  0  0
  5  7  2  0  0  0  0
  6  7  1  0  0  0  0
  7  3  1  0  0  0  0
  8  2  1  0  0  0  0
  8 21  1  1  0  0  0
  9  4  2  0  0  0  0
  9 10  1  0  0  0  0
 10  6  2  0  0  0  0
 11 24  1  1  0  0  0
 11  1  1  0  0  0  0
 12 14  1  0  0  0  0
 12 13  1  0  0  0  0
 15 17  1  0  0  0  0
 15 19  2  0  0  0  0
 16 19  1  0  0  0  0
 17 12  2  0  0  0  0
 18 13  2  0  0  0  0
 19 18  1  0  0  0  0
 21 20  1  1  0  0  0
 22 21  1  0  0  0  0
 23 22  2  0  0  0  0
 26 25  1  0  0  0  0
 26 24  1  0  0  0  0
 27 29  1  0  0  0  0
 29 28  1  1  0  0  0
 29 30  1  0  0  0  0
M  END
>  <MODEL>
2

>  <REMARK>
 VINA RESULT:      -5.1      2.748      4.220
  Name = 
  7 active torsions:
  status: ('A' for Active; 'I' for Inactive)
    1  A    between atoms: C_1  and  C_22
    2  A    between atoms: C_4  and  C_25
    3  A    between atoms: C_7  and  C_30
    4  A    between atoms: C_10  and  C_23
    5  A    between atoms: C_10  and  C_26
    6  A    between atoms: C_11  and  C_25
    7  A    between atoms: C_13  and  C_30
                            x       y       z     vdW  Elec       q    Type
                         _______ _______ _______ _____ _____    ______ ____

>  <TORSDO>
F 7

$$$$
=
 OpenBabel10262421453D

 30 32  0  0  1  0  0  0  0  0999 V2000
  183.0690  179.0000  139.6880 C   0  0  0  0  0  0  0  0  0  0  0  0
  181.1300  177.3600  139.5200 C   0  0  2  0  0  3  0  0  0  0  0  0
  182.5620  180.2270  139.5260 C   0  0  0  0  0  3  0  0  0  0  0  0
  179.1030  180.0070  137.9730 C   0  0  0  0  0  3  0  0  0  0  0  0
  180.2160  179.6750  138.7540 C   0  0  0  0  0  0  0  0  0  0  0  0
  181.3430  181.6760  137.9500 C   0  0  0  0  0  3  0  0  0  0  0  0
  181.3570  180.5150  138.7300 C   0  0  0  0  0  0  0  0  0  0  0  0
  180.0920  178.4890  139.6810 C   0  0  2  0  0  3  0  0  0  0  0  0
  179.1120  181.1540  137.1770 C   0  0  0  0  0  3  0  0  0  0  0  0
  180.2290  181.9920  137.1710 C   0  0  0  0  0  3  0  0  0  0  0  0
  182.4690  177.8360  138.9240 C   0  0  2  0  0  3  0  0  0  0  0  0
  183.9030  178.5870  142.0510 C   0  0  0  0  0  0  0  0  0  0  0  0
  184.9730  178.3890  142.9310 C   0  0  0  0  0  3  0  0  0  0  0  0
  182.2820  178.6290  142.7290 Cl  0  0  0  0  0  0  0  0  0  0  0  0
  185.4820  178.8090  140.2200 C   0  0  0  0  0  3  0  0  0  0  0  0
  188.1880  178.6250  140.5140 Cl  0  0  0  0  0  0  0  0  0  0  0  0
  184.1550  178.7960  140.6750 C   0  0  0  0  0  0  0  0  0  0  0  0
  186.2870  178.3960  142.4610 C   0  0  0  0  0  3  0  0  0  0  0  0
  186.5410  178.6090  141.1060 C   0  0  0  0  0  0  0  0  0  0  0  0
  178.9430  177.9600  141.7530 O   0  0  0  0  0  1  0  0  0  0  0  0
  179.7780  178.8870  141.1280 C   0  0  2  0  0  3  0  0  0  0  0  0
  179.1810  180.2580  141.2050 C   0  0  0  0  0  3  0  0  0  0  0  0
  179.6800  181.1210  141.9090 O   0  0  0  0  0  0  0  0  0  0  0  0
  183.4680  176.6980  138.6970 C   0  0  0  0  0  2  0  0  0  0  0  0
  185.2340  175.9720  137.2620 O   0  0  0  0  0  1  0  0  0  0  0  0
  184.1140  176.8020  137.3250 C   0  0  0  0  0  2  0  0  0  0  0  0
  180.4950  176.2760  138.6520 C   0  0  0  0  0  2  0  0  0  0  0  0
  179.3620  174.1750  138.7260 O   0  0  0  0  0  1  0  0  0  0  0  0
  179.6890  175.2960  139.4890 C   0  0  1  0  0  3  0  0  0  0  0  0
  180.4390  174.9030  140.5800 F   0  0  0  0  0  0  0  0  0  0  0  0
  1 17  1  0  0  0  0
  2 27  1  6  0  0  0
  2  8  1  0  0  0  0
  3  1  2  0  0  0  0
  4  5  1  0  0  0  0
  5  8  1  0  0  0  0
  6  7  1  0  0  0  0
  7  5  2  0  0  0  0
  7  3  1  0  0  0  0
  8 21  1  1  0  0  0
  9  4  2  0  0  0  0
 10  9  1  0  0  0  0
 10  6  2  0  0  0  0
 11 24  1  1  0  0  0
 11  2  1  0  0  0  0
 11  1  1  0  0  0  0
 12 14  1  0  0  0  0
 12 13  1  0  0  0  0
 15 17  1  0  0  0  0
 15 19  2  0  0  0  0
 16 19  1  0  0  0  0
 17 12  2  0  0  0  0
 18 13  2  0  0  0  0
 19 18  1  0  0  0  0
 21 22  1  0  0  0  0
 21 20  1  6  0  0  0
 22 23  2  0  0  0  0
 25 26  1  0  0  0  0
 26 24  1  0  0  0  0
 27 29  1  0  0  0  0
 29 28  1  6  0  0  0
 29 30  1  0  0  0  0
M  END
>  <MODEL>
3

>  <REMARK>
 VINA RESULT:      -4.8      1.263      2.182
  Name = 
  7 active torsions:
  status: ('A' for Active; 'I' for Inactive)
    1  A    between atoms: C_1  and  C_22
    2  A    between atoms: C_4  and  C_25
    3  A    between atoms: C_7  and  C_30
    4  A    between atoms: C_10  and  C_23
    5  A    between atoms: C_10  and  C_26
    6  A    between atoms: C_11  and  C_25
    7  A    between atoms: C_13  and  C_30
                            x       y       z     vdW  Elec       q    Type
                         _______ _______ _______ _____ _____    ______ ____

>  <TORSDO>
F 7

$$$$
=
 OpenBabel10262421453D

 30 32  0  0  1  0  0  0  0  0999 V2000
  181.5320  176.0700  137.5150 C   0  0  0  0  0  0  0  0  0  0  0  0
  182.1460  177.3450  139.6300 C   0  0  2  0  0  3  0  0  0  0  0  0
  181.5190  176.9540  136.5110 C   0  0  0  0  0  3  0  0  0  0  0  0
  181.3450  180.4860  137.8970 C   0  0  0  0  0  3  0  0  0  0  0  0
  181.6790  179.1300  137.7920 C   0  0  0  0  0  0  0  0  0  0  0  0
  180.4430  179.0150  135.6990 C   0  0  0  0  0  3  0  0  0  0  0  0
  181.2080  178.3830  136.6850 C   0  0  0  0  0  0  0  0  0  0  0  0
  182.6320  178.5630  138.8180 C   0  0  2  0  0  3  0  0  0  0  0  0
  180.5570  181.0990  136.9210 C   0  0  0  0  0  3  0  0  0  0  0  0
  180.1120  180.3660  135.8190 C   0  0  0  0  0  3  0  0  0  0  0  0
  181.0850  176.5010  138.8980 C   0  0  2  0  0  3  0  0  0  0  0  0
  181.2570  173.6560  136.7720 C   0  0  0  0  0  0  0  0  0  0  0  0
  181.8210  172.3960  136.5470 C   0  0  0  0  0  3  0  0  0  0  0  0
  179.5320  173.8450  136.4850 Cl  0  0  0  0  0  0  0  0  0  0  0  0
  183.4180  174.4620  137.5290 C   0  0  0  0  0  3  0  0  0  0  0  0
  185.6670  172.9190  137.6290 Cl  0  0  0  0  0  0  0  0  0  0  0  0
  182.0620  174.7080  137.2660 C   0  0  0  0  0  0  0  0  0  0  0  0
  183.1740  172.1690  136.8050 C   0  0  0  0  0  3  0  0  0  0  0  0
  183.9710  173.2020  137.2990 C   0  0  0  0  0  0  0  0  0  0  0  0
  184.5690  177.1740  138.3610 O   0  0  0  0  0  1  0  0  0  0  0  0
  184.0770  178.4790  138.3130 C   0  0  2  0  0  3  0  0  0  0  0  0
  184.9800  179.4030  139.0690 C   0  0  0  0  0  3  0  0  0  0  0  0
  185.8690  178.9660  139.7840 O   0  0  0  0  0  0  0  0  0  0  0  0
  180.5530  175.3370  139.7390 C   0  0  0  0  0  2  0  0  0  0  0  0
  178.9350  175.3350  141.4960 O   0  0  0  0  0  1  0  0  0  0  0  0
  179.1020  175.5630  140.1290 C   0  0  0  0  0  2  0  0  0  0  0  0
  181.6130  177.8670  140.9610 C   0  0  0  0  0  2  0  0  0  0  0  0
  182.1610  179.1030  142.9300 O   0  0  0  0  0  1  0  0  0  0  0  0
  182.6590  178.6890  141.6950 C   0  0  1  0  0  3  0  0  0  0  0  0
  183.7880  177.9190  141.8940 F   0  0  0  0  0  0  0  0  0  0  0  0
  1 11  1  0  0  0  0
  2 27  1  1  0  0  0
  3  7  1  0  0  0  0
  3  1  2  0  0  0  0
  5  4  1  0  0  0  0
  5  8  1  0  0  0  0
  6 10  2  0  0  0  0
  6  7  1  0  0  0  0
  7  5  2  0  0  0  0
  8 21  1  6  0  0  0
  8  2  1  0  0  0  0
  9  4  2  0  0  0  0
 10  9  1  0  0  0  0
 11  2  1  0  0  0  0
 11 24  1  1  0  0  0
 12 17  1  0  0  0  0
 13 12  2  0  0  0  0
 13 18  1  0  0  0  0
 14 12  1  0  0  0  0
 17  1  1  0  0  0  0
 17 15  2  0  0  0  0
 18 19  2  0  0  0  0
 19 15  1  0  0  0  0
 19 16  1  0  0  0  0
 21 20  1  1  0  0  0
 21 22  1  0  0  0  0
 22 23  2  0  0  0  0
 24 26  1  0  0  0  0
 26 25  1  0  0  0  0
 27 29  1  0  0  0  0
 29 30  1  1  0  0  0
 29 28  1  0  0  0  0
M  END
>  <MODEL>
4

>  <REMARK>
 VINA RESULT:      -4.7      3.008      5.534
  Name = 
  7 active torsions:
  status: ('A' for Active; 'I' for Inactive)
    1  A    between atoms: C_1  and  C_22
    2  A    between atoms: C_4  and  C_25
    3  A    between atoms: C_7  and  C_30
    4  A    between atoms: C_10  and  C_23
    5  A    between atoms: C_10  and  C_26
    6  A    between atoms: C_11  and  C_25
    7  A    between atoms: C_13  and  C_30
                            x       y       z     vdW  Elec       q    Type
                         _______ _______ _______ _____ _____    ______ ____

>  <TORSDO>
F 7

$$$$
=
 OpenBabel10262421453D

 30 32  0  0  1  0  0  0  0  0999 V2000
  182.7850  178.8130  140.0310 C   0  0  0  0  0  0  0  0  0  0  0  0
  180.4220  178.7550  139.0870 C   0  0  2  0  0  3  0  0  0  0  0  0
  182.7180  178.3630  141.2890 C   0  0  0  0  0  3  0  0  0  0  0  0
  179.1260  178.4670  142.5150 C   0  0  0  0  0  3  0  0  0  0  0  0
  180.2140  178.3200  141.6470 C   0  0  0  0  0  0  0  0  0  0  0  0
  181.7200  178.7950  143.4980 C   0  0  0  0  0  3  0  0  0  0  0  0
  181.5280  178.5010  142.1440 C   0  0  0  0  0  0  0  0  0  0  0  0
  179.9280  177.8540  140.2390 C   0  0  2  0  0  3  0  0  0  0  0  0
  179.3290  178.7880  143.8590 C   0  0  0  0  0  3  0  0  0  0  0  0
  180.6260  178.9450  144.3520 C   0  0  0  0  0  3  0  0  0  0  0  0
  181.6370  179.6250  139.4650 C   0  0  2  0  0  3  0  0  0  0  0  0
  185.2840  178.6080  139.6250 C   0  0  0  0  0  0  0  0  0  0  0  0
  186.3390  178.2200  138.7910 C   0  0  0  0  0  3  0  0  0  0  0  0
  185.6890  179.3600  141.1610 Cl  0  0  0  0  0  0  0  0  0  0  0  0
  183.7080  177.8830  137.9270 C   0  0  0  0  0  3  0  0  0  0  0  0
  184.4420  176.8060  135.5300 Cl  0  0  0  0  0  0  0  0  0  0  0  0
  183.9480  178.4360  139.1940 C   0  0  0  0  0  0  0  0  0  0  0  0
  186.0820  177.6640  137.5370 C   0  0  0  0  0  3  0  0  0  0  0  0
  184.7670  177.4980  137.1040 C   0  0  0  0  0  0  0  0  0  0  0  0
  180.6030  176.0590  138.7500 O   0  0  0  0  0  1  0  0  0  0  0  0
  180.1650  176.3530  140.0430 C   0  0  2  0  0  3  0  0  0  0  0  0
  178.9420  175.5540  140.3700 C   0  0  0  0  0  3  0  0  0  0  0  0
  179.0200  174.5250  141.0240 O   0  0  0  0  0  0  0  0  0  0  0  0
  182.0740  180.5700  138.3430 C   0  0  0  0  0  2  0  0  0  0  0  0
  181.2890  182.6870  137.5660 O   0  0  0  0  0  1  0  0  0  0  0  0
  181.7650  182.0160  138.6930 C   0  0  0  0  0  2  0  0  0  0  0  0
  179.2430  179.6160  138.6440 C   0  0  0  0  0  2  0  0  0  0  0  0
  178.9330  180.6500  136.5140 O   0  0  0  0  0  1  0  0  0  0  0  0
  178.9340  179.4190  137.1700 C   0  0  1  0  0  3  0  0  0  0  0  0
  179.8950  178.6030  136.6070 F   0  0  0  0  0  0  0  0  0  0  0  0
  1  3  2  0  0  0  0
  2 27  1  1  0  0  0
  2 11  1  0  0  0  0
  2  8  1  0  0  0  0
  3  7  1  0  0  0  0
  4  9  1  0  0  0  0
  5  7  1  0  0  0  0
  5  4  2  0  0  0  0
  6 10  1  0  0  0  0
  7  6  2  0  0  0  0
  8 21  1  6  0  0  0
  8  5  1  0  0  0  0
  9 10  2  0  0  0  0
 11 24  1  6  0  0  0
 11  1  1  0  0  0  0
 12 14  1  0  0  0  0
 13 12  2  0  0  0  0
 15 17  2  0  0  0  0
 16 19  1  0  0  0  0
 17 12  1  0  0  0  0
 17  1  1  0  0  0  0
 18 13  1  0  0  0  0
 19 18  2  0  0  0  0
 19 15  1  0  0  0  0
 21 20  1  6  0  0  0
 21 22  1  0  0  0  0
 22 23  2  0  0  0  0
 24 26  1  0  0  0  0
 25 26  1  0  0  0  0
 29 28  1  6  0  0  0
 29 27  1  0  0  0  0
 30 29  1  0  0  0  0
M  END
>  <MODEL>
5

>  <REMARK>
 VINA RESULT:      -4.2      2.321      5.028
  Name = 
  7 active torsions:
  status: ('A' for Active; 'I' for Inactive)
    1  A    between atoms: C_1  and  C_22
    2  A    between atoms: C_4  and  C_25
    3  A    between atoms: C_7  and  C_30
    4  A    between atoms: C_10  and  C_23
    5  A    between atoms: C_10  and  C_26
    6  A    between atoms: C_11  and  C_25
    7  A    between atoms: C_13  and  C_30
                            x       y       z     vdW  Elec       q    Type
                         _______ _______ _______ _____ _____    ______ ____

>  <TORSDO>
F 7

$$$$
=
 OpenBabel10262421453D

 30 32  0  0  1  0  0  0  0  0999 V2000
  182.7140  178.4060  139.1030 C   0  0  0  0  0  0  0  0  0  0  0  0
  180.2380  178.7700  139.5670 C   0  0  2  0  0  3  0  0  0  0  0  0
  183.2670  177.9660  140.2390 C   0  0  0  0  0  3  0  0  0  0  0  0
  180.9630  178.6940  143.1690 C   0  0  0  0  0  3  0  0  0  0  0  0
  181.3770  178.3630  141.8740 C   0  0  0  0  0  0  0  0  0  0  0  0
  183.6930  178.5540  142.5930 C   0  0  0  0  0  3  0  0  0  0  0  0
  182.7610  178.3070  141.5790 C   0  0  0  0  0  0  0  0  0  0  0  0
  180.3110  177.9640  140.8800 C   0  0  2  0  0  3  0  0  0  0  0  0
  181.9030  178.9650  144.1660 C   0  0  0  0  0  3  0  0  0  0  0  0
  183.2680  178.8890  143.8790 C   0  0  0  0  0  3  0  0  0  0  0  0
  181.5800  179.4110  139.1630 C   0  0  2  0  0  3  0  0  0  0  0  0
  184.5280  177.8400  137.4180 C   0  0  0  0  0  0  0  0  0  0  0  0
  184.8970  177.2740  136.1930 C   0  0  0  0  0  3  0  0  0  0  0  0
  185.7890  178.5970  138.3820 Cl  0  0  0  0  0  0  0  0  0  0  0  0
  182.2150  177.2650  136.9600 C   0  0  0  0  0  3  0  0  0  0  0  0
  181.3830  175.9920  134.6950 Cl  0  0  0  0  0  0  0  0  0  0  0  0
  183.1710  177.8350  137.8140 C   0  0  0  0  0  0  0  0  0  0  0  0
  183.9350  176.7030  135.3590 C   0  0  0  0  0  3  0  0  0  0  0  0
  182.5930  176.7020  135.7410 C   0  0  0  0  0  0  0  0  0  0  0  0
  179.8130  176.0870  139.4240 O   0  0  0  0  0  1  0  0  0  0  0  0
  180.1740  176.4450  140.7230 C   0  0  2  0  0  3  0  0  0  0  0  0
  179.2020  175.8740  141.7080 C   0  0  0  0  0  3  0  0  0  0  0  0
  178.9320  174.6830  141.7060 O   0  0  0  0  0  0  0  0  0  0  0  0
  181.4830  180.2710  137.9000 C   0  0  0  0  0  2  0  0  0  0  0  0
  181.1090  182.6140  137.6280 O   0  0  0  0  0  1  0  0  0  0  0  0
  182.0000  181.6770  138.1550 C   0  0  0  0  0  2  0  0  0  0  0  0
  179.1530  179.8290  139.7420 C   0  0  0  0  0  2  0  0  0  0  0  0
  179.1880  182.1720  140.2030 O   0  0  0  0  0  1  0  0  0  0  0  0
  179.5990  180.9310  140.6890 C   0  0  1  0  0  3  0  0  0  0  0  0
  179.0360  180.7190  141.9320 F   0  0  0  0  0  0  0  0  0  0  0  0
  1 11  1  0  0  0  0
  1  3  2  0  0  0  0
  2 27  1  1  0  0  0
  2  8  1  0  0  0  0
  3  7  1  0  0  0  0
  4  9  1  0  0  0  0
  5  4  2  0  0  0  0
  6 10  1  0  0  0  0
  7  5  1  0  0  0  0
  7  6  2  0  0  0  0
  8 21  1  6  0  0  0
  8  5  1  0  0  0  0
 10  9  2  0  0  0  0
 11 24  1  6  0  0  0
 11  2  1  0  0  0  0
 12 17  1  0  0  0  0
 12 14  1  0  0  0  0
 13 12  2  0  0  0  0
 15 17  2  0  0  0  0
 16 19  1  0  0  0  0
 17  1  1  0  0  0  0
 18 19  2  0  0  0  0
 18 13  1  0  0  0  0
 19 15  1  0  0  0  0
 21 20  1  6  0  0  0
 21 22  1  0  0  0  0
 23 22  2  0  0  0  0
 24 26  1  0  0  0  0
 25 26  1  0  0  0  0
 27 29  1  0  0  0  0
 29 28  1  6  0  0  0
 29 30  1  0  0  0  0
M  END
>  <MODEL>
6

>  <REMARK>
 VINA RESULT:      -4.2      2.327      5.450
  Name = 
  7 active torsions:
  status: ('A' for Active; 'I' for Inactive)
    1  A    between atoms: C_1  and  C_22
    2  A    between atoms: C_4  and  C_25
    3  A    between atoms: C_7  and  C_30
    4  A    between atoms: C_10  and  C_23
    5  A    between atoms: C_10  and  C_26
    6  A    between atoms: C_11  and  C_25
    7  A    between atoms: C_13  and  C_30
                            x       y       z     vdW  Elec       q    Type
                         _______ _______ _______ _____ _____    ______ ____

>  <TORSDO>
F 7

$$$$
=
 OpenBabel10262421453D

 30 32  0  0  1  0  0  0  0  0999 V2000
  188.7480  174.3640  136.4600 C   0  0  0  0  0  0  0  0  0  0  0  0
  188.8970  176.8860  136.7700 C   0  0  2  0  0  3  0  0  0  0  0  0
  189.7810  173.8240  137.1180 C   0  0  0  0  0  3  0  0  0  0  0  0
  192.3890  176.4870  137.8450 C   0  0  0  0  0  3  0  0  0  0  0  0
  191.1370  175.8920  137.6540 C   0  0  0  0  0  0  0  0  0  0  0  0
  192.2400  173.7640  137.2390 C   0  0  0  0  0  3  0  0  0  0  0  0
  191.0640  174.5150  137.3320 C   0  0  0  0  0  0  0  0  0  0  0  0
  189.9130  176.7370  137.9220 C   0  0  2  0  0  3  0  0  0  0  0  0
  193.5580  175.7330  137.7220 C   0  0  0  0  0  3  0  0  0  0  0  0
  193.4830  174.3700  137.4260 C   0  0  0  0  0  3  0  0  0  0  0  0
  188.9160  175.7070  135.7770 C   0  0  2  0  0  3  0  0  0  0  0  0
  187.2260  172.4240  135.8520 C   0  0  0  0  0  0  0  0  0  0  0  0
  185.9690  171.8140  135.9220 C   0  0  0  0  0  3  0  0  0  0  0  0
  188.4740  171.6210  134.9070 Cl  0  0  0  0  0  0  0  0  0  0  0  0
  186.3750  174.2770  137.1690 C   0  0  0  0  0  3  0  0  0  0  0  0
  183.8140  174.4330  138.0970 Cl  0  0  0  0  0  0  0  0  0  0  0  0
  187.4390  173.6700  136.4850 C   0  0  0  0  0  0  0  0  0  0  0  0
  184.9230  172.4270  136.6140 C   0  0  0  0  0  3  0  0  0  0  0  0
  185.1260  173.6590  137.2340 C   0  0  0  0  0  0  0  0  0  0  0  0
  188.0840  177.1510  139.4630 O   0  0  0  0  0  1  0  0  0  0  0  0
  189.3020  176.4890  139.3050 C   0  0  2  0  0  3  0  0  0  0  0  0
  190.2470  176.8720  140.4020 C   0  0  0  0  0  3  0  0  0  0  0  0
  190.5000  176.0970  141.3110 O   0  0  0  0  0  0  0  0  0  0  0  0
  187.9590  175.8960  134.5970 C   0  0  0  0  0  2  0  0  0  0  0  0
  185.5990  176.2650  134.5950 O   0  0  0  0  0  1  0  0  0  0  0  0
  186.8200  176.8340  134.9620 C   0  0  0  0  0  2  0  0  0  0  0  0
  189.1960  178.2060  136.0650 C   0  0  0  0  0  2  0  0  0  0  0  0
  187.3150  179.1700  137.1750 O   0  0  0  0  0  1  0  0  0  0  0  0
  188.6530  179.3890  136.8470 C   0  0  1  0  0  3  0  0  0  0  0  0
  189.3860  179.5460  138.0070 F   0  0  0  0  0  0  0  0  0  0  0  0
  1 17  1  0  0  0  0
  1  3  2  0  0  0  0
  2 27  1  6  0  0  0
  2  8  1  0  0  0  0
  3  7  1  0  0  0  0
  5  4  2  0  0  0  0
  5  8  1  0  0  0  0
  6  7  2  0  0  0  0
  6 10  1  0  0  0  0
  7  5  1  0  0  0  0
  8 21  1  1  0  0  0
  9  4  1  0  0  0  0
 10  9  2  0  0  0  0
 11 24  1  6  0  0  0
 11  1  1  0  0  0  0
 11  2  1  0  0  0  0
 12 13  2  0  0  0  0
 12 17  1  0  0  0  0
 13 18  1  0  0  0  0
 14 12  1  0  0  0  0
 15 19  1  0  0  0  0
 17 15  2  0  0  0  0
 18 19  2  0  0  0  0
 19 16  1  0  0  0  0
 21 20  1  1  0  0  0
 21 22  1  0  0  0  0
 22 23  2  0  0  0  0
 24 26  1  0  0  0  0
 25 26  1  0  0  0  0
 27 29  1  0  0  0  0
 29 28  1  1  0  0  0
 29 30  1  0  0  0  0
M  END
>  <MODEL>
7

>  <REMARK>
 VINA RESULT:      -4.1      7.288     10.104
  Name = 
  7 active torsions:
  status: ('A' for Active; 'I' for Inactive)
    1  A    between atoms: C_1  and  C_22
    2  A    between atoms: C_4  and  C_25
    3  A    between atoms: C_7  and  C_30
    4  A    between atoms: C_10  and  C_23
    5  A    between atoms: C_10  and  C_26
    6  A    between atoms: C_11  and  C_25
    7  A    between atoms: C_13  and  C_30
                            x       y       z     vdW  Elec       q    Type
                         _______ _______ _______ _____ _____    ______ ____

>  <TORSDO>
F 7

$$$$
=
 OpenBabel10262421453D

 30 32  0  0  1  0  0  0  0  0999 V2000
  183.0010  178.8550  139.9060 C   0  0  0  0  0  0  0  0  0  0  0  0
  183.2070  176.7820  138.4450 C   0  0  2  0  0  3  0  0  0  0  0  0
  181.9610  179.5600  139.4460 C   0  0  0  0  0  3  0  0  0  0  0  0
  181.0630  178.4080  135.9410 C   0  0  0  0  0  3  0  0  0  0  0  0
  181.4930  178.3540  137.2710 C   0  0  0  0  0  0  0  0  0  0  0  0
  181.0880  180.7450  137.4720 C   0  0  0  0  0  3  0  0  0  0  0  0
  181.5190  179.5430  138.0420 C   0  0  0  0  0  0  0  0  0  0  0  0
  181.7980  176.9940  137.8530 C   0  0  2  0  0  3  0  0  0  0  0  0
  180.6610  179.6200  135.3740 C   0  0  0  0  0  3  0  0  0  0  0  0
  180.6670  180.7860  136.1410 C   0  0  0  0  0  3  0  0  0  0  0  0
  183.8710  178.0840  138.9330 C   0  0  2  0  0  3  0  0  0  0  0  0
  182.1810  178.9300  142.3090 C   0  0  0  0  0  0  0  0  0  0  0  0
  182.4580  178.8370  143.6770 C   0  0  0  0  0  3  0  0  0  0  0  0
  180.5300  179.2990  141.8320 Cl  0  0  0  0  0  0  0  0  0  0  0  0
  184.5300  178.5480  141.8320 C   0  0  0  0  0  3  0  0  0  0  0  0
  186.4290  178.1600  143.7520 Cl  0  0  0  0  0  0  0  0  0  0  0  0
  183.2270  178.7800  141.3690 C   0  0  0  0  0  0  0  0  0  0  0  0
  183.7590  178.5970  144.1220 C   0  0  0  0  0  3  0  0  0  0  0  0
  184.7960  178.4550  143.1990 C   0  0  0  0  0  0  0  0  0  0  0  0
  181.0610  176.0740  139.9760 O   0  0  0  0  0  1  0  0  0  0  0  0
  180.6450  176.4270  138.6910 C   0  0  2  0  0  3  0  0  0  0  0  0
  179.9960  175.2590  138.0160 C   0  0  0  0  0  3  0  0  0  0  0  0
  180.3250  174.9220  136.8900 O   0  0  0  0  0  0  0  0  0  0  0  0
  185.2970  177.8780  139.4490 C   0  0  0  0  0  2  0  0  0  0  0  0
  187.5400  178.5650  138.9980 O   0  0  0  0  0  1  0  0  0  0  0  0
  186.3220  178.2550  138.3920 C   0  0  0  0  0  2  0  0  0  0  0  0
  184.0530  176.1010  137.3720 C   0  0  0  0  0  2  0  0  0  0  0  0
  183.4860  174.1380  136.1370 O   0  0  0  0  0  1  0  0  0  0  0  0
  183.8730  174.5920  137.3970 C   0  0  1  0  0  3  0  0  0  0  0  0
  185.0670  173.9950  137.7510 F   0  0  0  0  0  0  0  0  0  0  0  0
  1 17  1  0  0  0  0
  2 27  1  6  0  0  0
  2 11  1  0  0  0  0
  3  1  2  0  0  0  0
  4  5  1  0  0  0  0
  5  8  1  0  0  0  0
  5  7  2  0  0  0  0
  6  7  1  0  0  0  0
  7  3  1  0  0  0  0
  8  2  1  0  0  0  0
  8 21  1  1  0  0  0
  9  4  2  0  0  0  0
  9 10  1  0  0  0  0
 10  6  2  0  0  0  0
 11 24  1  1  0  0  0
 11  1  1  0  0  0  0
 12 13  1  0  0  0  0
 13 18  2  0  0  0  0
 14 12  1  0  0  0  0
 15 19  2  0  0  0  0
 17 15  1  0  0  0  0
 17 12  2  0  0  0  0
 19 16  1  0  0  0  0
 19 18  1  0  0  0  0
 21 20  1  1  0  0  0
 22 21  1  0  0  0  0
 23 22  2  0  0  0  0
 26 25  1  0  0  0  0
 26 24  1  0  0  0  0
 27 29  1  0  0  0  0
 29 28  1  6  0  0  0
 29 30  1  0  0  0  0
M  END
>  <MODEL>
8

>  <REMARK>
 VINA RESULT:      -4.0      2.568      3.906
  Name = 
  7 active torsions:
  status: ('A' for Active; 'I' for Inactive)
    1  A    between atoms: C_1  and  C_22
    2  A    between atoms: C_4  and  C_25
    3  A    between atoms: C_7  and  C_30
    4  A    between atoms: C_10  and  C_23
    5  A    between atoms: C_10  and  C_26
    6  A    between atoms: C_11  and  C_25
    7  A    between atoms: C_13  and  C_30
                            x       y       z     vdW  Elec       q    Type
                         _______ _______ _______ _____ _____    ______ ____

>  <TORSDO>
F 7

$$$$
=
 OpenBabel10262421453D

 30 32  0  0  1  0  0  0  0  0999 V2000
  183.7810  177.5980  137.5540 C   0  0  0  0  0  0  0  0  0  0  0  0
  182.6220  176.3540  139.4470 C   0  0  2  0  0  3  0  0  0  0  0  0
  183.1110  178.7400  137.3640 C   0  0  0  0  0  3  0  0  0  0  0  0
  179.6870  178.5200  138.9920 C   0  0  0  0  0  3  0  0  0  0  0  0
  181.0580  178.3290  138.7850 C   0  0  0  0  0  0  0  0  0  0  0  0
  180.9120  179.6710  136.7600 C   0  0  0  0  0  3  0  0  0  0  0  0
  181.6750  178.9010  137.6450 C   0  0  0  0  0  0  0  0  0  0  0  0
  181.8360  177.6140  139.8650 C   0  0  2  0  0  3  0  0  0  0  0  0
  178.9310  179.2680  138.0870 C   0  0  0  0  0  3  0  0  0  0  0  0
  179.5440  179.8480  136.9750 C   0  0  0  0  0  3  0  0  0  0  0  0
  183.0280  176.3470  137.9600 C   0  0  2  0  0  3  0  0  0  0  0  0
  185.9310  177.3510  136.2240 C   0  0  0  0  0  0  0  0  0  0  0  0
  187.3290  177.3850  136.1810 C   0  0  0  0  0  3  0  0  0  0  0  0
  185.0760  176.9230  134.7480 Cl  0  0  0  0  0  0  0  0  0  0  0  0
  186.0150  177.8810  138.5910 C   0  0  0  0  0  3  0  0  0  0  0  0
  188.3300  178.2630  139.9830 Cl  0  0  0  0  0  0  0  0  0  0  0  0
  185.2590  177.6060  137.4420 C   0  0  0  0  0  0  0  0  0  0  0  0
  188.0660  177.6680  137.3310 C   0  0  0  0  0  3  0  0  0  0  0  0
  187.4080  177.9130  138.5370 C   0  0  0  0  0  0  0  0  0  0  0  0
  183.8080  178.0440  141.2120 O   0  0  0  0  0  1  0  0  0  0  0  0
  182.5830  178.5710  140.8010 C   0  0  2  0  0  3  0  0  0  0  0  0
  181.7520  178.9420  141.9890 C   0  0  0  0  0  3  0  0  0  0  0  0
  182.1990  178.8480  143.1220 O   0  0  0  0  0  0  0  0  0  0  0  0
  183.7410  175.0610  137.5350 C   0  0  0  0  0  2  0  0  0  0  0  0
  183.1650  173.0340  136.4100 O   0  0  0  0  0  1  0  0  0  0  0  0
  183.0540  174.4240  136.3390 C   0  0  0  0  0  2  0  0  0  0  0  0
  181.7560  175.1430  139.7870 C   0  0  0  0  0  2  0  0  0  0  0  0
  180.3400  173.8530  138.3610 O   0  0  0  0  0  1  0  0  0  0  0  0
  180.4910  175.1100  138.9460 C   0  0  1  0  0  3  0  0  0  0  0  0
  179.4000  175.3740  139.7500 F   0  0  0  0  0  0  0  0  0  0  0  0
  1 11  1  0  0  0  0
  2 27  1  6  0  0  0
  2  8  1  0  0  0  0
  3  1  2  0  0  0  0
  3  7  1  0  0  0  0
  5  4  1  0  0  0  0
  5  8  1  0  0  0  0
  6 10  2  0  0  0  0
  6  7  1  0  0  0  0
  7  5  2  0  0  0  0
  8 21  1  6  0  0  0
  9  4  2  0  0  0  0
 10  9  1  0  0  0  0
 11 24  1  1  0  0  0
 11  2  1  0  0  0  0
 12 17  1  0  0  0  0
 13 12  2  0  0  0  0
 13 18  1  0  0  0  0
 14 12  1  0  0  0  0
 17  1  1  0  0  0  0
 17 15  2  0  0  0  0
 18 19  2  0  0  0  0
 19 15  1  0  0  0  0
 19 16  1  0  0  0  0
 21 20  1  1  0  0  0
 21 22  1  0  0  0  0
 22 23  2  0  0  0  0
 26 25  1  0  0  0  0
 26 24  1  0  0  0  0
 29 28  1  1  0  0  0
 29 30  1  0  0  0  0
 29 27  1  0  0  0  0
M  END
>  <MODEL>
9

>  <REMARK>
 VINA RESULT:      -3.9      2.583      3.589
  Name = 
  7 active torsions:
  status: ('A' for Active; 'I' for Inactive)
    1  A    between atoms: C_1  and  C_22
    2  A    between atoms: C_4  and  C_25
    3  A    between atoms: C_7  and  C_30
    4  A    between atoms: C_10  and  C_23
    5  A    between atoms: C_10  and  C_26
    6  A    between atoms: C_11  and  C_25
    7  A    between atoms: C_13  and  C_30
                            x       y       z     vdW  Elec       q    Type
                         _______ _______ _______ _____ _____    ______ ____

>  <TORSDO>
F 7

$$$$
