=
 OpenBabel10262420503D

 28 32  0  0  1  0  0  0  0  0999 V2000
  187.7400  176.9350  144.1280 C   0  0  0  0  0  0  0  0  0  0  0  0
  184.3480  178.1470  140.1460 C   0  0  0  0  0  3  0  0  0  0  0  0
  185.0830  180.5920  144.7810 C   0  0  0  0  0  1  0  0  0  0  0  0
  182.3550  178.4660  141.4960 C   0  0  0  0  0  0  0  0  0  0  0  0
  184.6350  178.6120  142.6150 C   0  0  2  0  0  3  0  0  0  0  0  0
  182.1610  178.0400  139.1170 C   0  0  0  0  0  0  0  0  0  0  0  0
  183.7600  178.3650  141.4020 C   0  0  0  0  0  0  0  0  0  0  0  0
  182.6510  179.3910  143.7730 C   0  0  0  0  0  2  0  0  0  0  0  0
  181.5640  178.2850  140.3560 C   0  0  0  0  0  3  0  0  0  0  0  0
  185.9690  178.3000  145.1080 C   0  0  0  0  0  0  0  0  0  0  0  0
  185.7520  177.5650  142.6930 C   0  0  0  0  0  2  0  0  0  0  0  0
  181.6860  178.7150  142.8110 C   0  0  0  0  0  2  0  0  0  0  0  0
  187.8320  177.5780  146.4750 C   0  0  0  0  0  3  0  0  0  0  0  0
  184.7140  179.1170  144.9700 C   0  0  2  0  0  3  0  0  0  0  0  0
  186.6340  178.2780  146.3370 C   0  0  0  0  0  3  0  0  0  0  0  0
  181.3700  177.8640  137.9900 O   0  0  0  0  0  1  0  0  0  0  0  0
  183.5510  177.9780  139.0110 C   0  0  0  0  0  3  0  0  0  0  0  0
  183.8730  178.5920  143.8790 N   0  0  2  0  0  0  0  0  0  0  0  0
  188.3770  176.9070  145.3810 C   0  0  0  0  0  3  0  0  0  0  0  0
  186.5160  177.6260  143.9940 C   0  0  0  0  0  0  0  0  0  0  0  0
  188.3160  176.1720  142.9490 C   0  0  1  0  0  3  0  0  0  0  0  0
  189.4400  176.8910  142.1730 C   0  0  2  0  0  3  0  0  0  0  0  0
  189.7650  175.7760  143.1520 C   0  0  0  0  0  2  0  0  0  0  0  0
  190.9910  178.4090  143.4890 C   0  0  0  0  0  0  0  0  0  0  0  0
  189.0840  179.3710  142.1990 C   0  0  0  0  0  1  0  0  0  0  0  0
  189.7900  178.2090  142.7210 N   0  0  0  0  0  0  0  0  0  0  0  0
  191.2930  179.7340  144.1050 C   0  0  0  0  0  1  0  0  0  0  0  0
  191.8110  177.4670  143.6540 O   0  0  0  0  0  0  0  0  0  0  0  0
  1 19  1  0  0  0  0
  2  7  1  0  0  0  0
  4 12  1  0  0  0  0
  5 11  1  1  0  0  0
  5 18  1  0  0  0  0
  6  9  2  0  0  0  0
  7  4  2  0  0  0  0
  7  5  1  0  0  0  0
  9  4  1  0  0  0  0
 10 15  2  0  0  0  0
 11 20  1  0  0  0  0
 12  8  1  0  0  0  0
 14  3  1  6  0  0  0
 14 10  1  0  0  0  0
 15 13  1  0  0  0  0
 16  6  1  0  0  0  0
 17  6  1  0  0  0  0
 17  2  2  0  0  0  0
 18  8  1  6  0  0  0
 18 14  1  0  0  0  0
 19 13  2  0  0  0  0
 20  1  2  0  0  0  0
 20 10  1  0  0  0  0
 21 23  1  0  0  0  0
 21  1  1  1  0  0  0
 22 26  1  1  0  0  0
 22 21  1  0  0  0  0
 22 23  1  0  0  0  0
 24 28  2  0  0  0  0
 24 27  1  0  0  0  0
 25 26  1  0  0  0  0
 26 24  1  0  0  0  0
M  END
>  <MODEL>
1

>  <REMARK>
 VINA RESULT:      -7.4      0.000      0.000
  Name = 
  2 active torsions:
  status: ('A' for Active; 'I' for Inactive)
    1  A    between atoms: C_1  and  C_2
    2  A    between atoms: C_3  and  N_11
                            x       y       z     vdW  Elec       q    Type
                         _______ _______ _______ _____ _____    ______ ____

>  <TORSDO>
F 2

$$$$
=
 OpenBabel10262420503D

 28 32  0  0  1  0  0  0  0  0999 V2000
  189.3680  177.5720  137.4900 C   0  0  0  0  0  0  0  0  0  0  0  0
  186.3820  179.1730  141.6550 C   0  0  0  0  0  3  0  0  0  0  0  0
  191.4820  177.7710  141.5330 C   0  0  0  0  0  1  0  0  0  0  0  0
  187.0310  177.4320  143.2170 C   0  0  0  0  0  0  0  0  0  0  0  0
  188.5340  177.9180  141.2220 C   0  0  2  0  0  3  0  0  0  0  0  0
  184.9940  178.6950  143.5790 C   0  0  0  0  0  0  0  0  0  0  0  0
  187.2710  178.1520  142.0270 C   0  0  0  0  0  0  0  0  0  0  0  0
  189.3440  176.5600  143.0610 C   0  0  0  0  0  2  0  0  0  0  0  0
  185.8870  177.6960  143.9750 C   0  0  0  0  0  3  0  0  0  0  0  0
  190.4810  176.7570  139.5050 C   0  0  0  0  0  0  0  0  0  0  0  0
  188.2130  177.8650  139.7240 C   0  0  0  0  0  2  0  0  0  0  0  0
  187.9620  176.3480  143.6610 C   0  0  0  0  0  2  0  0  0  0  0  0
  191.4950  176.3950  137.3360 C   0  0  0  0  0  3  0  0  0  0  0  0
  190.5750  176.6560  141.0020 C   0  0  2  0  0  3  0  0  0  0  0  0
  191.5290  176.2600  138.7230 C   0  0  0  0  0  3  0  0  0  0  0  0
  183.8610  178.9520  144.3370 O   0  0  0  0  0  1  0  0  0  0  0  0
  185.2450  179.4370  142.4240 C   0  0  0  0  0  3  0  0  0  0  0  0
  189.2300  176.6750  141.6060 N   0  0  2  0  0  0  0  0  0  0  0  0
  190.4200  177.0400  136.7240 C   0  0  0  0  0  3  0  0  0  0  0  0
  189.3910  177.4140  138.8930 C   0  0  0  0  0  0  0  0  0  0  0  0
  188.1810  178.2380  136.8190 C   0  0  1  0  0  3  0  0  0  0  0  0
  187.3540  177.3370  135.8770 C   0  0  2  0  0  3  0  0  0  0  0  0
  186.8500  177.6700  137.2720 C   0  0  0  0  0  2  0  0  0  0  0  0
  187.3210  174.9200  136.6490 C   0  0  0  0  0  0  0  0  0  0  0  0
  188.6230  175.5770  134.6240 C   0  0  0  0  0  1  0  0  0  0  0  0
  187.8450  175.9550  135.7960 N   0  0  0  0  0  0  0  0  0  0  0  0
  187.8830  173.5380  136.6110 C   0  0  0  0  0  1  0  0  0  0  0  0
  186.3730  175.1620  137.4440 O   0  0  0  0  0  0  0  0  0  0  0  0
  1 20  1  0  0  0  0
  2  7  2  0  0  0  0
  2 17  1  0  0  0  0
  4 12  1  0  0  0  0
  4  9  2  0  0  0  0
  5 11  1  6  0  0  0
  5 18  1  0  0  0  0
  5  7  1  0  0  0  0
  6  9  1  0  0  0  0
  6 16  1  0  0  0  0
  7  4  1  0  0  0  0
  8 12  1  0  0  0  0
 10 14  1  0  0  0  0
 13 15  2  0  0  0  0
 14  3  1  1  0  0  0
 14 18  1  0  0  0  0
 15 10  1  0  0  0  0
 17  6  2  0  0  0  0
 18  8  1  1  0  0  0
 19 13  1  0  0  0  0
 19  1  2  0  0  0  0
 20 10  2  0  0  0  0
 20 11  1  0  0  0  0
 21 23  1  0  0  0  0
 21  1  1  1  0  0  0
 22 26  1  1  0  0  0
 22 21  1  0  0  0  0
 22 23  1  0  0  0  0
 24 28  2  0  0  0  0
 25 26  1  0  0  0  0
 26 24  1  0  0  0  0
 27 24  1  0  0  0  0
M  END
>  <MODEL>
2

>  <REMARK>
 VINA RESULT:      -6.6      4.127      6.991
  Name = 
  2 active torsions:
  status: ('A' for Active; 'I' for Inactive)
    1  A    between atoms: C_1  and  C_2
    2  A    between atoms: C_3  and  N_11
                            x       y       z     vdW  Elec       q    Type
                         _______ _______ _______ _____ _____    ______ ____

>  <TORSDO>
F 2

$$$$
=
 OpenBabel10262420503D

 28 32  0  0  1  0  0  0  0  0999 V2000
  184.8080  178.8350  141.1710 C   0  0  0  0  0  0  0  0  0  0  0  0
  189.7670  177.1120  140.0470 C   0  0  0  0  0  3  0  0  0  0  0  0
  186.8260  176.2670  144.3630 C   0  0  0  0  0  1  0  0  0  0  0  0
  190.8080  177.6980  142.1600 C   0  0  0  0  0  0  0  0  0  0  0  0
  188.2780  177.4520  142.0610 C   0  0  2  0  0  3  0  0  0  0  0  0
  192.1730  177.3310  140.1900 C   0  0  0  0  0  0  0  0  0  0  0  0
  189.6420  177.4590  141.4010 C   0  0  0  0  0  0  0  0  0  0  0  0
  189.4150  177.5490  144.2010 C   0  0  0  0  0  2  0  0  0  0  0  0
  192.0640  177.6500  141.5460 C   0  0  0  0  0  3  0  0  0  0  0  0
  185.8610  178.2910  143.3050 C   0  0  0  0  0  0  0  0  0  0  0  0
  187.2590  178.2000  141.1940 C   0  0  0  0  0  2  0  0  0  0  0  0
  190.7230  178.0530  143.6110 C   0  0  0  0  0  2  0  0  0  0  0  0
  183.5520  179.0140  143.2500 C   0  0  0  0  0  3  0  0  0  0  0  0
  187.0260  177.7630  144.0970 C   0  0  2  0  0  3  0  0  0  0  0  0
  184.6650  178.5810  143.9680 C   0  0  0  0  0  3  0  0  0  0  0  0
  193.4220  177.2840  139.5880 O   0  0  0  0  0  1  0  0  0  0  0  0
  191.0270  177.0560  139.4430 C   0  0  0  0  0  3  0  0  0  0  0  0
  188.2950  178.0570  143.4070 N   0  0  2  0  0  0  0  0  0  0  0  0
  183.6250  179.1450  141.8630 C   0  0  0  0  0  3  0  0  0  0  0  0
  185.9420  178.4180  141.9010 C   0  0  0  0  0  0  0  0  0  0  0  0
  184.8960  179.0160  139.6670 C   0  0  1  0  0  3  0  0  0  0  0  0
  183.7500  178.3830  138.8500 C   0  0  2  0  0  3  0  0  0  0  0  0
  183.7810  179.8800  139.1100 C   0  0  0  0  0  2  0  0  0  0  0  0
  181.4420  178.3060  139.9030 C   0  0  0  0  0  0  0  0  0  0  0  0
  182.9270  176.3020  139.9770 C   0  0  0  0  0  1  0  0  0  0  0  0
  182.7340  177.7140  139.6730 N   0  0  0  0  0  0  0  0  0  0  0  0
  180.4490  177.6530  140.8050 C   0  0  0  0  0  1  0  0  0  0  0  0
  181.1250  179.3900  139.3420 O   0  0  0  0  0  0  0  0  0  0  0  0
  1 19  2  0  0  0  0
  1 20  1  0  0  0  0
  2  7  1  0  0  0  0
  4 12  1  0  0  0  0
  5 11  1  6  0  0  0
  5 18  1  0  0  0  0
  6  9  2  0  0  0  0
  7  5  1  0  0  0  0
  7  4  2  0  0  0  0
  9  4  1  0  0  0  0
 10 15  1  0  0  0  0
 10 14  1  0  0  0  0
 11 20  1  0  0  0  0
 12  8  1  0  0  0  0
 13 15  2  0  0  0  0
 14  3  1  6  0  0  0
 16  6  1  0  0  0  0
 17  2  2  0  0  0  0
 17  6  1  0  0  0  0
 18 14  1  0  0  0  0
 18  8  1  1  0  0  0
 19 13  1  0  0  0  0
 20 10  2  0  0  0  0
 21  1  1  1  0  0  0
 22 23  1  0  0  0  0
 22 21  1  0  0  0  0
 22 26  1  1  0  0  0
 23 21  1  0  0  0  0
 24 27  1  0  0  0  0
 26 24  1  0  0  0  0
 26 25  1  0  0  0  0
 28 24  2  0  0  0  0
M  END
>  <MODEL>
3

>  <REMARK>
 VINA RESULT:      -6.3      1.988      7.317
  Name = 
  2 active torsions:
  status: ('A' for Active; 'I' for Inactive)
    1  A    between atoms: C_1  and  C_2
    2  A    between atoms: C_3  and  N_11
                            x       y       z     vdW  Elec       q    Type
                         _______ _______ _______ _____ _____    ______ ____

>  <TORSDO>
F 2

$$$$
=
 OpenBabel10262420503D

 28 32  0  0  1  0  0  0  0  0999 V2000
  181.3540  176.8250  139.2660 C   0  0  0  0  0  0  0  0  0  0  0  0
  183.2030  178.7040  143.9430 C   0  0  0  0  0  3  0  0  0  0  0  0
  184.5630  180.0640  139.0140 C   0  0  0  0  0  1  0  0  0  0  0  0
  185.5740  178.5820  143.4340 C   0  0  0  0  0  0  0  0  0  0  0  0
  183.9030  178.6090  141.5150 C   0  0  2  0  0  3  0  0  0  0  0  0
  184.8270  178.7020  145.7370 C   0  0  0  0  0  0  0  0  0  0  0  0
  184.2330  178.5920  142.9950 C   0  0  0  0  0  0  0  0  0  0  0  0
  186.2620  178.9790  141.0890 C   0  0  0  0  0  2  0  0  0  0  0  0
  185.8620  178.6190  144.8020 C   0  0  0  0  0  3  0  0  0  0  0  0
  183.5370  177.8170  138.8080 C   0  0  0  0  0  0  0  0  0  0  0  0
  182.7530  177.6420  141.2110 C   0  0  0  0  0  2  0  0  0  0  0  0
  186.7030  178.4830  142.4580 C   0  0  0  0  0  2  0  0  0  0  0  0
  182.2160  176.9170  136.9900 C   0  0  0  0  0  3  0  0  0  0  0  0
  184.7600  178.5650  139.2630 C   0  0  2  0  0  3  0  0  0  0  0  0
  183.3690  177.5560  137.4450 C   0  0  0  0  0  3  0  0  0  0  0  0
  185.1200  178.7400  147.0930 O   0  0  0  0  0  1  0  0  0  0  0  0
  183.5000  178.7510  145.3080 C   0  0  0  0  0  3  0  0  0  0  0  0
  185.0620  178.2530  140.6720 N   0  0  2  0  0  0  0  0  0  0  0  0
  181.2190  176.5490  137.8940 C   0  0  0  0  0  3  0  0  0  0  0  0
  182.5320  177.4500  139.7290 C   0  0  0  0  0  0  0  0  0  0  0  0
  180.2860  176.3880  140.2520 C   0  0  1  0  0  3  0  0  0  0  0  0
  179.1450  177.4000  140.4900 C   0  0  2  0  0  3  0  0  0  0  0  0
  178.9310  176.1850  139.6030 C   0  0  0  0  0  2  0  0  0  0  0  0
  179.9220  179.8010  140.2230 C   0  0  0  0  0  0  0  0  0  0  0  0
  179.0170  178.5460  138.2650 C   0  0  0  0  0  1  0  0  0  0  0  0
  179.2680  178.6310  139.6980 N   0  0  0  0  0  0  0  0  0  0  0  0
  179.9700  181.0690  139.4380 C   0  0  0  0  0  1  0  0  0  0  0  0
  180.4690  179.7750  141.3580 O   0  0  0  0  0  0  0  0  0  0  0  0
  1 20  1  0  0  0  0
  2 17  1  0  0  0  0
  4  9  2  0  0  0  0
  5 11  1  1  0  0  0
  5  7  1  0  0  0  0
  6 16  1  0  0  0  0
  7  4  1  0  0  0  0
  7  2  2  0  0  0  0
  8 12  1  0  0  0  0
  9  6  1  0  0  0  0
 10 14  1  0  0  0  0
 10 20  2  0  0  0  0
 12  4  1  0  0  0  0
 13 15  2  0  0  0  0
 13 19  1  0  0  0  0
 14  3  1  1  0  0  0
 14 18  1  0  0  0  0
 15 10  1  0  0  0  0
 17  6  2  0  0  0  0
 18  8  1  1  0  0  0
 18  5  1  0  0  0  0
 19  1  2  0  0  0  0
 20 11  1  0  0  0  0
 21  1  1  6  0  0  0
 21 22  1  0  0  0  0
 22 26  1  6  0  0  0
 23 21  1  0  0  0  0
 23 22  1  0  0  0  0
 24 28  2  0  0  0  0
 25 26  1  0  0  0  0
 26 24  1  0  0  0  0
 27 24  1  0  0  0  0
M  END
>  <MODEL>
4

>  <REMARK>
 VINA RESULT:      -6.2      2.957      8.099
  Name = 
  2 active torsions:
  status: ('A' for Active; 'I' for Inactive)
    1  A    between atoms: C_1  and  C_2
    2  A    between atoms: C_3  and  N_11
                            x       y       z     vdW  Elec       q    Type
                         _______ _______ _______ _____ _____    ______ ____

>  <TORSDO>
F 2

$$$$
=
 OpenBabel10262420503D

 28 32  0  0  1  0  0  0  0  0999 V2000
  187.0510  178.2640  139.0220 C   0  0  0  0  0  0  0  0  0  0  0  0
  187.1230  177.4490  144.3290 C   0  0  0  0  0  3  0  0  0  0  0  0
  183.0390  177.2760  140.9690 C   0  0  0  0  0  1  0  0  0  0  0  0
  185.2270  178.8510  144.9040 C   0  0  0  0  0  0  0  0  0  0  0  0
  185.4630  178.0240  142.5100 C   0  0  2  0  0  3  0  0  0  0  0  0
  186.8470  178.2370  146.6000 C   0  0  0  0  0  0  0  0  0  0  0  0
  185.9680  178.1430  143.9340 C   0  0  0  0  0  0  0  0  0  0  0  0
  183.3760  179.0020  143.2660 C   0  0  0  0  0  2  0  0  0  0  0  0
  185.6800  178.9080  146.2260 C   0  0  0  0  0  3  0  0  0  0  0  0
  184.7710  178.6260  139.8180 C   0  0  0  0  0  0  0  0  0  0  0  0
  186.6110  178.2330  141.5150 C   0  0  0  0  0  2  0  0  0  0  0  0
  183.9800  179.5900  144.5330 C   0  0  0  0  0  2  0  0  0  0  0  0
  185.2580  178.7610  137.4500 C   0  0  0  0  0  3  0  0  0  0  0  0
  183.7530  178.6310  140.9240 C   0  0  2  0  0  3  0  0  0  0  0  0
  184.3440  178.8220  138.5010 C   0  0  0  0  0  3  0  0  0  0  0  0
  187.2900  178.2960  147.9140 O   0  0  0  0  0  1  0  0  0  0  0  0
  187.5630  177.5020  145.6540 C   0  0  0  0  0  3  0  0  0  0  0  0
  184.3860  178.9870  142.2070 N   0  0  2  0  0  0  0  0  0  0  0  0
  186.6010  178.4910  137.7100 C   0  0  0  0  0  3  0  0  0  0  0  0
  186.1290  178.3490  140.0880 C   0  0  0  0  0  0  0  0  0  0  0  0
  188.5190  178.0090  139.3050 C   0  0  1  0  0  3  0  0  0  0  0  0
  189.2220  177.0220  138.3490 C   0  0  2  0  0  3  0  0  0  0  0  0
  189.4300  178.5210  138.2060 C   0  0  0  0  0  2  0  0  0  0  0  0
  188.4970  176.9040  135.9190 C   0  0  0  0  0  0  0  0  0  0  0  0
  187.5500  175.3150  137.5930 C   0  0  0  0  0  1  0  0  0  0  0  0
  188.3470  176.4960  137.2910 N   0  0  0  0  0  0  0  0  0  0  0  0
  187.5520  176.4230  134.8690 C   0  0  0  0  0  1  0  0  0  0  0  0
  189.4340  177.6750  135.5780 O   0  0  0  0  0  0  0  0  0  0  0  0
  1 20  1  0  0  0  0
  2 17  1  0  0  0  0
  4  9  2  0  0  0  0
  5 11  1  6  0  0  0
  5  7  1  0  0  0  0
  6 16  1  0  0  0  0
  7  2  2  0  0  0  0
  7  4  1  0  0  0  0
  8 12  1  0  0  0  0
  9  6  1  0  0  0  0
 10 20  2  0  0  0  0
 10 14  1  0  0  0  0
 12  4  1  0  0  0  0
 13 19  1  0  0  0  0
 13 15  2  0  0  0  0
 14  3  1  1  0  0  0
 14 18  1  0  0  0  0
 15 10  1  0  0  0  0
 17  6  2  0  0  0  0
 18  5  1  0  0  0  0
 18  8  1  1  0  0  0
 19  1  2  0  0  0  0
 20 11  1  0  0  0  0
 21  1  1  6  0  0  0
 22 26  1  6  0  0  0
 22 21  1  0  0  0  0
 23 22  1  0  0  0  0
 23 21  1  0  0  0  0
 24 26  1  0  0  0  0
 26 25  1  0  0  0  0
 27 24  1  0  0  0  0
 28 24  2  0  0  0  0
M  END
>  <MODEL>
5

>  <REMARK>
 VINA RESULT:      -6.1      3.416      6.338
  Name = 
  2 active torsions:
  status: ('A' for Active; 'I' for Inactive)
    1  A    between atoms: C_1  and  C_2
    2  A    between atoms: C_3  and  N_11
                            x       y       z     vdW  Elec       q    Type
                         _______ _______ _______ _____ _____    ______ ____

>  <TORSDO>
F 2

$$$$
=
 OpenBabel10262420503D

 28 32  0  0  1  0  0  0  0  0999 V2000
  182.9530  178.8340  139.8000 C   0  0  0  0  0  0  0  0  0  0  0  0
  186.6320  176.9520  143.2280 C   0  0  0  0  0  3  0  0  0  0  0  0
  181.4910  177.9160  144.0280 C   0  0  0  0  0  1  0  0  0  0  0  0
  186.1130  178.4070  145.1010 C   0  0  0  0  0  0  0  0  0  0  0  0
  184.3620  178.0640  143.2880 C   0  0  2  0  0  3  0  0  0  0  0  0
  188.2590  177.2860  144.9870 C   0  0  0  0  0  0  0  0  0  0  0  0
  185.7440  177.8340  143.8650 C   0  0  0  0  0  0  0  0  0  0  0  0
  183.7520  179.0900  145.3990 C   0  0  0  0  0  2  0  0  0  0  0  0
  187.3740  178.1430  145.6450 C   0  0  0  0  0  3  0  0  0  0  0  0
  182.1060  179.2740  142.0470 C   0  0  0  0  0  0  0  0  0  0  0  0
  184.4480  178.3440  141.7830 C   0  0  0  0  0  2  0  0  0  0  0  0
  185.1920  179.3380  145.8240 C   0  0  0  0  0  2  0  0  0  0  0  0
  180.7550  179.8340  140.1180 C   0  0  0  0  0  3  0  0  0  0  0  0
  182.2330  179.1650  143.5420 C   0  0  2  0  0  3  0  0  0  0  0  0
  180.9220  179.7790  141.5010 C   0  0  0  0  0  3  0  0  0  0  0  0
  189.5090  177.0280  145.5340 O   0  0  0  0  0  1  0  0  0  0  0  0
  187.8860  176.6860  143.7840 C   0  0  0  0  0  3  0  0  0  0  0  0
  183.6520  179.1810  143.9420 N   0  0  2  0  0  0  0  0  0  0  0  0
  181.7650  179.3710  139.2750 C   0  0  0  0  0  3  0  0  0  0  0  0
  183.1320  178.8000  141.2000 C   0  0  0  0  0  0  0  0  0  0  0  0
  184.0650  178.3670  138.8800 C   0  0  1  0  0  3  0  0  0  0  0  0
  183.8100  177.0320  138.1480 C   0  0  2  0  0  3  0  0  0  0  0  0
  183.6590  178.3570  137.4190 C   0  0  0  0  0  2  0  0  0  0  0  0
  181.4840  176.3010  137.4410 C   0  0  0  0  0  0  0  0  0  0  0  0
  182.3750  175.6700  139.6850 C   0  0  0  0  0  1  0  0  0  0  0  0
  182.5040  176.4300  138.4500 N   0  0  0  0  0  0  0  0  0  0  0  0
  180.1360  175.7610  137.7810 C   0  0  0  0  0  1  0  0  0  0  0  0
  181.7140  176.6410  136.2500 O   0  0  0  0  0  0  0  0  0  0  0  0
  1 20  1  0  0  0  0
  2 17  2  0  0  0  0
  2  7  1  0  0  0  0
  4  9  1  0  0  0  0
  4 12  1  0  0  0  0
  5 11  1  6  0  0  0
  5  7  1  0  0  0  0
  5 18  1  0  0  0  0
  6 16  1  0  0  0  0
  6  9  2  0  0  0  0
  7  4  2  0  0  0  0
  8 12  1  0  0  0  0
 10 14  1  0  0  0  0
 13 15  2  0  0  0  0
 14 18  1  0  0  0  0
 14  3  1  6  0  0  0
 15 10  1  0  0  0  0
 17  6  1  0  0  0  0
 18  8  1  1  0  0  0
 19  1  2  0  0  0  0
 19 13  1  0  0  0  0
 20 11  1  0  0  0  0
 20 10  2  0  0  0  0
 21  1  1  1  0  0  0
 22 26  1  1  0  0  0
 22 21  1  0  0  0  0
 23 22  1  0  0  0  0
 23 21  1  0  0  0  0
 24 27  1  0  0  0  0
 24 26  1  0  0  0  0
 26 25  1  0  0  0  0
 28 24  2  0  0  0  0
M  END
>  <MODEL>
6

>  <REMARK>
 VINA RESULT:      -6.0      2.084      7.364
  Name = 
  2 active torsions:
  status: ('A' for Active; 'I' for Inactive)
    1  A    between atoms: C_1  and  C_2
    2  A    between atoms: C_3  and  N_11
                            x       y       z     vdW  Elec       q    Type
                         _______ _______ _______ _____ _____    ______ ____

>  <TORSDO>
F 2

$$$$
=
 OpenBabel10262420503D

 28 32  0  0  1  0  0  0  0  0999 V2000
  190.7830  177.0250  138.9630 C   0  0  0  0  0  0  0  0  0  0  0  0
  191.6280  175.2540  143.9610 C   0  0  0  0  0  3  0  0  0  0  0  0
  187.2570  177.3560  141.8460 C   0  0  0  0  0  1  0  0  0  0  0  0
  190.6940  177.1550  145.1470 C   0  0  0  0  0  0  0  0  0  0  0  0
  190.0330  176.7750  142.7200 C   0  0  2  0  0  3  0  0  0  0  0  0
  192.2110  175.6390  146.2770 C   0  0  0  0  0  0  0  0  0  0  0  0
  190.8310  176.4100  143.9570 C   0  0  0  0  0  0  0  0  0  0  0  0
  188.7880  178.3350  144.0970 C   0  0  0  0  0  2  0  0  0  0  0  0
  191.3990  176.7760  146.2940 C   0  0  0  0  0  3  0  0  0  0  0  0
  189.1110  178.1020  140.3790 C   0  0  0  0  0  0  0  0  0  0  0  0
  190.9170  176.6970  141.4700 C   0  0  0  0  0  2  0  0  0  0  0  0
  189.8410  178.3840  145.1930 C   0  0  0  0  0  2  0  0  0  0  0  0
  189.0910  178.4800  137.9880 C   0  0  0  0  0  3  0  0  0  0  0  0
  188.4580  178.2990  141.7190 C   0  0  2  0  0  3  0  0  0  0  0  0
  188.5400  178.6970  139.2510 C   0  0  0  0  0  3  0  0  0  0  0  0
  192.9060  175.2680  147.4200 O   0  0  0  0  0  1  0  0  0  0  0  0
  192.3200  174.8760  145.1140 C   0  0  0  0  0  3  0  0  0  0  0  0
  189.4410  178.1240  142.8040 N   0  0  2  0  0  0  0  0  0  0  0  0
  190.2070  177.6560  137.8470 C   0  0  0  0  0  3  0  0  0  0  0  0
  190.2390  177.2630  140.2440 C   0  0  0  0  0  0  0  0  0  0  0  0
  192.0210  176.1600  138.8110 C   0  0  1  0  0  3  0  0  0  0  0  0
  191.9670  175.1120  137.6780 C   0  0  2  0  0  3  0  0  0  0  0  0
  192.7530  176.4020  137.5050 C   0  0  0  0  0  2  0  0  0  0  0  0
  190.6780  175.6210  135.5520 C   0  0  0  0  0  0  0  0  0  0  0  0
  189.5930  174.3570  137.4110 C   0  0  0  0  0  1  0  0  0  0  0  0
  190.7170  175.1350  136.9070 N   0  0  0  0  0  0  0  0  0  0  0  0
  189.3870  175.7110  134.8090 C   0  0  0  0  0  1  0  0  0  0  0  0
  191.7360  175.9760  134.9680 O   0  0  0  0  0  0  0  0  0  0  0  0
  1 20  1  0  0  0  0
  2 17  1  0  0  0  0
  4 12  1  0  0  0  0
  4  9  2  0  0  0  0
  5 11  1  6  0  0  0
  5 18  1  0  0  0  0
  5  7  1  0  0  0  0
  6  9  1  0  0  0  0
  6 16  1  0  0  0  0
  7  2  2  0  0  0  0
  7  4  1  0  0  0  0
  8 12  1  0  0  0  0
 10 14  1  0  0  0  0
 13 15  2  0  0  0  0
 14  3  1  1  0  0  0
 14 18  1  0  0  0  0
 15 10  1  0  0  0  0
 17  6  2  0  0  0  0
 18  8  1  1  0  0  0
 19 13  1  0  0  0  0
 19  1  2  0  0  0  0
 20 10  2  0  0  0  0
 20 11  1  0  0  0  0
 21  1  1  6  0  0  0
 22 26  1  6  0  0  0
 22 21  1  0  0  0  0
 23 22  1  0  0  0  0
 23 21  1  0  0  0  0
 24 26  1  0  0  0  0
 26 25  1  0  0  0  0
 27 24  1  0  0  0  0
 28 24  2  0  0  0  0
M  END
>  <MODEL>
7

>  <REMARK>
 VINA RESULT:      -5.6      4.174      8.138
  Name = 
  2 active torsions:
  status: ('A' for Active; 'I' for Inactive)
    1  A    between atoms: C_1  and  C_2
    2  A    between atoms: C_3  and  N_11
                            x       y       z     vdW  Elec       q    Type
                         _______ _______ _______ _____ _____    ______ ____

>  <TORSDO>
F 2

$$$$
=
 OpenBabel10262420503D

 28 32  0  0  1  0  0  0  0  0999 V2000
  189.0490  176.8630  143.3880 C   0  0  0  0  0  0  0  0  0  0  0  0
  188.6490  178.3530  138.2450 C   0  0  0  0  0  3  0  0  0  0  0  0
  185.9520  180.0870  142.4540 C   0  0  0  0  0  1  0  0  0  0  0  0
  186.2310  178.2530  138.0590 C   0  0  0  0  0  0  0  0  0  0  0  0
  187.2800  178.4430  140.3690 C   0  0  2  0  0  3  0  0  0  0  0  0
  187.6090  178.1960  136.0660 C   0  0  0  0  0  0  0  0  0  0  0  0
  187.3890  178.3080  138.8630 C   0  0  0  0  0  0  0  0  0  0  0  0
  184.9040  178.8280  140.0690 C   0  0  0  0  0  2  0  0  0  0  0  0
  186.3490  178.1790  136.6670 C   0  0  0  0  0  3  0  0  0  0  0  0
  186.8410  177.8710  143.1200 C   0  0  0  0  0  0  0  0  0  0  0  0
  188.2800  177.5130  141.0650 C   0  0  0  0  0  2  0  0  0  0  0  0
  184.8670  178.2220  138.6740 C   0  0  0  0  0  2  0  0  0  0  0  0
  187.5710  177.1280  145.3050 C   0  0  0  0  0  3  0  0  0  0  0  0
  185.8130  178.5710  142.2760 C   0  0  2  0  0  3  0  0  0  0  0  0
  186.6070  177.7190  144.4900 C   0  0  0  0  0  3  0  0  0  0  0  0
  187.7190  178.1240  134.6840 O   0  0  0  0  0  1  0  0  0  0  0  0
  188.7580  178.2890  136.8530 C   0  0  0  0  0  3  0  0  0  0  0  0
  185.9230  178.1470  140.8680 N   0  0  2  0  0  0  0  0  0  0  0  0
  188.7790  176.6980  144.7570 C   0  0  0  0  0  3  0  0  0  0  0  0
  188.0630  177.4410  142.5580 C   0  0  0  0  0  0  0  0  0  0  0  0
  190.3480  176.3580  142.7870 C   0  0  1  0  0  3  0  0  0  0  0  0
  191.6220  176.6580  143.6060 C   0  0  2  0  0  3  0  0  0  0  0  0
  191.0010  175.2710  143.6200 C   0  0  0  0  0  2  0  0  0  0  0  0
  191.5770  176.7530  146.1420 C   0  0  0  0  0  0  0  0  0  0  0  0
  191.2150  178.8240  144.7980 C   0  0  0  0  0  1  0  0  0  0  0  0
  191.3650  177.3770  144.8610 N   0  0  0  0  0  0  0  0  0  0  0  0
  191.2370  177.4670  147.4070 C   0  0  0  0  0  1  0  0  0  0  0  0
  192.0550  175.5900  146.2170 O   0  0  0  0  0  0  0  0  0  0  0  0
  1 19  1  0  0  0  0
  2  7  1  0  0  0  0
  4 12  1  0  0  0  0
  4  7  2  0  0  0  0
  5 18  1  0  0  0  0
  5 11  1  1  0  0  0
  6  9  2  0  0  0  0
  6 17  1  0  0  0  0
  7  5  1  0  0  0  0
  9  4  1  0  0  0  0
 10 15  2  0  0  0  0
 11 20  1  0  0  0  0
 12  8  1  0  0  0  0
 14  3  1  6  0  0  0
 14 10  1  0  0  0  0
 15 13  1  0  0  0  0
 16  6  1  0  0  0  0
 17  2  2  0  0  0  0
 18  8  1  6  0  0  0
 18 14  1  0  0  0  0
 19 13  2  0  0  0  0
 20 10  1  0  0  0  0
 20  1  2  0  0  0  0
 21  1  1  1  0  0  0
 21 22  1  0  0  0  0
 21 23  1  0  0  0  0
 22 23  1  0  0  0  0
 22 26  1  1  0  0  0
 24 28  2  0  0  0  0
 24 27  1  0  0  0  0
 25 26  1  0  0  0  0
 26 24  1  0  0  0  0
M  END
>  <MODEL>
8

>  <REMARK>
 VINA RESULT:      -5.5      2.932      3.827
  Name = 
  2 active torsions:
  status: ('A' for Active; 'I' for Inactive)
    1  A    between atoms: C_1  and  C_2
    2  A    between atoms: C_3  and  N_11
                            x       y       z     vdW  Elec       q    Type
                         _______ _______ _______ _____ _____    ______ ____

>  <TORSDO>
F 2

$$$$
=
 OpenBabel10262420503D

 28 32  0  0  1  0  0  0  0  0999 V2000
  184.5120  178.6320  138.8050 C   0  0  0  0  0  0  0  0  0  0  0  0
  186.8060  177.1060  143.4130 C   0  0  0  0  0  3  0  0  0  0  0  0
  181.6760  177.6920  142.2590 C   0  0  0  0  0  1  0  0  0  0  0  0
  185.5520  178.5550  144.9030 C   0  0  0  0  0  0  0  0  0  0  0  0
  184.6040  178.0430  142.5980 C   0  0  2  0  0  3  0  0  0  0  0  0
  187.6600  177.5980  145.6230 C   0  0  0  0  0  0  0  0  0  0  0  0
  185.6940  177.9310  143.6450 C   0  0  0  0  0  0  0  0  0  0  0  0
  183.2050  179.0620  144.2970 C   0  0  0  0  0  2  0  0  0  0  0  0
  186.5440  178.3990  145.8770 C   0  0  0  0  0  3  0  0  0  0  0  0
  182.8800  179.0520  140.5730 C   0  0  0  0  0  0  0  0  0  0  0  0
  185.2130  178.2980  141.2150 C   0  0  0  0  0  2  0  0  0  0  0  0
  184.3740  179.4280  145.2010 C   0  0  0  0  0  2  0  0  0  0  0  0
  182.2890  179.4680  138.2620 C   0  0  0  0  0  3  0  0  0  0  0  0
  182.4630  178.9840  142.0160 C   0  0  2  0  0  3  0  0  0  0  0  0
  181.9460  179.4550  139.6140 C   0  0  0  0  0  3  0  0  0  0  0  0
  188.6390  177.4470  146.5940 O   0  0  0  0  0  1  0  0  0  0  0  0
  187.7880  176.9470  144.3950 C   0  0  0  0  0  3  0  0  0  0  0  0
  183.6360  179.1150  142.9000 N   0  0  2  0  0  0  0  0  0  0  0  0
  183.5630  179.0660  137.8620 C   0  0  0  0  0  3  0  0  0  0  0  0
  184.1710  178.6400  140.1760 C   0  0  0  0  0  0  0  0  0  0  0  0
  185.9090  178.2320  138.3710 C   0  0  1  0  0  3  0  0  0  0  0  0
  185.9900  177.0330  137.4020 C   0  0  2  0  0  3  0  0  0  0  0  0
  186.1540  178.4550  136.8910 C   0  0  0  0  0  2  0  0  0  0  0  0
  184.1580  176.5960  135.7000 C   0  0  0  0  0  0  0  0  0  0  0  0
  184.0690  175.5200  137.9500 C   0  0  0  0  0  1  0  0  0  0  0  0
  184.6800  176.4770  137.0370 N   0  0  0  0  0  0  0  0  0  0  0  0
  182.7940  176.0960  135.3630 C   0  0  0  0  0  1  0  0  0  0  0  0
  184.8480  177.1250  134.7880 O   0  0  0  0  0  0  0  0  0  0  0  0
  1 20  1  0  0  0  0
  2  7  2  0  0  0  0
  2 17  1  0  0  0  0
  4 12  1  0  0  0  0
  4  9  2  0  0  0  0
  5 11  1  6  0  0  0
  5 18  1  0  0  0  0
  5  7  1  0  0  0  0
  6  9  1  0  0  0  0
  6 16  1  0  0  0  0
  7  4  1  0  0  0  0
  8 12  1  0  0  0  0
 10 14  1  0  0  0  0
 13 15  2  0  0  0  0
 14  3  1  6  0  0  0
 14 18  1  0  0  0  0
 15 10  1  0  0  0  0
 17  6  2  0  0  0  0
 18  8  1  1  0  0  0
 19 13  1  0  0  0  0
 19  1  2  0  0  0  0
 20 10  2  0  0  0  0
 20 11  1  0  0  0  0
 21  1  1  6  0  0  0
 22 26  1  6  0  0  0
 22 21  1  0  0  0  0
 23 22  1  0  0  0  0
 23 21  1  0  0  0  0
 24 26  1  0  0  0  0
 26 25  1  0  0  0  0
 27 24  1  0  0  0  0
 28 24  2  0  0  0  0
M  END
>  <MODEL>
9

>  <REMARK>
 VINA RESULT:      -5.5      2.521      7.079
  Name = 
  2 active torsions:
  status: ('A' for Active; 'I' for Inactive)
    1  A    between atoms: C_1  and  C_2
    2  A    between atoms: C_3  and  N_11
                            x       y       z     vdW  Elec       q    Type
                         _______ _______ _______ _____ _____    ______ ____

>  <TORSDO>
F 2

$$$$
