=
 OpenBabel10262422293D

 43 48  0  0  1  0  0  0  0  0999 V2000
  186.6850  178.2300  146.8100 C   0  0  0  0  0  0  0  0  0  0  0  0
  183.8100  178.6120  142.7120 C   0  0  0  0  0  0  0  0  0  0  0  0
  184.8370  178.6130  145.2930 C   0  0  0  0  0  0  0  0  0  0  0  0
  187.4960  177.8430  145.7380 C   0  0  0  0  0  3  0  0  0  0  0  0
  187.1870  178.2320  148.0680 F   0  0  0  0  0  0  0  0  0  0  0  0
  185.6600  178.2240  144.2050 C   0  0  0  0  0  0  0  0  0  0  0  0
  185.3580  178.6130  146.5900 C   0  0  0  0  0  3  0  0  0  0  0  0
  186.9860  177.8390  144.4360 C   0  0  0  0  0  3  0  0  0  0  0  0
  185.7470  177.8430  141.6310 C   0  0  0  0  0  2  0  0  0  0  0  0
  185.1100  178.2360  142.9190 C   0  0  0  0  0  0  0  0  0  0  0  0
  182.9760  178.9900  143.7660 C   0  0  0  0  0  3  0  0  0  0  0  0
  183.4560  178.5360  141.3450 N   0  0  0  0  0  0  0  0  0  0  0  0
  184.6170  178.0430  140.5980 C   0  0  1  0  0  3  0  0  0  0  0  0
  183.5020  178.9910  145.0670 C   0  0  0  0  0  3  0  0  0  0  0  0
  184.2540  180.1560  139.4430 O   0  0  0  0  0  1  0  0  0  0  0  0
  185.0780  179.0280  139.5190 C   0  0  2  0  0  3  0  0  0  0  0  0
  185.1460  178.3290  138.1660 C   0  0  0  0  0  2  0  0  0  0  0  0
  186.5340  177.7550  137.9030 C   0  0  0  0  0  2  0  0  0  0  0  0
  187.2810  178.6240  136.9060 C   0  0  2  0  0  3  0  0  0  0  0  0
  186.8600  178.2970  135.4860 C   0  0  0  0  0  1  0  0  0  0  0  0
  188.8100  178.5810  137.0800 C   0  0  0  0  0  2  0  0  0  0  0  0
  189.4370  177.2290  137.4670 C   0  0  2  0  0  3  0  0  0  0  0  0
  191.0830  177.2770  140.9350 N   0  0  0  0  0  0  0  0  0  0  0  0
  190.0680  177.1630  139.9280 C   0  0  0  0  0  0  0  0  0  0  0  0
  190.3980  177.3780  138.5530 N   0  0  0  0  0  2  0  0  0  0  0  0
  192.4640  177.5400  140.5620 C   0  0  0  0  0  1  0  0  0  0  0  0
  188.8820  176.8850  140.2560 O   0  0  0  0  0  0  0  0  0  0  0  0
  190.7530  177.1550  142.3490 C   0  0  0  0  0  2  0  0  0  0  0  0
  191.4580  178.2340  143.1570 C   0  0  0  0  0  2  0  0  0  0  0  0
  190.6820  178.2830  145.1600 F   0  0  0  0  0  0  0  0  0  0  0  0
  190.5460  178.8830  143.9890 O   0  0  0  0  0  0  0  0  0  0  0  0
  190.4400  175.1100  136.6320 C   0  0  0  0  0  2  0  0  0  0  0  0
  190.0800  176.5380  136.2710 C   0  0  0  0  0  3  0  0  0  0  0  0
  189.2000  175.3910  135.8110 C   0  0  0  0  0  2  0  0  0  0  0  0
  182.0910  178.3250  140.8810 C   0  0  0  0  0  2  0  0  0  0  0  0
  182.0810  177.3180  139.7420 C   0  0  0  0  0  2  0  0  0  0  0  0
  178.9310  175.6010  140.6640 C   0  0  1  0  0  3  0  0  0  0  0  0
  179.6500  174.8640  139.7680 N   0  0  0  0  0  0  0  0  0  0  0  0
  179.2400  174.3540  141.1470 C   0  0  0  0  0  0  0  0  0  0  0  0
  179.9760  176.6160  140.8020 N   0  0  0  0  0  0  0  0  0  0  0  0
  180.9060  176.4170  139.8740 C   0  0  0  0  0  0  0  0  0  0  0  0
  179.4100  173.5510  142.1420 N   0  0  0  0  0  2  0  0  0  0  0  0
  180.7460  175.2410  139.0340 N   0  0  0  0  0  2  0  0  0  0  0  0
  1  5  1  0  0  0  0
  2 10  2  0  0  0  0
  2 11  1  0  0  0  0
  3  7  2  0  0  0  0
  4  1  2  0  0  0  0
  6  8  2  0  0  0  0
  6  3  1  0  0  0  0
  7  1  1  0  0  0  0
  8  4  1  0  0  0  0
  9 10  1  0  0  0  0
 10  6  1  0  0  0  0
 11 14  2  0  0  0  0
 12  2  1  0  0  0  0
 13 16  1  6  0  0  0
 13 12  1  0  0  0  0
 13  9  1  0  0  0  0
 14  3  1  0  0  0  0
 16 15  1  6  0  0  0
 17 16  1  0  0  0  0
 18 17  1  0  0  0  0
 19 20  1  6  0  0  0
 19 21  1  0  0  0  0
 19 18  1  0  0  0  0
 22 21  1  6  0  0  0
 22 25  1  0  0  0  0
 23 28  1  0  0  0  0
 24 27  2  0  0  0  0
 24 23  1  0  0  0  0
 25 24  1  0  0  0  0
 26 23  1  0  0  0  0
 28 29  1  0  0  0  0
 29 31  1  0  0  0  0
 31 30  1  0  0  0  0
 33 32  1  0  0  0  0
 33 22  1  0  0  0  0
 34 33  1  0  0  0  0
 34 32  1  0  0  0  0
 35 12  1  0  0  0  0
 36 41  1  0  0  0  0
 36 35  1  0  0  0  0
 37 40  1  1  0  0  0
 37 39  1  0  0  0  0
 38 37  1  0  0  0  0
 38 39  1  0  0  0  0
 39 42  2  0  0  0  0
 41 40  2  0  0  0  0
 43 38  1  0  0  0  0
 43 41  1  0  0  0  0
M  END
>  <MODEL>
1

>  <REMARK>
 VINA RESULT:      -8.4      0.000      0.000
  Name = 
  14 active torsions:
  status: ('A' for Active; 'I' for Inactive)
    1  A    between atoms: C_1  and  C_28
    2  A    between atoms: C_1  and  N_34
    3  A    between atoms: C_2  and  C_6
    4  A    between atoms: C_2  and  C_13
    5  A    between atoms: C_3  and  C_4
    6  A    between atoms: C_3  and  C_12
    7  A    between atoms: C_4  and  C_15
    8  A    between atoms: C_4  and  N_22
    9  A    between atoms: C_6  and  C_12
   10  A    between atoms: N_11  and  C_40
   11  A    between atoms: C_13  and  C_38
   12  A    between atoms: C_26  and  O_31
   13  A    between atoms: C_26  and  C_40
   14  A    between atoms: C_28  and  C_35
                            x       y       z     vdW  Elec       q    Type
                         _______ _______ _______ _____ _____    ______ ____

>  <TORSDO>
F 14

$$$$
=
 OpenBabel10262422293D

 43 48  0  0  1  0  0  0  0  0999 V2000
  186.6040  178.2370  146.8540 C   0  0  0  0  0  0  0  0  0  0  0  0
  183.7780  178.7110  142.7320 C   0  0  0  0  0  0  0  0  0  0  0  0
  184.7810  178.6750  145.3220 C   0  0  0  0  0  0  0  0  0  0  0  0
  187.4140  177.8340  145.7870 C   0  0  0  0  0  3  0  0  0  0  0  0
  187.0950  178.2210  148.1160 F   0  0  0  0  0  0  0  0  0  0  0  0
  185.6030  178.2690  144.2390 C   0  0  0  0  0  0  0  0  0  0  0  0
  185.2900  178.6560  146.6230 C   0  0  0  0  0  3  0  0  0  0  0  0
  186.9160  177.8490  144.4800 C   0  0  0  0  0  3  0  0  0  0  0  0
  185.7030  177.8970  141.6640 C   0  0  0  0  0  2  0  0  0  0  0  0
  185.0650  178.3010  142.9490 C   0  0  0  0  0  0  0  0  0  0  0  0
  182.9440  179.1070  143.7800 C   0  0  0  0  0  3  0  0  0  0  0  0
  183.4340  178.6500  141.3610 N   0  0  0  0  0  0  0  0  0  0  0  0
  184.5880  178.1310  140.6220 C   0  0  1  0  0  3  0  0  0  0  0  0
  183.4580  179.0890  145.0860 C   0  0  0  0  0  3  0  0  0  0  0  0
  184.2640  180.2350  139.4410 O   0  0  0  0  0  1  0  0  0  0  0  0
  185.0850  179.1080  139.5520 C   0  0  2  0  0  3  0  0  0  0  0  0
  185.1960  178.3990  138.2070 C   0  0  0  0  0  2  0  0  0  0  0  0
  186.5560  177.7320  138.0380 C   0  0  0  0  0  2  0  0  0  0  0  0
  187.4020  178.5070  137.0420 C   0  0  2  0  0  3  0  0  0  0  0  0
  187.0080  178.1600  135.6180 C   0  0  0  0  0  1  0  0  0  0  0  0
  188.9160  178.3580  137.2760 C   0  0  0  0  0  2  0  0  0  0  0  0
  189.4120  177.0170  137.8460 C   0  0  2  0  0  3  0  0  0  0  0  0
  191.0530  177.4320  141.2910 N   0  0  0  0  0  0  0  0  0  0  0  0
  190.0310  177.2850  140.2960 C   0  0  0  0  0  0  0  0  0  0  0  0
  190.3850  177.2170  138.9120 N   0  0  0  0  0  2  0  0  0  0  0  0
  192.4560  177.4390  140.9110 C   0  0  0  0  0  1  0  0  0  0  0  0
  188.8180  177.2290  140.6400 O   0  0  0  0  0  0  0  0  0  0  0  0
  190.7100  177.5980  142.6980 C   0  0  0  0  0  2  0  0  0  0  0  0
  190.6900  176.2510  143.4050 C   0  0  0  0  0  2  0  0  0  0  0  0
  191.5970  176.0130  145.3380 F   0  0  0  0  0  0  0  0  0  0  0  0
  191.9060  176.0310  144.0520 O   0  0  0  0  0  0  0  0  0  0  0  0
  190.9020  175.0790  137.3780 C   0  0  0  0  0  2  0  0  0  0  0  0
  189.9840  176.1140  136.7590 C   0  0  0  0  0  3  0  0  0  0  0  0
  189.4980  174.6930  136.9690 C   0  0  0  0  0  2  0  0  0  0  0  0
  182.0680  178.4770  140.8840 C   0  0  0  0  0  2  0  0  0  0  0  0
  181.9300  177.1350  140.1850 C   0  0  0  0  0  2  0  0  0  0  0  0
  181.2850  176.8320  136.5500 C   0  0  1  0  0  3  0  0  0  0  0  0
  181.4870  178.1330  136.9080 N   0  0  0  0  0  0  0  0  0  0  0  0
  182.3350  177.3980  135.8730 C   0  0  0  0  0  0  0  0  0  0  0  0
  181.5880  176.3240  137.8890 N   0  0  0  0  0  0  0  0  0  0  0  0
  181.6680  177.3440  138.7360 C   0  0  0  0  0  0  0  0  0  0  0  0
  183.4310  177.2750  135.2040 N   0  0  0  0  0  2  0  0  0  0  0  0
  181.5430  178.6750  138.1660 N   0  0  0  0  0  2  0  0  0  0  0  0
  1  5  1  0  0  0  0
  2 10  2  0  0  0  0
  2 11  1  0  0  0  0
  3  7  2  0  0  0  0
  4  1  2  0  0  0  0
  6  8  2  0  0  0  0
  6  3  1  0  0  0  0
  7  1  1  0  0  0  0
  8  4  1  0  0  0  0
  9 10  1  0  0  0  0
 10  6  1  0  0  0  0
 11 14  2  0  0  0  0
 12  2  1  0  0  0  0
 13 16  1  6  0  0  0
 13 12  1  0  0  0  0
 13  9  1  0  0  0  0
 14  3  1  0  0  0  0
 16 15  1  6  0  0  0
 17 16  1  0  0  0  0
 18 17  1  0  0  0  0
 19 20  1  6  0  0  0
 19 21  1  0  0  0  0
 19 18  1  0  0  0  0
 22 21  1  6  0  0  0
 22 25  1  0  0  0  0
 23 28  1  0  0  0  0
 24 27  2  0  0  0  0
 24 23  1  0  0  0  0
 25 24  1  0  0  0  0
 26 23  1  0  0  0  0
 28 29  1  0  0  0  0
 29 31  1  0  0  0  0
 31 30  1  0  0  0  0
 33 34  1  0  0  0  0
 33 32  1  0  0  0  0
 33 22  1  0  0  0  0
 34 32  1  0  0  0  0
 35 12  1  0  0  0  0
 36 35  1  0  0  0  0
 37 39  1  6  0  0  0
 37 38  1  0  0  0  0
 37 40  1  0  0  0  0
 38 43  1  0  0  0  0
 39 38  1  0  0  0  0
 40 41  2  0  0  0  0
 41 36  1  0  0  0  0
 42 39  2  0  0  0  0
 43 41  1  0  0  0  0
M  END
>  <MODEL>
2

>  <REMARK>
 VINA RESULT:      -8.2      1.568      2.282
  Name = 
  14 active torsions:
  status: ('A' for Active; 'I' for Inactive)
    1  A    between atoms: C_1  and  C_28
    2  A    between atoms: C_1  and  N_34
    3  A    between atoms: C_2  and  C_6
    4  A    between atoms: C_2  and  C_13
    5  A    between atoms: C_3  and  C_4
    6  A    between atoms: C_3  and  C_12
    7  A    between atoms: C_4  and  C_15
    8  A    between atoms: C_4  and  N_22
    9  A    between atoms: C_6  and  C_12
   10  A    between atoms: N_11  and  C_40
   11  A    between atoms: C_13  and  C_38
   12  A    between atoms: C_26  and  O_31
   13  A    between atoms: C_26  and  C_40
   14  A    between atoms: C_28  and  C_35
                            x       y       z     vdW  Elec       q    Type
                         _______ _______ _______ _____ _____    ______ ____

>  <TORSDO>
F 14

$$$$
=
 OpenBabel10262422293D

 43 48  0  0  1  0  0  0  0  0999 V2000
  191.3560  176.7430  147.3670 C   0  0  0  0  0  0  0  0  0  0  0  0
  187.1960  177.8350  144.7780 C   0  0  0  0  0  0  0  0  0  0  0  0
  189.1100  177.3970  146.7430 C   0  0  0  0  0  0  0  0  0  0  0  0
  191.6750  176.5270  146.0220 C   0  0  0  0  0  3  0  0  0  0  0  0
  192.2910  176.5310  148.3240 F   0  0  0  0  0  0  0  0  0  0  0  0
  189.4340  177.1810  145.3790 C   0  0  0  0  0  0  0  0  0  0  0  0
  190.0760  177.1760  147.7280 C   0  0  0  0  0  3  0  0  0  0  0  0
  190.7170  176.7450  145.0280 C   0  0  0  0  0  3  0  0  0  0  0  0
  188.5240  177.2290  142.9400 C   0  0  0  0  0  2  0  0  0  0  0  0
  188.4460  177.4120  144.4160 C   0  0  0  0  0  0  0  0  0  0  0  0
  186.8470  178.0460  146.1140 C   0  0  0  0  0  3  0  0  0  0  0  0
  186.3520  177.9910  143.6540 N   0  0  0  0  0  0  0  0  0  0  0  0
  187.1080  177.6120  142.4580 C   0  0  1  0  0  3  0  0  0  0  0  0
  187.8200  177.8260  147.1010 C   0  0  0  0  0  3  0  0  0  0  0  0
  186.1430  178.7480  140.5330 O   0  0  0  0  0  1  0  0  0  0  0  0
  187.2060  178.7540  141.4420 C   0  0  2  0  0  3  0  0  0  0  0  0
  188.5370  178.6840  140.7010 C   0  0  0  0  0  2  0  0  0  0  0  0
  188.3720  178.0700  139.3150 C   0  0  0  0  0  2  0  0  0  0  0  0
  189.4800  177.0660  139.0500 C   0  0  2  0  0  3  0  0  0  0  0  0
  190.5990  177.2190  140.0630 C   0  0  0  0  0  1  0  0  0  0  0  0
  190.0030  177.0970  137.6030 C   0  0  0  0  0  2  0  0  0  0  0  0
  189.8990  175.7950  136.7880 C   0  0  2  0  0  3  0  0  0  0  0  0
  186.1790  174.8510  136.7090 N   0  0  0  0  0  0  0  0  0  0  0  0
  187.3840  175.5970  136.4870 C   0  0  0  0  0  0  0  0  0  0  0  0
  188.6260  175.1230  137.0140 N   0  0  0  0  0  2  0  0  0  0  0  0
  186.2200  173.5760  137.4060 C   0  0  0  0  0  1  0  0  0  0  0  0
  187.3460  176.6780  135.8370 O   0  0  0  0  0  0  0  0  0  0  0  0
  184.8890  175.3610  136.2630 C   0  0  0  0  0  2  0  0  0  0  0  0
  184.1510  176.0250  137.4140 C   0  0  0  0  0  2  0  0  0  0  0  0
  184.9300  178.0230  137.2890 F   0  0  0  0  0  0  0  0  0  0  0  0
  183.8190  177.3380  137.0790 O   0  0  0  0  0  0  0  0  0  0  0  0
  190.7870  173.4930  136.4610 C   0  0  0  0  0  2  0  0  0  0  0  0
  191.0620  174.8520  137.0740 C   0  0  0  0  0  3  0  0  0  0  0  0
  191.7290  174.4550  135.7710 C   0  0  0  0  0  2  0  0  0  0  0  0
  184.9010  177.8790  143.7200 C   0  0  0  0  0  2  0  0  0  0  0  0
  184.2610  179.2120  143.3660 C   0  0  0  0  0  2  0  0  0  0  0  0
  181.2110  178.5820  141.3630 C   0  0  1  0  0  3  0  0  0  0  0  0
  180.8960  178.9200  142.6470 N   0  0  0  0  0  0  0  0  0  0  0  0
  180.4110  179.6950  141.4250 C   0  0  0  0  0  0  0  0  0  0  0  0
  182.6420  178.8130  141.5600 N   0  0  0  0  0  0  0  0  0  0  0  0
  182.8840  178.9920  142.8530 C   0  0  0  0  0  0  0  0  0  0  0  0
  179.9610  180.7800  140.8920 N   0  0  0  0  0  2  0  0  0  0  0  0
  181.7270  179.0190  143.7330 N   0  0  0  0  0  2  0  0  0  0  0  0
  1  7  1  0  0  0  0
  1  5  1  0  0  0  0
  2 11  1  0  0  0  0
  3 14  1  0  0  0  0
  3  7  2  0  0  0  0
  4  1  2  0  0  0  0
  6  3  1  0  0  0  0
  8  6  2  0  0  0  0
  8  4  1  0  0  0  0
  9 10  1  0  0  0  0
 10  2  2  0  0  0  0
 10  6  1  0  0  0  0
 11 14  2  0  0  0  0
 12 35  1  0  0  0  0
 12  2  1  0  0  0  0
 13 16  1  6  0  0  0
 13  9  1  0  0  0  0
 13 12  1  0  0  0  0
 16 15  1  6  0  0  0
 17 16  1  0  0  0  0
 18 17  1  0  0  0  0
 19 18  1  0  0  0  0
 19 20  1  1  0  0  0
 21 19  1  0  0  0  0
 22 25  1  0  0  0  0
 22 33  1  0  0  0  0
 22 21  1  1  0  0  0
 23 26  1  0  0  0  0
 24 23  1  0  0  0  0
 24 25  1  0  0  0  0
 27 24  2  0  0  0  0
 28 23  1  0  0  0  0
 28 29  1  0  0  0  0
 31 30  1  0  0  0  0
 31 29  1  0  0  0  0
 32 33  1  0  0  0  0
 34 32  1  0  0  0  0
 34 33  1  0  0  0  0
 36 35  1  0  0  0  0
 37 39  1  6  0  0  0
 37 40  1  0  0  0  0
 37 38  1  0  0  0  0
 38 43  1  0  0  0  0
 39 38  1  0  0  0  0
 40 41  2  0  0  0  0
 41 36  1  0  0  0  0
 41 43  1  0  0  0  0
 42 39  2  0  0  0  0
M  END
>  <MODEL>
3

>  <REMARK>
 VINA RESULT:      -8.1      2.952      5.113
  Name = 
  14 active torsions:
  status: ('A' for Active; 'I' for Inactive)
    1  A    between atoms: C_1  and  C_28
    2  A    between atoms: C_1  and  N_34
    3  A    between atoms: C_2  and  C_6
    4  A    between atoms: C_2  and  C_13
    5  A    between atoms: C_3  and  C_4
    6  A    between atoms: C_3  and  C_12
    7  A    between atoms: C_4  and  C_15
    8  A    between atoms: C_4  and  N_22
    9  A    between atoms: C_6  and  C_12
   10  A    between atoms: N_11  and  C_40
   11  A    between atoms: C_13  and  C_38
   12  A    between atoms: C_26  and  O_31
   13  A    between atoms: C_26  and  C_40
   14  A    between atoms: C_28  and  C_35
                            x       y       z     vdW  Elec       q    Type
                         _______ _______ _______ _____ _____    ______ ____

>  <TORSDO>
F 14

$$$$
=
 OpenBabel10262422293D

 43 48  0  0  1  0  0  0  0  0999 V2000
  188.7250  177.9000  147.4700 C   0  0  0  0  0  0  0  0  0  0  0  0
  184.6420  178.4440  144.6010 C   0  0  0  0  0  0  0  0  0  0  0  0
  186.4720  178.3120  146.6860 C   0  0  0  0  0  0  0  0  0  0  0  0
  189.1370  177.6180  146.1630 C   0  0  0  0  0  3  0  0  0  0  0  0
  189.6190  177.8370  148.4860 F   0  0  0  0  0  0  0  0  0  0  0  0
  186.8890  178.0300  145.3600 C   0  0  0  0  0  0  0  0  0  0  0  0
  187.3960  178.2450  147.7330 C   0  0  0  0  0  3  0  0  0  0  0  0
  188.2220  177.6830  145.1080 C   0  0  0  0  0  3  0  0  0  0  0  0
  186.1170  177.8270  142.8820 C   0  0  0  0  0  2  0  0  0  0  0  0
  185.9410  178.1060  144.3350 C   0  0  0  0  0  0  0  0  0  0  0  0
  184.2020  178.7170  145.8980 C   0  0  0  0  0  3  0  0  0  0  0  0
  183.8530  178.4460  143.4270 N   0  0  0  0  0  0  0  0  0  0  0  0
  184.7040  178.0510  142.3020 C   0  0  1  0  0  3  0  0  0  0  0  0
  185.1320  178.6510  146.9470 C   0  0  0  0  0  3  0  0  0  0  0  0
  183.6570  179.0750  140.3560 O   0  0  0  0  0  1  0  0  0  0  0  0
  184.7650  179.1240  141.2100 C   0  0  2  0  0  3  0  0  0  0  0  0
  186.0550  178.9850  140.4100 C   0  0  0  0  0  2  0  0  0  0  0  0
  185.9440  177.8910  139.3550 C   0  0  0  0  0  2  0  0  0  0  0  0
  186.4430  178.4010  138.0140 C   0  0  2  0  0  3  0  0  0  0  0  0
  185.7310  177.6990  136.8730 C   0  0  0  0  0  1  0  0  0  0  0  0
  187.9740  178.3400  137.8650 C   0  0  0  0  0  2  0  0  0  0  0  0
  188.6610  177.0040  138.2030 C   0  0  2  0  0  3  0  0  0  0  0  0
  191.1080  177.3750  141.1380 N   0  0  0  0  0  0  0  0  0  0  0  0
  189.8720  177.2200  140.4270 C   0  0  0  0  0  0  0  0  0  0  0  0
  189.8660  177.2100  138.9970 N   0  0  0  0  0  2  0  0  0  0  0  0
  192.3680  177.4520  140.4170 C   0  0  0  0  0  1  0  0  0  0  0  0
  188.7880  177.1030  141.0630 O   0  0  0  0  0  0  0  0  0  0  0  0
  191.1270  177.4820  142.5910 C   0  0  0  0  0  2  0  0  0  0  0  0
  191.3330  176.1150  143.2240 C   0  0  0  0  0  2  0  0  0  0  0  0
  192.0070  177.5520  144.6730 F   0  0  0  0  0  0  0  0  0  0  0  0
  191.7760  176.2570  144.5390 O   0  0  0  0  0  0  0  0  0  0  0  0
  189.6350  174.8850  137.3350 C   0  0  0  0  0  2  0  0  0  0  0  0
  188.9740  176.1940  136.9510 C   0  0  0  0  0  3  0  0  0  0  0  0
  188.1690  174.9090  136.9610 C   0  0  0  0  0  2  0  0  0  0  0  0
  182.4140  178.2140  143.4280 C   0  0  0  0  0  2  0  0  0  0  0  0
  181.6750  179.5420  143.4260 C   0  0  0  0  0  2  0  0  0  0  0  0
  179.3970  178.7960  140.6030 C   0  0  1  0  0  3  0  0  0  0  0  0
  179.3320  180.1130  140.9530 N   0  0  0  0  0  0  0  0  0  0  0  0
  179.7110  179.6280  139.5580 C   0  0  0  0  0  0  0  0  0  0  0  0
  180.4840  178.5090  141.5390 N   0  0  0  0  0  0  0  0  0  0  0  0
  180.6600  179.5540  142.3400 C   0  0  0  0  0  0  0  0  0  0  0  0
  180.2850  179.8250  138.4190 N   0  0  0  0  0  2  0  0  0  0  0  0
  179.8490  180.7290  142.0640 N   0  0  0  0  0  2  0  0  0  0  0  0
  1  7  1  0  0  0  0
  1  5  1  0  0  0  0
  2 11  1  0  0  0  0
  3 14  1  0  0  0  0
  3  7  2  0  0  0  0
  4  1  2  0  0  0  0
  6  3  1  0  0  0  0
  8  6  2  0  0  0  0
  8  4  1  0  0  0  0
  9 10  1  0  0  0  0
 10  2  2  0  0  0  0
 10  6  1  0  0  0  0
 11 14  2  0  0  0  0
 12 35  1  0  0  0  0
 12  2  1  0  0  0  0
 13 16  1  6  0  0  0
 13  9  1  0  0  0  0
 13 12  1  0  0  0  0
 16 15  1  6  0  0  0
 17 16  1  0  0  0  0
 18 17  1  0  0  0  0
 19 20  1  6  0  0  0
 19 18  1  0  0  0  0
 21 19  1  0  0  0  0
 22 21  1  6  0  0  0
 22 25  1  0  0  0  0
 23 28  1  0  0  0  0
 24 27  2  0  0  0  0
 24 23  1  0  0  0  0
 25 24  1  0  0  0  0
 26 23  1  0  0  0  0
 28 29  1  0  0  0  0
 29 31  1  0  0  0  0
 31 30  1  0  0  0  0
 33 34  1  0  0  0  0
 33 32  1  0  0  0  0
 33 22  1  0  0  0  0
 34 32  1  0  0  0  0
 36 35  1  0  0  0  0
 37 39  1  6  0  0  0
 37 38  1  0  0  0  0
 37 40  1  0  0  0  0
 38 43  1  0  0  0  0
 39 38  1  0  0  0  0
 40 41  2  0  0  0  0
 41 36  1  0  0  0  0
 42 39  2  0  0  0  0
 43 41  1  0  0  0  0
M  END
>  <MODEL>
4

>  <REMARK>
 VINA RESULT:      -8.1      2.004      2.697
  Name = 
  14 active torsions:
  status: ('A' for Active; 'I' for Inactive)
    1  A    between atoms: C_1  and  C_28
    2  A    between atoms: C_1  and  N_34
    3  A    between atoms: C_2  and  C_6
    4  A    between atoms: C_2  and  C_13
    5  A    between atoms: C_3  and  C_4
    6  A    between atoms: C_3  and  C_12
    7  A    between atoms: C_4  and  C_15
    8  A    between atoms: C_4  and  N_22
    9  A    between atoms: C_6  and  C_12
   10  A    between atoms: N_11  and  C_40
   11  A    between atoms: C_13  and  C_38
   12  A    between atoms: C_26  and  O_31
   13  A    between atoms: C_26  and  C_40
   14  A    between atoms: C_28  and  C_35
                            x       y       z     vdW  Elec       q    Type
                         _______ _______ _______ _____ _____    ______ ____

>  <TORSDO>
F 14

$$$$
=
 OpenBabel10262422293D

 43 48  0  0  1  0  0  0  0  0999 V2000
  191.3630  176.6600  147.3190 C   0  0  0  0  0  0  0  0  0  0  0  0
  187.2060  177.8390  144.7630 C   0  0  0  0  0  0  0  0  0  0  0  0
  189.1280  177.3660  146.7130 C   0  0  0  0  0  0  0  0  0  0  0  0
  191.6640  176.4270  145.9730 C   0  0  0  0  0  3  0  0  0  0  0  0
  192.3020  176.4310  148.2690 F   0  0  0  0  0  0  0  0  0  0  0  0
  189.4340  177.1330  145.3470 C   0  0  0  0  0  0  0  0  0  0  0  0
  190.0980  177.1270  147.6900 C   0  0  0  0  0  3  0  0  0  0  0  0
  190.7020  176.6630  144.9860 C   0  0  0  0  0  3  0  0  0  0  0  0
  188.5000  177.1870  142.9170 C   0  0  0  0  0  2  0  0  0  0  0  0
  188.4420  177.3820  144.3930 C   0  0  0  0  0  0  0  0  0  0  0  0
  186.8760  178.0670  146.1010 C   0  0  0  0  0  3  0  0  0  0  0  0
  186.3550  178.0070  143.6460 N   0  0  0  0  0  0  0  0  0  0  0  0
  187.0900  177.6020  142.4460 C   0  0  1  0  0  3  0  0  0  0  0  0
  187.8520  177.8290  147.0810 C   0  0  0  0  0  3  0  0  0  0  0  0
  186.1590  178.7200  140.4930 O   0  0  0  0  0  1  0  0  0  0  0  0
  187.2060  178.7350  141.4210 C   0  0  2  0  0  3  0  0  0  0  0  0
  188.5500  178.6570  140.7050 C   0  0  0  0  0  2  0  0  0  0  0  0
  188.3770  178.3110  139.2300 C   0  0  0  0  0  2  0  0  0  0  0  0
  189.2290  177.1070  138.8690 C   0  0  2  0  0  3  0  0  0  0  0  0
  190.4540  177.0280  139.7620 C   0  0  0  0  0  1  0  0  0  0  0  0
  189.5980  177.0410  137.3770 C   0  0  0  0  0  2  0  0  0  0  0  0
  190.1850  175.7180  136.8540 C   0  0  2  0  0  3  0  0  0  0  0  0
  193.9740  175.4520  136.2990 N   0  0  0  0  0  0  0  0  0  0  0  0
  192.6850  175.2640  136.8980 C   0  0  0  0  0  0  0  0  0  0  0  0
  191.5350  175.9010  136.3360 N   0  0  0  0  0  2  0  0  0  0  0  0
  194.1130  176.2290  135.0770 C   0  0  0  0  0  1  0  0  0  0  0  0
  192.5670  174.5470  137.9300 O   0  0  0  0  0  0  0  0  0  0  0  0
  195.1730  174.8910  136.9090 C   0  0  0  0  0  2  0  0  0  0  0  0
  196.3490  174.9730  135.9480 C   0  0  0  0  0  2  0  0  0  0  0  0
  197.2530  176.8770  135.5340 F   0  0  0  0  0  0  0  0  0  0  0  0
  197.2870  175.8930  136.4160 O   0  0  0  0  0  0  0  0  0  0  0  0
  189.5870  173.5910  135.7070 C   0  0  0  0  0  2  0  0  0  0  0  0
  189.2890  175.0740  135.8030 C   0  0  0  0  0  3  0  0  0  0  0  0
  188.3680  174.0680  136.4650 C   0  0  0  0  0  2  0  0  0  0  0  0
  184.9020  177.9320  143.7270 C   0  0  0  0  0  2  0  0  0  0  0  0
  184.3030  179.3230  143.5980 C   0  0  0  0  0  2  0  0  0  0  0  0
  180.8040  179.5470  142.4050 C   0  0  1  0  0  3  0  0  0  0  0  0
  181.5600  178.7760  141.5720 N   0  0  0  0  0  0  0  0  0  0  0  0
  180.3040  178.2760  142.2790 C   0  0  0  0  0  0  0  0  0  0  0  0
  181.8860  179.7140  143.3760 N   0  0  0  0  0  0  0  0  0  0  0  0
  183.0170  179.2530  142.8550 C   0  0  0  0  0  0  0  0  0  0  0  0
  179.5840  177.3070  142.7340 N   0  0  0  0  0  2  0  0  0  0  0  0
  182.9230  178.6250  141.5470 N   0  0  0  0  0  2  0  0  0  0  0  0
  1  7  1  0  0  0  0
  1  5  1  0  0  0  0
  2 11  1  0  0  0  0
  3 14  1  0  0  0  0
  3  7  2  0  0  0  0
  4  1  2  0  0  0  0
  6  3  1  0  0  0  0
  8  6  2  0  0  0  0
  8  4  1  0  0  0  0
  9 10  1  0  0  0  0
 10  2  2  0  0  0  0
 10  6  1  0  0  0  0
 11 14  2  0  0  0  0
 12 35  1  0  0  0  0
 12  2  1  0  0  0  0
 13 16  1  6  0  0  0
 13  9  1  0  0  0  0
 13 12  1  0  0  0  0
 16 15  1  6  0  0  0
 17 16  1  0  0  0  0
 18 17  1  0  0  0  0
 19 18  1  0  0  0  0
 19 20  1  1  0  0  0
 21 19  1  0  0  0  0
 22 21  1  6  0  0  0
 23 24  1  0  0  0  0
 23 28  1  0  0  0  0
 24 27  2  0  0  0  0
 25 22  1  0  0  0  0
 25 24  1  0  0  0  0
 26 23  1  0  0  0  0
 29 31  1  0  0  0  0
 29 28  1  0  0  0  0
 30 31  1  0  0  0  0
 32 33  1  0  0  0  0
 32 34  1  0  0  0  0
 33 34  1  0  0  0  0
 33 22  1  0  0  0  0
 36 35  1  0  0  0  0
 37 39  1  1  0  0  0
 37 40  1  0  0  0  0
 38 39  1  0  0  0  0
 38 37  1  0  0  0  0
 39 42  2  0  0  0  0
 41 40  2  0  0  0  0
 41 36  1  0  0  0  0
 43 38  1  0  0  0  0
 43 41  1  0  0  0  0
M  END
>  <MODEL>
5

>  <REMARK>
 VINA RESULT:      -8.1      3.462      4.945
  Name = 
  14 active torsions:
  status: ('A' for Active; 'I' for Inactive)
    1  A    between atoms: C_1  and  C_28
    2  A    between atoms: C_1  and  N_34
    3  A    between atoms: C_2  and  C_6
    4  A    between atoms: C_2  and  C_13
    5  A    between atoms: C_3  and  C_4
    6  A    between atoms: C_3  and  C_12
    7  A    between atoms: C_4  and  C_15
    8  A    between atoms: C_4  and  N_22
    9  A    between atoms: C_6  and  C_12
   10  A    between atoms: N_11  and  C_40
   11  A    between atoms: C_13  and  C_38
   12  A    between atoms: C_26  and  O_31
   13  A    between atoms: C_26  and  C_40
   14  A    between atoms: C_28  and  C_35
                            x       y       z     vdW  Elec       q    Type
                         _______ _______ _______ _____ _____    ______ ____

>  <TORSDO>
F 14

$$$$
=
 OpenBabel10262422293D

 43 48  0  0  1  0  0  0  0  0999 V2000
  188.9320  177.4030  136.2440 C   0  0  0  0  0  0  0  0  0  0  0  0
  184.3780  177.8540  138.3070 C   0  0  0  0  0  0  0  0  0  0  0  0
  186.5510  177.3000  136.6680 C   0  0  0  0  0  0  0  0  0  0  0  0
  189.1280  178.0650  137.4610 C   0  0  0  0  0  3  0  0  0  0  0  0
  189.9930  177.1320  135.4460 F   0  0  0  0  0  0  0  0  0  0  0  0
  186.7490  177.9680  137.9040 C   0  0  0  0  0  0  0  0  0  0  0  0
  187.6470  177.0220  135.8460 C   0  0  0  0  0  3  0  0  0  0  0  0
  188.0390  178.3480  138.2920 C   0  0  0  0  0  3  0  0  0  0  0  0
  185.5710  178.9390  140.0120 C   0  0  0  0  0  2  0  0  0  0  0  0
  185.6320  178.2300  138.7040 C   0  0  0  0  0  0  0  0  0  0  0  0
  184.1530  177.2040  137.0920 C   0  0  0  0  0  3  0  0  0  0  0  0
  183.3970  178.2290  139.2540 N   0  0  0  0  0  0  0  0  0  0  0  0
  184.0650  178.9340  140.3510 C   0  0  1  0  0  3  0  0  0  0  0  0
  185.2550  176.9240  136.2700 C   0  0  0  0  0  3  0  0  0  0  0  0
  182.8010  178.8260  142.4300 O   0  0  0  0  0  1  0  0  0  0  0  0
  183.8480  178.2480  141.7040 C   0  0  2  0  0  3  0  0  0  0  0  0
  185.1360  178.2790  142.5190 C   0  0  0  0  0  2  0  0  0  0  0  0
  184.9610  179.0680  143.8120 C   0  0  0  0  0  2  0  0  0  0  0  0
  185.3270  178.2050  145.0070 C   0  0  2  0  0  3  0  0  0  0  0  0
  185.1590  178.9810  146.3010 C   0  0  0  0  0  1  0  0  0  0  0  0
  186.7200  177.5620  144.8960 C   0  0  0  0  0  2  0  0  0  0  0  0
  187.8010  178.0470  145.8800 C   0  0  2  0  0  3  0  0  0  0  0  0
  190.8030  177.7730  143.5030 N   0  0  0  0  0  0  0  0  0  0  0  0
  189.5690  177.4460  144.1560 C   0  0  0  0  0  0  0  0  0  0  0  0
  189.0710  178.2810  145.2040 N   0  0  0  0  0  2  0  0  0  0  0  0
  191.5200  178.9900  143.8490 C   0  0  0  0  0  1  0  0  0  0  0  0
  188.9290  176.4130  143.8140 O   0  0  0  0  0  0  0  0  0  0  0  0
  191.3780  176.8870  142.4990 C   0  0  0  0  0  2  0  0  0  0  0  0
  191.0900  177.4090  141.1000 C   0  0  0  0  0  2  0  0  0  0  0  0
  191.2640  176.2530  139.2970 F   0  0  0  0  0  0  0  0  0  0  0  0
  190.4670  176.4200  140.3380 O   0  0  0  0  0  0  0  0  0  0  0  0
  189.2980  177.3600  147.7450 C   0  0  0  0  0  2  0  0  0  0  0  0
  187.9820  177.0830  147.0460 C   0  0  0  0  0  3  0  0  0  0  0  0
  188.0030  177.8570  148.3490 C   0  0  0  0  0  2  0  0  0  0  0  0
  182.0040  178.4800  138.9090 C   0  0  0  0  0  2  0  0  0  0  0  0
  181.9220  179.1890  137.5670 C   0  0  0  0  0  2  0  0  0  0  0  0
  180.2240  182.4570  137.1720 C   0  0  1  0  0  3  0  0  0  0  0  0
  180.6800  182.2900  138.4470 N   0  0  0  0  0  0  0  0  0  0  0  0
  181.0950  183.4490  137.5450 C   0  0  0  0  0  0  0  0  0  0  0  0
  180.8350  181.2150  136.6960 N   0  0  0  0  0  0  0  0  0  0  0  0
  181.2820  180.5200  137.7360 C   0  0  0  0  0  0  0  0  0  0  0  0
  181.9280  184.3820  137.2300 N   0  0  0  0  0  2  0  0  0  0  0  0
  181.1640  181.1520  139.0400 N   0  0  0  0  0  2  0  0  0  0  0  0
  1  4  1  0  0  0  0
  2 10  1  0  0  0  0
  2 12  1  0  0  0  0
  3  6  1  0  0  0  0
  4  8  2  0  0  0  0
  5  1  1  0  0  0  0
  6  8  1  0  0  0  0
  6 10  2  0  0  0  0
  7  1  2  0  0  0  0
  7  3  1  0  0  0  0
  9 13  1  0  0  0  0
 10  9  1  0  0  0  0
 11  2  2  0  0  0  0
 12 13  1  0  0  0  0
 13 16  1  1  0  0  0
 14  3  2  0  0  0  0
 14 11  1  0  0  0  0
 16 15  1  1  0  0  0
 16 17  1  0  0  0  0
 17 18  1  0  0  0  0
 18 19  1  0  0  0  0
 19 20  1  1  0  0  0
 21 19  1  0  0  0  0
 22 21  1  6  0  0  0
 22 33  1  0  0  0  0
 23 26  1  0  0  0  0
 23 24  1  0  0  0  0
 24 25  1  0  0  0  0
 25 22  1  0  0  0  0
 27 24  2  0  0  0  0
 28 23  1  0  0  0  0
 29 28  1  0  0  0  0
 30 31  1  0  0  0  0
 31 29  1  0  0  0  0
 32 34  1  0  0  0  0
 33 32  1  0  0  0  0
 33 34  1  0  0  0  0
 35 12  1  0  0  0  0
 36 41  1  0  0  0  0
 36 35  1  0  0  0  0
 37 40  1  6  0  0  0
 37 39  1  0  0  0  0
 37 38  1  0  0  0  0
 38 43  1  0  0  0  0
 39 38  1  0  0  0  0
 40 41  2  0  0  0  0
 41 43  1  0  0  0  0
 42 39  2  0  0  0  0
M  END
>  <MODEL>
6

>  <REMARK>
 VINA RESULT:      -7.7      3.323      7.282
  Name = 
  14 active torsions:
  status: ('A' for Active; 'I' for Inactive)
    1  A    between atoms: C_1  and  C_28
    2  A    between atoms: C_1  and  N_34
    3  A    between atoms: C_2  and  C_6
    4  A    between atoms: C_2  and  C_13
    5  A    between atoms: C_3  and  C_4
    6  A    between atoms: C_3  and  C_12
    7  A    between atoms: C_4  and  C_15
    8  A    between atoms: C_4  and  N_22
    9  A    between atoms: C_6  and  C_12
   10  A    between atoms: N_11  and  C_40
   11  A    between atoms: C_13  and  C_38
   12  A    between atoms: C_26  and  O_31
   13  A    between atoms: C_26  and  C_40
   14  A    between atoms: C_28  and  C_35
                            x       y       z     vdW  Elec       q    Type
                         _______ _______ _______ _____ _____    ______ ____

>  <TORSDO>
F 14

$$$$
=
 OpenBabel10262422293D

 43 48  0  0  1  0  0  0  0  0999 V2000
  187.5230  177.5690  147.6240 C   0  0  0  0  0  0  0  0  0  0  0  0
  187.7240  178.0130  142.6270 C   0  0  0  0  0  0  0  0  0  0  0  0
  188.2070  177.4500  145.3040 C   0  0  0  0  0  0  0  0  0  0  0  0
  186.3600  178.2530  147.2540 C   0  0  0  0  0  3  0  0  0  0  0  0
  187.7560  177.2930  148.9290 F   0  0  0  0  0  0  0  0  0  0  0  0
  187.0260  178.1410  144.9290 C   0  0  0  0  0  0  0  0  0  0  0  0
  188.4460  177.1690  146.6520 C   0  0  0  0  0  3  0  0  0  0  0  0
  186.1090  178.5390  145.9090 C   0  0  0  0  0  3  0  0  0  0  0  0
  185.6860  179.1380  142.9310 C   0  0  0  0  0  2  0  0  0  0  0  0
  186.8150  178.4070  143.5720 C   0  0  0  0  0  0  0  0  0  0  0  0
  188.8990  177.3400  142.9700 C   0  0  0  0  0  3  0  0  0  0  0  0
  187.3230  178.3950  141.3260 N   0  0  0  0  0  0  0  0  0  0  0  0
  186.0570  179.1240  141.4320 C   0  0  1  0  0  3  0  0  0  0  0  0
  189.1350  177.0570  144.3240 C   0  0  0  0  0  3  0  0  0  0  0  0
  184.6550  179.1380  139.4410 O   0  0  0  0  0  1  0  0  0  0  0  0
  184.9310  178.4600  140.6340 C   0  0  2  0  0  3  0  0  0  0  0  0
  183.6720  178.3580  141.4880 C   0  0  0  0  0  2  0  0  0  0  0  0
  182.4650  177.9380  140.6560 C   0  0  0  0  0  2  0  0  0  0  0  0
  181.3390  178.9440  140.8190 C   0  0  2  0  0  3  0  0  0  0  0  0
  180.5110  178.6300  142.0510 C   0  0  0  0  0  1  0  0  0  0  0  0
  180.4660  179.0960  139.5600 C   0  0  0  0  0  2  0  0  0  0  0  0
  181.1940  179.2500  138.2130 C   0  0  2  0  0  3  0  0  0  0  0  0
  180.7330  182.8280  136.9000 N   0  0  0  0  0  0  0  0  0  0  0  0
  181.2140  181.7390  137.7010 C   0  0  0  0  0  0  0  0  0  0  0  0
  180.7190  180.4160  137.4790 N   0  0  0  0  0  2  0  0  0  0  0  0
  179.7970  182.5870  135.8140 C   0  0  0  0  0  1  0  0  0  0  0  0
  182.0650  181.9500  138.6090 O   0  0  0  0  0  0  0  0  0  0  0  0
  181.1530  184.1980  137.1700 C   0  0  0  0  0  2  0  0  0  0  0  0
  180.2550  185.1840  136.4400 C   0  0  0  0  0  2  0  0  0  0  0  0
  179.6610  185.4010  138.4930 F   0  0  0  0  0  0  0  0  0  0  0  0
  179.6700  186.0650  137.3500 O   0  0  0  0  0  0  0  0  0  0  0  0
  181.6400  178.2560  135.9750 C   0  0  0  0  0  2  0  0  0  0  0  0
  181.0800  177.9940  137.3580 C   0  0  0  0  0  3  0  0  0  0  0  0
  182.4650  177.4980  136.9910 C   0  0  0  0  0  2  0  0  0  0  0  0
  188.2600  178.6270  140.2350 C   0  0  0  0  0  2  0  0  0  0  0  0
  188.4720  177.3420  139.4510 C   0  0  0  0  0  2  0  0  0  0  0  0
  187.5410  178.6290  136.1060 C   0  0  1  0  0  3  0  0  0  0  0  0
  188.1350  177.4040  136.0140 N   0  0  0  0  0  0  0  0  0  0  0  0
  186.7330  177.7050  135.4930 C   0  0  0  0  0  0  0  0  0  0  0  0
  187.5320  178.6140  137.5690 N   0  0  0  0  0  0  0  0  0  0  0  0
  188.2640  177.5930  138.0010 C   0  0  0  0  0  0  0  0  0  0  0  0
  185.5580  177.3060  135.1400 N   0  0  0  0  0  2  0  0  0  0  0  0
  188.8020  176.7030  136.9860 N   0  0  0  0  0  2  0  0  0  0  0  0
  1  5  1  0  0  0  0
  2 11  2  0  0  0  0
  2 10  1  0  0  0  0
  3  7  1  0  0  0  0
  4  1  1  0  0  0  0
  6  3  1  0  0  0  0
  6  8  1  0  0  0  0
  7  1  2  0  0  0  0
  8  4  2  0  0  0  0
  9 10  1  0  0  0  0
 10  6  2  0  0  0  0
 11 14  1  0  0  0  0
 12 13  1  0  0  0  0
 12  2  1  0  0  0  0
 13 16  1  6  0  0  0
 13  9  1  0  0  0  0
 14  3  2  0  0  0  0
 16 15  1  6  0  0  0
 16 17  1  0  0  0  0
 18 19  1  0  0  0  0
 18 17  1  0  0  0  0
 19 20  1  1  0  0  0
 21 19  1  0  0  0  0
 22 21  1  1  0  0  0
 23 28  1  0  0  0  0
 23 24  1  0  0  0  0
 24 27  2  0  0  0  0
 25 24  1  0  0  0  0
 25 22  1  0  0  0  0
 26 23  1  0  0  0  0
 29 28  1  0  0  0  0
 29 31  1  0  0  0  0
 31 30  1  0  0  0  0
 32 34  1  0  0  0  0
 32 33  1  0  0  0  0
 33 22  1  0  0  0  0
 34 33  1  0  0  0  0
 35 12  1  0  0  0  0
 36 35  1  0  0  0  0
 37 39  1  6  0  0  0
 37 40  1  0  0  0  0
 38 37  1  0  0  0  0
 38 43  1  0  0  0  0
 39 38  1  0  0  0  0
 40 41  2  0  0  0  0
 41 36  1  0  0  0  0
 42 39  2  0  0  0  0
 43 41  1  0  0  0  0
M  END
>  <MODEL>
7

>  <REMARK>
 VINA RESULT:      -7.5      4.017      8.129
  Name = 
  14 active torsions:
  status: ('A' for Active; 'I' for Inactive)
    1  A    between atoms: C_1  and  C_28
    2  A    between atoms: C_1  and  N_34
    3  A    between atoms: C_2  and  C_6
    4  A    between atoms: C_2  and  C_13
    5  A    between atoms: C_3  and  C_4
    6  A    between atoms: C_3  and  C_12
    7  A    between atoms: C_4  and  C_15
    8  A    between atoms: C_4  and  N_22
    9  A    between atoms: C_6  and  C_12
   10  A    between atoms: N_11  and  C_40
   11  A    between atoms: C_13  and  C_38
   12  A    between atoms: C_26  and  O_31
   13  A    between atoms: C_26  and  C_40
   14  A    between atoms: C_28  and  C_35
                            x       y       z     vdW  Elec       q    Type
                         _______ _______ _______ _____ _____    ______ ____

>  <TORSDO>
F 14

$$$$
=
 OpenBabel10262422293D

 43 48  0  0  1  0  0  0  0  0999 V2000
  188.8370  177.1840  146.3270 C   0  0  0  0  0  0  0  0  0  0  0  0
  190.0710  177.1210  141.4610 C   0  0  0  0  0  0  0  0  0  0  0  0
  189.9140  176.7290  144.2060 C   0  0  0  0  0  0  0  0  0  0  0  0
  187.9240  178.0320  145.6900 C   0  0  0  0  0  3  0  0  0  0  0  0
  188.7580  176.9920  147.6650 F   0  0  0  0  0  0  0  0  0  0  0  0
  188.9860  177.5860  143.5600 C   0  0  0  0  0  0  0  0  0  0  0  0
  189.8320  176.5350  145.5880 C   0  0  0  0  0  3  0  0  0  0  0  0
  187.9970  178.2340  144.3090 C   0  0  0  0  0  3  0  0  0  0  0  0
  188.2760  178.6220  141.2790 C   0  0  0  0  0  2  0  0  0  0  0  0
  189.0950  177.7590  142.1760 C   0  0  0  0  0  0  0  0  0  0  0  0
  191.0030  176.2790  142.0730 C   0  0  0  0  0  3  0  0  0  0  0  0
  190.0090  177.4480  140.0860 N   0  0  0  0  0  0  0  0  0  0  0  0
  188.9150  178.4030  139.8910 C   0  0  1  0  0  3  0  0  0  0  0  0
  190.9160  176.0840  143.4600 C   0  0  0  0  0  3  0  0  0  0  0  0
  187.9470  178.4910  137.6590 O   0  0  0  0  0  1  0  0  0  0  0  0
  187.8540  177.8840  138.9160 C   0  0  2  0  0  3  0  0  0  0  0  0
  186.4610  178.0890  139.5000 C   0  0  0  0  0  2  0  0  0  0  0  0
  185.4570  178.4890  138.4250 C   0  0  0  0  0  2  0  0  0  0  0  0
  184.5160  177.3340  138.1280 C   0  0  2  0  0  3  0  0  0  0  0  0
  184.0910  177.3470  136.6720 C   0  0  0  0  0  1  0  0  0  0  0  0
  183.3100  177.2650  139.0820 C   0  0  0  0  0  2  0  0  0  0  0  0
  182.7490  178.5990  139.6060 C   0  0  2  0  0  3  0  0  0  0  0  0
  183.3130  179.0060  143.3810 N   0  0  0  0  0  0  0  0  0  0  0  0
  183.5800  179.0120  141.9720 C   0  0  0  0  0  0  0  0  0  0  0  0
  182.5760  178.5740  141.0530 N   0  0  0  0  0  2  0  0  0  0  0  0
  182.0020  178.6250  143.8820 C   0  0  0  0  0  1  0  0  0  0  0  0
  184.7040  179.3920  141.5440 O   0  0  0  0  0  0  0  0  0  0  0  0
  184.3520  179.3580  144.3410 C   0  0  0  0  0  2  0  0  0  0  0  0
  184.1510  178.6030  145.6460 C   0  0  0  0  0  2  0  0  0  0  0  0
  184.9620  178.2490  147.6030 F   0  0  0  0  0  0  0  0  0  0  0  0
  184.9330  179.1680  146.6530 O   0  0  0  0  0  0  0  0  0  0  0  0
  180.9970  180.3510  139.3730 C   0  0  0  0  0  2  0  0  0  0  0  0
  181.4450  178.9780  138.9140 C   0  0  0  0  0  3  0  0  0  0  0  0
  181.6700  180.1880  138.0280 C   0  0  0  0  0  2  0  0  0  0  0  0
  191.1640  177.4030  139.1990 C   0  0  0  0  0  2  0  0  0  0  0  0
  191.0480  176.2170  138.2560 C   0  0  0  0  0  2  0  0  0  0  0  0
  194.0470  174.3760  137.1030 C   0  0  1  0  0  3  0  0  0  0  0  0
  194.3720  175.6320  137.5240 N   0  0  0  0  0  0  0  0  0  0  0  0
  194.9670  174.3600  138.1200 C   0  0  0  0  0  0  0  0  0  0  0  0
  192.6470  174.5060  137.5090 N   0  0  0  0  0  0  0  0  0  0  0  0
  192.4020  175.7700  137.8360 C   0  0  0  0  0  0  0  0  0  0  0  0
  195.5480  173.7420  139.0920 N   0  0  0  0  0  2  0  0  0  0  0  0
  193.5360  176.6790  137.8180 N   0  0  0  0  0  2  0  0  0  0  0  0
  1  5  1  0  0  0  0
  2 11  2  0  0  0  0
  2 10  1  0  0  0  0
  3  7  1  0  0  0  0
  4  1  1  0  0  0  0
  6  3  1  0  0  0  0
  6  8  1  0  0  0  0
  7  1  2  0  0  0  0
  8  4  2  0  0  0  0
  9 10  1  0  0  0  0
 10  6  2  0  0  0  0
 11 14  1  0  0  0  0
 12  2  1  0  0  0  0
 13 16  1  6  0  0  0
 13 12  1  0  0  0  0
 13  9  1  0  0  0  0
 14  3  2  0  0  0  0
 16 15  1  6  0  0  0
 16 17  1  0  0  0  0
 18 17  1  0  0  0  0
 19 20  1  6  0  0  0
 19 18  1  0  0  0  0
 19 21  1  0  0  0  0
 22 21  1  6  0  0  0
 22 25  1  0  0  0  0
 23 26  1  0  0  0  0
 23 28  1  0  0  0  0
 24 23  1  0  0  0  0
 25 24  1  0  0  0  0
 27 24  2  0  0  0  0
 28 29  1  0  0  0  0
 29 31  1  0  0  0  0
 31 30  1  0  0  0  0
 33 32  1  0  0  0  0
 33 22  1  0  0  0  0
 34 33  1  0  0  0  0
 34 32  1  0  0  0  0
 35 12  1  0  0  0  0
 36 35  1  0  0  0  0
 37 40  1  1  0  0  0
 37 38  1  0  0  0  0
 37 39  1  0  0  0  0
 38 43  1  0  0  0  0
 38 39  1  0  0  0  0
 39 42  2  0  0  0  0
 40 41  2  0  0  0  0
 41 36  1  0  0  0  0
 43 41  1  0  0  0  0
M  END
>  <MODEL>
8

>  <REMARK>
 VINA RESULT:      -7.5      2.685      8.287
  Name = 
  14 active torsions:
  status: ('A' for Active; 'I' for Inactive)
    1  A    between atoms: C_1  and  C_28
    2  A    between atoms: C_1  and  N_34
    3  A    between atoms: C_2  and  C_6
    4  A    between atoms: C_2  and  C_13
    5  A    between atoms: C_3  and  C_4
    6  A    between atoms: C_3  and  C_12
    7  A    between atoms: C_4  and  C_15
    8  A    between atoms: C_4  and  N_22
    9  A    between atoms: C_6  and  C_12
   10  A    between atoms: N_11  and  C_40
   11  A    between atoms: C_13  and  C_38
   12  A    between atoms: C_26  and  O_31
   13  A    between atoms: C_26  and  C_40
   14  A    between atoms: C_28  and  C_35
                            x       y       z     vdW  Elec       q    Type
                         _______ _______ _______ _____ _____    ______ ____

>  <TORSDO>
F 14

$$$$
=
 OpenBabel10262422293D

 43 48  0  0  1  0  0  0  0  0999 V2000
  183.7920  178.7630  144.5390 C   0  0  0  0  0  0  0  0  0  0  0  0
  188.3460  177.7790  142.6710 C   0  0  0  0  0  0  0  0  0  0  0  0
  186.1080  178.1080  144.2840 C   0  0  0  0  0  0  0  0  0  0  0  0
  183.7260  179.0900  143.1800 C   0  0  0  0  0  3  0  0  0  0  0  0
  182.6990  178.9220  145.3240 F   0  0  0  0  0  0  0  0  0  0  0  0
  186.0410  178.4360  142.9050 C   0  0  0  0  0  0  0  0  0  0  0  0
  184.9800  178.2750  145.0910 C   0  0  0  0  0  3  0  0  0  0  0  0
  184.8480  178.9270  142.3620 C   0  0  0  0  0  3  0  0  0  0  0  0
  187.3830  178.5560  140.6770 C   0  0  0  0  0  2  0  0  0  0  0  0
  187.1870  178.2570  142.1230 C   0  0  0  0  0  0  0  0  0  0  0  0
  188.4430  177.4580  144.0270 C   0  0  0  0  0  3  0  0  0  0  0  0
  189.3810  177.6920  141.7110 N   0  0  0  0  0  0  0  0  0  0  0  0
  188.8600  178.1790  140.4310 C   0  0  1  0  0  3  0  0  0  0  0  0
  187.3080  177.6240  144.8360 C   0  0  0  0  0  3  0  0  0  0  0  0
  190.1600  177.1580  138.6430 O   0  0  0  0  0  1  0  0  0  0  0  0
  188.9400  177.1200  139.3260 C   0  0  2  0  0  3  0  0  0  0  0  0
  187.7820  177.2930  138.3500 C   0  0  0  0  0  2  0  0  0  0  0  0
  188.2320  177.0920  136.9080 C   0  0  0  0  0  2  0  0  0  0  0  0
  187.6900  175.7810  136.3650 C   0  0  2  0  0  3  0  0  0  0  0  0
  188.6320  175.1970  135.3290 C   0  0  0  0  0  1  0  0  0  0  0  0
  186.2460  175.8850  135.8410 C   0  0  0  0  0  2  0  0  0  0  0  0
  185.1770  175.0340  136.5490 C   0  0  2  0  0  3  0  0  0  0  0  0
  182.5740  177.2250  138.3260 N   0  0  0  0  0  0  0  0  0  0  0  0
  183.2540  176.5300  137.2720 C   0  0  0  0  0  0  0  0  0  0  0  0
  184.4560  175.8080  137.5520 N   0  0  0  0  0  2  0  0  0  0  0  0
  183.0570  177.1430  139.6950 C   0  0  0  0  0  1  0  0  0  0  0  0
  182.8000  176.5660  136.0950 O   0  0  0  0  0  0  0  0  0  0  0  0
  181.4010  178.0450  138.0470 C   0  0  0  0  0  2  0  0  0  0  0  0
  181.4760  179.3600  138.8070 C   0  0  0  0  0  2  0  0  0  0  0  0
  182.3370  181.3260  138.7200 F   0  0  0  0  0  0  0  0  0  0  0  0
  181.8140  180.3970  137.9380 O   0  0  0  0  0  0  0  0  0  0  0  0
  184.6600  172.8350  137.5950 C   0  0  0  0  0  2  0  0  0  0  0  0
  185.7710  173.7740  137.1670 C   0  0  0  0  0  3  0  0  0  0  0  0
  185.4180  172.5710  136.3130 C   0  0  0  0  0  2  0  0  0  0  0  0
  190.7960  177.7650  142.0480 C   0  0  0  0  0  2  0  0  0  0  0  0
  191.2480  176.4570  142.6760 C   0  0  0  0  0  2  0  0  0  0  0  0
  191.7880  176.1180  146.3240 C   0  0  1  0  0  3  0  0  0  0  0  0
  191.6790  177.4290  145.9630 N   0  0  0  0  0  0  0  0  0  0  0  0
  190.7630  176.7530  146.9780 C   0  0  0  0  0  0  0  0  0  0  0  0
  191.4830  175.6290  144.9800 N   0  0  0  0  0  0  0  0  0  0  0  0
  191.4890  176.6500  144.1300 C   0  0  0  0  0  0  0  0  0  0  0  0
  189.6460  176.7020  147.6210 N   0  0  0  0  0  2  0  0  0  0  0  0
  191.6870  177.9720  144.7030 N   0  0  0  0  0  2  0  0  0  0  0  0
  1  7  1  0  0  0  0
  1  5  1  0  0  0  0
  2 11  1  0  0  0  0
  3 14  1  0  0  0  0
  3  7  2  0  0  0  0
  4  1  2  0  0  0  0
  6  3  1  0  0  0  0
  8  6  2  0  0  0  0
  8  4  1  0  0  0  0
  9 10  1  0  0  0  0
 10  2  2  0  0  0  0
 10  6  1  0  0  0  0
 11 14  2  0  0  0  0
 12 35  1  0  0  0  0
 12  2  1  0  0  0  0
 13 16  1  6  0  0  0
 13  9  1  0  0  0  0
 13 12  1  0  0  0  0
 16 15  1  6  0  0  0
 17 16  1  0  0  0  0
 18 17  1  0  0  0  0
 19 20  1  6  0  0  0
 19 18  1  0  0  0  0
 21 19  1  0  0  0  0
 22 21  1  1  0  0  0
 22 33  1  0  0  0  0
 22 25  1  0  0  0  0
 23 26  1  0  0  0  0
 24 25  1  0  0  0  0
 24 23  1  0  0  0  0
 27 24  2  0  0  0  0
 28 23  1  0  0  0  0
 28 29  1  0  0  0  0
 31 30  1  0  0  0  0
 31 29  1  0  0  0  0
 33 32  1  0  0  0  0
 34 33  1  0  0  0  0
 34 32  1  0  0  0  0
 35 36  1  0  0  0  0
 36 41  1  0  0  0  0
 37 40  1  6  0  0  0
 37 39  1  0  0  0  0
 38 37  1  0  0  0  0
 38 39  1  0  0  0  0
 39 42  2  0  0  0  0
 41 43  1  0  0  0  0
 41 40  2  0  0  0  0
 43 38  1  0  0  0  0
M  END
>  <MODEL>
9

>  <REMARK>
 VINA RESULT:      -7.3      3.360      7.675
  Name = 
  14 active torsions:
  status: ('A' for Active; 'I' for Inactive)
    1  A    between atoms: C_1  and  C_28
    2  A    between atoms: C_1  and  N_34
    3  A    between atoms: C_2  and  C_6
    4  A    between atoms: C_2  and  C_13
    5  A    between atoms: C_3  and  C_4
    6  A    between atoms: C_3  and  C_12
    7  A    between atoms: C_4  and  C_15
    8  A    between atoms: C_4  and  N_22
    9  A    between atoms: C_6  and  C_12
   10  A    between atoms: N_11  and  C_40
   11  A    between atoms: C_13  and  C_38
   12  A    between atoms: C_26  and  O_31
   13  A    between atoms: C_26  and  C_40
   14  A    between atoms: C_28  and  C_35
                            x       y       z     vdW  Elec       q    Type
                         _______ _______ _______ _____ _____    ______ ____

>  <TORSDO>
F 14

$$$$
